
     RDKit          3D

 41 43  0  0  0  0  0  0  0  0999 V2000
    3.1782   -1.7681    0.1819 C   0  0  0  0  0  0  0  0  0  0  0  0
    2.7521   -0.4228    0.2216 O   0  0  0  0  0  0  0  0  0  0  0  0
    3.3279    0.4320    1.1014 C   0  0  0  0  0  0  0  0  0  0  0  0
    4.3213    0.0766    2.0233 C   0  0  0  0  0  0  0  0  0  0  0  0
    4.8845    1.0319    2.8729 C   0  0  0  0  0  0  0  0  0  0  0  0
    4.4676    2.3710    2.8238 C   0  0  0  0  0  0  0  0  0  0  0  0
    5.0498    3.3802    3.6936 C   0  0  0  0  0  0  0  0  0  0  0  0
    4.8680    4.7365    3.8617 C   0  0  0  0  0  0  0  0  0  0  0  0
    5.7011    5.1961    4.8461 N   0  0  0  0  0  0  0  0  0  0  0  0
    6.3634    4.1440    5.2558 C   0  0  0  0  0  0  0  0  0  0  0  0
    7.3685    4.0973    6.2855 C   0  0  0  0  0  0  0  0  0  0  0  0
    8.0298    2.9827    6.6785 C   0  0  0  0  0  0  0  0  0  0  0  0
    9.0538    2.8954    7.7177 C   0  0  0  0  0  0  0  0  0  0  0  0
    9.4955    4.0079    8.4691 C   0  0  0  0  0  0  0  0  0  0  0  0
   10.4720    3.8738    9.4468 C   0  0  0  0  0  0  0  0  0  0  0  0
   11.0472    2.6132    9.7114 C   0  0  0  0  0  0  0  0  0  0  0  0
   12.0562    2.4737   10.7216 C   0  0  0  0  0  0  0  0  0  0  0  0
   12.8733    2.3606   11.5398 N   0  0  0  0  0  0  0  0  0  0  0  0
   10.6187    1.4951    8.9721 C   0  0  0  0  0  0  0  0  0  0  0  0
    9.6398    1.6413    7.9950 C   0  0  0  0  0  0  0  0  0  0  0  0
    6.0104    3.0062    4.5909 O   0  0  0  0  0  0  0  0  0  0  0  0
    3.4565    2.7214    1.9041 C   0  0  0  0  0  0  0  0  0  0  0  0
    2.8862    1.7821    1.0526 C   0  0  0  0  0  0  0  0  0  0  0  0
    1.9617    2.2027    0.1438 O   0  0  0  0  0  0  0  0  0  0  0  0
    0.6412    1.6892    0.2550 C   0  0  0  0  0  0  0  0  0  0  0  0
    2.5944   -2.2565   -0.6094 H   0  0  0  0  0  0  0  0  0  0  0  0
    2.9902   -2.2871    1.1389 H   0  0  0  0  0  0  0  0  0  0  0  0
    4.2521   -1.8479   -0.0630 H   0  0  0  0  0  0  0  0  0  0  0  0
    4.6748   -0.9530    2.0791 H   0  0  0  0  0  0  0  0  0  0  0  0
    5.6611    0.7327    3.5779 H   0  0  0  0  0  0  0  0  0  0  0  0
    4.1873    5.3958    3.3269 H   0  0  0  0  0  0  0  0  0  0  0  0
    7.5583    5.0729    6.7384 H   0  0  0  0  0  0  0  0  0  0  0  0
    7.7851    2.0412    6.1774 H   0  0  0  0  0  0  0  0  0  0  0  0
    9.0678    4.9951    8.2856 H   0  0  0  0  0  0  0  0  0  0  0  0
   10.8007    4.7446   10.0173 H   0  0  0  0  0  0  0  0  0  0  0  0
   11.0585    0.5159    9.1703 H   0  0  0  0  0  0  0  0  0  0  0  0
    9.3148    0.7658    7.4272 H   0  0  0  0  0  0  0  0  0  0  0  0
    3.0937    3.7474    1.8231 H   0  0  0  0  0  0  0  0  0  0  0  0
    0.0425    2.1989   -0.5127 H   0  0  0  0  0  0  0  0  0  0  0  0
    0.2109    1.9123    1.2484 H   0  0  0  0  0  0  0  0  0  0  0  0
    0.6063    0.6029    0.0799 H   0  0  0  0  0  0  0  0  0  0  0  0
  1  2  1  0
  1 26  1  0
  1 27  1  0
  1 28  1  0
  2  3  1  0
  3  4  2  0
  3 23  1  0
  4  5  1  0
  4 29  1  0
  5  6  2  0
  5 30  1  0
  6  7  1  0
  6 22  1  0
  7  8  2  0
  7 21  1  0
  8  9  1  0
  8 31  1  0
  9 10  2  0
 10 11  1  0
 10 21  1  0
 11 12  2  0
 11 32  1  0
 12 13  1  0
 12 33  1  0
 13 14  2  0
 13 20  1  0
 14 15  1  0
 14 34  1  0
 15 16  2  0
 15 35  1  0
 16 17  1  0
 16 19  1  0
 17 18  3  0
 19 20  2  0
 19 36  1  0
 20 37  1  0
 22 23  2  0
 22 38  1  0
 23 24  1  0
 24 25  1  0
 25 39  1  0
 25 40  1  0
 25 41  1  0
M  END

