
     RDKit          3D

 36 36  0  0  0  0  0  0  0  0999 V2000
    3.1839    0.7270   -1.7480 C   0  0  0  0  0  0  0  0  0  0  0  0
    4.2624    0.2000   -2.7136 C   0  0  1  0  0  0  0  0  0  0  0  0
    3.6057   -0.6305   -3.8323 C   0  0  0  0  0  0  0  0  0  0  0  0
    5.0050    1.3963   -3.3424 C   0  0  0  0  0  0  0  0  0  0  0  0
    5.3140   -0.6419   -1.9513 C   0  0  0  0  0  0  0  0  0  0  0  0
    4.6126   -2.1224   -1.1166 S   0  0  0  0  0  0  0  0  0  0  0  0
    6.1697   -2.8844   -0.4575 C   0  0  1  0  0  0  0  0  0  0  0  0
    6.7281   -2.1569    0.7786 C   0  0  0  0  0  0  0  0  0  0  0  0
    5.8533   -2.3464    2.0261 C   0  0  0  0  0  0  0  0  0  0  0  0
    5.5924   -3.8273    2.3535 C   0  0  2  0  0  0  0  0  0  0  0  0
    6.7983   -4.4424    2.9171 N   0  0  0  0  0  0  0  0  0  0  0  0
    5.0146   -4.5437    1.1098 C   0  0  0  0  0  0  0  0  0  0  0  0
    5.8990   -4.3641   -0.1322 C   0  0  0  0  0  0  0  0  0  0  0  0
    2.4626    1.3651   -2.2841 H   0  0  0  0  0  0  0  0  0  0  0  0
    3.6327    1.3305   -0.9417 H   0  0  0  0  0  0  0  0  0  0  0  0
    2.6248   -0.0952   -1.2760 H   0  0  0  0  0  0  0  0  0  0  0  0
    2.8846   -0.0177   -4.3974 H   0  0  0  0  0  0  0  0  0  0  0  0
    3.0697   -1.5027   -3.4285 H   0  0  0  0  0  0  0  0  0  0  0  0
    4.3603   -1.0039   -4.5444 H   0  0  0  0  0  0  0  0  0  0  0  0
    4.3055    2.0363   -3.9044 H   0  0  0  0  0  0  0  0  0  0  0  0
    5.7878    1.0606   -4.0424 H   0  0  0  0  0  0  0  0  0  0  0  0
    5.4856    2.0214   -2.5720 H   0  0  0  0  0  0  0  0  0  0  0  0
    5.8064   -0.0074   -1.1964 H   0  0  0  0  0  0  0  0  0  0  0  0
    6.0904   -0.9853   -2.6562 H   0  0  0  0  0  0  0  0  0  0  0  0
    6.8988   -2.8263   -1.2824 H   0  0  0  0  0  0  0  0  0  0  0  0
    6.8604   -1.0831    0.5693 H   0  0  0  0  0  0  0  0  0  0  0  0
    7.7465   -2.5463    0.9680 H   0  0  0  0  0  0  0  0  0  0  0  0
    4.8864   -1.8467    1.8523 H   0  0  0  0  0  0  0  0  0  0  0  0
    6.3249   -1.8645    2.8969 H   0  0  0  0  0  0  0  0  0  0  0  0
    4.8285   -3.8653    3.1498 H   0  0  0  0  0  0  0  0  0  0  0  0
    7.5603   -4.4498    2.2388 H   0  0  0  0  0  0  0  0  0  0  0  0
    6.6205   -5.4204    3.1492 H   0  0  0  0  0  0  0  0  0  0  0  0
    4.0053   -4.1472    0.9021 H   0  0  0  0  0  0  0  0  0  0  0  0
    4.8869   -5.6187    1.3273 H   0  0  0  0  0  0  0  0  0  0  0  0
    5.4539   -4.8677   -1.0047 H   0  0  0  0  0  0  0  0  0  0  0  0
    6.8760   -4.8509    0.0442 H   0  0  0  0  0  0  0  0  0  0  0  0
  2  1  1  1
  1 14  1  0
  1 15  1  0
  1 16  1  0
  2  3  1  0
  2  4  1  0
  2  5  1  0
  3 17  1  0
  3 18  1  0
  3 19  1  0
  4 20  1  0
  4 21  1  0
  4 22  1  0
  5  6  1  0
  5 23  1  0
  5 24  1  0
  6  7  1  0
  7  8  1  0
  7 13  1  0
  7 25  1  6
  8  9  1  0
  8 26  1  0
  8 27  1  0
  9 10  1  0
  9 28  1  0
  9 29  1  0
 10 11  1  0
 10 12  1  0
 10 30  1  1
 11 31  1  0
 11 32  1  0
 12 13  1  0
 12 33  1  0
 12 34  1  0
 13 35  1  0
 13 36  1  0
M  END

