
     RDKit          3D

103105  0  0  0  0  0  0  0  0999 V2000
   -1.3430    9.0602   -1.5961 C   0  0  0  0  0  0  0  0  0  0  0  0
    0.0286    9.6986   -1.8196 C   0  0  0  0  0  0  0  0  0  0  0  0
    1.1196    8.6924   -2.1994 C   0  0  0  0  0  0  0  0  0  0  0  0
    2.4965    9.3234   -2.4255 C   0  0  0  0  0  0  0  0  0  0  0  0
    3.5870    8.3165   -2.8032 C   0  0  0  0  0  0  0  0  0  0  0  0
    4.9640    8.9476   -3.0300 C   0  0  0  0  0  0  0  0  0  0  0  0
    6.0547    7.9395   -3.4038 C   0  0  0  0  0  0  0  0  0  0  0  0
    7.4316    8.5702   -3.6318 C   0  0  0  0  0  0  0  0  0  0  0  0
    8.5220    7.5598   -3.9995 C   0  0  0  0  0  0  0  0  0  0  0  0
    9.8987    8.1908   -4.2294 C   0  0  0  0  0  0  0  0  0  0  0  0
   10.9836    7.1721   -4.5883 C   0  0  0  0  0  0  0  0  0  0  0  0
   12.3446    7.8104   -4.8165 C   0  0  0  0  0  0  0  0  0  0  0  0
   13.2702    6.7802   -5.1327 O   0  0  0  0  0  0  0  0  0  0  0  0
   14.5639    7.0812   -5.3787 C   0  0  0  0  0  0  0  0  0  0  0  0
   15.4027    5.9802   -5.6763 C   0  0  0  0  0  0  0  0  0  0  0  0
   16.7408    6.2017   -5.9395 C   0  0  0  0  0  0  0  0  0  0  0  0
   17.3023    7.4989   -5.9196 C   0  0  0  0  0  0  0  0  0  0  0  0
   18.7065    7.7077   -6.1957 C   0  0  0  0  0  0  0  0  0  0  0  0
   19.2430    8.8843   -6.1957 N   0  0  0  0  0  0  0  0  0  0  0  0
   20.6161    9.0964   -6.4095 C   0  0  0  0  0  0  0  0  0  0  0  0
   21.6032    8.1590   -6.0112 C   0  0  0  0  0  0  0  0  0  0  0  0
   22.9630    8.3906   -6.2270 C   0  0  0  0  0  0  0  0  0  0  0  0
   23.3195    9.5842   -6.8527 C   0  0  0  0  0  0  0  0  0  0  0  0
   24.5375   10.1431   -7.2166 N   0  0  0  0  0  0  0  0  0  0  0  0
   25.4645    9.7557   -7.0988 H   0  0  0  0  0  0  0  0  0  0  0  0
   24.2467   11.3596   -7.7881 C   0  0  0  0  0  0  0  0  0  0  0  0
   25.2593   12.0979   -8.2271 O   0  0  0  0  0  0  0  0  0  0  0  0
   24.9220   13.3621   -8.8230 C   0  0  0  0  0  0  0  0  0  0  0  0
   26.2110   14.0383   -9.2532 C   0  0  0  0  0  0  0  0  0  0  0  0
   25.9704   15.4010   -9.9092 C   0  0  0  0  0  0  0  0  0  0  0  0
   27.2595   16.1017  -10.3490 C   0  0  0  0  0  0  0  0  0  0  0  0
   27.0286   17.4638  -11.0096 C   0  0  0  0  0  0  0  0  0  0  0  0
   28.3175   18.1655  -11.4477 C   0  0  0  0  0  0  0  0  0  0  0  0
   28.0889   19.5268  -12.1112 C   0  0  0  0  0  0  0  0  0  0  0  0
   29.3784   20.2285  -12.5477 C   0  0  0  0  0  0  0  0  0  0  0  0
   29.1509   21.5891  -13.2130 C   0  0  0  0  0  0  0  0  0  0  0  0
   30.4403   22.2912  -13.6486 C   0  0  0  0  0  0  0  0  0  0  0  0
   30.2136   23.6518  -14.3150 C   0  0  0  0  0  0  0  0  0  0  0  0
   31.5063   24.3460  -14.7462 C   0  0  0  0  0  0  0  0  0  0  0  0
   22.9753   11.6454   -7.8302 N   0  0  0  0  0  0  0  0  0  0  0  0
   22.3524   10.5489   -7.2471 C   0  0  0  0  0  0  0  0  0  0  0  0
   20.9971   10.3078   -7.0128 C   0  0  0  0  0  0  0  0  0  0  0  0
   16.4454    8.6013   -5.6212 C   0  0  0  0  0  0  0  0  0  0  0  0
   16.9081    9.8473   -5.5923 O   0  0  0  0  0  0  0  0  0  0  0  0
   15.0827    8.3792   -5.3523 C   0  0  0  0  0  0  0  0  0  0  0  0
   -2.1015    9.8120   -1.3250 H   0  0  0  0  0  0  0  0  0  0  0  0
   -1.3104    8.3135   -0.7848 H   0  0  0  0  0  0  0  0  0  0  0  0
   -1.6973    8.5429   -2.5037 H   0  0  0  0  0  0  0  0  0  0  0  0
    0.3369   10.2399   -0.9064 H   0  0  0  0  0  0  0  0  0  0  0  0
   -0.0466   10.4672   -2.6105 H   0  0  0  0  0  0  0  0  0  0  0  0
    0.8121    8.1499   -3.1131 H   0  0  0  0  0  0  0  0  0  0  0  0
    1.1961    7.9229   -1.4082 H   0  0  0  0  0  0  0  0  0  0  0  0
    2.8029    9.8668   -1.5121 H   0  0  0  0  0  0  0  0  0  0  0  0
    2.4198   10.0918   -3.2173 H   0  0  0  0  0  0  0  0  0  0  0  0
    3.2807    7.7724   -3.7162 H   0  0  0  0  0  0  0  0  0  0  0  0
    3.6643    7.5485   -2.0110 H   0  0  0  0  0  0  0  0  0  0  0  0
    5.2695    9.4937   -2.1179 H   0  0  0  0  0  0  0  0  0  0  0  0
    4.8877    9.7138   -3.8240 H   0  0  0  0  0  0  0  0  0  0  0  0
    5.7490    7.3924   -4.3151 H   0  0  0  0  0  0  0  0  0  0  0  0
    6.1316    7.1743   -2.6090 H   0  0  0  0  0  0  0  0  0  0  0  0
    7.7361    9.1202   -2.7218 H   0  0  0  0  0  0  0  0  0  0  0  0
    7.3562    9.3325   -4.4296 H   0  0  0  0  0  0  0  0  0  0  0  0
    8.2185    7.0083   -4.9086 H   0  0  0  0  0  0  0  0  0  0  0  0
    8.5998    6.7990   -3.2009 H   0  0  0  0  0  0  0  0  0  0  0  0
   10.1998    8.7461   -3.3217 H   0  0  0  0  0  0  0  0  0  0  0  0
    9.8220    8.9476   -5.0322 H   0  0  0  0  0  0  0  0  0  0  0  0
   10.6990    6.6178   -5.4994 H   0  0  0  0  0  0  0  0  0  0  0  0
   11.0798    6.4204   -3.7860 H   0  0  0  0  0  0  0  0  0  0  0  0
   12.6787    8.3531   -3.9121 H   0  0  0  0  0  0  0  0  0  0  0  0
   12.2991    8.5443   -5.6432 H   0  0  0  0  0  0  0  0  0  0  0  0
   14.9668    4.9805   -5.6896 H   0  0  0  0  0  0  0  0  0  0  0  0
   17.3933    5.3540   -6.1697 H   0  0  0  0  0  0  0  0  0  0  0  0
   19.3043    6.8060   -6.4228 H   0  0  0  0  0  0  0  0  0  0  0  0
   21.2980    7.2488   -5.4914 H   0  0  0  0  0  0  0  0  0  0  0  0
   23.7108    7.6643   -5.8997 H   0  0  0  0  0  0  0  0  0  0  0  0
   24.3642   13.9660   -8.0882 H   0  0  0  0  0  0  0  0  0  0  0  0
   24.2440   13.1859   -9.6747 H   0  0  0  0  0  0  0  0  0  0  0  0
   26.7466   13.3719   -9.9517 H   0  0  0  0  0  0  0  0  0  0  0  0
   26.8644   14.1535   -8.3707 H   0  0  0  0  0  0  0  0  0  0  0  0
   25.4210   16.0555   -9.2076 H   0  0  0  0  0  0  0  0  0  0  0  0
   25.3067   15.2759  -10.7846 H   0  0  0  0  0  0  0  0  0  0  0  0
   27.8102   15.4452  -11.0479 H   0  0  0  0  0  0  0  0  0  0  0  0
   27.9222   16.2278   -9.4728 H   0  0  0  0  0  0  0  0  0  0  0  0
   26.4756   18.1191  -10.3110 H   0  0  0  0  0  0  0  0  0  0  0  0
   26.3663   17.3364  -11.8861 H   0  0  0  0  0  0  0  0  0  0  0  0
   28.8713   17.5088  -12.1444 H   0  0  0  0  0  0  0  0  0  0  0  0
   28.9788   18.2939  -10.5705 H   0  0  0  0  0  0  0  0  0  0  0  0
   27.5341   20.1832  -11.4151 H   0  0  0  0  0  0  0  0  0  0  0  0
   27.4285   19.3981  -12.9891 H   0  0  0  0  0  0  0  0  0  0  0  0
   29.9337   19.5712  -13.2427 H   0  0  0  0  0  0  0  0  0  0  0  0
   30.0381   20.3579  -11.6694 H   0  0  0  0  0  0  0  0  0  0  0  0
   28.5949   22.2461  -12.5183 H   0  0  0  0  0  0  0  0  0  0  0  0
   28.4917   21.4594  -14.0917 H   0  0  0  0  0  0  0  0  0  0  0  0
   30.9971   21.6342  -14.3430 H   0  0  0  0  0  0  0  0  0  0  0  0
   31.0996   22.4219  -12.7698 H   0  0  0  0  0  0  0  0  0  0  0  0
   29.6568   24.3072  -13.6205 H   0  0  0  0  0  0  0  0  0  0  0  0
   29.5551   23.5200  -15.1930 H   0  0  0  0  0  0  0  0  0  0  0  0
   32.1710   24.5271  -13.8846 H   0  0  0  0  0  0  0  0  0  0  0  0
   31.3054   25.3199  -15.2208 H   0  0  0  0  0  0  0  0  0  0  0  0
   32.0685   23.7329  -15.4706 H   0  0  0  0  0  0  0  0  0  0  0  0
   20.2393   11.0367   -7.3035 H   0  0  0  0  0  0  0  0  0  0  0  0
   17.8888    9.8006   -5.8145 H   0  0  0  0  0  0  0  0  0  0  0  0
   14.4696    9.2510   -5.1299 H   0  0  0  0  0  0  0  0  0  0  0  0
  1  2  1  0
  1 46  1  0
  1 47  1  0
  1 48  1  0
  2  3  1  0
  2 49  1  0
  2 50  1  0
  3  4  1  0
  3 51  1  0
  3 52  1  0
  4  5  1  0
  4 53  1  0
  4 54  1  0
  5  6  1  0
  5 55  1  0
  5 56  1  0
  6  7  1  0
  6 57  1  0
  6 58  1  0
  7  8  1  0
  7 59  1  0
  7 60  1  0
  8  9  1  0
  8 61  1  0
  8 62  1  0
  9 10  1  0
  9 63  1  0
  9 64  1  0
 10 11  1  0
 10 65  1  0
 10 66  1  0
 11 12  1  0
 11 67  1  0
 11 68  1  0
 12 13  1  0
 12 69  1  0
 12 70  1  0
 13 14  1  0
 14 15  2  0
 14 45  1  0
 15 16  1  0
 15 71  1  0
 16 17  2  0
 16 72  1  0
 17 18  1  0
 17 43  1  0
 18 19  2  0
 18 73  1  0
 19 20  1  0
 20 21  2  0
 20 42  1  0
 21 22  1  0
 21 74  1  0
 22 23  2  0
 22 75  1  0
 23 24  1  0
 23 41  1  0
 24 25  1  0
 24 26  1  0
 26 27  1  0
 26 40  2  0
 27 28  1  0
 28 29  1  0
 28 76  1  0
 28 77  1  0
 29 30  1  0
 29 78  1  0
 29 79  1  0
 30 31  1  0
 30 80  1  0
 30 81  1  0
 31 32  1  0
 31 82  1  0
 31 83  1  0
 32 33  1  0
 32 84  1  0
 32 85  1  0
 33 34  1  0
 33 86  1  0
 33 87  1  0
 34 35  1  0
 34 88  1  0
 34 89  1  0
 35 36  1  0
 35 90  1  0
 35 91  1  0
 36 37  1  0
 36 92  1  0
 36 93  1  0
 37 38  1  0
 37 94  1  0
 37 95  1  0
 38 39  1  0
 38 96  1  0
 38 97  1  0
 39 98  1  0
 39 99  1  0
 39100  1  0
 40 41  1  0
 41 42  2  0
 42101  1  0
 43 44  1  0
 43 45  2  0
 44102  1  0
 45103  1  0
M  END

