
     RDKit          3D

 30 31  0  0  0  0  0  0  0  0999 V2000
    4.5325   -2.3077    1.7019 C   0  0  0  0  0  0  0  0  0  0  0  0
    4.4646   -1.1547    0.9027 O   0  0  0  0  0  0  0  0  0  0  0  0
    5.1097   -0.0241    1.4532 C   0  0  0  0  0  0  0  0  0  0  0  0
    4.8655    1.1224    0.4740 C   0  0  1  0  0  0  0  0  0  0  0  0
    3.4837    1.2473    0.2237 O   0  0  0  0  0  0  0  0  0  0  0  0
    5.3351    2.4894    0.9904 C   0  0  0  0  0  0  0  0  0  0  0  0
    6.8137    2.6336    1.1075 C   0  0  0  0  0  0  0  0  0  0  0  0
    7.6635    1.8957    1.7588 N   0  0  0  0  0  0  0  0  0  0  0  0
    8.8625    2.5200    1.5091 C   0  0  0  0  0  0  0  0  0  0  0  0
   10.1649    2.0848    2.0750 C   0  0  0  0  0  0  0  0  0  0  0  0
   10.9174    3.0435    2.6261 N   0  0  0  0  0  0  0  0  0  0  0  0
   12.0916    2.7298    3.1669 C   0  0  0  0  0  0  0  0  0  0  0  0
   12.5896    1.4234    3.1988 C   0  0  0  0  0  0  0  0  0  0  0  0
   11.8266    0.4118    2.6199 C   0  0  0  0  0  0  0  0  0  0  0  0
   10.5979    0.7423    2.0424 C   0  0  0  0  0  0  0  0  0  0  0  0
    9.6801   -0.5146    1.2561 Cl  0  0  0  0  0  0  0  0  0  0  0  0
    8.7643    3.5833    0.7473 N   0  0  0  0  0  0  0  0  0  0  0  0
    7.4094    3.6583    0.4764 O   0  0  0  0  0  0  0  0  0  0  0  0
    4.0007   -3.1140    1.1759 H   0  0  0  0  0  0  0  0  0  0  0  0
    4.0557   -2.1539    2.6908 H   0  0  0  0  0  0  0  0  0  0  0  0
    5.5793   -2.6268    1.8735 H   0  0  0  0  0  0  0  0  0  0  0  0
    6.1905   -0.2013    1.5993 H   0  0  0  0  0  0  0  0  0  0  0  0
    4.6677    0.2301    2.4398 H   0  0  0  0  0  0  0  0  0  0  0  0
    5.4128    0.8873   -0.4633 H   0  0  0  0  0  0  0  0  0  0  0  0
    3.1546    0.3402    0.1243 H   0  0  0  0  0  0  0  0  0  0  0  0
    4.8706    2.6766    1.9736 H   0  0  0  0  0  0  0  0  0  0  0  0
    4.9581    3.2590    0.3030 H   0  0  0  0  0  0  0  0  0  0  0  0
   12.6658    3.5559    3.6014 H   0  0  0  0  0  0  0  0  0  0  0  0
   13.5548    1.2033    3.6602 H   0  0  0  0  0  0  0  0  0  0  0  0
   12.1708   -0.6238    2.5990 H   0  0  0  0  0  0  0  0  0  0  0  0
  1  2  1  0
  1 19  1  0
  1 20  1  0
  1 21  1  0
  2  3  1  0
  3  4  1  0
  3 22  1  0
  3 23  1  0
  4  5  1  0
  4  6  1  0
  4 24  1  6
  5 25  1  0
  6  7  1  0
  6 26  1  0
  6 27  1  0
  7  8  2  0
  7 18  1  0
  8  9  1  0
  9 10  1  0
  9 17  2  0
 10 11  2  0
 10 15  1  0
 11 12  1  0
 12 13  2  0
 12 28  1  0
 13 14  1  0
 13 29  1  0
 14 15  2  0
 14 30  1  0
 15 16  1  0
 17 18  1  0
M  END

