
     RDKit          3D

 35 36  0  0  0  0  0  0  0  0999 V2000
    1.7712   -1.7403    1.1690 C   0  0  0  0  0  0  0  0  0  0  0  0
    2.8112   -0.7561    0.7361 C   0  0  0  0  0  0  0  0  0  0  0  0
    3.8638   -0.1722    1.5100 C   0  0  0  0  0  0  0  0  0  0  0  0
    4.5035    0.6428    0.6231 C   0  0  0  0  0  0  0  0  0  0  0  0
    5.6864    1.5367    0.7951 C   0  0  0  0  0  0  0  0  0  0  0  0
    6.2436    1.6337    1.8773 O   0  0  0  0  0  0  0  0  0  0  0  0
    6.0694    2.1968   -0.3316 N   0  0  0  0  0  0  0  0  0  0  0  0
    7.1814    3.1297   -0.3346 C   0  0  0  0  0  0  0  0  0  0  0  0
    6.7766    4.5600    0.0811 C   0  0  0  0  0  0  0  0  0  0  0  0
    7.9443    5.5177    0.0814 C   0  0  0  0  0  0  0  0  0  0  0  0
    8.5980    5.8706    1.2725 C   0  0  0  0  0  0  0  0  0  0  0  0
    9.6922    6.7391    1.2759 C   0  0  0  0  0  0  0  0  0  0  0  0
   10.1642    7.2704    0.0731 C   0  0  0  0  0  0  0  0  0  0  0  0
    9.5412    6.9293   -1.1294 C   0  0  0  0  0  0  0  0  0  0  0  0
    8.4444    6.0655   -1.1117 C   0  0  0  0  0  0  0  0  0  0  0  0
    7.8585    5.6585   -2.3191 O   0  0  0  0  0  0  0  0  0  0  0  0
    7.0812    6.5357   -3.0117 C   0  0  1  0  0  0  0  0  0  0  0  0
    6.0576    6.9958   -2.2518 F   0  0  0  0  0  0  0  0  0  0  0  0
    7.7777    7.6256   -3.4170 F   0  0  0  0  0  0  0  0  0  0  0  0
    3.8988    0.5651   -0.5796 O   0  0  0  0  0  0  0  0  0  0  0  0
    2.8354   -0.3148   -0.5042 N   0  0  0  0  0  0  0  0  0  0  0  0
    1.1625   -1.3322    1.9916 H   0  0  0  0  0  0  0  0  0  0  0  0
    2.2378   -2.6697    1.5325 H   0  0  0  0  0  0  0  0  0  0  0  0
    1.1094   -1.9833    0.3268 H   0  0  0  0  0  0  0  0  0  0  0  0
    4.1146   -0.3247    2.5558 H   0  0  0  0  0  0  0  0  0  0  0  0
    5.5083    2.0810   -1.1684 H   0  0  0  0  0  0  0  0  0  0  0  0
    7.6229    3.1427   -1.3421 H   0  0  0  0  0  0  0  0  0  0  0  0
    7.9395    2.7498    0.3657 H   0  0  0  0  0  0  0  0  0  0  0  0
    6.3420    4.5143    1.0908 H   0  0  0  0  0  0  0  0  0  0  0  0
    5.9920    4.9254   -0.5993 H   0  0  0  0  0  0  0  0  0  0  0  0
    8.2310    5.4554    2.2151 H   0  0  0  0  0  0  0  0  0  0  0  0
   10.1774    6.9992    2.2197 H   0  0  0  0  0  0  0  0  0  0  0  0
   11.0220    7.9472    0.0656 H   0  0  0  0  0  0  0  0  0  0  0  0
    9.8981    7.3199   -2.0825 H   0  0  0  0  0  0  0  0  0  0  0  0
    6.6810    6.0118   -3.8937 H   0  0  0  0  0  0  0  0  0  0  0  0
  1  2  1  0
  1 22  1  0
  1 23  1  0
  1 24  1  0
  2  3  1  0
  2 21  2  0
  3  4  2  0
  3 25  1  0
  4  5  1  0
  4 20  1  0
  5  6  2  0
  5  7  1  0
  7  8  1  0
  7 26  1  0
  8  9  1  0
  8 27  1  0
  8 28  1  0
  9 10  1  0
  9 29  1  0
  9 30  1  0
 10 11  2  0
 10 15  1  0
 11 12  1  0
 11 31  1  0
 12 13  2  0
 12 32  1  0
 13 14  1  0
 13 33  1  0
 14 15  2  0
 14 34  1  0
 15 16  1  0
 16 17  1  0
 17 18  1  0
 17 19  1  0
 17 35  1  6
 20 21  1  0
M  END

