
     RDKit          3D

 35 36  0  0  0  0  0  0  0  0999 V2000
    2.9756    1.2470    0.0440 C   0  0  0  0  0  0  0  0  0  0  0  0
    2.8106   -0.2493   -0.2137 C   0  0  0  0  0  0  0  0  0  0  0  0
    3.4284   -0.7154   -1.4653 N   0  0  0  0  0  0  0  0  0  0  0  0
    2.5658   -1.3904   -2.4239 C   0  0  0  0  0  0  0  0  0  0  0  0
    1.5904   -0.4771   -3.1290 C   0  0  0  0  0  0  0  0  0  0  0  0
    1.7484    0.8310   -3.5230 C   0  0  0  0  0  0  0  0  0  0  0  0
    0.6142    1.3506   -4.2207 C   0  0  0  0  0  0  0  0  0  0  0  0
   -0.3942    0.4312   -4.3510 C   0  0  0  0  0  0  0  0  0  0  0  0
    0.0279   -1.0778   -3.6152 S   0  0  0  0  0  0  0  0  0  0  0  0
    4.8039   -0.8523   -1.4696 C   0  0  0  0  0  0  0  0  0  0  0  0
    5.4628   -0.5883   -0.4736 O   0  0  0  0  0  0  0  0  0  0  0  0
    5.4776   -1.2991   -2.7513 C   0  0  0  0  0  0  0  0  0  0  0  0
    5.3477   -0.4354   -3.9841 C   0  0  0  0  0  0  0  0  0  0  0  0
    6.2816   -2.3681   -2.7018 C   0  0  0  0  0  0  0  0  0  0  0  0
    6.7255   -3.3353   -1.6199 C   0  0  0  0  0  0  0  0  0  0  0  0
    7.7964   -3.8067   -2.5317 N   0  0  0  0  0  0  0  0  0  0  0  0
    7.2181   -3.0640   -3.6742 C   0  0  0  0  0  0  0  0  0  0  0  0
    2.5052    1.5154    1.0038 H   0  0  0  0  0  0  0  0  0  0  0  0
    2.5001    1.8457   -0.7478 H   0  0  0  0  0  0  0  0  0  0  0  0
    4.0410    1.5103    0.1039 H   0  0  0  0  0  0  0  0  0  0  0  0
    1.7419   -0.5063   -0.2648 H   0  0  0  0  0  0  0  0  0  0  0  0
    3.2550   -0.8138    0.6228 H   0  0  0  0  0  0  0  0  0  0  0  0
    2.0017   -2.1928   -1.9112 H   0  0  0  0  0  0  0  0  0  0  0  0
    3.2036   -1.9059   -3.1577 H   0  0  0  0  0  0  0  0  0  0  0  0
    2.6503    1.4062   -3.3108 H   0  0  0  0  0  0  0  0  0  0  0  0
    0.5514    2.3693   -4.6070 H   0  0  0  0  0  0  0  0  0  0  0  0
   -1.3641    0.5533   -4.8311 H   0  0  0  0  0  0  0  0  0  0  0  0
    5.6682    0.5977   -3.7633 H   0  0  0  0  0  0  0  0  0  0  0  0
    4.3145   -0.3702   -4.3613 H   0  0  0  0  0  0  0  0  0  0  0  0
    5.9792   -0.8139   -4.8012 H   0  0  0  0  0  0  0  0  0  0  0  0
    5.9554   -4.0924   -1.3659 H   0  0  0  0  0  0  0  0  0  0  0  0
    7.0780   -2.8752   -0.6821 H   0  0  0  0  0  0  0  0  0  0  0  0
    7.8545   -4.8153   -2.6534 H   0  0  0  0  0  0  0  0  0  0  0  0
    6.6833   -3.6859   -4.4220 H   0  0  0  0  0  0  0  0  0  0  0  0
    7.9365   -2.4252   -4.2210 H   0  0  0  0  0  0  0  0  0  0  0  0
  1  2  1  0
  1 18  1  0
  1 19  1  0
  1 20  1  0
  2  3  1  0
  2 21  1  0
  2 22  1  0
  3  4  1  0
  3 10  1  0
  4  5  1  0
  4 23  1  0
  4 24  1  0
  5  6  2  0
  5  9  1  0
  6  7  1  0
  6 25  1  0
  7  8  2  0
  7 26  1  0
  8  9  1  0
  8 27  1  0
 10 11  2  0
 10 12  1  0
 12 13  1  0
 12 14  2  0
 13 28  1  0
 13 29  1  0
 13 30  1  0
 14 15  1  0
 14 17  1  0
 15 16  1  0
 15 31  1  0
 15 32  1  0
 16 17  1  0
 16 33  1  0
 17 34  1  0
 17 35  1  0
M  END

