
     RDKit          3D

 44 44  0  0  0  0  0  0  0  0999 V2000
    3.1039    2.3493    1.6280 C   0  0  0  0  0  0  0  0  0  0  0  0
    3.4037    1.0623    0.8581 C   0  0  0  0  0  0  0  0  0  0  0  0
    4.0400   -0.0284    1.7254 C   0  0  0  0  0  0  0  0  0  0  0  0
    4.3276   -1.3086    0.9353 C   0  0  0  0  0  0  0  0  0  0  0  0
    5.0239   -2.3669    1.6832 N   0  0  0  0  0  0  0  0  0  0  0  0
    4.2858   -3.5441    2.1368 C   0  0  0  0  0  0  0  0  0  0  0  0
    4.1198   -3.7197    3.6564 C   0  0  0  0  0  0  0  0  0  0  0  0
    3.3386   -2.6141    4.3670 C   0  0  0  0  0  0  0  0  0  0  0  0
    3.2246   -2.8450    5.7533 O   0  0  0  0  0  0  0  0  0  0  0  0
    6.4054   -2.2581    1.7171 C   0  0  0  0  0  0  0  0  0  0  0  0
    6.9804   -1.2753    1.2743 O   0  0  0  0  0  0  0  0  0  0  0  0
    7.0778   -3.3428    2.2766 N   0  0  0  0  0  0  0  0  0  0  0  0
    8.4630   -3.5123    2.4414 C   0  0  0  0  0  0  0  0  0  0  0  0
    9.3976   -2.5303    2.0760 C   0  0  0  0  0  0  0  0  0  0  0  0
   10.7699   -2.7589    2.2693 C   0  0  0  0  0  0  0  0  0  0  0  0
   11.7159   -1.7442    1.8908 C   0  0  0  0  0  0  0  0  0  0  0  0
   12.4896   -0.9324    1.5895 N   0  0  0  0  0  0  0  0  0  0  0  0
   11.2233   -3.9658    2.8256 C   0  0  0  0  0  0  0  0  0  0  0  0
   10.2866   -4.9326    3.1824 C   0  0  0  0  0  0  0  0  0  0  0  0
    8.9119   -4.7374    3.0045 C   0  0  0  0  0  0  0  0  0  0  0  0
    7.9334   -5.8127    3.4071 C   0  0  0  0  0  0  0  0  0  0  0  0
    2.6539    3.1145    0.9758 H   0  0  0  0  0  0  0  0  0  0  0  0
    4.0229    2.7780    2.0604 H   0  0  0  0  0  0  0  0  0  0  0  0
    2.4028    2.1663    2.4596 H   0  0  0  0  0  0  0  0  0  0  0  0
    4.0762    1.2880    0.0111 H   0  0  0  0  0  0  0  0  0  0  0  0
    2.4702    0.6770    0.4069 H   0  0  0  0  0  0  0  0  0  0  0  0
    3.3750   -0.2525    2.5777 H   0  0  0  0  0  0  0  0  0  0  0  0
    4.9903    0.3393    2.1457 H   0  0  0  0  0  0  0  0  0  0  0  0
    4.9464   -1.0492    0.0631 H   0  0  0  0  0  0  0  0  0  0  0  0
    3.3863   -1.7376    0.5551 H   0  0  0  0  0  0  0  0  0  0  0  0
    4.7424   -4.4617    1.7175 H   0  0  0  0  0  0  0  0  0  0  0  0
    3.2872   -3.4902    1.6776 H   0  0  0  0  0  0  0  0  0  0  0  0
    5.0971   -3.8128    4.1586 H   0  0  0  0  0  0  0  0  0  0  0  0
    3.5995   -4.6831    3.8159 H   0  0  0  0  0  0  0  0  0  0  0  0
    2.3459   -2.4854    3.8851 H   0  0  0  0  0  0  0  0  0  0  0  0
    3.8694   -1.6566    4.2591 H   0  0  0  0  0  0  0  0  0  0  0  0
    2.6910   -3.6390    5.8885 H   0  0  0  0  0  0  0  0  0  0  0  0
    6.5172   -4.1209    2.5896 H   0  0  0  0  0  0  0  0  0  0  0  0
    9.0449   -1.5987    1.6422 H   0  0  0  0  0  0  0  0  0  0  0  0
   12.2904   -4.1382    2.9729 H   0  0  0  0  0  0  0  0  0  0  0  0
   10.6298   -5.8758    3.6155 H   0  0  0  0  0  0  0  0  0  0  0  0
    8.4572   -6.6936    3.8028 H   0  0  0  0  0  0  0  0  0  0  0  0
    7.3204   -6.1550    2.5534 H   0  0  0  0  0  0  0  0  0  0  0  0
    7.2385   -5.4676    4.1936 H   0  0  0  0  0  0  0  0  0  0  0  0
  1  2  1  0
  1 22  1  0
  1 23  1  0
  1 24  1  0
  2  3  1  0
  2 25  1  0
  2 26  1  0
  3  4  1  0
  3 27  1  0
  3 28  1  0
  4  5  1  0
  4 29  1  0
  4 30  1  0
  5  6  1  0
  5 10  1  0
  6  7  1  0
  6 31  1  0
  6 32  1  0
  7  8  1  0
  7 33  1  0
  7 34  1  0
  8  9  1  0
  8 35  1  0
  8 36  1  0
  9 37  1  0
 10 11  2  0
 10 12  1  0
 12 13  1  0
 12 38  1  0
 13 14  2  0
 13 20  1  0
 14 15  1  0
 14 39  1  0
 15 16  1  0
 15 18  2  0
 16 17  3  0
 18 19  1  0
 18 40  1  0
 19 20  2  0
 19 41  1  0
 20 21  1  0
 21 42  1  0
 21 43  1  0
 21 44  1  0
M  END

