
     RDKit          3D

 44 46  0  0  0  0  0  0  0  0999 V2000
    1.2027    0.7616    0.9545 C   0  0  0  0  0  0  0  0  0  0  0  0
    1.9959    0.2555   -0.2531 C   0  0  0  0  0  0  0  0  0  0  0  0
    2.8080    1.2836   -0.9216 N   0  0  0  0  0  0  0  0  0  0  0  0
    2.1024    2.2613   -1.5890 C   0  0  0  0  0  0  0  0  0  0  0  0
    0.8894    2.1686   -1.7289 O   0  0  0  0  0  0  0  0  0  0  0  0
    2.8330    3.5089   -2.0987 C   0  0  2  0  0  0  0  0  0  0  0  0
    1.9310    4.8119   -2.1155 C   0  0  0  0  0  0  0  0  0  0  0  0
    2.1766    4.8656   -3.6133 C   0  0  0  0  0  0  0  0  0  0  0  0
    1.9226    5.5821   -4.7768 C   0  0  0  0  0  0  0  0  0  0  0  0
    2.4708    5.0519   -5.9590 C   0  0  0  0  0  0  0  0  0  0  0  0
    3.2295    3.8697   -5.9566 C   0  0  0  0  0  0  0  0  0  0  0  0
    3.4853    3.1565   -4.7714 C   0  0  0  0  0  0  0  0  0  0  0  0
    2.9379    3.6977   -3.6151 C   0  0  0  0  0  0  0  0  0  0  0  0
    4.2710    1.2087   -0.8453 C   0  0  1  0  0  0  0  0  0  0  0  0
    4.8453    1.5744    0.5489 C   0  0  0  0  0  0  0  0  0  0  0  0
    6.1486    0.7798    0.6577 C   0  0  0  0  0  0  0  0  0  0  0  0
    5.7681   -0.5678    0.0257 C   0  0  0  0  0  0  0  0  0  0  0  0
    4.8936   -0.1963   -1.1964 C   0  0  2  0  0  0  0  0  0  0  0  0
    5.7233   -0.1869   -2.4888 C   0  0  0  0  0  0  0  0  0  0  0  0
    4.9285    0.1979   -3.6476 N   0  0  0  0  0  0  0  0  0  0  0  0
    0.6337   -0.0694    1.4027 H   0  0  0  0  0  0  0  0  0  0  0  0
    0.4876    1.5363    0.6467 H   0  0  0  0  0  0  0  0  0  0  0  0
    1.8634    1.1784    1.7312 H   0  0  0  0  0  0  0  0  0  0  0  0
    1.2947   -0.1679   -0.9897 H   0  0  0  0  0  0  0  0  0  0  0  0
    2.6682   -0.5541    0.0624 H   0  0  0  0  0  0  0  0  0  0  0  0
    3.7851    3.6776   -1.5763 H   0  0  0  0  0  0  0  0  0  0  0  0
    2.3310    5.6509   -1.5229 H   0  0  0  0  0  0  0  0  0  0  0  0
    0.8908    4.6078   -1.8262 H   0  0  0  0  0  0  0  0  0  0  0  0
    1.3315    6.5017   -4.7960 H   0  0  0  0  0  0  0  0  0  0  0  0
    2.3010    5.5693   -6.9076 H   0  0  0  0  0  0  0  0  0  0  0  0
    3.6300    3.4982   -6.9043 H   0  0  0  0  0  0  0  0  0  0  0  0
    4.0716    2.2359   -4.7523 H   0  0  0  0  0  0  0  0  0  0  0  0
    4.6571    1.9106   -1.5926 H   0  0  0  0  0  0  0  0  0  0  0  0
    4.1467    1.2381    1.3320 H   0  0  0  0  0  0  0  0  0  0  0  0
    4.9681    2.6619    0.6749 H   0  0  0  0  0  0  0  0  0  0  0  0
    6.5174    0.6868    1.6912 H   0  0  0  0  0  0  0  0  0  0  0  0
    6.9486    1.2659    0.0722 H   0  0  0  0  0  0  0  0  0  0  0  0
    5.1781   -1.1541    0.7505 H   0  0  0  0  0  0  0  0  0  0  0  0
    6.6385   -1.1851   -0.2485 H   0  0  0  0  0  0  0  0  0  0  0  0
    4.0931   -0.9397   -1.3387 H   0  0  0  0  0  0  0  0  0  0  0  0
    6.1978   -1.1869   -2.5868 H   0  0  0  0  0  0  0  0  0  0  0  0
    6.5542    0.5350   -2.3877 H   0  0  0  0  0  0  0  0  0  0  0  0
    4.1543   -0.4527   -3.7894 H   0  0  0  0  0  0  0  0  0  0  0  0
    5.4899    0.1685   -4.4984 H   0  0  0  0  0  0  0  0  0  0  0  0
  1  2  1  0
  1 21  1  0
  1 22  1  0
  1 23  1  0
  2  3  1  0
  2 24  1  0
  2 25  1  0
  3  4  1  0
  3 14  1  0
  4  5  2  0
  4  6  1  0
  6  7  1  0
  6 13  1  0
  6 26  1  1
  7  8  1  0
  7 27  1  0
  7 28  1  0
  8  9  2  0
  8 13  1  0
  9 10  1  0
  9 29  1  0
 10 11  2  0
 10 30  1  0
 11 12  1  0
 11 31  1  0
 12 13  2  0
 12 32  1  0
 14 15  1  0
 14 18  1  0
 14 33  1  6
 15 16  1  0
 15 34  1  0
 15 35  1  0
 16 17  1  0
 16 36  1  0
 16 37  1  0
 17 18  1  0
 17 38  1  0
 17 39  1  0
 18 19  1  0
 18 40  1  6
 19 20  1  0
 19 41  1  0
 19 42  1  0
 20 43  1  0
 20 44  1  0
M  END

