
     RDKit          3D

 44 45  0  0  0  0  0  0  0  0999 V2000
    2.4145   -0.6887   -3.1979 C   0  0  0  0  0  0  0  0  0  0  0  0
    2.1521    0.6100   -2.4355 C   0  0  0  0  0  0  0  0  0  0  0  0
    2.9174    0.7265   -1.1099 C   0  0  0  0  0  0  0  0  0  0  0  0
    4.3665    0.7233   -1.2567 N   0  0  0  0  0  0  0  0  0  0  0  0
    5.0767    1.8756   -1.4245 C   0  0  0  0  0  0  0  0  0  0  0  0
    4.5482    2.9783   -1.4194 O   0  0  0  0  0  0  0  0  0  0  0  0
    6.5733    1.7357   -1.6005 C   0  0  0  0  0  0  0  0  0  0  0  0
    7.3298    2.9201   -1.5615 C   0  0  0  0  0  0  0  0  0  0  0  0
    8.7126    2.8936   -1.7376 C   0  0  0  0  0  0  0  0  0  0  0  0
    9.3720    1.6792   -1.9574 C   0  0  0  0  0  0  0  0  0  0  0  0
    8.6179    0.5052   -1.9878 C   0  0  0  0  0  0  0  0  0  0  0  0
    9.4314   -1.0706   -2.2803 S   0  0  1  0  0  0  0  0  0  0  0  0
    8.4959   -1.9441   -2.9942 O   0  0  0  0  0  0  0  0  0  0  0  0
   10.7688   -0.7768   -2.8053 O   0  0  0  0  0  0  0  0  0  0  0  0
    9.5393   -1.7276   -0.7317 N   0  0  0  0  0  0  0  0  0  0  0  0
   10.7428   -1.4768    0.0586 C   0  0  0  0  0  0  0  0  0  0  0  0
   10.6400   -2.2228    1.3873 C   0  0  1  0  0  0  0  0  0  0  0  0
    9.5229   -1.7866    2.3417 C   0  0  0  0  0  0  0  0  0  0  0  0
    9.2953   -3.0656    3.1560 C   0  0  0  0  0  0  0  0  0  0  0  0
    9.5197   -4.1637    2.1053 C   0  0  0  0  0  0  0  0  0  0  0  0
   10.3768   -3.6000    1.1098 O   0  0  0  0  0  0  0  0  0  0  0  0
    7.2300    0.5202   -1.8273 C   0  0  0  0  0  0  0  0  0  0  0  0
    1.8433   -0.7236   -4.1388 H   0  0  0  0  0  0  0  0  0  0  0  0
    2.1262   -1.5726   -2.6029 H   0  0  0  0  0  0  0  0  0  0  0  0
    3.4801   -0.7938   -3.4601 H   0  0  0  0  0  0  0  0  0  0  0  0
    1.0750    0.7016   -2.2099 H   0  0  0  0  0  0  0  0  0  0  0  0
    2.4111    1.4799   -3.0621 H   0  0  0  0  0  0  0  0  0  0  0  0
    2.6423   -0.1048   -0.4384 H   0  0  0  0  0  0  0  0  0  0  0  0
    2.6453    1.6675   -0.6104 H   0  0  0  0  0  0  0  0  0  0  0  0
    4.8524   -0.1626   -1.2424 H   0  0  0  0  0  0  0  0  0  0  0  0
    6.7934    3.8571   -1.4014 H   0  0  0  0  0  0  0  0  0  0  0  0
    9.2841    3.8246   -1.7150 H   0  0  0  0  0  0  0  0  0  0  0  0
   10.4496    1.6329   -2.1234 H   0  0  0  0  0  0  0  0  0  0  0  0
    9.3354   -2.7280   -0.8000 H   0  0  0  0  0  0  0  0  0  0  0  0
   10.8359   -0.3968    0.2588 H   0  0  0  0  0  0  0  0  0  0  0  0
   11.6555   -1.7943   -0.4742 H   0  0  0  0  0  0  0  0  0  0  0  0
   11.6220   -2.1284    1.8945 H   0  0  0  0  0  0  0  0  0  0  0  0
    8.6242   -1.5211    1.7623 H   0  0  0  0  0  0  0  0  0  0  0  0
    9.8070   -0.9194    2.9564 H   0  0  0  0  0  0  0  0  0  0  0  0
    8.2997   -3.1202    3.6210 H   0  0  0  0  0  0  0  0  0  0  0  0
   10.0442   -3.1439    3.9611 H   0  0  0  0  0  0  0  0  0  0  0  0
    8.5702   -4.4714    1.6293 H   0  0  0  0  0  0  0  0  0  0  0  0
    9.9911   -5.0679    2.5263 H   0  0  0  0  0  0  0  0  0  0  0  0
    6.6965   -0.4280   -1.9180 H   0  0  0  0  0  0  0  0  0  0  0  0
  1  2  1  0
  1 23  1  0
  1 24  1  0
  1 25  1  0
  2  3  1  0
  2 26  1  0
  2 27  1  0
  3  4  1  0
  3 28  1  0
  3 29  1  0
  4  5  1  0
  4 30  1  0
  5  6  2  0
  5  7  1  0
  7  8  2  0
  7 22  1  0
  8  9  1  0
  8 31  1  0
  9 10  2  0
  9 32  1  0
 10 11  1  0
 10 33  1  0
 11 12  1  0
 11 22  2  0
 12 13  2  0
 12 14  2  0
 12 15  1  1
 15 16  1  0
 15 34  1  0
 16 17  1  0
 16 35  1  0
 16 36  1  0
 17 18  1  0
 17 21  1  0
 17 37  1  1
 18 19  1  0
 18 38  1  0
 18 39  1  0
 19 20  1  0
 19 40  1  0
 19 41  1  0
 20 21  1  0
 20 42  1  0
 20 43  1  0
 22 44  1  0
M  END

