
     RDKit          3D

 51 53  0  0  0  0  0  0  0  0999 V2000
    1.5114   -0.9995   -2.1512 O   0  0  0  0  0  0  0  0  0  0  0  0
    2.5247   -0.7583   -1.5157 C   0  0  0  0  0  0  0  0  0  0  0  0
    3.1825    0.6262   -1.5752 C   0  0  0  0  0  0  0  0  0  0  0  0
    2.4267    1.4501   -2.4788 N   0  0  0  0  0  0  0  0  0  0  0  0
    2.7503    2.7457   -2.7163 C   0  0  0  0  0  0  0  0  0  0  0  0
    3.7120    3.2729   -2.1563 O   0  0  0  0  0  0  0  0  0  0  0  0
    1.8842    3.4514   -3.7241 C   0  0  0  0  0  0  0  0  0  0  0  0
    1.4093    2.7752   -4.8584 C   0  0  0  0  0  0  0  0  0  0  0  0
    0.6590    3.4305   -5.8368 C   0  0  0  0  0  0  0  0  0  0  0  0
    0.3652    4.7861   -5.6780 C   0  0  0  0  0  0  0  0  0  0  0  0
    0.8158    5.4828   -4.5540 C   0  0  0  0  0  0  0  0  0  0  0  0
    1.5783    4.8260   -3.5777 C   0  0  0  0  0  0  0  0  0  0  0  0
    2.0116    5.4351   -2.4500 O   0  0  0  0  0  0  0  0  0  0  0  0
    2.2600    6.8256   -2.3953 C   0  0  0  0  0  0  0  0  0  0  0  0
    3.4497    7.1288   -1.4738 C   0  0  0  0  0  0  0  0  0  0  0  0
    3.6244    8.2771   -1.1025 O   0  0  0  0  0  0  0  0  0  0  0  0
    4.2343    6.0505   -1.1940 N   0  0  0  0  0  0  0  0  0  0  0  0
    5.4004    6.0125   -0.4103 C   0  0  0  0  0  0  0  0  0  0  0  0
    5.9564    7.1456    0.2115 C   0  0  0  0  0  0  0  0  0  0  0  0
    7.1200    7.0235    0.9757 C   0  0  0  0  0  0  0  0  0  0  0  0
    7.7369    5.7797    1.1253 C   0  0  0  0  0  0  0  0  0  0  0  0
    9.5101    5.6047    2.2914 I   0  0  0  0  0  0  0  0  0  0  0  0
    7.1944    4.6465    0.5115 C   0  0  0  0  0  0  0  0  0  0  0  0
    6.0330    4.7643   -0.2502 C   0  0  0  0  0  0  0  0  0  0  0  0
    3.1744   -1.6422   -0.7027 N   0  0  0  0  0  0  0  0  0  0  0  0
    2.8547   -2.9862   -0.4036 C   0  0  0  0  0  0  0  0  0  0  0  0
    1.7391   -3.6501   -0.9420 C   0  0  0  0  0  0  0  0  0  0  0  0
    1.4994   -4.9812   -0.5904 C   0  0  0  0  0  0  0  0  0  0  0  0
    2.3472   -5.6639    0.2856 C   0  0  0  0  0  0  0  0  0  0  0  0
    3.4559   -4.9995    0.8188 C   0  0  0  0  0  0  0  0  0  0  0  0
    3.7093   -3.6715    0.4781 C   0  0  0  0  0  0  0  0  0  0  0  0
    4.2337    0.5326   -1.9045 H   0  0  0  0  0  0  0  0  0  0  0  0
    3.2178    1.0693   -0.5621 H   0  0  0  0  0  0  0  0  0  0  0  0
    1.5841    1.0197   -2.8539 H   0  0  0  0  0  0  0  0  0  0  0  0
    1.6632    1.7211   -4.9939 H   0  0  0  0  0  0  0  0  0  0  0  0
    0.3124    2.8866   -6.7179 H   0  0  0  0  0  0  0  0  0  0  0  0
   -0.2268    5.3121   -6.4313 H   0  0  0  0  0  0  0  0  0  0  0  0
    0.5582    6.5352   -4.4263 H   0  0  0  0  0  0  0  0  0  0  0  0
    1.3891    7.3788   -2.0060 H   0  0  0  0  0  0  0  0  0  0  0  0
    2.5031    7.2306   -3.3937 H   0  0  0  0  0  0  0  0  0  0  0  0
    3.9369    5.1523   -1.5930 H   0  0  0  0  0  0  0  0  0  0  0  0
    5.4724    8.1123    0.0913 H   0  0  0  0  0  0  0  0  0  0  0  0
    7.5394    7.9113    1.4525 H   0  0  0  0  0  0  0  0  0  0  0  0
    7.6717    3.6712    0.6226 H   0  0  0  0  0  0  0  0  0  0  0  0
    5.6007    3.8848   -0.7324 H   0  0  0  0  0  0  0  0  0  0  0  0
    4.0064   -1.2921   -0.2397 H   0  0  0  0  0  0  0  0  0  0  0  0
    1.0775   -3.1213   -1.6237 H   0  0  0  0  0  0  0  0  0  0  0  0
    0.6292   -5.4894   -1.0137 H   0  0  0  0  0  0  0  0  0  0  0  0
    2.1469   -6.7043    0.5513 H   0  0  0  0  0  0  0  0  0  0  0  0
    4.1309   -5.5159    1.5058 H   0  0  0  0  0  0  0  0  0  0  0  0
    4.5791   -3.1583    0.9000 H   0  0  0  0  0  0  0  0  0  0  0  0
  1  2  2  0
  2  3  1  0
  2 25  1  0
  3  4  1  0
  3 32  1  0
  3 33  1  0
  4  5  1  0
  4 34  1  0
  5  6  2  0
  5  7  1  0
  7  8  2  0
  7 12  1  0
  8  9  1  0
  8 35  1  0
  9 10  2  0
  9 36  1  0
 10 11  1  0
 10 37  1  0
 11 12  2  0
 11 38  1  0
 12 13  1  0
 13 14  1  0
 14 15  1  0
 14 39  1  0
 14 40  1  0
 15 16  2  0
 15 17  1  0
 17 18  1  0
 17 41  1  0
 18 19  2  0
 18 24  1  0
 19 20  1  0
 19 42  1  0
 20 21  2  0
 20 43  1  0
 21 22  1  0
 21 23  1  0
 23 24  2  0
 23 44  1  0
 24 45  1  0
 25 26  1  0
 25 46  1  0
 26 27  2  0
 26 31  1  0
 27 28  1  0
 27 47  1  0
 28 29  2  0
 28 48  1  0
 29 30  1  0
 29 49  1  0
 30 31  2  0
 30 50  1  0
 31 51  1  0
M  END

