
     RDKit          3D

 44 47  0  0  0  0  0  0  0  0999 V2000
    0.4679   -0.7009    0.2841 O   0  0  0  0  0  0  0  0  0  0  0  0
    1.6060   -0.3426   -0.0047 C   0  0  0  0  0  0  0  0  0  0  0  0
    2.1925    0.8314    0.3981 N   0  0  0  0  0  0  0  0  0  0  0  0
    1.6671    1.8574    1.1975 C   0  0  0  0  0  0  0  0  0  0  0  0
    0.3728    1.8320    1.7412 C   0  0  0  0  0  0  0  0  0  0  0  0
   -0.0855    2.8923    2.5311 C   0  0  0  0  0  0  0  0  0  0  0  0
    0.7355    3.9962    2.7936 C   0  0  0  0  0  0  0  0  0  0  0  0
    0.3719    5.0699    3.5540 O   0  0  0  0  0  0  0  0  0  0  0  0
   -0.9254    5.1266    4.1247 C   0  0  0  0  0  0  0  0  0  0  0  0
   -1.0221    6.4620    4.8425 C   0  0  0  0  0  0  0  0  0  0  0  0
   -0.8562    7.5438    3.9601 O   0  0  0  0  0  0  0  0  0  0  0  0
    2.0306    4.0242    2.2519 C   0  0  0  0  0  0  0  0  0  0  0  0
    2.4866    2.9722    1.4675 C   0  0  0  0  0  0  0  0  0  0  0  0
    2.4994   -1.1653   -0.8476 C   0  0  0  0  0  0  0  0  0  0  0  0
    3.7698   -0.7975   -1.1883 N   0  0  0  0  0  0  0  0  0  0  0  0
    4.2795   -1.7474   -1.9482 C   0  0  0  0  0  0  0  0  0  0  0  0
    5.6407   -1.7967   -2.5228 C   0  0  1  0  0  0  0  0  0  0  0  0
    6.6290   -0.7187   -2.1635 C   0  0  0  0  0  0  0  0  0  0  0  0
    6.8413   -2.1063   -1.6340 C   0  0  0  0  0  0  0  0  0  0  0  0
    3.3565   -2.7665   -2.1222 N   0  0  0  0  0  0  0  0  0  0  0  0
    3.4442   -3.9590   -2.8110 C   0  0  0  0  0  0  0  0  0  0  0  0
    2.3678   -4.7988   -2.8324 C   0  0  0  0  0  0  0  0  0  0  0  0
    1.1597   -4.4545   -2.1443 C   0  0  0  0  0  0  0  0  0  0  0  0
    1.0740   -3.2741   -1.4470 C   0  0  0  0  0  0  0  0  0  0  0  0
    2.1928   -2.4027   -1.4226 C   0  0  0  0  0  0  0  0  0  0  0  0
    3.1415    0.9538    0.0537 H   0  0  0  0  0  0  0  0  0  0  0  0
   -0.2677    0.9764    1.5389 H   0  0  0  0  0  0  0  0  0  0  0  0
   -1.0962    2.8375    2.9366 H   0  0  0  0  0  0  0  0  0  0  0  0
   -1.0835    4.2882    4.8297 H   0  0  0  0  0  0  0  0  0  0  0  0
   -1.6943    5.0679    3.3321 H   0  0  0  0  0  0  0  0  0  0  0  0
   -0.2777    6.4787    5.6655 H   0  0  0  0  0  0  0  0  0  0  0  0
   -2.0209    6.5532    5.2998 H   0  0  0  0  0  0  0  0  0  0  0  0
   -0.0329    7.3780    3.4783 H   0  0  0  0  0  0  0  0  0  0  0  0
    2.6687    4.8855    2.4606 H   0  0  0  0  0  0  0  0  0  0  0  0
    3.4985    3.0108    1.0535 H   0  0  0  0  0  0  0  0  0  0  0  0
    5.6915   -2.1856   -3.5460 H   0  0  0  0  0  0  0  0  0  0  0  0
    6.2772    0.0467   -1.4685 H   0  0  0  0  0  0  0  0  0  0  0  0
    7.2875   -0.3545   -2.9560 H   0  0  0  0  0  0  0  0  0  0  0  0
    6.6424   -2.2868   -0.5741 H   0  0  0  0  0  0  0  0  0  0  0  0
    7.6431   -2.7169   -2.0593 H   0  0  0  0  0  0  0  0  0  0  0  0
    4.3925   -4.1710   -3.3039 H   0  0  0  0  0  0  0  0  0  0  0  0
    2.4444   -5.7404   -3.3786 H   0  0  0  0  0  0  0  0  0  0  0  0
    0.3104   -5.1399   -2.1753 H   0  0  0  0  0  0  0  0  0  0  0  0
    0.1842   -2.9627   -0.9000 H   0  0  0  0  0  0  0  0  0  0  0  0
  1  2  2  0
  2  3  1  0
  2 14  1  0
  3  4  1  0
  3 26  1  0
  4  5  2  0
  4 13  1  0
  5  6  1  0
  5 27  1  0
  6  7  2  0
  6 28  1  0
  7  8  1  0
  7 12  1  0
  8  9  1  0
  9 10  1  0
  9 29  1  0
  9 30  1  0
 10 11  1  0
 10 31  1  0
 10 32  1  0
 11 33  1  0
 12 13  2  0
 12 34  1  0
 13 35  1  0
 14 15  1  0
 14 25  2  0
 15 16  2  0
 16 17  1  0
 16 20  1  0
 17 18  1  0
 17 19  1  0
 17 36  1  6
 18 19  1  0
 18 37  1  0
 18 38  1  0
 19 39  1  0
 19 40  1  0
 20 21  1  0
 20 25  1  0
 21 22  2  0
 21 41  1  0
 22 23  1  0
 22 42  1  0
 23 24  2  0
 23 43  1  0
 24 25  1  0
 24 44  1  0
M  END

