
     RDKit          3D

 50 54  0  0  0  0  0  0  0  0999 V2000
    0.7338   -2.5668   -3.9999 C   0  0  0  0  0  0  0  0  0  0  0  0
    1.8278   -1.5551   -4.3312 C   0  0  2  0  0  0  0  0  0  0  0  0
    2.1567   -1.4835   -5.8385 C   0  0  0  0  0  0  0  0  0  0  0  0
    3.6534   -1.1673   -5.9099 C   0  0  0  0  0  0  0  0  0  0  0  0
    4.1856   -1.4780   -4.5211 C   0  0  0  0  0  0  0  0  0  0  0  0
    5.3346   -1.3914   -4.1394 O   0  0  0  0  0  0  0  0  0  0  0  0
    3.1158   -1.8448   -3.7065 N   0  0  0  0  0  0  0  0  0  0  0  0
    3.1792   -1.5294   -2.2791 C   0  0  2  0  0  0  0  0  0  0  0  0
    2.7812   -2.7316   -1.3784 C   0  0  0  0  0  0  0  0  0  0  0  0
    1.7591   -2.6944   -0.7047 O   0  0  0  0  0  0  0  0  0  0  0  0
    3.6208   -3.8119   -1.3630 N   0  0  0  0  0  0  0  0  0  0  0  0
    3.2309   -5.0071   -0.6118 C   0  0  0  0  0  0  0  0  0  0  0  0
    2.9852   -6.1849   -1.5624 C   0  0  0  0  0  0  0  0  0  0  0  0
    4.1809   -6.4236   -2.4932 C   0  0  0  0  0  0  0  0  0  0  0  0
    4.5903   -5.1221   -3.2132 C   0  0  2  0  0  0  0  0  0  0  0  0
    5.7998   -5.3045   -4.0754 C   0  0  0  0  0  0  0  0  0  0  0  0
    5.7652   -5.1267   -5.3730 N   0  0  0  0  0  0  0  0  0  0  0  0
    7.0785   -5.3833   -5.7705 O   0  0  0  0  0  0  0  0  0  0  0  0
    7.7705   -5.6865   -4.6652 C   0  0  0  0  0  0  0  0  0  0  0  0
    9.1989   -5.9961   -4.8004 C   0  0  1  0  0  0  0  0  0  0  0  0
   10.1503   -5.5621   -3.6968 C   0  0  0  0  0  0  0  0  0  0  0  0
    9.8232   -7.0102   -3.8563 C   0  0  0  0  0  0  0  0  0  0  0  0
    7.0362   -5.6579   -3.5883 N   0  0  0  0  0  0  0  0  0  0  0  0
    4.8179   -3.9979   -2.1751 C   0  0  0  0  0  0  0  0  0  0  0  0
    2.2541   -0.3004   -2.0259 C   0  0  0  0  0  0  0  0  0  0  0  0
    1.4079    0.1292   -3.6065 S   0  0  0  0  0  0  0  0  0  0  0  0
    1.0340   -3.5744   -4.3343 H   0  0  0  0  0  0  0  0  0  0  0  0
   -0.1931   -2.2875   -4.5233 H   0  0  0  0  0  0  0  0  0  0  0  0
    0.5184   -2.6006   -2.9234 H   0  0  0  0  0  0  0  0  0  0  0  0
    1.5239   -0.7478   -6.3544 H   0  0  0  0  0  0  0  0  0  0  0  0
    1.9470   -2.4675   -6.2865 H   0  0  0  0  0  0  0  0  0  0  0  0
    3.8585   -0.1005   -6.0928 H   0  0  0  0  0  0  0  0  0  0  0  0
    4.2047   -1.7430   -6.6673 H   0  0  0  0  0  0  0  0  0  0  0  0
    4.2264   -1.2648   -2.0721 H   0  0  0  0  0  0  0  0  0  0  0  0
    2.3350   -4.7619   -0.0301 H   0  0  0  0  0  0  0  0  0  0  0  0
    4.0459   -5.2555    0.0931 H   0  0  0  0  0  0  0  0  0  0  0  0
    2.0825   -5.9735   -2.1616 H   0  0  0  0  0  0  0  0  0  0  0  0
    2.7715   -7.0926   -0.9741 H   0  0  0  0  0  0  0  0  0  0  0  0
    3.9453   -7.2052   -3.2337 H   0  0  0  0  0  0  0  0  0  0  0  0
    5.0463   -6.7879   -1.9122 H   0  0  0  0  0  0  0  0  0  0  0  0
    3.7731   -4.8015   -3.8784 H   0  0  0  0  0  0  0  0  0  0  0  0
    9.5586   -5.9615   -5.8311 H   0  0  0  0  0  0  0  0  0  0  0  0
    9.7042   -5.0267   -2.8550 H   0  0  0  0  0  0  0  0  0  0  0  0
   11.1347   -5.2030   -4.0084 H   0  0  0  0  0  0  0  0  0  0  0  0
    9.1532   -7.4657   -3.1227 H   0  0  0  0  0  0  0  0  0  0  0  0
   10.5758   -7.6805   -4.2798 H   0  0  0  0  0  0  0  0  0  0  0  0
    5.1185   -3.0711   -2.6735 H   0  0  0  0  0  0  0  0  0  0  0  0
    5.6513   -4.2930   -1.5127 H   0  0  0  0  0  0  0  0  0  0  0  0
    2.8388    0.5742   -1.7095 H   0  0  0  0  0  0  0  0  0  0  0  0
    1.5197   -0.5488   -1.2501 H   0  0  0  0  0  0  0  0  0  0  0  0
  2  1  1  6
  1 27  1  0
  1 28  1  0
  1 29  1  0
  2  3  1  0
  2  7  1  0
  2 26  1  0
  3  4  1  0
  3 30  1  0
  3 31  1  0
  4  5  1  0
  4 32  1  0
  4 33  1  0
  5  6  2  0
  5  7  1  0
  7  8  1  0
  8  9  1  0
  8 25  1  0
  8 34  1  1
  9 10  2  0
  9 11  1  0
 11 12  1  0
 11 24  1  0
 12 13  1  0
 12 35  1  0
 12 36  1  0
 13 14  1  0
 13 37  1  0
 13 38  1  0
 14 15  1  0
 14 39  1  0
 14 40  1  0
 15 16  1  0
 15 24  1  0
 15 41  1  6
 16 17  2  0
 16 23  1  0
 17 18  1  0
 18 19  1  0
 19 20  1  0
 19 23  2  0
 20 21  1  0
 20 22  1  0
 20 42  1  6
 21 22  1  0
 21 43  1  0
 21 44  1  0
 22 45  1  0
 22 46  1  0
 24 47  1  0
 24 48  1  0
 25 26  1  0
 25 49  1  0
 25 50  1  0
M  END

