
     RDKit          3D

 29 30  0  0  0  0  0  0  0  0999 V2000
    1.1076    0.3637    0.9043 C   0  0  0  0  0  0  0  0  0  0  0  0
    2.4578    0.2476    0.2469 C   0  0  0  0  0  0  0  0  0  0  0  0
    3.2180    1.3928   -0.0259 C   0  0  0  0  0  0  0  0  0  0  0  0
    4.5133    1.3350   -0.5474 C   0  0  0  0  0  0  0  0  0  0  0  0
    5.0653    0.0809   -0.8075 C   0  0  0  0  0  0  0  0  0  0  0  0
    6.8396   -0.0492   -1.5059 Br  0  0  0  0  0  0  0  0  0  0  0  0
    4.3341   -1.0834   -0.5809 C   0  0  0  0  0  0  0  0  0  0  0  0
    3.0288   -1.0162   -0.0570 C   0  0  0  0  0  0  0  0  0  0  0  0
    2.3470   -2.2129    0.2189 N   0  0  0  0  0  0  0  0  0  0  0  0
    1.0997   -2.5856   -0.3389 C   0  0  0  0  0  0  0  0  0  0  0  0
    0.5326   -1.9371   -1.4472 C   0  0  0  0  0  0  0  0  0  0  0  0
   -0.6980   -2.3444   -1.9650 C   0  0  0  0  0  0  0  0  0  0  0  0
   -1.3995   -3.4329   -1.4153 C   0  0  0  0  0  0  0  0  0  0  0  0
   -2.5958   -3.8800   -1.9732 N   0  0  0  0  0  0  0  0  0  0  0  0
   -0.8176   -4.0924   -0.3143 C   0  0  0  0  0  0  0  0  0  0  0  0
    0.3972   -3.6683    0.2181 C   0  0  0  0  0  0  0  0  0  0  0  0
    0.9751    1.3601    1.3507 H   0  0  0  0  0  0  0  0  0  0  0  0
    0.9933   -0.3947    1.6949 H   0  0  0  0  0  0  0  0  0  0  0  0
    0.2797    0.1979    0.1948 H   0  0  0  0  0  0  0  0  0  0  0  0
    2.7905    2.3718    0.2094 H   0  0  0  0  0  0  0  0  0  0  0  0
    5.0844    2.2457   -0.7319 H   0  0  0  0  0  0  0  0  0  0  0  0
    4.7678   -2.0568   -0.8183 H   0  0  0  0  0  0  0  0  0  0  0  0
    2.9618   -3.0022    0.3885 H   0  0  0  0  0  0  0  0  0  0  0  0
    1.0634   -1.1075   -1.9192 H   0  0  0  0  0  0  0  0  0  0  0  0
   -1.1142   -1.8180   -2.8291 H   0  0  0  0  0  0  0  0  0  0  0  0
   -3.1122   -3.1949   -2.5137 H   0  0  0  0  0  0  0  0  0  0  0  0
   -3.1989   -4.4105   -1.3543 H   0  0  0  0  0  0  0  0  0  0  0  0
   -1.3331   -4.9456    0.1362 H   0  0  0  0  0  0  0  0  0  0  0  0
    0.8129   -4.1824    1.0893 H   0  0  0  0  0  0  0  0  0  0  0  0
  1  2  1  0
  1 17  1  0
  1 18  1  0
  1 19  1  0
  2  3  2  0
  2  8  1  0
  3  4  1  0
  3 20  1  0
  4  5  2  0
  4 21  1  0
  5  6  1  0
  5  7  1  0
  7  8  2  0
  7 22  1  0
  8  9  1  0
  9 10  1  0
  9 23  1  0
 10 11  2  0
 10 16  1  0
 11 12  1  0
 11 24  1  0
 12 13  2  0
 12 25  1  0
 13 14  1  0
 13 15  1  0
 14 26  1  0
 14 27  1  0
 15 16  2  0
 15 28  1  0
 16 29  1  0
M  END

