
     RDKit          3D

 48 50  0  0  0  0  0  0  0  0999 V2000
   14.6214    0.3272    0.3792 C   0  0  0  0  0  0  0  0  0  0  0  0
   13.3281    0.4687   -0.2071 O   0  0  0  0  0  0  0  0  0  0  0  0
   12.5141    1.4536    0.3332 C   0  0  0  0  0  0  0  0  0  0  0  0
   12.8962    2.1422    1.2511 O   0  0  0  0  0  0  0  0  0  0  0  0
   11.2331    1.5007   -0.3461 C   0  0  0  0  0  0  0  0  0  0  0  0
   10.8179    0.6955   -1.3998 C   0  0  0  0  0  0  0  0  0  0  0  0
   11.5077   -0.2766   -1.9939 O   0  0  0  0  0  0  0  0  0  0  0  0
    9.4615    1.1217   -1.7408 C   0  0  0  0  0  0  0  0  0  0  0  0
    8.5547    0.7065   -2.6847 C   0  0  0  0  0  0  0  0  0  0  0  0
    8.5551   -0.3017   -3.7032 C   0  0  0  0  0  0  0  0  0  0  0  0
    9.5613   -1.2615   -4.0854 C   0  0  0  0  0  0  0  0  0  0  0  0
    9.0732   -2.0136   -5.1195 C   0  0  0  0  0  0  0  0  0  0  0  0
    9.6920   -3.1476   -5.8690 C   0  0  0  0  0  0  0  0  0  0  0  0
    7.7813   -1.5421   -5.4086 N   0  0  0  0  0  0  0  0  0  0  0  0
    6.8973   -2.1264   -6.3677 C   0  0  0  0  0  0  0  0  0  0  0  0
    6.0665   -3.1768   -5.9607 C   0  0  0  0  0  0  0  0  0  0  0  0
    5.1880   -3.7832   -6.8614 C   0  0  0  0  0  0  0  0  0  0  0  0
    5.1355   -3.3400   -8.1835 C   0  0  0  0  0  0  0  0  0  0  0  0
    5.9610   -2.2934   -8.6000 C   0  0  0  0  0  0  0  0  0  0  0  0
    6.8447   -1.6793   -7.7044 C   0  0  0  0  0  0  0  0  0  0  0  0
    7.7253   -0.5457   -8.1945 C   0  0  1  0  0  0  0  0  0  0  0  0
    9.0328   -0.8298   -8.0596 F   0  0  0  0  0  0  0  0  0  0  0  0
    7.5125   -0.2829   -9.4941 F   0  0  0  0  0  0  0  0  0  0  0  0
    7.4968    0.5959   -7.5202 F   0  0  0  0  0  0  0  0  0  0  0  0
    7.4519   -0.5153   -4.5514 C   0  0  0  0  0  0  0  0  0  0  0  0
    6.1193    0.1557   -4.6082 C   0  0  0  0  0  0  0  0  0  0  0  0
    9.0988    2.1750   -0.8774 N   0  0  0  0  0  0  0  0  0  0  0  0
   10.1040    2.3988   -0.0769 C   0  0  0  0  0  0  0  0  0  0  0  0
   10.0745    3.4554    0.9795 C   0  0  0  0  0  0  0  0  0  0  0  0
   15.1219   -0.4828   -0.1668 H   0  0  0  0  0  0  0  0  0  0  0  0
   14.5414    0.0731    1.4468 H   0  0  0  0  0  0  0  0  0  0  0  0
   15.1970    1.2603    0.2868 H   0  0  0  0  0  0  0  0  0  0  0  0
   12.3770   -0.3122   -1.5399 H   0  0  0  0  0  0  0  0  0  0  0  0
    7.6361    1.2972   -2.6159 H   0  0  0  0  0  0  0  0  0  0  0  0
   10.5391   -1.3661   -3.6286 H   0  0  0  0  0  0  0  0  0  0  0  0
   10.6993   -3.3375   -5.4736 H   0  0  0  0  0  0  0  0  0  0  0  0
    9.7845   -2.9285   -6.9447 H   0  0  0  0  0  0  0  0  0  0  0  0
    9.1106   -4.0805   -5.7716 H   0  0  0  0  0  0  0  0  0  0  0  0
    6.1216   -3.5111   -4.9227 H   0  0  0  0  0  0  0  0  0  0  0  0
    4.5463   -4.6016   -6.5268 H   0  0  0  0  0  0  0  0  0  0  0  0
    4.4521   -3.8071   -8.8961 H   0  0  0  0  0  0  0  0  0  0  0  0
    5.9233   -1.9444   -9.6321 H   0  0  0  0  0  0  0  0  0  0  0  0
    5.2950   -0.5547   -4.4261 H   0  0  0  0  0  0  0  0  0  0  0  0
    5.9429    0.6172   -5.5926 H   0  0  0  0  0  0  0  0  0  0  0  0
    6.0507    0.9453   -3.8500 H   0  0  0  0  0  0  0  0  0  0  0  0
    9.1048    3.9710    0.9544 H   0  0  0  0  0  0  0  0  0  0  0  0
   10.8864    4.1861    0.8317 H   0  0  0  0  0  0  0  0  0  0  0  0
   10.2380    3.0211    1.9793 H   0  0  0  0  0  0  0  0  0  0  0  0
  1  2  1  0
  1 30  1  0
  1 31  1  0
  1 32  1  0
  2  3  1  0
  3  4  2  0
  3  5  1  0
  5  6  2  0
  5 28  1  0
  6  7  1  0
  6  8  1  0
  7 33  1  0
  8  9  2  0
  8 27  1  0
  9 10  1  0
  9 34  1  0
 10 11  1  0
 10 25  2  0
 11 12  2  0
 11 35  1  0
 12 13  1  0
 12 14  1  0
 13 36  1  0
 13 37  1  0
 13 38  1  0
 14 15  1  0
 14 25  1  0
 15 16  2  0
 15 20  1  0
 16 17  1  0
 16 39  1  0
 17 18  2  0
 17 40  1  0
 18 19  1  0
 18 41  1  0
 19 20  2  0
 19 42  1  0
 20 21  1  0
 21 22  1  6
 21 23  1  0
 21 24  1  0
 25 26  1  0
 26 43  1  0
 26 44  1  0
 26 45  1  0
 27 28  2  0
 28 29  1  0
 29 46  1  0
 29 47  1  0
 29 48  1  0
M  END

