
     RDKit          3D

 40 41  0  0  0  0  0  0  0  0999 V2000
    1.4637   -0.7249   -0.6221 C   0  0  0  0  0  0  0  0  0  0  0  0
    2.7301   -0.2525    0.0448 C   0  0  0  0  0  0  0  0  0  0  0  0
    3.0426    1.1269    0.0814 C   0  0  0  0  0  0  0  0  0  0  0  0
    2.1719    2.0905   -0.4909 N   0  0  0  0  0  0  0  0  0  0  0  0
    0.8788    2.3122   -0.0074 C   0  0  0  0  0  0  0  0  0  0  0  0
    0.4061    1.6510    0.9014 O   0  0  0  0  0  0  0  0  0  0  0  0
    0.1841    3.3376   -0.6262 N   0  0  0  0  0  0  0  0  0  0  0  0
   -1.1548    3.6479   -0.1390 C   0  0  0  0  0  0  0  0  0  0  0  0
   -1.3313    5.1622    0.0064 C   0  0  0  0  0  0  0  0  0  0  0  0
   -1.0095    5.9122   -1.3095 C   0  0  2  0  0  0  0  0  0  0  0  0
   -2.1057    5.7363   -2.3696 C   0  0  0  0  0  0  0  0  0  0  0  0
   -1.9290    5.2746   -3.4645 O   0  0  0  0  0  0  0  0  0  0  0  0
   -3.3391    6.1563   -2.0054 O   0  0  0  0  0  0  0  0  0  0  0  0
    0.3650    5.4768   -1.8448 C   0  0  0  0  0  0  0  0  0  0  0  0
    0.5004    3.9504   -1.9151 C   0  0  0  0  0  0  0  0  0  0  0  0
    4.2511    1.5737    0.6354 C   0  0  0  0  0  0  0  0  0  0  0  0
    5.1635    0.6745    1.1789 C   0  0  0  0  0  0  0  0  0  0  0  0
    4.8568   -0.6849    1.1956 C   0  0  0  0  0  0  0  0  0  0  0  0
    3.6554   -1.1396    0.6399 C   0  0  0  0  0  0  0  0  0  0  0  0
    3.3768   -2.6280    0.6708 C   0  0  1  0  0  0  0  0  0  0  0  0
    2.1809   -2.9088    1.2200 F   0  0  0  0  0  0  0  0  0  0  0  0
    3.3753   -3.1707   -0.5671 F   0  0  0  0  0  0  0  0  0  0  0  0
    4.2997   -3.3006    1.3809 F   0  0  0  0  0  0  0  0  0  0  0  0
    1.2200   -0.0654   -1.4679 H   0  0  0  0  0  0  0  0  0  0  0  0
    0.6177   -0.6708    0.0794 H   0  0  0  0  0  0  0  0  0  0  0  0
    1.5495   -1.7495   -0.9994 H   0  0  0  0  0  0  0  0  0  0  0  0
    2.6421    2.8887   -0.8999 H   0  0  0  0  0  0  0  0  0  0  0  0
   -1.2914    3.1357    0.8207 H   0  0  0  0  0  0  0  0  0  0  0  0
   -1.9135    3.2419   -0.8380 H   0  0  0  0  0  0  0  0  0  0  0  0
   -0.6492    5.5276    0.7916 H   0  0  0  0  0  0  0  0  0  0  0  0
   -2.3552    5.3770    0.3574 H   0  0  0  0  0  0  0  0  0  0  0  0
   -0.9788    6.9962   -1.0920 H   0  0  0  0  0  0  0  0  0  0  0  0
   -3.3275    6.5240   -1.1103 H   0  0  0  0  0  0  0  0  0  0  0  0
    1.1432    5.8785   -1.1742 H   0  0  0  0  0  0  0  0  0  0  0  0
    0.5287    5.9025   -2.8456 H   0  0  0  0  0  0  0  0  0  0  0  0
    1.5115    3.6746   -2.2389 H   0  0  0  0  0  0  0  0  0  0  0  0
   -0.1889    3.5641   -2.6875 H   0  0  0  0  0  0  0  0  0  0  0  0
    4.4640    2.6464    0.6482 H   0  0  0  0  0  0  0  0  0  0  0  0
    6.1022    1.0332    1.6068 H   0  0  0  0  0  0  0  0  0  0  0  0
    5.5487   -1.4001    1.6398 H   0  0  0  0  0  0  0  0  0  0  0  0
  1  2  1  0
  1 24  1  0
  1 25  1  0
  1 26  1  0
  2  3  2  0
  2 19  1  0
  3  4  1  0
  3 16  1  0
  4  5  1  0
  4 27  1  0
  5  6  2  0
  5  7  1  0
  7  8  1  0
  7 15  1  0
  8  9  1  0
  8 28  1  0
  8 29  1  0
  9 10  1  0
  9 30  1  0
  9 31  1  0
 10 11  1  0
 10 14  1  0
 10 32  1  1
 11 12  2  0
 11 13  1  0
 13 33  1  0
 14 15  1  0
 14 34  1  0
 14 35  1  0
 15 36  1  0
 15 37  1  0
 16 17  2  0
 16 38  1  0
 17 18  1  0
 17 39  1  0
 18 19  2  0
 18 40  1  0
 19 20  1  0
 20 21  1  1
 20 22  1  0
 20 23  1  0
M  END

