
     RDKit          3D

 51 54  0  0  0  0  0  0  0  0999 V2000
    0.4464    1.7110    0.9700 C   0  0  0  0  0  0  0  0  0  0  0  0
    1.8495    2.2491    1.1721 C   0  0  0  0  0  0  0  0  0  0  0  0
    2.7667    1.1797    0.9778 O   0  0  0  0  0  0  0  0  0  0  0  0
    4.0975    1.4054    1.0777 C   0  0  0  0  0  0  0  0  0  0  0  0
    4.6718    2.6429    1.3977 C   0  0  0  0  0  0  0  0  0  0  0  0
    6.0613    2.8094    1.4525 C   0  0  0  0  0  0  0  0  0  0  0  0
    6.9072    1.7124    1.2084 C   0  0  0  0  0  0  0  0  0  0  0  0
    6.3271    0.4733    0.8732 C   0  0  0  0  0  0  0  0  0  0  0  0
    4.9481    0.3030    0.8044 C   0  0  0  0  0  0  0  0  0  0  0  0
    4.4485   -0.9025    0.4025 O   0  0  0  0  0  0  0  0  0  0  0  0
    3.7226   -1.6589    1.3597 C   0  0  0  0  0  0  0  0  0  0  0  0
    8.3766    1.9431    1.2557 C   0  0  0  0  0  0  0  0  0  0  0  0
    9.3308    0.7906    1.3541 C   0  0  0  0  0  0  0  0  0  0  0  0
   10.5512    0.8480    0.6600 C   0  0  0  0  0  0  0  0  0  0  0  0
   11.4883   -0.1795    0.7710 C   0  0  0  0  0  0  0  0  0  0  0  0
   11.2218   -1.2709    1.5931 C   0  0  0  0  0  0  0  0  0  0  0  0
   12.1064   -2.2646    1.7164 F   0  0  0  0  0  0  0  0  0  0  0  0
   10.0192   -1.3315    2.3025 C   0  0  0  0  0  0  0  0  0  0  0  0
    9.7851   -2.3776    3.1030 F   0  0  0  0  0  0  0  0  0  0  0  0
    9.0775   -0.3157    2.1837 C   0  0  0  0  0  0  0  0  0  0  0  0
    8.9037    3.1118    1.2013 N   0  0  0  0  0  0  0  0  0  0  0  0
    8.0682    4.3033    1.1248 C   0  0  2  0  0  0  0  0  0  0  0  0
    8.8544    5.4763    1.7650 C   0  0  0  0  0  0  0  0  0  0  0  0
    7.9278    6.5393    2.3571 C   0  0  0  0  0  0  0  0  0  0  0  0
    7.0594    5.9684    3.5006 C   0  0  1  0  0  0  0  0  0  0  0  0
    5.8188    6.6576    3.6006 O   0  0  0  0  0  0  0  0  0  0  0  0
    6.7344    4.4822    3.2733 C   0  0  0  0  0  0  0  0  0  0  0  0
    6.6638    4.1597    1.7685 C   0  0  2  0  0  0  0  0  0  0  0  0
   -0.2901    2.5197    1.0951 H   0  0  0  0  0  0  0  0  0  0  0  0
    0.2197    0.9201    1.7014 H   0  0  0  0  0  0  0  0  0  0  0  0
    0.3338    1.2895   -0.0404 H   0  0  0  0  0  0  0  0  0  0  0  0
    1.9684    2.6676    2.1889 H   0  0  0  0  0  0  0  0  0  0  0  0
    2.0659    3.0602    0.4524 H   0  0  0  0  0  0  0  0  0  0  0  0
    4.0366    3.5087    1.5895 H   0  0  0  0  0  0  0  0  0  0  0  0
    6.9425   -0.3916    0.6251 H   0  0  0  0  0  0  0  0  0  0  0  0
    3.4478   -2.6045    0.8714 H   0  0  0  0  0  0  0  0  0  0  0  0
    2.8063   -1.1406    1.6840 H   0  0  0  0  0  0  0  0  0  0  0  0
    4.3447   -1.8842    2.2456 H   0  0  0  0  0  0  0  0  0  0  0  0
   10.7566    1.7202    0.0386 H   0  0  0  0  0  0  0  0  0  0  0  0
   12.4358   -0.1530    0.2287 H   0  0  0  0  0  0  0  0  0  0  0  0
    8.1608   -0.3965    2.7695 H   0  0  0  0  0  0  0  0  0  0  0  0
    7.9250    4.5176    0.0470 H   0  0  0  0  0  0  0  0  0  0  0  0
    9.5418    5.9135    1.0245 H   0  0  0  0  0  0  0  0  0  0  0  0
    9.4943    5.0572    2.5589 H   0  0  0  0  0  0  0  0  0  0  0  0
    7.2450    6.9191    1.5771 H   0  0  0  0  0  0  0  0  0  0  0  0
    8.5088    7.4063    2.7145 H   0  0  0  0  0  0  0  0  0  0  0  0
    7.6167    6.0586    4.4550 H   0  0  0  0  0  0  0  0  0  0  0  0
    6.0041    7.6031    3.6743 H   0  0  0  0  0  0  0  0  0  0  0  0
    5.7766    4.2661    3.7701 H   0  0  0  0  0  0  0  0  0  0  0  0
    7.4977    3.8480    3.7521 H   0  0  0  0  0  0  0  0  0  0  0  0
    6.0051    4.9204    1.3195 H   0  0  0  0  0  0  0  0  0  0  0  0
  1  2  1  0
  1 29  1  0
  1 30  1  0
  1 31  1  0
  2  3  1  0
  2 32  1  0
  2 33  1  0
  3  4  1  0
  4  5  2  0
  4  9  1  0
  5  6  1  0
  5 34  1  0
  6  7  2  0
  6 28  1  0
  7  8  1  0
  7 12  1  0
  8  9  2  0
  8 35  1  0
  9 10  1  0
 10 11  1  0
 11 36  1  0
 11 37  1  0
 11 38  1  0
 12 13  1  0
 12 21  2  0
 13 14  2  0
 13 20  1  0
 14 15  1  0
 14 39  1  0
 15 16  2  0
 15 40  1  0
 16 17  1  0
 16 18  1  0
 18 19  1  0
 18 20  2  0
 20 41  1  0
 21 22  1  0
 22 23  1  0
 22 28  1  0
 22 42  1  6
 23 24  1  0
 23 43  1  0
 23 44  1  0
 24 25  1  0
 24 45  1  0
 24 46  1  0
 25 26  1  0
 25 27  1  0
 25 47  1  1
 26 48  1  0
 27 28  1  0
 27 49  1  0
 27 50  1  0
 28 51  1  6
M  END

