
     RDKit          3D

 49 53  0  0  0  0  0  0  0  0999 V2000
    6.1438   -1.8589   -0.7415 O   0  0  0  0  0  0  0  0  0  0  0  0
    5.4114   -0.9739   -1.1340 C   0  0  0  0  0  0  0  0  0  0  0  0
    5.2066    0.1909   -0.3809 N   0  0  0  0  0  0  0  0  0  0  0  0
    5.6996    0.2615    0.5063 H   0  0  0  0  0  0  0  0  0  0  0  0
    4.3904    1.2250   -0.7722 C   0  0  0  0  0  0  0  0  0  0  0  0
    4.3840    2.2077    0.1410 O   0  0  0  0  0  0  0  0  0  0  0  0
    3.6079    3.3585   -0.0513 C   0  0  0  0  0  0  0  0  0  0  0  0
    2.2173    3.3097   -0.0204 C   0  0  0  0  0  0  0  0  0  0  0  0
    1.4764    4.4871   -0.1315 C   0  0  0  0  0  0  0  0  0  0  0  0
    2.1185    5.7362   -0.2844 C   0  0  0  0  0  0  0  0  0  0  0  0
    1.4158    6.9169   -0.4354 N   0  0  0  0  0  0  0  0  0  0  0  0
   -0.0147    7.0322   -0.2266 C   0  0  0  0  0  0  0  0  0  0  0  0
   -0.5084    8.4276   -0.5442 C   0  0  0  0  0  0  0  0  0  0  0  0
   -0.2145    9.0310   -1.7767 C   0  0  0  0  0  0  0  0  0  0  0  0
   -0.6842   10.3098   -2.0770 C   0  0  0  0  0  0  0  0  0  0  0  0
   -1.4675   11.0364   -1.1632 C   0  0  0  0  0  0  0  0  0  0  0  0
   -1.9521   12.4010   -1.5257 C   0  0  1  0  0  0  0  0  0  0  0  0
   -3.3112   12.9111   -1.0852 C   0  0  0  0  0  0  0  0  0  0  0  0
   -2.0696   13.5095   -0.4963 C   0  0  0  0  0  0  0  0  0  0  0  0
   -1.7583   10.4276    0.0694 C   0  0  0  0  0  0  0  0  0  0  0  0
   -1.2843    9.1496    0.3728 C   0  0  0  0  0  0  0  0  0  0  0  0
    3.5324    5.7549   -0.3003 C   0  0  0  0  0  0  0  0  0  0  0  0
    4.2682    4.5796   -0.1873 C   0  0  0  0  0  0  0  0  0  0  0  0
    3.7194    1.2543   -1.8671 N   0  0  0  0  0  0  0  0  0  0  0  0
    3.8390    0.1598   -2.7013 C   0  0  0  0  0  0  0  0  0  0  0  0
    3.1293    0.1266   -3.9271 C   0  0  0  0  0  0  0  0  0  0  0  0
    3.1903   -0.8840   -4.7786 N   0  0  0  0  0  0  0  0  0  0  0  0
    3.9647   -1.9422   -4.4750 C   0  0  0  0  0  0  0  0  0  0  0  0
    4.7088   -2.0269   -3.3043 C   0  0  0  0  0  0  0  0  0  0  0  0
    4.6485   -0.9586   -2.3977 C   0  0  0  0  0  0  0  0  0  0  0  0
    1.7073    2.3518    0.0934 H   0  0  0  0  0  0  0  0  0  0  0  0
    0.3885    4.4264   -0.0974 H   0  0  0  0  0  0  0  0  0  0  0  0
    1.9429    7.7675   -0.2756 H   0  0  0  0  0  0  0  0  0  0  0  0
   -0.3083    6.7636    0.8090 H   0  0  0  0  0  0  0  0  0  0  0  0
   -0.5259    6.3075   -0.8872 H   0  0  0  0  0  0  0  0  0  0  0  0
    0.3915    8.4901   -2.5085 H   0  0  0  0  0  0  0  0  0  0  0  0
   -0.4420   10.7561   -3.0457 H   0  0  0  0  0  0  0  0  0  0  0  0
   -1.6329   12.7201   -2.5226 H   0  0  0  0  0  0  0  0  0  0  0  0
   -3.9172   12.2487   -0.4600 H   0  0  0  0  0  0  0  0  0  0  0  0
   -3.8900   13.5011   -1.8017 H   0  0  0  0  0  0  0  0  0  0  0  0
   -1.8128   13.2636    0.5384 H   0  0  0  0  0  0  0  0  0  0  0  0
   -1.7780   14.5189   -0.8005 H   0  0  0  0  0  0  0  0  0  0  0  0
   -2.3603   10.9545    0.8144 H   0  0  0  0  0  0  0  0  0  0  0  0
   -1.5234    8.7055    1.3435 H   0  0  0  0  0  0  0  0  0  0  0  0
    4.0546    6.7092   -0.4119 H   0  0  0  0  0  0  0  0  0  0  0  0
    5.3598    4.6020   -0.2001 H   0  0  0  0  0  0  0  0  0  0  0  0
    2.4971    0.9850   -4.1823 H   0  0  0  0  0  0  0  0  0  0  0  0
    3.9860   -2.7566   -5.2074 H   0  0  0  0  0  0  0  0  0  0  0  0
    5.3326   -2.8932   -3.0746 H   0  0  0  0  0  0  0  0  0  0  0  0
  1  2  2  0
  2  3  1  0
  2 30  1  0
  3  4  1  0
  3  5  1  0
  5  6  1  0
  5 24  2  0
  6  7  1  0
  7  8  2  0
  7 23  1  0
  8  9  1  0
  8 31  1  0
  9 10  2  0
  9 32  1  0
 10 11  1  0
 10 22  1  0
 11 12  1  0
 11 33  1  0
 12 13  1  0
 12 34  1  0
 12 35  1  0
 13 14  2  0
 13 21  1  0
 14 15  1  0
 14 36  1  0
 15 16  2  0
 15 37  1  0
 16 17  1  0
 16 20  1  0
 17 18  1  0
 17 19  1  0
 17 38  1  6
 18 19  1  0
 18 39  1  0
 18 40  1  0
 19 41  1  0
 19 42  1  0
 20 21  2  0
 20 43  1  0
 21 44  1  0
 22 23  2  0
 22 45  1  0
 23 46  1  0
 24 25  1  0
 25 26  1  0
 25 30  2  0
 26 27  2  0
 26 47  1  0
 27 28  1  0
 28 29  2  0
 28 48  1  0
 29 30  1  0
 29 49  1  0
M  END

