
     RDKit          3D

 53 57  0  0  0  0  0  0  0  0999 V2000
    5.6546   -2.0039   -0.7771 O   0  0  0  0  0  0  0  0  0  0  0  0
    4.8127   -1.2099   -0.3779 C   0  0  0  0  0  0  0  0  0  0  0  0
    3.4788   -1.2769   -0.7111 N   0  0  0  0  0  0  0  0  0  0  0  0
    2.7899   -2.2380   -1.4828 C   0  0  0  0  0  0  0  0  0  0  0  0
    3.4377   -3.3656   -2.0514 C   0  0  0  0  0  0  0  0  0  0  0  0
    2.7255   -4.2989   -2.8033 C   0  0  0  0  0  0  0  0  0  0  0  0
    1.3548   -4.0953   -2.9855 C   0  0  0  0  0  0  0  0  0  0  0  0
    0.6943   -2.9732   -2.4258 C   0  0  0  0  0  0  0  0  0  0  0  0
    1.4146   -2.0412   -1.6695 C   0  0  0  0  0  0  0  0  0  0  0  0
   -0.6486   -3.0034   -2.7476 N   0  0  0  0  0  0  0  0  0  0  0  0
   -0.8103   -4.0855   -3.4735 C   0  0  0  0  0  0  0  0  0  0  0  0
    0.3621   -4.7986   -3.6569 N   0  0  0  0  0  0  0  0  0  0  0  0
    0.5281   -6.0316   -4.4118 C   0  0  0  0  0  0  0  0  0  0  0  0
   -0.3256   -7.1992   -3.9023 C   0  0  0  0  0  0  0  0  0  0  0  0
   -1.8234   -7.1062   -4.2237 C   0  0  0  0  0  0  0  0  0  0  0  0
   -2.5818   -5.9329   -3.5892 C   0  0  0  0  0  0  0  0  0  0  0  0
   -2.1210   -4.5347   -4.0432 C   0  0  0  0  0  0  0  0  0  0  0  0
    5.1926   -0.0676    0.5140 C   0  0  0  0  0  0  0  0  0  0  0  0
    6.5582    0.2649    0.6204 C   0  0  0  0  0  0  0  0  0  0  0  0
    6.9653    1.3013    1.4389 C   0  0  0  0  0  0  0  0  0  0  0  0
    5.9775    2.0096    2.1813 C   0  0  0  0  0  0  0  0  0  0  0  0
    6.2975    3.0476    3.0039 N   0  0  0  0  0  0  0  0  0  0  0  0
    7.6577    3.5116    3.2574 C   0  0  0  0  0  0  0  0  0  0  0  0
    7.4900    4.5072    4.4151 C   0  0  0  0  0  0  0  0  0  0  0  0
    6.0687    5.0509    4.2109 C   0  0  0  0  0  0  0  0  0  0  0  0
    5.2877    3.8226    3.7291 C   0  0  0  0  0  0  0  0  0  0  0  0
    4.6731    1.6791    2.1044 N   0  0  0  0  0  0  0  0  0  0  0  0
    4.3096    0.6835    1.3033 C   0  0  0  0  0  0  0  0  0  0  0  0
    2.9044   -0.5033   -0.4022 H   0  0  0  0  0  0  0  0  0  0  0  0
    4.5064   -3.4828   -1.8915 H   0  0  0  0  0  0  0  0  0  0  0  0
    3.2483   -5.1575   -3.2311 H   0  0  0  0  0  0  0  0  0  0  0  0
    0.8976   -1.1800   -1.2379 H   0  0  0  0  0  0  0  0  0  0  0  0
    1.5919   -6.3002   -4.3528 H   0  0  0  0  0  0  0  0  0  0  0  0
    0.3120   -5.8442   -5.4798 H   0  0  0  0  0  0  0  0  0  0  0  0
   -0.1720   -7.2997   -2.8135 H   0  0  0  0  0  0  0  0  0  0  0  0
    0.0718   -8.1215   -4.3597 H   0  0  0  0  0  0  0  0  0  0  0  0
   -2.3044   -8.0477   -3.9083 H   0  0  0  0  0  0  0  0  0  0  0  0
   -1.9475   -7.0588   -5.3221 H   0  0  0  0  0  0  0  0  0  0  0  0
   -2.5196   -5.9937   -2.4884 H   0  0  0  0  0  0  0  0  0  0  0  0
   -3.6501   -6.0382   -3.8424 H   0  0  0  0  0  0  0  0  0  0  0  0
   -2.8538   -3.7760   -3.7362 H   0  0  0  0  0  0  0  0  0  0  0  0
   -2.0795   -4.5075   -5.1489 H   0  0  0  0  0  0  0  0  0  0  0  0
    7.2783   -0.3157    0.0399 H   0  0  0  0  0  0  0  0  0  0  0  0
    8.0197    1.5687    1.5072 H   0  0  0  0  0  0  0  0  0  0  0  0
    8.0868    4.0004    2.3602 H   0  0  0  0  0  0  0  0  0  0  0  0
    8.3271    2.6749    3.5212 H   0  0  0  0  0  0  0  0  0  0  0  0
    8.2651    5.2878    4.4136 H   0  0  0  0  0  0  0  0  0  0  0  0
    7.5564    3.9747    5.3784 H   0  0  0  0  0  0  0  0  0  0  0  0
    6.0690    5.8284    3.4283 H   0  0  0  0  0  0  0  0  0  0  0  0
    5.6384    5.4955    5.1205 H   0  0  0  0  0  0  0  0  0  0  0  0
    4.4398    4.0653    3.0725 H   0  0  0  0  0  0  0  0  0  0  0  0
    4.8762    3.2376    4.5731 H   0  0  0  0  0  0  0  0  0  0  0  0
    3.2358    0.4525    1.3171 H   0  0  0  0  0  0  0  0  0  0  0  0
  1  2  2  0
  2  3  1  0
  2 18  1  0
  3  4  1  0
  3 29  1  0
  4  5  2  0
  4  9  1  0
  5  6  1  0
  5 30  1  0
  6  7  2  0
  6 31  1  0
  7  8  1  0
  7 12  1  0
  8  9  2  0
  8 10  1  0
  9 32  1  0
 10 11  2  0
 11 12  1  0
 11 17  1  0
 12 13  1  0
 13 14  1  0
 13 33  1  0
 13 34  1  0
 14 15  1  0
 14 35  1  0
 14 36  1  0
 15 16  1  0
 15 37  1  0
 15 38  1  0
 16 17  1  0
 16 39  1  0
 16 40  1  0
 17 41  1  0
 17 42  1  0
 18 19  2  0
 18 28  1  0
 19 20  1  0
 19 43  1  0
 20 21  2  0
 20 44  1  0
 21 22  1  0
 21 27  1  0
 22 23  1  0
 22 26  1  0
 23 24  1  0
 23 45  1  0
 23 46  1  0
 24 25  1  0
 24 47  1  0
 24 48  1  0
 25 26  1  0
 25 49  1  0
 25 50  1  0
 26 51  1  0
 26 52  1  0
 27 28  2  0
 28 53  1  0
M  END

