
     RDKit          3D

 47 49  0  0  0  0  0  0  0  0999 V2000
    1.7320    2.0106    0.9423 C   0  0  0  0  0  0  0  0  0  0  0  0
    2.7893    0.9546    0.7214 C   0  0  0  0  0  0  0  0  0  0  0  0
    2.4400   -0.4106    0.6135 C   0  0  0  0  0  0  0  0  0  0  0  0
    3.3944   -1.4021    0.4095 C   0  0  0  0  0  0  0  0  0  0  0  0
    4.7482   -1.0420    0.3069 C   0  0  0  0  0  0  0  0  0  0  0  0
    5.8014   -1.9047    0.1064 N   0  0  0  0  0  0  0  0  0  0  0  0
    6.9404   -1.2848    0.0536 C   0  0  0  0  0  0  0  0  0  0  0  0
    8.2326   -1.9506   -0.1510 C   0  0  0  0  0  0  0  0  0  0  0  0
    9.4484   -1.2469   -0.2028 C   0  0  0  0  0  0  0  0  0  0  0  0
   10.6634   -1.8996   -0.3980 C   0  0  0  0  0  0  0  0  0  0  0  0
   10.6837   -3.2981   -0.5481 C   0  0  0  0  0  0  0  0  0  0  0  0
   11.8648   -4.0238   -0.7472 N   0  0  0  0  0  0  0  0  0  0  0  0
   13.1458   -3.5852   -0.8366 C   0  0  0  0  0  0  0  0  0  0  0  0
   13.5507   -2.4348   -0.7591 O   0  0  0  0  0  0  0  0  0  0  0  0
   14.1102   -4.7741   -1.0627 C   0  0  0  0  0  0  0  0  0  0  0  0
   13.6939   -5.9228   -1.1514 O   0  0  0  0  0  0  0  0  0  0  0  0
   15.3931   -4.3765   -1.1338 N   0  0  0  0  0  0  0  0  0  0  0  0
   16.5037   -5.2814   -1.3637 C   0  0  0  0  0  0  0  0  0  0  0  0
   16.9996   -5.3242   -2.8229 C   0  0  1  0  0  0  0  0  0  0  0  0
   17.4678   -3.9496   -3.3132 C   0  0  0  0  0  0  0  0  0  0  0  0
   18.1019   -6.3795   -2.9643 C   0  0  0  0  0  0  0  0  0  0  0  0
    9.4708   -4.0131   -0.4978 C   0  0  0  0  0  0  0  0  0  0  0  0
    8.2668   -3.3513   -0.3027 C   0  0  0  0  0  0  0  0  0  0  0  0
    6.8345    0.4881    0.2520 S   0  0  0  0  0  0  0  0  0  0  0  0
    5.1012    0.3304    0.4152 C   0  0  0  0  0  0  0  0  0  0  0  0
    4.1383    1.3214    0.6200 C   0  0  0  0  0  0  0  0  0  0  0  0
    0.7271    1.5685    1.0059 H   0  0  0  0  0  0  0  0  0  0  0  0
    1.7226    2.7479    0.1219 H   0  0  0  0  0  0  0  0  0  0  0  0
    1.9117    2.5707    1.8752 H   0  0  0  0  0  0  0  0  0  0  0  0
    1.3866   -0.6922    0.6933 H   0  0  0  0  0  0  0  0  0  0  0  0
    3.1152   -2.4544    0.3274 H   0  0  0  0  0  0  0  0  0  0  0  0
    9.4557   -0.1599   -0.0886 H   0  0  0  0  0  0  0  0  0  0  0  0
   11.5977   -1.3434   -0.4363 H   0  0  0  0  0  0  0  0  0  0  0  0
   11.7969   -5.0376   -0.8482 H   0  0  0  0  0  0  0  0  0  0  0  0
   15.5376   -3.3736   -1.0448 H   0  0  0  0  0  0  0  0  0  0  0  0
   16.1662   -6.2836   -1.0605 H   0  0  0  0  0  0  0  0  0  0  0  0
   17.3363   -4.9917   -0.6983 H   0  0  0  0  0  0  0  0  0  0  0  0
   16.1398   -5.6384   -3.4421 H   0  0  0  0  0  0  0  0  0  0  0  0
   18.3236   -3.5853   -2.7179 H   0  0  0  0  0  0  0  0  0  0  0  0
   16.6653   -3.1974   -3.2504 H   0  0  0  0  0  0  0  0  0  0  0  0
   17.7923   -3.9942   -4.3649 H   0  0  0  0  0  0  0  0  0  0  0  0
   18.9824   -6.1202   -2.3510 H   0  0  0  0  0  0  0  0  0  0  0  0
   18.4400   -6.4615   -4.0093 H   0  0  0  0  0  0  0  0  0  0  0  0
   17.7533   -7.3751   -2.6455 H   0  0  0  0  0  0  0  0  0  0  0  0
    9.4814   -5.1006   -0.6138 H   0  0  0  0  0  0  0  0  0  0  0  0
    7.3264   -3.9028   -0.2633 H   0  0  0  0  0  0  0  0  0  0  0  0
    4.4286    2.3721    0.7010 H   0  0  0  0  0  0  0  0  0  0  0  0
  1  2  1  0
  1 27  1  0
  1 28  1  0
  1 29  1  0
  2  3  2  0
  2 26  1  0
  3  4  1  0
  3 30  1  0
  4  5  2  0
  4 31  1  0
  5  6  1  0
  5 25  1  0
  6  7  2  0
  7  8  1  0
  7 24  1  0
  8  9  2  0
  8 23  1  0
  9 10  1  0
  9 32  1  0
 10 11  2  0
 10 33  1  0
 11 12  1  0
 11 22  1  0
 12 13  1  0
 12 34  1  0
 13 14  2  0
 13 15  1  0
 15 16  2  0
 15 17  1  0
 17 18  1  0
 17 35  1  0
 18 19  1  0
 18 36  1  0
 18 37  1  0
 19 20  1  0
 19 21  1  0
 19 38  1  6
 20 39  1  0
 20 40  1  0
 20 41  1  0
 21 42  1  0
 21 43  1  0
 21 44  1  0
 22 23  2  0
 22 45  1  0
 23 46  1  0
 24 25  1  0
 25 26  2  0
 26 47  1  0
M  END

