
     RDKit          3D

 33 33  0  0  0  0  0  0  0  0999 V2000
    5.2041   -0.8550    1.1456 C   0  0  0  0  0  0  0  0  0  0  0  0
    3.9340   -0.3711    0.4684 C   0  0  0  0  0  0  0  0  0  0  0  0
    4.2195    0.1658   -0.8425 O   0  0  0  0  0  0  0  0  0  0  0  0
    4.5971    1.4382   -0.9262 C   0  0  0  0  0  0  0  0  0  0  0  0
    4.5974    2.2330   -0.0151 O   0  0  0  0  0  0  0  0  0  0  0  0
    5.0466    1.8141   -2.3411 C   0  0  1  0  0  0  0  0  0  0  0  0
    4.8151    3.2167   -2.6521 N   0  0  0  0  0  0  0  0  0  0  0  0
    6.5491    1.4293   -2.4884 C   0  0  0  0  0  0  0  0  0  0  0  0
    6.9985    0.4212   -1.9759 O   0  0  0  0  0  0  0  0  0  0  0  0
    7.2317    2.3276   -3.2560 N   0  0  0  0  0  0  0  0  0  0  0  0
    8.5801    2.3178   -3.6422 C   0  0  0  0  0  0  0  0  0  0  0  0
    9.4499    1.2843   -3.2603 C   0  0  0  0  0  0  0  0  0  0  0  0
   10.7785    1.3156   -3.6691 C   0  0  0  0  0  0  0  0  0  0  0  0
   11.5883    0.3225   -3.2941 F   0  0  0  0  0  0  0  0  0  0  0  0
   11.2684    2.3591   -4.4560 C   0  0  0  0  0  0  0  0  0  0  0  0
   13.0871    2.3736   -4.9985 Br  0  0  0  0  0  0  0  0  0  0  0  0
   10.3963    3.3841   -4.8320 C   0  0  0  0  0  0  0  0  0  0  0  0
    9.0536    3.3894   -4.4421 C   0  0  0  0  0  0  0  0  0  0  0  0
    8.1373    4.5113   -4.8661 C   0  0  0  0  0  0  0  0  0  0  0  0
    4.9542   -1.3473    2.0991 H   0  0  0  0  0  0  0  0  0  0  0  0
    5.8805   -0.0143    1.3583 H   0  0  0  0  0  0  0  0  0  0  0  0
    5.7370   -1.5739    0.5056 H   0  0  0  0  0  0  0  0  0  0  0  0
    3.4270    0.4013    1.0652 H   0  0  0  0  0  0  0  0  0  0  0  0
    3.2356   -1.1989    0.2805 H   0  0  0  0  0  0  0  0  0  0  0  0
    4.5087    1.1709   -3.0559 H   0  0  0  0  0  0  0  0  0  0  0  0
    4.9182    3.7583   -1.7893 H   0  0  0  0  0  0  0  0  0  0  0  0
    3.8614    3.3664   -2.9779 H   0  0  0  0  0  0  0  0  0  0  0  0
    6.6436    3.1171   -3.5301 H   0  0  0  0  0  0  0  0  0  0  0  0
    9.0931    0.4605   -2.6460 H   0  0  0  0  0  0  0  0  0  0  0  0
   10.7789    4.2006   -5.4475 H   0  0  0  0  0  0  0  0  0  0  0  0
    8.6758    5.2484   -5.4777 H   0  0  0  0  0  0  0  0  0  0  0  0
    7.7138    5.0493   -3.9999 H   0  0  0  0  0  0  0  0  0  0  0  0
    7.2862    4.1445   -5.4663 H   0  0  0  0  0  0  0  0  0  0  0  0
  1  2  1  0
  1 20  1  0
  1 21  1  0
  1 22  1  0
  2  3  1  0
  2 23  1  0
  2 24  1  0
  3  4  1  0
  4  5  2  0
  4  6  1  0
  6  7  1  0
  6  8  1  0
  6 25  1  6
  7 26  1  0
  7 27  1  0
  8  9  2  0
  8 10  1  0
 10 11  1  0
 10 28  1  0
 11 12  2  0
 11 18  1  0
 12 13  1  0
 12 29  1  0
 13 14  1  0
 13 15  2  0
 15 16  1  0
 15 17  1  0
 17 18  2  0
 17 30  1  0
 18 19  1  0
 19 31  1  0
 19 32  1  0
 19 33  1  0
M  END

