
     RDKit          3D

 47 50  0  0  0  0  0  0  0  0999 V2000
    0.9797    0.1685   -0.4399 C   0  0  0  0  0  0  0  0  0  0  0  0
    2.4550   -0.0296   -0.0265 C   0  0  2  0  0  0  0  0  0  0  0  0
    2.5350   -0.2571    1.4955 C   0  0  0  0  0  0  0  0  0  0  0  0
    3.3363    1.1991   -0.4154 C   0  0  0  0  0  0  0  0  0  0  0  0
    4.0272    0.9005   -1.7820 C   0  0  1  0  0  0  0  0  0  0  0  0
    3.3195    1.5358   -3.0190 C   0  0  0  0  0  0  0  0  0  0  0  0
    4.0680    2.8521   -3.3977 C   0  0  2  0  0  0  0  0  0  0  0  0
    3.3893    4.0953   -2.7805 C   0  0  0  0  0  0  0  0  0  0  0  0
    4.1081    2.9986   -4.9311 C   0  0  0  0  0  0  0  0  0  0  0  0
    5.4384    2.6171   -2.7561 C   0  0  0  0  0  0  0  0  0  0  0  0
    6.6369    3.3312   -2.8632 C   0  0  0  0  0  0  0  0  0  0  0  0
    6.7773    4.7711   -3.8659 Cl  0  0  0  0  0  0  0  0  0  0  0  0
    7.7829    2.9429   -2.1599 C   0  0  0  0  0  0  0  0  0  0  0  0
    7.7391    1.8271   -1.3128 C   0  0  0  0  0  0  0  0  0  0  0  0
    8.8239    1.4043   -0.6145 O   0  0  0  0  0  0  0  0  0  0  0  0
    6.5433    1.1118   -1.1633 C   0  0  0  0  0  0  0  0  0  0  0  0
    5.4180    1.5175   -1.8772 C   0  0  0  0  0  0  0  0  0  0  0  0
    3.9917   -0.6228   -1.8117 C   0  0  0  0  0  0  0  0  0  0  0  0
    4.6960   -1.4429   -2.6950 C   0  0  0  0  0  0  0  0  0  0  0  0
    4.5047   -2.8291   -2.6404 C   0  0  0  0  0  0  0  0  0  0  0  0
    5.1609   -3.6949   -3.4547 O   0  0  0  0  0  0  0  0  0  0  0  0
    3.5988   -3.3732   -1.7183 C   0  0  0  0  0  0  0  0  0  0  0  0
    2.9044   -2.5305   -0.8491 C   0  0  0  0  0  0  0  0  0  0  0  0
    1.7551   -3.2932    0.2437 Cl  0  0  0  0  0  0  0  0  0  0  0  0
    3.1006   -1.1413   -0.8587 C   0  0  0  0  0  0  0  0  0  0  0  0
    0.5303    1.0046    0.1212 H   0  0  0  0  0  0  0  0  0  0  0  0
    0.3915   -0.7375   -0.2303 H   0  0  0  0  0  0  0  0  0  0  0  0
    0.8844    0.3880   -1.5143 H   0  0  0  0  0  0  0  0  0  0  0  0
    2.2096    0.6537    2.0257 H   0  0  0  0  0  0  0  0  0  0  0  0
    3.5670   -0.4800    1.8101 H   0  0  0  0  0  0  0  0  0  0  0  0
    1.8937   -1.0866    1.8221 H   0  0  0  0  0  0  0  0  0  0  0  0
    4.1183    1.3279    0.3485 H   0  0  0  0  0  0  0  0  0  0  0  0
    2.7536    2.1319   -0.4355 H   0  0  0  0  0  0  0  0  0  0  0  0
    2.2474    1.7092   -2.8446 H   0  0  0  0  0  0  0  0  0  0  0  0
    3.3942    0.8323   -3.8626 H   0  0  0  0  0  0  0  0  0  0  0  0
    2.3794    4.2323   -3.2012 H   0  0  0  0  0  0  0  0  0  0  0  0
    3.9727    5.0040   -2.9928 H   0  0  0  0  0  0  0  0  0  0  0  0
    3.2946    4.0060   -1.6877 H   0  0  0  0  0  0  0  0  0  0  0  0
    3.0811    2.9915   -5.3328 H   0  0  0  0  0  0  0  0  0  0  0  0
    4.6573    2.1642   -5.3959 H   0  0  0  0  0  0  0  0  0  0  0  0
    4.5873    3.9362   -5.2432 H   0  0  0  0  0  0  0  0  0  0  0  0
    8.7039    3.5191   -2.2765 H   0  0  0  0  0  0  0  0  0  0  0  0
    9.5760    1.9823   -0.7981 H   0  0  0  0  0  0  0  0  0  0  0  0
    6.5197    0.2504   -0.4930 H   0  0  0  0  0  0  0  0  0  0  0  0
    5.3954   -1.0105   -3.4173 H   0  0  0  0  0  0  0  0  0  0  0  0
    5.7541   -3.2023   -4.0369 H   0  0  0  0  0  0  0  0  0  0  0  0
    3.4445   -4.4519   -1.6905 H   0  0  0  0  0  0  0  0  0  0  0  0
  2  1  1  6
  1 26  1  0
  1 27  1  0
  1 28  1  0
  2  3  1  0
  2  4  1  0
  2 25  1  0
  3 29  1  0
  3 30  1  0
  3 31  1  0
  5  4  1  1
  4 32  1  0
  4 33  1  0
  5  6  1  0
  5 17  1  0
  5 18  1  0
  6  7  1  0
  6 34  1  0
  6 35  1  0
  7  8  1  1
  7  9  1  0
  7 10  1  0
  8 36  1  0
  8 37  1  0
  8 38  1  0
  9 39  1  0
  9 40  1  0
  9 41  1  0
 10 11  1  0
 10 17  2  0
 11 12  1  0
 11 13  2  0
 13 14  1  0
 13 42  1  0
 14 15  1  0
 14 16  2  0
 15 43  1  0
 16 17  1  0
 16 44  1  0
 18 19  2  0
 18 25  1  0
 19 20  1  0
 19 45  1  0
 20 21  1  0
 20 22  2  0
 21 46  1  0
 22 23  1  0
 22 47  1  0
 23 24  1  0
 23 25  2  0
M  END

