
     RDKit          3D

 62 64  0  0  0  0  0  0  0  0999 V2000
    4.6532    4.6256   -0.0709 C   0  0  0  0  0  0  0  0  0  0  0  0
    3.6739    3.6651    0.6060 C   0  0  0  0  0  0  0  0  0  0  0  0
    4.2953    2.4574    1.0939 N   0  0  0  0  0  0  0  0  0  0  0  0
    5.3241    2.5362    2.1166 C   0  0  0  0  0  0  0  0  0  0  0  0
    5.7166    1.0683    2.3022 C   0  0  0  0  0  0  0  0  0  0  0  0
    4.3797    0.3192    2.1442 C   0  0  0  0  0  0  0  0  0  0  0  0
    3.4747    1.2552    1.2983 C   0  0  1  0  0  0  0  0  0  0  0  0
    3.2560    0.8037    0.3100 H   0  0  0  0  0  0  0  0  0  0  0  0
    2.0933    1.4910    1.9514 C   0  0  0  0  0  0  0  0  0  0  0  0
    2.1342    2.1424    3.2504 N   0  0  0  0  0  0  0  0  0  0  0  0
    1.8440    1.5028    4.4242 C   0  0  0  0  0  0  0  0  0  0  0  0
    1.6041    0.3066    4.4826 O   0  0  0  0  0  0  0  0  0  0  0  0
    1.8120    2.4003    5.6619 C   0  0  0  0  0  0  0  0  0  0  0  0
    2.3007    1.6729    6.9173 C   0  0  0  0  0  0  0  0  0  0  0  0
    2.0183    2.4090    8.2422 C   0  0  1  0  0  0  0  0  0  0  0  0
    2.3282    1.5174    9.4665 C   0  0  0  0  0  0  0  0  0  0  0  0
    3.8361    1.4353    9.7663 C   0  0  0  0  0  0  0  0  0  0  0  0
    4.4716    2.7429    9.9606 N   0  0  0  0  0  0  0  0  0  0  0  0
    4.2013    3.4174   11.2448 C   0  0  1  0  0  0  0  0  0  0  0  0
    4.5596    2.5152   12.4478 C   0  0  0  0  0  0  0  0  0  0  0  0
    6.0347    2.1156   12.5042 C   0  0  0  0  0  0  0  0  0  0  0  0
    7.1512    3.5580   12.6976 S   0  0  0  0  0  0  0  0  0  0  0  0
    6.5034    4.5749   11.3154 C   0  0  0  0  0  0  0  0  0  0  0  0
    4.9843    4.7442   11.3691 C   0  0  0  0  0  0  0  0  0  0  0  0
    4.2608    3.5398    8.7488 C   0  0  0  0  0  0  0  0  0  0  0  0
    2.7775    3.7483    8.3918 C   0  0  0  0  0  0  0  0  0  0  0  0
    4.1135    5.4809   -0.5075 H   0  0  0  0  0  0  0  0  0  0  0  0
    5.2021    4.1102   -0.8748 H   0  0  0  0  0  0  0  0  0  0  0  0
    5.3917    5.0308    0.6386 H   0  0  0  0  0  0  0  0  0  0  0  0
    2.9066    3.3725   -0.1313 H   0  0  0  0  0  0  0  0  0  0  0  0
    3.1253    4.2282    1.4034 H   0  0  0  0  0  0  0  0  0  0  0  0
    4.9584    2.9732    3.0764 H   0  0  0  0  0  0  0  0  0  0  0  0
    6.1715    3.1581    1.7852 H   0  0  0  0  0  0  0  0  0  0  0  0
    6.2065    0.8740    3.2685 H   0  0  0  0  0  0  0  0  0  0  0  0
    6.4198    0.7797    1.5049 H   0  0  0  0  0  0  0  0  0  0  0  0
    3.9144    0.1302    3.1228 H   0  0  0  0  0  0  0  0  0  0  0  0
    4.5067   -0.6616    1.6625 H   0  0  0  0  0  0  0  0  0  0  0  0
    1.4574    2.0858    1.2740 H   0  0  0  0  0  0  0  0  0  0  0  0
    1.5978    0.5196    2.0964 H   0  0  0  0  0  0  0  0  0  0  0  0
    2.3209    3.1372    3.2797 H   0  0  0  0  0  0  0  0  0  0  0  0
    0.7582    2.7066    5.8014 H   0  0  0  0  0  0  0  0  0  0  0  0
    2.3810    3.3261    5.4753 H   0  0  0  0  0  0  0  0  0  0  0  0
    3.3771    1.4544    6.8085 H   0  0  0  0  0  0  0  0  0  0  0  0
    1.8010    0.6917    6.9382 H   0  0  0  0  0  0  0  0  0  0  0  0
    0.9349    2.6295    8.2516 H   0  0  0  0  0  0  0  0  0  0  0  0
    1.9245    0.5028    9.3076 H   0  0  0  0  0  0  0  0  0  0  0  0
    1.8053    1.9226   10.3505 H   0  0  0  0  0  0  0  0  0  0  0  0
    4.3524    0.9426    8.9234 H   0  0  0  0  0  0  0  0  0  0  0  0
    4.0145    0.7907   10.6374 H   0  0  0  0  0  0  0  0  0  0  0  0
    3.1251    3.6765   11.3564 H   0  0  0  0  0  0  0  0  0  0  0  0
    3.9352    1.6073   12.4524 H   0  0  0  0  0  0  0  0  0  0  0  0
    4.2986    3.0649   13.3668 H   0  0  0  0  0  0  0  0  0  0  0  0
    6.3235    1.5548   11.6020 H   0  0  0  0  0  0  0  0  0  0  0  0
    6.2340    1.4769   13.3784 H   0  0  0  0  0  0  0  0  0  0  0  0
    6.8147    4.1245   10.3603 H   0  0  0  0  0  0  0  0  0  0  0  0
    7.0090    5.5482   11.4113 H   0  0  0  0  0  0  0  0  0  0  0  0
    4.6683    5.4570   10.5903 H   0  0  0  0  0  0  0  0  0  0  0  0
    4.7067    5.2062   12.3305 H   0  0  0  0  0  0  0  0  0  0  0  0
    4.7674    3.0132    7.9201 H   0  0  0  0  0  0  0  0  0  0  0  0
    4.7695    4.5095    8.8352 H   0  0  0  0  0  0  0  0  0  0  0  0
    2.6985    4.3518    7.4717 H   0  0  0  0  0  0  0  0  0  0  0  0
    2.2956    4.3469    9.1844 H   0  0  0  0  0  0  0  0  0  0  0  0
  1  2  1  0
  1 27  1  0
  1 28  1  0
  1 29  1  0
  2  3  1  0
  2 30  1  0
  2 31  1  0
  3  4  1  0
  3  7  1  0
  4  5  1  0
  4 32  1  0
  4 33  1  0
  5  6  1  0
  5 34  1  0
  5 35  1  0
  6  7  1  0
  6 36  1  0
  6 37  1  0
  7  8  1  6
  7  9  1  0
  9 10  1  0
  9 38  1  0
  9 39  1  0
 10 11  1  0
 10 40  1  0
 11 12  2  0
 11 13  1  0
 13 14  1  0
 13 41  1  0
 13 42  1  0
 14 15  1  0
 14 43  1  0
 14 44  1  0
 15 16  1  0
 15 26  1  0
 15 45  1  6
 16 17  1  0
 16 46  1  0
 16 47  1  0
 17 18  1  0
 17 48  1  0
 17 49  1  0
 18 19  1  0
 18 25  1  0
 19 20  1  0
 19 24  1  0
 19 50  1  6
 20 21  1  0
 20 51  1  0
 20 52  1  0
 21 22  1  0
 21 53  1  0
 21 54  1  0
 22 23  1  0
 23 24  1  0
 23 55  1  0
 23 56  1  0
 24 57  1  0
 24 58  1  0
 25 26  1  0
 25 59  1  0
 25 60  1  0
 26 61  1  0
 26 62  1  0
M  END

