
     RDKit          3D

 29 29  0  0  0  0  0  0  0  0999 V2000
    1.3532    0.8533   -0.4415 C   0  0  0  0  0  0  0  0  0  0  0  0
    2.5407   -0.0120   -0.0220 C   0  0  0  0  0  0  0  0  0  0  0  0
    2.9947    0.2328    1.4166 C   0  0  1  0  0  0  0  0  0  0  0  0
    4.1190   -0.7328    1.8211 C   0  0  0  0  0  0  0  0  0  0  0  0
    4.6681   -0.4642    3.1511 N   0  0  0  0  0  0  0  0  0  0  0  0
    4.2963   -1.2852    4.1733 C   0  0  0  0  0  0  0  0  0  0  0  0
    3.5301   -2.2294    4.0551 O   0  0  0  0  0  0  0  0  0  0  0  0
    4.8714   -1.0208    5.5792 C   0  0  1  0  0  0  0  0  0  0  0  0
    6.2260   -1.1519    5.6037 F   0  0  0  0  0  0  0  0  0  0  0  0
    4.5703    0.2348    6.0139 F   0  0  0  0  0  0  0  0  0  0  0  0
    5.5631    0.6925    3.2682 C   0  0  0  0  0  0  0  0  0  0  0  0
    4.8510    2.0455    3.4693 C   0  0  0  0  0  0  0  0  0  0  0  0
    3.4580    2.1192    2.8349 C   0  0  0  0  0  0  0  0  0  0  0  0
    3.4005    1.5906    1.5231 O   0  0  0  0  0  0  0  0  0  0  0  0
    1.0776    0.6695   -1.4917 H   0  0  0  0  0  0  0  0  0  0  0  0
    1.5964    1.9203   -0.3307 H   0  0  0  0  0  0  0  0  0  0  0  0
    0.4660    0.6433    0.1790 H   0  0  0  0  0  0  0  0  0  0  0  0
    3.3995    0.1790   -0.6896 H   0  0  0  0  0  0  0  0  0  0  0  0
    2.2915   -1.0818   -0.1286 H   0  0  0  0  0  0  0  0  0  0  0  0
    2.1389    0.0611    2.1020 H   0  0  0  0  0  0  0  0  0  0  0  0
    4.9415   -0.6559    1.0899 H   0  0  0  0  0  0  0  0  0  0  0  0
    3.7372   -1.7621    1.8189 H   0  0  0  0  0  0  0  0  0  0  0  0
    4.4282   -1.7559    6.2685 H   0  0  0  0  0  0  0  0  0  0  0  0
    6.1401    0.7231    2.3315 H   0  0  0  0  0  0  0  0  0  0  0  0
    6.2876    0.5184    4.0718 H   0  0  0  0  0  0  0  0  0  0  0  0
    5.4987    2.8320    3.0476 H   0  0  0  0  0  0  0  0  0  0  0  0
    4.7423    2.2595    4.5443 H   0  0  0  0  0  0  0  0  0  0  0  0
    3.1394    3.1736    2.7785 H   0  0  0  0  0  0  0  0  0  0  0  0
    2.7287    1.5947    3.4809 H   0  0  0  0  0  0  0  0  0  0  0  0
  1  2  1  0
  1 15  1  0
  1 16  1  0
  1 17  1  0
  2  3  1  0
  2 18  1  0
  2 19  1  0
  3  4  1  0
  3 14  1  0
  3 20  1  1
  4  5  1  0
  4 21  1  0
  4 22  1  0
  5  6  1  0
  5 11  1  0
  6  7  2  0
  6  8  1  0
  8  9  1  0
  8 10  1  0
  8 23  1  1
 11 12  1  0
 11 24  1  0
 11 25  1  0
 12 13  1  0
 12 26  1  0
 12 27  1  0
 13 14  1  0
 13 28  1  0
 13 29  1  0
M  END

