
     RDKit          3D

 40 42  0  0  0  0  0  0  0  0999 V2000
    3.7138    1.1100   -0.4829 N   0  0  0  0  0  0  0  0  0  0  0  0
    2.9271    0.5973    0.5057 C   0  0  0  0  0  0  0  0  0  0  0  0
    1.7444    0.8682    0.6093 O   0  0  0  0  0  0  0  0  0  0  0  0
    3.6494   -0.3073    1.5061 C   0  0  1  0  0  0  0  0  0  0  0  0
    4.5712   -0.7131    1.0549 H   0  0  0  0  0  0  0  0  0  0  0  0
    4.0134    0.4308    2.8160 C   0  0  0  0  0  0  0  0  0  0  0  0
    4.2092   -0.7087    3.8193 C   0  0  0  0  0  0  0  0  0  0  0  0
    3.2662   -1.7242    3.3556 N   0  0  0  0  0  0  0  0  0  0  0  0
    2.7930   -2.6833    4.2185 C   0  0  0  0  0  0  0  0  0  0  0  0
    3.1967   -2.7754    5.3760 O   0  0  0  0  0  0  0  0  0  0  0  0
    1.8181   -3.5134    3.7059 N   0  0  0  0  0  0  0  0  0  0  0  0
    1.3836   -4.6625    4.4739 C   0  0  0  0  0  0  0  0  0  0  0  0
    2.3289   -5.8527    4.4046 C   0  0  0  0  0  0  0  0  0  0  0  0
    3.2617   -6.0525    5.4335 C   0  0  0  0  0  0  0  0  0  0  0  0
    4.1096   -7.1597    5.4220 C   0  0  0  0  0  0  0  0  0  0  0  0
    3.9983   -8.0596    4.3609 C   0  0  0  0  0  0  0  0  0  0  0  0
    3.1514   -7.8738    3.3500 N   0  0  0  0  0  0  0  0  0  0  0  0
    2.3617   -6.8036    3.3621 C   0  0  0  0  0  0  0  0  0  0  0  0
    1.5168   -6.7166    2.2134 N   0  0  0  0  0  0  0  0  0  0  0  0
    1.1518   -7.7394    1.3895 C   0  0  0  0  0  0  0  0  0  0  0  0
    0.4101   -7.2858    0.4014 N   0  0  0  0  0  0  0  0  0  0  0  0
    0.3494   -5.9508    0.6510 C   0  0  0  0  0  0  0  0  0  0  0  0
    1.0033   -5.5576    1.7305 N   0  0  0  0  0  0  0  0  0  0  0  0
    2.7689   -1.4644    2.0062 C   0  0  0  0  0  0  0  0  0  0  0  0
    3.2965    1.7523   -1.1467 H   0  0  0  0  0  0  0  0  0  0  0  0
    4.6940    0.8807   -0.5725 H   0  0  0  0  0  0  0  0  0  0  0  0
    3.1611    1.0623    3.1146 H   0  0  0  0  0  0  0  0  0  0  0  0
    4.8991    1.0754    2.7138 H   0  0  0  0  0  0  0  0  0  0  0  0
    3.9884   -0.4249    4.8581 H   0  0  0  0  0  0  0  0  0  0  0  0
    5.2483   -1.0902    3.8019 H   0  0  0  0  0  0  0  0  0  0  0  0
    1.6736   -3.6040    2.7054 H   0  0  0  0  0  0  0  0  0  0  0  0
    0.3842   -4.9505    4.1227 H   0  0  0  0  0  0  0  0  0  0  0  0
    1.3031   -4.3517    5.5236 H   0  0  0  0  0  0  0  0  0  0  0  0
    3.3093   -5.3139    6.2367 H   0  0  0  0  0  0  0  0  0  0  0  0
    4.8354   -7.3260    6.2206 H   0  0  0  0  0  0  0  0  0  0  0  0
    4.6219   -8.9594    4.3161 H   0  0  0  0  0  0  0  0  0  0  0  0
    1.4635   -8.7649    1.5724 H   0  0  0  0  0  0  0  0  0  0  0  0
   -0.1889   -5.2430    0.0202 H   0  0  0  0  0  0  0  0  0  0  0  0
    1.7108   -1.1487    2.0081 H   0  0  0  0  0  0  0  0  0  0  0  0
    2.8619   -2.3513    1.3543 H   0  0  0  0  0  0  0  0  0  0  0  0
  1  2  1  0
  1 25  1  0
  1 26  1  0
  2  3  2  0
  2  4  1  0
  4  5  1  6
  4  6  1  0
  4 24  1  0
  6  7  1  0
  6 27  1  0
  6 28  1  0
  7  8  1  0
  7 29  1  0
  7 30  1  0
  8  9  1  0
  8 24  1  0
  9 10  2  0
  9 11  1  0
 11 12  1  0
 11 31  1  0
 12 13  1  0
 12 32  1  0
 12 33  1  0
 13 14  2  0
 13 18  1  0
 14 15  1  0
 14 34  1  0
 15 16  2  0
 15 35  1  0
 16 17  1  0
 16 36  1  0
 17 18  2  0
 18 19  1  0
 19 20  1  0
 19 23  1  0
 20 21  2  0
 20 37  1  0
 21 22  1  0
 22 23  2  0
 22 38  1  0
 24 39  1  0
 24 40  1  0
M  END

