
     RDKit          3D

 49 52  0  0  0  0  0  0  0  0999 V2000
    1.7915   -1.1997    0.5211 O   0  0  0  0  0  0  0  0  0  0  0  0
    2.2495   -0.0853    0.3296 C   0  0  0  0  0  0  0  0  0  0  0  0
    1.9387    1.0343    1.3411 C   0  0  0  0  0  0  0  0  0  0  0  0
    1.0970    2.1074    0.8058 N   0  0  0  0  0  0  0  0  0  0  0  0
   -0.1131    1.6995    0.3428 N   0  0  0  0  0  0  0  0  0  0  0  0
   -0.9543    2.5651   -0.0919 C   0  0  0  0  0  0  0  0  0  0  0  0
   -0.6645    3.9172   -0.0938 N   0  0  0  0  0  0  0  0  0  0  0  0
   -1.4767    4.8914   -0.5202 N   0  0  0  0  0  0  0  0  0  0  0  0
   -0.7822    6.0133   -0.3220 C   0  0  0  0  0  0  0  0  0  0  0  0
    0.4947    5.7692    0.2383 C   0  0  0  0  0  0  0  0  0  0  0  0
    0.5427    4.3915    0.3753 C   0  0  0  0  0  0  0  0  0  0  0  0
    1.5323    3.4407    0.8779 C   0  0  0  0  0  0  0  0  0  0  0  0
    2.6337    3.7504    1.3021 O   0  0  0  0  0  0  0  0  0  0  0  0
    3.0282    0.2199   -0.7566 N   0  0  0  0  0  0  0  0  0  0  0  0
    3.2700   -0.8096   -1.7673 C   0  0  0  0  0  0  0  0  0  0  0  0
    3.0103   -0.2373   -3.1701 C   0  0  0  0  0  0  0  0  0  0  0  0
    3.7503    0.9923   -3.4431 N   0  0  0  0  0  0  0  0  0  0  0  0
    5.1327    0.8150   -3.8730 C   0  0  0  0  0  0  0  0  0  0  0  0
    5.2443    0.4754   -5.3738 C   0  0  0  0  0  0  0  0  0  0  0  0
    6.6774    0.3249   -5.8323 C   0  0  0  0  0  0  0  0  0  0  0  0
    7.3362   -0.9132   -5.7540 C   0  0  0  0  0  0  0  0  0  0  0  0
    8.6741   -1.0437   -6.1372 C   0  0  0  0  0  0  0  0  0  0  0  0
    9.3809    0.0669   -6.6076 C   0  0  0  0  0  0  0  0  0  0  0  0
    8.7388    1.3060   -6.6924 C   0  0  0  0  0  0  0  0  0  0  0  0
    7.4012    1.4311   -6.3070 C   0  0  0  0  0  0  0  0  0  0  0  0
    3.5152    1.9786   -2.3975 C   0  0  0  0  0  0  0  0  0  0  0  0
    3.7863    1.4488   -0.9781 C   0  0  0  0  0  0  0  0  0  0  0  0
    2.8439    1.5105    1.7377 H   0  0  0  0  0  0  0  0  0  0  0  0
    1.3995    0.5379    2.1586 H   0  0  0  0  0  0  0  0  0  0  0  0
   -1.9317    2.2618   -0.4714 H   0  0  0  0  0  0  0  0  0  0  0  0
   -1.2251    6.9720   -0.5908 H   0  0  0  0  0  0  0  0  0  0  0  0
    1.2714    6.4797    0.5068 H   0  0  0  0  0  0  0  0  0  0  0  0
    2.6113   -1.6591   -1.5480 H   0  0  0  0  0  0  0  0  0  0  0  0
    4.3148   -1.1659   -1.6832 H   0  0  0  0  0  0  0  0  0  0  0  0
    1.9297   -0.0265   -3.2660 H   0  0  0  0  0  0  0  0  0  0  0  0
    3.2561   -0.9944   -3.9307 H   0  0  0  0  0  0  0  0  0  0  0  0
    5.6811    0.0427   -3.2916 H   0  0  0  0  0  0  0  0  0  0  0  0
    5.6719    1.7591   -3.6938 H   0  0  0  0  0  0  0  0  0  0  0  0
    4.7376    1.2728   -5.9400 H   0  0  0  0  0  0  0  0  0  0  0  0
    4.6923   -0.4568   -5.5789 H   0  0  0  0  0  0  0  0  0  0  0  0
    6.7898   -1.7905   -5.3943 H   0  0  0  0  0  0  0  0  0  0  0  0
    9.1653   -2.0183   -6.0721 H   0  0  0  0  0  0  0  0  0  0  0  0
   10.4261   -0.0337   -6.9112 H   0  0  0  0  0  0  0  0  0  0  0  0
    9.2810    2.1794   -7.0645 H   0  0  0  0  0  0  0  0  0  0  0  0
    6.9054    2.4037   -6.3828 H   0  0  0  0  0  0  0  0  0  0  0  0
    2.4569    2.2963   -2.4485 H   0  0  0  0  0  0  0  0  0  0  0  0
    4.1329    2.8705   -2.5870 H   0  0  0  0  0  0  0  0  0  0  0  0
    3.5442    2.2117   -0.2291 H   0  0  0  0  0  0  0  0  0  0  0  0
    4.8664    1.2276   -0.8680 H   0  0  0  0  0  0  0  0  0  0  0  0
  1  2  2  0
  2  3  1  0
  2 14  1  0
  3  4  1  0
  3 28  1  0
  3 29  1  0
  4  5  1  0
  4 12  1  0
  5  6  2  0
  6  7  1  0
  6 30  1  0
  7  8  1  0
  7 11  1  0
  8  9  2  0
  9 10  1  0
  9 31  1  0
 10 11  2  0
 10 32  1  0
 11 12  1  0
 12 13  2  0
 14 15  1  0
 14 27  1  0
 15 16  1  0
 15 33  1  0
 15 34  1  0
 16 17  1  0
 16 35  1  0
 16 36  1  0
 17 18  1  0
 17 26  1  0
 18 19  1  0
 18 37  1  0
 18 38  1  0
 19 20  1  0
 19 39  1  0
 19 40  1  0
 20 21  2  0
 20 25  1  0
 21 22  1  0
 21 41  1  0
 22 23  2  0
 22 42  1  0
 23 24  1  0
 23 43  1  0
 24 25  2  0
 24 44  1  0
 25 45  1  0
 26 27  1  0
 26 46  1  0
 26 47  1  0
 27 48  1  0
 27 49  1  0
M  END

