
     RDKit          3D

 25 25  0  0  0  0  0  0  0  0999 V2000
    2.2507   -1.4443    1.6577 O   0  0  0  0  0  0  0  0  0  0  0  0
    2.7781   -0.6976    0.8628 C   0  0  0  0  0  0  0  0  0  0  0  0
    2.7651    0.6628    0.8652 N   0  0  0  0  0  0  0  0  0  0  0  0
    2.1290    1.5303    1.7784 C   0  0  0  0  0  0  0  0  0  0  0  0
    1.3672    1.0740    2.8671 C   0  0  0  0  0  0  0  0  0  0  0  0
    0.7640    1.9962    3.7248 C   0  0  0  0  0  0  0  0  0  0  0  0
    0.9156    3.3674    3.5060 C   0  0  0  0  0  0  0  0  0  0  0  0
    0.0883    4.6153    4.6841 Br  0  0  0  0  0  0  0  0  0  0  0  0
    1.6727    3.8306    2.4259 C   0  0  0  0  0  0  0  0  0  0  0  0
    2.2748    2.9122    1.5686 C   0  0  0  0  0  0  0  0  0  0  0  0
    3.5650   -1.3006   -0.3382 C   0  0  1  0  0  0  0  0  0  0  0  0
    4.5492   -0.4387   -0.7318 F   0  0  0  0  0  0  0  0  0  0  0  0
    4.1363   -2.4488    0.0444 F   0  0  0  0  0  0  0  0  0  0  0  0
    2.7119   -1.5582   -1.6133 C   0  0  1  0  0  0  0  0  0  0  0  0
    2.2239   -0.3640   -2.0238 F   0  0  0  0  0  0  0  0  0  0  0  0
    3.5250   -2.0448   -2.5667 F   0  0  0  0  0  0  0  0  0  0  0  0
    1.5095   -2.5308   -1.4746 C   0  0  1  0  0  0  0  0  0  0  0  0
    1.8991   -3.7010   -0.9796 F   0  0  0  0  0  0  0  0  0  0  0  0
    0.5783   -2.0017   -0.6807 F   0  0  0  0  0  0  0  0  0  0  0  0
    0.9770   -2.7283   -2.6807 F   0  0  0  0  0  0  0  0  0  0  0  0
    3.3031    1.1137    0.1327 H   0  0  0  0  0  0  0  0  0  0  0  0
    1.2526    0.0058    3.0372 H   0  0  0  0  0  0  0  0  0  0  0  0
    0.1728    1.6391    4.5697 H   0  0  0  0  0  0  0  0  0  0  0  0
    1.7920    4.9013    2.2538 H   0  0  0  0  0  0  0  0  0  0  0  0
    2.8659    3.2760    0.7231 H   0  0  0  0  0  0  0  0  0  0  0  0
  1  2  2  0
  2  3  1  0
  2 11  1  0
  3  4  1  0
  3 21  1  0
  4  5  2  0
  4 10  1  0
  5  6  1  0
  5 22  1  0
  6  7  2  0
  6 23  1  0
  7  8  1  0
  7  9  1  0
  9 10  2  0
  9 24  1  0
 10 25  1  0
 11 12  1  6
 11 13  1  0
 11 14  1  0
 14 15  1  6
 14 16  1  0
 14 17  1  0
 17 18  1  1
 17 19  1  0
 17 20  1  0
M  END

