
     RDKit          3D

 63 67  0  0  0  0  0  0  0  0999 V2000
    1.4379   -0.4596    0.4387 C   0  0  0  0  0  0  0  0  0  0  0  0
    2.9147   -0.2901    0.2105 C   0  0  0  0  0  0  0  0  0  0  0  0
    3.3606    0.9631    0.0188 N   0  0  0  0  0  0  0  0  0  0  0  0
    4.6605    1.1976   -0.1661 C   0  0  0  0  0  0  0  0  0  0  0  0
    5.0345    2.4980   -0.4807 N   0  0  0  0  0  0  0  0  0  0  0  0
    4.0315    3.5506   -0.2807 C   0  0  0  0  0  0  0  0  0  0  0  0
    4.7072    4.9223   -0.2054 C   0  0  0  0  0  0  0  0  0  0  0  0
    5.5768    5.2408   -1.4374 C   0  0  2  0  0  0  0  0  0  0  0  0
    4.7460    5.5849   -2.6822 C   0  0  0  0  0  0  0  0  0  0  0  0
    6.5477    4.0660   -1.6702 C   0  0  0  0  0  0  0  0  0  0  0  0
    5.8370    2.7123   -1.6954 C   0  0  0  0  0  0  0  0  0  0  0  0
    5.5990    0.1200   -0.0302 C   0  0  0  0  0  0  0  0  0  0  0  0
    7.0434    0.0491    0.0910 C   0  0  0  0  0  0  0  0  0  0  0  0
    7.9626    1.2339    0.2480 C   0  0  0  0  0  0  0  0  0  0  0  0
    7.4798   -1.2566    0.1602 C   0  0  0  0  0  0  0  0  0  0  0  0
    8.8879   -1.7087    0.4195 C   0  0  0  0  0  0  0  0  0  0  0  0
    9.5523   -1.1925    1.3084 O   0  0  0  0  0  0  0  0  0  0  0  0
    9.3787   -2.7482   -0.3399 N   0  0  0  0  0  0  0  0  0  0  0  0
   10.6943   -3.2919   -0.0228 C   0  0  0  0  0  0  0  0  0  0  0  0
   10.6750   -4.8130   -0.1490 C   0  0  0  0  0  0  0  0  0  0  0  0
   10.1960   -5.2351   -1.4654 N   0  0  0  0  0  0  0  0  0  0  0  0
   10.5149   -6.5321   -1.9137 C   0  0  0  0  0  0  0  0  0  0  0  0
    9.5546   -7.3805   -2.5037 C   0  0  0  0  0  0  0  0  0  0  0  0
    9.9104   -8.6463   -2.9799 C   0  0  0  0  0  0  0  0  0  0  0  0
   11.2207   -9.1124   -2.8698 C   0  0  0  0  0  0  0  0  0  0  0  0
   12.1806   -8.2829   -2.2783 C   0  0  0  0  0  0  0  0  0  0  0  0
   11.8396   -7.0151   -1.8129 C   0  0  0  0  0  0  0  0  0  0  0  0
    8.8907   -4.6806   -1.7865 C   0  0  0  0  0  0  0  0  0  0  0  0
    8.9032   -3.1564   -1.6562 C   0  0  0  0  0  0  0  0  0  0  0  0
    6.1657   -2.4320    0.1788 S   0  0  0  0  0  0  0  0  0  0  0  0
    4.9830   -1.1493    0.0880 C   0  0  0  0  0  0  0  0  0  0  0  0
    3.6759   -1.3830    0.1893 N   0  0  0  0  0  0  0  0  0  0  0  0
    0.8658    0.0316   -0.3637 H   0  0  0  0  0  0  0  0  0  0  0  0
    1.1449    0.0283    1.3833 H   0  0  0  0  0  0  0  0  0  0  0  0
    1.1781   -1.5244    0.4864 H   0  0  0  0  0  0  0  0  0  0  0  0
    3.4861    3.3360    0.6465 H   0  0  0  0  0  0  0  0  0  0  0  0
    3.2750    3.5223   -1.0892 H   0  0  0  0  0  0  0  0  0  0  0  0
    5.3404    4.9474    0.6981 H   0  0  0  0  0  0  0  0  0  0  0  0
    3.9316    5.6953   -0.0726 H   0  0  0  0  0  0  0  0  0  0  0  0
    6.1834    6.1318   -1.1987 H   0  0  0  0  0  0  0  0  0  0  0  0
    4.0983    4.7544   -3.0051 H   0  0  0  0  0  0  0  0  0  0  0  0
    5.3989    5.8416   -3.5324 H   0  0  0  0  0  0  0  0  0  0  0  0
    4.0932    6.4517   -2.4901 H   0  0  0  0  0  0  0  0  0  0  0  0
    7.2999    4.0536   -0.8640 H   0  0  0  0  0  0  0  0  0  0  0  0
    7.0963    4.2002   -2.6179 H   0  0  0  0  0  0  0  0  0  0  0  0
    6.5616    1.8987   -1.8071 H   0  0  0  0  0  0  0  0  0  0  0  0
    5.1681    2.6539   -2.5795 H   0  0  0  0  0  0  0  0  0  0  0  0
    7.4071    2.0987    0.6338 H   0  0  0  0  0  0  0  0  0  0  0  0
    8.4267    1.5353   -0.7061 H   0  0  0  0  0  0  0  0  0  0  0  0
    8.7719    0.9828    0.9445 H   0  0  0  0  0  0  0  0  0  0  0  0
   10.9586   -2.9825    0.9957 H   0  0  0  0  0  0  0  0  0  0  0  0
   11.4501   -2.8722   -0.7142 H   0  0  0  0  0  0  0  0  0  0  0  0
   10.0289   -5.2326    0.6524 H   0  0  0  0  0  0  0  0  0  0  0  0
   11.6893   -5.1944    0.0202 H   0  0  0  0  0  0  0  0  0  0  0  0
    8.5141   -7.0660   -2.5837 H   0  0  0  0  0  0  0  0  0  0  0  0
    9.1406   -9.2782   -3.4315 H   0  0  0  0  0  0  0  0  0  0  0  0
   11.4929  -10.1039   -3.2385 H   0  0  0  0  0  0  0  0  0  0  0  0
   13.2165   -8.6213   -2.1896 H   0  0  0  0  0  0  0  0  0  0  0  0
   12.6183   -6.3782   -1.3895 H   0  0  0  0  0  0  0  0  0  0  0  0
    8.0891   -5.0934   -1.1354 H   0  0  0  0  0  0  0  0  0  0  0  0
    8.6366   -4.9331   -2.8260 H   0  0  0  0  0  0  0  0  0  0  0  0
    7.8986   -2.7594   -1.8405 H   0  0  0  0  0  0  0  0  0  0  0  0
    9.5802   -2.7412   -2.4280 H   0  0  0  0  0  0  0  0  0  0  0  0
  1  2  1  0
  1 33  1  0
  1 34  1  0
  1 35  1  0
  2  3  2  0
  2 32  1  0
  3  4  1  0
  4  5  1  0
  4 12  2  0
  5  6  1  0
  5 11  1  0
  6  7  1  0
  6 36  1  0
  6 37  1  0
  7  8  1  0
  7 38  1  0
  7 39  1  0
  8  9  1  0
  8 10  1  0
  8 40  1  1
  9 41  1  0
  9 42  1  0
  9 43  1  0
 10 11  1  0
 10 44  1  0
 10 45  1  0
 11 46  1  0
 11 47  1  0
 12 13  1  0
 12 31  1  0
 13 14  1  0
 13 15  2  0
 14 48  1  0
 14 49  1  0
 14 50  1  0
 15 16  1  0
 15 30  1  0
 16 17  2  0
 16 18  1  0
 18 19  1  0
 18 29  1  0
 19 20  1  0
 19 51  1  0
 19 52  1  0
 20 21  1  0
 20 53  1  0
 20 54  1  0
 21 22  1  0
 21 28  1  0
 22 23  2  0
 22 27  1  0
 23 24  1  0
 23 55  1  0
 24 25  2  0
 24 56  1  0
 25 26  1  0
 25 57  1  0
 26 27  2  0
 26 58  1  0
 27 59  1  0
 28 29  1  0
 28 60  1  0
 28 61  1  0
 29 62  1  0
 29 63  1  0
 30 31  1  0
 31 32  2  0
M  END

