
     RDKit          3D

 59 61  0  0  0  0  0  0  0  0999 V2000
    8.6877   -1.0242   -1.4947 C   0  0  0  0  0  0  0  0  0  0  0  0
    7.2692   -0.4313   -1.4153 C   0  0  1  0  0  0  0  0  0  0  0  0
    6.7328   -0.6516    0.0183 C   0  0  0  0  0  0  0  0  0  0  0  0
    7.3631    1.0856   -1.7015 C   0  0  0  0  0  0  0  0  0  0  0  0
    6.3072   -1.0836   -2.4275 C   0  0  0  0  0  0  0  0  0  0  0  0
    6.7025   -2.1004   -3.3140 C   0  0  0  0  0  0  0  0  0  0  0  0
    5.8056   -2.6681   -4.2223 C   0  0  0  0  0  0  0  0  0  0  0  0
    4.4715   -2.2436   -4.2833 C   0  0  0  0  0  0  0  0  0  0  0  0
    3.5012   -2.8606   -5.2696 C   0  0  0  0  0  0  0  0  0  0  0  0
    3.2898   -4.2818   -5.0292 N   0  0  0  0  0  0  0  0  0  0  0  0
    3.3659   -5.2341   -6.0002 C   0  0  0  0  0  0  0  0  0  0  0  0
    3.5869   -4.9566   -7.1767 O   0  0  0  0  0  0  0  0  0  0  0  0
    3.1952   -6.6497   -5.5110 C   0  0  0  0  0  0  0  0  0  0  0  0
    3.7935   -7.0750   -4.3154 C   0  0  0  0  0  0  0  0  0  0  0  0
    3.7002   -8.4002   -3.8838 C   0  0  0  0  0  0  0  0  0  0  0  0
    2.9860   -9.3198   -4.6538 C   0  0  0  0  0  0  0  0  0  0  0  0
    2.3733   -8.9232   -5.8453 C   0  0  0  0  0  0  0  0  0  0  0  0
    2.4795   -7.5955   -6.2836 C   0  0  0  0  0  0  0  0  0  0  0  0
    1.8840   -7.1407   -7.4099 O   0  0  0  0  0  0  0  0  0  0  0  0
    1.6048   -7.9890   -8.5060 C   0  0  0  0  0  0  0  0  0  0  0  0
    1.7797   -7.2405   -9.8348 C   0  0  0  0  0  0  0  0  0  0  0  0
    1.3175   -7.7366  -10.8485 O   0  0  0  0  0  0  0  0  0  0  0  0
    2.4948   -6.0848   -9.7424 N   0  0  0  0  0  0  0  0  0  0  0  0
    2.8465   -5.2032  -10.7799 C   0  0  0  0  0  0  0  0  0  0  0  0
    2.5042   -5.4142  -12.1280 C   0  0  0  0  0  0  0  0  0  0  0  0
    2.8924   -4.4888  -13.1006 C   0  0  0  0  0  0  0  0  0  0  0  0
    3.6209   -3.3531  -12.7411 C   0  0  0  0  0  0  0  0  0  0  0  0
    4.2073   -1.9503  -14.2319 I   0  0  0  0  0  0  0  0  0  0  0  0
    3.9676   -3.1327  -11.4046 C   0  0  0  0  0  0  0  0  0  0  0  0
    3.5811   -4.0533  -10.4318 C   0  0  0  0  0  0  0  0  0  0  0  0
    4.0672   -1.2320   -3.4023 C   0  0  0  0  0  0  0  0  0  0  0  0
    4.9664   -0.6650   -2.4973 C   0  0  0  0  0  0  0  0  0  0  0  0
    9.3392   -0.5310   -0.7564 H   0  0  0  0  0  0  0  0  0  0  0  0
    9.1416   -0.8744   -2.4868 H   0  0  0  0  0  0  0  0  0  0  0  0
    8.6965   -2.1030   -1.2731 H   0  0  0  0  0  0  0  0  0  0  0  0
    7.4071   -0.1877    0.7568 H   0  0  0  0  0  0  0  0  0  0  0  0
    6.6596   -1.7257    0.2523 H   0  0  0  0  0  0  0  0  0  0  0  0
    5.7342   -0.2098    0.1565 H   0  0  0  0  0  0  0  0  0  0  0  0
    8.0459    1.5705   -0.9847 H   0  0  0  0  0  0  0  0  0  0  0  0
    6.3843    1.5818   -1.6163 H   0  0  0  0  0  0  0  0  0  0  0  0
    7.7464    1.2732   -2.7171 H   0  0  0  0  0  0  0  0  0  0  0  0
    7.7306   -2.4630   -3.3107 H   0  0  0  0  0  0  0  0  0  0  0  0
    6.1548   -3.4529   -4.8999 H   0  0  0  0  0  0  0  0  0  0  0  0
    3.8745   -2.7775   -6.3005 H   0  0  0  0  0  0  0  0  0  0  0  0
    2.5382   -2.3223   -5.2304 H   0  0  0  0  0  0  0  0  0  0  0  0
    3.0298   -4.5683   -4.0930 H   0  0  0  0  0  0  0  0  0  0  0  0
    4.3763   -6.3599   -3.7290 H   0  0  0  0  0  0  0  0  0  0  0  0
    4.1875   -8.7110   -2.9574 H   0  0  0  0  0  0  0  0  0  0  0  0
    2.8963  -10.3588   -4.3266 H   0  0  0  0  0  0  0  0  0  0  0  0
    1.7967   -9.6441   -6.4267 H   0  0  0  0  0  0  0  0  0  0  0  0
    0.5696   -8.3673   -8.4719 H   0  0  0  0  0  0  0  0  0  0  0  0
    2.2856   -8.8584   -8.5255 H   0  0  0  0  0  0  0  0  0  0  0  0
    2.8093   -5.8147   -8.8036 H   0  0  0  0  0  0  0  0  0  0  0  0
    1.9369   -6.3005  -12.4033 H   0  0  0  0  0  0  0  0  0  0  0  0
    2.6194   -4.6655  -14.1427 H   0  0  0  0  0  0  0  0  0  0  0  0
    4.5372   -2.2479  -11.1149 H   0  0  0  0  0  0  0  0  0  0  0  0
    3.8468   -3.8888   -9.3853 H   0  0  0  0  0  0  0  0  0  0  0  0
    3.0324   -0.8769   -3.4254 H   0  0  0  0  0  0  0  0  0  0  0  0
    4.6059    0.1226   -1.8315 H   0  0  0  0  0  0  0  0  0  0  0  0
  2  1  1  1
  1 33  1  0
  1 34  1  0
  1 35  1  0
  2  3  1  0
  2  4  1  0
  2  5  1  0
  3 36  1  0
  3 37  1  0
  3 38  1  0
  4 39  1  0
  4 40  1  0
  4 41  1  0
  5  6  2  0
  5 32  1  0
  6  7  1  0
  6 42  1  0
  7  8  2  0
  7 43  1  0
  8  9  1  0
  8 31  1  0
  9 10  1  0
  9 44  1  0
  9 45  1  0
 10 11  1  0
 10 46  1  0
 11 12  2  0
 11 13  1  0
 13 14  2  0
 13 18  1  0
 14 15  1  0
 14 47  1  0
 15 16  2  0
 15 48  1  0
 16 17  1  0
 16 49  1  0
 17 18  2  0
 17 50  1  0
 18 19  1  0
 19 20  1  0
 20 21  1  0
 20 51  1  0
 20 52  1  0
 21 22  2  0
 21 23  1  0
 23 24  1  0
 23 53  1  0
 24 25  2  0
 24 30  1  0
 25 26  1  0
 25 54  1  0
 26 27  2  0
 26 55  1  0
 27 28  1  0
 27 29  1  0
 29 30  2  0
 29 56  1  0
 30 57  1  0
 31 32  2  0
 31 58  1  0
 32 59  1  0
M  END

