
     RDKit          3D

 71 73  0  0  0  0  0  0  0  0999 V2000
    4.0668   -4.9215    5.7547 C   0  0  0  0  0  0  0  0  0  0  0  0
    4.4006   -4.2673    4.4973 N   0  0  0  0  0  0  0  0  0  0  0  0
    3.8548   -2.9263    4.2892 C   0  0  1  0  0  0  0  0  0  0  0  0
    4.1980   -1.9657    5.4355 C   0  0  0  0  0  0  0  0  0  0  0  0
    4.3862   -2.3180    2.9782 C   0  0  0  0  0  0  0  0  0  0  0  0
    3.8423   -1.3495    2.4635 O   0  0  0  0  0  0  0  0  0  0  0  0
    5.4996   -2.9193    2.4796 N   0  0  0  0  0  0  0  0  0  0  0  0
    6.2198   -2.3794    1.3372 C   0  0  1  0  0  0  0  0  0  0  0  0
    7.1808   -1.2867    1.8572 C   0  0  0  0  0  0  0  0  0  0  0  0
    8.0849   -1.5688    2.6375 O   0  0  0  0  0  0  0  0  0  0  0  0
    6.9480    0.0028    1.4768 N   0  0  0  0  0  0  0  0  0  0  0  0
    5.9405    0.4959    0.5238 C   0  0  0  0  0  0  0  0  0  0  0  0
    6.4793    1.8741    0.1330 C   0  0  0  0  0  0  0  0  0  0  0  0
    7.1963    2.3775    1.3983 C   0  0  2  0  0  0  0  0  0  0  0  0
    7.7455    1.0882    2.0649 C   0  0  1  0  0  0  0  0  0  0  0  0
    7.4870    1.2892    3.5693 C   0  0  1  0  0  0  0  0  0  0  0  0
    8.5774    2.0591    4.0405 O   0  0  0  0  0  0  0  0  0  0  0  0
    8.6524    2.2174    5.4422 C   0  0  0  0  0  0  0  0  0  0  0  0
    9.9815    2.8284    5.8186 C   0  0  0  0  0  0  0  0  0  0  0  0
   10.0614    3.8276    6.7978 C   0  0  0  0  0  0  0  0  0  0  0  0
   11.2930    4.3666    7.1813 C   0  0  0  0  0  0  0  0  0  0  0  0
   12.4494    3.9009    6.5625 C   0  0  0  0  0  0  0  0  0  0  0  0
   13.6370    4.4158    6.9182 F   0  0  0  0  0  0  0  0  0  0  0  0
   12.4034    2.9155    5.5773 C   0  0  0  0  0  0  0  0  0  0  0  0
   11.1666    2.3825    5.2124 C   0  0  0  0  0  0  0  0  0  0  0  0
    6.1701    2.0711    3.5787 C   0  0  0  0  0  0  0  0  0  0  0  0
    6.2982    2.9461    2.4129 N   0  0  0  0  0  0  0  0  0  0  0  0
    5.9048    4.2617    2.4959 C   0  0  0  0  0  0  0  0  0  0  0  0
    6.3085    5.1747    1.3477 C   0  0  0  0  0  0  0  0  0  0  0  0
    5.2763    4.6808    3.4549 O   0  0  0  0  0  0  0  0  0  0  0  0
    6.9284   -3.4921    0.4977 C   0  0  1  0  0  0  0  0  0  0  0  0
    5.8405   -4.3573   -0.1669 C   0  0  0  0  0  0  0  0  0  0  0  0
    7.7776   -2.8199   -0.5982 C   0  0  0  0  0  0  0  0  0  0  0  0
    7.8362   -4.3869    1.3647 C   0  0  0  0  0  0  0  0  0  0  0  0
    4.4108   -5.9665    5.7180 H   0  0  0  0  0  0  0  0  0  0  0  0
    2.9805   -4.9287    5.9897 H   0  0  0  0  0  0  0  0  0  0  0  0
    4.5862   -4.4411    6.5975 H   0  0  0  0  0  0  0  0  0  0  0  0
    4.0951   -4.8615    3.7273 H   0  0  0  0  0  0  0  0  0  0  0  0
    2.7495   -2.9275    4.1759 H   0  0  0  0  0  0  0  0  0  0  0  0
    5.2868   -1.9350    5.6041 H   0  0  0  0  0  0  0  0  0  0  0  0
    3.7069   -2.2607    6.3743 H   0  0  0  0  0  0  0  0  0  0  0  0
    3.8493   -0.9565    5.1750 H   0  0  0  0  0  0  0  0  0  0  0  0
    5.9519   -3.5883    3.0994 H   0  0  0  0  0  0  0  0  0  0  0  0
    5.4530   -1.9219    0.7017 H   0  0  0  0  0  0  0  0  0  0  0  0
    4.9469    0.5462    0.9989 H   0  0  0  0  0  0  0  0  0  0  0  0
    5.8597   -0.1667   -0.3484 H   0  0  0  0  0  0  0  0  0  0  0  0
    5.6860    2.5541   -0.2063 H   0  0  0  0  0  0  0  0  0  0  0  0
    7.2156    1.7759   -0.6818 H   0  0  0  0  0  0  0  0  0  0  0  0
    8.0037    3.0841    1.1591 H   0  0  0  0  0  0  0  0  0  0  0  0
    8.8187    0.9180    1.8964 H   0  0  0  0  0  0  0  0  0  0  0  0
    7.4301    0.3290    4.1080 H   0  0  0  0  0  0  0  0  0  0  0  0
    8.5398    1.2258    5.9311 H   0  0  0  0  0  0  0  0  0  0  0  0
    7.8306    2.8542    5.8221 H   0  0  0  0  0  0  0  0  0  0  0  0
    9.1471    4.1985    7.2696 H   0  0  0  0  0  0  0  0  0  0  0  0
   11.3666    5.1464    7.9418 H   0  0  0  0  0  0  0  0  0  0  0  0
   13.3328    2.5802    5.1123 H   0  0  0  0  0  0  0  0  0  0  0  0
   11.1123    1.6152    4.4377 H   0  0  0  0  0  0  0  0  0  0  0  0
    6.0082    2.6830    4.4755 H   0  0  0  0  0  0  0  0  0  0  0  0
    5.3119    1.3819    3.4825 H   0  0  0  0  0  0  0  0  0  0  0  0
    6.0303    4.7692    0.3637 H   0  0  0  0  0  0  0  0  0  0  0  0
    7.3995    5.3344    1.3446 H   0  0  0  0  0  0  0  0  0  0  0  0
    5.8124    6.1411    1.4976 H   0  0  0  0  0  0  0  0  0  0  0  0
    5.2171   -3.7631   -0.8551 H   0  0  0  0  0  0  0  0  0  0  0  0
    5.1741   -4.8074    0.5847 H   0  0  0  0  0  0  0  0  0  0  0  0
    6.2975   -5.1751   -0.7469 H   0  0  0  0  0  0  0  0  0  0  0  0
    7.1719   -2.1424   -1.2232 H   0  0  0  0  0  0  0  0  0  0  0  0
    8.2105   -3.5817   -1.2659 H   0  0  0  0  0  0  0  0  0  0  0  0
    8.6120   -2.2432   -0.1702 H   0  0  0  0  0  0  0  0  0  0  0  0
    7.2540   -4.9690    2.0982 H   0  0  0  0  0  0  0  0  0  0  0  0
    8.5789   -3.7916    1.9123 H   0  0  0  0  0  0  0  0  0  0  0  0
    8.3618   -5.1158    0.7267 H   0  0  0  0  0  0  0  0  0  0  0  0
  1  2  1  0
  1 35  1  0
  1 36  1  0
  1 37  1  0
  2  3  1  0
  2 38  1  0
  3  4  1  0
  3  5  1  0
  3 39  1  6
  4 40  1  0
  4 41  1  0
  4 42  1  0
  5  6  2  0
  5  7  1  0
  7  8  1  0
  7 43  1  0
  8  9  1  0
  8 31  1  0
  8 44  1  6
  9 10  2  0
  9 11  1  0
 11 12  1  0
 11 15  1  0
 12 13  1  0
 12 45  1  0
 12 46  1  0
 13 14  1  0
 13 47  1  0
 13 48  1  0
 14 15  1  0
 14 27  1  0
 14 49  1  6
 15 16  1  0
 15 50  1  1
 16 17  1  0
 16 26  1  0
 16 51  1  1
 17 18  1  0
 18 19  1  0
 18 52  1  0
 18 53  1  0
 19 20  2  0
 19 25  1  0
 20 21  1  0
 20 54  1  0
 21 22  2  0
 21 55  1  0
 22 23  1  0
 22 24  1  0
 24 25  2  0
 24 56  1  0
 25 57  1  0
 26 27  1  0
 26 58  1  0
 26 59  1  0
 27 28  1  0
 28 29  1  0
 28 30  2  0
 29 60  1  0
 29 61  1  0
 29 62  1  0
 31 32  1  6
 31 33  1  0
 31 34  1  0
 32 63  1  0
 32 64  1  0
 32 65  1  0
 33 66  1  0
 33 67  1  0
 33 68  1  0
 34 69  1  0
 34 70  1  0
 34 71  1  0
M  END

