
     RDKit          3D

 53 55  0  0  0  0  0  0  0  0999 V2000
    5.2343    3.7932    4.8178 C   0  0  0  0  0  0  0  0  0  0  0  0
    4.7930    2.9549    3.6326 C   0  0  0  0  0  0  0  0  0  0  0  0
    4.3752    1.6845    4.0997 O   0  0  0  0  0  0  0  0  0  0  0  0
    3.8430    0.8465    3.1065 C   0  0  0  0  0  0  0  0  0  0  0  0
    4.8585    0.2192    2.1409 C   0  0  0  0  0  0  0  0  0  0  0  0
    4.5524   -0.0575    0.9919 O   0  0  0  0  0  0  0  0  0  0  0  0
    6.0995   -0.0364    2.6388 N   0  0  0  0  0  0  0  0  0  0  0  0
    7.1306   -0.8409    1.9893 C   0  0  0  0  0  0  0  0  0  0  0  0
    7.8356   -0.9782    3.3852 C   0  0  2  0  0  0  0  0  0  0  0  0
    6.6520   -0.1863    3.9911 C   0  0  0  0  0  0  0  0  0  0  0  0
    9.2090   -0.3234    3.5560 C   0  0  0  0  0  0  0  0  0  0  0  0
   10.3276   -1.1167    3.0402 N   0  0  0  0  0  0  0  0  0  0  0  0
   10.6395   -0.9393    1.6286 C   0  0  0  0  0  0  0  0  0  0  0  0
   10.2583   -2.5143    3.4834 C   0  0  1  0  0  0  0  0  0  0  0  0
   10.9466   -3.1034    2.8529 H   0  0  0  0  0  0  0  0  0  0  0  0
   10.7906   -2.7156    4.9257 C   0  0  0  0  0  0  0  0  0  0  0  0
   10.5369   -3.7322    5.5514 O   0  0  0  0  0  0  0  0  0  0  0  0
   11.5875   -1.7106    5.3694 N   0  0  0  0  0  0  0  0  0  0  0  0
   12.2696   -1.7229    6.6451 C   0  0  1  0  0  0  0  0  0  0  0  0
   13.8057   -1.7897    6.5663 C   0  0  0  0  0  0  0  0  0  0  0  0
   14.2371   -1.4534    7.9997 C   0  0  0  0  0  0  0  0  0  0  0  0
   13.2139   -0.3901    8.4906 C   0  0  0  0  0  0  0  0  0  0  0  0
   12.0146   -0.4687    7.5101 C   0  0  0  0  0  0  0  0  0  0  0  0
    8.8574   -3.1175    3.3270 C   0  0  0  0  0  0  0  0  0  0  0  0
    7.8632   -2.2883    3.9075 O   0  0  0  0  0  0  0  0  0  0  0  0
    5.5471    4.7952    4.4851 H   0  0  0  0  0  0  0  0  0  0  0  0
    6.0817    3.3225    5.3404 H   0  0  0  0  0  0  0  0  0  0  0  0
    4.4103    3.9056    5.5391 H   0  0  0  0  0  0  0  0  0  0  0  0
    5.6199    2.8470    2.9015 H   0  0  0  0  0  0  0  0  0  0  0  0
    3.9566    3.4501    3.0984 H   0  0  0  0  0  0  0  0  0  0  0  0
    3.0948    1.3628    2.4768 H   0  0  0  0  0  0  0  0  0  0  0  0
    3.3249    0.0223    3.6270 H   0  0  0  0  0  0  0  0  0  0  0  0
    7.6812   -0.3070    1.1982 H   0  0  0  0  0  0  0  0  0  0  0  0
    6.7460   -1.7903    1.5821 H   0  0  0  0  0  0  0  0  0  0  0  0
    6.9102    0.7591    4.4928 H   0  0  0  0  0  0  0  0  0  0  0  0
    6.0431   -0.8035    4.6706 H   0  0  0  0  0  0  0  0  0  0  0  0
    9.3578   -0.1786    4.6415 H   0  0  0  0  0  0  0  0  0  0  0  0
    9.2240    0.6725    3.0867 H   0  0  0  0  0  0  0  0  0  0  0  0
   10.7198    0.1352    1.4008 H   0  0  0  0  0  0  0  0  0  0  0  0
    9.9002   -1.3762    0.9260 H   0  0  0  0  0  0  0  0  0  0  0  0
   11.6160   -1.3992    1.4067 H   0  0  0  0  0  0  0  0  0  0  0  0
   11.7195   -0.9415    4.7151 H   0  0  0  0  0  0  0  0  0  0  0  0
   11.9019   -2.6201    7.1673 H   0  0  0  0  0  0  0  0  0  0  0  0
   14.1680   -1.0207    5.8589 H   0  0  0  0  0  0  0  0  0  0  0  0
   14.1709   -2.7654    6.2100 H   0  0  0  0  0  0  0  0  0  0  0  0
   15.2792   -1.1054    8.0648 H   0  0  0  0  0  0  0  0  0  0  0  0
   14.1653   -2.3601    8.6229 H   0  0  0  0  0  0  0  0  0  0  0  0
   13.6556    0.6185    8.4843 H   0  0  0  0  0  0  0  0  0  0  0  0
   12.9066   -0.5867    9.5291 H   0  0  0  0  0  0  0  0  0  0  0  0
   11.9953    0.4174    6.8519 H   0  0  0  0  0  0  0  0  0  0  0  0
   11.0379   -0.5101    8.0157 H   0  0  0  0  0  0  0  0  0  0  0  0
    8.8142   -4.0801    3.8522 H   0  0  0  0  0  0  0  0  0  0  0  0
    8.6379   -3.2836    2.2540 H   0  0  0  0  0  0  0  0  0  0  0  0
  1  2  1  0
  1 26  1  0
  1 27  1  0
  1 28  1  0
  2  3  1  0
  2 29  1  0
  2 30  1  0
  3  4  1  0
  4  5  1  0
  4 31  1  0
  4 32  1  0
  5  6  2  0
  5  7  1  0
  7  8  1  0
  7 10  1  0
  8  9  1  0
  8 33  1  0
  8 34  1  0
  9 10  1  0
  9 11  1  0
  9 25  1  1
 10 35  1  0
 10 36  1  0
 11 12  1  0
 11 37  1  0
 11 38  1  0
 12 13  1  0
 12 14  1  0
 13 39  1  0
 13 40  1  0
 13 41  1  0
 14 15  1  6
 14 16  1  0
 14 24  1  0
 16 17  2  0
 16 18  1  0
 18 19  1  0
 18 42  1  0
 19 20  1  0
 19 23  1  0
 19 43  1  1
 20 21  1  0
 20 44  1  0
 20 45  1  0
 21 22  1  0
 21 46  1  0
 21 47  1  0
 22 23  1  0
 22 48  1  0
 22 49  1  0
 23 50  1  0
 23 51  1  0
 24 25  1  0
 24 52  1  0
 24 53  1  0
M  END

