
     RDKit          3D

 26 27  0  0  0  0  0  0  0  0999 V2000
    0.8644   -0.1283    0.9730 C   0  0  0  0  0  0  0  0  0  0  0  0
    2.3391   -0.4356    1.1390 C   0  0  0  0  0  0  0  0  0  0  0  0
    3.0471    0.7930    1.2317 O   0  0  0  0  0  0  0  0  0  0  0  0
    4.3870    0.7430    1.3862 C   0  0  0  0  0  0  0  0  0  0  0  0
    5.1955   -0.3598    1.4695 C   0  0  0  0  0  0  0  0  0  0  0  0
    6.8912    0.0467    1.6704 S   0  0  0  0  0  0  0  0  0  0  0  0
    6.5038    1.7493    1.6398 C   0  0  0  0  0  0  0  0  0  0  0  0
    7.3786    2.8343    1.7593 C   0  0  0  0  0  0  0  0  0  0  0  0
    8.6899    2.6016    1.9161 F   0  0  0  0  0  0  0  0  0  0  0  0
    6.8996    4.1324    1.7174 C   0  0  0  0  0  0  0  0  0  0  0  0
    5.5159    4.3778    1.5558 C   0  0  0  0  0  0  0  0  0  0  0  0
    5.0254    5.8117    1.4751 C   0  0  0  0  0  0  0  0  0  0  0  0
    5.7717    6.7148    2.2606 O   0  0  0  0  0  0  0  0  0  0  0  0
    4.6297    3.3076    1.4452 C   0  0  0  0  0  0  0  0  0  0  0  0
    5.1203    1.9892    1.4812 C   0  0  0  0  0  0  0  0  0  0  0  0
    0.2877   -1.0630    0.8976 H   0  0  0  0  0  0  0  0  0  0  0  0
    0.6898    0.4625    0.0608 H   0  0  0  0  0  0  0  0  0  0  0  0
    0.4865    0.4449    1.8334 H   0  0  0  0  0  0  0  0  0  0  0  0
    2.7227   -1.0184    0.2797 H   0  0  0  0  0  0  0  0  0  0  0  0
    2.5199   -1.0354    2.0516 H   0  0  0  0  0  0  0  0  0  0  0  0
    4.9079   -1.4073    1.4244 H   0  0  0  0  0  0  0  0  0  0  0  0
    7.5968    4.9660    1.8173 H   0  0  0  0  0  0  0  0  0  0  0  0
    3.9443    5.8418    1.7178 H   0  0  0  0  0  0  0  0  0  0  0  0
    5.1210    6.1756    0.4369 H   0  0  0  0  0  0  0  0  0  0  0  0
    5.7344    6.4129    3.1787 H   0  0  0  0  0  0  0  0  0  0  0  0
    3.5562    3.4757    1.3325 H   0  0  0  0  0  0  0  0  0  0  0  0
  1  2  1  0
  1 16  1  0
  1 17  1  0
  1 18  1  0
  2  3  1  0
  2 19  1  0
  2 20  1  0
  3  4  1  0
  4  5  2  0
  4 15  1  0
  5  6  1  0
  5 21  1  0
  6  7  1  0
  7  8  1  0
  7 15  2  0
  8  9  1  0
  8 10  2  0
 10 11  1  0
 10 22  1  0
 11 12  1  0
 11 14  2  0
 12 13  1  0
 12 23  1  0
 12 24  1  0
 13 25  1  0
 14 15  1  0
 14 26  1  0
M  END

