
     RDKit          3D

 36 38  0  0  0  0  0  0  0  0999 V2000
    1.8805   -0.8608    0.7231 Cl  0  0  0  0  0  0  0  0  0  0  0  0
    2.8662   -1.1521   -0.7000 C   0  0  0  0  0  0  0  0  0  0  0  0
    2.3865   -0.7549   -1.9515 C   0  0  0  0  0  0  0  0  0  0  0  0
    3.1265   -1.0010   -3.0400 N   0  0  0  0  0  0  0  0  0  0  0  0
    4.2871   -1.6113   -2.8928 C   0  0  0  0  0  0  0  0  0  0  0  0
    4.7681   -2.0037   -1.6079 C   0  0  0  0  0  0  0  0  0  0  0  0
    5.9733   -2.6184   -1.4681 N   0  0  0  0  0  0  0  0  0  0  0  0
    6.5241   -3.1422   -0.2237 C   0  0  0  0  0  0  0  0  0  0  0  0
    6.8892   -4.6067   -0.3346 C   0  0  0  0  0  0  0  0  0  0  0  0
    8.2083   -5.0137   -0.5526 C   0  0  0  0  0  0  0  0  0  0  0  0
    8.5459   -6.3655   -0.6919 C   0  0  0  0  0  0  0  0  0  0  0  0
    7.5390   -7.3270   -0.6159 C   0  0  0  0  0  0  0  0  0  0  0  0
    6.2088   -6.9510   -0.3943 C   0  0  0  0  0  0  0  0  0  0  0  0
    5.8796   -5.5959   -0.2461 C   0  0  0  0  0  0  0  0  0  0  0  0
    4.6248   -5.1371   -0.0107 O   0  0  0  0  0  0  0  0  0  0  0  0
    3.5644   -6.0264    0.2813 C   0  0  1  0  0  0  0  0  0  0  0  0
    2.2870   -5.3276    0.7781 C   0  0  0  0  0  0  0  0  0  0  0  0
    1.4623   -6.3054   -0.1016 C   0  0  0  0  0  0  0  0  0  0  0  0
    2.7562   -6.6305   -0.8943 C   0  0  0  0  0  0  0  0  0  0  0  0
    4.0255   -1.7511   -0.5203 N   0  0  0  0  0  0  0  0  0  0  0  0
    1.4231   -0.2528   -2.0664 H   0  0  0  0  0  0  0  0  0  0  0  0
    4.8815   -1.8129   -3.7925 H   0  0  0  0  0  0  0  0  0  0  0  0
    6.4839   -2.8203   -2.3189 H   0  0  0  0  0  0  0  0  0  0  0  0
    5.7614   -2.9835    0.5489 H   0  0  0  0  0  0  0  0  0  0  0  0
    7.4218   -2.5652    0.0608 H   0  0  0  0  0  0  0  0  0  0  0  0
    8.9914   -4.2509   -0.6061 H   0  0  0  0  0  0  0  0  0  0  0  0
    9.5842   -6.6602   -0.8590 H   0  0  0  0  0  0  0  0  0  0  0  0
    7.7813   -8.3868   -0.7298 H   0  0  0  0  0  0  0  0  0  0  0  0
    5.4339   -7.7162   -0.3463 H   0  0  0  0  0  0  0  0  0  0  0  0
    3.9104   -6.8012    0.9880 H   0  0  0  0  0  0  0  0  0  0  0  0
    2.2498   -4.2940    0.4047 H   0  0  0  0  0  0  0  0  0  0  0  0
    2.1061   -5.3169    1.8633 H   0  0  0  0  0  0  0  0  0  0  0  0
    0.6219   -5.8807   -0.6693 H   0  0  0  0  0  0  0  0  0  0  0  0
    1.0930   -7.1722    0.4680 H   0  0  0  0  0  0  0  0  0  0  0  0
    2.8587   -5.9937   -1.7863 H   0  0  0  0  0  0  0  0  0  0  0  0
    2.9499   -7.6770   -1.1768 H   0  0  0  0  0  0  0  0  0  0  0  0
  1  2  1  0
  2  3  2  0
  2 20  1  0
  3  4  1  0
  3 21  1  0
  4  5  2  0
  5  6  1  0
  5 22  1  0
  6  7  1  0
  6 20  2  0
  7  8  1  0
  7 23  1  0
  8  9  1  0
  8 24  1  0
  8 25  1  0
  9 10  2  0
  9 14  1  0
 10 11  1  0
 10 26  1  0
 11 12  2  0
 11 27  1  0
 12 13  1  0
 12 28  1  0
 13 14  2  0
 13 29  1  0
 14 15  1  0
 15 16  1  0
 16 17  1  0
 16 19  1  0
 16 30  1  1
 17 18  1  0
 17 31  1  0
 17 32  1  0
 18 19  1  0
 18 33  1  0
 18 34  1  0
 19 35  1  0
 19 36  1  0
M  END

