
     RDKit          3D

 38 39  0  0  0  0  0  0  0  0999 V2000
    1.7543   -0.5776    1.0655 C   0  0  0  0  0  0  0  0  0  0  0  0
    2.7007   -0.1390   -0.0618 C   0  0  0  0  0  0  0  0  0  0  0  0
    3.0421    1.3241   -0.0261 C   0  0  0  0  0  0  0  0  0  0  0  0
    2.2300    2.4309   -0.3892 C   0  0  0  0  0  0  0  0  0  0  0  0
    3.0059    3.5531   -0.1374 C   0  0  0  0  0  0  0  0  0  0  0  0
    2.7187    5.0131   -0.3583 C   0  0  0  0  0  0  0  0  0  0  0  0
    1.2226    5.3186   -0.5178 C   0  0  0  0  0  0  0  0  0  0  0  0
    0.7787    5.5553   -1.6276 O   0  0  0  0  0  0  0  0  0  0  0  0
    0.3509    5.3366    0.6873 C   0  0  0  0  0  0  0  0  0  0  0  0
   -1.0084    5.6719    0.5220 C   0  0  0  0  0  0  0  0  0  0  0  0
   -1.8790    5.7189    1.5990 C   0  0  0  0  0  0  0  0  0  0  0  0
   -1.4239    5.4242    2.9062 C   0  0  0  0  0  0  0  0  0  0  0  0
   -2.2894    5.4336    3.9721 N   0  0  0  0  0  0  0  0  0  0  0  0
   -0.0631    5.0843    3.0772 C   0  0  0  0  0  0  0  0  0  0  0  0
    0.7999    5.0429    1.9890 C   0  0  0  0  0  0  0  0  0  0  0  0
    4.2020    3.0839    0.3359 N   0  0  0  0  0  0  0  0  0  0  0  0
    5.3727    3.8300    0.7710 C   0  0  0  0  0  0  0  0  0  0  0  0
    5.4750    3.9532    2.2905 C   0  0  0  0  0  0  0  0  0  0  0  0
    4.2288    1.7390    0.4121 N   0  0  0  0  0  0  0  0  0  0  0  0
    1.5330   -1.6554    1.0004 H   0  0  0  0  0  0  0  0  0  0  0  0
    0.7967   -0.0339    1.0207 H   0  0  0  0  0  0  0  0  0  0  0  0
    2.2026   -0.3810    2.0525 H   0  0  0  0  0  0  0  0  0  0  0  0
    2.2451   -0.3831   -1.0371 H   0  0  0  0  0  0  0  0  0  0  0  0
    3.6431   -0.7055    0.0008 H   0  0  0  0  0  0  0  0  0  0  0  0
    1.2195    2.4184   -0.7915 H   0  0  0  0  0  0  0  0  0  0  0  0
    3.1927    5.3611   -1.2907 H   0  0  0  0  0  0  0  0  0  0  0  0
    3.1316    5.6168    0.4664 H   0  0  0  0  0  0  0  0  0  0  0  0
   -1.3581    5.8988   -0.4872 H   0  0  0  0  0  0  0  0  0  0  0  0
   -2.9292    5.9825    1.4439 H   0  0  0  0  0  0  0  0  0  0  0  0
   -3.1919    5.8774    3.8649 H   0  0  0  0  0  0  0  0  0  0  0  0
   -1.9117    5.4292    4.9103 H   0  0  0  0  0  0  0  0  0  0  0  0
    0.3090    4.8453    4.0774 H   0  0  0  0  0  0  0  0  0  0  0  0
    1.8402    4.7620    2.1633 H   0  0  0  0  0  0  0  0  0  0  0  0
    5.3459    4.8213    0.2946 H   0  0  0  0  0  0  0  0  0  0  0  0
    6.2521    3.3017    0.3730 H   0  0  0  0  0  0  0  0  0  0  0  0
    4.6267    4.5199    2.7073 H   0  0  0  0  0  0  0  0  0  0  0  0
    6.4046    4.4725    2.5727 H   0  0  0  0  0  0  0  0  0  0  0  0
    5.4799    2.9537    2.7501 H   0  0  0  0  0  0  0  0  0  0  0  0
  1  2  1  0
  1 20  1  0
  1 21  1  0
  1 22  1  0
  2  3  1  0
  2 23  1  0
  2 24  1  0
  3  4  1  0
  3 19  2  0
  4  5  2  0
  4 25  1  0
  5  6  1  0
  5 16  1  0
  6  7  1  0
  6 26  1  0
  6 27  1  0
  7  8  2  0
  7  9  1  0
  9 10  2  0
  9 15  1  0
 10 11  1  0
 10 28  1  0
 11 12  2  0
 11 29  1  0
 12 13  1  0
 12 14  1  0
 13 30  1  0
 13 31  1  0
 14 15  2  0
 14 32  1  0
 15 33  1  0
 16 17  1  0
 16 19  1  0
 17 18  1  0
 17 34  1  0
 17 35  1  0
 18 36  1  0
 18 37  1  0
 18 38  1  0
M  END

