
     RDKit          3D

 31 32  0  0  0  0  0  0  0  0999 V2000
    1.5427    1.6214    1.7245 C   0  0  0  0  0  0  0  0  0  0  0  0
    2.8603    1.2176    1.1090 C   0  0  0  0  0  0  0  0  0  0  0  0
    3.9514    0.8561    1.9183 C   0  0  0  0  0  0  0  0  0  0  0  0
    5.1810    0.5086    1.3603 C   0  0  0  0  0  0  0  0  0  0  0  0
    5.3592    0.5078   -0.0320 C   0  0  0  0  0  0  0  0  0  0  0  0
    6.6948    0.1234   -0.6367 C   0  0  0  0  0  0  0  0  0  0  0  0
    6.9410   -1.3240   -0.6512 N   0  0  0  0  0  0  0  0  0  0  0  0
    7.3004   -1.9347    0.4828 N   0  0  0  0  0  0  0  0  0  0  0  0
    7.3898   -3.2260    0.1871 C   0  0  0  0  0  0  0  0  0  0  0  0
    7.0721   -3.4730   -1.1712 C   0  0  0  0  0  0  0  0  0  0  0  0
    7.0511   -4.7809   -1.8672 C   0  0  0  0  0  0  0  0  0  0  0  0
    8.6374   -5.0792   -3.0527 Br  0  0  0  0  0  0  0  0  0  0  0  0
    6.7905   -2.2040   -1.6817 C   0  0  0  0  0  0  0  0  0  0  0  0
    6.4299   -1.8171   -3.0769 C   0  0  1  0  0  0  0  0  0  0  0  0
    5.1670   -1.2969   -3.1462 F   0  0  0  0  0  0  0  0  0  0  0  0
    7.2707   -0.8522   -3.5554 F   0  0  0  0  0  0  0  0  0  0  0  0
    4.2745    0.8580   -0.8454 C   0  0  0  0  0  0  0  0  0  0  0  0
    3.0449    1.2090   -0.2808 C   0  0  0  0  0  0  0  0  0  0  0  0
    1.2634    0.9528    2.5544 H   0  0  0  0  0  0  0  0  0  0  0  0
    0.7281    1.6061    0.9851 H   0  0  0  0  0  0  0  0  0  0  0  0
    1.5942    2.6437    2.1384 H   0  0  0  0  0  0  0  0  0  0  0  0
    3.8346    0.8485    3.0061 H   0  0  0  0  0  0  0  0  0  0  0  0
    6.0126    0.2204    2.0082 H   0  0  0  0  0  0  0  0  0  0  0  0
    7.5203    0.5626   -0.0588 H   0  0  0  0  0  0  0  0  0  0  0  0
    6.7772    0.4790   -1.6698 H   0  0  0  0  0  0  0  0  0  0  0  0
    7.6798   -3.9475    0.9512 H   0  0  0  0  0  0  0  0  0  0  0  0
    6.1916   -4.9062   -2.5361 H   0  0  0  0  0  0  0  0  0  0  0  0
    7.0740   -5.6139   -1.1561 H   0  0  0  0  0  0  0  0  0  0  0  0
    6.4853   -2.6837   -3.7543 H   0  0  0  0  0  0  0  0  0  0  0  0
    4.3865    0.8450   -1.9321 H   0  0  0  0  0  0  0  0  0  0  0  0
    2.2120    1.4796   -0.9362 H   0  0  0  0  0  0  0  0  0  0  0  0
  1  2  1  0
  1 19  1  0
  1 20  1  0
  1 21  1  0
  2  3  2  0
  2 18  1  0
  3  4  1  0
  3 22  1  0
  4  5  2  0
  4 23  1  0
  5  6  1  0
  5 17  1  0
  6  7  1  0
  6 24  1  0
  6 25  1  0
  7  8  1  0
  7 13  1  0
  8  9  2  0
  9 10  1  0
  9 26  1  0
 10 11  1  0
 10 13  2  0
 11 12  1  0
 11 27  1  0
 11 28  1  0
 13 14  1  0
 14 15  1  0
 14 16  1  0
 14 29  1  6
 17 18  2  0
 17 30  1  0
 18 31  1  0
M  END

