
     RDKit          3D

 18 18  0  0  0  0  0  0  0  0999 V2000
    1.2116   -0.0246    0.5415 C   0  0  0  0  0  0  0  0  0  0  0  0
    2.5809   -0.0586   -0.1194 C   0  0  1  0  0  0  0  0  0  0  0  0
    2.9452   -1.2790   -1.0113 C   0  0  1  0  0  0  0  0  0  0  0  0
    1.4627   -2.0787   -1.7641 Cl  0  0  0  0  0  0  0  0  0  0  0  0
    3.7813   -0.7721   -2.0708 N   0  0  0  0  0  0  0  0  0  0  0  0
    3.6298    0.5110   -2.0448 C   0  0  0  0  0  0  0  0  0  0  0  0
    4.2545    1.3748   -3.0211 C   0  0  0  0  0  0  0  0  0  0  0  0
    4.7529    2.0872   -3.7872 N   0  0  0  0  0  0  0  0  0  0  0  0
    2.8360    1.0430   -1.0598 N   0  0  0  0  0  0  0  0  0  0  0  0
    2.7841    2.4324   -0.6639 C   0  0  0  0  0  0  0  0  0  0  0  0
    1.0787   -0.9124    1.1775 H   0  0  0  0  0  0  0  0  0  0  0  0
    0.4135   -0.0207   -0.2129 H   0  0  0  0  0  0  0  0  0  0  0  0
    1.1088    0.8643    1.1830 H   0  0  0  0  0  0  0  0  0  0  0  0
    3.3620   -0.0138    0.6704 H   0  0  0  0  0  0  0  0  0  0  0  0
    3.4257   -2.0921   -0.4558 H   0  0  0  0  0  0  0  0  0  0  0  0
    3.0886    3.0690   -1.5061 H   0  0  0  0  0  0  0  0  0  0  0  0
    3.4537    2.6442    0.1922 H   0  0  0  0  0  0  0  0  0  0  0  0
    1.7593    2.7161   -0.3796 H   0  0  0  0  0  0  0  0  0  0  0  0
  1  2  1  0
  1 11  1  0
  1 12  1  0
  1 13  1  0
  2  3  1  0
  2  9  1  0
  2 14  1  1
  3  4  1  0
  3  5  1  0
  3 15  1  1
  5  6  2  0
  6  7  1  0
  6  9  1  0
  7  8  3  0
  9 10  1  0
 10 16  1  0
 10 17  1  0
 10 18  1  0
M  END

