
     RDKit          3D

 33 34  0  0  0  0  0  0  0  0999 V2000
    5.1835   -1.6302   -1.3023 O   0  0  0  0  0  0  0  0  0  0  0  0
    4.5019   -0.6551   -0.6336 C   0  0  0  0  0  0  0  0  0  0  0  0
    5.0535    0.6059   -0.3817 C   0  0  0  0  0  0  0  0  0  0  0  0
    4.3281    1.5744    0.3194 C   0  0  0  0  0  0  0  0  0  0  0  0
    3.0499    1.2564    0.7622 C   0  0  0  0  0  0  0  0  0  0  0  0
    2.3394    2.1748    1.4423 F   0  0  0  0  0  0  0  0  0  0  0  0
    2.4850    0.0061    0.5187 C   0  0  0  0  0  0  0  0  0  0  0  0
    3.1991   -0.9660   -0.1886 C   0  0  0  0  0  0  0  0  0  0  0  0
    2.6212   -2.3391   -0.4614 C   0  0  0  0  0  0  0  0  0  0  0  0
    1.1722   -2.3776   -0.3266 N   0  0  0  0  0  0  0  0  0  0  0  0
    0.5944   -3.7079   -0.4679 C   0  0  0  0  0  0  0  0  0  0  0  0
   -0.8500   -3.7624    0.0519 C   0  0  1  0  0  0  0  0  0  0  0  0
   -1.8042   -2.7264   -0.5520 C   0  0  0  0  0  0  0  0  0  0  0  0
   -2.0621   -2.8698   -2.3608 S   0  0  0  0  0  0  0  0  0  0  0  0
   -2.7867   -4.5528   -2.4154 C   0  0  0  0  0  0  0  0  0  0  0  0
   -1.8748   -5.6350   -1.8477 C   0  0  0  0  0  0  0  0  0  0  0  0
   -1.5429   -5.4713   -0.0489 S   0  0  0  0  0  0  0  0  0  0  0  0
    6.0461   -1.2924   -1.5751 H   0  0  0  0  0  0  0  0  0  0  0  0
    6.0634    0.8347   -0.7366 H   0  0  0  0  0  0  0  0  0  0  0  0
    4.7447    2.5626    0.5222 H   0  0  0  0  0  0  0  0  0  0  0  0
    1.4824   -0.2215    0.8821 H   0  0  0  0  0  0  0  0  0  0  0  0
    3.0523   -3.0556    0.2632 H   0  0  0  0  0  0  0  0  0  0  0  0
    2.9813   -2.6832   -1.4534 H   0  0  0  0  0  0  0  0  0  0  0  0
    0.7635   -1.7519   -1.0213 H   0  0  0  0  0  0  0  0  0  0  0  0
    1.1902   -4.4111    0.1351 H   0  0  0  0  0  0  0  0  0  0  0  0
    0.6337   -4.0808   -1.5118 H   0  0  0  0  0  0  0  0  0  0  0  0
   -0.8226   -3.5749    1.1388 H   0  0  0  0  0  0  0  0  0  0  0  0
   -1.4041   -1.7123   -0.3946 H   0  0  0  0  0  0  0  0  0  0  0  0
   -2.7794   -2.7777   -0.0433 H   0  0  0  0  0  0  0  0  0  0  0  0
   -2.9841   -4.7421   -3.4831 H   0  0  0  0  0  0  0  0  0  0  0  0
   -3.7545   -4.5466   -1.8877 H   0  0  0  0  0  0  0  0  0  0  0  0
   -0.9290   -5.6778   -2.4095 H   0  0  0  0  0  0  0  0  0  0  0  0
   -2.3587   -6.6217   -1.9370 H   0  0  0  0  0  0  0  0  0  0  0  0
  1  2  1  0
  1 18  1  0
  2  3  2  0
  2  8  1  0
  3  4  1  0
  3 19  1  0
  4  5  2  0
  4 20  1  0
  5  6  1  0
  5  7  1  0
  7  8  2  0
  7 21  1  0
  8  9  1  0
  9 10  1  0
  9 22  1  0
  9 23  1  0
 10 11  1  0
 10 24  1  0
 11 12  1  0
 11 25  1  0
 11 26  1  0
 12 13  1  0
 12 17  1  0
 12 27  1  1
 13 14  1  0
 13 28  1  0
 13 29  1  0
 14 15  1  0
 15 16  1  0
 15 30  1  0
 15 31  1  0
 16 17  1  0
 16 32  1  0
 16 33  1  0
M  END

