
     RDKit          3D

 45 46  0  0  0  0  0  0  0  0999 V2000
    0.9173    0.0532   -1.9670 C   0  0  0  0  0  0  0  0  0  0  0  0
    2.3965    0.0721   -1.5781 C   0  0  0  0  0  0  0  0  0  0  0  0
    2.9522   -1.3173   -1.2542 C   0  0  0  0  0  0  0  0  0  0  0  0
    4.4426   -1.3228   -0.8784 C   0  0  1  0  0  0  0  0  0  0  0  0
    4.8047   -0.5352    0.3043 N   0  0  0  0  0  0  0  0  0  0  0  0
    4.9299   -2.7730   -0.6573 C   0  0  0  0  0  0  0  0  0  0  0  0
    4.1224   -3.6810   -0.5112 O   0  0  0  0  0  0  0  0  0  0  0  0
    6.2843   -2.9976   -0.6227 N   0  0  0  0  0  0  0  0  0  0  0  0
    6.7727   -4.3528   -0.3666 C   0  0  0  0  0  0  0  0  0  0  0  0
    7.8372   -4.7403   -1.4029 C   0  0  0  0  0  0  0  0  0  0  0  0
    8.9261   -3.7680   -1.5080 N   0  0  0  0  0  0  0  0  0  0  0  0
    9.9586   -3.8798   -0.4864 C   0  0  0  0  0  0  0  0  0  0  0  0
   10.8354   -5.1098   -0.6554 C   0  0  0  0  0  0  0  0  0  0  0  0
   11.2382   -5.5340   -1.9310 C   0  0  0  0  0  0  0  0  0  0  0  0
   12.0859   -6.6306   -2.0925 C   0  0  0  0  0  0  0  0  0  0  0  0
   12.5418   -7.3179   -0.9629 C   0  0  0  0  0  0  0  0  0  0  0  0
   13.6048   -8.6956   -1.1567 Cl  0  0  0  0  0  0  0  0  0  0  0  0
   12.1522   -6.9192    0.3175 C   0  0  0  0  0  0  0  0  0  0  0  0
   11.2995   -5.8208    0.4596 C   0  0  0  0  0  0  0  0  0  0  0  0
    8.3971   -2.4281   -1.7330 C   0  0  0  0  0  0  0  0  0  0  0  0
    7.3410   -1.9940   -0.7023 C   0  0  0  0  0  0  0  0  0  0  0  0
    0.5427    1.0654   -2.1883 H   0  0  0  0  0  0  0  0  0  0  0  0
    0.2974   -0.3632   -1.1556 H   0  0  0  0  0  0  0  0  0  0  0  0
    0.7471   -0.5694   -2.8610 H   0  0  0  0  0  0  0  0  0  0  0  0
    2.5310    0.7385   -0.7068 H   0  0  0  0  0  0  0  0  0  0  0  0
    2.9865    0.5242   -2.3976 H   0  0  0  0  0  0  0  0  0  0  0  0
    2.8046   -1.9865   -2.1188 H   0  0  0  0  0  0  0  0  0  0  0  0
    2.3809   -1.7781   -0.4305 H   0  0  0  0  0  0  0  0  0  0  0  0
    5.0067   -0.8992   -1.7296 H   0  0  0  0  0  0  0  0  0  0  0  0
    4.2745   -0.8613    1.1143 H   0  0  0  0  0  0  0  0  0  0  0  0
    4.5612    0.4460    0.1726 H   0  0  0  0  0  0  0  0  0  0  0  0
    5.9123   -5.0322   -0.4044 H   0  0  0  0  0  0  0  0  0  0  0  0
    7.1938   -4.4025    0.6564 H   0  0  0  0  0  0  0  0  0  0  0  0
    7.3509   -4.8229   -2.3912 H   0  0  0  0  0  0  0  0  0  0  0  0
    8.2554   -5.7300   -1.1630 H   0  0  0  0  0  0  0  0  0  0  0  0
    9.5697   -3.8672    0.5550 H   0  0  0  0  0  0  0  0  0  0  0  0
   10.5981   -2.9830   -0.5729 H   0  0  0  0  0  0  0  0  0  0  0  0
   10.8655   -4.9956   -2.8052 H   0  0  0  0  0  0  0  0  0  0  0  0
   12.3958   -6.9573   -3.0868 H   0  0  0  0  0  0  0  0  0  0  0  0
   12.5083   -7.4690    1.1903 H   0  0  0  0  0  0  0  0  0  0  0  0
   10.9902   -5.5147    1.4635 H   0  0  0  0  0  0  0  0  0  0  0  0
    7.9300   -2.4064   -2.7350 H   0  0  0  0  0  0  0  0  0  0  0  0
    9.2283   -1.7045   -1.7429 H   0  0  0  0  0  0  0  0  0  0  0  0
    6.9240   -1.0157   -0.9599 H   0  0  0  0  0  0  0  0  0  0  0  0
    7.8056   -1.8743    0.2955 H   0  0  0  0  0  0  0  0  0  0  0  0
  1  2  1  0
  1 22  1  0
  1 23  1  0
  1 24  1  0
  2  3  1  0
  2 25  1  0
  2 26  1  0
  3  4  1  0
  3 27  1  0
  3 28  1  0
  4  5  1  0
  4  6  1  0
  4 29  1  6
  5 30  1  0
  5 31  1  0
  6  7  2  0
  6  8  1  0
  8  9  1  0
  8 21  1  0
  9 10  1  0
  9 32  1  0
  9 33  1  0
 10 11  1  0
 10 34  1  0
 10 35  1  0
 11 12  1  0
 11 20  1  0
 12 13  1  0
 12 36  1  0
 12 37  1  0
 13 14  2  0
 13 19  1  0
 14 15  1  0
 14 38  1  0
 15 16  2  0
 15 39  1  0
 16 17  1  0
 16 18  1  0
 18 19  2  0
 18 40  1  0
 19 41  1  0
 20 21  1  0
 20 42  1  0
 20 43  1  0
 21 44  1  0
 21 45  1  0
M  END

