
     RDKit          3D

 38 42  0  0  0  0  0  0  0  0999 V2000
    0.8162    0.1812   -0.0588 F   0  0  0  0  0  0  0  0  0  0  0  0
    2.1453    0.1821   -0.0622 C   0  0  0  0  0  0  0  0  0  0  0  0
    2.8475   -0.0009    1.1324 C   0  0  0  0  0  0  0  0  0  0  0  0
    2.1846   -0.1782    2.2725 F   0  0  0  0  0  0  0  0  0  0  0  0
    4.2437    0.0052    1.1054 C   0  0  0  0  0  0  0  0  0  0  0  0
    4.8981   -0.1808    2.2619 F   0  0  0  0  0  0  0  0  0  0  0  0
    4.9733    0.1897   -0.0685 C   0  0  0  0  0  0  0  0  0  0  0  0
    6.5651    0.1991   -0.0700 B   0  0  0  0  0  0  0  0  0  0  0  0
    7.4204   -1.0767   -0.2665 C   0  0  0  0  0  0  0  0  0  0  0  0
    6.8152   -2.3308   -0.4618 C   0  0  0  0  0  0  0  0  0  0  0  0
    5.4868   -2.4615   -0.4803 F   0  0  0  0  0  0  0  0  0  0  0  0
    7.5422   -3.5017   -0.6469 C   0  0  0  0  0  0  0  0  0  0  0  0
    6.9417   -4.6712   -0.8291 F   0  0  0  0  0  0  0  0  0  0  0  0
    8.9315   -3.4161   -0.6364 C   0  0  0  0  0  0  0  0  0  0  0  0
    9.6603   -4.5095   -0.8103 F   0  0  0  0  0  0  0  0  0  0  0  0
    9.5681   -2.1875   -0.4451 C   0  0  0  0  0  0  0  0  0  0  0  0
   10.9072   -2.2661   -0.4623 F   0  0  0  0  0  0  0  0  0  0  0  0
    8.8571   -0.9837   -0.2532 C   0  0  0  0  0  0  0  0  0  0  0  0
    9.5292    0.3267   -0.0471 C   0  0  0  0  0  0  0  0  0  0  0  0
   10.9245    0.4480   -0.0203 C   0  0  0  0  0  0  0  0  0  0  0  0
   11.5780    1.6812    0.1722 C   0  0  0  0  0  0  0  0  0  0  0  0
   10.8498    2.8356    0.3442 C   0  0  0  0  0  0  0  0  0  0  0  0
    9.4321    2.7817    0.3293 C   0  0  0  0  0  0  0  0  0  0  0  0
    8.6735    3.9702    0.5077 C   0  0  0  0  0  0  0  0  0  0  0  0
    7.2933    3.9495    0.4999 C   0  0  0  0  0  0  0  0  0  0  0  0
    6.6294    2.7243    0.3120 C   0  0  0  0  0  0  0  0  0  0  0  0
    7.3205    1.5209    0.1304 C   0  0  0  0  0  0  0  0  0  0  0  0
    8.7548    1.5290    0.1349 C   0  0  0  0  0  0  0  0  0  0  0  0
    4.2376    0.3692   -1.2392 C   0  0  0  0  0  0  0  0  0  0  0  0
    4.8857    0.5429   -2.4011 F   0  0  0  0  0  0  0  0  0  0  0  0
    2.8412    0.3703   -1.2595 C   0  0  0  0  0  0  0  0  0  0  0  0
    2.1724    0.5462   -2.3965 F   0  0  0  0  0  0  0  0  0  0  0  0
   11.5504   -0.4268   -0.1500 H   0  0  0  0  0  0  0  0  0  0  0  0
   12.6701    1.7053    0.1823 H   0  0  0  0  0  0  0  0  0  0  0  0
   11.3453    3.7984    0.4936 H   0  0  0  0  0  0  0  0  0  0  0  0
    9.2112    4.9114    0.6531 H   0  0  0  0  0  0  0  0  0  0  0  0
    6.7229    4.8708    0.6383 H   0  0  0  0  0  0  0  0  0  0  0  0
    5.5370    2.7110    0.3076 H   0  0  0  0  0  0  0  0  0  0  0  0
  1  2  1  0
  2  3  2  0
  2 31  1  0
  3  4  1  0
  3  5  1  0
  5  6  1  0
  5  7  2  0
  7  8  1  0
  7 29  1  0
  8  9  1  0
  8 27  1  0
  9 10  2  0
  9 18  1  0
 10 11  1  0
 10 12  1  0
 12 13  1  0
 12 14  2  0
 14 15  1  0
 14 16  1  0
 16 17  1  0
 16 18  2  0
 18 19  1  0
 19 20  2  0
 19 28  1  0
 20 21  1  0
 20 33  1  0
 21 22  2  0
 21 34  1  0
 22 23  1  0
 22 35  1  0
 23 24  1  0
 23 28  2  0
 24 25  2  0
 24 36  1  0
 25 26  1  0
 25 37  1  0
 26 27  2  0
 26 38  1  0
 27 28  1  0
 29 30  1  0
 29 31  2  0
 31 32  1  0
M  END

