
     RDKit          3D

 42 44  0  0  0  0  0  0  0  0999 V2000
    2.1900   -1.8009   -0.0822 C   0  0  0  0  0  0  0  0  0  0  0  0
    3.1191   -0.6401   -0.1537 C   0  0  0  0  0  0  0  0  0  0  0  0
    4.3338   -0.3694    0.4092 C   0  0  0  0  0  0  0  0  0  0  0  0
    4.6448    0.9412   -0.0805 C   0  0  0  0  0  0  0  0  0  0  0  0
    5.8125    1.6464    0.1949 N   0  0  0  0  0  0  0  0  0  0  0  0
    5.8869    3.0374    0.3917 C   0  0  0  0  0  0  0  0  0  0  0  0
    4.9043    3.7392    0.5030 O   0  0  0  0  0  0  0  0  0  0  0  0
    7.1854    3.5162    0.4952 N   0  0  0  0  0  0  0  0  0  0  0  0
    8.3536    2.9183   -0.1493 C   0  0  0  0  0  0  0  0  0  0  0  0
    8.7489    3.7000   -1.4105 C   0  0  0  0  0  0  0  0  0  0  0  0
    8.9359    5.1915   -1.1133 C   0  0  0  0  0  0  0  0  0  0  0  0
    7.7020    5.7826   -0.3991 C   0  0  2  0  0  0  0  0  0  0  0  0
    7.9283    7.2149    0.0036 C   0  0  0  0  0  0  0  0  0  0  0  0
    8.9091    7.6172    0.7577 N   0  0  0  0  0  0  0  0  0  0  0  0
    8.8737    8.9735    0.9933 C   0  0  0  0  0  0  0  0  0  0  0  0
    9.9445    9.5976    1.8488 C   0  0  0  0  0  0  0  0  0  0  0  0
    7.8251    9.6444    0.3989 C   0  0  0  0  0  0  0  0  0  0  0  0
    7.4924   11.1045    0.4465 C   0  0  0  0  0  0  0  0  0  0  0  0
    6.8504    8.5036   -0.4889 S   0  0  0  0  0  0  0  0  0  0  0  0
    7.3555    4.9232    0.8402 C   0  0  0  0  0  0  0  0  0  0  0  0
    3.7038    1.4026   -0.8741 N   0  0  0  0  0  0  0  0  0  0  0  0
    2.7383    0.4060   -0.9056 O   0  0  0  0  0  0  0  0  0  0  0  0
    2.6048   -2.5860    0.5638 H   0  0  0  0  0  0  0  0  0  0  0  0
    2.0145   -2.2249   -1.0842 H   0  0  0  0  0  0  0  0  0  0  0  0
    1.2116   -1.4932    0.3206 H   0  0  0  0  0  0  0  0  0  0  0  0
    4.9145   -0.9919    1.0851 H   0  0  0  0  0  0  0  0  0  0  0  0
    6.5746    1.0891    0.5580 H   0  0  0  0  0  0  0  0  0  0  0  0
    8.1510    1.8723   -0.4111 H   0  0  0  0  0  0  0  0  0  0  0  0
    9.1942    2.9210    0.5697 H   0  0  0  0  0  0  0  0  0  0  0  0
    7.9588    3.5638   -2.1696 H   0  0  0  0  0  0  0  0  0  0  0  0
    9.6755    3.2732   -1.8303 H   0  0  0  0  0  0  0  0  0  0  0  0
    9.1345    5.7486   -2.0432 H   0  0  0  0  0  0  0  0  0  0  0  0
    9.8135    5.3432   -0.4618 H   0  0  0  0  0  0  0  0  0  0  0  0
    6.8352    5.7391   -1.0795 H   0  0  0  0  0  0  0  0  0  0  0  0
   10.6292    8.8120    2.1951 H   0  0  0  0  0  0  0  0  0  0  0  0
    9.5254   10.1015    2.7353 H   0  0  0  0  0  0  0  0  0  0  0  0
   10.5354   10.3449    1.2935 H   0  0  0  0  0  0  0  0  0  0  0  0
    8.2302   11.6437    1.0579 H   0  0  0  0  0  0  0  0  0  0  0  0
    6.4974   11.2871    0.8864 H   0  0  0  0  0  0  0  0  0  0  0  0
    7.4937   11.5616   -0.5575 H   0  0  0  0  0  0  0  0  0  0  0  0
    6.4270    5.2774    1.3023 H   0  0  0  0  0  0  0  0  0  0  0  0
    8.1756    5.0182    1.5730 H   0  0  0  0  0  0  0  0  0  0  0  0
  1  2  1  0
  1 23  1  0
  1 24  1  0
  1 25  1  0
  2  3  2  0
  2 22  1  0
  3  4  1  0
  3 26  1  0
  4  5  1  0
  4 21  2  0
  5  6  1  0
  5 27  1  0
  6  7  2  0
  6  8  1  0
  8  9  1  0
  8 20  1  0
  9 10  1  0
  9 28  1  0
  9 29  1  0
 10 11  1  0
 10 30  1  0
 10 31  1  0
 11 12  1  0
 11 32  1  0
 11 33  1  0
 12 13  1  0
 12 20  1  0
 12 34  1  6
 13 14  2  0
 13 19  1  0
 14 15  1  0
 15 16  1  0
 15 17  2  0
 16 35  1  0
 16 36  1  0
 16 37  1  0
 17 18  1  0
 17 19  1  0
 18 38  1  0
 18 39  1  0
 18 40  1  0
 20 41  1  0
 20 42  1  0
 21 22  1  0
M  END

