
     RDKit          3D

 44 45  0  0  0  0  0  0  0  0999 V2000
    2.0431    0.9354    1.5542 C   0  0  0  0  0  0  0  0  0  0  0  0
    2.2122    0.0893    0.2855 C   0  0  1  0  0  0  0  0  0  0  0  0
    1.2167   -0.0164   -0.1945 H   0  0  0  0  0  0  0  0  0  0  0  0
    3.1216    0.7028   -0.6126 O   0  0  0  0  0  0  0  0  0  0  0  0
    2.7206   -1.3076    0.5981 C   0  0  0  0  0  0  0  0  0  0  0  0
    4.0644   -1.6545    0.4250 C   0  0  0  0  0  0  0  0  0  0  0  0
    4.5140   -2.9365    0.7432 C   0  0  0  0  0  0  0  0  0  0  0  0
    3.6591   -3.9272    1.2669 C   0  0  0  0  0  0  0  0  0  0  0  0
    4.1228   -5.2127    1.6065 N   0  0  0  0  0  0  0  0  0  0  0  0
    3.6437   -6.3223    0.7837 C   0  0  0  0  0  0  0  0  0  0  0  0
    4.1469   -7.6601    1.2521 C   0  0  0  0  0  0  0  0  0  0  0  0
    5.0783   -7.8406    2.2021 C   0  0  0  0  0  0  0  0  0  0  0  0
    5.5633   -9.2217    2.6718 C   0  0  1  0  0  0  0  0  0  0  0  0
    7.0350   -9.4277    2.2395 C   0  0  0  0  0  0  0  0  0  0  0  0
    5.4712   -9.3055    4.2134 C   0  0  0  0  0  0  0  0  0  0  0  0
    4.7253  -10.3668    2.0765 C   0  0  0  0  0  0  0  0  0  0  0  0
    5.6871   -6.6127    2.8539 C   0  0  0  0  0  0  0  0  0  0  0  0
    5.5185   -5.3616    1.9913 C   0  0  0  0  0  0  0  0  0  0  0  0
    2.3070   -3.5481    1.4511 C   0  0  0  0  0  0  0  0  0  0  0  0
    1.1588   -4.6578    2.1812 Cl  0  0  0  0  0  0  0  0  0  0  0  0
    1.8483   -2.2763    1.1101 C   0  0  0  0  0  0  0  0  0  0  0  0
    1.6515    1.9372    1.3040 H   0  0  0  0  0  0  0  0  0  0  0  0
    3.0132    1.0552    2.0613 H   0  0  0  0  0  0  0  0  0  0  0  0
    1.3380    0.4680    2.2586 H   0  0  0  0  0  0  0  0  0  0  0  0
    2.8498    1.6210   -0.7337 H   0  0  0  0  0  0  0  0  0  0  0  0
    4.7524   -0.9167    0.0108 H   0  0  0  0  0  0  0  0  0  0  0  0
    5.5616   -3.1860    0.5670 H   0  0  0  0  0  0  0  0  0  0  0  0
    3.9406   -6.1810   -0.2825 H   0  0  0  0  0  0  0  0  0  0  0  0
    2.5428   -6.3311    0.7913 H   0  0  0  0  0  0  0  0  0  0  0  0
    3.6916   -8.5132    0.7437 H   0  0  0  0  0  0  0  0  0  0  0  0
    7.7044   -8.6635    2.6639 H   0  0  0  0  0  0  0  0  0  0  0  0
    7.1315   -9.3903    1.1428 H   0  0  0  0  0  0  0  0  0  0  0  0
    7.4022  -10.4100    2.5802 H   0  0  0  0  0  0  0  0  0  0  0  0
    6.1066   -8.5553    4.7084 H   0  0  0  0  0  0  0  0  0  0  0  0
    5.8010  -10.2974    4.5633 H   0  0  0  0  0  0  0  0  0  0  0  0
    4.4356   -9.1520    4.5571 H   0  0  0  0  0  0  0  0  0  0  0  0
    4.7963  -10.3996    0.9781 H   0  0  0  0  0  0  0  0  0  0  0  0
    3.6619  -10.2751    2.3475 H   0  0  0  0  0  0  0  0  0  0  0  0
    5.0872  -11.3351    2.4574 H   0  0  0  0  0  0  0  0  0  0  0  0
    6.7611   -6.7668    3.0506 H   0  0  0  0  0  0  0  0  0  0  0  0
    5.2149   -6.4373    3.8366 H   0  0  0  0  0  0  0  0  0  0  0  0
    6.1924   -5.4336    1.1082 H   0  0  0  0  0  0  0  0  0  0  0  0
    5.8242   -4.4714    2.5603 H   0  0  0  0  0  0  0  0  0  0  0  0
    0.7920   -2.0468    1.2692 H   0  0  0  0  0  0  0  0  0  0  0  0
  1  2  1  0
  1 22  1  0
  1 23  1  0
  1 24  1  0
  2  3  1  6
  2  4  1  0
  2  5  1  0
  4 25  1  0
  5  6  2  0
  5 21  1  0
  6  7  1  0
  6 26  1  0
  7  8  2  0
  7 27  1  0
  8  9  1  0
  8 19  1  0
  9 10  1  0
  9 18  1  0
 10 11  1  0
 10 28  1  0
 10 29  1  0
 11 12  2  0
 11 30  1  0
 12 13  1  0
 12 17  1  0
 13 14  1  1
 13 15  1  0
 13 16  1  0
 14 31  1  0
 14 32  1  0
 14 33  1  0
 15 34  1  0
 15 35  1  0
 15 36  1  0
 16 37  1  0
 16 38  1  0
 16 39  1  0
 17 18  1  0
 17 40  1  0
 17 41  1  0
 18 42  1  0
 18 43  1  0
 19 20  1  0
 19 21  2  0
 21 44  1  0
M  END

