
     RDKit          3D

 34 35  0  0  0  0  0  0  0  0999 V2000
    1.4089   -0.6159   -0.9651 O   0  0  0  0  0  0  0  0  0  0  0  0
    2.5232   -0.3556   -0.5744 C   0  0  0  0  0  0  0  0  0  0  0  0
    3.1751   -1.0156    0.5707 C   0  0  0  0  0  0  0  0  0  0  0  0
    4.3924   -0.6826    1.0468 C   0  0  0  0  0  0  0  0  0  0  0  0
    5.0972   -1.2823    2.1821 C   0  0  0  0  0  0  0  0  0  0  0  0
    4.5659   -2.3410    2.9500 C   0  0  0  0  0  0  0  0  0  0  0  0
    5.2723   -2.8795    4.0210 C   0  0  0  0  0  0  0  0  0  0  0  0
    6.5289   -2.3577    4.3355 C   0  0  0  0  0  0  0  0  0  0  0  0
    7.2092   -2.8753    5.3651 F   0  0  0  0  0  0  0  0  0  0  0  0
    7.0892   -1.3137    3.6037 C   0  0  0  0  0  0  0  0  0  0  0  0
    6.3686   -0.7849    2.5332 C   0  0  0  0  0  0  0  0  0  0  0  0
    3.3165    0.5711   -1.1818 O   0  0  0  0  0  0  0  0  0  0  0  0
    2.7187    1.3220   -2.2148 C   0  0  0  0  0  0  0  0  0  0  0  0
    1.8866    2.4809   -1.6545 C   0  0  0  0  0  0  0  0  0  0  0  0
    1.7745    2.6360   -0.4589 O   0  0  0  0  0  0  0  0  0  0  0  0
    1.2272    3.4106   -2.6330 C   0  0  0  0  0  0  0  0  0  0  0  0
    0.4879    4.4892   -2.1193 C   0  0  0  0  0  0  0  0  0  0  0  0
   -0.1411    5.3833   -2.9831 C   0  0  0  0  0  0  0  0  0  0  0  0
   -0.0440    5.2181   -4.3694 C   0  0  0  0  0  0  0  0  0  0  0  0
    0.6912    4.1437   -4.8773 C   0  0  0  0  0  0  0  0  0  0  0  0
    0.8297    3.9059   -6.7647 Br  0  0  0  0  0  0  0  0  0  0  0  0
    1.3265    3.2389   -4.0242 C   0  0  0  0  0  0  0  0  0  0  0  0
    2.5619   -1.8017    1.0165 H   0  0  0  0  0  0  0  0  0  0  0  0
    4.9211    0.1291    0.5383 H   0  0  0  0  0  0  0  0  0  0  0  0
    3.5837   -2.7511    2.7075 H   0  0  0  0  0  0  0  0  0  0  0  0
    4.8685   -3.6980    4.6200 H   0  0  0  0  0  0  0  0  0  0  0  0
    8.0737   -0.9314    3.8795 H   0  0  0  0  0  0  0  0  0  0  0  0
    6.7984    0.0355    1.9527 H   0  0  0  0  0  0  0  0  0  0  0  0
    2.0757    0.6832   -2.8416 H   0  0  0  0  0  0  0  0  0  0  0  0
    3.5392    1.7180   -2.8331 H   0  0  0  0  0  0  0  0  0  0  0  0
    0.4226    4.6002   -1.0356 H   0  0  0  0  0  0  0  0  0  0  0  0
   -0.7164    6.2213   -2.5820 H   0  0  0  0  0  0  0  0  0  0  0  0
   -0.5351    5.9156   -5.0501 H   0  0  0  0  0  0  0  0  0  0  0  0
    1.8864    2.4093   -4.4565 H   0  0  0  0  0  0  0  0  0  0  0  0
  1  2  2  0
  2  3  1  0
  2 12  1  0
  3  4  2  0
  3 23  1  0
  4  5  1  0
  4 24  1  0
  5  6  2  0
  5 11  1  0
  6  7  1  0
  6 25  1  0
  7  8  2  0
  7 26  1  0
  8  9  1  0
  8 10  1  0
 10 11  2  0
 10 27  1  0
 11 28  1  0
 12 13  1  0
 13 14  1  0
 13 29  1  0
 13 30  1  0
 14 15  2  0
 14 16  1  0
 16 17  2  0
 16 22  1  0
 17 18  1  0
 17 31  1  0
 18 19  2  0
 18 32  1  0
 19 20  1  0
 19 33  1  0
 20 21  1  0
 20 22  2  0
 22 34  1  0
M  END

