
     RDKit          3D

 61 65  0  0  0  0  0  0  0  0999 V2000
    1.2833    0.4088   -0.6499 O   0  0  0  0  0  0  0  0  0  0  0  0
    2.3229    0.1566   -0.0724 C   0  0  0  0  0  0  0  0  0  0  0  0
    2.6133   -1.1266    0.6683 C   0  0  0  0  0  0  0  0  0  0  0  0
    1.5613   -2.2496    0.5857 C   0  0  2  0  0  0  0  0  0  0  0  0
    1.3113   -2.7156   -0.8715 C   0  0  0  0  0  0  0  0  0  0  0  0
    0.3139   -3.8908   -0.9008 C   0  0  1  0  0  0  0  0  0  0  0  0
    0.8838   -5.0761   -0.0988 C   0  0  0  0  0  0  0  0  0  0  0  0
    1.1197   -4.6392    1.3598 C   0  0  2  0  0  0  0  0  0  0  0  0
   -0.2172   -4.1977    1.9857 C   0  0  0  0  0  0  0  0  0  0  0  0
   -0.7877   -3.0112    1.1862 C   0  0  2  0  0  0  0  0  0  0  0  0
   -1.0217   -3.4423   -0.2753 C   0  0  0  0  0  0  0  0  0  0  0  0
    0.2081   -1.8350    1.2189 C   0  0  0  0  0  0  0  0  0  0  0  0
    2.1109   -3.4608    1.3862 C   0  0  0  0  0  0  0  0  0  0  0  0
    3.3161    1.1608   -0.1422 N   0  0  0  0  0  0  0  0  0  0  0  0
    4.5736    1.3387    0.3992 C   0  0  0  0  0  0  0  0  0  0  0  0
    5.3000    0.4089    1.5788 S   0  0  0  0  0  0  0  0  0  0  0  0
    5.2389    2.4359   -0.0903 N   0  0  0  0  0  0  0  0  0  0  0  0
    4.9155    3.3255   -1.1445 C   0  0  0  0  0  0  0  0  0  0  0  0
    5.1166    4.7025   -0.9587 C   0  0  0  0  0  0  0  0  0  0  0  0
    4.8661    5.6212   -1.9757 C   0  0  0  0  0  0  0  0  0  0  0  0
    4.3805    5.1747   -3.2194 C   0  0  0  0  0  0  0  0  0  0  0  0
    4.0816    6.0241   -4.2983 N   0  0  0  0  0  0  0  0  0  0  0  0
    4.2109    7.3866   -4.3709 C   0  0  0  0  0  0  0  0  0  0  0  0
    4.5936    8.0750   -3.4380 O   0  0  0  0  0  0  0  0  0  0  0  0
    3.7849    8.0583   -5.6668 C   0  0  0  0  0  0  0  0  0  0  0  0
    3.4705    9.4245   -5.5234 C   0  0  0  0  0  0  0  0  0  0  0  0
    3.0652   10.2205   -6.5878 C   0  0  0  0  0  0  0  0  0  0  0  0
    2.9783    9.6507   -7.8613 C   0  0  0  0  0  0  0  0  0  0  0  0
    2.4774   10.6184   -9.2193 Cl  0  0  0  0  0  0  0  0  0  0  0  0
    3.2969    8.3071   -8.0586 C   0  0  0  0  0  0  0  0  0  0  0  0
    3.6938    7.5255   -6.9692 C   0  0  0  0  0  0  0  0  0  0  0  0
    4.1020    5.8558   -7.3638 Cl  0  0  0  0  0  0  0  0  0  0  0  0
    4.1818    3.7944   -3.4091 C   0  0  0  0  0  0  0  0  0  0  0  0
    4.4572    2.8795   -2.3969 C   0  0  0  0  0  0  0  0  0  0  0  0
    2.8020   -0.8569    1.7217 H   0  0  0  0  0  0  0  0  0  0  0  0
    3.5949   -1.4970    0.3266 H   0  0  0  0  0  0  0  0  0  0  0  0
    2.2696   -3.0254   -1.3274 H   0  0  0  0  0  0  0  0  0  0  0  0
    0.9228   -1.8767   -1.4677 H   0  0  0  0  0  0  0  0  0  0  0  0
    0.1472   -4.1975   -1.9479 H   0  0  0  0  0  0  0  0  0  0  0  0
    1.8307   -5.4205   -0.5504 H   0  0  0  0  0  0  0  0  0  0  0  0
    0.1855   -5.9307   -0.1315 H   0  0  0  0  0  0  0  0  0  0  0  0
    1.5408   -5.4806    1.9366 H   0  0  0  0  0  0  0  0  0  0  0  0
   -0.0656   -3.9075    3.0402 H   0  0  0  0  0  0  0  0  0  0  0  0
   -0.9326   -5.0387    1.9861 H   0  0  0  0  0  0  0  0  0  0  0  0
   -1.7435   -2.6878    1.6334 H   0  0  0  0  0  0  0  0  0  0  0  0
   -1.4486   -2.6049   -0.8535 H   0  0  0  0  0  0  0  0  0  0  0  0
   -1.7554   -4.2666   -0.3155 H   0  0  0  0  0  0  0  0  0  0  0  0
    0.3761   -1.5143    2.2631 H   0  0  0  0  0  0  0  0  0  0  0  0
   -0.2052   -0.9723    0.6768 H   0  0  0  0  0  0  0  0  0  0  0  0
    3.0814   -3.7748    0.9623 H   0  0  0  0  0  0  0  0  0  0  0  0
    2.3081   -3.1557    2.4292 H   0  0  0  0  0  0  0  0  0  0  0  0
    2.9609    1.9315   -0.7088 H   0  0  0  0  0  0  0  0  0  0  0  0
    6.0812    2.6354    0.4411 H   0  0  0  0  0  0  0  0  0  0  0  0
    5.4751    5.0634    0.0087 H   0  0  0  0  0  0  0  0  0  0  0  0
    5.0290    6.6840   -1.8171 H   0  0  0  0  0  0  0  0  0  0  0  0
    3.7666    5.5530   -5.1392 H   0  0  0  0  0  0  0  0  0  0  0  0
    3.5657    9.8479   -4.5223 H   0  0  0  0  0  0  0  0  0  0  0  0
    2.8215   11.2733   -6.4400 H   0  0  0  0  0  0  0  0  0  0  0  0
    3.2439    7.8669   -9.0539 H   0  0  0  0  0  0  0  0  0  0  0  0
    3.8229    3.4265   -4.3744 H   0  0  0  0  0  0  0  0  0  0  0  0
    4.3338    1.8131   -2.5922 H   0  0  0  0  0  0  0  0  0  0  0  0
  1  2  2  0
  2  3  1  0
  2 14  1  0
  4  3  1  6
  3 35  1  0
  3 36  1  0
  4  5  1  0
  4 12  1  0
  4 13  1  0
  5  6  1  0
  5 37  1  0
  5 38  1  0
  6  7  1  0
  6 11  1  0
  6 39  1  6
  7  8  1  0
  7 40  1  0
  7 41  1  0
  8  9  1  0
  8 13  1  0
  8 42  1  1
  9 10  1  0
  9 43  1  0
  9 44  1  0
 10 11  1  0
 10 12  1  0
 10 45  1  1
 11 46  1  0
 11 47  1  0
 12 48  1  0
 12 49  1  0
 13 50  1  0
 13 51  1  0
 14 15  1  0
 14 52  1  0
 15 16  2  0
 15 17  1  0
 17 18  1  0
 17 53  1  0
 18 19  2  0
 18 34  1  0
 19 20  1  0
 19 54  1  0
 20 21  2  0
 20 55  1  0
 21 22  1  0
 21 33  1  0
 22 23  1  0
 22 56  1  0
 23 24  2  0
 23 25  1  0
 25 26  2  0
 25 31  1  0
 26 27  1  0
 26 57  1  0
 27 28  2  0
 27 58  1  0
 28 29  1  0
 28 30  1  0
 30 31  2  0
 30 59  1  0
 31 32  1  0
 33 34  2  0
 33 60  1  0
 34 61  1  0
M  END

