
     RDKit          3D

 47 50  0  0  0  0  0  0  0  0999 V2000
    0.8927   -0.8926    0.2811 O   0  0  0  0  0  0  0  0  0  0  0  0
    2.0713   -0.5664    0.2227 C   0  0  0  0  0  0  0  0  0  0  0  0
    2.7218    0.1518    1.2189 N   0  0  0  0  0  0  0  0  0  0  0  0
    2.1919    0.6002    2.4333 C   0  0  0  0  0  0  0  0  0  0  0  0
    0.8777    0.3742    2.8721 C   0  0  0  0  0  0  0  0  0  0  0  0
    0.4456    0.8787    4.1103 C   0  0  0  0  0  0  0  0  0  0  0  0
   -0.8863    0.6670    4.5258 N   0  0  0  0  0  0  0  0  0  0  0  0
   -1.9034    0.0898    3.6550 C   0  0  0  0  0  0  0  0  0  0  0  0
   -3.2079    0.1171    4.4618 C   0  0  0  0  0  0  0  0  0  0  0  0
   -2.8386   -0.3578    5.8625 C   0  0  0  0  0  0  0  0  0  0  0  0
   -1.2295    0.4270    6.2047 S   0  0  1  0  0  0  0  0  0  0  0  0
   -0.2904   -0.5283    6.7934 O   0  0  0  0  0  0  0  0  0  0  0  0
   -1.4235    1.7291    6.8462 O   0  0  0  0  0  0  0  0  0  0  0  0
    1.3254    1.6184    4.9219 C   0  0  0  0  0  0  0  0  0  0  0  0
    2.6388    1.8219    4.4994 C   0  0  0  0  0  0  0  0  0  0  0  0
    3.0532    1.3223    3.2758 C   0  0  0  0  0  0  0  0  0  0  0  0
    4.3245    1.5295    2.8479 F   0  0  0  0  0  0  0  0  0  0  0  0
    2.8694   -0.8948   -0.8471 N   0  0  0  0  0  0  0  0  0  0  0  0
    4.2465   -0.4682   -1.0725 C   0  0  0  0  0  0  0  0  0  0  0  0
    4.6944   -1.1811   -2.3774 C   0  0  1  0  0  0  0  0  0  0  0  0
    5.9066   -2.1084   -2.1889 C   0  0  0  0  0  0  0  0  0  0  0  0
    5.3020   -3.3646   -1.5449 C   0  0  0  0  0  0  0  0  0  0  0  0
    3.9653   -3.5531   -2.2895 C   0  0  0  0  0  0  0  0  0  0  0  0
    3.5104   -2.1331   -2.7470 C   0  0  1  0  0  0  0  0  0  0  0  0
    2.2948   -1.5552   -2.0152 C   0  0  0  0  0  0  0  0  0  0  0  0
    3.6945    0.3951    1.0813 H   0  0  0  0  0  0  0  0  0  0  0  0
    0.2235   -0.1978    2.2215 H   0  0  0  0  0  0  0  0  0  0  0  0
   -1.6527   -0.9472    3.3555 H   0  0  0  0  0  0  0  0  0  0  0  0
   -1.9834    0.6897    2.7354 H   0  0  0  0  0  0  0  0  0  0  0  0
   -3.9752   -0.5259    4.0059 H   0  0  0  0  0  0  0  0  0  0  0  0
   -3.6008    1.1446    4.5059 H   0  0  0  0  0  0  0  0  0  0  0  0
   -2.6550   -1.4406    5.9150 H   0  0  0  0  0  0  0  0  0  0  0  0
   -3.5221   -0.0466    6.6633 H   0  0  0  0  0  0  0  0  0  0  0  0
    0.9844    2.0372    5.8686 H   0  0  0  0  0  0  0  0  0  0  0  0
    3.3486    2.3848    5.1085 H   0  0  0  0  0  0  0  0  0  0  0  0
    4.8884   -0.7600   -0.2211 H   0  0  0  0  0  0  0  0  0  0  0  0
    4.3230    0.6312   -1.1773 H   0  0  0  0  0  0  0  0  0  0  0  0
    4.8738   -0.4297   -3.1606 H   0  0  0  0  0  0  0  0  0  0  0  0
    6.7146   -1.6506   -1.5952 H   0  0  0  0  0  0  0  0  0  0  0  0
    6.3333   -2.3581   -3.1758 H   0  0  0  0  0  0  0  0  0  0  0  0
    5.1195   -3.1869   -0.4712 H   0  0  0  0  0  0  0  0  0  0  0  0
    5.9614   -4.2439   -1.6120 H   0  0  0  0  0  0  0  0  0  0  0  0
    3.2059   -4.0510   -1.6672 H   0  0  0  0  0  0  0  0  0  0  0  0
    4.1165   -4.1920   -3.1745 H   0  0  0  0  0  0  0  0  0  0  0  0
    3.3269   -2.1310   -3.8314 H   0  0  0  0  0  0  0  0  0  0  0  0
    1.5634   -2.3112   -1.6983 H   0  0  0  0  0  0  0  0  0  0  0  0
    1.7528   -0.8290   -2.6523 H   0  0  0  0  0  0  0  0  0  0  0  0
  1  2  2  0
  2  3  1  0
  2 18  1  0
  3  4  1  0
  3 26  1  0
  4  5  2  0
  4 16  1  0
  5  6  1  0
  5 27  1  0
  6  7  1  0
  6 14  2  0
  7  8  1  0
 11  7  1  6
  8  9  1  0
  8 28  1  0
  8 29  1  0
  9 10  1  0
  9 30  1  0
  9 31  1  0
 10 11  1  0
 10 32  1  0
 10 33  1  0
 11 12  2  0
 11 13  2  0
 14 15  1  0
 14 34  1  0
 15 16  2  0
 15 35  1  0
 16 17  1  0
 18 19  1  0
 18 25  1  0
 19 20  1  0
 19 36  1  0
 19 37  1  0
 20 21  1  0
 20 24  1  0
 20 38  1  6
 21 22  1  0
 21 39  1  0
 21 40  1  0
 22 23  1  0
 22 41  1  0
 22 42  1  0
 23 24  1  0
 23 43  1  0
 23 44  1  0
 24 25  1  0
 24 45  1  6
 25 46  1  0
 25 47  1  0
M  END

