
     RDKit          3D

 47 49  0  0  0  0  0  0  0  0999 V2000
    0.7180   -1.4247    1.8326 C   0  0  0  0  0  0  0  0  0  0  0  0
    1.6753   -2.3032    1.0292 C   0  0  0  0  0  0  0  0  0  0  0  0
    2.7346   -1.5281    0.3952 N   0  0  0  0  0  0  0  0  0  0  0  0
    4.0892   -1.7172    0.5404 C   0  0  0  0  0  0  0  0  0  0  0  0
    4.9965   -0.8133    0.3522 N   0  0  0  0  0  0  0  0  0  0  0  0
    4.6480    0.5747    0.1568 C   0  0  0  0  0  0  0  0  0  0  0  0
    4.5182    0.9536   -1.3282 C   0  0  0  0  0  0  0  0  0  0  0  0
    4.2927    2.4619   -1.5394 C   0  0  0  0  0  0  0  0  0  0  0  0
    4.0756    2.8553   -2.9626 C   0  0  0  0  0  0  0  0  0  0  0  0
    2.9103    3.1320   -3.5170 N   0  0  0  0  0  0  0  0  0  0  0  0
    3.0818    3.4165   -4.8308 N   0  0  0  0  0  0  0  0  0  0  0  0
    4.3755    3.3126   -5.0907 C   0  0  0  0  0  0  0  0  0  0  0  0
    5.1192    3.5044   -6.2869 C   0  0  0  0  0  0  0  0  0  0  0  0
    6.4800    3.3315   -6.2587 C   0  0  0  0  0  0  0  0  0  0  0  0
    7.1427    2.9641   -5.0422 C   0  0  0  0  0  0  0  0  0  0  0  0
    6.4292    2.7786   -3.8925 C   0  0  0  0  0  0  0  0  0  0  0  0
    5.0623    2.9513   -3.9221 N   0  0  0  0  0  0  0  0  0  0  0  0
    4.4523   -3.0167    0.9171 N   0  0  0  0  0  0  0  0  0  0  0  0
    4.2113   -4.0998   -0.0610 C   0  0  0  0  0  0  0  0  0  0  0  0
    5.6069   -4.4334   -0.6653 C   0  0  0  0  0  0  0  0  0  0  0  0
    6.6368   -3.6102    0.1667 C   0  0  1  0  0  0  0  0  0  0  0  0
    7.5125   -4.2307    0.4252 H   0  0  0  0  0  0  0  0  0  0  0  0
    7.1050   -2.4697   -0.5067 O   0  0  0  0  0  0  0  0  0  0  0  0
    5.8142   -3.2438    1.4145 C   0  0  0  0  0  0  0  0  0  0  0  0
   -0.0814   -2.0359    2.2809 H   0  0  0  0  0  0  0  0  0  0  0  0
    0.2325   -0.6675    1.1939 H   0  0  0  0  0  0  0  0  0  0  0  0
    1.2463   -0.8985    2.6434 H   0  0  0  0  0  0  0  0  0  0  0  0
    1.1069   -2.8726    0.2699 H   0  0  0  0  0  0  0  0  0  0  0  0
    2.1601   -3.0419    1.6819 H   0  0  0  0  0  0  0  0  0  0  0  0
    2.4498   -0.6582   -0.0379 H   0  0  0  0  0  0  0  0  0  0  0  0
    5.4447    1.1967    0.6039 H   0  0  0  0  0  0  0  0  0  0  0  0
    3.7128    0.8585    0.6861 H   0  0  0  0  0  0  0  0  0  0  0  0
    3.6841    0.3988   -1.7918 H   0  0  0  0  0  0  0  0  0  0  0  0
    5.4295    0.6187   -1.8524 H   0  0  0  0  0  0  0  0  0  0  0  0
    5.1406    3.0280   -1.1122 H   0  0  0  0  0  0  0  0  0  0  0  0
    3.3927    2.7845   -0.9936 H   0  0  0  0  0  0  0  0  0  0  0  0
    4.5776    3.7851   -7.1909 H   0  0  0  0  0  0  0  0  0  0  0  0
    7.0710    3.4726   -7.1661 H   0  0  0  0  0  0  0  0  0  0  0  0
    8.2248    2.8261   -5.0223 H   0  0  0  0  0  0  0  0  0  0  0  0
    6.8731    2.4956   -2.9377 H   0  0  0  0  0  0  0  0  0  0  0  0
    3.4777   -3.7752   -0.8114 H   0  0  0  0  0  0  0  0  0  0  0  0
    3.7894   -4.9774    0.4584 H   0  0  0  0  0  0  0  0  0  0  0  0
    5.6924   -4.1287   -1.7177 H   0  0  0  0  0  0  0  0  0  0  0  0
    5.8096   -5.5144   -0.6089 H   0  0  0  0  0  0  0  0  0  0  0  0
    6.4844   -1.7329   -0.2947 H   0  0  0  0  0  0  0  0  0  0  0  0
    6.1999   -2.3605    1.9367 H   0  0  0  0  0  0  0  0  0  0  0  0
    5.7817   -4.0937    2.1200 H   0  0  0  0  0  0  0  0  0  0  0  0
  1  2  1  0
  1 25  1  0
  1 26  1  0
  1 27  1  0
  2  3  1  0
  2 28  1  0
  2 29  1  0
  3  4  1  0
  3 30  1  0
  4  5  2  0
  4 18  1  0
  5  6  1  0
  6  7  1  0
  6 31  1  0
  6 32  1  0
  7  8  1  0
  7 33  1  0
  7 34  1  0
  8  9  1  0
  8 35  1  0
  8 36  1  0
  9 10  2  0
  9 17  1  0
 10 11  1  0
 11 12  2  0
 12 13  1  0
 12 17  1  0
 13 14  2  0
 13 37  1  0
 14 15  1  0
 14 38  1  0
 15 16  2  0
 15 39  1  0
 16 17  1  0
 16 40  1  0
 18 19  1  0
 18 24  1  0
 19 20  1  0
 19 41  1  0
 19 42  1  0
 20 21  1  0
 20 43  1  0
 20 44  1  0
 21 22  1  1
 21 23  1  0
 21 24  1  0
 23 45  1  0
 24 46  1  0
 24 47  1  0
M  END

