
     RDKit          3D

 88 89  0  0  0  0  0  0  0  0999 V2000
    4.4404    0.7064   -0.5318 O   0  0  0  0  0  0  0  0  0  0  0  0
    4.8167   -0.4377   -0.3629 C   0  0  0  0  0  0  0  0  0  0  0  0
    5.4291   -1.2888   -1.4554 C   0  0  0  0  0  0  0  0  0  0  0  0
    5.0638   -2.7773   -1.4316 C   0  0  0  0  0  0  0  0  0  0  0  0
    3.5806   -3.0562   -1.6942 C   0  0  0  0  0  0  0  0  0  0  0  0
    3.2388   -4.5482   -1.6870 C   0  0  0  0  0  0  0  0  0  0  0  0
    1.7657   -4.8863   -1.9613 C   0  0  1  0  0  0  0  0  0  0  0  0
    1.2181   -4.3462   -3.6489 S   0  0  0  0  0  0  0  0  0  0  0  0
    1.4128   -6.3646   -1.7239 C   0  0  0  0  0  0  0  0  0  0  0  0
    1.5029   -6.8251   -0.2610 C   0  0  0  0  0  0  0  0  0  0  0  0
    1.0464   -8.2731   -0.0814 C   0  0  0  0  0  0  0  0  0  0  0  0
    1.0534   -8.8712    1.6558 S   0  0  0  0  0  0  0  0  0  0  0  0
    4.7741   -1.0592    0.8212 O   0  0  0  0  0  0  0  0  0  0  0  0
    4.4199   -0.2348    2.0027 C   0  0  1  0  0  0  0  0  0  0  0  0
    2.9003   -0.1032    2.1001 C   0  0  0  0  0  0  0  0  0  0  0  0
    2.4283    1.1608    2.8281 C   0  0  0  0  0  0  0  0  0  0  0  0
    2.8095    2.4602    2.0954 C   0  0  0  0  0  0  0  0  0  0  0  0
    2.4563    2.4566    0.7342 O   0  0  0  0  0  0  0  0  0  0  0  0
    4.9870   -0.7966    3.1724 N   0  0  0  0  0  0  0  0  0  0  0  0
    6.4352   -0.9622    3.2332 C   0  0  0  0  0  0  0  0  0  0  0  0
    7.1662    0.3893    3.3332 C   0  0  0  0  0  0  0  0  0  0  0  0
    8.6578    0.2110    3.5219 C   0  0  0  0  0  0  0  0  0  0  0  0
    9.1797    0.1834    4.6165 O   0  0  0  0  0  0  0  0  0  0  0  0
    9.4807    0.0629    2.3852 N   0  0  0  0  0  0  0  0  0  0  0  0
   10.9333   -0.0308    2.5815 C   0  0  0  0  0  0  0  0  0  0  0  0
   11.5149    0.2265    1.1894 C   0  0  2  0  0  0  0  0  0  0  0  0
   11.7267    1.6275    1.0705 O   0  0  0  0  0  0  0  0  0  0  0  0
   12.4395    2.0484   -0.0073 C   0  0  0  0  0  0  0  0  0  0  0  0
   12.3611    3.3090   -0.4725 C   0  0  0  0  0  0  0  0  0  0  0  0
   13.1718    3.8083   -1.5689 C   0  0  0  0  0  0  0  0  0  0  0  0
   13.1155    5.0622   -2.0596 C   0  0  0  0  0  0  0  0  0  0  0  0
   13.9388    5.5835   -3.2023 C   0  0  0  0  0  0  0  0  0  0  0  0
   14.8083    6.7930   -2.8186 C   0  0  1  0  0  0  0  0  0  0  0  0
   15.9099    6.5028   -1.7909 C   0  0  0  0  0  0  0  0  0  0  0  0
   16.9650    7.6029   -1.9249 C   0  0  0  0  0  0  0  0  0  0  0  0
   17.2885    7.7225   -3.4176 C   0  0  0  0  0  0  0  0  0  0  0  0
   15.6892    7.4828   -4.3103 S   0  0  0  0  0  0  0  0  0  0  0  0
   10.4061   -0.2500    0.2469 C   0  0  0  0  0  0  0  0  0  0  0  0
    9.1188   -0.0515    1.0384 C   0  0  0  0  0  0  0  0  0  0  0  0
    7.9951   -0.0400    0.5886 O   0  0  0  0  0  0  0  0  0  0  0  0
    6.5189   -1.1641   -1.3299 H   0  0  0  0  0  0  0  0  0  0  0  0
    5.1571   -0.8197   -2.4128 H   0  0  0  0  0  0  0  0  0  0  0  0
    5.3598   -3.2055   -0.4595 H   0  0  0  0  0  0  0  0  0  0  0  0
    5.6718   -3.2930   -2.1958 H   0  0  0  0  0  0  0  0  0  0  0  0
    3.2847   -2.6205   -2.6629 H   0  0  0  0  0  0  0  0  0  0  0  0
    2.9699   -2.5461   -0.9269 H   0  0  0  0  0  0  0  0  0  0  0  0
    3.5127   -4.9670   -0.7021 H   0  0  0  0  0  0  0  0  0  0  0  0
    3.8672   -5.0807   -2.4255 H   0  0  0  0  0  0  0  0  0  0  0  0
    1.1300   -4.2653   -1.3052 H   0  0  0  0  0  0  0  0  0  0  0  0
    2.0050   -5.2076   -4.3381 H   0  0  0  0  0  0  0  0  0  0  0  0
    2.0692   -6.9943   -2.3535 H   0  0  0  0  0  0  0  0  0  0  0  0
    0.3872   -6.5339   -2.0903 H   0  0  0  0  0  0  0  0  0  0  0  0
    0.8827   -6.1731    0.3781 H   0  0  0  0  0  0  0  0  0  0  0  0
    2.5362   -6.7295    0.1138 H   0  0  0  0  0  0  0  0  0  0  0  0
    1.6444   -8.9594   -0.7021 H   0  0  0  0  0  0  0  0  0  0  0  0
   -0.0014   -8.3913   -0.4019 H   0  0  0  0  0  0  0  0  0  0  0  0
    2.3951   -8.8279    1.8322 H   0  0  0  0  0  0  0  0  0  0  0  0
    4.8773    0.7426    1.8013 H   0  0  0  0  0  0  0  0  0  0  0  0
    2.4944   -1.0078    2.5860 H   0  0  0  0  0  0  0  0  0  0  0  0
    2.4861   -0.0768    1.0825 H   0  0  0  0  0  0  0  0  0  0  0  0
    2.8339    1.1888    3.8546 H   0  0  0  0  0  0  0  0  0  0  0  0
    1.3298    1.1135    2.9148 H   0  0  0  0  0  0  0  0  0  0  0  0
    3.8907    2.6692    2.2325 H   0  0  0  0  0  0  0  0  0  0  0  0
    2.2781    3.3014    2.5727 H   0  0  0  0  0  0  0  0  0  0  0  0
    3.1265    1.9517    0.2411 H   0  0  0  0  0  0  0  0  0  0  0  0
    4.5055   -1.6501    3.4461 H   0  0  0  0  0  0  0  0  0  0  0  0
    6.8242   -1.5229    2.3635 H   0  0  0  0  0  0  0  0  0  0  0  0
    6.6621   -1.5473    4.1384 H   0  0  0  0  0  0  0  0  0  0  0  0
    6.8087    0.9217    4.2256 H   0  0  0  0  0  0  0  0  0  0  0  0
    6.9656    0.9917    2.4381 H   0  0  0  0  0  0  0  0  0  0  0  0
   11.2095   -1.0277    2.9632 H   0  0  0  0  0  0  0  0  0  0  0  0
   11.2745    0.7173    3.3078 H   0  0  0  0  0  0  0  0  0  0  0  0
   12.4692   -0.3079    1.0388 H   0  0  0  0  0  0  0  0  0  0  0  0
   13.1194    1.3061   -0.4493 H   0  0  0  0  0  0  0  0  0  0  0  0
   11.6550    3.9928    0.0104 H   0  0  0  0  0  0  0  0  0  0  0  0
   13.8723    3.0969   -2.0264 H   0  0  0  0  0  0  0  0  0  0  0  0
   12.4150    5.7726   -1.5999 H   0  0  0  0  0  0  0  0  0  0  0  0
   13.2658    5.8913   -4.0243 H   0  0  0  0  0  0  0  0  0  0  0  0
   14.5858    4.7887   -3.6097 H   0  0  0  0  0  0  0  0  0  0  0  0
   14.1532    7.5938   -2.4351 H   0  0  0  0  0  0  0  0  0  0  0  0
   16.3637    5.5203   -2.0122 H   0  0  0  0  0  0  0  0  0  0  0  0
   15.4931    6.4442   -0.7725 H   0  0  0  0  0  0  0  0  0  0  0  0
   17.8713    7.3850   -1.3355 H   0  0  0  0  0  0  0  0  0  0  0  0
   16.5555    8.5586   -1.5559 H   0  0  0  0  0  0  0  0  0  0  0  0
   18.0021    6.9463   -3.7367 H   0  0  0  0  0  0  0  0  0  0  0  0
   17.7072    8.7036   -3.6860 H   0  0  0  0  0  0  0  0  0  0  0  0
   10.5021   -1.3265    0.0216 H   0  0  0  0  0  0  0  0  0  0  0  0
   10.3676    0.2905   -0.7091 H   0  0  0  0  0  0  0  0  0  0  0  0
  1  2  2  0
  2  3  1  0
  2 13  1  0
  3  4  1  0
  3 41  1  0
  3 42  1  0
  4  5  1  0
  4 43  1  0
  4 44  1  0
  5  6  1  0
  5 45  1  0
  5 46  1  0
  6  7  1  0
  6 47  1  0
  6 48  1  0
  7  8  1  0
  7  9  1  0
  7 49  1  1
  8 50  1  0
  9 10  1  0
  9 51  1  0
  9 52  1  0
 10 11  1  0
 10 53  1  0
 10 54  1  0
 11 12  1  0
 11 55  1  0
 11 56  1  0
 12 57  1  0
 13 14  1  0
 14 15  1  0
 14 19  1  0
 14 58  1  6
 15 16  1  0
 15 59  1  0
 15 60  1  0
 16 17  1  0
 16 61  1  0
 16 62  1  0
 17 18  1  0
 17 63  1  0
 17 64  1  0
 18 65  1  0
 19 20  1  0
 19 66  1  0
 20 21  1  0
 20 67  1  0
 20 68  1  0
 21 22  1  0
 21 69  1  0
 21 70  1  0
 22 23  2  0
 22 24  1  0
 24 25  1  0
 24 39  1  0
 25 26  1  0
 25 71  1  0
 25 72  1  0
 26 27  1  0
 26 38  1  0
 26 73  1  6
 27 28  1  0
 28 29  2  0
 28 74  1  0
 29 30  1  0
 29 75  1  0
 30 31  2  0
 30 76  1  0
 31 32  1  0
 31 77  1  0
 32 33  1  0
 32 78  1  0
 32 79  1  0
 33 34  1  0
 33 37  1  0
 33 80  1  1
 34 35  1  0
 34 81  1  0
 34 82  1  0
 35 36  1  0
 35 83  1  0
 35 84  1  0
 36 37  1  0
 36 85  1  0
 36 86  1  0
 38 39  1  0
 38 87  1  0
 38 88  1  0
 39 40  2  0
M  END

