
     RDKit          3D

 58 62  0  0  0  0  0  0  0  0999 V2000
    3.5104   -1.4110   -3.3111 O   0  0  0  0  0  0  0  0  0  0  0  0
    3.2904   -1.1004   -2.1631 C   0  0  0  0  0  0  0  0  0  0  0  0
    3.2333   -2.0082   -0.9339 C   0  0  1  0  0  0  0  0  0  0  0  0
    2.1871   -2.3663   -0.9287 H   0  0  0  0  0  0  0  0  0  0  0  0
    4.1536   -3.2336   -0.9716 C   0  0  0  0  0  0  0  0  0  0  0  0
    5.5891   -2.9346   -0.5260 C   0  0  0  0  0  0  0  0  0  0  0  0
    5.6069   -2.1974    0.8175 C   0  0  0  0  0  0  0  0  0  0  0  0
    4.8756   -0.8574    0.7028 C   0  0  0  0  0  0  0  0  0  0  0  0
    3.4050   -1.0186    0.2409 C   0  0  1  0  0  0  0  0  0  0  0  0
    2.7774   -1.2806    1.1059 H   0  0  0  0  0  0  0  0  0  0  0  0
    2.9340    0.3105   -0.3440 C   0  0  0  0  0  0  0  0  0  0  0  0
    2.6435    1.3215    0.2499 O   0  0  0  0  0  0  0  0  0  0  0  0
    2.9762    0.1901   -1.7374 N   0  0  0  0  0  0  0  0  0  0  0  0
    2.7282    1.2996   -2.6483 C   0  0  0  0  0  0  0  0  0  0  0  0
    4.0261    1.9114   -3.1824 C   0  0  0  0  0  0  0  0  0  0  0  0
    3.7298    3.0841   -4.1182 C   0  0  0  0  0  0  0  0  0  0  0  0
    2.5835    3.3296   -4.4562 O   0  0  0  0  0  0  0  0  0  0  0  0
    4.7998    3.8695   -4.5106 N   0  0  0  0  0  0  0  0  0  0  0  0
    6.1650    3.3308   -4.5673 C   0  0  0  0  0  0  0  0  0  0  0  0
    6.4290    2.6729   -5.9311 C   0  0  0  0  0  0  0  0  0  0  0  0
    6.1120    3.6310   -7.0909 C   0  0  0  0  0  0  0  0  0  0  0  0
    4.7305    4.2874   -6.9459 C   0  0  0  0  0  0  0  0  0  0  0  0
    4.6003    4.9078   -5.5484 C   0  0  1  0  0  0  0  0  0  0  0  0
    5.4589    5.5944   -5.4120 H   0  0  0  0  0  0  0  0  0  0  0  0
    3.3764    5.7637   -5.3668 C   0  0  0  0  0  0  0  0  0  0  0  0
    2.6439    6.2239   -6.3462 N   0  0  0  0  0  0  0  0  0  0  0  0
    1.7158    7.0610   -5.7493 C   0  0  0  0  0  0  0  0  0  0  0  0
    0.6759    7.8118   -6.3168 C   0  0  0  0  0  0  0  0  0  0  0  0
   -0.1259    8.5729   -5.4671 C   0  0  0  0  0  0  0  0  0  0  0  0
    0.0947    8.5945   -4.0738 C   0  0  0  0  0  0  0  0  0  0  0  0
    1.1257    7.8581   -3.4875 C   0  0  0  0  0  0  0  0  0  0  0  0
    1.9275    7.0993   -4.3455 C   0  0  0  0  0  0  0  0  0  0  0  0
    3.0203    6.2784   -4.1392 N   0  0  0  0  0  0  0  0  0  0  0  0
    3.3953    5.9823   -3.2477 H   0  0  0  0  0  0  0  0  0  0  0  0
    4.1356   -3.6495   -1.9916 H   0  0  0  0  0  0  0  0  0  0  0  0
    3.7301   -4.0053   -0.3063 H   0  0  0  0  0  0  0  0  0  0  0  0
    6.0982   -2.3155   -1.2874 H   0  0  0  0  0  0  0  0  0  0  0  0
    6.1590   -3.8758   -0.4622 H   0  0  0  0  0  0  0  0  0  0  0  0
    6.6431   -2.0242    1.1517 H   0  0  0  0  0  0  0  0  0  0  0  0
    5.1288   -2.8240    1.5929 H   0  0  0  0  0  0  0  0  0  0  0  0
    5.4183   -0.2313   -0.0290 H   0  0  0  0  0  0  0  0  0  0  0  0
    4.8891   -0.3005    1.6524 H   0  0  0  0  0  0  0  0  0  0  0  0
    2.1450    2.0476   -2.0960 H   0  0  0  0  0  0  0  0  0  0  0  0
    2.1160    0.9382   -3.4850 H   0  0  0  0  0  0  0  0  0  0  0  0
    4.5905    1.1356   -3.7256 H   0  0  0  0  0  0  0  0  0  0  0  0
    4.6608    2.2472   -2.3455 H   0  0  0  0  0  0  0  0  0  0  0  0
    6.3292    2.6239   -3.7453 H   0  0  0  0  0  0  0  0  0  0  0  0
    6.8673    4.1675   -4.4077 H   0  0  0  0  0  0  0  0  0  0  0  0
    5.7995    1.7689   -6.0124 H   0  0  0  0  0  0  0  0  0  0  0  0
    7.4773    2.3336   -5.9827 H   0  0  0  0  0  0  0  0  0  0  0  0
    6.1826    3.0962   -8.0518 H   0  0  0  0  0  0  0  0  0  0  0  0
    6.8829    4.4232   -7.1221 H   0  0  0  0  0  0  0  0  0  0  0  0
    3.9196    3.5525   -7.0777 H   0  0  0  0  0  0  0  0  0  0  0  0
    4.5747    5.0660   -7.7058 H   0  0  0  0  0  0  0  0  0  0  0  0
    0.5084    7.7876   -7.3956 H   0  0  0  0  0  0  0  0  0  0  0  0
   -0.9446    9.1646   -5.8845 H   0  0  0  0  0  0  0  0  0  0  0  0
   -0.5562    9.2009   -3.4387 H   0  0  0  0  0  0  0  0  0  0  0  0
    1.2921    7.8776   -2.4077 H   0  0  0  0  0  0  0  0  0  0  0  0
  1  2  2  0
  2  3  1  0
  2 13  1  0
  3  4  1  1
  3  5  1  0
  3  9  1  0
  5  6  1  0
  5 35  1  0
  5 36  1  0
  6  7  1  0
  6 37  1  0
  6 38  1  0
  7  8  1  0
  7 39  1  0
  7 40  1  0
  8  9  1  0
  8 41  1  0
  8 42  1  0
  9 10  1  1
  9 11  1  0
 11 12  2  0
 11 13  1  0
 13 14  1  0
 14 15  1  0
 14 43  1  0
 14 44  1  0
 15 16  1  0
 15 45  1  0
 15 46  1  0
 16 17  2  0
 16 18  1  0
 18 19  1  0
 18 23  1  0
 19 20  1  0
 19 47  1  0
 19 48  1  0
 20 21  1  0
 20 49  1  0
 20 50  1  0
 21 22  1  0
 21 51  1  0
 21 52  1  0
 22 23  1  0
 22 53  1  0
 22 54  1  0
 23 24  1  1
 23 25  1  0
 25 26  2  0
 25 33  1  0
 26 27  1  0
 27 28  2  0
 27 32  1  0
 28 29  1  0
 28 55  1  0
 29 30  2  0
 29 56  1  0
 30 31  1  0
 30 57  1  0
 31 32  2  0
 31 58  1  0
 32 33  1  0
 33 34  1  0
M  END

