
     RDKit          3D

 52 56  0  0  0  0  0  0  0  0999 V2000
    3.6009   -1.4270   -2.9223 C   0  0  0  0  0  0  0  0  0  0  0  0
    3.3172   -1.0579   -1.4585 C   0  0  1  0  0  0  0  0  0  0  0  0
    3.4632    0.4630   -1.2684 C   0  0  0  0  0  0  0  0  0  0  0  0
    1.9013   -1.5147   -1.0612 C   0  0  0  0  0  0  0  0  0  0  0  0
    4.3202   -1.7877   -0.6461 N   0  0  0  0  0  0  0  0  0  0  0  0
    4.4314   -1.7534    0.7130 C   0  0  0  0  0  0  0  0  0  0  0  0
    3.7577   -1.0334    1.4350 O   0  0  0  0  0  0  0  0  0  0  0  0
    5.3845   -2.7740    1.3168 C   0  0  0  0  0  0  0  0  0  0  0  0
    5.2618   -4.0886    0.8787 C   0  0  0  0  0  0  0  0  0  0  0  0
    5.8360   -5.1663    1.5851 C   0  0  0  0  0  0  0  0  0  0  0  0
    6.4468   -4.9245    2.7957 C   0  0  0  0  0  0  0  0  0  0  0  0
    6.5782   -3.6001    3.2908 C   0  0  0  0  0  0  0  0  0  0  0  0
    7.0750   -3.3694    4.6079 C   0  0  0  0  0  0  0  0  0  0  0  0
    7.0749   -2.1103    5.1413 C   0  0  0  0  0  0  0  0  0  0  0  0
    6.7597   -0.9682    4.3420 C   0  0  0  0  0  0  0  0  0  0  0  0
    6.7308    0.3777    4.9189 C   0  0  0  0  0  0  0  0  0  0  0  0
    6.7700    0.5744    6.3191 C   0  0  0  0  0  0  0  0  0  0  0  0
    6.6426    1.8423    6.8626 C   0  0  0  0  0  0  0  0  0  0  0  0
    6.6797    2.0500    8.5990 Cl  0  0  0  0  0  0  0  0  0  0  0  0
    6.4659    2.9643    6.0374 C   0  0  0  0  0  0  0  0  0  0  0  0
    6.4400    2.7860    4.6641 C   0  0  0  0  0  0  0  0  0  0  0  0
    6.5846    1.5110    4.0712 C   0  0  0  0  0  0  0  0  0  0  0  0
    6.6562    1.3236    2.6251 C   0  0  0  0  0  0  0  0  0  0  0  0
    6.8408    2.4117    1.7418 C   0  0  0  0  0  0  0  0  0  0  0  0
    7.0451    2.2329    0.3832 C   0  0  0  0  0  0  0  0  0  0  0  0
    7.1000    0.9247   -0.1186 C   0  0  0  0  0  0  0  0  0  0  0  0
    7.4437    0.6678   -1.8194 Cl  0  0  0  0  0  0  0  0  0  0  0  0
    6.9005   -0.1657    0.7099 C   0  0  0  0  0  0  0  0  0  0  0  0
    6.6250    0.0050    2.0869 C   0  0  0  0  0  0  0  0  0  0  0  0
    6.4707   -1.1489    2.9731 C   0  0  0  0  0  0  0  0  0  0  0  0
    6.1558   -2.4843    2.4964 C   0  0  0  0  0  0  0  0  0  0  0  0
    2.8884   -0.9186   -3.5887 H   0  0  0  0  0  0  0  0  0  0  0  0
    3.5015   -2.5128   -3.0884 H   0  0  0  0  0  0  0  0  0  0  0  0
    4.6177   -1.1172   -3.2146 H   0  0  0  0  0  0  0  0  0  0  0  0
    2.7099    0.9906   -1.8751 H   0  0  0  0  0  0  0  0  0  0  0  0
    4.4604    0.7993   -1.5886 H   0  0  0  0  0  0  0  0  0  0  0  0
    3.3209    0.7345   -0.2143 H   0  0  0  0  0  0  0  0  0  0  0  0
    1.1473   -0.9949   -1.6732 H   0  0  0  0  0  0  0  0  0  0  0  0
    1.7077   -1.2902   -0.0033 H   0  0  0  0  0  0  0  0  0  0  0  0
    1.7823   -2.5990   -1.2174 H   0  0  0  0  0  0  0  0  0  0  0  0
    4.9922   -2.3534   -1.1500 H   0  0  0  0  0  0  0  0  0  0  0  0
    4.6395   -4.3013    0.0065 H   0  0  0  0  0  0  0  0  0  0  0  0
    5.7282   -6.1857    1.2072 H   0  0  0  0  0  0  0  0  0  0  0  0
    6.8151   -5.7508    3.4095 H   0  0  0  0  0  0  0  0  0  0  0  0
    7.4000   -4.2247    5.2056 H   0  0  0  0  0  0  0  0  0  0  0  0
    7.3824   -1.9754    6.1778 H   0  0  0  0  0  0  0  0  0  0  0  0
    6.8685   -0.2691    6.9996 H   0  0  0  0  0  0  0  0  0  0  0  0
    6.3469    3.9546    6.4792 H   0  0  0  0  0  0  0  0  0  0  0  0
    6.2929    3.6637    4.0343 H   0  0  0  0  0  0  0  0  0  0  0  0
    6.8637    3.4289    2.1333 H   0  0  0  0  0  0  0  0  0  0  0  0
    7.1994    3.0845   -0.2809 H   0  0  0  0  0  0  0  0  0  0  0  0
    7.0035   -1.1649    0.2943 H   0  0  0  0  0  0  0  0  0  0  0  0
  1  2  1  0
  1 32  1  0
  1 33  1  0
  1 34  1  0
  2  3  1  0
  2  4  1  0
  2  5  1  1
  3 35  1  0
  3 36  1  0
  3 37  1  0
  4 38  1  0
  4 39  1  0
  4 40  1  0
  5  6  1  0
  5 41  1  0
  6  7  2  0
  6  8  1  0
  8  9  2  0
  8 31  1  0
  9 10  1  0
  9 42  1  0
 10 11  2  0
 10 43  1  0
 11 12  1  0
 11 44  1  0
 12 13  1  0
 12 31  2  0
 13 14  2  0
 13 45  1  0
 14 15  1  0
 14 46  1  0
 15 16  1  0
 15 30  2  0
 16 17  2  0
 16 22  1  0
 17 18  1  0
 17 47  1  0
 18 19  1  0
 18 20  2  0
 20 21  1  0
 20 48  1  0
 21 22  2  0
 21 49  1  0
 22 23  1  0
 23 24  1  0
 23 29  2  0
 24 25  2  0
 24 50  1  0
 25 26  1  0
 25 51  1  0
 26 27  1  0
 26 28  2  0
 28 29  1  0
 28 52  1  0
 29 30  1  0
 30 31  1  0
M  END

