
     RDKit          3D

 29 30  0  0  0  0  0  0  0  0999 V2000
    3.4753    0.9888   -0.1397 C   0  0  0  0  0  0  0  0  0  0  0  0
    3.0312   -0.7350    0.0991 S   0  0  1  0  0  0  0  0  0  0  0  0
    1.5960   -0.8207    0.3672 O   0  0  0  0  0  0  0  0  0  0  0  0
    3.6785   -1.5089   -0.9576 O   0  0  0  0  0  0  0  0  0  0  0  0
    3.7891   -1.0784    1.6177 N   0  0  0  0  0  0  0  0  0  0  0  0
    5.0298   -1.6893    1.6475 C   0  0  0  0  0  0  0  0  0  0  0  0
    6.1315   -0.8769    1.6304 O   0  0  0  0  0  0  0  0  0  0  0  0
    7.2588   -1.6603    1.6367 C   0  0  0  0  0  0  0  0  0  0  0  0
    8.5262   -0.9363    1.7121 C   0  0  0  0  0  0  0  0  0  0  0  0
    8.5416    0.3278    2.3498 C   0  0  0  0  0  0  0  0  0  0  0  0
    9.6987    1.0875    2.4767 C   0  0  0  0  0  0  0  0  0  0  0  0
   10.8936    0.5831    1.9655 C   0  0  0  0  0  0  0  0  0  0  0  0
   12.0198    1.2938    2.0904 F   0  0  0  0  0  0  0  0  0  0  0  0
   10.9390   -0.6460    1.3178 C   0  0  0  0  0  0  0  0  0  0  0  0
    9.7582   -1.3803    1.1860 C   0  0  0  0  0  0  0  0  0  0  0  0
    9.8748   -2.8734    0.2560 Cl  0  0  0  0  0  0  0  0  0  0  0  0
    6.8641   -2.9869    1.6910 C   0  0  0  0  0  0  0  0  0  0  0  0
    7.5399   -4.1511    1.7887 O   0  0  0  0  0  0  0  0  0  0  0  0
    5.4337   -2.9994    1.6703 C   0  0  0  0  0  0  0  0  0  0  0  0
    4.6537   -4.0951    1.7019 O   0  0  0  0  0  0  0  0  0  0  0  0
    3.0489    1.2880   -1.1069 H   0  0  0  0  0  0  0  0  0  0  0  0
    4.5701    1.0625   -0.1554 H   0  0  0  0  0  0  0  0  0  0  0  0
    3.0443    1.5749    0.6810 H   0  0  0  0  0  0  0  0  0  0  0  0
    3.0790   -1.4459    2.2504 H   0  0  0  0  0  0  0  0  0  0  0  0
    7.6030    0.7034    2.7586 H   0  0  0  0  0  0  0  0  0  0  0  0
    9.6922    2.0577    2.9763 H   0  0  0  0  0  0  0  0  0  0  0  0
   11.8781   -1.0130    0.9035 H   0  0  0  0  0  0  0  0  0  0  0  0
    8.4387   -4.0443    1.4328 H   0  0  0  0  0  0  0  0  0  0  0  0
    5.2333   -4.8718    1.6794 H   0  0  0  0  0  0  0  0  0  0  0  0
  1  2  1  0
  1 21  1  0
  1 22  1  0
  1 23  1  0
  2  3  2  0
  2  4  2  0
  2  5  1  1
  5  6  1  0
  5 24  1  0
  6  7  1  0
  6 19  2  0
  7  8  1  0
  8  9  1  0
  8 17  2  0
  9 10  2  0
  9 15  1  0
 10 11  1  0
 10 25  1  0
 11 12  2  0
 11 26  1  0
 12 13  1  0
 12 14  1  0
 14 15  2  0
 14 27  1  0
 15 16  1  0
 17 18  1  0
 17 19  1  0
 18 28  1  0
 19 20  1  0
 20 29  1  0
M  END

