
     RDKit          3D

 32 34  0  0  0  0  0  0  0  0999 V2000
    1.0848   -0.0615    0.1250 C   0  0  0  0  0  0  0  0  0  0  0  0
    2.5677   -0.0112   -0.1247 C   0  0  0  0  0  0  0  0  0  0  0  0
    3.2888    1.1872   -0.2394 C   0  0  0  0  0  0  0  0  0  0  0  0
    4.6632    1.2017   -0.4731 C   0  0  0  0  0  0  0  0  0  0  0  0
    5.3774   -0.0034   -0.6035 C   0  0  0  0  0  0  0  0  0  0  0  0
    6.8255    0.0354   -0.8504 C   0  0  0  0  0  0  0  0  0  0  0  0
    7.5220    1.1308   -1.0059 N   0  0  0  0  0  0  0  0  0  0  0  0
    8.8471    0.8734   -1.2194 C   0  0  0  0  0  0  0  0  0  0  0  0
    9.2158   -0.4495   -1.2311 C   0  0  0  0  0  0  0  0  0  0  0  0
    7.8063   -1.4295   -0.9541 S   0  0  0  0  0  0  0  0  0  0  0  0
   10.6094   -0.9477   -1.4842 C   0  0  0  0  0  0  0  0  0  0  0  0
   11.6095    0.2204   -1.3689 C   0  0  0  0  0  0  0  0  0  0  0  0
   11.1052    1.4885   -2.0695 C   0  0  0  0  0  0  0  0  0  0  0  0
    9.8172    2.0133   -1.4304 C   0  0  1  0  0  0  0  0  0  0  0  0
    9.2564    3.0142   -2.2525 O   0  0  0  0  0  0  0  0  0  0  0  0
    4.6737   -1.2161   -0.4923 C   0  0  0  0  0  0  0  0  0  0  0  0
    3.3059   -1.1947   -0.2585 C   0  0  0  0  0  0  0  0  0  0  0  0
    2.6532   -2.3669   -0.1564 F   0  0  0  0  0  0  0  0  0  0  0  0
    0.6685    0.9498    0.2355 H   0  0  0  0  0  0  0  0  0  0  0  0
    0.8516   -0.6337    1.0378 H   0  0  0  0  0  0  0  0  0  0  0  0
    0.5566   -0.5626   -0.7032 H   0  0  0  0  0  0  0  0  0  0  0  0
    2.7518    2.1345   -0.1402 H   0  0  0  0  0  0  0  0  0  0  0  0
    5.2056    2.1438   -0.5566 H   0  0  0  0  0  0  0  0  0  0  0  0
   10.6656   -1.3931   -2.4951 H   0  0  0  0  0  0  0  0  0  0  0  0
   10.8768   -1.7545   -0.7812 H   0  0  0  0  0  0  0  0  0  0  0  0
   12.5801   -0.0869   -1.7892 H   0  0  0  0  0  0  0  0  0  0  0  0
   11.7875    0.4391   -0.3009 H   0  0  0  0  0  0  0  0  0  0  0  0
   10.8852    1.2803   -3.1310 H   0  0  0  0  0  0  0  0  0  0  0  0
   11.8719    2.2787   -2.0504 H   0  0  0  0  0  0  0  0  0  0  0  0
   10.0629    2.4383   -0.4313 H   0  0  0  0  0  0  0  0  0  0  0  0
    8.3256    3.0906   -1.9935 H   0  0  0  0  0  0  0  0  0  0  0  0
    5.1685   -2.1849   -0.5870 H   0  0  0  0  0  0  0  0  0  0  0  0
  1  2  1  0
  1 19  1  0
  1 20  1  0
  1 21  1  0
  2  3  2  0
  2 17  1  0
  3  4  1  0
  3 22  1  0
  4  5  2  0
  4 23  1  0
  5  6  1  0
  5 16  1  0
  6  7  2  0
  6 10  1  0
  7  8  1  0
  8  9  2  0
  8 14  1  0
  9 10  1  0
  9 11  1  0
 11 12  1  0
 11 24  1  0
 11 25  1  0
 12 13  1  0
 12 26  1  0
 12 27  1  0
 13 14  1  0
 13 28  1  0
 13 29  1  0
 14 15  1  0
 14 30  1  1
 15 31  1  0
 16 17  2  0
 16 32  1  0
 17 18  1  0
M  END

