
     RDKit          3D

 34 36  0  0  0  0  0  0  0  0999 V2000
    4.3586   -0.7940    4.7608 C   0  0  0  0  0  0  0  0  0  0  0  0
    4.3764    0.1377    3.5951 C   0  0  0  0  0  0  0  0  0  0  0  0
    5.1426    0.0467    2.5204 N   0  0  0  0  0  0  0  0  0  0  0  0
    4.8012    1.1480    1.7975 C   0  0  0  0  0  0  0  0  0  0  0  0
    5.4527    1.5411    0.1961 S   0  0  0  0  0  0  0  0  0  0  0  0
    7.0367    0.6978    0.2429 C   0  0  0  0  0  0  0  0  0  0  0  0
    8.1451    1.2925    0.8803 C   0  0  0  0  0  0  0  0  0  0  0  0
    7.9792    2.7891    1.7650 Cl  0  0  0  0  0  0  0  0  0  0  0  0
    9.4081    0.6982    0.8340 C   0  0  0  0  0  0  0  0  0  0  0  0
    9.5747   -0.4996    0.1391 C   0  0  0  0  0  0  0  0  0  0  0  0
    8.4853   -1.1035   -0.4872 C   0  0  0  0  0  0  0  0  0  0  0  0
    7.2066   -0.5294   -0.4365 C   0  0  0  0  0  0  0  0  0  0  0  0
    6.0495   -1.2380   -1.1110 C   0  0  0  0  0  0  0  0  0  0  0  0
    5.8014   -0.7251   -2.4573 N   0  0  0  0  0  0  0  0  0  0  0  0
    4.7592   -1.4172   -3.1598 C   0  0  1  0  0  0  0  0  0  0  0  0
    4.7526   -1.3285   -4.6615 C   0  0  0  0  0  0  0  0  0  0  0  0
    5.1445   -2.6196   -3.9863 C   0  0  0  0  0  0  0  0  0  0  0  0
    3.8719    1.9155    2.3459 N   0  0  0  0  0  0  0  0  0  0  0  0
    3.6053    1.2474    3.4902 N   0  0  0  0  0  0  0  0  0  0  0  0
    2.9129    1.6068    4.1381 H   0  0  0  0  0  0  0  0  0  0  0  0
    4.4694   -1.8294    4.4097 H   0  0  0  0  0  0  0  0  0  0  0  0
    3.4224   -0.7104    5.3325 H   0  0  0  0  0  0  0  0  0  0  0  0
    5.1988   -0.5837    5.4430 H   0  0  0  0  0  0  0  0  0  0  0  0
   10.2459    1.1826    1.3378 H   0  0  0  0  0  0  0  0  0  0  0  0
   10.5628   -0.9643    0.0925 H   0  0  0  0  0  0  0  0  0  0  0  0
    8.6192   -2.0455   -1.0243 H   0  0  0  0  0  0  0  0  0  0  0  0
    5.1593   -1.1759   -0.4528 H   0  0  0  0  0  0  0  0  0  0  0  0
    6.3009   -2.3067   -1.2044 H   0  0  0  0  0  0  0  0  0  0  0  0
    5.5792    0.2695   -2.4037 H   0  0  0  0  0  0  0  0  0  0  0  0
    3.7711   -1.4712   -2.6695 H   0  0  0  0  0  0  0  0  0  0  0  0
    5.5519   -0.7386   -5.1178 H   0  0  0  0  0  0  0  0  0  0  0  0
    3.7882   -1.2747   -5.1744 H   0  0  0  0  0  0  0  0  0  0  0  0
    6.2049   -2.8863   -3.9952 H   0  0  0  0  0  0  0  0  0  0  0  0
    4.4536   -3.4664   -4.0298 H   0  0  0  0  0  0  0  0  0  0  0  0
  1  2  1  0
  1 21  1  0
  1 22  1  0
  1 23  1  0
  2  3  2  0
  2 19  1  0
  3  4  1  0
  4  5  1  0
  4 18  2  0
  5  6  1  0
  6  7  2  0
  6 12  1  0
  7  8  1  0
  7  9  1  0
  9 10  2  0
  9 24  1  0
 10 11  1  0
 10 25  1  0
 11 12  2  0
 11 26  1  0
 12 13  1  0
 13 14  1  0
 13 27  1  0
 13 28  1  0
 14 15  1  0
 14 29  1  0
 15 16  1  0
 15 17  1  0
 15 30  1  1
 16 17  1  0
 16 31  1  0
 16 32  1  0
 17 33  1  0
 17 34  1  0
 18 19  1  0
 19 20  1  0
M  END

