
     RDKit          3D

 31 33  0  0  0  0  0  0  0  0999 V2000
    2.0451    0.5616   -2.3743 N   0  0  0  0  0  0  0  0  0  0  0  0
    3.0318    0.3243   -1.8083 C   0  0  0  0  0  0  0  0  0  0  0  0
    4.2301    0.0062   -1.1104 C   0  0  0  0  0  0  0  0  0  0  0  0
    5.2421    0.8811   -1.0164 N   0  0  0  0  0  0  0  0  0  0  0  0
    6.1558    0.2429   -0.3281 N   0  0  0  0  0  0  0  0  0  0  0  0
    7.4087    0.8327   -0.0025 C   0  0  0  0  0  0  0  0  0  0  0  0
    7.5228    1.7080    1.0912 C   0  0  0  0  0  0  0  0  0  0  0  0
    6.1240    2.0711    2.0560 Cl  0  0  0  0  0  0  0  0  0  0  0  0
    8.7530    2.2862    1.4144 C   0  0  0  0  0  0  0  0  0  0  0  0
    9.8767    1.9818    0.6448 C   0  0  0  0  0  0  0  0  0  0  0  0
    9.7870    1.1114   -0.4427 C   0  0  0  0  0  0  0  0  0  0  0  0
    8.5532    0.5405   -0.7640 C   0  0  0  0  0  0  0  0  0  0  0  0
    8.4319   -0.5305   -2.1271 Cl  0  0  0  0  0  0  0  0  0  0  0  0
    5.8473   -1.0055    0.0621 N   0  0  0  0  0  0  0  0  0  0  0  0
    4.6161   -1.2001   -0.4223 C   0  0  0  0  0  0  0  0  0  0  0  0
    3.9477   -2.3641   -0.2409 N   0  0  0  0  0  0  0  0  0  0  0  0
    4.5604   -3.5013    0.4477 C   0  0  0  0  0  0  0  0  0  0  0  0
    3.5870   -4.6501    0.1554 C   0  0  0  0  0  0  0  0  0  0  0  0
    2.2304   -3.9410    0.0259 C   0  0  0  0  0  0  0  0  0  0  0  0
    2.5807   -2.6293   -0.6908 C   0  0  0  0  0  0  0  0  0  0  0  0
    8.8170    2.9643    2.2661 H   0  0  0  0  0  0  0  0  0  0  0  0
   10.8399    2.4316    0.8966 H   0  0  0  0  0  0  0  0  0  0  0  0
   10.6607    0.8719   -1.0497 H   0  0  0  0  0  0  0  0  0  0  0  0
    4.6511   -3.3005    1.5324 H   0  0  0  0  0  0  0  0  0  0  0  0
    5.5798   -3.6826    0.0710 H   0  0  0  0  0  0  0  0  0  0  0  0
    3.6008   -5.4231    0.9378 H   0  0  0  0  0  0  0  0  0  0  0  0
    3.8535   -5.1359   -0.7981 H   0  0  0  0  0  0  0  0  0  0  0  0
    1.8199   -3.7233    1.0259 H   0  0  0  0  0  0  0  0  0  0  0  0
    1.4792   -4.5289   -0.5215 H   0  0  0  0  0  0  0  0  0  0  0  0
    1.8990   -1.8067   -0.4227 H   0  0  0  0  0  0  0  0  0  0  0  0
    2.5353   -2.7439   -1.7905 H   0  0  0  0  0  0  0  0  0  0  0  0
  1  2  3  0
  2  3  1  0
  3  4  2  0
  3 15  1  0
  4  5  1  0
  5  6  1  0
  5 14  1  0
  6  7  2  0
  6 12  1  0
  7  8  1  0
  7  9  1  0
  9 10  2  0
  9 21  1  0
 10 11  1  0
 10 22  1  0
 11 12  2  0
 11 23  1  0
 12 13  1  0
 14 15  2  0
 15 16  1  0
 16 17  1  0
 16 20  1  0
 17 18  1  0
 17 24  1  0
 17 25  1  0
 18 19  1  0
 18 26  1  0
 18 27  1  0
 19 20  1  0
 19 28  1  0
 19 29  1  0
 20 30  1  0
 20 31  1  0
M  END

