
     RDKit          3D

 80 85  0  0  0  0  0  0  0  0999 V2000
    5.5773   -2.5734   -5.9458 C   0  0  0  0  0  0  0  0  0  0  0  0
    6.4447   -1.7250   -5.1461 N   0  0  0  0  0  0  0  0  0  0  0  0
    7.2007   -0.7701   -5.9356 C   0  0  0  0  0  0  0  0  0  0  0  0
    5.8993   -1.2467   -3.8882 C   0  0  2  0  0  0  0  0  0  0  0  0
    5.2379   -2.0514   -3.5148 H   0  0  0  0  0  0  0  0  0  0  0  0
    4.9590   -0.0288   -4.0395 C   0  0  0  0  0  0  0  0  0  0  0  0
    4.3558    0.1241   -5.1093 O   0  0  0  0  0  0  0  0  0  0  0  0
    4.8102    0.8827   -2.9200 C   0  0  0  0  0  0  0  0  0  0  0  0
    3.9503    2.0351   -3.0128 C   0  0  0  0  0  0  0  0  0  0  0  0
    3.2444    2.2852   -4.1055 N   0  0  0  0  0  0  0  0  0  0  0  0
    3.8451    2.8674   -2.0156 O   0  0  0  0  0  0  0  0  0  0  0  0
    5.5098    0.6942   -1.6968 C   0  0  0  0  0  0  0  0  0  0  0  0
    5.4651    1.5060   -0.7408 O   0  0  0  0  0  0  0  0  0  0  0  0
    6.3905   -0.5410   -1.4899 C   0  0  1  0  0  0  0  0  0  0  0  0
    7.4212   -0.1841   -0.5898 O   0  0  0  0  0  0  0  0  0  0  0  0
    5.5505   -1.6890   -0.8802 C   0  0  0  0  0  0  0  0  0  0  0  0
    4.3495   -1.5230   -0.5699 O   0  0  0  0  0  0  0  0  0  0  0  0
    6.2270   -2.9513   -0.8143 C   0  0  0  0  0  0  0  0  0  0  0  0
    5.4560   -4.0883   -0.6339 C   0  0  0  0  0  0  0  0  0  0  0  0
    4.1695   -3.9750   -0.2909 O   0  0  0  0  0  0  0  0  0  0  0  0
    5.9577   -5.4267   -0.9243 C   0  0  0  0  0  0  0  0  0  0  0  0
    5.1042   -6.5645   -0.9749 C   0  0  0  0  0  0  0  0  0  0  0  0
    3.7955   -6.5216   -0.6773 O   0  0  0  0  0  0  0  0  0  0  0  0
    5.6319   -7.8054   -1.3641 C   0  0  0  0  0  0  0  0  0  0  0  0
    6.9741   -7.9528   -1.7061 C   0  0  0  0  0  0  0  0  0  0  0  0
    7.5506   -9.3042   -2.0839 C   0  0  0  0  0  0  0  0  0  0  0  0
    6.6338  -10.1427   -2.8456 N   0  0  0  0  0  0  0  0  0  0  0  0
    6.5126   -9.6839   -4.2287 C   0  0  0  0  0  0  0  0  0  0  0  0
    5.3277  -10.2660   -4.9753 C   0  0  0  0  0  0  0  0  0  0  0  0
    4.0373  -10.2187   -4.4212 C   0  0  0  0  0  0  0  0  0  0  0  0
    2.9398  -10.7198   -5.1244 C   0  0  0  0  0  0  0  0  0  0  0  0
    3.1119  -11.2778   -6.3964 C   0  0  0  0  0  0  0  0  0  0  0  0
    4.3900  -11.3315   -6.9572 C   0  0  0  0  0  0  0  0  0  0  0  0
    5.4879  -10.8311   -6.2484 C   0  0  0  0  0  0  0  0  0  0  0  0
    6.9559  -11.5686   -2.7541 C   0  0  0  0  0  0  0  0  0  0  0  0
    6.6637  -12.1910   -1.4040 C   0  0  1  0  0  0  0  0  0  0  0  0
    5.2469  -12.5365   -1.0275 C   0  0  0  0  0  0  0  0  0  0  0  0
    6.2335  -13.6363   -1.3296 C   0  0  0  0  0  0  0  0  0  0  0  0
    7.7953   -6.8150   -1.6380 C   0  0  0  0  0  0  0  0  0  0  0  0
    9.1104   -6.9507   -1.9336 F   0  0  0  0  0  0  0  0  0  0  0  0
    7.3313   -5.5638   -1.2579 C   0  0  0  0  0  0  0  0  0  0  0  0
    8.2914   -4.4070   -1.0981 C   0  0  0  0  0  0  0  0  0  0  0  0
    7.6807   -2.9960   -1.2228 C   0  0  1  0  0  0  0  0  0  0  0  0
    8.2262   -2.3512   -0.5215 H   0  0  0  0  0  0  0  0  0  0  0  0
    7.8448   -2.3497   -2.6190 C   0  0  0  0  0  0  0  0  0  0  0  0
    7.0085   -1.0490   -2.8150 C   0  0  1  0  0  0  0  0  0  0  0  0
    7.6779   -0.2384   -3.1438 H   0  0  0  0  0  0  0  0  0  0  0  0
    6.1814   -3.1073   -6.6994 H   0  0  0  0  0  0  0  0  0  0  0  0
    4.7757   -2.0208   -6.4728 H   0  0  0  0  0  0  0  0  0  0  0  0
    5.1033   -3.3344   -5.3050 H   0  0  0  0  0  0  0  0  0  0  0  0
    7.7897   -1.3098   -6.6956 H   0  0  0  0  0  0  0  0  0  0  0  0
    7.9152   -0.2214   -5.3023 H   0  0  0  0  0  0  0  0  0  0  0  0
    6.5676   -0.0265   -6.4618 H   0  0  0  0  0  0  0  0  0  0  0  0
    3.3604    1.6078   -4.8724 H   0  0  0  0  0  0  0  0  0  0  0  0
    2.6480    3.1033   -4.1422 H   0  0  0  0  0  0  0  0  0  0  0  0
    4.4704    2.5089   -1.2810 H   0  0  0  0  0  0  0  0  0  0  0  0
    7.0370    0.5265   -0.0426 H   0  0  0  0  0  0  0  0  0  0  0  0
    3.9660   -2.9670   -0.2781 H   0  0  0  0  0  0  0  0  0  0  0  0
    3.5572   -5.6038   -0.4404 H   0  0  0  0  0  0  0  0  0  0  0  0
    4.9668   -8.6682   -1.4043 H   0  0  0  0  0  0  0  0  0  0  0  0
    7.7995   -9.8269   -1.1460 H   0  0  0  0  0  0  0  0  0  0  0  0
    8.5166   -9.1571   -2.6104 H   0  0  0  0  0  0  0  0  0  0  0  0
    7.4427   -9.8842   -4.8079 H   0  0  0  0  0  0  0  0  0  0  0  0
    6.4032   -8.5863   -4.2010 H   0  0  0  0  0  0  0  0  0  0  0  0
    3.9003   -9.7847   -3.4285 H   0  0  0  0  0  0  0  0  0  0  0  0
    1.9425  -10.6723   -4.6787 H   0  0  0  0  0  0  0  0  0  0  0  0
    2.2524  -11.6700   -6.9461 H   0  0  0  0  0  0  0  0  0  0  0  0
    4.5367  -11.7685   -7.9485 H   0  0  0  0  0  0  0  0  0  0  0  0
    6.4870  -10.8811   -6.6916 H   0  0  0  0  0  0  0  0  0  0  0  0
    8.0203  -11.7573   -3.0284 H   0  0  0  0  0  0  0  0  0  0  0  0
    6.3499  -12.0890   -3.5112 H   0  0  0  0  0  0  0  0  0  0  0  0
    7.3085  -11.8569   -0.5834 H   0  0  0  0  0  0  0  0  0  0  0  0
    4.4672  -12.3298   -1.7667 H   0  0  0  0  0  0  0  0  0  0  0  0
    4.9316  -12.3883    0.0092 H   0  0  0  0  0  0  0  0  0  0  0  0
    6.1189  -14.1855   -2.2696 H   0  0  0  0  0  0  0  0  0  0  0  0
    6.6073  -14.2464   -0.5024 H   0  0  0  0  0  0  0  0  0  0  0  0
    9.1283   -4.5243   -1.8021 H   0  0  0  0  0  0  0  0  0  0  0  0
    8.7402   -4.5063   -0.0929 H   0  0  0  0  0  0  0  0  0  0  0  0
    7.5571   -3.0630   -3.4060 H   0  0  0  0  0  0  0  0  0  0  0  0
    8.9118   -2.1319   -2.7808 H   0  0  0  0  0  0  0  0  0  0  0  0
  1  2  1  0
  1 48  1  0
  1 49  1  0
  1 50  1  0
  2  3  1  0
  2  4  1  0
  3 51  1  0
  3 52  1  0
  3 53  1  0
  4  5  1  1
  4  6  1  0
  4 46  1  0
  6  7  2  0
  6  8  1  0
  8  9  2  0
  8 12  1  0
  9 10  1  0
  9 11  1  0
 10 54  1  0
 10 55  1  0
 11 56  1  0
 12 13  2  0
 12 14  1  0
 14 15  1  1
 14 16  1  0
 14 46  1  0
 15 57  1  0
 16 17  2  0
 16 18  1  0
 18 19  2  0
 18 43  1  0
 19 20  1  0
 19 21  1  0
 20 58  1  0
 21 22  2  0
 21 41  1  0
 22 23  1  0
 22 24  1  0
 23 59  1  0
 24 25  2  0
 24 60  1  0
 25 26  1  0
 25 39  1  0
 26 27  1  0
 26 61  1  0
 26 62  1  0
 27 28  1  0
 27 35  1  0
 28 29  1  0
 28 63  1  0
 28 64  1  0
 29 30  2  0
 29 34  1  0
 30 31  1  0
 30 65  1  0
 31 32  2  0
 31 66  1  0
 32 33  1  0
 32 67  1  0
 33 34  2  0
 33 68  1  0
 34 69  1  0
 35 36  1  0
 35 70  1  0
 35 71  1  0
 36 37  1  0
 36 38  1  0
 36 72  1  1
 37 38  1  0
 37 73  1  0
 37 74  1  0
 38 75  1  0
 38 76  1  0
 39 40  1  0
 39 41  2  0
 41 42  1  0
 42 43  1  0
 42 77  1  0
 42 78  1  0
 43 44  1  1
 43 45  1  0
 45 46  1  0
 45 79  1  0
 45 80  1  0
 46 47  1  6
M  END

