
     RDKit          3D

 35 37  0  0  0  0  0  0  0  0999 V2000
    3.1090   -3.0514    1.3241 N   0  0  0  0  0  0  0  0  0  0  0  0
    3.6757   -2.1255    0.9195 C   0  0  0  0  0  0  0  0  0  0  0  0
    4.4300   -0.9803    0.4476 C   0  0  1  0  0  0  0  0  0  0  0  0
    5.6685   -0.7601    1.1695 C   0  0  0  0  0  0  0  0  0  0  0  0
    6.6656   -0.6063    1.7393 N   0  0  0  0  0  0  0  0  0  0  0  0
    4.3880   -0.5886   -1.0590 C   0  0  1  0  0  0  0  0  0  0  0  0
    3.7618   -1.4533   -2.1120 C   0  0  0  0  0  0  0  0  0  0  0  0
    4.0962   -2.8139   -2.2141 C   0  0  0  0  0  0  0  0  0  0  0  0
    3.5629   -3.5715   -3.2553 C   0  0  0  0  0  0  0  0  0  0  0  0
    2.7038   -3.0009   -4.2006 C   0  0  0  0  0  0  0  0  0  0  0  0
    2.3728   -1.6405   -4.0998 C   0  0  0  0  0  0  0  0  0  0  0  0
    1.5557   -0.9803   -4.9557 O   0  0  0  0  0  0  0  0  0  0  0  0
    0.9491   -1.6792   -6.0309 C   0  0  0  0  0  0  0  0  0  0  0  0
    0.0531   -0.7421   -6.8057 C   0  0  0  0  0  0  0  0  0  0  0  0
   -0.0990   -0.9056   -8.1896 C   0  0  0  0  0  0  0  0  0  0  0  0
   -0.9674   -0.0830   -8.9127 C   0  0  0  0  0  0  0  0  0  0  0  0
   -1.6865    0.9214   -8.2591 C   0  0  0  0  0  0  0  0  0  0  0  0
   -1.5326    1.0962   -6.8800 C   0  0  0  0  0  0  0  0  0  0  0  0
   -0.6708    0.2683   -6.1564 C   0  0  0  0  0  0  0  0  0  0  0  0
    2.9091   -0.8718   -3.0526 C   0  0  0  0  0  0  0  0  0  0  0  0
    3.6393    0.2504   -0.0764 C   0  0  1  0  0  0  0  0  0  0  0  0
    1.8853    0.1655    0.0117 Cl  0  0  0  0  0  0  0  0  0  0  0  0
    4.2739    1.8502    0.3104 Cl  0  0  0  0  0  0  0  0  0  0  0  0
    5.3319   -0.1199   -1.3624 H   0  0  0  0  0  0  0  0  0  0  0  0
    4.7649   -3.2772   -1.4866 H   0  0  0  0  0  0  0  0  0  0  0  0
    3.8168   -4.6311   -3.3373 H   0  0  0  0  0  0  0  0  0  0  0  0
    2.3031   -3.6203   -5.0026 H   0  0  0  0  0  0  0  0  0  0  0  0
    0.3576   -2.5274   -5.6323 H   0  0  0  0  0  0  0  0  0  0  0  0
    1.7213   -2.1047   -6.6978 H   0  0  0  0  0  0  0  0  0  0  0  0
    0.4699   -1.6819   -8.7102 H   0  0  0  0  0  0  0  0  0  0  0  0
   -1.0748   -0.2220   -9.9915 H   0  0  0  0  0  0  0  0  0  0  0  0
   -2.3615    1.5699   -8.8234 H   0  0  0  0  0  0  0  0  0  0  0  0
   -2.0879    1.8833   -6.3633 H   0  0  0  0  0  0  0  0  0  0  0  0
   -0.5461    0.4093   -5.0811 H   0  0  0  0  0  0  0  0  0  0  0  0
    2.6354    0.1830   -2.9971 H   0  0  0  0  0  0  0  0  0  0  0  0
  1  2  3  0
  3  2  1  6
  3  4  1  0
  3  6  1  0
  3 21  1  0
  4  5  3  0
  6  7  1  0
  6 21  1  0
  6 24  1  6
  7  8  2  0
  7 20  1  0
  8  9  1  0
  8 25  1  0
  9 10  2  0
  9 26  1  0
 10 11  1  0
 10 27  1  0
 11 12  1  0
 11 20  2  0
 12 13  1  0
 13 14  1  0
 13 28  1  0
 13 29  1  0
 14 15  2  0
 14 19  1  0
 15 16  1  0
 15 30  1  0
 16 17  2  0
 16 31  1  0
 17 18  1  0
 17 32  1  0
 18 19  2  0
 18 33  1  0
 19 34  1  0
 20 35  1  0
 21 22  1  6
 21 23  1  0
M  END

