
     RDKit          3D

 20 21  0  0  0  0  0  0  0  0999 V2000
    0.9843   -0.1101   -0.0515 C   0  0  0  0  0  0  0  0  0  0  0  0
    2.4910   -0.0438   -0.0477 C   0  0  0  0  0  0  0  0  0  0  0  0
    3.2726   -1.2099   -0.0983 C   0  0  0  0  0  0  0  0  0  0  0  0
    4.6662   -1.1224   -0.0781 C   0  0  0  0  0  0  0  0  0  0  0  0
    5.3114    0.1238   -0.0293 C   0  0  0  0  0  0  0  0  0  0  0  0
    4.5344    1.2754   -0.0008 C   0  0  0  0  0  0  0  0  0  0  0  0
    5.1766    2.6064    0.0018 N   0  0  0  0  0  0  0  0  0  0  0  0
    6.3852    2.6314   -0.1652 O   0  0  0  0  0  0  0  0  0  0  0  0
    4.4640    3.5821    0.1567 O   0  0  0  0  0  0  0  0  0  0  0  0
    3.1406    1.2010    0.0042 C   0  0  0  0  0  0  0  0  0  0  0  0
    7.1230   -0.0883   -0.1205 S   0  0  0  0  0  0  0  0  0  0  0  0
    7.8582    0.3123    1.1275 O   0  0  0  0  0  0  0  0  0  0  0  0
    6.7394   -1.9106   -0.0549 C   0  0  0  0  0  0  0  0  0  0  0  0
    5.5162   -2.2525   -0.0972 N   0  0  0  0  0  0  0  0  0  0  0  0
    0.6253   -1.1488   -0.0598 H   0  0  0  0  0  0  0  0  0  0  0  0
    0.5685    0.4010   -0.9353 H   0  0  0  0  0  0  0  0  0  0  0  0
    0.5651    0.3892    0.8370 H   0  0  0  0  0  0  0  0  0  0  0  0
    2.8094   -2.1975   -0.1487 H   0  0  0  0  0  0  0  0  0  0  0  0
    2.5768    2.1336    0.0493 H   0  0  0  0  0  0  0  0  0  0  0  0
    7.5775   -2.6177   -0.0490 H   0  0  0  0  0  0  0  0  0  0  0  0
  1  2  1  0
  1 15  1  0
  1 16  1  0
  1 17  1  0
  2  3  2  0
  2 10  1  0
  3  4  1  0
  3 18  1  0
  4  5  2  0
  4 14  1  0
  5  6  1  0
  5 11  1  0
  6  7  1  0
  6 10  2  0
  7  8  2  0
  7  9  1  0
 10 19  1  0
 11 12  1  1
 11 13  1  0
 13 14  2  0
 13 20  1  0
M  CHG  4   7   1   9  -1  11   1  12  -1
M  END

