
     RDKit          3D

 57 59  0  0  0  0  0  0  0  0999 V2000
   14.2144   -5.3937    6.9606 C   0  0  0  0  0  0  0  0  0  0  0  0
   13.6579   -4.4190    5.9305 C   0  0  1  0  0  0  0  0  0  0  0  0
   14.3863   -3.0757    5.9364 C   0  0  0  0  0  0  0  0  0  0  0  0
   13.7951   -5.0665    4.6609 O   0  0  0  0  0  0  0  0  0  0  0  0
   13.0414   -4.7140    3.5874 C   0  0  0  0  0  0  0  0  0  0  0  0
   13.3366   -5.3840    2.3879 C   0  0  0  0  0  0  0  0  0  0  0  0
   12.6084   -5.1034    1.2336 C   0  0  0  0  0  0  0  0  0  0  0  0
   11.5786   -4.1574    1.2483 C   0  0  0  0  0  0  0  0  0  0  0  0
   11.2735   -3.4854    2.4397 C   0  0  0  0  0  0  0  0  0  0  0  0
   10.1419   -2.4736    2.4728 C   0  0  0  0  0  0  0  0  0  0  0  0
    8.8211   -3.0759    2.3563 N   0  0  0  0  0  0  0  0  0  0  0  0
    8.0915   -3.0425    1.1994 C   0  0  0  0  0  0  0  0  0  0  0  0
    8.4750   -2.4393    0.2045 O   0  0  0  0  0  0  0  0  0  0  0  0
    6.7799   -3.8295    1.2428 C   0  0  1  0  0  0  0  0  0  0  0  0
    5.5871   -3.0073    0.6995 C   0  0  0  0  0  0  0  0  0  0  0  0
    5.5666   -2.9187   -0.8390 C   0  0  0  0  0  0  0  0  0  0  0  0
    5.6666   -4.2206   -1.4969 N   0  0  0  0  0  0  0  0  0  0  0  0
    4.4403   -5.0071   -1.5436 C   0  0  0  0  0  0  0  0  0  0  0  0
    3.4712   -4.4853   -2.5904 C   0  0  0  0  0  0  0  0  0  0  0  0
    3.7306   -4.6602   -3.9660 C   0  0  0  0  0  0  0  0  0  0  0  0
    5.1562   -5.5385   -4.4809 Cl  0  0  0  0  0  0  0  0  0  0  0  0
    2.8781   -4.1788   -4.9615 C   0  0  0  0  0  0  0  0  0  0  0  0
    1.7187   -3.4932   -4.5968 C   0  0  0  0  0  0  0  0  0  0  0  0
    1.4151   -3.3002   -3.2507 C   0  0  0  0  0  0  0  0  0  0  0  0
    2.2868   -3.7942   -2.2748 C   0  0  0  0  0  0  0  0  0  0  0  0
    1.8350   -3.5129   -0.5959 Cl  0  0  0  0  0  0  0  0  0  0  0  0
    6.8594   -4.9393   -1.0655 C   0  0  0  0  0  0  0  0  0  0  0  0
    6.9210   -5.1598    0.4567 C   0  0  0  0  0  0  0  0  0  0  0  0
   12.0062   -3.7632    3.6044 C   0  0  0  0  0  0  0  0  0  0  0  0
   14.1301   -4.9747    7.9752 H   0  0  0  0  0  0  0  0  0  0  0  0
   15.2765   -5.6014    6.7558 H   0  0  0  0  0  0  0  0  0  0  0  0
   13.6658   -6.3468    6.9274 H   0  0  0  0  0  0  0  0  0  0  0  0
   12.5840   -4.2612    6.1406 H   0  0  0  0  0  0  0  0  0  0  0  0
   15.4602   -3.2272    5.7435 H   0  0  0  0  0  0  0  0  0  0  0  0
   14.2755   -2.5809    6.9143 H   0  0  0  0  0  0  0  0  0  0  0  0
   13.9943   -2.3971    5.1644 H   0  0  0  0  0  0  0  0  0  0  0  0
   14.1441   -6.1188    2.3914 H   0  0  0  0  0  0  0  0  0  0  0  0
   12.8531   -5.6267    0.3053 H   0  0  0  0  0  0  0  0  0  0  0  0
   11.0171   -3.9286    0.3394 H   0  0  0  0  0  0  0  0  0  0  0  0
   10.2277   -1.7784    1.6256 H   0  0  0  0  0  0  0  0  0  0  0  0
   10.1902   -1.8837    3.4030 H   0  0  0  0  0  0  0  0  0  0  0  0
    8.4972   -3.6641    3.1144 H   0  0  0  0  0  0  0  0  0  0  0  0
    6.5734   -4.0765    2.2985 H   0  0  0  0  0  0  0  0  0  0  0  0
    5.5969   -1.9919    1.1300 H   0  0  0  0  0  0  0  0  0  0  0  0
    4.6560   -3.4831    1.0521 H   0  0  0  0  0  0  0  0  0  0  0  0
    6.4156   -2.3026   -1.1708 H   0  0  0  0  0  0  0  0  0  0  0  0
    4.6446   -2.4154   -1.1685 H   0  0  0  0  0  0  0  0  0  0  0  0
    3.9082   -5.0801   -0.5769 H   0  0  0  0  0  0  0  0  0  0  0  0
    4.7173   -6.0330   -1.8299 H   0  0  0  0  0  0  0  0  0  0  0  0
    3.1288   -4.3474   -6.0095 H   0  0  0  0  0  0  0  0  0  0  0  0
    1.0460   -3.1104   -5.3679 H   0  0  0  0  0  0  0  0  0  0  0  0
    0.5127   -2.7695   -2.9451 H   0  0  0  0  0  0  0  0  0  0  0  0
    7.7392   -4.3546   -1.3796 H   0  0  0  0  0  0  0  0  0  0  0  0
    6.9074   -5.9058   -1.5930 H   0  0  0  0  0  0  0  0  0  0  0  0
    7.8614   -5.6677    0.7325 H   0  0  0  0  0  0  0  0  0  0  0  0
    6.1004   -5.8309    0.7662 H   0  0  0  0  0  0  0  0  0  0  0  0
   11.7611   -3.2223    4.5196 H   0  0  0  0  0  0  0  0  0  0  0  0
  1  2  1  0
  1 30  1  0
  1 31  1  0
  1 32  1  0
  2  3  1  0
  2  4  1  0
  2 33  1  1
  3 34  1  0
  3 35  1  0
  3 36  1  0
  4  5  1  0
  5  6  2  0
  5 29  1  0
  6  7  1  0
  6 37  1  0
  7  8  2  0
  7 38  1  0
  8  9  1  0
  8 39  1  0
  9 10  1  0
  9 29  2  0
 10 11  1  0
 10 40  1  0
 10 41  1  0
 11 12  1  0
 11 42  1  0
 12 13  2  0
 12 14  1  0
 14 15  1  0
 14 28  1  0
 14 43  1  1
 15 16  1  0
 15 44  1  0
 15 45  1  0
 16 17  1  0
 16 46  1  0
 16 47  1  0
 17 18  1  0
 17 27  1  0
 18 19  1  0
 18 48  1  0
 18 49  1  0
 19 20  2  0
 19 25  1  0
 20 21  1  0
 20 22  1  0
 22 23  2  0
 22 50  1  0
 23 24  1  0
 23 51  1  0
 24 25  2  0
 24 52  1  0
 25 26  1  0
 27 28  1  0
 27 53  1  0
 27 54  1  0
 28 55  1  0
 28 56  1  0
 29 57  1  0
M  END

