
     RDKit          3D

 68 72  0  0  0  0  0  0  0  0999 V2000
    1.1211    0.4027   -0.1118 C   0  0  0  0  0  0  0  0  0  0  0  0
    2.6129    0.2184   -0.1315 C   0  0  0  0  0  0  0  0  0  0  0  0
    3.4539    1.0723    0.6002 C   0  0  0  0  0  0  0  0  0  0  0  0
    4.8401    0.9600    0.5565 C   0  0  0  0  0  0  0  0  0  0  0  0
    5.4759   -0.0236   -0.2261 C   0  0  0  0  0  0  0  0  0  0  0  0
    6.9594   -0.1064   -0.2785 C   0  0  0  0  0  0  0  0  0  0  0  0
    7.6308    1.0671   -0.2189 N   0  0  0  0  0  0  0  0  0  0  0  0
    7.6314   -1.3188   -0.3177 C   0  0  0  0  0  0  0  0  0  0  0  0
    9.0617   -1.4539   -0.3699 C   0  0  0  0  0  0  0  0  0  0  0  0
    9.8619   -0.4215   -0.3524 N   0  0  0  0  0  0  0  0  0  0  0  0
   11.2444   -0.5541   -0.2585 C   0  0  0  0  0  0  0  0  0  0  0  0
   12.0693    0.4479   -0.8091 C   0  0  0  0  0  0  0  0  0  0  0  0
   13.4480    0.3411   -0.6990 C   0  0  0  0  0  0  0  0  0  0  0  0
   14.0134   -0.7618   -0.0183 C   0  0  0  0  0  0  0  0  0  0  0  0
   15.3790   -0.9078    0.1338 N   0  0  0  0  0  0  0  0  0  0  0  0
   15.9934   -2.0369    0.8275 C   0  0  0  0  0  0  0  0  0  0  0  0
   17.4764   -1.6598    0.8790 C   0  0  0  0  0  0  0  0  0  0  0  0
   17.6563   -0.8498   -0.3953 C   0  0  2  0  0  0  0  0  0  0  0  0
   17.8486   -1.6955   -1.4541 F   0  0  0  0  0  0  0  0  0  0  0  0
   18.7302   -0.0198   -0.3582 F   0  0  0  0  0  0  0  0  0  0  0  0
   16.3426   -0.0878   -0.5764 C   0  0  0  0  0  0  0  0  0  0  0  0
   13.0965   -1.6976    0.5173 C   0  0  0  0  0  0  0  0  0  0  0  0
   11.7780   -1.5902    0.4027 N   0  0  0  0  0  0  0  0  0  0  0  0
    9.5622   -2.8897   -0.5819 C   0  0  0  0  0  0  0  0  0  0  0  0
    9.2312   -3.7680    0.4123 N   0  0  0  0  0  0  0  0  0  0  0  0
   10.0963   -3.2201   -1.6216 O   0  0  0  0  0  0  0  0  0  0  0  0
    4.6290   -0.8836   -0.9357 C   0  0  0  0  0  0  0  0  0  0  0  0
    5.1424   -1.8379   -1.7341 F   0  0  0  0  0  0  0  0  0  0  0  0
    3.2290   -0.7927   -0.8984 C   0  0  0  0  0  0  0  0  0  0  0  0
    2.5046   -1.7115   -1.6958 N   0  0  0  0  0  0  0  0  0  0  0  0
    1.5317   -2.5729   -1.2367 C   0  0  0  0  0  0  0  0  0  0  0  0
    1.1294   -2.5865   -0.0912 O   0  0  0  0  0  0  0  0  0  0  0  0
    0.9779   -3.4984   -2.3257 C   0  0  1  0  0  0  0  0  0  0  0  0
    0.0541   -4.5968   -1.7834 C   0  0  0  0  0  0  0  0  0  0  0  0
   -0.9975   -4.8813   -2.8286 C   0  0  0  0  0  0  0  0  0  0  0  0
   -1.8175   -6.0079   -2.9047 C   0  0  0  0  0  0  0  0  0  0  0  0
   -2.8022   -6.0939   -3.8977 C   0  0  0  0  0  0  0  0  0  0  0  0
   -2.9687   -5.0502   -4.8132 C   0  0  0  0  0  0  0  0  0  0  0  0
   -2.1512   -3.9154   -4.7551 C   0  0  0  0  0  0  0  0  0  0  0  0
   -1.1688   -3.8449   -3.7641 C   0  0  0  0  0  0  0  0  0  0  0  0
   -0.0374   -2.4932   -3.5316 S   0  0  0  0  0  0  0  0  0  0  0  0
    0.8558    1.4008    0.2648 H   0  0  0  0  0  0  0  0  0  0  0  0
    0.6439   -0.3604    0.5225 H   0  0  0  0  0  0  0  0  0  0  0  0
    0.6925    0.2814   -1.1193 H   0  0  0  0  0  0  0  0  0  0  0  0
    3.0008    1.8549    1.2136 H   0  0  0  0  0  0  0  0  0  0  0  0
    5.4560    1.6370    1.1520 H   0  0  0  0  0  0  0  0  0  0  0  0
    7.1515    1.9357   -0.4131 H   0  0  0  0  0  0  0  0  0  0  0  0
    8.6574    0.9781   -0.2845 H   0  0  0  0  0  0  0  0  0  0  0  0
    7.0425   -2.2325   -0.3311 H   0  0  0  0  0  0  0  0  0  0  0  0
   11.6128    1.2920   -1.3291 H   0  0  0  0  0  0  0  0  0  0  0  0
   14.0846    1.1152   -1.1309 H   0  0  0  0  0  0  0  0  0  0  0  0
   15.8411   -2.9871    0.2784 H   0  0  0  0  0  0  0  0  0  0  0  0
   15.5653   -2.1681    1.8351 H   0  0  0  0  0  0  0  0  0  0  0  0
   18.1580   -2.5208    0.9046 H   0  0  0  0  0  0  0  0  0  0  0  0
   17.6914   -1.0057    1.7375 H   0  0  0  0  0  0  0  0  0  0  0  0
   16.1140    0.0078   -1.6522 H   0  0  0  0  0  0  0  0  0  0  0  0
   16.4423    0.9304   -0.1543 H   0  0  0  0  0  0  0  0  0  0  0  0
   13.4604   -2.5717    1.0671 H   0  0  0  0  0  0  0  0  0  0  0  0
    9.0393   -3.4164    1.3426 H   0  0  0  0  0  0  0  0  0  0  0  0
    9.6285   -4.6995    0.3407 H   0  0  0  0  0  0  0  0  0  0  0  0
    2.9253   -1.9398   -2.5912 H   0  0  0  0  0  0  0  0  0  0  0  0
    1.8147   -3.9324   -2.8989 H   0  0  0  0  0  0  0  0  0  0  0  0
   -0.4138   -4.2256   -0.8551 H   0  0  0  0  0  0  0  0  0  0  0  0
    0.6334   -5.4937   -1.5128 H   0  0  0  0  0  0  0  0  0  0  0  0
   -1.6918   -6.8219   -2.1852 H   0  0  0  0  0  0  0  0  0  0  0  0
   -3.4395   -6.9794   -3.9565 H   0  0  0  0  0  0  0  0  0  0  0  0
   -3.7360   -5.1205   -5.5884 H   0  0  0  0  0  0  0  0  0  0  0  0
   -2.2736   -3.1062   -5.4787 H   0  0  0  0  0  0  0  0  0  0  0  0
  1  2  1  0
  1 42  1  0
  1 43  1  0
  1 44  1  0
  2  3  2  0
  2 29  1  0
  3  4  1  0
  3 45  1  0
  4  5  2  0
  4 46  1  0
  5  6  1  0
  5 27  1  0
  6  7  1  0
  6  8  2  0
  7 47  1  0
  7 48  1  0
  8  9  1  0
  8 49  1  0
  9 10  2  0
  9 24  1  0
 10 11  1  0
 11 12  2  0
 11 23  1  0
 12 13  1  0
 12 50  1  0
 13 14  2  0
 13 51  1  0
 14 15  1  0
 14 22  1  0
 15 16  1  0
 15 21  1  0
 16 17  1  0
 16 52  1  0
 16 53  1  0
 17 18  1  0
 17 54  1  0
 17 55  1  0
 18 19  1  6
 18 20  1  0
 18 21  1  0
 21 56  1  0
 21 57  1  0
 22 23  2  0
 22 58  1  0
 24 25  1  0
 24 26  2  0
 25 59  1  0
 25 60  1  0
 27 28  1  0
 27 29  2  0
 29 30  1  0
 30 31  1  0
 30 61  1  0
 31 32  2  0
 31 33  1  0
 33 34  1  0
 33 41  1  0
 33 62  1  6
 34 35  1  0
 34 63  1  0
 34 64  1  0
 35 36  1  0
 35 40  2  0
 36 37  2  0
 36 65  1  0
 37 38  1  0
 37 66  1  0
 38 39  2  0
 38 67  1  0
 39 40  1  0
 39 68  1  0
 40 41  1  0
M  END

