
     RDKit          3D

 37 39  0  0  0  0  0  0  0  0999 V2000
    1.0020    0.1415    0.2692 C   0  0  0  0  0  0  0  0  0  0  0  0
    2.4356   -0.0623   -0.1826 C   0  0  0  0  0  0  0  0  0  0  0  0
    3.0359    1.2141   -0.3307 O   0  0  0  0  0  0  0  0  0  0  0  0
    4.3300    1.3125   -0.7285 C   0  0  0  0  0  0  0  0  0  0  0  0
    4.8432    2.6169   -0.8466 C   0  0  0  0  0  0  0  0  0  0  0  0
    6.1626    2.8085   -1.2494 C   0  0  0  0  0  0  0  0  0  0  0  0
    6.9906    1.7214   -1.5397 C   0  0  0  0  0  0  0  0  0  0  0  0
    6.4863    0.4159   -1.4242 C   0  0  0  0  0  0  0  0  0  0  0  0
    7.3738   -0.7166   -1.7341 C   0  0  0  0  0  0  0  0  0  0  0  0
    8.6164   -0.5973   -2.1075 N   0  0  0  0  0  0  0  0  0  0  0  0
    9.2146   -1.8058   -2.3374 C   0  0  0  0  0  0  0  0  0  0  0  0
    8.4189   -2.9130   -2.1307 C   0  0  0  0  0  0  0  0  0  0  0  0
    6.8371   -2.4000   -1.6278 S   0  0  0  0  0  0  0  0  0  0  0  0
    8.8364   -4.3446   -2.3114 C   0  0  0  0  0  0  0  0  0  0  0  0
   10.3696   -4.4324   -2.3966 C   0  0  0  0  0  0  0  0  0  0  0  0
   10.9400   -3.3365   -3.3029 C   0  0  0  0  0  0  0  0  0  0  0  0
   10.6656   -1.9122   -2.7673 C   0  0  1  0  0  0  0  0  0  0  0  0
   11.0206   -0.8354   -3.6836 N   0  0  0  0  0  0  0  0  0  0  0  0
    5.1519    0.2159   -1.0174 C   0  0  0  0  0  0  0  0  0  0  0  0
    0.5002   -0.8303    0.3954 H   0  0  0  0  0  0  0  0  0  0  0  0
    0.4411    0.7304   -0.4726 H   0  0  0  0  0  0  0  0  0  0  0  0
    0.9700    0.6784    1.2295 H   0  0  0  0  0  0  0  0  0  0  0  0
    2.4688   -0.6107   -1.1434 H   0  0  0  0  0  0  0  0  0  0  0  0
    2.9980   -0.6621    0.5583 H   0  0  0  0  0  0  0  0  0  0  0  0
    4.1844    3.4565   -0.6162 H   0  0  0  0  0  0  0  0  0  0  0  0
    6.5541    3.8252   -1.3389 H   0  0  0  0  0  0  0  0  0  0  0  0
    8.0251    1.8581   -1.8562 H   0  0  0  0  0  0  0  0  0  0  0  0
    8.3846   -4.7539   -3.2348 H   0  0  0  0  0  0  0  0  0  0  0  0
    8.4581   -4.9714   -1.4863 H   0  0  0  0  0  0  0  0  0  0  0  0
   10.6653   -5.4303   -2.7587 H   0  0  0  0  0  0  0  0  0  0  0  0
   10.7974   -4.3259   -1.3839 H   0  0  0  0  0  0  0  0  0  0  0  0
   10.4916   -3.4182   -4.3109 H   0  0  0  0  0  0  0  0  0  0  0  0
   12.0278   -3.4688   -3.4306 H   0  0  0  0  0  0  0  0  0  0  0  0
   11.2855   -1.7676   -1.8600 H   0  0  0  0  0  0  0  0  0  0  0  0
   10.4336   -0.8675   -4.5182 H   0  0  0  0  0  0  0  0  0  0  0  0
   11.9860   -0.9465   -3.9940 H   0  0  0  0  0  0  0  0  0  0  0  0
    4.7647   -0.7992   -0.9291 H   0  0  0  0  0  0  0  0  0  0  0  0
  1  2  1  0
  1 20  1  0
  1 21  1  0
  1 22  1  0
  2  3  1  0
  2 23  1  0
  2 24  1  0
  3  4  1  0
  4  5  2  0
  4 19  1  0
  5  6  1  0
  5 25  1  0
  6  7  2  0
  6 26  1  0
  7  8  1  0
  7 27  1  0
  8  9  1  0
  8 19  2  0
  9 10  2  0
  9 13  1  0
 10 11  1  0
 11 12  2  0
 11 17  1  0
 12 13  1  0
 12 14  1  0
 14 15  1  0
 14 28  1  0
 14 29  1  0
 15 16  1  0
 15 30  1  0
 15 31  1  0
 16 17  1  0
 16 32  1  0
 16 33  1  0
 17 18  1  0
 17 34  1  1
 18 35  1  0
 18 36  1  0
 19 37  1  0
M  END

