
     RDKit          3D

 40 40  0  0  0  0  0  0  0  0999 V2000
    2.3880   -0.9074   -1.4617 C   0  0  0  0  0  0  0  0  0  0  0  0
    3.1150   -0.0542   -0.0432 S   0  0  1  0  0  0  0  0  0  0  0  0
    2.0922   -0.0155    1.0102 O   0  0  0  0  0  0  0  0  0  0  0  0
    4.4365   -0.6520    0.1915 O   0  0  0  0  0  0  0  0  0  0  0  0
    3.3707    1.6356   -0.6288 C   0  0  0  0  0  0  0  0  0  0  0  0
    2.3504    2.5783   -0.4699 C   0  0  0  0  0  0  0  0  0  0  0  0
    2.5605    3.8822   -0.9157 C   0  0  0  0  0  0  0  0  0  0  0  0
    3.7746    4.2447   -1.5207 C   0  0  0  0  0  0  0  0  0  0  0  0
    3.9147    5.6833   -1.9659 C   0  0  0  0  0  0  0  0  0  0  0  0
    3.1904    6.5549   -1.5100 O   0  0  0  0  0  0  0  0  0  0  0  0
    4.8713    5.9325   -2.9099 N   0  0  0  0  0  0  0  0  0  0  0  0
    5.1278    7.2708   -3.4210 C   0  0  0  0  0  0  0  0  0  0  0  0
    6.3829    7.9323   -2.8368 C   0  0  0  0  0  0  0  0  0  0  0  0
    7.6888    7.2159   -3.1874 C   0  0  0  0  0  0  0  0  0  0  0  0
    8.9304    7.8760   -2.5651 C   0  0  0  0  0  0  0  0  0  0  0  0
   10.2176    7.1761   -2.9115 C   0  0  0  0  0  0  0  0  0  0  0  0
   10.6356    7.1944   -4.2234 N   0  0  0  0  0  0  0  0  0  0  0  0
   10.8188    6.5292   -1.9724 N   0  0  0  0  0  0  0  0  0  0  0  0
   11.9873    5.9150   -2.4758 O   0  0  0  0  0  0  0  0  0  0  0  0
    4.7970    3.2891   -1.6384 C   0  0  0  0  0  0  0  0  0  0  0  0
    4.6012    1.9808   -1.1910 C   0  0  0  0  0  0  0  0  0  0  0  0
    2.2252   -1.9386   -1.1173 H   0  0  0  0  0  0  0  0  0  0  0  0
    3.0959   -0.8872   -2.3001 H   0  0  0  0  0  0  0  0  0  0  0  0
    1.4337   -0.4323   -1.7226 H   0  0  0  0  0  0  0  0  0  0  0  0
    1.4171    2.2892    0.0175 H   0  0  0  0  0  0  0  0  0  0  0  0
    1.7960    4.6517   -0.7947 H   0  0  0  0  0  0  0  0  0  0  0  0
    5.3748    5.1534   -3.3125 H   0  0  0  0  0  0  0  0  0  0  0  0
    4.2417    7.8729   -3.1765 H   0  0  0  0  0  0  0  0  0  0  0  0
    5.2071    7.2185   -4.5211 H   0  0  0  0  0  0  0  0  0  0  0  0
    6.2708    7.9971   -1.7406 H   0  0  0  0  0  0  0  0  0  0  0  0
    6.4214    8.9733   -3.2056 H   0  0  0  0  0  0  0  0  0  0  0  0
    7.8044    7.1688   -4.2852 H   0  0  0  0  0  0  0  0  0  0  0  0
    7.6483    6.1697   -2.8376 H   0  0  0  0  0  0  0  0  0  0  0  0
    8.8462    7.8819   -1.4687 H   0  0  0  0  0  0  0  0  0  0  0  0
    8.9908    8.9316   -2.8916 H   0  0  0  0  0  0  0  0  0  0  0  0
   10.3659    7.9912   -4.7873 H   0  0  0  0  0  0  0  0  0  0  0  0
   11.5783    6.8496   -4.3744 H   0  0  0  0  0  0  0  0  0  0  0  0
   12.3711    5.5165   -1.6861 H   0  0  0  0  0  0  0  0  0  0  0  0
    5.7733    3.5624   -2.0460 H   0  0  0  0  0  0  0  0  0  0  0  0
    5.3975    1.2362   -1.2491 H   0  0  0  0  0  0  0  0  0  0  0  0
  2  1  1  6
  1 22  1  0
  1 23  1  0
  1 24  1  0
  2  3  2  0
  2  4  2  0
  2  5  1  0
  5  6  2  0
  5 21  1  0
  6  7  1  0
  6 25  1  0
  7  8  2  0
  7 26  1  0
  8  9  1  0
  8 20  1  0
  9 10  2  0
  9 11  1  0
 11 12  1  0
 11 27  1  0
 12 13  1  0
 12 28  1  0
 12 29  1  0
 13 14  1  0
 13 30  1  0
 13 31  1  0
 14 15  1  0
 14 32  1  0
 14 33  1  0
 15 16  1  0
 15 34  1  0
 15 35  1  0
 16 17  1  0
 16 18  2  0
 17 36  1  0
 17 37  1  0
 18 19  1  0
 19 38  1  0
 20 21  2  0
 20 39  1  0
 21 40  1  0
M  END

