
     RDKit          3D

 36 37  0  0  0  0  0  0  0  0999 V2000
    4.0821    2.3036    3.8624 C   0  0  0  0  0  0  0  0  0  0  0  0
    3.3827    1.3574    2.8707 C   0  0  0  0  0  0  0  0  0  0  0  0
    3.2815    1.9373    1.4817 C   0  0  0  0  0  0  0  0  0  0  0  0
    2.2371    2.8311    1.3115 N   0  0  0  0  0  0  0  0  0  0  0  0
    1.5938    3.0040    2.0773 H   0  0  0  0  0  0  0  0  0  0  0  0
    1.9535    3.5289    0.1636 C   0  0  0  0  0  0  0  0  0  0  0  0
    0.6725    4.5782    0.0413 S   0  0  0  0  0  0  0  0  0  0  0  0
    2.8320    3.2634   -0.8522 N   0  0  0  0  0  0  0  0  0  0  0  0
    2.6691    3.7500   -1.7304 H   0  0  0  0  0  0  0  0  0  0  0  0
    3.9260    2.3822   -0.8301 C   0  0  0  0  0  0  0  0  0  0  0  0
    4.6150    2.2515   -1.8280 O   0  0  0  0  0  0  0  0  0  0  0  0
    4.1423    1.6897    0.4481 C   0  0  0  0  0  0  0  0  0  0  0  0
    5.3299    0.7491    0.5118 C   0  0  0  0  0  0  0  0  0  0  0  0
    5.0478   -0.6697    0.0361 C   0  0  0  0  0  0  0  0  0  0  0  0
    4.8779   -0.9541   -1.3329 C   0  0  0  0  0  0  0  0  0  0  0  0
    4.6274   -2.2561   -1.7515 C   0  0  0  0  0  0  0  0  0  0  0  0
    4.4193   -2.5987   -3.4579 Cl  0  0  0  0  0  0  0  0  0  0  0  0
    4.5409   -3.3177   -0.8389 C   0  0  0  0  0  0  0  0  0  0  0  0
    4.7117   -3.0397    0.5149 C   0  0  0  0  0  0  0  0  0  0  0  0
    4.6631   -3.9554    1.5296 O   0  0  0  0  0  0  0  0  0  0  0  0
    4.4443   -5.3167    1.2217 C   0  0  0  0  0  0  0  0  0  0  0  0
    4.9643   -1.7205    0.9551 C   0  0  0  0  0  0  0  0  0  0  0  0
    5.1256   -1.4979    2.2909 O   0  0  0  0  0  0  0  0  0  0  0  0
    4.1061    1.8551    4.8675 H   0  0  0  0  0  0  0  0  0  0  0  0
    3.5656    3.2739    3.9387 H   0  0  0  0  0  0  0  0  0  0  0  0
    5.1201    2.5021    3.5542 H   0  0  0  0  0  0  0  0  0  0  0  0
    2.3608    1.1387    3.2282 H   0  0  0  0  0  0  0  0  0  0  0  0
    3.9101    0.3960    2.8332 H   0  0  0  0  0  0  0  0  0  0  0  0
    5.7321    0.7104    1.5315 H   0  0  0  0  0  0  0  0  0  0  0  0
    6.1101    1.1773   -0.1351 H   0  0  0  0  0  0  0  0  0  0  0  0
    4.9461   -0.1422   -2.0576 H   0  0  0  0  0  0  0  0  0  0  0  0
    4.3462   -4.3266   -1.1987 H   0  0  0  0  0  0  0  0  0  0  0  0
    4.4544   -5.8616    2.1748 H   0  0  0  0  0  0  0  0  0  0  0  0
    5.2399   -5.7160    0.5684 H   0  0  0  0  0  0  0  0  0  0  0  0
    3.4673   -5.4678    0.7300 H   0  0  0  0  0  0  0  0  0  0  0  0
    5.0542   -2.3614    2.7302 H   0  0  0  0  0  0  0  0  0  0  0  0
  1  2  1  0
  1 24  1  0
  1 25  1  0
  1 26  1  0
  2  3  1  0
  2 27  1  0
  2 28  1  0
  3  4  1  0
  3 12  2  0
  4  5  1  0
  4  6  1  0
  6  7  2  0
  6  8  1  0
  8  9  1  0
  8 10  1  0
 10 11  2  0
 10 12  1  0
 12 13  1  0
 13 14  1  0
 13 29  1  0
 13 30  1  0
 14 15  2  0
 14 22  1  0
 15 16  1  0
 15 31  1  0
 16 17  1  0
 16 18  2  0
 18 19  1  0
 18 32  1  0
 19 20  1  0
 19 22  2  0
 20 21  1  0
 21 33  1  0
 21 34  1  0
 21 35  1  0
 22 23  1  0
 23 36  1  0
M  END

