
     RDKit          3D

 25 26  0  0  0  0  0  0  0  0999 V2000
    1.4801   -0.9367    0.7040 C   0  0  0  0  0  0  0  0  0  0  0  0
    2.4654    0.1113    0.1732 C   0  0  2  0  0  0  0  0  0  0  0  0
    1.9319    0.7640   -0.5463 H   0  0  0  0  0  0  0  0  0  0  0  0
    3.6390   -0.5588   -0.3893 N   0  0  0  0  0  0  0  0  0  0  0  0
    2.9031    1.0477    1.2591 C   0  0  0  0  0  0  0  0  0  0  0  0
    2.7910    2.3383    1.2924 N   0  0  0  0  0  0  0  0  0  0  0  0
    3.3371    2.7561    2.4908 N   0  0  0  0  0  0  0  0  0  0  0  0
    3.7469    1.6868    3.1075 C   0  0  0  0  0  0  0  0  0  0  0  0
    4.3998    1.5810    4.4100 C   0  0  0  0  0  0  0  0  0  0  0  0
    4.6247    2.7491    5.1616 C   0  0  0  0  0  0  0  0  0  0  0  0
    5.2468    2.6670    6.4060 C   0  0  0  0  0  0  0  0  0  0  0  0
    5.6500    1.4254    6.9126 C   0  0  0  0  0  0  0  0  0  0  0  0
    5.4284    0.2630    6.1676 C   0  0  0  0  0  0  0  0  0  0  0  0
    4.8060    0.3360    4.9202 C   0  0  0  0  0  0  0  0  0  0  0  0
    3.5028    0.5644    2.3783 O   0  0  0  0  0  0  0  0  0  0  0  0
    1.9684   -1.5712    1.4586 H   0  0  0  0  0  0  0  0  0  0  0  0
    1.1352   -1.5826   -0.1196 H   0  0  0  0  0  0  0  0  0  0  0  0
    0.5965   -0.4594    1.1530 H   0  0  0  0  0  0  0  0  0  0  0  0
    4.2408    0.1140   -0.8651 H   0  0  0  0  0  0  0  0  0  0  0  0
    3.3451   -1.2370   -1.0924 H   0  0  0  0  0  0  0  0  0  0  0  0
    4.3044    3.7089    4.7523 H   0  0  0  0  0  0  0  0  0  0  0  0
    5.4192    3.5767    6.9864 H   0  0  0  0  0  0  0  0  0  0  0  0
    6.1376    1.3650    7.8889 H   0  0  0  0  0  0  0  0  0  0  0  0
    5.7429   -0.7072    6.5598 H   0  0  0  0  0  0  0  0  0  0  0  0
    4.6339   -0.5692    4.3349 H   0  0  0  0  0  0  0  0  0  0  0  0
  1  2  1  0
  1 16  1  0
  1 17  1  0
  1 18  1  0
  2  3  1  6
  2  4  1  0
  2  5  1  0
  4 19  1  0
  4 20  1  0
  5  6  2  0
  5 15  1  0
  6  7  1  0
  7  8  2  0
  8  9  1  0
  8 15  1  0
  9 10  2  0
  9 14  1  0
 10 11  1  0
 10 21  1  0
 11 12  2  0
 11 22  1  0
 12 13  1  0
 12 23  1  0
 13 14  2  0
 13 24  1  0
 14 25  1  0
M  END

