
     RDKit          3D

 49 52  0  0  0  0  0  0  0  0999 V2000
    6.5186   -4.0989   -2.3153 C   0  0  0  0  0  0  0  0  0  0  0  0
    5.8127   -2.9256   -1.9774 O   0  0  0  0  0  0  0  0  0  0  0  0
    4.5984   -3.0305   -1.3816 C   0  0  0  0  0  0  0  0  0  0  0  0
    3.9509   -1.8190   -1.0786 C   0  0  0  0  0  0  0  0  0  0  0  0
    2.6993   -1.8334   -0.4678 C   0  0  0  0  0  0  0  0  0  0  0  0
    2.0723   -3.0414   -0.1488 C   0  0  0  0  0  0  0  0  0  0  0  0
    2.7152   -4.2508   -0.4481 C   0  0  0  0  0  0  0  0  0  0  0  0
    2.0880   -5.5436   -0.1282 C   0  0  0  0  0  0  0  0  0  0  0  0
    2.6946   -6.7468   -0.3648 N   0  0  0  0  0  0  0  0  0  0  0  0
    1.8277   -7.6548    0.0388 C   0  0  0  0  0  0  0  0  0  0  0  0
    2.0304   -9.1168   -0.0760 C   0  0  0  0  0  0  0  0  0  0  0  0
    1.0931   -9.8924   -0.7771 C   0  0  0  0  0  0  0  0  0  0  0  0
    1.2948  -11.2574   -0.9704 C   0  0  0  0  0  0  0  0  0  0  0  0
    2.4406  -11.8623   -0.4496 C   0  0  0  0  0  0  0  0  0  0  0  0
    3.3726  -11.0967    0.2535 C   0  0  0  0  0  0  0  0  0  0  0  0
    3.1981   -9.7187    0.4514 C   0  0  0  0  0  0  0  0  0  0  0  0
    4.2344   -8.9311    1.2160 C   0  0  0  0  0  0  0  0  0  0  0  0
    0.7075   -7.0035    0.5220 N   0  0  0  0  0  0  0  0  0  0  0  0
   -0.4660   -7.5264    1.1887 C   0  0  0  0  0  0  0  0  0  0  0  0
   -0.6102   -8.7146    1.3589 O   0  0  0  0  0  0  0  0  0  0  0  0
   -1.3011   -6.5195    1.5568 N   0  0  0  0  0  0  0  0  0  0  0  0
   -2.5376   -6.6151    2.2246 C   0  0  0  0  0  0  0  0  0  0  0  0
   -3.1093   -7.8352    2.6257 C   0  0  0  0  0  0  0  0  0  0  0  0
   -4.3426   -7.8315    3.2825 C   0  0  0  0  0  0  0  0  0  0  0  0
   -5.0185   -6.6378    3.5487 C   0  0  0  0  0  0  0  0  0  0  0  0
   -4.4462   -5.4263    3.1484 C   0  0  0  0  0  0  0  0  0  0  0  0
   -3.2165   -5.4122    2.4918 C   0  0  0  0  0  0  0  0  0  0  0  0
    0.8848   -5.6616    0.4087 N   0  0  0  0  0  0  0  0  0  0  0  0
    3.9792   -4.2462   -1.0656 C   0  0  0  0  0  0  0  0  0  0  0  0
    7.4595   -3.7746   -2.7801 H   0  0  0  0  0  0  0  0  0  0  0  0
    5.9594   -4.7229   -3.0354 H   0  0  0  0  0  0  0  0  0  0  0  0
    6.7513   -4.7103   -1.4249 H   0  0  0  0  0  0  0  0  0  0  0  0
    4.4530   -0.8838   -1.3344 H   0  0  0  0  0  0  0  0  0  0  0  0
    2.2039   -0.8870   -0.2364 H   0  0  0  0  0  0  0  0  0  0  0  0
    1.0923   -3.0524    0.3296 H   0  0  0  0  0  0  0  0  0  0  0  0
    0.1961   -9.4174   -1.1772 H   0  0  0  0  0  0  0  0  0  0  0  0
    0.5573  -11.8453   -1.5219 H   0  0  0  0  0  0  0  0  0  0  0  0
    2.6098  -12.9334   -0.5878 H   0  0  0  0  0  0  0  0  0  0  0  0
    4.2643  -11.5777    0.6647 H   0  0  0  0  0  0  0  0  0  0  0  0
    4.9899   -9.6008    1.6514 H   0  0  0  0  0  0  0  0  0  0  0  0
    3.7812   -8.3512    2.0363 H   0  0  0  0  0  0  0  0  0  0  0  0
    4.7421   -8.2046    0.5642 H   0  0  0  0  0  0  0  0  0  0  0  0
   -0.9608   -5.5890    1.3183 H   0  0  0  0  0  0  0  0  0  0  0  0
   -2.5867   -8.7671    2.4219 H   0  0  0  0  0  0  0  0  0  0  0  0
   -4.7787   -8.7853    3.5906 H   0  0  0  0  0  0  0  0  0  0  0  0
   -5.9821   -6.6501    4.0632 H   0  0  0  0  0  0  0  0  0  0  0  0
   -4.9591   -4.4820    3.3475 H   0  0  0  0  0  0  0  0  0  0  0  0
   -2.7736   -4.4617    2.1805 H   0  0  0  0  0  0  0  0  0  0  0  0
    4.4454   -5.2047   -1.2868 H   0  0  0  0  0  0  0  0  0  0  0  0
  1  2  1  0
  1 30  1  0
  1 31  1  0
  1 32  1  0
  2  3  1  0
  3  4  2  0
  3 29  1  0
  4  5  1  0
  4 33  1  0
  5  6  2  0
  5 34  1  0
  6  7  1  0
  6 35  1  0
  7  8  1  0
  7 29  2  0
  8  9  1  0
  8 28  2  0
  9 10  2  0
 10 11  1  0
 10 18  1  0
 11 12  2  0
 11 16  1  0
 12 13  1  0
 12 36  1  0
 13 14  2  0
 13 37  1  0
 14 15  1  0
 14 38  1  0
 15 16  2  0
 15 39  1  0
 16 17  1  0
 17 40  1  0
 17 41  1  0
 17 42  1  0
 18 19  1  0
 18 28  1  0
 19 20  2  0
 19 21  1  0
 21 22  1  0
 21 43  1  0
 22 23  2  0
 22 27  1  0
 23 24  1  0
 23 44  1  0
 24 25  2  0
 24 45  1  0
 25 26  1  0
 25 46  1  0
 26 27  2  0
 26 47  1  0
 27 48  1  0
 29 49  1  0
M  END

