
     RDKit          3D

 34 35  0  0  0  0  0  0  0  0999 V2000
    3.4741    1.2888   -0.3384 C   0  0  0  0  0  0  0  0  0  0  0  0
    2.7879    0.0543   -0.2907 O   0  0  0  0  0  0  0  0  0  0  0  0
    3.3200   -0.9827    0.4059 C   0  0  0  0  0  0  0  0  0  0  0  0
    4.5142   -0.9203    1.1322 C   0  0  0  0  0  0  0  0  0  0  0  0
    4.9720   -2.0298    1.8675 C   0  0  0  0  0  0  0  0  0  0  0  0
    6.2324   -2.0087    2.6893 C   0  0  0  0  0  0  0  0  0  0  0  0
    6.3834   -2.7507    3.6444 O   0  0  0  0  0  0  0  0  0  0  0  0
    7.1897   -1.1061    2.2646 N   0  0  0  0  0  0  0  0  0  0  0  0
    8.4426   -0.8215    2.8335 C   0  0  0  0  0  0  0  0  0  0  0  0
    8.9071   -1.4039    4.0272 C   0  0  0  0  0  0  0  0  0  0  0  0
   10.1609   -1.0499    4.5217 C   0  0  0  0  0  0  0  0  0  0  0  0
   10.9775   -0.1275    3.8597 C   0  0  0  0  0  0  0  0  0  0  0  0
   12.5357    0.2777    4.5202 Cl  0  0  0  0  0  0  0  0  0  0  0  0
   10.5146    0.4518    2.6672 C   0  0  0  0  0  0  0  0  0  0  0  0
   11.4790    1.6069    1.7909 Cl  0  0  0  0  0  0  0  0  0  0  0  0
    9.2599    0.1056    2.1646 C   0  0  0  0  0  0  0  0  0  0  0  0
    4.2121   -3.2042    1.8837 C   0  0  0  0  0  0  0  0  0  0  0  0
    3.0366   -3.2830    1.1382 C   0  0  0  0  0  0  0  0  0  0  0  0
    2.5870   -2.1925    0.3964 C   0  0  0  0  0  0  0  0  0  0  0  0
    1.3860   -2.3283   -0.2562 O   0  0  0  0  0  0  0  0  0  0  0  0
    1.2215   -1.9111   -1.5611 C   0  0  1  0  0  0  0  0  0  0  0  0
    2.2498   -2.3466   -2.3244 F   0  0  0  0  0  0  0  0  0  0  0  0
    0.0957   -2.4916   -1.9949 F   0  0  0  0  0  0  0  0  0  0  0  0
    2.8664    1.9592   -0.9597 H   0  0  0  0  0  0  0  0  0  0  0  0
    4.4731    1.1822   -0.7970 H   0  0  0  0  0  0  0  0  0  0  0  0
    3.5823    1.7325    0.6668 H   0  0  0  0  0  0  0  0  0  0  0  0
    5.0602    0.0223    1.1697 H   0  0  0  0  0  0  0  0  0  0  0  0
    7.0083   -0.6500    1.3792 H   0  0  0  0  0  0  0  0  0  0  0  0
    8.2867   -2.1289    4.5474 H   0  0  0  0  0  0  0  0  0  0  0  0
   10.5251   -1.4998    5.4470 H   0  0  0  0  0  0  0  0  0  0  0  0
    8.9258    0.5733    1.2359 H   0  0  0  0  0  0  0  0  0  0  0  0
    4.5611   -4.0498    2.4775 H   0  0  0  0  0  0  0  0  0  0  0  0
    2.4364   -4.1943    1.1160 H   0  0  0  0  0  0  0  0  0  0  0  0
    1.1425   -0.8195   -1.6636 H   0  0  0  0  0  0  0  0  0  0  0  0
  1  2  1  0
  1 24  1  0
  1 25  1  0
  1 26  1  0
  2  3  1  0
  3  4  2  0
  3 19  1  0
  4  5  1  0
  4 27  1  0
  5  6  1  0
  5 17  2  0
  6  7  2  0
  6  8  1  0
  8  9  1  0
  8 28  1  0
  9 10  2  0
  9 16  1  0
 10 11  1  0
 10 29  1  0
 11 12  2  0
 11 30  1  0
 12 13  1  0
 12 14  1  0
 14 15  1  0
 14 16  2  0
 16 31  1  0
 17 18  1  0
 17 32  1  0
 18 19  2  0
 18 33  1  0
 19 20  1  0
 20 21  1  0
 21 22  1  0
 21 23  1  0
 21 34  1  1
M  END

