
     RDKit          3D

 47 50  0  0  0  0  0  0  0  0999 V2000
    3.2437   -0.4697    1.6688 C   0  0  0  0  0  0  0  0  0  0  0  0
    2.7444   -0.7511    0.2477 C   0  0  1  0  0  0  0  0  0  0  0  0
    1.2830   -1.2135    0.2502 C   0  0  0  0  0  0  0  0  0  0  0  0
    2.9155    0.4762   -0.6836 C   0  0  0  0  0  0  0  0  0  0  0  0
    4.3281    0.9274   -0.8975 C   0  0  0  0  0  0  0  0  0  0  0  0
    5.1989    0.2565   -1.7295 N   0  0  0  0  0  0  0  0  0  0  0  0
    4.9823   -0.5671   -2.2807 H   0  0  0  0  0  0  0  0  0  0  0  0
    6.4327    0.7797   -1.8096 N   0  0  0  0  0  0  0  0  0  0  0  0
    6.3544    1.8235   -0.9942 C   0  0  0  0  0  0  0  0  0  0  0  0
    5.0928    1.9690   -0.4005 C   0  0  0  0  0  0  0  0  0  0  0  0
    5.0798    3.1767    0.4965 C   0  0  2  0  0  0  0  0  0  0  0  0
    4.0015    4.1968    0.1473 C   0  0  0  0  0  0  0  0  0  0  0  0
    2.8698    4.3333    0.9614 C   0  0  0  0  0  0  0  0  0  0  0  0
    1.8428    5.2224    0.6291 C   0  0  0  0  0  0  0  0  0  0  0  0
    1.9667    5.9833   -0.5294 C   0  0  0  0  0  0  0  0  0  0  0  0
    0.9914    6.8431   -0.8564 F   0  0  0  0  0  0  0  0  0  0  0  0
    3.0843    5.8759   -1.3569 C   0  0  0  0  0  0  0  0  0  0  0  0
    4.0958    4.9793   -1.0135 C   0  0  0  0  0  0  0  0  0  0  0  0
    6.4661    3.6829    0.3216 N   0  0  0  0  0  0  0  0  0  0  0  0
    6.9468    4.7878    1.0715 C   0  0  0  0  0  0  0  0  0  0  0  0
    8.0522    5.5437    0.6380 C   0  0  0  0  0  0  0  0  0  0  0  0
    8.5112    6.6248    1.3903 C   0  0  0  0  0  0  0  0  0  0  0  0
    7.8804    6.9925    2.5854 C   0  0  0  0  0  0  0  0  0  0  0  0
    8.2902    8.0412    3.3482 O   0  0  0  0  0  0  0  0  0  0  0  0
    6.7752    6.2510    3.0195 C   0  0  0  0  0  0  0  0  0  0  0  0
    6.3206    5.1642    2.2752 C   0  0  0  0  0  0  0  0  0  0  0  0
    7.2636    2.9022   -0.5456 C   0  0  0  0  0  0  0  0  0  0  0  0
    8.4239    3.1042   -0.8314 O   0  0  0  0  0  0  0  0  0  0  0  0
    3.1484   -1.3640    2.3049 H   0  0  0  0  0  0  0  0  0  0  0  0
    2.6537    0.3361    2.1395 H   0  0  0  0  0  0  0  0  0  0  0  0
    4.3014   -0.1639    1.6776 H   0  0  0  0  0  0  0  0  0  0  0  0
    3.3590   -1.5712   -0.1697 H   0  0  0  0  0  0  0  0  0  0  0  0
    0.6208   -0.4254    0.6478 H   0  0  0  0  0  0  0  0  0  0  0  0
    1.1496   -2.1080    0.8791 H   0  0  0  0  0  0  0  0  0  0  0  0
    0.9325   -1.4610   -0.7650 H   0  0  0  0  0  0  0  0  0  0  0  0
    2.3403    1.3234   -0.2758 H   0  0  0  0  0  0  0  0  0  0  0  0
    2.4604    0.2429   -1.6624 H   0  0  0  0  0  0  0  0  0  0  0  0
    4.9327    2.8659    1.5461 H   0  0  0  0  0  0  0  0  0  0  0  0
    2.7857    3.7409    1.8774 H   0  0  0  0  0  0  0  0  0  0  0  0
    0.9581    5.3398    1.2578 H   0  0  0  0  0  0  0  0  0  0  0  0
    3.1476    6.4948   -2.2540 H   0  0  0  0  0  0  0  0  0  0  0  0
    4.9762    4.8910   -1.6542 H   0  0  0  0  0  0  0  0  0  0  0  0
    8.5654    5.2680   -0.2797 H   0  0  0  0  0  0  0  0  0  0  0  0
    9.3768    7.1936    1.0349 H   0  0  0  0  0  0  0  0  0  0  0  0
    9.0567    8.4580    2.9335 H   0  0  0  0  0  0  0  0  0  0  0  0
    6.2803    6.5361    3.9500 H   0  0  0  0  0  0  0  0  0  0  0  0
    5.4612    4.6093    2.6506 H   0  0  0  0  0  0  0  0  0  0  0  0
  1  2  1  0
  1 29  1  0
  1 30  1  0
  1 31  1  0
  2  3  1  0
  2  4  1  0
  2 32  1  6
  3 33  1  0
  3 34  1  0
  3 35  1  0
  4  5  1  0
  4 36  1  0
  4 37  1  0
  5  6  1  0
  5 10  2  0
  6  7  1  0
  6  8  1  0
  8  9  2  0
  9 10  1  0
  9 27  1  0
 10 11  1  0
 11 12  1  0
 11 19  1  0
 11 38  1  1
 12 13  2  0
 12 18  1  0
 13 14  1  0
 13 39  1  0
 14 15  2  0
 14 40  1  0
 15 16  1  0
 15 17  1  0
 17 18  2  0
 17 41  1  0
 18 42  1  0
 19 20  1  0
 19 27  1  0
 20 21  2  0
 20 26  1  0
 21 22  1  0
 21 43  1  0
 22 23  2  0
 22 44  1  0
 23 24  1  0
 23 25  1  0
 24 45  1  0
 25 26  2  0
 25 46  1  0
 26 47  1  0
 27 28  2  0
M  END

