
     RDKit          3D

 32 33  0  0  0  0  0  0  0  0999 V2000
    8.6358    0.4778   -1.2544 O   0  0  0  0  0  0  0  0  0  0  0  0
    8.1853    1.2415   -0.4406 C   0  0  0  0  0  0  0  0  0  0  0  0
    8.8490    2.3780   -0.1384 O   0  0  0  0  0  0  0  0  0  0  0  0
    6.8800    1.0198    0.3110 C   0  0  0  0  0  0  0  0  0  0  0  0
    6.1466   -0.2500   -0.1348 C   0  0  0  0  0  0  0  0  0  0  0  0
    6.9048   -1.4609    0.0958 N   0  0  0  0  0  0  0  0  0  0  0  0
    6.7552   -2.2055    1.2354 C   0  0  0  0  0  0  0  0  0  0  0  0
    5.9195   -1.9301    2.0849 O   0  0  0  0  0  0  0  0  0  0  0  0
    7.7324   -3.3689    1.3863 C   0  0  2  0  0  0  0  0  0  0  0  0
    8.0557   -4.2186    0.1071 C   0  0  0  0  0  0  0  0  0  0  0  0
    7.8840   -5.6733    0.6056 C   0  0  2  0  0  0  0  0  0  0  0  0
    6.3732   -5.9577    0.7630 C   0  0  0  0  0  0  0  0  0  0  0  0
    5.9818   -5.0971    2.0060 C   0  0  0  0  0  0  0  0  0  0  0  0
    7.3205   -4.4432    2.4222 C   0  0  1  0  0  0  0  0  0  0  0  0
    8.3287   -5.5607    2.0803 C   0  0  0  0  0  0  0  0  0  0  0  0
    8.3671    2.8871    0.5294 H   0  0  0  0  0  0  0  0  0  0  0  0
    6.2326    1.9039    0.1644 H   0  0  0  0  0  0  0  0  0  0  0  0
    7.0963    0.9682    1.3932 H   0  0  0  0  0  0  0  0  0  0  0  0
    5.9053   -0.1756   -1.2067 H   0  0  0  0  0  0  0  0  0  0  0  0
    5.2086   -0.3384    0.4296 H   0  0  0  0  0  0  0  0  0  0  0  0
    7.6942   -1.6267   -0.5185 H   0  0  0  0  0  0  0  0  0  0  0  0
    8.6684   -2.9006    1.7428 H   0  0  0  0  0  0  0  0  0  0  0  0
    9.0819   -4.0356   -0.2485 H   0  0  0  0  0  0  0  0  0  0  0  0
    7.3750   -3.9959   -0.7295 H   0  0  0  0  0  0  0  0  0  0  0  0
    8.4170   -6.4134   -0.0099 H   0  0  0  0  0  0  0  0  0  0  0  0
    6.1972   -7.0300    0.9445 H   0  0  0  0  0  0  0  0  0  0  0  0
    5.8068   -5.6872   -0.1425 H   0  0  0  0  0  0  0  0  0  0  0  0
    5.6033   -5.7299    2.8242 H   0  0  0  0  0  0  0  0  0  0  0  0
    5.2076   -4.3466    1.7989 H   0  0  0  0  0  0  0  0  0  0  0  0
    7.3263   -4.0672    3.4538 H   0  0  0  0  0  0  0  0  0  0  0  0
    8.1628   -6.4860    2.6553 H   0  0  0  0  0  0  0  0  0  0  0  0
    9.3816   -5.2564    2.1995 H   0  0  0  0  0  0  0  0  0  0  0  0
  1  2  2  0
  2  3  1  0
  2  4  1  0
  3 16  1  0
  4  5  1  0
  4 17  1  0
  4 18  1  0
  5  6  1  0
  5 19  1  0
  5 20  1  0
  6  7  1  0
  6 21  1  0
  7  8  2  0
  7  9  1  0
  9 10  1  0
  9 14  1  0
  9 22  1  1
 10 11  1  0
 10 23  1  0
 10 24  1  0
 11 12  1  0
 11 15  1  0
 11 25  1  6
 12 13  1  0
 12 26  1  0
 12 27  1  0
 13 14  1  0
 13 28  1  0
 13 29  1  0
 14 15  1  0
 14 30  1  1
 15 31  1  0
 15 32  1  0
M  END

