
     RDKit          3D

 40 41  0  0  0  0  0  0  0  0999 V2000
    3.4023   -0.0101   -4.9196 C   0  0  0  0  0  0  0  0  0  0  0  0
    2.5695   -0.0636   -3.7734 O   0  0  0  0  0  0  0  0  0  0  0  0
    3.0066    0.6416   -2.6722 C   0  0  0  0  0  0  0  0  0  0  0  0
    2.6226    1.9934   -2.5394 C   0  0  0  0  0  0  0  0  0  0  0  0
    1.7731    2.6562   -3.5953 C   0  0  0  0  0  0  0  0  0  0  0  0
    3.0241    2.6962   -1.3974 C   0  0  0  0  0  0  0  0  0  0  0  0
    3.7863    2.0592   -0.4168 C   0  0  0  0  0  0  0  0  0  0  0  0
    4.2846    2.9558    1.0053 Cl  0  0  0  0  0  0  0  0  0  0  0  0
    4.1449    0.7192   -0.5449 C   0  0  0  0  0  0  0  0  0  0  0  0
    3.7550   -0.0157   -1.6753 C   0  0  0  0  0  0  0  0  0  0  0  0
    4.1154   -1.4925   -1.7965 C   0  0  1  0  0  0  0  0  0  0  0  0
    5.6381   -1.7128   -1.7871 C   0  0  0  0  0  0  0  0  0  0  0  0
    3.4299   -2.3552   -0.7157 C   0  0  0  0  0  0  0  0  0  0  0  0
    1.9027   -2.3389   -0.7595 C   0  0  0  0  0  0  0  0  0  0  0  0
    1.3441   -3.2620    0.2201 N   0  0  0  0  0  0  0  0  0  0  0  0
   -0.0856   -3.3772    0.2015 C   0  0  1  0  0  0  0  0  0  0  0  0
   -0.8378   -3.6356    1.4711 C   0  0  0  0  0  0  0  0  0  0  0  0
   -1.0098   -2.3088    0.7609 C   0  0  0  0  0  0  0  0  0  0  0  0
    2.8997   -0.5834   -5.7116 H   0  0  0  0  0  0  0  0  0  0  0  0
    4.3929   -0.4603   -4.7256 H   0  0  0  0  0  0  0  0  0  0  0  0
    3.5557    1.0257   -5.2711 H   0  0  0  0  0  0  0  0  0  0  0  0
    1.0024    1.9656   -3.9684 H   0  0  0  0  0  0  0  0  0  0  0  0
    2.3740    2.9692   -4.4669 H   0  0  0  0  0  0  0  0  0  0  0  0
    1.2815    3.5562   -3.1985 H   0  0  0  0  0  0  0  0  0  0  0  0
    2.7353    3.7405   -1.2650 H   0  0  0  0  0  0  0  0  0  0  0  0
    4.7270    0.2468    0.2481 H   0  0  0  0  0  0  0  0  0  0  0  0
    3.7310   -1.8364   -2.7683 H   0  0  0  0  0  0  0  0  0  0  0  0
    6.0850   -1.4267   -0.8210 H   0  0  0  0  0  0  0  0  0  0  0  0
    6.1358   -1.1197   -2.5706 H   0  0  0  0  0  0  0  0  0  0  0  0
    5.8769   -2.7746   -1.9594 H   0  0  0  0  0  0  0  0  0  0  0  0
    3.7720   -2.0297    0.2853 H   0  0  0  0  0  0  0  0  0  0  0  0
    3.7651   -3.4005   -0.8255 H   0  0  0  0  0  0  0  0  0  0  0  0
    1.5646   -2.6594   -1.7613 H   0  0  0  0  0  0  0  0  0  0  0  0
    1.5295   -1.2995   -0.6351 H   0  0  0  0  0  0  0  0  0  0  0  0
    1.6735   -3.0303    1.1562 H   0  0  0  0  0  0  0  0  0  0  0  0
   -0.4525   -3.8987   -0.6923 H   0  0  0  0  0  0  0  0  0  0  0  0
   -0.2684   -3.6427    2.4070 H   0  0  0  0  0  0  0  0  0  0  0  0
   -1.6616   -4.3548    1.4551 H   0  0  0  0  0  0  0  0  0  0  0  0
   -0.5451   -1.4291    1.2178 H   0  0  0  0  0  0  0  0  0  0  0  0
   -1.9578   -2.1046    0.2535 H   0  0  0  0  0  0  0  0  0  0  0  0
  1  2  1  0
  1 19  1  0
  1 20  1  0
  1 21  1  0
  2  3  1  0
  3  4  2  0
  3 10  1  0
  4  5  1  0
  4  6  1  0
  5 22  1  0
  5 23  1  0
  5 24  1  0
  6  7  2  0
  6 25  1  0
  7  8  1  0
  7  9  1  0
  9 10  2  0
  9 26  1  0
 10 11  1  0
 11 12  1  0
 11 13  1  0
 11 27  1  6
 12 28  1  0
 12 29  1  0
 12 30  1  0
 13 14  1  0
 13 31  1  0
 13 32  1  0
 14 15  1  0
 14 33  1  0
 14 34  1  0
 15 16  1  0
 15 35  1  0
 16 17  1  0
 16 18  1  0
 16 36  1  6
 17 18  1  0
 17 37  1  0
 17 38  1  0
 18 39  1  0
 18 40  1  0
M  END

