
     RDKit          3D

 50 50  0  0  0  0  0  0  0  0999 V2000
    0.6433    0.0854   -0.1079 C   0  0  0  0  0  0  0  0  0  0  0  0
    2.1717    0.0397   -0.0769 C   0  0  0  0  0  0  0  0  0  0  0  0
    2.7890    0.8870    1.0402 C   0  0  0  0  0  0  0  0  0  0  0  0
    4.3194    0.8469    1.0785 C   0  0  0  0  0  0  0  0  0  0  0  0
    4.9359    1.6938    2.1958 C   0  0  0  0  0  0  0  0  0  0  0  0
    6.4665    1.6540    2.2338 C   0  0  0  0  0  0  0  0  0  0  0  0
    7.0827    2.5005    3.3515 C   0  0  0  0  0  0  0  0  0  0  0  0
    8.6143    2.4594    3.3899 C   0  0  0  0  0  0  0  0  0  0  0  0
    9.2121    3.3157    4.5125 C   0  0  0  0  0  0  0  0  0  0  0  0
   10.7486    3.2954    4.6648 C   0  0  1  0  0  0  0  0  0  0  0  0
   11.4374    3.8500    3.4022 C   0  0  0  0  0  0  0  0  0  0  0  0
   11.1841    4.1047    5.9123 C   0  0  0  0  0  0  0  0  0  0  0  0
   12.5885    3.5894    6.2669 C   0  0  0  0  0  0  0  0  0  0  0  0
   12.6398    2.1121    5.7851 C   0  0  2  0  0  0  0  0  0  0  0  0
   13.8155    1.8922    4.9420 N   0  0  0  0  0  0  0  0  0  0  0  0
   14.1479    0.5004    4.7010 C   0  0  0  0  0  0  0  0  0  0  0  0
   11.3071    1.8917    5.0167 C   0  0  0  0  0  0  0  0  0  0  0  0
    0.2348   -0.5342   -0.9223 H   0  0  0  0  0  0  0  0  0  0  0  0
    0.2758    1.1148   -0.2570 H   0  0  0  0  0  0  0  0  0  0  0  0
    0.2118   -0.2827    0.8383 H   0  0  0  0  0  0  0  0  0  0  0  0
    2.5707    0.3779   -1.0508 H   0  0  0  0  0  0  0  0  0  0  0  0
    2.5073   -1.0076    0.0350 H   0  0  0  0  0  0  0  0  0  0  0  0
    2.3904    0.5492    2.0154 H   0  0  0  0  0  0  0  0  0  0  0  0
    2.4539    1.9354    0.9290 H   0  0  0  0  0  0  0  0  0  0  0  0
    4.7173    1.1848    0.1033 H   0  0  0  0  0  0  0  0  0  0  0  0
    4.6539   -0.2016    1.1891 H   0  0  0  0  0  0  0  0  0  0  0  0
    4.5382    1.3558    3.1710 H   0  0  0  0  0  0  0  0  0  0  0  0
    4.6013    2.7423    2.0854 H   0  0  0  0  0  0  0  0  0  0  0  0
    6.8642    1.9923    1.2587 H   0  0  0  0  0  0  0  0  0  0  0  0
    6.8012    0.6055    2.3438 H   0  0  0  0  0  0  0  0  0  0  0  0
    6.6832    2.1633    4.3263 H   0  0  0  0  0  0  0  0  0  0  0  0
    6.7489    3.5492    3.2407 H   0  0  0  0  0  0  0  0  0  0  0  0
    9.0037    2.7904    2.4115 H   0  0  0  0  0  0  0  0  0  0  0  0
    8.9427    1.4108    3.5064 H   0  0  0  0  0  0  0  0  0  0  0  0
    8.7677    2.9925    5.4723 H   0  0  0  0  0  0  0  0  0  0  0  0
    8.8884    4.3643    4.3727 H   0  0  0  0  0  0  0  0  0  0  0  0
   11.1273    4.8910    3.2090 H   0  0  0  0  0  0  0  0  0  0  0  0
   11.1819    3.2524    2.5133 H   0  0  0  0  0  0  0  0  0  0  0  0
   12.5322    3.8186    3.4966 H   0  0  0  0  0  0  0  0  0  0  0  0
   10.4847    3.8894    6.7390 H   0  0  0  0  0  0  0  0  0  0  0  0
   11.1548    5.1939    5.7446 H   0  0  0  0  0  0  0  0  0  0  0  0
   12.8111    3.6860    7.3410 H   0  0  0  0  0  0  0  0  0  0  0  0
   13.3560    4.1672    5.7272 H   0  0  0  0  0  0  0  0  0  0  0  0
   12.6614    1.4307    6.6649 H   0  0  0  0  0  0  0  0  0  0  0  0
   14.6163    2.3611    5.3632 H   0  0  0  0  0  0  0  0  0  0  0  0
   13.3604    0.0127    4.1036 H   0  0  0  0  0  0  0  0  0  0  0  0
   14.2746   -0.1064    5.6267 H   0  0  0  0  0  0  0  0  0  0  0  0
   15.0812    0.4338    4.1198 H   0  0  0  0  0  0  0  0  0  0  0  0
   10.5894    1.3731    5.6753 H   0  0  0  0  0  0  0  0  0  0  0  0
   11.4487    1.2559    4.1297 H   0  0  0  0  0  0  0  0  0  0  0  0
  1  2  1  0
  1 18  1  0
  1 19  1  0
  1 20  1  0
  2  3  1  0
  2 21  1  0
  2 22  1  0
  3  4  1  0
  3 23  1  0
  3 24  1  0
  4  5  1  0
  4 25  1  0
  4 26  1  0
  5  6  1  0
  5 27  1  0
  5 28  1  0
  6  7  1  0
  6 29  1  0
  6 30  1  0
  7  8  1  0
  7 31  1  0
  7 32  1  0
  8  9  1  0
  8 33  1  0
  8 34  1  0
 10  9  1  6
  9 35  1  0
  9 36  1  0
 10 11  1  0
 10 12  1  0
 10 17  1  0
 11 37  1  0
 11 38  1  0
 11 39  1  0
 12 13  1  0
 12 40  1  0
 12 41  1  0
 13 14  1  0
 13 42  1  0
 13 43  1  0
 14 15  1  0
 14 17  1  0
 14 44  1  1
 15 16  1  0
 15 45  1  0
 16 46  1  0
 16 47  1  0
 16 48  1  0
 17 49  1  0
 17 50  1  0
M  END

