
     RDKit          3D

 51 53  0  0  0  0  0  0  0  0999 V2000
   10.3264    1.7722    0.3429 C   0  0  0  0  0  0  0  0  0  0  0  0
    9.0145    1.4251   -0.3726 C   0  0  0  0  0  0  0  0  0  0  0  0
    7.8447    2.1973    0.1500 C   0  0  0  0  0  0  0  0  0  0  0  0
    7.1572    3.0274   -0.5928 N   0  0  0  0  0  0  0  0  0  0  0  0
    6.1902    3.5228    0.2796 O   0  0  0  0  0  0  0  0  0  0  0  0
    6.3957    2.9392    1.4690 C   0  0  0  0  0  0  0  0  0  0  0  0
    5.5016    3.3532    2.6039 C   0  0  1  0  0  0  0  0  0  0  0  0
    4.0498    3.5765    2.1711 C   0  0  0  0  0  0  0  0  0  0  0  0
    5.5478    2.1319    3.9889 S   0  0  0  0  0  0  0  0  0  0  0  0
    7.1081    2.5764    4.6900 C   0  0  0  0  0  0  0  0  0  0  0  0
    7.4774    3.8021    4.9715 N   0  0  0  0  0  0  0  0  0  0  0  0
    8.7566    3.7510    5.4492 N   0  0  0  0  0  0  0  0  0  0  0  0
    9.1309    2.4920    5.4551 C   0  0  0  0  0  0  0  0  0  0  0  0
   10.3915    2.0090    5.8032 N   0  0  0  0  0  0  0  0  0  0  0  0
   10.5250    1.4473    7.1571 C   0  0  0  0  0  0  0  0  0  0  0  0
   11.8856    0.7706    7.2943 C   0  0  0  0  0  0  0  0  0  0  0  0
   12.9382    1.6628    7.0019 O   0  0  0  0  0  0  0  0  0  0  0  0
   12.8219    2.2020    5.6997 C   0  0  0  0  0  0  0  0  0  0  0  0
   11.4968    2.9328    5.5101 C   0  0  0  0  0  0  0  0  0  0  0  0
    8.1179    1.6825    4.9753 N   0  0  0  0  0  0  0  0  0  0  0  0
    8.2176    0.2782    4.5901 C   0  0  0  0  0  0  0  0  0  0  0  0
    7.7471   -0.7538    5.6346 C   0  0  1  0  0  0  0  0  0  0  0  0
    6.2787   -0.5896    6.0387 C   0  0  0  0  0  0  0  0  0  0  0  0
    8.0228   -2.1631    5.0947 C   0  0  0  0  0  0  0  0  0  0  0  0
    7.3983    2.1130    1.4521 N   0  0  0  0  0  0  0  0  0  0  0  0
   11.1520    1.1531   -0.0407 H   0  0  0  0  0  0  0  0  0  0  0  0
   10.2402    1.5983    1.4263 H   0  0  0  0  0  0  0  0  0  0  0  0
   10.5938    2.8295    0.1900 H   0  0  0  0  0  0  0  0  0  0  0  0
    8.7962    0.3507   -0.2473 H   0  0  0  0  0  0  0  0  0  0  0  0
    9.0925    1.6181   -1.4528 H   0  0  0  0  0  0  0  0  0  0  0  0
    5.9116    4.2808    3.0359 H   0  0  0  0  0  0  0  0  0  0  0  0
    3.5909    2.6457    1.8023 H   0  0  0  0  0  0  0  0  0  0  0  0
    4.0095    4.3181    1.3603 H   0  0  0  0  0  0  0  0  0  0  0  0
    3.4581    3.9472    3.0195 H   0  0  0  0  0  0  0  0  0  0  0  0
    9.7238    0.7161    7.3377 H   0  0  0  0  0  0  0  0  0  0  0  0
   10.4314    2.2469    7.9205 H   0  0  0  0  0  0  0  0  0  0  0  0
   11.9259   -0.1101    6.6192 H   0  0  0  0  0  0  0  0  0  0  0  0
   12.0346    0.4216    8.3276 H   0  0  0  0  0  0  0  0  0  0  0  0
   12.9108    1.3959    4.9418 H   0  0  0  0  0  0  0  0  0  0  0  0
   13.6631    2.8986    5.5648 H   0  0  0  0  0  0  0  0  0  0  0  0
   11.4003    3.2895    4.4741 H   0  0  0  0  0  0  0  0  0  0  0  0
   11.4595    3.8198    6.1712 H   0  0  0  0  0  0  0  0  0  0  0  0
    9.2804    0.1043    4.3630 H   0  0  0  0  0  0  0  0  0  0  0  0
    7.6467    0.1657    3.6553 H   0  0  0  0  0  0  0  0  0  0  0  0
    8.3635   -0.6151    6.5406 H   0  0  0  0  0  0  0  0  0  0  0  0
    5.6085   -0.7401    5.1767 H   0  0  0  0  0  0  0  0  0  0  0  0
    6.0738    0.4089    6.4558 H   0  0  0  0  0  0  0  0  0  0  0  0
    6.0055   -1.3283    6.8093 H   0  0  0  0  0  0  0  0  0  0  0  0
    7.4375   -2.3569    4.1797 H   0  0  0  0  0  0  0  0  0  0  0  0
    7.7453   -2.9303    5.8344 H   0  0  0  0  0  0  0  0  0  0  0  0
    9.0875   -2.3051    4.8469 H   0  0  0  0  0  0  0  0  0  0  0  0
  1  2  1  0
  1 26  1  0
  1 27  1  0
  1 28  1  0
  2  3  1  0
  2 29  1  0
  2 30  1  0
  3  4  2  0
  3 25  1  0
  4  5  1  0
  5  6  1  0
  6  7  1  0
  6 25  2  0
  7  8  1  0
  7  9  1  0
  7 31  1  1
  8 32  1  0
  8 33  1  0
  8 34  1  0
  9 10  1  0
 10 11  2  0
 10 20  1  0
 11 12  1  0
 12 13  2  0
 13 14  1  0
 13 20  1  0
 14 15  1  0
 14 19  1  0
 15 16  1  0
 15 35  1  0
 15 36  1  0
 16 17  1  0
 16 37  1  0
 16 38  1  0
 17 18  1  0
 18 19  1  0
 18 39  1  0
 18 40  1  0
 19 41  1  0
 19 42  1  0
 20 21  1  0
 21 22  1  0
 21 43  1  0
 21 44  1  0
 22 23  1  0
 22 24  1  0
 22 45  1  1
 23 46  1  0
 23 47  1  0
 23 48  1  0
 24 49  1  0
 24 50  1  0
 24 51  1  0
M  END

