
     RDKit          3D

 37 38  0  0  0  0  0  0  0  0999 V2000
    3.0095   -0.0991    1.5385 C   0  0  0  0  0  0  0  0  0  0  0  0
    3.2661   -1.3176    2.3886 C   0  0  0  0  0  0  0  0  0  0  0  0
    3.5452   -1.2136    3.7569 C   0  0  0  0  0  0  0  0  0  0  0  0
    3.7410   -2.3377    4.5631 C   0  0  0  0  0  0  0  0  0  0  0  0
    3.6707   -3.6190    4.0038 C   0  0  0  0  0  0  0  0  0  0  0  0
    3.8532   -4.7557    4.7242 O   0  0  0  0  0  0  0  0  0  0  0  0
    3.4177   -3.7501    2.6327 C   0  0  0  0  0  0  0  0  0  0  0  0
    3.2108   -2.6183    1.8396 C   0  0  0  0  0  0  0  0  0  0  0  0
    2.9584   -2.8159    0.4450 N   0  0  0  0  0  0  0  0  0  0  0  0
    1.3699   -2.9529   -0.1454 S   0  0  1  0  0  0  0  0  0  0  0  0
    0.4281   -2.4111    0.8348 O   0  0  0  0  0  0  0  0  0  0  0  0
    1.4391   -2.4503   -1.5204 O   0  0  0  0  0  0  0  0  0  0  0  0
    1.0910   -4.7077   -0.1833 C   0  0  0  0  0  0  0  0  0  0  0  0
    0.9366   -5.3400   -1.3556 C   0  0  0  0  0  0  0  0  0  0  0  0
    0.6414   -6.7638   -1.5594 C   0  0  0  0  0  0  0  0  0  0  0  0
    0.4394   -7.6681   -0.4951 C   0  0  0  0  0  0  0  0  0  0  0  0
    0.1666   -9.0093   -0.7385 C   0  0  0  0  0  0  0  0  0  0  0  0
    0.0933   -9.4538   -2.0615 C   0  0  0  0  0  0  0  0  0  0  0  0
   -0.1962  -10.8795   -2.3242 N   0  0  0  0  0  0  0  0  0  0  0  0
   -0.3586  -11.6075   -1.3585 O   0  0  0  0  0  0  0  0  0  0  0  0
   -0.2536  -11.2364   -3.4895 O   0  0  0  0  0  0  0  0  0  0  0  0
    0.2839   -8.5909   -3.1396 C   0  0  0  0  0  0  0  0  0  0  0  0
    0.5560   -7.2496   -2.8797 C   0  0  0  0  0  0  0  0  0  0  0  0
    3.0389    0.8169    2.1456 H   0  0  0  0  0  0  0  0  0  0  0  0
    2.0204   -0.1576    1.0570 H   0  0  0  0  0  0  0  0  0  0  0  0
    3.7598    0.0176    0.7361 H   0  0  0  0  0  0  0  0  0  0  0  0
    3.5967   -0.2215    4.2134 H   0  0  0  0  0  0  0  0  0  0  0  0
    3.9469   -2.2168    5.6313 H   0  0  0  0  0  0  0  0  0  0  0  0
    4.0311   -4.5293    5.6465 H   0  0  0  0  0  0  0  0  0  0  0  0
    3.4025   -4.7442    2.1840 H   0  0  0  0  0  0  0  0  0  0  0  0
    3.4641   -2.2080   -0.1987 H   0  0  0  0  0  0  0  0  0  0  0  0
    1.0037   -5.1562    0.8086 H   0  0  0  0  0  0  0  0  0  0  0  0
    1.0422   -4.7329   -2.2610 H   0  0  0  0  0  0  0  0  0  0  0  0
    0.4926   -7.3196    0.5379 H   0  0  0  0  0  0  0  0  0  0  0  0
    0.0077   -9.7200    0.0719 H   0  0  0  0  0  0  0  0  0  0  0  0
    0.2160   -8.9797   -4.1552 H   0  0  0  0  0  0  0  0  0  0  0  0
    0.7070   -6.5602   -3.7138 H   0  0  0  0  0  0  0  0  0  0  0  0
  1  2  1  0
  1 24  1  0
  1 25  1  0
  1 26  1  0
  2  3  2  0
  2  8  1  0
  3  4  1  0
  3 27  1  0
  4  5  2  0
  4 28  1  0
  5  6  1  0
  5  7  1  0
  6 29  1  0
  7  8  2  0
  7 30  1  0
  8  9  1  0
  9 10  1  0
  9 31  1  0
 10 11  2  0
 10 12  2  0
 10 13  1  6
 13 14  2  0
 13 32  1  0
 14 15  1  0
 14 33  1  0
 15 16  2  0
 15 23  1  0
 16 17  1  0
 16 34  1  0
 17 18  2  0
 17 35  1  0
 18 19  1  0
 18 22  1  0
 19 20  2  0
 19 21  1  0
 22 23  2  0
 22 36  1  0
 23 37  1  0
M  CHG  2  19   1  21  -1
M  END

