
     RDKit          3D

 30 31  0  0  0  0  0  0  0  0999 V2000
    1.1000    0.0897    0.2922 N   0  0  0  0  0  0  0  0  0  0  0  0
    2.4832    0.0655    0.1569 C   0  0  0  0  0  0  0  0  0  0  0  0
    3.2054    1.2633    0.0224 C   0  0  0  0  0  0  0  0  0  0  0  0
    4.6022    1.2587   -0.1408 C   0  0  0  0  0  0  0  0  0  0  0  0
    5.3063    2.4505   -0.2133 N   0  0  0  0  0  0  0  0  0  0  0  0
    5.2808    0.0257   -0.1791 C   0  0  0  0  0  0  0  0  0  0  0  0
    4.5667   -1.1695   -0.0686 C   0  0  0  0  0  0  0  0  0  0  0  0
    5.3635   -2.4472   -0.1294 C   0  0  0  0  0  0  0  0  0  0  0  0
    6.5583   -2.4832    0.1320 O   0  0  0  0  0  0  0  0  0  0  0  0
    4.6645   -3.5709   -0.4941 N   0  0  0  0  0  0  0  0  0  0  0  0
    5.3428   -4.8478   -0.6707 C   0  0  0  0  0  0  0  0  0  0  0  0
    5.9138   -5.0676   -2.0497 C   0  0  0  0  0  0  0  0  0  0  0  0
    7.0875   -4.5717   -2.5683 C   0  0  0  0  0  0  0  0  0  0  0  0
    7.2955   -4.9348   -3.9335 C   0  0  0  0  0  0  0  0  0  0  0  0
    6.2760   -5.7008   -4.4414 C   0  0  0  0  0  0  0  0  0  0  0  0
    5.0509   -5.9872   -3.2542 S   0  0  0  0  0  0  0  0  0  0  0  0
    3.1757   -1.1602    0.1087 C   0  0  0  0  0  0  0  0  0  0  0  0
    0.7010    0.9464    0.6587 H   0  0  0  0  0  0  0  0  0  0  0  0
    0.6782   -0.7393    0.6949 H   0  0  0  0  0  0  0  0  0  0  0  0
    2.6711    2.2179    0.0566 H   0  0  0  0  0  0  0  0  0  0  0  0
    4.7908    3.2722   -0.5048 H   0  0  0  0  0  0  0  0  0  0  0  0
    6.2393    2.4003   -0.6045 H   0  0  0  0  0  0  0  0  0  0  0  0
    6.3656   -0.0194   -0.2893 H   0  0  0  0  0  0  0  0  0  0  0  0
    3.7671   -3.4436   -0.9466 H   0  0  0  0  0  0  0  0  0  0  0  0
    4.6412   -5.6566   -0.4126 H   0  0  0  0  0  0  0  0  0  0  0  0
    6.1642   -4.8691    0.0584 H   0  0  0  0  0  0  0  0  0  0  0  0
    7.7660   -3.9556   -1.9762 H   0  0  0  0  0  0  0  0  0  0  0  0
    8.1712   -4.6429   -4.5159 H   0  0  0  0  0  0  0  0  0  0  0  0
    6.1806   -6.1217   -5.4415 H   0  0  0  0  0  0  0  0  0  0  0  0
    2.6224   -2.0912    0.2520 H   0  0  0  0  0  0  0  0  0  0  0  0
  1  2  1  0
  1 18  1  0
  1 19  1  0
  2  3  2  0
  2 17  1  0
  3  4  1  0
  3 20  1  0
  4  5  1  0
  4  6  2  0
  5 21  1  0
  5 22  1  0
  6  7  1  0
  6 23  1  0
  7  8  1  0
  7 17  2  0
  8  9  2  0
  8 10  1  0
 10 11  1  0
 10 24  1  0
 11 12  1  0
 11 25  1  0
 11 26  1  0
 12 13  2  0
 12 16  1  0
 13 14  1  0
 13 27  1  0
 14 15  2  0
 14 28  1  0
 15 16  1  0
 15 29  1  0
 17 30  1  0
M  END

