
     RDKit          3D

 36 36  0  0  0  0  0  0  0  0999 V2000
    0.8122   -0.9841   -0.5884 C   0  0  0  0  0  0  0  0  0  0  0  0
    2.3332   -1.0751   -0.6394 C   0  0  0  0  0  0  0  0  0  0  0  0
    3.0191   -1.0249    1.0742 S   0  0  0  0  0  0  0  0  0  0  0  0
    4.7751   -1.1672    0.7394 C   0  0  0  0  0  0  0  0  0  0  0  0
    5.5859   -0.0246    0.7067 C   0  0  0  0  0  0  0  0  0  0  0  0
    6.9612   -0.1407    0.4833 C   0  0  0  0  0  0  0  0  0  0  0  0
    7.5673   -1.3909    0.2869 C   0  0  0  0  0  0  0  0  0  0  0  0
    9.0708   -1.5056    0.0659 C   0  0  1  0  0  0  0  0  0  0  0  0
    9.7595   -2.1974    1.2562 C   0  0  0  0  0  0  0  0  0  0  0  0
    9.4330   -2.2093   -1.2581 C   0  0  0  0  0  0  0  0  0  0  0  0
    8.9229   -1.4998   -2.5091 C   0  0  0  0  0  0  0  0  0  0  0  0
    9.2355   -2.2340   -3.8072 C   0  0  0  0  0  0  0  0  0  0  0  0
    8.9204   -1.4927   -5.0947 C   0  0  0  0  0  0  0  0  0  0  0  0
    9.7090   -3.3492   -3.8149 O   0  0  0  0  0  0  0  0  0  0  0  0
    6.7445   -2.5309    0.3263 C   0  0  0  0  0  0  0  0  0  0  0  0
    5.3719   -2.4248    0.5549 C   0  0  0  0  0  0  0  0  0  0  0  0
    0.3937   -1.0113   -1.6074 H   0  0  0  0  0  0  0  0  0  0  0  0
    0.4827   -0.0474   -0.1114 H   0  0  0  0  0  0  0  0  0  0  0  0
    0.3800   -1.8238   -0.0212 H   0  0  0  0  0  0  0  0  0  0  0  0
    2.7610   -0.2364   -1.2109 H   0  0  0  0  0  0  0  0  0  0  0  0
    2.6569   -2.0122   -1.1189 H   0  0  0  0  0  0  0  0  0  0  0  0
    5.1325    0.9575    0.8600 H   0  0  0  0  0  0  0  0  0  0  0  0
    7.5779    0.7629    0.4638 H   0  0  0  0  0  0  0  0  0  0  0  0
    9.4647   -0.4747    0.0119 H   0  0  0  0  0  0  0  0  0  0  0  0
    9.4260   -3.2429    1.3583 H   0  0  0  0  0  0  0  0  0  0  0  0
    9.5351   -1.6810    2.2023 H   0  0  0  0  0  0  0  0  0  0  0  0
   10.8534   -2.2084    1.1225 H   0  0  0  0  0  0  0  0  0  0  0  0
    9.0555   -3.2448   -1.2554 H   0  0  0  0  0  0  0  0  0  0  0  0
   10.5301   -2.3038   -1.3216 H   0  0  0  0  0  0  0  0  0  0  0  0
    9.3244   -0.4718   -2.5825 H   0  0  0  0  0  0  0  0  0  0  0  0
    7.8250   -1.3698   -2.4679 H   0  0  0  0  0  0  0  0  0  0  0  0
    9.6187   -0.6465   -5.2145 H   0  0  0  0  0  0  0  0  0  0  0  0
    7.9039   -1.0676   -5.0724 H   0  0  0  0  0  0  0  0  0  0  0  0
    9.0284   -2.1710   -5.9513 H   0  0  0  0  0  0  0  0  0  0  0  0
    7.1813   -3.5233    0.1856 H   0  0  0  0  0  0  0  0  0  0  0  0
    4.7512   -3.3230    0.5992 H   0  0  0  0  0  0  0  0  0  0  0  0
  1  2  1  0
  1 17  1  0
  1 18  1  0
  1 19  1  0
  2  3  1  0
  2 20  1  0
  2 21  1  0
  3  4  1  0
  4  5  2  0
  4 16  1  0
  5  6  1  0
  5 22  1  0
  6  7  2  0
  6 23  1  0
  7  8  1  0
  7 15  1  0
  8  9  1  0
  8 10  1  0
  8 24  1  6
  9 25  1  0
  9 26  1  0
  9 27  1  0
 10 11  1  0
 10 28  1  0
 10 29  1  0
 11 12  1  0
 11 30  1  0
 11 31  1  0
 12 13  1  0
 12 14  2  0
 13 32  1  0
 13 33  1  0
 13 34  1  0
 15 16  2  0
 15 35  1  0
 16 36  1  0
M  END

