
     RDKit          3D

 64 67  0  0  0  0  0  0  0  0999 V2000
    0.5926   -3.5089    2.6272 C   0  0  0  0  0  0  0  0  0  0  0  0
    1.9699   -4.0046    2.2589 C   0  0  0  0  0  0  0  0  0  0  0  0
    2.2280   -5.3659    2.0492 C   0  0  0  0  0  0  0  0  0  0  0  0
    3.5071   -5.8144    1.7048 C   0  0  0  0  0  0  0  0  0  0  0  0
    4.5699   -4.9145    1.5709 C   0  0  0  0  0  0  0  0  0  0  0  0
    5.9592   -5.4125    1.2563 C   0  0  0  0  0  0  0  0  0  0  0  0
    6.6004   -4.5058    0.3714 O   0  0  0  0  0  0  0  0  0  0  0  0
    7.8778   -4.7317   -0.0145 C   0  0  0  0  0  0  0  0  0  0  0  0
    8.4419   -3.7665   -0.8757 C   0  0  0  0  0  0  0  0  0  0  0  0
    9.7416   -3.9065   -1.3323 C   0  0  0  0  0  0  0  0  0  0  0  0
   10.5302   -5.0123   -0.9431 C   0  0  0  0  0  0  0  0  0  0  0  0
   11.9126   -5.1864   -1.3943 C   0  0  0  0  0  0  0  0  0  0  0  0
   12.4821   -4.3087   -2.1427 N   0  0  0  0  0  0  0  0  0  0  0  0
   13.7694   -4.4900   -2.5767 N   0  0  0  0  0  0  0  0  0  0  0  0
   14.4747   -5.5823   -3.0410 C   0  0  0  0  0  0  0  0  0  0  0  0
   15.5766   -5.4114   -3.5400 O   0  0  0  0  0  0  0  0  0  0  0  0
   13.8370   -6.9774   -2.9830 C   0  0  0  0  0  0  0  0  0  0  0  0
   13.8628   -7.5906   -1.7081 O   0  0  0  0  0  0  0  0  0  0  0  0
   14.9938   -8.2471   -1.2774 C   0  0  0  0  0  0  0  0  0  0  0  0
   16.2610   -8.1033   -1.8458 C   0  0  0  0  0  0  0  0  0  0  0  0
   17.3475   -8.8258   -1.3275 C   0  0  0  0  0  0  0  0  0  0  0  0
   17.1757   -9.6834   -0.2352 C   0  0  0  0  0  0  0  0  0  0  0  0
   18.1666  -10.4221    0.3381 O   0  0  0  0  0  0  0  0  0  0  0  0
   19.4807  -10.3289   -0.1682 C   0  0  0  0  0  0  0  0  0  0  0  0
   20.4119  -11.2045    0.6392 C   0  0  0  0  0  0  0  0  0  0  0  0
   21.6324  -11.6122    0.0803 C   0  0  0  0  0  0  0  0  0  0  0  0
   22.5337  -12.3809    0.8204 C   0  0  0  0  0  0  0  0  0  0  0  0
   22.2211  -12.7598    2.1298 C   0  0  0  0  0  0  0  0  0  0  0  0
   21.0037  -12.3632    2.6900 C   0  0  0  0  0  0  0  0  0  0  0  0
   20.1044  -11.5883    1.9512 C   0  0  0  0  0  0  0  0  0  0  0  0
   15.8964   -9.8143    0.3358 C   0  0  0  0  0  0  0  0  0  0  0  0
   14.8189   -9.1077   -0.1806 C   0  0  0  0  0  0  0  0  0  0  0  0
    9.9571   -5.9674   -0.0901 C   0  0  0  0  0  0  0  0  0  0  0  0
    8.6456   -5.8399    0.3762 C   0  0  0  0  0  0  0  0  0  0  0  0
    4.3195   -3.5492    1.7781 C   0  0  0  0  0  0  0  0  0  0  0  0
    3.0411   -3.1056    2.1125 C   0  0  0  0  0  0  0  0  0  0  0  0
   -0.1378   -4.3306    2.6635 H   0  0  0  0  0  0  0  0  0  0  0  0
    0.2267   -2.7641    1.9009 H   0  0  0  0  0  0  0  0  0  0  0  0
    0.5951   -3.0181    3.6152 H   0  0  0  0  0  0  0  0  0  0  0  0
    1.4139   -6.0898    2.1465 H   0  0  0  0  0  0  0  0  0  0  0  0
    3.6741   -6.8824    1.5350 H   0  0  0  0  0  0  0  0  0  0  0  0
    5.9098   -6.4202    0.8049 H   0  0  0  0  0  0  0  0  0  0  0  0
    6.5555   -5.4992    2.1863 H   0  0  0  0  0  0  0  0  0  0  0  0
    7.8240   -2.9158   -1.1704 H   0  0  0  0  0  0  0  0  0  0  0  0
   10.1778   -3.1622   -2.0011 H   0  0  0  0  0  0  0  0  0  0  0  0
   12.4348   -6.0876   -1.0418 H   0  0  0  0  0  0  0  0  0  0  0  0
   14.2163   -3.6139   -2.8387 H   0  0  0  0  0  0  0  0  0  0  0  0
   14.3720   -7.5870   -3.7277 H   0  0  0  0  0  0  0  0  0  0  0  0
   12.7755   -6.9191   -3.2695 H   0  0  0  0  0  0  0  0  0  0  0  0
   16.4281   -7.4128   -2.6736 H   0  0  0  0  0  0  0  0  0  0  0  0
   18.3246   -8.6926   -1.7917 H   0  0  0  0  0  0  0  0  0  0  0  0
   19.8272   -9.2761   -0.1258 H   0  0  0  0  0  0  0  0  0  0  0  0
   19.5090  -10.6317   -1.2325 H   0  0  0  0  0  0  0  0  0  0  0  0
   21.8802  -11.3282   -0.9473 H   0  0  0  0  0  0  0  0  0  0  0  0
   23.4802  -12.6915    0.3702 H   0  0  0  0  0  0  0  0  0  0  0  0
   22.9226  -13.3658    2.7090 H   0  0  0  0  0  0  0  0  0  0  0  0
   20.7497  -12.6594    3.7113 H   0  0  0  0  0  0  0  0  0  0  0  0
   19.1513  -11.2823    2.3848 H   0  0  0  0  0  0  0  0  0  0  0  0
   15.7709  -10.4882    1.1857 H   0  0  0  0  0  0  0  0  0  0  0  0
   13.8215   -9.2141    0.2512 H   0  0  0  0  0  0  0  0  0  0  0  0
   10.5486   -6.8337    0.2197 H   0  0  0  0  0  0  0  0  0  0  0  0
    8.2372   -6.6051    1.0358 H   0  0  0  0  0  0  0  0  0  0  0  0
    5.1344   -2.8315    1.6623 H   0  0  0  0  0  0  0  0  0  0  0  0
    2.8682   -2.0357    2.2638 H   0  0  0  0  0  0  0  0  0  0  0  0
  1  2  1  0
  1 37  1  0
  1 38  1  0
  1 39  1  0
  2  3  2  0
  2 36  1  0
  3  4  1  0
  3 40  1  0
  4  5  2  0
  4 41  1  0
  5  6  1  0
  5 35  1  0
  6  7  1  0
  6 42  1  0
  6 43  1  0
  7  8  1  0
  8  9  2  0
  8 34  1  0
  9 10  1  0
  9 44  1  0
 10 11  2  0
 10 45  1  0
 11 12  1  0
 11 33  1  0
 12 13  2  0
 12 46  1  0
 13 14  1  0
 14 15  1  0
 14 47  1  0
 15 16  2  0
 15 17  1  0
 17 18  1  0
 17 48  1  0
 17 49  1  0
 18 19  1  0
 19 20  2  0
 19 32  1  0
 20 21  1  0
 20 50  1  0
 21 22  2  0
 21 51  1  0
 22 23  1  0
 22 31  1  0
 23 24  1  0
 24 25  1  0
 24 52  1  0
 24 53  1  0
 25 26  2  0
 25 30  1  0
 26 27  1  0
 26 54  1  0
 27 28  2  0
 27 55  1  0
 28 29  1  0
 28 56  1  0
 29 30  2  0
 29 57  1  0
 30 58  1  0
 31 32  2  0
 31 59  1  0
 32 60  1  0
 33 34  2  0
 33 61  1  0
 34 62  1  0
 35 36  2  0
 35 63  1  0
 36 64  1  0
M  END

