
     RDKit          3D

 56 58  0  0  0  0  0  0  0  0999 V2000
    0.5202   -3.9046   -4.0987 C   0  0  0  0  0  0  0  0  0  0  0  0
    1.0016   -3.5472   -2.8275 O   0  0  0  0  0  0  0  0  0  0  0  0
    2.3020   -3.7979   -2.5019 C   0  0  0  0  0  0  0  0  0  0  0  0
    3.2133   -4.4031   -3.3861 C   0  0  0  0  0  0  0  0  0  0  0  0
    4.5308   -4.6595   -2.9891 C   0  0  0  0  0  0  0  0  0  0  0  0
    5.4684   -5.2361   -3.7799 O   0  0  0  0  0  0  0  0  0  0  0  0
    5.1261   -5.6190   -5.0891 C   0  0  0  0  0  0  0  0  0  0  0  0
    4.9502   -4.3132   -1.6808 C   0  0  0  0  0  0  0  0  0  0  0  0
    6.2417   -4.6023   -1.3686 O   0  0  0  0  0  0  0  0  0  0  0  0
    6.7135   -4.2901   -0.0816 C   0  0  0  0  0  0  0  0  0  0  0  0
    4.0284   -3.7128   -0.8209 C   0  0  0  0  0  0  0  0  0  0  0  0
    2.7046   -3.4405   -1.2049 C   0  0  0  0  0  0  0  0  0  0  0  0
    1.7297   -2.7829   -0.2556 C   0  0  0  0  0  0  0  0  0  0  0  0
    1.4697   -1.3749   -0.5581 N   0  0  0  0  0  0  0  0  0  0  0  0
    2.6142   -0.5065   -0.3251 C   0  0  0  0  0  0  0  0  0  0  0  0
    2.3342    0.9073   -0.8305 C   0  0  0  0  0  0  0  0  0  0  0  0
    1.0899    1.4346   -0.2583 N   0  0  0  0  0  0  0  0  0  0  0  0
    1.1364    2.5285    1.0059 S   0  0  1  0  0  0  0  0  0  0  0  0
    0.1449    2.1211    2.0027 O   0  0  0  0  0  0  0  0  0  0  0  0
    2.5431    2.7579    1.3255 O   0  0  0  0  0  0  0  0  0  0  0  0
    0.4691    4.0574    0.2480 C   0  0  0  0  0  0  0  0  0  0  0  0
    0.4320    4.1616   -1.1453 C   0  0  0  0  0  0  0  0  0  0  0  0
   -0.1019    5.2939   -1.7684 C   0  0  0  0  0  0  0  0  0  0  0  0
   -0.6347    6.3309   -1.0013 C   0  0  0  0  0  0  0  0  0  0  0  0
   -0.6216    6.2358    0.3906 C   0  0  0  0  0  0  0  0  0  0  0  0
   -0.0569    5.1182    1.0049 C   0  0  0  0  0  0  0  0  0  0  0  0
   -0.0125    5.1405    2.4854 N   0  0  0  0  0  0  0  0  0  0  0  0
    0.9636    4.6508    3.0179 O   0  0  0  0  0  0  0  0  0  0  0  0
   -0.9393    5.6902    3.0562 O   0  0  0  0  0  0  0  0  0  0  0  0
   -0.0625    0.5376   -0.3986 C   0  0  0  0  0  0  0  0  0  0  0  0
    0.2748   -0.8671    0.1007 C   0  0  0  0  0  0  0  0  0  0  0  0
    0.5953   -4.9926   -4.2825 H   0  0  0  0  0  0  0  0  0  0  0  0
    1.0528   -3.3729   -4.9090 H   0  0  0  0  0  0  0  0  0  0  0  0
   -0.5395   -3.6155   -4.1270 H   0  0  0  0  0  0  0  0  0  0  0  0
    2.8960   -4.6811   -4.3878 H   0  0  0  0  0  0  0  0  0  0  0  0
    6.0297   -6.0578   -5.5337 H   0  0  0  0  0  0  0  0  0  0  0  0
    4.8103   -4.7560   -5.7043 H   0  0  0  0  0  0  0  0  0  0  0  0
    4.3199   -6.3758   -5.1022 H   0  0  0  0  0  0  0  0  0  0  0  0
    7.7650   -4.6067   -0.0468 H   0  0  0  0  0  0  0  0  0  0  0  0
    6.1542   -4.8265    0.7076 H   0  0  0  0  0  0  0  0  0  0  0  0
    6.6619   -3.2053    0.1285 H   0  0  0  0  0  0  0  0  0  0  0  0
    4.3312   -3.4439    0.1920 H   0  0  0  0  0  0  0  0  0  0  0  0
    2.0984   -2.9100    0.7877 H   0  0  0  0  0  0  0  0  0  0  0  0
    0.7636   -3.3070   -0.3193 H   0  0  0  0  0  0  0  0  0  0  0  0
    3.4889   -0.9099   -0.8581 H   0  0  0  0  0  0  0  0  0  0  0  0
    2.8796   -0.4506    0.7573 H   0  0  0  0  0  0  0  0  0  0  0  0
    2.2207    0.8881   -1.9292 H   0  0  0  0  0  0  0  0  0  0  0  0
    3.1600    1.5804   -0.5713 H   0  0  0  0  0  0  0  0  0  0  0  0
    0.8113    3.3323   -1.7430 H   0  0  0  0  0  0  0  0  0  0  0  0
   -0.1101    5.3541   -2.8591 H   0  0  0  0  0  0  0  0  0  0  0  0
   -1.0639    7.2129   -1.4814 H   0  0  0  0  0  0  0  0  0  0  0  0
   -1.0401    7.0190    1.0229 H   0  0  0  0  0  0  0  0  0  0  0  0
   -0.3316    0.4943   -1.4688 H   0  0  0  0  0  0  0  0  0  0  0  0
   -0.9122    0.9474    0.1615 H   0  0  0  0  0  0  0  0  0  0  0  0
   -0.5697   -1.5394   -0.1224 H   0  0  0  0  0  0  0  0  0  0  0  0
    0.3874   -0.8276    1.2089 H   0  0  0  0  0  0  0  0  0  0  0  0
  1  2  1  0
  1 32  1  0
  1 33  1  0
  1 34  1  0
  2  3  1  0
  3  4  2  0
  3 12  1  0
  4  5  1  0
  4 35  1  0
  5  6  1  0
  5  8  2  0
  6  7  1  0
  7 36  1  0
  7 37  1  0
  7 38  1  0
  8  9  1  0
  8 11  1  0
  9 10  1  0
 10 39  1  0
 10 40  1  0
 10 41  1  0
 11 12  2  0
 11 42  1  0
 12 13  1  0
 13 14  1  0
 13 43  1  0
 13 44  1  0
 14 15  1  0
 14 31  1  0
 15 16  1  0
 15 45  1  0
 15 46  1  0
 16 17  1  0
 16 47  1  0
 16 48  1  0
 17 18  1  0
 17 30  1  0
 18 19  2  0
 18 20  2  0
 18 21  1  6
 21 22  2  0
 21 26  1  0
 22 23  1  0
 22 49  1  0
 23 24  2  0
 23 50  1  0
 24 25  1  0
 24 51  1  0
 25 26  2  0
 25 52  1  0
 26 27  1  0
 27 28  2  0
 27 29  1  0
 30 31  1  0
 30 53  1  0
 30 54  1  0
 31 55  1  0
 31 56  1  0
M  CHG  2  27   1  29  -1
M  END

