
     RDKit          3D

 54 59  0  0  0  0  0  0  0  0999 V2000
    1.6712    1.0340    0.7185 C   0  0  0  0  0  0  0  0  0  0  0  0
    2.9979    0.5416    0.8929 O   0  0  0  0  0  0  0  0  0  0  0  0
    3.5472   -0.0811   -0.1701 C   0  0  0  0  0  0  0  0  0  0  0  0
    2.9599   -0.2325   -1.2174 O   0  0  0  0  0  0  0  0  0  0  0  0
    4.9374   -0.5522    0.0969 C   0  0  0  0  0  0  0  0  0  0  0  0
    5.6123   -1.2199   -0.9421 C   0  0  0  0  0  0  0  0  0  0  0  0
    6.9279   -1.6479   -0.7696 C   0  0  0  0  0  0  0  0  0  0  0  0
    7.5566   -1.4329    0.4594 C   0  0  0  0  0  0  0  0  0  0  0  0
    6.8685   -0.8113    1.5383 C   0  0  0  0  0  0  0  0  0  0  0  0
    5.5699   -0.3343    1.3324 C   0  0  0  0  0  0  0  0  0  0  0  0
    7.8128   -0.6193    2.6661 C   0  0  0  0  0  0  0  0  0  0  0  0
    7.5450   -0.0383    3.8937 C   0  0  0  0  0  0  0  0  0  0  0  0
    6.2780   -0.0970    4.6615 C   0  0  0  0  0  0  0  0  0  0  0  0
    5.1078   -0.8461    4.4686 C   0  0  0  0  0  0  0  0  0  0  0  0
    4.1001   -0.8146    5.4378 C   0  0  0  0  0  0  0  0  0  0  0  0
    4.2516   -0.0639    6.6121 C   0  0  0  0  0  0  0  0  0  0  0  0
    5.4342    0.6445    6.8465 C   0  0  0  0  0  0  0  0  0  0  0  0
    6.4424    0.6161    5.8812 C   0  0  0  0  0  0  0  0  0  0  0  0
    7.7868    1.1916    5.9002 C   0  0  0  0  0  0  0  0  0  0  0  0
    8.3932    2.0520    6.8189 C   0  0  0  0  0  0  0  0  0  0  0  0
    9.6777    2.5266    6.5573 C   0  0  0  0  0  0  0  0  0  0  0  0
   10.3418    2.1697    5.3689 C   0  0  0  0  0  0  0  0  0  0  0  0
   11.6960    2.7490    5.1309 C   0  0  0  0  0  0  0  0  0  0  0  0
   12.2645    3.5005    5.8902 O   0  0  0  0  0  0  0  0  0  0  0  0
   12.2350    2.3439    3.9628 O   0  0  0  0  0  0  0  0  0  0  0  0
   13.5274    2.8601    3.6524 C   0  0  0  0  0  0  0  0  0  0  0  0
    9.7316    1.3059    4.4439 C   0  0  0  0  0  0  0  0  0  0  0  0
    8.4678    0.7753    4.7227 C   0  0  0  0  0  0  0  0  0  0  0  0
    9.1013   -1.1838    2.1981 C   0  0  0  0  0  0  0  0  0  0  0  0
   10.3060   -1.4342    2.8718 C   0  0  0  0  0  0  0  0  0  0  0  0
   11.3361   -2.1147    2.2149 C   0  0  0  0  0  0  0  0  0  0  0  0
   11.1745   -2.5725    0.8997 C   0  0  0  0  0  0  0  0  0  0  0  0
    9.9609   -2.3805    0.2321 C   0  0  0  0  0  0  0  0  0  0  0  0
    8.9301   -1.7011    0.8841 C   0  0  0  0  0  0  0  0  0  0  0  0
    1.3916    1.5038    1.6696 H   0  0  0  0  0  0  0  0  0  0  0  0
    0.9769    0.2143    0.4780 H   0  0  0  0  0  0  0  0  0  0  0  0
    1.6306    1.7710   -0.0981 H   0  0  0  0  0  0  0  0  0  0  0  0
    5.0872   -1.3703   -1.8870 H   0  0  0  0  0  0  0  0  0  0  0  0
    7.4625   -2.1268   -1.5934 H   0  0  0  0  0  0  0  0  0  0  0  0
    5.0362    0.2187    2.1023 H   0  0  0  0  0  0  0  0  0  0  0  0
    4.9758   -1.4664    3.5826 H   0  0  0  0  0  0  0  0  0  0  0  0
    3.1859   -1.3915    5.2777 H   0  0  0  0  0  0  0  0  0  0  0  0
    3.4518   -0.0512    7.3568 H   0  0  0  0  0  0  0  0  0  0  0  0
    5.5728    1.1949    7.7803 H   0  0  0  0  0  0  0  0  0  0  0  0
    7.8642    2.3667    7.7216 H   0  0  0  0  0  0  0  0  0  0  0  0
   10.1851    3.1993    7.2511 H   0  0  0  0  0  0  0  0  0  0  0  0
   13.8037    2.4302    2.6816 H   0  0  0  0  0  0  0  0  0  0  0  0
   14.2603    2.5713    4.4213 H   0  0  0  0  0  0  0  0  0  0  0  0
   13.5065    3.9589    3.5913 H   0  0  0  0  0  0  0  0  0  0  0  0
   10.2539    1.0797    3.5169 H   0  0  0  0  0  0  0  0  0  0  0  0
   10.4483   -1.1214    3.9058 H   0  0  0  0  0  0  0  0  0  0  0  0
   12.2765   -2.2978    2.7405 H   0  0  0  0  0  0  0  0  0  0  0  0
   11.9920   -3.1012    0.4032 H   0  0  0  0  0  0  0  0  0  0  0  0
    9.8169   -2.7745   -0.7769 H   0  0  0  0  0  0  0  0  0  0  0  0
  1  2  1  0
  1 35  1  0
  1 36  1  0
  1 37  1  0
  2  3  1  0
  3  4  2  0
  3  5  1  0
  5  6  2  0
  5 10  1  0
  6  7  1  0
  6 38  1  0
  7  8  2  0
  7 39  1  0
  8  9  1  0
  8 34  1  0
  9 10  2  0
  9 11  1  0
 10 40  1  0
 11 12  2  0
 11 29  1  0
 12 13  1  0
 12 28  1  0
 13 14  2  0
 13 18  1  0
 14 15  1  0
 14 41  1  0
 15 16  2  0
 15 42  1  0
 16 17  1  0
 16 43  1  0
 17 18  2  0
 17 44  1  0
 18 19  1  0
 19 20  2  0
 19 28  1  0
 20 21  1  0
 20 45  1  0
 21 22  2  0
 21 46  1  0
 22 23  1  0
 22 27  1  0
 23 24  2  0
 23 25  1  0
 25 26  1  0
 26 47  1  0
 26 48  1  0
 26 49  1  0
 27 28  2  0
 27 50  1  0
 29 30  1  0
 29 34  2  0
 30 31  2  0
 30 51  1  0
 31 32  1  0
 31 52  1  0
 32 33  2  0
 32 53  1  0
 33 34  1  0
 33 54  1  0
M  END

