
     RDKit          3D

 35 35  0  0  0  0  0  0  0  0999 V2000
    0.9050   -0.3509    0.0492 C   0  0  0  0  0  0  0  0  0  0  0  0
    2.3663    0.0475   -0.1635 C   0  0  0  0  0  0  0  0  0  0  0  0
    3.0346    0.6147    1.0921 C   0  0  0  0  0  0  0  0  0  0  0  0
    4.5150    1.0153    0.9123 C   0  0  1  0  0  0  0  0  0  0  0  0
    4.7529    2.0044   -0.1396 N   0  0  0  0  0  0  0  0  0  0  0  0
    5.1076    1.5266    2.2467 C   0  0  0  0  0  0  0  0  0  0  0  0
    6.6200    1.5441    2.3162 C   0  0  0  0  0  0  0  0  0  0  0  0
    7.3746    2.5016    1.6150 C   0  0  0  0  0  0  0  0  0  0  0  0
    8.7719    2.5091    1.6699 C   0  0  0  0  0  0  0  0  0  0  0  0
    9.5782    3.5388    0.9137 C   0  0  0  0  0  0  0  0  0  0  0  0
    9.4214    1.5335    2.4467 C   0  0  0  0  0  0  0  0  0  0  0  0
    8.7036    0.5658    3.1559 C   0  0  0  0  0  0  0  0  0  0  0  0
    9.4056   -0.4785    3.9918 C   0  0  0  0  0  0  0  0  0  0  0  0
    7.3002    0.5872    3.0783 C   0  0  0  0  0  0  0  0  0  0  0  0
    0.4561   -0.7521   -0.8736 H   0  0  0  0  0  0  0  0  0  0  0  0
    0.2969    0.5126    0.3671 H   0  0  0  0  0  0  0  0  0  0  0  0
    0.8092   -1.1243    0.8295 H   0  0  0  0  0  0  0  0  0  0  0  0
    2.4265    0.7919   -0.9769 H   0  0  0  0  0  0  0  0  0  0  0  0
    2.9410   -0.8298   -0.5141 H   0  0  0  0  0  0  0  0  0  0  0  0
    2.9619   -0.1302    1.9053 H   0  0  0  0  0  0  0  0  0  0  0  0
    2.4686    1.5004    1.4423 H   0  0  0  0  0  0  0  0  0  0  0  0
    5.0779    0.1083    0.6251 H   0  0  0  0  0  0  0  0  0  0  0  0
    4.1210    2.8002   -0.0300 H   0  0  0  0  0  0  0  0  0  0  0  0
    4.5793    1.6155   -1.0649 H   0  0  0  0  0  0  0  0  0  0  0  0
    4.7221    0.8972    3.0646 H   0  0  0  0  0  0  0  0  0  0  0  0
    4.7088    2.5421    2.4261 H   0  0  0  0  0  0  0  0  0  0  0  0
    6.8524    3.2372    1.0004 H   0  0  0  0  0  0  0  0  0  0  0  0
    8.9287    4.2432    0.3734 H   0  0  0  0  0  0  0  0  0  0  0  0
   10.2451    3.0628    0.1748 H   0  0  0  0  0  0  0  0  0  0  0  0
   10.2209    4.1246    1.5925 H   0  0  0  0  0  0  0  0  0  0  0  0
   10.5153    1.5329    2.4996 H   0  0  0  0  0  0  0  0  0  0  0  0
   10.4990   -0.3628    3.9510 H   0  0  0  0  0  0  0  0  0  0  0  0
    9.1630   -1.4984    3.6481 H   0  0  0  0  0  0  0  0  0  0  0  0
    9.1009   -0.4177    5.0504 H   0  0  0  0  0  0  0  0  0  0  0  0
    6.7252   -0.1613    3.6340 H   0  0  0  0  0  0  0  0  0  0  0  0
  1  2  1  0
  1 15  1  0
  1 16  1  0
  1 17  1  0
  2  3  1  0
  2 18  1  0
  2 19  1  0
  3  4  1  0
  3 20  1  0
  3 21  1  0
  4  5  1  0
  4  6  1  0
  4 22  1  6
  5 23  1  0
  5 24  1  0
  6  7  1  0
  6 25  1  0
  6 26  1  0
  7  8  2  0
  7 14  1  0
  8  9  1  0
  8 27  1  0
  9 10  1  0
  9 11  2  0
 10 28  1  0
 10 29  1  0
 10 30  1  0
 11 12  1  0
 11 31  1  0
 12 13  1  0
 12 14  2  0
 13 32  1  0
 13 33  1  0
 13 34  1  0
 14 35  1  0
M  END

