
     RDKit          3D

 41 42  0  0  0  0  0  0  0  0999 V2000
    6.2620    3.1567    0.7467 C   0  0  0  0  0  0  0  0  0  0  0  0
    4.8480    2.8391    0.7583 N   0  0  0  0  0  0  0  0  0  0  0  0
    4.0563    3.1189    1.9383 C   0  0  0  0  0  0  0  0  0  0  0  0
    4.2550    2.2711   -0.3522 C   0  0  0  0  0  0  0  0  0  0  0  0
    2.8724    1.9609   -0.3770 C   0  0  0  0  0  0  0  0  0  0  0  0
    2.2935    1.3994   -1.5133 C   0  0  0  0  0  0  0  0  0  0  0  0
    3.0491    1.1222   -2.6540 C   0  0  0  0  0  0  0  0  0  0  0  0
    4.4213    1.4120   -2.6483 C   0  0  0  0  0  0  0  0  0  0  0  0
    5.2423    1.0636   -3.8946 C   0  0  1  0  0  0  0  0  0  0  0  0
    6.5283    1.7764   -3.9492 C   0  0  0  0  0  0  0  0  0  0  0  0
    7.5562    2.3104   -3.9890 N   0  0  0  0  0  0  0  0  0  0  0  0
    5.4570   -0.4633   -4.0813 C   0  0  0  0  0  0  0  0  0  0  0  0
    6.2663   -1.1193   -2.9718 C   0  0  0  0  0  0  0  0  0  0  0  0
    6.3620   -2.4977   -3.2872 O   0  0  0  0  0  0  0  0  0  0  0  0
    7.0331   -3.3340   -2.4550 C   0  0  0  0  0  0  0  0  0  0  0  0
    7.6694   -2.9354   -1.2697 C   0  0  0  0  0  0  0  0  0  0  0  0
    8.3356   -3.8806   -0.4806 C   0  0  0  0  0  0  0  0  0  0  0  0
    8.3685   -5.2186   -0.8699 C   0  0  0  0  0  0  0  0  0  0  0  0
    9.2028   -6.3983    0.1209 Cl  0  0  0  0  0  0  0  0  0  0  0  0
    7.7366   -5.6250   -2.0520 C   0  0  0  0  0  0  0  0  0  0  0  0
    7.0743   -4.6869   -2.8371 C   0  0  0  0  0  0  0  0  0  0  0  0
    5.0120    1.9793   -1.5167 C   0  0  0  0  0  0  0  0  0  0  0  0
    6.5402    3.6143    1.7044 H   0  0  0  0  0  0  0  0  0  0  0  0
    6.5237    3.8707   -0.0554 H   0  0  0  0  0  0  0  0  0  0  0  0
    6.8930    2.2587    0.6085 H   0  0  0  0  0  0  0  0  0  0  0  0
    4.6988    3.5563    2.7131 H   0  0  0  0  0  0  0  0  0  0  0  0
    3.5969    2.2056    2.3602 H   0  0  0  0  0  0  0  0  0  0  0  0
    3.2400    3.8371    1.7349 H   0  0  0  0  0  0  0  0  0  0  0  0
    2.2429    2.1644    0.4880 H   0  0  0  0  0  0  0  0  0  0  0  0
    1.2225    1.1794   -1.5078 H   0  0  0  0  0  0  0  0  0  0  0  0
    2.5744    0.6910   -3.5389 H   0  0  0  0  0  0  0  0  0  0  0  0
    4.6711    1.4093   -4.7733 H   0  0  0  0  0  0  0  0  0  0  0  0
    5.9596   -0.6463   -5.0445 H   0  0  0  0  0  0  0  0  0  0  0  0
    4.4694   -0.9464   -4.1338 H   0  0  0  0  0  0  0  0  0  0  0  0
    5.7707   -0.9808   -1.9940 H   0  0  0  0  0  0  0  0  0  0  0  0
    7.2743   -0.6687   -2.9064 H   0  0  0  0  0  0  0  0  0  0  0  0
    7.6572   -1.8946   -0.9465 H   0  0  0  0  0  0  0  0  0  0  0  0
    8.8314   -3.5718    0.4412 H   0  0  0  0  0  0  0  0  0  0  0  0
    7.7674   -6.6743   -2.3506 H   0  0  0  0  0  0  0  0  0  0  0  0
    6.5751   -4.9808   -3.7626 H   0  0  0  0  0  0  0  0  0  0  0  0
    6.0752    2.2120   -1.5450 H   0  0  0  0  0  0  0  0  0  0  0  0
  1  2  1  0
  1 23  1  0
  1 24  1  0
  1 25  1  0
  2  3  1  0
  2  4  1  0
  3 26  1  0
  3 27  1  0
  3 28  1  0
  4  5  2  0
  4 22  1  0
  5  6  1  0
  5 29  1  0
  6  7  2  0
  6 30  1  0
  7  8  1  0
  7 31  1  0
  8  9  1  0
  8 22  2  0
  9 10  1  0
  9 12  1  0
  9 32  1  6
 10 11  3  0
 12 13  1  0
 12 33  1  0
 12 34  1  0
 13 14  1  0
 13 35  1  0
 13 36  1  0
 14 15  1  0
 15 16  2  0
 15 21  1  0
 16 17  1  0
 16 37  1  0
 17 18  2  0
 17 38  1  0
 18 19  1  0
 18 20  1  0
 20 21  2  0
 20 39  1  0
 21 40  1  0
 22 41  1  0
M  END

