
     RDKit          3D

 52 57  0  0  0  0  0  0  0  0999 V2000
    4.3969   -1.8438    2.3258 C   0  0  0  0  0  0  0  0  0  0  0  0
    3.5225   -3.0737    2.2458 C   0  0  0  0  0  0  0  0  0  0  0  0
    3.3077   -3.8508    3.3964 C   0  0  0  0  0  0  0  0  0  0  0  0
    2.5089   -4.9952    3.3736 C   0  0  0  0  0  0  0  0  0  0  0  0
    1.9025   -5.3924    2.1798 C   0  0  0  0  0  0  0  0  0  0  0  0
    2.1012   -4.6357    1.0248 C   0  0  0  0  0  0  0  0  0  0  0  0
    2.8985   -3.4806    1.0449 C   0  0  0  0  0  0  0  0  0  0  0  0
    3.0472   -2.6845   -0.2369 C   0  0  1  0  0  0  0  0  0  0  0  0
    3.9763   -2.0936   -0.2221 H   0  0  0  0  0  0  0  0  0  0  0  0
    3.0917   -3.5930   -1.3466 O   0  0  0  0  0  0  0  0  0  0  0  0
    2.6403   -2.9590   -2.5276 C   0  0  2  0  0  0  0  0  0  0  0  0
    2.1268   -4.0603   -3.4908 C   0  0  0  0  0  0  0  0  0  0  0  0
    1.1344   -4.7237   -3.3113 O   0  0  0  0  0  0  0  0  0  0  0  0
    3.0694   -4.1267   -4.6364 C   0  0  0  0  0  0  0  0  0  0  0  0
    3.0440   -4.9906   -5.7345 C   0  0  0  0  0  0  0  0  0  0  0  0
    4.0453   -4.8528   -6.6979 C   0  0  0  0  0  0  0  0  0  0  0  0
    5.0462   -3.8697   -6.5694 C   0  0  0  0  0  0  0  0  0  0  0  0
    5.0670   -3.0033   -5.4747 C   0  0  0  0  0  0  0  0  0  0  0  0
    4.0670   -3.1450   -4.5086 C   0  0  0  0  0  0  0  0  0  0  0  0
    3.8545   -2.3495   -3.2744 C   0  0  0  0  0  0  0  0  0  0  0  0
    4.5139   -1.4126   -2.8778 O   0  0  0  0  0  0  0  0  0  0  0  0
    1.5542   -1.9560   -2.0610 C   0  0  2  0  0  0  0  0  0  0  0  0
    0.5656   -2.3967   -2.2561 H   0  0  0  0  0  0  0  0  0  0  0  0
    1.6330   -0.5809   -2.7088 C   0  0  0  0  0  0  0  0  0  0  0  0
    1.4618   -0.3258   -3.8738 O   0  0  0  0  0  0  0  0  0  0  0  0
    1.9571    0.3480   -1.7059 N   0  0  0  0  0  0  0  0  0  0  0  0
    2.1903    1.7323   -1.9611 C   0  0  0  0  0  0  0  0  0  0  0  0
    3.0231    2.1198   -3.0179 C   0  0  0  0  0  0  0  0  0  0  0  0
    3.2393    3.4739   -3.2606 C   0  0  0  0  0  0  0  0  0  0  0  0
    2.6454    4.4493   -2.4519 C   0  0  0  0  0  0  0  0  0  0  0  0
    2.9463    6.1292   -2.7829 Cl  0  0  0  0  0  0  0  0  0  0  0  0
    1.8205    4.0543   -1.3849 C   0  0  0  0  0  0  0  0  0  0  0  0
    1.0651    5.2300   -0.3492 Cl  0  0  0  0  0  0  0  0  0  0  0  0
    1.5912    2.6969   -1.1461 C   0  0  0  0  0  0  0  0  0  0  0  0
    2.1363   -0.2479   -0.4428 C   0  0  0  0  0  0  0  0  0  0  0  0
    2.4574    0.3465    0.5556 O   0  0  0  0  0  0  0  0  0  0  0  0
    1.8454   -1.7380   -0.5732 C   0  0  2  0  0  0  0  0  0  0  0  0
    0.9872   -1.9791    0.0699 H   0  0  0  0  0  0  0  0  0  0  0  0
    4.8025   -1.7212    3.3404 H   0  0  0  0  0  0  0  0  0  0  0  0
    3.8398   -0.9300    2.0671 H   0  0  0  0  0  0  0  0  0  0  0  0
    5.2543   -1.9066    1.6340 H   0  0  0  0  0  0  0  0  0  0  0  0
    3.7855   -3.5464    4.3319 H   0  0  0  0  0  0  0  0  0  0  0  0
    2.3649   -5.5775    4.2875 H   0  0  0  0  0  0  0  0  0  0  0  0
    1.2807   -6.2905    2.1447 H   0  0  0  0  0  0  0  0  0  0  0  0
    1.6483   -4.9458    0.0809 H   0  0  0  0  0  0  0  0  0  0  0  0
    2.2606   -5.7464   -5.8223 H   0  0  0  0  0  0  0  0  0  0  0  0
    4.0563   -5.5148   -7.5674 H   0  0  0  0  0  0  0  0  0  0  0  0
    5.8149   -3.7867   -7.3418 H   0  0  0  0  0  0  0  0  0  0  0  0
    5.8345   -2.2344   -5.3642 H   0  0  0  0  0  0  0  0  0  0  0  0
    3.5001    1.3658   -3.6426 H   0  0  0  0  0  0  0  0  0  0  0  0
    3.8828    3.7923   -4.0819 H   0  0  0  0  0  0  0  0  0  0  0  0
    0.9526    2.4053   -0.3137 H   0  0  0  0  0  0  0  0  0  0  0  0
  1  2  1  0
  1 39  1  0
  1 40  1  0
  1 41  1  0
  2  3  2  0
  2  7  1  0
  3  4  1  0
  3 42  1  0
  4  5  2  0
  4 43  1  0
  5  6  1  0
  5 44  1  0
  6  7  2  0
  6 45  1  0
  7  8  1  0
  8  9  1  1
  8 10  1  0
  8 37  1  0
 11 10  1  1
 11 12  1  0
 11 20  1  0
 11 22  1  0
 12 13  2  0
 12 14  1  0
 14 15  1  0
 14 19  2  0
 15 16  2  0
 15 46  1  0
 16 17  1  0
 16 47  1  0
 17 18  2  0
 17 48  1  0
 18 19  1  0
 18 49  1  0
 19 20  1  0
 20 21  2  0
 22 23  1  1
 22 24  1  0
 22 37  1  0
 24 25  2  0
 24 26  1  0
 26 27  1  0
 26 35  1  0
 27 28  2  0
 27 34  1  0
 28 29  1  0
 28 50  1  0
 29 30  2  0
 29 51  1  0
 30 31  1  0
 30 32  1  0
 32 33  1  0
 32 34  2  0
 34 52  1  0
 35 36  2  0
 35 37  1  0
 37 38  1  1
M  END

