
     RDKit          3D

 31 33  0  0  0  0  0  0  0  0999 V2000
    1.7767   -4.1257   -1.5877 Cl  0  0  0  0  0  0  0  0  0  0  0  0
    3.4193   -3.5114   -1.6719 C   0  0  0  0  0  0  0  0  0  0  0  0
    4.1981   -3.8218   -2.8004 C   0  0  0  0  0  0  0  0  0  0  0  0
    5.4940   -3.3298   -2.8435 C   0  0  0  0  0  0  0  0  0  0  0  0
    5.9723   -2.5506   -1.7740 C   0  0  0  0  0  0  0  0  0  0  0  0
    7.2472   -2.0993   -1.8661 O   0  0  0  0  0  0  0  0  0  0  0  0
    7.7829   -1.3113   -0.8040 C   0  0  0  0  0  0  0  0  0  0  0  0
    9.1751   -0.9137   -1.1473 C   0  0  0  0  0  0  0  0  0  0  0  0
    9.5956    0.3251   -1.2556 N   0  0  0  0  0  0  0  0  0  0  0  0
   10.9261    0.2916   -1.5672 N   0  0  0  0  0  0  0  0  0  0  0  0
   11.2848   -0.9694   -1.6469 C   0  0  0  0  0  0  0  0  0  0  0  0
   10.2124   -1.7845   -1.3789 N   0  0  0  0  0  0  0  0  0  0  0  0
   10.2024   -3.2437   -1.4687 C   0  0  0  0  0  0  0  0  0  0  0  0
   11.6343   -3.7842   -1.4378 C   0  0  0  0  0  0  0  0  0  0  0  0
   12.5525   -2.9948   -2.3804 C   0  0  0  0  0  0  0  0  0  0  0  0
   12.6436   -1.5248   -1.9426 C   0  0  0  0  0  0  0  0  0  0  0  0
    5.1003   -2.3007   -0.7036 C   0  0  0  0  0  0  0  0  0  0  0  0
    3.8516   -2.7821   -0.6696 N   0  0  0  0  0  0  0  0  0  0  0  0
    3.7890   -4.4279   -3.6095 H   0  0  0  0  0  0  0  0  0  0  0  0
    6.1531   -3.5292   -3.6912 H   0  0  0  0  0  0  0  0  0  0  0  0
    7.7499   -1.8917    0.1384 H   0  0  0  0  0  0  0  0  0  0  0  0
    7.2056   -0.3835   -0.6611 H   0  0  0  0  0  0  0  0  0  0  0  0
    9.6943   -3.5360   -2.4026 H   0  0  0  0  0  0  0  0  0  0  0  0
    9.6069   -3.6508   -0.6367 H   0  0  0  0  0  0  0  0  0  0  0  0
   11.6106   -4.8508   -1.7108 H   0  0  0  0  0  0  0  0  0  0  0  0
   12.0296   -3.7283   -0.4081 H   0  0  0  0  0  0  0  0  0  0  0  0
   12.1594   -3.0562   -3.4109 H   0  0  0  0  0  0  0  0  0  0  0  0
   13.5571   -3.4443   -2.3996 H   0  0  0  0  0  0  0  0  0  0  0  0
   13.1291   -0.8962   -2.7040 H   0  0  0  0  0  0  0  0  0  0  0  0
   13.2665   -1.4447   -1.0333 H   0  0  0  0  0  0  0  0  0  0  0  0
    5.4049   -1.6945    0.1537 H   0  0  0  0  0  0  0  0  0  0  0  0
  1  2  1  0
  2  3  2  0
  2 18  1  0
  3  4  1  0
  3 19  1  0
  4  5  2  0
  4 20  1  0
  5  6  1  0
  5 17  1  0
  6  7  1  0
  7  8  1  0
  7 21  1  0
  7 22  1  0
  8  9  2  0
  8 12  1  0
  9 10  1  0
 10 11  2  0
 11 12  1  0
 11 16  1  0
 12 13  1  0
 13 14  1  0
 13 23  1  0
 13 24  1  0
 14 15  1  0
 14 25  1  0
 14 26  1  0
 15 16  1  0
 15 27  1  0
 15 28  1  0
 16 29  1  0
 16 30  1  0
 17 18  2  0
 17 31  1  0
M  END

