
     RDKit          3D

 28 29  0  0  0  0  0  0  0  0999 V2000
    1.0420    0.3444    0.7400 C   0  0  0  0  0  0  0  0  0  0  0  0
    2.5030    0.1236    0.4327 C   0  0  0  0  0  0  0  0  0  0  0  0
    3.1362   -1.0988    0.6945 C   0  0  0  0  0  0  0  0  0  0  0  0
    4.4901   -1.3142    0.4228 C   0  0  0  0  0  0  0  0  0  0  0  0
    5.2585   -0.2774   -0.1310 C   0  0  0  0  0  0  0  0  0  0  0  0
    6.6312   -0.3922   -0.4345 N   0  0  0  0  0  0  0  0  0  0  0  0
    7.4607   -1.4815   -0.2863 C   0  0  0  0  0  0  0  0  0  0  0  0
    7.0837   -2.5752    0.1046 O   0  0  0  0  0  0  0  0  0  0  0  0
    8.8863   -1.2360   -0.6570 C   0  0  0  0  0  0  0  0  0  0  0  0
    9.6137    0.3627   -0.6900 S   0  0  0  0  0  0  0  0  0  0  0  0
   11.1085   -0.3821   -1.1894 C   0  0  0  0  0  0  0  0  0  0  0  0
   12.6364    0.6777   -1.4984 Br  0  0  0  0  0  0  0  0  0  0  0  0
   11.0797   -1.6639   -1.3044 N   0  0  0  0  0  0  0  0  0  0  0  0
    9.8375   -2.1818   -1.0055 C   0  0  0  0  0  0  0  0  0  0  0  0
    9.6531   -3.6655   -1.0903 C   0  0  0  0  0  0  0  0  0  0  0  0
    4.6369    0.9562   -0.4012 C   0  0  0  0  0  0  0  0  0  0  0  0
    3.2866    1.1482   -0.1244 C   0  0  0  0  0  0  0  0  0  0  0  0
    0.5543   -0.5850    1.0692 H   0  0  0  0  0  0  0  0  0  0  0  0
    0.4955    0.7176   -0.1420 H   0  0  0  0  0  0  0  0  0  0  0  0
    0.9078    1.0923    1.5404 H   0  0  0  0  0  0  0  0  0  0  0  0
    2.5555   -1.9200    1.1248 H   0  0  0  0  0  0  0  0  0  0  0  0
    4.9553   -2.2747    0.6287 H   0  0  0  0  0  0  0  0  0  0  0  0
    7.0352    0.4330   -0.8629 H   0  0  0  0  0  0  0  0  0  0  0  0
   10.0855   -4.0370   -2.0319 H   0  0  0  0  0  0  0  0  0  0  0  0
    8.5986   -3.9474   -1.0080 H   0  0  0  0  0  0  0  0  0  0  0  0
   10.2031   -4.1534   -0.2679 H   0  0  0  0  0  0  0  0  0  0  0  0
    5.2217    1.7744   -0.8336 H   0  0  0  0  0  0  0  0  0  0  0  0
    2.8320    2.1181   -0.3469 H   0  0  0  0  0  0  0  0  0  0  0  0
  1  2  1  0
  1 18  1  0
  1 19  1  0
  1 20  1  0
  2  3  2  0
  2 17  1  0
  3  4  1  0
  3 21  1  0
  4  5  2  0
  4 22  1  0
  5  6  1  0
  5 16  1  0
  6  7  1  0
  6 23  1  0
  7  8  2  0
  7  9  1  0
  9 10  1  0
  9 14  2  0
 10 11  1  0
 11 12  1  0
 11 13  2  0
 13 14  1  0
 14 15  1  0
 15 24  1  0
 15 25  1  0
 15 26  1  0
 16 17  2  0
 16 27  1  0
 17 28  1  0
M  END

