
     RDKit          3D

 40 40  0  0  0  0  0  0  0  0999 V2000
    7.4686    5.2622   -1.8479 C   0  0  0  0  0  0  0  0  0  0  0  0
    7.2533    3.7938   -1.5754 C   0  0  0  0  0  0  0  0  0  0  0  0
    5.9598    3.2717   -1.4400 C   0  0  0  0  0  0  0  0  0  0  0  0
    5.7347    1.9202   -1.1887 C   0  0  0  0  0  0  0  0  0  0  0  0
    6.8174    1.0322   -1.0612 C   0  0  0  0  0  0  0  0  0  0  0  0
    6.5195   -0.3175   -0.8111 N   0  0  0  0  0  0  0  0  0  0  0  0
    7.3485   -1.4190   -0.6523 C   0  0  0  0  0  0  0  0  0  0  0  0
    6.6071   -2.5943   -0.4861 N   0  0  0  0  0  0  0  0  0  0  0  0
    8.6250   -1.3267   -0.6206 N   0  0  0  0  0  0  0  0  0  0  0  0
    9.4488   -2.5069   -0.5295 C   0  0  0  0  0  0  0  0  0  0  0  0
   10.8765   -2.2175   -1.0076 C   0  0  0  0  0  0  0  0  0  0  0  0
   11.5832   -1.1395   -0.1839 C   0  0  0  0  0  0  0  0  0  0  0  0
   12.9468   -0.7522   -0.7586 C   0  0  0  0  0  0  0  0  0  0  0  0
   13.6160    0.3828   -0.0194 C   0  0  1  0  0  0  0  0  0  0  0  0
   13.8242    0.0889    1.2783 F   0  0  0  0  0  0  0  0  0  0  0  0
   14.8141    0.6804   -0.5565 F   0  0  0  0  0  0  0  0  0  0  0  0
   12.8762    1.5114   -0.0543 F   0  0  0  0  0  0  0  0  0  0  0  0
    8.1197    1.5442   -1.1928 C   0  0  0  0  0  0  0  0  0  0  0  0
    8.3442    2.9046   -1.4444 C   0  0  0  0  0  0  0  0  0  0  0  0
    9.7618    3.4108   -1.5668 C   0  0  0  0  0  0  0  0  0  0  0  0
    6.5109    5.7971   -1.9323 H   0  0  0  0  0  0  0  0  0  0  0  0
    8.0281    5.4295   -2.7846 H   0  0  0  0  0  0  0  0  0  0  0  0
    8.0520    5.7483   -1.0466 H   0  0  0  0  0  0  0  0  0  0  0  0
    5.1004    3.9421   -1.5352 H   0  0  0  0  0  0  0  0  0  0  0  0
    4.7094    1.5486   -1.0927 H   0  0  0  0  0  0  0  0  0  0  0  0
    5.5466   -0.4914   -0.5919 H   0  0  0  0  0  0  0  0  0  0  0  0
    5.7762   -2.6838   -1.0639 H   0  0  0  0  0  0  0  0  0  0  0  0
    7.1551   -3.4462   -0.4723 H   0  0  0  0  0  0  0  0  0  0  0  0
    9.0531   -3.3562   -1.1316 H   0  0  0  0  0  0  0  0  0  0  0  0
    9.4928   -2.8734    0.5183 H   0  0  0  0  0  0  0  0  0  0  0  0
   10.8266   -1.8985   -2.0640 H   0  0  0  0  0  0  0  0  0  0  0  0
   11.4604   -3.1554   -0.9873 H   0  0  0  0  0  0  0  0  0  0  0  0
   11.7103   -1.4842    0.8567 H   0  0  0  0  0  0  0  0  0  0  0  0
   10.9377   -0.2496   -0.1395 H   0  0  0  0  0  0  0  0  0  0  0  0
   12.8522   -0.4324   -1.8091 H   0  0  0  0  0  0  0  0  0  0  0  0
   13.6472   -1.6033   -0.7434 H   0  0  0  0  0  0  0  0  0  0  0  0
    8.9557    0.8588   -1.0828 H   0  0  0  0  0  0  0  0  0  0  0  0
   10.4951    2.6176   -1.3636 H   0  0  0  0  0  0  0  0  0  0  0  0
    9.9601    4.2355   -0.8615 H   0  0  0  0  0  0  0  0  0  0  0  0
    9.9641    3.8102   -2.5762 H   0  0  0  0  0  0  0  0  0  0  0  0
  1  2  1  0
  1 21  1  0
  1 22  1  0
  1 23  1  0
  2  3  2  0
  2 19  1  0
  3  4  1  0
  3 24  1  0
  4  5  2  0
  4 25  1  0
  5  6  1  0
  5 18  1  0
  6  7  1  0
  6 26  1  0
  7  8  1  0
  7  9  2  0
  8 27  1  0
  8 28  1  0
  9 10  1  0
 10 11  1  0
 10 29  1  0
 10 30  1  0
 11 12  1  0
 11 31  1  0
 11 32  1  0
 12 13  1  0
 12 33  1  0
 12 34  1  0
 13 14  1  0
 13 35  1  0
 13 36  1  0
 14 15  1  1
 14 16  1  0
 14 17  1  0
 18 19  2  0
 18 37  1  0
 19 20  1  0
 20 38  1  0
 20 39  1  0
 20 40  1  0
M  END

