
     RDKit          3D

 36 36  0  0  0  0  0  0  0  0999 V2000
    2.9865    0.0424   -1.4947 C   0  0  0  0  0  0  0  0  0  0  0  0
    2.3386   -0.0346   -0.1080 C   0  0  1  0  0  0  0  0  0  0  0  0
    0.8071    0.0827   -0.2132 C   0  0  0  0  0  0  0  0  0  0  0  0
    0.1525    0.1379    1.0923 N   0  0  0  0  0  0  0  0  0  0  0  0
    2.8034   -1.2781    0.7102 C   0  0  1  0  0  0  0  0  0  0  0  0
    2.3839   -2.5915    0.0410 C   0  0  0  0  0  0  0  0  0  0  0  0
    4.2632   -1.2178    0.9483 N   0  0  0  0  0  0  0  0  0  0  0  0
    4.6915   -0.0884    1.7558 C   0  0  0  0  0  0  0  0  0  0  0  0
    4.9591   -2.4460    1.3233 C   0  0  0  0  0  0  0  0  0  0  0  0
    4.7545   -2.9409    2.7531 C   0  0  0  0  0  0  0  0  0  0  0  0
    5.8005   -2.9176    3.6898 C   0  0  0  0  0  0  0  0  0  0  0  0
    5.5682   -3.3725    4.9889 C   0  0  0  0  0  0  0  0  0  0  0  0
    4.2934   -3.8342    5.3195 C   0  0  0  0  0  0  0  0  0  0  0  0
    3.3115   -3.8170    4.3239 C   0  0  0  0  0  0  0  0  0  0  0  0
    3.5313   -3.3879    3.0806 N   0  0  0  0  0  0  0  0  0  0  0  0
    2.7790    1.0128   -1.9749 H   0  0  0  0  0  0  0  0  0  0  0  0
    2.6062   -0.7437   -2.1684 H   0  0  0  0  0  0  0  0  0  0  0  0
    4.0767   -0.0820   -1.4200 H   0  0  0  0  0  0  0  0  0  0  0  0
    2.6436    0.8545    0.4656 H   0  0  0  0  0  0  0  0  0  0  0  0
    0.4184   -0.7175   -0.8807 H   0  0  0  0  0  0  0  0  0  0  0  0
    0.5888    1.0303   -0.7350 H   0  0  0  0  0  0  0  0  0  0  0  0
    0.1163   -0.7888    1.5173 H   0  0  0  0  0  0  0  0  0  0  0  0
   -0.8180    0.4324    0.9865 H   0  0  0  0  0  0  0  0  0  0  0  0
    2.2770   -1.2241    1.6863 H   0  0  0  0  0  0  0  0  0  0  0  0
    2.9640   -2.7888   -0.8744 H   0  0  0  0  0  0  0  0  0  0  0  0
    1.3222   -2.5506   -0.2443 H   0  0  0  0  0  0  0  0  0  0  0  0
    2.5027   -3.4369    0.7311 H   0  0  0  0  0  0  0  0  0  0  0  0
    4.4417    0.8665    1.2726 H   0  0  0  0  0  0  0  0  0  0  0  0
    5.7872   -0.1120    1.8698 H   0  0  0  0  0  0  0  0  0  0  0  0
    4.2488   -0.0697    2.7765 H   0  0  0  0  0  0  0  0  0  0  0  0
    6.0385   -2.2745    1.1712 H   0  0  0  0  0  0  0  0  0  0  0  0
    4.6735   -3.2521    0.6346 H   0  0  0  0  0  0  0  0  0  0  0  0
    6.7865   -2.5480    3.3972 H   0  0  0  0  0  0  0  0  0  0  0  0
    6.3704   -3.3654    5.7319 H   0  0  0  0  0  0  0  0  0  0  0  0
    4.0603   -4.1999    6.3221 H   0  0  0  0  0  0  0  0  0  0  0  0
    2.2976   -4.1725    4.5449 H   0  0  0  0  0  0  0  0  0  0  0  0
  1  2  1  0
  1 16  1  0
  1 17  1  0
  1 18  1  0
  2  3  1  0
  2  5  1  0
  2 19  1  1
  3  4  1  0
  3 20  1  0
  3 21  1  0
  4 22  1  0
  4 23  1  0
  5  6  1  0
  5  7  1  0
  5 24  1  1
  6 25  1  0
  6 26  1  0
  6 27  1  0
  7  8  1  0
  7  9  1  0
  8 28  1  0
  8 29  1  0
  8 30  1  0
  9 10  1  0
  9 31  1  0
  9 32  1  0
 10 11  2  0
 10 15  1  0
 11 12  1  0
 11 33  1  0
 12 13  2  0
 12 34  1  0
 13 14  1  0
 13 35  1  0
 14 15  2  0
 14 36  1  0
M  END

