
     RDKit          3D

 37 38  0  0  0  0  0  0  0  0999 V2000
    0.6466   -1.0892   -0.1497 C   0  0  0  0  0  0  0  0  0  0  0  0
    2.1509   -0.8773   -0.2002 C   0  0  1  0  0  0  0  0  0  0  0  0
    2.5448    0.4983   -0.7250 C   0  0  0  0  0  0  0  0  0  0  0  0
    2.6359   -1.0902    1.1628 O   0  0  0  0  0  0  0  0  0  0  0  0
    4.0097   -1.1731    1.3433 C   0  0  0  0  0  0  0  0  0  0  0  0
    4.6125   -0.0374    1.9229 C   0  0  0  0  0  0  0  0  0  0  0  0
    3.8490    1.0283    2.2586 O   0  0  0  0  0  0  0  0  0  0  0  0
    5.9923   -0.0153    2.1442 C   0  0  0  0  0  0  0  0  0  0  0  0
    6.7620   -1.1256    1.7894 C   0  0  0  0  0  0  0  0  0  0  0  0
    6.1626   -2.2612    1.2463 C   0  0  0  0  0  0  0  0  0  0  0  0
    4.7738   -2.3145    1.0369 C   0  0  0  0  0  0  0  0  0  0  0  0
    4.2325   -3.6385    0.5304 C   0  0  0  0  0  0  0  0  0  0  0  0
    4.9535   -4.4463   -0.0183 O   0  0  0  0  0  0  0  0  0  0  0  0
    2.8974   -3.8549    0.8084 N   0  0  0  0  0  0  0  0  0  0  0  0
    2.1365   -4.9964    0.5427 C   0  0  0  0  0  0  0  0  0  0  0  0
    0.8866   -5.2897    1.1581 C   0  0  0  0  0  0  0  0  0  0  0  0
    0.5065   -6.4891    0.5814 C   0  0  0  0  0  0  0  0  0  0  0  0
    1.4858   -6.8336   -0.2933 N   0  0  0  0  0  0  0  0  0  0  0  0
    1.5635   -8.0092   -1.1325 C   0  0  0  0  0  0  0  0  0  0  0  0
    2.4846   -5.9328   -0.3342 N   0  0  0  0  0  0  0  0  0  0  0  0
    0.2106   -0.9534   -1.1510 H   0  0  0  0  0  0  0  0  0  0  0  0
    0.1758   -0.3639    0.5334 H   0  0  0  0  0  0  0  0  0  0  0  0
    0.3984   -2.1045    0.1938 H   0  0  0  0  0  0  0  0  0  0  0  0
    2.6108   -1.6522   -0.8370 H   0  0  0  0  0  0  0  0  0  0  0  0
    2.0821    1.3035   -0.1319 H   0  0  0  0  0  0  0  0  0  0  0  0
    2.2046    0.6063   -1.7669 H   0  0  0  0  0  0  0  0  0  0  0  0
    3.6356    0.6384   -0.7148 H   0  0  0  0  0  0  0  0  0  0  0  0
    2.9263    0.7571    2.1198 H   0  0  0  0  0  0  0  0  0  0  0  0
    6.4374    0.8768    2.5894 H   0  0  0  0  0  0  0  0  0  0  0  0
    7.8422   -1.1068    1.9534 H   0  0  0  0  0  0  0  0  0  0  0  0
    6.7456   -3.1443    0.9815 H   0  0  0  0  0  0  0  0  0  0  0  0
    2.4206   -3.1115    1.3097 H   0  0  0  0  0  0  0  0  0  0  0  0
    0.3596   -4.7197    1.9195 H   0  0  0  0  0  0  0  0  0  0  0  0
   -0.3719   -7.1123    0.7359 H   0  0  0  0  0  0  0  0  0  0  0  0
    0.6715   -8.6288   -0.9689 H   0  0  0  0  0  0  0  0  0  0  0  0
    2.4631   -8.5937   -0.8866 H   0  0  0  0  0  0  0  0  0  0  0  0
    1.6149   -7.7191   -2.1932 H   0  0  0  0  0  0  0  0  0  0  0  0
  1  2  1  0
  1 21  1  0
  1 22  1  0
  1 23  1  0
  2  3  1  0
  2  4  1  0
  2 24  1  6
  3 25  1  0
  3 26  1  0
  3 27  1  0
  4  5  1  0
  5  6  2  0
  5 11  1  0
  6  7  1  0
  6  8  1  0
  7 28  1  0
  8  9  2  0
  8 29  1  0
  9 10  1  0
  9 30  1  0
 10 11  2  0
 10 31  1  0
 11 12  1  0
 12 13  2  0
 12 14  1  0
 14 15  1  0
 14 32  1  0
 15 16  1  0
 15 20  2  0
 16 17  2  0
 16 33  1  0
 17 18  1  0
 17 34  1  0
 18 19  1  0
 18 20  1  0
 19 35  1  0
 19 36  1  0
 19 37  1  0
M  END

