
     RDKit          3D

 57 59  0  0  0  0  0  0  0  0999 V2000
    4.6403    0.6834   -0.5933 C   0  0  0  0  0  0  0  0  0  0  0  0
    3.3189    0.4345    0.1525 C   0  0  1  0  0  0  0  0  0  0  0  0
    3.5416   -0.7038    1.1749 C   0  0  0  0  0  0  0  0  0  0  0  0
    2.9613    1.7244    0.9456 C   0  0  0  0  0  0  0  0  0  0  0  0
    2.6293    2.8199    0.0649 N   0  0  0  0  0  0  0  0  0  0  0  0
    3.0146    4.1031    0.2863 C   0  0  0  0  0  0  0  0  0  0  0  0
    3.7103    4.4681    1.2214 O   0  0  0  0  0  0  0  0  0  0  0  0
    2.4935    5.1006   -0.7682 C   0  0  0  0  0  0  0  0  0  0  0  0
    1.0531    5.3073   -0.7267 N   0  0  0  0  0  0  0  0  0  0  0  0
    0.1755    4.4606   -1.3234 C   0  0  0  0  0  0  0  0  0  0  0  0
    0.5327    3.4539   -1.9266 O   0  0  0  0  0  0  0  0  0  0  0  0
   -1.3029    4.8686   -1.2536 C   0  0  0  0  0  0  0  0  0  0  0  0
   -1.7523    5.5380    0.0255 C   0  0  0  0  0  0  0  0  0  0  0  0
   -2.0399    6.8934    0.0387 C   0  0  0  0  0  0  0  0  0  0  0  0
   -2.4584    7.5557    1.2197 C   0  0  0  0  0  0  0  0  0  0  0  0
   -2.5921    6.8516    2.3946 C   0  0  0  0  0  0  0  0  0  0  0  0
   -2.3101    5.4569    2.4391 C   0  0  0  0  0  0  0  0  0  0  0  0
   -2.4429    4.7122    3.6443 C   0  0  0  0  0  0  0  0  0  0  0  0
   -2.1647    3.3625    3.6803 C   0  0  0  0  0  0  0  0  0  0  0  0
   -1.7381    2.6978    2.5052 C   0  0  0  0  0  0  0  0  0  0  0  0
   -1.5985    3.3899    1.3188 C   0  0  0  0  0  0  0  0  0  0  0  0
   -1.8804    4.7846    1.2436 C   0  0  0  0  0  0  0  0  0  0  0  0
    2.2187    0.1766   -0.8032 N   0  0  0  0  0  0  0  0  0  0  0  0
    2.4133   -0.3891   -2.1329 C   0  0  0  0  0  0  0  0  0  0  0  0
    2.0658   -1.8790   -2.1991 C   0  0  0  0  0  0  0  0  0  0  0  0
    0.7474   -2.1115   -1.7398 O   0  0  0  0  0  0  0  0  0  0  0  0
    0.5565   -1.6429   -0.4191 C   0  0  0  0  0  0  0  0  0  0  0  0
    0.8875   -0.1496   -0.3026 C   0  0  0  0  0  0  0  0  0  0  0  0
    5.4076    1.0038    0.1267 H   0  0  0  0  0  0  0  0  0  0  0  0
    4.5347    1.4774   -1.3468 H   0  0  0  0  0  0  0  0  0  0  0  0
    5.0155   -0.2251   -1.0876 H   0  0  0  0  0  0  0  0  0  0  0  0
    4.3447   -0.4408    1.8828 H   0  0  0  0  0  0  0  0  0  0  0  0
    3.8300   -1.6373    0.6677 H   0  0  0  0  0  0  0  0  0  0  0  0
    2.6360   -0.9045    1.7677 H   0  0  0  0  0  0  0  0  0  0  0  0
    3.8062    2.0377    1.5748 H   0  0  0  0  0  0  0  0  0  0  0  0
    2.1227    1.5144    1.6360 H   0  0  0  0  0  0  0  0  0  0  0  0
    2.0362    2.6117   -0.7406 H   0  0  0  0  0  0  0  0  0  0  0  0
    2.7590    4.7440   -1.7760 H   0  0  0  0  0  0  0  0  0  0  0  0
    2.9973    6.0565   -0.5783 H   0  0  0  0  0  0  0  0  0  0  0  0
    0.6850    6.0532   -0.1464 H   0  0  0  0  0  0  0  0  0  0  0  0
   -1.8748    3.9540   -1.4644 H   0  0  0  0  0  0  0  0  0  0  0  0
   -1.4809    5.5479   -2.1039 H   0  0  0  0  0  0  0  0  0  0  0  0
   -1.9534    7.4666   -0.8890 H   0  0  0  0  0  0  0  0  0  0  0  0
   -2.6787    8.6255    1.1878 H   0  0  0  0  0  0  0  0  0  0  0  0
   -2.9169    7.3529    3.3102 H   0  0  0  0  0  0  0  0  0  0  0  0
   -2.7711    5.2336    4.5477 H   0  0  0  0  0  0  0  0  0  0  0  0
   -2.2709    2.8034    4.6133 H   0  0  0  0  0  0  0  0  0  0  0  0
   -1.5186    1.6276    2.5384 H   0  0  0  0  0  0  0  0  0  0  0  0
   -1.2614    2.8566    0.4285 H   0  0  0  0  0  0  0  0  0  0  0  0
    3.4373   -0.2243   -2.4893 H   0  0  0  0  0  0  0  0  0  0  0  0
    1.7416    0.1409   -2.8367 H   0  0  0  0  0  0  0  0  0  0  0  0
    2.7913   -2.4695   -1.5989 H   0  0  0  0  0  0  0  0  0  0  0  0
    2.1074   -2.2435   -3.2383 H   0  0  0  0  0  0  0  0  0  0  0  0
    1.1812   -2.2294    0.2862 H   0  0  0  0  0  0  0  0  0  0  0  0
   -0.5012   -1.8247   -0.1683 H   0  0  0  0  0  0  0  0  0  0  0  0
    0.7746    0.1742    0.7426 H   0  0  0  0  0  0  0  0  0  0  0  0
    0.1400    0.4135   -0.8960 H   0  0  0  0  0  0  0  0  0  0  0  0
  2  1  1  6
  1 29  1  0
  1 30  1  0
  1 31  1  0
  2  3  1  0
  2  4  1  0
  2 23  1  0
  3 32  1  0
  3 33  1  0
  3 34  1  0
  4  5  1  0
  4 35  1  0
  4 36  1  0
  5  6  1  0
  5 37  1  0
  6  7  2  0
  6  8  1  0
  8  9  1  0
  8 38  1  0
  8 39  1  0
  9 10  1  0
  9 40  1  0
 10 11  2  0
 10 12  1  0
 12 13  1  0
 12 41  1  0
 12 42  1  0
 13 14  2  0
 13 22  1  0
 14 15  1  0
 14 43  1  0
 15 16  2  0
 15 44  1  0
 16 17  1  0
 16 45  1  0
 17 18  1  0
 17 22  2  0
 18 19  2  0
 18 46  1  0
 19 20  1  0
 19 47  1  0
 20 21  2  0
 20 48  1  0
 21 22  1  0
 21 49  1  0
 23 24  1  0
 23 28  1  0
 24 25  1  0
 24 50  1  0
 24 51  1  0
 25 26  1  0
 25 52  1  0
 25 53  1  0
 26 27  1  0
 27 28  1  0
 27 54  1  0
 27 55  1  0
 28 56  1  0
 28 57  1  0
M  END

