
     RDKit          3D

 58 61  0  0  0  0  0  0  0  0999 V2000
    9.2287  -12.3252    4.2528 C   0  0  0  0  0  0  0  0  0  0  0  0
    8.1983  -11.3839    3.6284 C   0  0  0  0  0  0  0  0  0  0  0  0
    8.8239  -10.1810    2.9146 C   0  0  0  0  0  0  0  0  0  0  0  0
    7.7904   -9.2392    2.2908 C   0  0  0  0  0  0  0  0  0  0  0  0
    8.4261   -8.0530    1.5841 C   0  0  0  0  0  0  0  0  0  0  0  0
    7.3850   -7.2365    1.0581 O   0  0  0  0  0  0  0  0  0  0  0  0
    7.6784   -6.0940    0.3974 C   0  0  0  0  0  0  0  0  0  0  0  0
    8.9896   -5.6546    0.1663 C   0  0  0  0  0  0  0  0  0  0  0  0
    9.1920   -4.4553   -0.5206 C   0  0  0  0  0  0  0  0  0  0  0  0
   10.8280   -3.9119   -0.8075 Cl  0  0  0  0  0  0  0  0  0  0  0  0
    8.1281   -3.6870   -0.9839 C   0  0  0  0  0  0  0  0  0  0  0  0
    6.8278   -4.1431   -0.7381 C   0  0  0  0  0  0  0  0  0  0  0  0
    5.5089   -3.1798   -1.3610 Cl  0  0  0  0  0  0  0  0  0  0  0  0
    6.5671   -5.3363   -0.0504 C   0  0  0  0  0  0  0  0  0  0  0  0
    5.1756   -5.8088    0.2292 C   0  0  0  0  0  0  0  0  0  0  0  0
    4.4375   -5.0746    1.0657 N   0  0  0  0  0  0  0  0  0  0  0  0
    3.1750   -5.4666    1.3120 C   0  0  0  0  0  0  0  0  0  0  0  0
    2.4544   -4.7108    2.1827 N   0  0  0  0  0  0  0  0  0  0  0  0
    2.5619   -6.5469    0.7831 N   0  0  0  0  0  0  0  0  0  0  0  0
    3.3188   -7.2584   -0.0354 C   0  0  0  0  0  0  0  0  0  0  0  0
    4.6428   -6.9588   -0.3645 C   0  0  0  0  0  0  0  0  0  0  0  0
    5.1997   -7.9706   -1.3229 C   0  0  0  0  0  0  0  0  0  0  0  0
    4.0587   -8.8797   -1.5112 N   0  0  0  0  0  0  0  0  0  0  0  0
    4.2379  -10.0387   -2.2321 C   0  0  0  0  0  0  0  0  0  0  0  0
    5.3186  -10.3200   -2.7343 O   0  0  0  0  0  0  0  0  0  0  0  0
    3.1241  -10.8517   -2.3347 N   0  0  0  0  0  0  0  0  0  0  0  0
    3.1359  -12.0769   -3.0877 C   0  0  1  0  0  0  0  0  0  0  0  0
    2.5661  -13.3722   -2.4500 C   0  0  0  0  0  0  0  0  0  0  0  0
    2.0117  -13.7569   -3.8463 C   0  0  0  0  0  0  0  0  0  0  0  0
    2.1478  -12.2716   -4.2706 C   0  0  0  0  0  0  0  0  0  0  0  0
    2.8697   -8.5056   -0.7544 C   0  0  0  0  0  0  0  0  0  0  0  0
    8.7444  -13.1768    4.7563 H   0  0  0  0  0  0  0  0  0  0  0  0
    9.8470  -11.8035    5.0028 H   0  0  0  0  0  0  0  0  0  0  0  0
    9.9121  -12.7349    3.4902 H   0  0  0  0  0  0  0  0  0  0  0  0
    7.5066  -11.0206    4.4099 H   0  0  0  0  0  0  0  0  0  0  0  0
    7.5722  -11.9438    2.9105 H   0  0  0  0  0  0  0  0  0  0  0  0
    9.5144  -10.5439    2.1306 H   0  0  0  0  0  0  0  0  0  0  0  0
    9.4511   -9.6194    3.6321 H   0  0  0  0  0  0  0  0  0  0  0  0
    7.1048   -8.8577    3.0668 H   0  0  0  0  0  0  0  0  0  0  0  0
    7.1665   -9.7894    1.5657 H   0  0  0  0  0  0  0  0  0  0  0  0
    9.0866   -8.3932    0.7648 H   0  0  0  0  0  0  0  0  0  0  0  0
    9.0421   -7.4631    2.2885 H   0  0  0  0  0  0  0  0  0  0  0  0
    9.8507   -6.2231    0.5096 H   0  0  0  0  0  0  0  0  0  0  0  0
    8.2962   -2.7592   -1.5281 H   0  0  0  0  0  0  0  0  0  0  0  0
    2.8472   -3.8407    2.5128 H   0  0  0  0  0  0  0  0  0  0  0  0
    1.4743   -4.9157    2.3147 H   0  0  0  0  0  0  0  0  0  0  0  0
    6.0720   -8.5117   -0.9191 H   0  0  0  0  0  0  0  0  0  0  0  0
    5.5214   -7.5286   -2.2833 H   0  0  0  0  0  0  0  0  0  0  0  0
    2.2329  -10.5276   -1.9815 H   0  0  0  0  0  0  0  0  0  0  0  0
    4.1736  -12.2218   -3.4180 H   0  0  0  0  0  0  0  0  0  0  0  0
    1.7520  -13.1400   -1.7428 H   0  0  0  0  0  0  0  0  0  0  0  0
    3.2745  -14.0546   -1.9547 H   0  0  0  0  0  0  0  0  0  0  0  0
    1.0091  -14.2076   -3.8883 H   0  0  0  0  0  0  0  0  0  0  0  0
    2.7084  -14.4061   -4.3990 H   0  0  0  0  0  0  0  0  0  0  0  0
    1.2104  -11.7158   -4.0992 H   0  0  0  0  0  0  0  0  0  0  0  0
    2.5103  -12.0410   -5.2844 H   0  0  0  0  0  0  0  0  0  0  0  0
    2.5592   -9.2856   -0.0315 H   0  0  0  0  0  0  0  0  0  0  0  0
    1.9932   -8.2880   -1.3976 H   0  0  0  0  0  0  0  0  0  0  0  0
  1  2  1  0
  1 32  1  0
  1 33  1  0
  1 34  1  0
  2  3  1  0
  2 35  1  0
  2 36  1  0
  3  4  1  0
  3 37  1  0
  3 38  1  0
  4  5  1  0
  4 39  1  0
  4 40  1  0
  5  6  1  0
  5 41  1  0
  5 42  1  0
  6  7  1  0
  7  8  2  0
  7 14  1  0
  8  9  1  0
  8 43  1  0
  9 10  1  0
  9 11  2  0
 11 12  1  0
 11 44  1  0
 12 13  1  0
 12 14  2  0
 14 15  1  0
 15 16  2  0
 15 21  1  0
 16 17  1  0
 17 18  1  0
 17 19  2  0
 18 45  1  0
 18 46  1  0
 19 20  1  0
 20 21  2  0
 20 31  1  0
 21 22  1  0
 22 23  1  0
 22 47  1  0
 22 48  1  0
 23 24  1  0
 23 31  1  0
 24 25  2  0
 24 26  1  0
 26 27  1  0
 26 49  1  0
 27 28  1  0
 27 30  1  0
 27 50  1  6
 28 29  1  0
 28 51  1  0
 28 52  1  0
 29 30  1  0
 29 53  1  0
 29 54  1  0
 30 55  1  0
 30 56  1  0
 31 57  1  0
 31 58  1  0
M  END

