
     RDKit          3D

 42 44  0  0  0  0  0  0  0  0999 V2000
    0.7195    0.2107   -0.0899 C   0  0  0  0  0  0  0  0  0  0  0  0
    2.2507    0.0909    0.0228 C   0  0  1  0  0  0  0  0  0  0  0  0
    2.5918    0.3581    1.5006 C   0  0  0  0  0  0  0  0  0  0  0  0
    2.8286   -1.2506   -0.5276 C   0  0  1  0  0  0  0  0  0  0  0  0
    2.4322   -1.2067   -2.0195 C   0  0  0  0  0  0  0  0  0  0  0  0
    2.5863    0.3030   -2.3684 C   0  0  0  0  0  0  0  0  0  0  0  0
    3.0400    0.9628   -1.0320 C   0  0  1  0  0  0  0  0  0  0  0  0
    2.8507    2.4717   -1.0017 C   0  0  0  0  0  0  0  0  0  0  0  0
    4.5198    0.4770   -0.8537 C   0  0  1  0  0  0  0  0  0  0  0  0
    5.3102    1.2999    0.0674 N   0  0  0  0  0  0  0  0  0  0  0  0
    6.9855    1.2724   -0.0079 S   0  0  1  0  0  0  0  0  0  0  0  0
    7.4346    1.5538    1.3580 O   0  0  0  0  0  0  0  0  0  0  0  0
    7.4375    0.0967   -0.7572 O   0  0  0  0  0  0  0  0  0  0  0  0
    7.3946    2.7032   -1.0114 C   0  0  0  0  0  0  0  0  0  0  0  0
    7.3412    3.9881   -0.4571 C   0  0  0  0  0  0  0  0  0  0  0  0
    7.6794    5.0685   -1.2625 C   0  0  0  0  0  0  0  0  0  0  0  0
    8.0591    4.7960   -2.5889 C   0  0  0  0  0  0  0  0  0  0  0  0
    8.4760    6.1395   -3.6264 Cl  0  0  0  0  0  0  0  0  0  0  0  0
    8.1279    3.5871   -3.1095 N   0  0  0  0  0  0  0  0  0  0  0  0
    7.8073    2.5452   -2.3356 C   0  0  0  0  0  0  0  0  0  0  0  0
    4.3538   -1.0248   -0.4565 C   0  0  0  0  0  0  0  0  0  0  0  0
    0.2330   -0.5636    0.5257 H   0  0  0  0  0  0  0  0  0  0  0  0
    0.3350    0.1061   -1.1125 H   0  0  0  0  0  0  0  0  0  0  0  0
    0.3777    1.1872    0.2900 H   0  0  0  0  0  0  0  0  0  0  0  0
    1.9790   -0.2886    2.1494 H   0  0  0  0  0  0  0  0  0  0  0  0
    2.3627    1.3998    1.7788 H   0  0  0  0  0  0  0  0  0  0  0  0
    3.6369    0.1556    1.7702 H   0  0  0  0  0  0  0  0  0  0  0  0
    2.4924   -2.1572   -0.0006 H   0  0  0  0  0  0  0  0  0  0  0  0
    1.4012   -1.5566   -2.1766 H   0  0  0  0  0  0  0  0  0  0  0  0
    3.0825   -1.8526   -2.6287 H   0  0  0  0  0  0  0  0  0  0  0  0
    1.6373    0.7414   -2.7110 H   0  0  0  0  0  0  0  0  0  0  0  0
    3.3197    0.4851   -3.1691 H   0  0  0  0  0  0  0  0  0  0  0  0
    1.7945    2.7396   -1.1637 H   0  0  0  0  0  0  0  0  0  0  0  0
    3.4408    2.9568   -1.7968 H   0  0  0  0  0  0  0  0  0  0  0  0
    3.1733    2.9125   -0.0466 H   0  0  0  0  0  0  0  0  0  0  0  0
    5.0337    0.5633   -1.8215 H   0  0  0  0  0  0  0  0  0  0  0  0
    5.0388    1.2974    1.0487 H   0  0  0  0  0  0  0  0  0  0  0  0
    7.0524    4.1279    0.5867 H   0  0  0  0  0  0  0  0  0  0  0  0
    7.6609    6.0930   -0.8900 H   0  0  0  0  0  0  0  0  0  0  0  0
    7.8890    1.5454   -2.7718 H   0  0  0  0  0  0  0  0  0  0  0  0
    4.7545   -1.2013    0.5518 H   0  0  0  0  0  0  0  0  0  0  0  0
    4.9095   -1.6914   -1.1314 H   0  0  0  0  0  0  0  0  0  0  0  0
  2  1  1  1
  1 22  1  0
  1 23  1  0
  1 24  1  0
  2  3  1  0
  2  4  1  0
  2  7  1  0
  3 25  1  0
  3 26  1  0
  3 27  1  0
  4  5  1  0
  4 21  1  0
  4 28  1  1
  5  6  1  0
  5 29  1  0
  5 30  1  0
  6  7  1  0
  6 31  1  0
  6 32  1  0
  7  8  1  6
  7  9  1  0
  8 33  1  0
  8 34  1  0
  8 35  1  0
  9 10  1  0
  9 21  1  0
  9 36  1  6
 11 10  1  1
 10 37  1  0
 11 12  2  0
 11 13  2  0
 11 14  1  0
 14 15  2  0
 14 20  1  0
 15 16  1  0
 15 38  1  0
 16 17  2  0
 16 39  1  0
 17 18  1  0
 17 19  1  0
 19 20  2  0
 20 40  1  0
 21 41  1  0
 21 42  1  0
M  END

