
     RDKit          3D

 48 52  0  0  0  0  0  0  0  0999 V2000
    4.3387    1.7991   -0.5048 C   0  0  0  0  0  0  0  0  0  0  0  0
    5.5791    2.4812   -1.0827 C   0  0  0  0  0  0  0  0  0  0  0  0
    5.6401    2.4939   -2.6267 C   0  0  0  0  0  0  0  0  0  0  0  0
    5.7647    1.1313   -3.2771 C   0  0  0  0  0  0  0  0  0  0  0  0
    4.6455    0.5123   -3.8113 C   0  0  0  0  0  0  0  0  0  0  0  0
    4.7070   -0.7742   -4.3999 C   0  0  0  0  0  0  0  0  0  0  0  0
    5.9044   -1.4510   -4.4607 C   0  0  0  0  0  0  0  0  0  0  0  0
    7.0888   -0.8595   -3.9400 C   0  0  0  0  0  0  0  0  0  0  0  0
    8.3386   -1.5358   -4.0068 C   0  0  0  0  0  0  0  0  0  0  0  0
    9.5147   -0.9889   -3.5250 C   0  0  0  0  0  0  0  0  0  0  0  0
    9.4459    0.3124   -2.9215 C   0  0  0  0  0  0  0  0  0  0  0  0
    8.2401    0.9822   -2.8384 C   0  0  0  0  0  0  0  0  0  0  0  0
    7.0246    0.4418   -3.3423 C   0  0  0  0  0  0  0  0  0  0  0  0
   10.7033    0.9018   -2.3285 C   0  0  0  0  0  0  0  0  0  0  0  0
   11.4801   -0.1757   -1.5713 C   0  0  0  0  0  0  0  0  0  0  0  0
   11.7239   -1.4478   -2.3728 C   0  0  0  0  0  0  0  0  0  0  0  0
   12.5705   -2.2389   -2.0188 O   0  0  0  0  0  0  0  0  0  0  0  0
   10.8790   -1.6711   -3.6493 C   0  0  1  0  0  0  0  0  0  0  0  0
   10.8462   -3.2444   -4.0212 C   0  0  0  0  0  0  0  0  0  0  0  0
   11.4395   -3.0823   -5.4063 C   0  0  0  0  0  0  0  0  0  0  0  0
   10.6447   -2.4544   -6.3158 C   0  0  0  0  0  0  0  0  0  0  0  0
   11.0027   -0.9665   -6.2335 C   0  0  0  0  0  0  0  0  0  0  0  0
   11.7758   -1.0128   -4.8615 C   0  0  2  0  0  0  0  0  0  0  0  0
   12.6745   -2.2084   -5.1804 C   0  0  0  0  0  0  0  0  0  0  0  0
    4.3420    1.8392    0.5962 H   0  0  0  0  0  0  0  0  0  0  0  0
    4.2828    0.7392   -0.7995 H   0  0  0  0  0  0  0  0  0  0  0  0
    3.4133    2.2895   -0.8519 H   0  0  0  0  0  0  0  0  0  0  0  0
    6.4848    1.9937   -0.6829 H   0  0  0  0  0  0  0  0  0  0  0  0
    5.6173    3.5278   -0.7326 H   0  0  0  0  0  0  0  0  0  0  0  0
    6.4780    3.1375   -2.9422 H   0  0  0  0  0  0  0  0  0  0  0  0
    4.7271    2.9818   -3.0077 H   0  0  0  0  0  0  0  0  0  0  0  0
    3.6848    1.0337   -3.7787 H   0  0  0  0  0  0  0  0  0  0  0  0
    3.7975   -1.2242   -4.8060 H   0  0  0  0  0  0  0  0  0  0  0  0
    5.9621   -2.4451   -4.9122 H   0  0  0  0  0  0  0  0  0  0  0  0
    8.3346   -2.5221   -4.4692 H   0  0  0  0  0  0  0  0  0  0  0  0
    8.2302    1.9626   -2.3585 H   0  0  0  0  0  0  0  0  0  0  0  0
   10.4528    1.7372   -1.6574 H   0  0  0  0  0  0  0  0  0  0  0  0
   11.3403    1.3286   -3.1234 H   0  0  0  0  0  0  0  0  0  0  0  0
   10.9060   -0.4880   -0.6796 H   0  0  0  0  0  0  0  0  0  0  0  0
   12.4560    0.1751   -1.2023 H   0  0  0  0  0  0  0  0  0  0  0  0
    9.8288   -3.6493   -4.0011 H   0  0  0  0  0  0  0  0  0  0  0  0
   11.4736   -3.7988   -3.3120 H   0  0  0  0  0  0  0  0  0  0  0  0
    9.6086   -2.7564   -6.4962 H   0  0  0  0  0  0  0  0  0  0  0  0
   10.0745   -0.3735   -6.2240 H   0  0  0  0  0  0  0  0  0  0  0  0
   11.6578   -0.5297   -7.0110 H   0  0  0  0  0  0  0  0  0  0  0  0
   12.2559   -0.0652   -4.5647 H   0  0  0  0  0  0  0  0  0  0  0  0
   13.3111   -2.5426   -4.3510 H   0  0  0  0  0  0  0  0  0  0  0  0
   13.2861   -2.0604   -6.0827 H   0  0  0  0  0  0  0  0  0  0  0  0
  1  2  1  0
  1 25  1  0
  1 26  1  0
  1 27  1  0
  2  3  1  0
  2 28  1  0
  2 29  1  0
  3  4  1  0
  3 30  1  0
  3 31  1  0
  4  5  2  0
  4 13  1  0
  5  6  1  0
  5 32  1  0
  6  7  2  0
  6 33  1  0
  7  8  1  0
  7 34  1  0
  8  9  1  0
  8 13  2  0
  9 10  2  0
  9 35  1  0
 10 11  1  0
 10 18  1  0
 11 12  2  0
 11 14  1  0
 12 13  1  0
 12 36  1  0
 14 15  1  0
 14 37  1  0
 14 38  1  0
 15 16  1  0
 15 39  1  0
 15 40  1  0
 16 17  2  0
 18 16  1  1
 18 19  1  0
 18 23  1  0
 19 20  1  0
 19 41  1  0
 19 42  1  0
 20 21  2  0
 20 24  1  0
 21 22  1  0
 21 43  1  0
 22 23  1  0
 22 44  1  0
 22 45  1  0
 23 24  1  0
 23 46  1  1
 24 47  1  0
 24 48  1  0
M  END

