
     RDKit          3D

 29 29  0  0  0  0  0  0  0  0999 V2000
    1.2231   -0.5535   -0.6524 C   0  0  0  0  0  0  0  0  0  0  0  0
    1.7085    0.2127    0.4458 O   0  0  0  0  0  0  0  0  0  0  0  0
    2.4483    1.3064    0.1413 C   0  0  0  0  0  0  0  0  0  0  0  0
    1.8548    2.5724   -0.0308 C   0  0  0  0  0  0  0  0  0  0  0  0
    0.1178    2.7061    0.0897 Cl  0  0  0  0  0  0  0  0  0  0  0  0
    2.6181    3.7125   -0.2823 C   0  0  0  0  0  0  0  0  0  0  0  0
    4.0155    3.6297   -0.3822 C   0  0  0  0  0  0  0  0  0  0  0  0
    4.8420    4.8760   -0.6277 C   0  0  0  0  0  0  0  0  0  0  0  0
    4.9508    5.8260    0.5798 C   0  0  0  0  0  0  0  0  0  0  0  0
    5.6883    5.2210    1.7795 C   0  0  0  0  0  0  0  0  0  0  0  0
    5.8757    6.1871    2.9398 C   0  0  0  0  0  0  0  0  0  0  0  0
    5.5181    5.6984    4.1434 N   0  0  0  0  0  0  0  0  0  0  0  0
    6.4981    7.7138    2.7548 S   0  0  0  0  0  0  0  0  0  0  0  0
    4.6206    2.3756   -0.2253 C   0  0  0  0  0  0  0  0  0  0  0  0
    3.8484    1.2386    0.0255 C   0  0  0  0  0  0  0  0  0  0  0  0
    4.6329   -0.3097    0.2196 Cl  0  0  0  0  0  0  0  0  0  0  0  0
    0.6517   -1.3881   -0.2244 H   0  0  0  0  0  0  0  0  0  0  0  0
    2.0541   -0.9567   -1.2556 H   0  0  0  0  0  0  0  0  0  0  0  0
    0.5576    0.0474   -1.2949 H   0  0  0  0  0  0  0  0  0  0  0  0
    2.1073    4.6696   -0.4060 H   0  0  0  0  0  0  0  0  0  0  0  0
    4.3994    5.4389   -1.4666 H   0  0  0  0  0  0  0  0  0  0  0  0
    5.8542    4.5823   -0.9522 H   0  0  0  0  0  0  0  0  0  0  0  0
    3.9417    6.1443    0.8945 H   0  0  0  0  0  0  0  0  0  0  0  0
    5.4824    6.7418    0.2785 H   0  0  0  0  0  0  0  0  0  0  0  0
    6.6971    4.9046    1.4593 H   0  0  0  0  0  0  0  0  0  0  0  0
    5.1691    4.3104    2.1258 H   0  0  0  0  0  0  0  0  0  0  0  0
    5.1343    4.7668    4.2527 H   0  0  0  0  0  0  0  0  0  0  0  0
    5.6393    6.2819    4.9643 H   0  0  0  0  0  0  0  0  0  0  0  0
    5.7041    2.2684   -0.3035 H   0  0  0  0  0  0  0  0  0  0  0  0
  1  2  1  0
  1 17  1  0
  1 18  1  0
  1 19  1  0
  2  3  1  0
  3  4  2  0
  3 15  1  0
  4  5  1  0
  4  6  1  0
  6  7  2  0
  6 20  1  0
  7  8  1  0
  7 14  1  0
  8  9  1  0
  8 21  1  0
  8 22  1  0
  9 10  1  0
  9 23  1  0
  9 24  1  0
 10 11  1  0
 10 25  1  0
 10 26  1  0
 11 12  1  0
 11 13  2  0
 12 27  1  0
 12 28  1  0
 14 15  2  0
 14 29  1  0
 15 16  1  0
M  END

