
     RDKit          3D

 48 49  0  0  0  0  0  0  0  0999 V2000
    5.4426    2.0462   -1.0945 C   0  0  0  0  0  0  0  0  0  0  0  0
    4.1571    1.8770   -0.3016 C   0  0  0  0  0  0  0  0  0  0  0  0
    4.4097    1.7828    1.1111 O   0  0  0  0  0  0  0  0  0  0  0  0
    4.6988    0.5605    1.6161 C   0  0  0  0  0  0  0  0  0  0  0  0
    4.7490   -0.4478    0.9460 O   0  0  0  0  0  0  0  0  0  0  0  0
    4.9305    0.6271    3.0658 C   0  0  0  0  0  0  0  0  0  0  0  0
    4.8049    2.1525    3.9014 S   0  0  0  0  0  0  0  0  0  0  0  0
    5.2605    1.4083    5.4000 C   0  0  0  0  0  0  0  0  0  0  0  0
    5.2945    2.2142    6.5359 N   0  0  0  0  0  0  0  0  0  0  0  0
    4.7306    1.9149    7.7529 C   0  0  0  0  0  0  0  0  0  0  0  0
    4.1817    0.8732    8.0383 O   0  0  0  0  0  0  0  0  0  0  0  0
    4.8682    3.0241    8.7946 C   0  0  0  0  0  0  0  0  0  0  0  0
    5.3527    4.2127    8.2088 O   0  0  0  0  0  0  0  0  0  0  0  0
    5.5712    5.3170    8.9873 C   0  0  0  0  0  0  0  0  0  0  0  0
    5.3162    5.3673   10.3643 C   0  0  0  0  0  0  0  0  0  0  0  0
    5.5714    6.5458   11.0765 C   0  0  0  0  0  0  0  0  0  0  0  0
    6.0750    7.6562   10.4099 C   0  0  0  0  0  0  0  0  0  0  0  0
    6.3189    8.7843   11.0941 F   0  0  0  0  0  0  0  0  0  0  0  0
    6.3320    7.6200    9.0386 C   0  0  0  0  0  0  0  0  0  0  0  0
    6.0792    6.4488    8.3294 C   0  0  0  0  0  0  0  0  0  0  0  0
    5.4723    0.0406    5.2684 C   0  0  0  0  0  0  0  0  0  0  0  0
    5.9383   -0.8625    6.3641 C   0  0  0  0  0  0  0  0  0  0  0  0
    5.6758   -2.0409    6.4389 O   0  0  0  0  0  0  0  0  0  0  0  0
    6.7561   -0.2345    7.2295 O   0  0  0  0  0  0  0  0  0  0  0  0
    7.3130   -1.0280    8.2961 C   0  0  0  0  0  0  0  0  0  0  0  0
    6.3521   -1.2231    9.4574 C   0  0  0  0  0  0  0  0  0  0  0  0
    5.2619   -0.4177    3.9158 C   0  0  0  0  0  0  0  0  0  0  0  0
    5.4222   -1.8366    3.4423 C   0  0  0  0  0  0  0  0  0  0  0  0
    5.2079    2.1939   -2.1610 H   0  0  0  0  0  0  0  0  0  0  0  0
    6.0767    1.1518   -1.0051 H   0  0  0  0  0  0  0  0  0  0  0  0
    6.0108    2.9213   -0.7424 H   0  0  0  0  0  0  0  0  0  0  0  0
    3.6111    0.9786   -0.6257 H   0  0  0  0  0  0  0  0  0  0  0  0
    3.5023    2.7539   -0.4100 H   0  0  0  0  0  0  0  0  0  0  0  0
    5.6178    3.1728    6.4365 H   0  0  0  0  0  0  0  0  0  0  0  0
    5.5540    2.6546    9.5803 H   0  0  0  0  0  0  0  0  0  0  0  0
    3.8744    3.1657    9.2543 H   0  0  0  0  0  0  0  0  0  0  0  0
    4.9187    4.5041   10.8978 H   0  0  0  0  0  0  0  0  0  0  0  0
    5.3795    6.6057   12.1495 H   0  0  0  0  0  0  0  0  0  0  0  0
    6.7269    8.5089    8.5429 H   0  0  0  0  0  0  0  0  0  0  0  0
    6.2707    6.3939    7.2560 H   0  0  0  0  0  0  0  0  0  0  0  0
    8.2090   -0.4707    8.6069 H   0  0  0  0  0  0  0  0  0  0  0  0
    7.6241   -1.9999    7.8844 H   0  0  0  0  0  0  0  0  0  0  0  0
    6.0128   -0.2600    9.8662 H   0  0  0  0  0  0  0  0  0  0  0  0
    6.8594   -1.7845   10.2590 H   0  0  0  0  0  0  0  0  0  0  0  0
    5.4667   -1.7912    9.1411 H   0  0  0  0  0  0  0  0  0  0  0  0
    5.6343   -2.5107    4.2772 H   0  0  0  0  0  0  0  0  0  0  0  0
    6.2217   -1.9030    2.6883 H   0  0  0  0  0  0  0  0  0  0  0  0
    4.5071   -2.1719    2.9321 H   0  0  0  0  0  0  0  0  0  0  0  0
  1  2  1  0
  1 29  1  0
  1 30  1  0
  1 31  1  0
  2  3  1  0
  2 32  1  0
  2 33  1  0
  3  4  1  0
  4  5  2  0
  4  6  1  0
  6  7  1  0
  6 27  2  0
  7  8  2  0
  8  9  1  0
  8 21  1  0
  9 10  1  0
  9 34  1  0
 10 11  2  0
 10 12  1  0
 12 13  1  0
 12 35  1  0
 12 36  1  0
 13 14  1  0
 14 15  2  0
 14 20  1  0
 15 16  1  0
 15 37  1  0
 16 17  2  0
 16 38  1  0
 17 18  1  0
 17 19  1  0
 19 20  2  0
 19 39  1  0
 20 40  1  0
 21 22  2  0
 21 27  1  0
 22 23  1  0
 22 24  1  0
 24 25  1  0
 25 26  1  0
 25 41  1  0
 25 42  1  0
 26 43  1  0
 26 44  1  0
 26 45  1  0
 27 28  1  0
 28 46  1  0
 28 47  1  0
 28 48  1  0
M  CHG  2   7   1  23  -1
M  END

