
     RDKit          3D

 32 32  0  0  0  0  0  0  0  0999 V2000
    9.2751    1.2988   -1.2646 C   0  0  0  0  0  0  0  0  0  0  0  0
    8.4708    0.2521   -0.7893 O   0  0  0  0  0  0  0  0  0  0  0  0
    7.1842    0.6552   -0.3841 C   0  0  0  0  0  0  0  0  0  0  0  0
    6.4351   -0.5566    0.1508 C   0  0  0  0  0  0  0  0  0  0  0  0
    7.1247   -1.1769    1.3673 C   0  0  0  0  0  0  0  0  0  0  0  0
    6.4277   -2.3715    1.8186 N   0  0  0  0  0  0  0  0  0  0  0  0
    6.9277   -3.5303    2.3293 C   0  0  0  0  0  0  0  0  0  0  0  0
    6.2175   -4.4680    2.6499 O   0  0  0  0  0  0  0  0  0  0  0  0
    8.4503   -3.6487    2.4581 C   0  0  0  0  0  0  0  0  0  0  0  0
    8.9537   -2.5589    3.2155 O   0  0  0  0  0  0  0  0  0  0  0  0
   10.2713   -2.4902    3.4882 C   0  0  0  0  0  0  0  0  0  0  0  0
   11.2221   -3.4465    3.1123 C   0  0  0  0  0  0  0  0  0  0  0  0
   12.5638   -3.2519    3.4610 C   0  0  0  0  0  0  0  0  0  0  0  0
   12.9153   -2.1095    4.1740 C   0  0  0  0  0  0  0  0  0  0  0  0
   12.0064   -1.1940    4.5352 N   0  0  0  0  0  0  0  0  0  0  0  0
   10.7512   -1.3691    4.2134 C   0  0  0  0  0  0  0  0  0  0  0  0
    9.4963   -0.0269    4.7644 Br  0  0  0  0  0  0  0  0  0  0  0  0
   10.2484    0.8736   -1.5500 H   0  0  0  0  0  0  0  0  0  0  0  0
    9.4430    2.0770   -0.4927 H   0  0  0  0  0  0  0  0  0  0  0  0
    8.8316    1.7916   -2.1537 H   0  0  0  0  0  0  0  0  0  0  0  0
    6.6276    1.1001   -1.2354 H   0  0  0  0  0  0  0  0  0  0  0  0
    7.2536    1.4414    0.3988 H   0  0  0  0  0  0  0  0  0  0  0  0
    6.3529   -1.3124   -0.6484 H   0  0  0  0  0  0  0  0  0  0  0  0
    5.4072   -0.2457    0.4103 H   0  0  0  0  0  0  0  0  0  0  0  0
    7.2009   -0.4321    2.1808 H   0  0  0  0  0  0  0  0  0  0  0  0
    8.1546   -1.4333    1.0907 H   0  0  0  0  0  0  0  0  0  0  0  0
    5.4109   -2.3502    1.8176 H   0  0  0  0  0  0  0  0  0  0  0  0
    8.9202   -3.6738    1.4557 H   0  0  0  0  0  0  0  0  0  0  0  0
    8.6399   -4.6078    2.9638 H   0  0  0  0  0  0  0  0  0  0  0  0
   10.9256   -4.3369    2.5570 H   0  0  0  0  0  0  0  0  0  0  0  0
   13.3204   -3.9870    3.1781 H   0  0  0  0  0  0  0  0  0  0  0  0
   13.9522   -1.9173    4.4672 H   0  0  0  0  0  0  0  0  0  0  0  0
  1  2  1  0
  1 18  1  0
  1 19  1  0
  1 20  1  0
  2  3  1  0
  3  4  1  0
  3 21  1  0
  3 22  1  0
  4  5  1  0
  4 23  1  0
  4 24  1  0
  5  6  1  0
  5 25  1  0
  5 26  1  0
  6  7  1  0
  6 27  1  0
  7  8  2  0
  7  9  1  0
  9 10  1  0
  9 28  1  0
  9 29  1  0
 10 11  1  0
 11 12  2  0
 11 16  1  0
 12 13  1  0
 12 30  1  0
 13 14  2  0
 13 31  1  0
 14 15  1  0
 14 32  1  0
 15 16  2  0
 16 17  1  0
M  END

