
     RDKit          3D

 44 45  0  0  0  0  0  0  0  0999 V2000
    1.4969    0.1175    0.6608 O   0  0  0  0  0  0  0  0  0  0  0  0
    2.4648    0.3486   -0.0494 C   0  0  0  0  0  0  0  0  0  0  0  0
    3.0939    1.5807   -0.0618 N   0  0  0  0  0  0  0  0  0  0  0  0
    2.6475    2.6447    0.8131 C   0  0  0  0  0  0  0  0  0  0  0  0
    3.1275    2.4771    2.2549 C   0  0  0  0  0  0  0  0  0  0  0  0
    2.6895    3.6143    2.9776 O   0  0  0  0  0  0  0  0  0  0  0  0
    2.9467    3.7135    4.3027 C   0  0  0  0  0  0  0  0  0  0  0  0
    2.4878    4.8772    4.9466 C   0  0  0  0  0  0  0  0  0  0  0  0
    2.7128    5.0606    6.3066 C   0  0  0  0  0  0  0  0  0  0  0  0
    3.3975    4.0946    7.0549 C   0  0  0  0  0  0  0  0  0  0  0  0
    3.6893    4.3086    8.7583 Cl  0  0  0  0  0  0  0  0  0  0  0  0
    3.8477    2.9430    6.4064 C   0  0  0  0  0  0  0  0  0  0  0  0
    4.5027    2.0044    7.0941 F   0  0  0  0  0  0  0  0  0  0  0  0
    3.6323    2.7395    5.0431 C   0  0  0  0  0  0  0  0  0  0  0  0
    3.0202   -0.5896   -0.8973 N   0  0  0  0  0  0  0  0  0  0  0  0
    2.3449   -1.8745   -1.1254 C   0  0  1  0  0  0  0  0  0  0  0  0
    2.8850   -2.5243   -2.4080 C   0  0  0  0  0  0  0  0  0  0  0  0
    4.3284   -3.0355   -2.2715 C   0  0  0  0  0  0  0  0  0  0  0  0
    4.5072   -3.9699   -1.0628 C   0  0  2  0  0  0  0  0  0  0  0  0
    3.8761   -5.3448   -1.3263 C   0  0  0  0  0  0  0  0  0  0  0  0
    3.3890   -5.6822   -2.3716 O   0  0  0  0  0  0  0  0  0  0  0  0
    3.9197   -6.2160   -0.2917 O   0  0  0  0  0  0  0  0  0  0  0  0
    3.9766   -3.2936    0.2233 C   0  0  0  0  0  0  0  0  0  0  0  0
    2.5261   -2.8243    0.0746 C   0  0  0  0  0  0  0  0  0  0  0  0
    4.0151    1.6571   -0.4759 H   0  0  0  0  0  0  0  0  0  0  0  0
    1.5484    2.6662    0.8097 H   0  0  0  0  0  0  0  0  0  0  0  0
    3.0044    3.6091    0.4192 H   0  0  0  0  0  0  0  0  0  0  0  0
    4.2317    2.4006    2.2889 H   0  0  0  0  0  0  0  0  0  0  0  0
    2.6994    1.5516    2.6772 H   0  0  0  0  0  0  0  0  0  0  0  0
    1.9545    5.6248    4.3574 H   0  0  0  0  0  0  0  0  0  0  0  0
    2.3579    5.9617    6.8097 H   0  0  0  0  0  0  0  0  0  0  0  0
    4.0057    1.8167    4.6014 H   0  0  0  0  0  0  0  0  0  0  0  0
    3.5784   -0.2357   -1.6665 H   0  0  0  0  0  0  0  0  0  0  0  0
    1.2650   -1.6810   -1.2417 H   0  0  0  0  0  0  0  0  0  0  0  0
    2.8105   -1.8135   -3.2499 H   0  0  0  0  0  0  0  0  0  0  0  0
    2.2343   -3.3738   -2.6636 H   0  0  0  0  0  0  0  0  0  0  0  0
    5.0258   -2.1881   -2.1527 H   0  0  0  0  0  0  0  0  0  0  0  0
    4.6194   -3.5627   -3.1916 H   0  0  0  0  0  0  0  0  0  0  0  0
    5.5869   -4.1724   -0.9279 H   0  0  0  0  0  0  0  0  0  0  0  0
    4.3356   -5.8060    0.4800 H   0  0  0  0  0  0  0  0  0  0  0  0
    4.6188   -2.4242    0.4402 H   0  0  0  0  0  0  0  0  0  0  0  0
    4.0724   -3.9552    1.1029 H   0  0  0  0  0  0  0  0  0  0  0  0
    2.1825   -2.3156    0.9866 H   0  0  0  0  0  0  0  0  0  0  0  0
    1.8607   -3.6933   -0.0727 H   0  0  0  0  0  0  0  0  0  0  0  0
  1  2  2  0
  2  3  1  0
  2 15  1  0
  3  4  1  0
  3 25  1  0
  4  5  1  0
  4 26  1  0
  4 27  1  0
  5  6  1  0
  5 28  1  0
  5 29  1  0
  6  7  1  0
  7  8  2  0
  7 14  1  0
  8  9  1  0
  8 30  1  0
  9 10  2  0
  9 31  1  0
 10 11  1  0
 10 12  1  0
 12 13  1  0
 12 14  2  0
 14 32  1  0
 15 16  1  0
 15 33  1  0
 16 17  1  0
 16 24  1  0
 16 34  1  6
 17 18  1  0
 17 35  1  0
 17 36  1  0
 18 19  1  0
 18 37  1  0
 18 38  1  0
 19 20  1  0
 19 23  1  0
 19 39  1  1
 20 21  2  0
 20 22  1  0
 22 40  1  0
 23 24  1  0
 23 41  1  0
 23 42  1  0
 24 43  1  0
 24 44  1  0
M  END

