
     RDKit          3D

 53 55  0  0  0  0  0  0  0  0999 V2000
    3.8824    0.8254    1.9447 C   0  0  0  0  0  0  0  0  0  0  0  0
    3.1070   -0.3218    1.6394 O   0  0  0  0  0  0  0  0  0  0  0  0
    3.4037   -1.0711    0.5466 C   0  0  0  0  0  0  0  0  0  0  0  0
    4.4683   -0.8313   -0.3192 C   0  0  0  0  0  0  0  0  0  0  0  0
    4.7012   -1.6795   -1.4288 C   0  0  0  0  0  0  0  0  0  0  0  0
    5.7885   -1.4938   -2.3771 C   0  0  0  0  0  0  0  0  0  0  0  0
    6.7582   -0.5503   -2.4707 C   0  0  0  0  0  0  0  0  0  0  0  0
    7.0730    0.8623   -1.4532 S   0  0  0  0  0  0  0  0  0  0  0  0
    8.4904    1.3368   -2.3965 C   0  0  0  0  0  0  0  0  0  0  0  0
    9.4012    2.6700   -2.0875 S   0  0  0  0  0  0  0  0  0  0  0  0
    8.6622    0.4632   -3.4468 N   0  0  0  0  0  0  0  0  0  0  0  0
    9.6781    0.6028   -4.3665 N   0  0  0  0  0  0  0  0  0  0  0  0
   11.0653   -0.4913   -4.0405 S   0  0  1  0  0  0  0  0  0  0  0  0
   10.8153   -1.0682   -2.7179 O   0  0  0  0  0  0  0  0  0  0  0  0
   11.2199   -1.3149   -5.2306 O   0  0  0  0  0  0  0  0  0  0  0  0
   12.4452    0.6445   -3.9686 C   0  0  0  0  0  0  0  0  0  0  0  0
   12.8121    1.2115   -2.7461 C   0  0  0  0  0  0  0  0  0  0  0  0
   13.9034    2.0806   -2.7097 C   0  0  0  0  0  0  0  0  0  0  0  0
   14.6262    2.3932   -3.8731 C   0  0  0  0  0  0  0  0  0  0  0  0
   15.8081    3.3286   -3.8306 C   0  0  0  0  0  0  0  0  0  0  0  0
   14.2307    1.8027   -5.0871 C   0  0  0  0  0  0  0  0  0  0  0  0
   13.1490    0.9257   -5.1450 C   0  0  0  0  0  0  0  0  0  0  0  0
    7.7512   -0.6193   -3.5772 C   0  0  0  0  0  0  0  0  0  0  0  0
    7.8158   -1.4405   -4.4537 O   0  0  0  0  0  0  0  0  0  0  0  0
    3.8383   -2.7754   -1.6298 C   0  0  0  0  0  0  0  0  0  0  0  0
    2.7726   -3.0176   -0.7626 C   0  0  0  0  0  0  0  0  0  0  0  0
    2.5398   -2.1727    0.3210 C   0  0  0  0  0  0  0  0  0  0  0  0
    1.5393   -2.4085    1.2194 O   0  0  0  0  0  0  0  0  0  0  0  0
    0.2454   -1.8079    0.9962 C   0  0  1  0  0  0  0  0  0  0  0  0
   -0.7523   -2.8246    0.4685 C   0  0  0  0  0  0  0  0  0  0  0  0
   -0.2308   -1.1686    2.3187 C   0  0  0  0  0  0  0  0  0  0  0  0
   -1.3956   -0.9741    2.5457 O   0  0  0  0  0  0  0  0  0  0  0  0
    0.7391   -0.8098    3.1598 O   0  0  0  0  0  0  0  0  0  0  0  0
    3.4284    1.2719    2.8383 H   0  0  0  0  0  0  0  0  0  0  0  0
    3.8571    1.5571    1.1194 H   0  0  0  0  0  0  0  0  0  0  0  0
    4.9302    0.5567    2.1618 H   0  0  0  0  0  0  0  0  0  0  0  0
    5.1253    0.0140   -0.1273 H   0  0  0  0  0  0  0  0  0  0  0  0
    5.8533   -2.2456   -3.1714 H   0  0  0  0  0  0  0  0  0  0  0  0
   10.0051    1.5763   -4.3132 H   0  0  0  0  0  0  0  0  0  0  0  0
   12.2527    0.9699   -1.8413 H   0  0  0  0  0  0  0  0  0  0  0  0
   14.2001    2.5248   -1.7560 H   0  0  0  0  0  0  0  0  0  0  0  0
   15.9464    3.7648   -2.8310 H   0  0  0  0  0  0  0  0  0  0  0  0
   15.6873    4.1547   -4.5503 H   0  0  0  0  0  0  0  0  0  0  0  0
   16.7381    2.8009   -4.1009 H   0  0  0  0  0  0  0  0  0  0  0  0
   14.7857    2.0277   -6.0021 H   0  0  0  0  0  0  0  0  0  0  0  0
   12.8553    0.4473   -6.0809 H   0  0  0  0  0  0  0  0  0  0  0  0
    4.0113   -3.4452   -2.4748 H   0  0  0  0  0  0  0  0  0  0  0  0
    2.1138   -3.8758   -0.9067 H   0  0  0  0  0  0  0  0  0  0  0  0
    0.3583   -0.9766    0.2755 H   0  0  0  0  0  0  0  0  0  0  0  0
   -0.8113   -3.6866    1.1498 H   0  0  0  0  0  0  0  0  0  0  0  0
   -0.4584   -3.1786   -0.5306 H   0  0  0  0  0  0  0  0  0  0  0  0
   -1.7471   -2.3627    0.4082 H   0  0  0  0  0  0  0  0  0  0  0  0
    1.6056   -1.0315    2.7645 H   0  0  0  0  0  0  0  0  0  0  0  0
  1  2  1  0
  1 34  1  0
  1 35  1  0
  1 36  1  0
  2  3  1  0
  3  4  2  0
  3 27  1  0
  4  5  1  0
  4 37  1  0
  5  6  1  0
  5 25  2  0
  6  7  2  0
  6 38  1  0
  7  8  1  0
  7 23  1  0
  8  9  1  0
  9 10  2  0
  9 11  1  0
 11 12  1  0
 11 23  1  0
 13 12  1  6
 12 39  1  0
 13 14  2  0
 13 15  2  0
 13 16  1  0
 16 17  2  0
 16 22  1  0
 17 18  1  0
 17 40  1  0
 18 19  2  0
 18 41  1  0
 19 20  1  0
 19 21  1  0
 20 42  1  0
 20 43  1  0
 20 44  1  0
 21 22  2  0
 21 45  1  0
 22 46  1  0
 23 24  2  0
 25 26  1  0
 25 47  1  0
 26 27  2  0
 26 48  1  0
 27 28  1  0
 28 29  1  0
 29 30  1  0
 29 31  1  0
 29 49  1  6
 30 50  1  0
 30 51  1  0
 30 52  1  0
 31 32  2  0
 31 33  1  0
 33 53  1  0
M  END

