
     RDKit          3D

 64 65  0  0  0  0  0  0  0  0999 V2000
    1.3265    0.6318    1.5147 C   0  0  0  0  0  0  0  0  0  0  0  0
    2.6203    0.4310    0.9175 N   0  0  0  0  0  0  0  0  0  0  0  0
    3.0701    1.3023    0.0834 C   0  0  0  0  0  0  0  0  0  0  0  0
    4.3553    1.1991   -0.4283 N   0  0  0  0  0  0  0  0  0  0  0  0
    5.1608    0.0137   -0.2255 C   0  0  0  0  0  0  0  0  0  0  0  0
    5.2161   -0.9154   -1.4571 C   0  0  1  0  0  0  0  0  0  0  0  0
    6.0738   -2.1636   -1.2060 C   0  0  0  0  0  0  0  0  0  0  0  0
    5.3910   -3.1040   -0.3275 N   0  0  0  0  0  0  0  0  0  0  0  0
    6.2055   -4.2550    0.0384 C   0  0  0  0  0  0  0  0  0  0  0  0
    7.2928   -3.9684    1.0903 C   0  0  1  0  0  0  0  0  0  0  0  0
    6.6860   -3.4654    2.4040 C   0  0  0  0  0  0  0  0  0  0  0  0
    8.1562   -5.2171    1.3070 C   0  0  0  0  0  0  0  0  0  0  0  0
    4.1006   -3.4678   -0.9010 C   0  0  0  0  0  0  0  0  0  0  0  0
    3.2546   -2.2217   -1.1347 C   0  0  0  0  0  0  0  0  0  0  0  0
    3.9360   -1.2739   -1.9480 O   0  0  0  0  0  0  0  0  0  0  0  0
    2.3626    2.4106   -0.3640 N   0  0  0  0  0  0  0  0  0  0  0  0
    2.9733    3.6270   -0.8688 C   0  0  0  0  0  0  0  0  0  0  0  0
    1.8723    4.6658   -1.1899 C   0  0  1  0  0  0  0  0  0  0  0  0
    1.1618    4.3231   -2.4772 C   0  0  0  0  0  0  0  0  0  0  0  0
    0.9158    5.1844   -3.5777 C   0  0  0  0  0  0  0  0  0  0  0  0
    0.2862    4.5613   -4.5696 N   0  0  0  0  0  0  0  0  0  0  0  0
    0.1129    3.3047   -4.1355 N   0  0  0  0  0  0  0  0  0  0  0  0
   -0.5251    2.3295   -4.9956 C   0  0  0  0  0  0  0  0  0  0  0  0
    0.6223    3.1090   -2.8898 C   0  0  0  0  0  0  0  0  0  0  0  0
    0.9580    4.7993   -0.0350 N   0  0  0  0  0  0  0  0  0  0  0  0
    1.6217    5.3451    1.1406 C   0  0  0  0  0  0  0  0  0  0  0  0
   -0.2712    5.5274   -0.3134 C   0  0  0  0  0  0  0  0  0  0  0  0
    1.1521   -0.1245    2.2968 H   0  0  0  0  0  0  0  0  0  0  0  0
    0.4892    0.5356    0.7899 H   0  0  0  0  0  0  0  0  0  0  0  0
    1.2048    1.6241    2.0032 H   0  0  0  0  0  0  0  0  0  0  0  0
    4.5071    1.6803   -1.3068 H   0  0  0  0  0  0  0  0  0  0  0  0
    4.7541   -0.5127    0.6468 H   0  0  0  0  0  0  0  0  0  0  0  0
    6.1995    0.3061    0.0160 H   0  0  0  0  0  0  0  0  0  0  0  0
    5.6835   -0.3519   -2.2854 H   0  0  0  0  0  0  0  0  0  0  0  0
    7.0331   -1.8616   -0.7579 H   0  0  0  0  0  0  0  0  0  0  0  0
    6.3069   -2.6343   -2.1903 H   0  0  0  0  0  0  0  0  0  0  0  0
    6.6789   -4.7130   -0.8623 H   0  0  0  0  0  0  0  0  0  0  0  0
    5.5286   -5.0239    0.4506 H   0  0  0  0  0  0  0  0  0  0  0  0
    7.9546   -3.1760    0.6943 H   0  0  0  0  0  0  0  0  0  0  0  0
    6.0614   -4.2475    2.8704 H   0  0  0  0  0  0  0  0  0  0  0  0
    6.0454   -2.5884    2.2318 H   0  0  0  0  0  0  0  0  0  0  0  0
    7.4702   -3.1902    3.1280 H   0  0  0  0  0  0  0  0  0  0  0  0
    7.5507   -6.0545    1.6954 H   0  0  0  0  0  0  0  0  0  0  0  0
    8.9589   -5.0245    2.0367 H   0  0  0  0  0  0  0  0  0  0  0  0
    8.6284   -5.5547    0.3697 H   0  0  0  0  0  0  0  0  0  0  0  0
    3.5697   -4.1391   -0.2058 H   0  0  0  0  0  0  0  0  0  0  0  0
    4.2258   -4.0179   -1.8644 H   0  0  0  0  0  0  0  0  0  0  0  0
    2.9678   -1.7609   -0.1728 H   0  0  0  0  0  0  0  0  0  0  0  0
    2.3352   -2.4864   -1.6803 H   0  0  0  0  0  0  0  0  0  0  0  0
    1.5036    2.6113    0.1434 H   0  0  0  0  0  0  0  0  0  0  0  0
    3.5214    3.4425   -1.8071 H   0  0  0  0  0  0  0  0  0  0  0  0
    3.7074    4.0464   -0.1544 H   0  0  0  0  0  0  0  0  0  0  0  0
    2.3954    5.6329   -1.3674 H   0  0  0  0  0  0  0  0  0  0  0  0
    1.1800    6.2383   -3.6758 H   0  0  0  0  0  0  0  0  0  0  0  0
    0.0827    2.1540   -5.8967 H   0  0  0  0  0  0  0  0  0  0  0  0
   -1.5162    2.6925   -5.3056 H   0  0  0  0  0  0  0  0  0  0  0  0
   -0.6389    1.3848   -4.4479 H   0  0  0  0  0  0  0  0  0  0  0  0
    0.5847    2.1422   -2.3945 H   0  0  0  0  0  0  0  0  0  0  0  0
    2.4609    4.7104    1.4587 H   0  0  0  0  0  0  0  0  0  0  0  0
    0.9092    5.3898    1.9782 H   0  0  0  0  0  0  0  0  0  0  0  0
    2.0150    6.3744    0.9761 H   0  0  0  0  0  0  0  0  0  0  0  0
   -0.8272    5.0579   -1.1345 H   0  0  0  0  0  0  0  0  0  0  0  0
   -0.0961    6.5930   -0.5854 H   0  0  0  0  0  0  0  0  0  0  0  0
   -0.9093    5.5138    0.5840 H   0  0  0  0  0  0  0  0  0  0  0  0
  1  2  1  0
  1 28  1  0
  1 29  1  0
  1 30  1  0
  2  3  2  0
  3  4  1  0
  3 16  1  0
  4  5  1  0
  4 31  1  0
  5  6  1  0
  5 32  1  0
  5 33  1  0
  6  7  1  0
  6 15  1  0
  6 34  1  6
  7  8  1  0
  7 35  1  0
  7 36  1  0
  8  9  1  0
  8 13  1  0
  9 10  1  0
  9 37  1  0
  9 38  1  0
 10 11  1  0
 10 12  1  0
 10 39  1  6
 11 40  1  0
 11 41  1  0
 11 42  1  0
 12 43  1  0
 12 44  1  0
 12 45  1  0
 13 14  1  0
 13 46  1  0
 13 47  1  0
 14 15  1  0
 14 48  1  0
 14 49  1  0
 16 17  1  0
 16 50  1  0
 17 18  1  0
 17 51  1  0
 17 52  1  0
 18 19  1  0
 18 25  1  0
 18 53  1  6
 19 20  1  0
 19 24  2  0
 20 21  2  0
 20 54  1  0
 21 22  1  0
 22 23  1  0
 22 24  1  0
 23 55  1  0
 23 56  1  0
 23 57  1  0
 24 58  1  0
 25 26  1  0
 25 27  1  0
 26 59  1  0
 26 60  1  0
 26 61  1  0
 27 62  1  0
 27 63  1  0
 27 64  1  0
M  END

