
     RDKit          3D

 68 68  0  0  0  0  0  0  0  0999 V2000
    0.5244   -0.1408   -0.3559 C   0  0  0  0  0  0  0  0  0  0  0  0
    1.9896   -0.4278   -0.6875 C   0  0  0  0  0  0  0  0  0  0  0  0
    2.7015   -1.2827    0.3657 C   0  0  0  0  0  0  0  0  0  0  0  0
    4.1693   -1.5752    0.0412 C   0  0  0  0  0  0  0  0  0  0  0  0
    4.8807   -2.4295    1.0946 C   0  0  0  0  0  0  0  0  0  0  0  0
    6.3485   -2.7224    0.7693 C   0  0  0  0  0  0  0  0  0  0  0  0
    7.0601   -3.5761    1.8231 C   0  0  0  0  0  0  0  0  0  0  0  0
    8.5276   -3.8696    1.4975 C   0  0  0  0  0  0  0  0  0  0  0  0
    9.2396   -4.7224    2.5518 C   0  0  0  0  0  0  0  0  0  0  0  0
   10.7069   -5.0162    2.2258 C   0  0  0  0  0  0  0  0  0  0  0  0
   11.4192   -5.8677    3.2810 C   0  0  0  0  0  0  0  0  0  0  0  0
   12.8864   -6.1608    2.9543 C   0  0  0  0  0  0  0  0  0  0  0  0
   13.5998   -7.0114    4.0094 C   0  0  0  0  0  0  0  0  0  0  0  0
   15.0683   -7.2884    3.6794 C   0  0  0  0  0  0  0  0  0  0  0  0
   15.7811   -8.1381    4.7333 C   0  0  0  0  0  0  0  0  0  0  0  0
   17.2811   -8.2569    4.4698 C   0  0  0  0  0  0  0  0  0  0  0  0
   17.9426   -7.3681    3.9831 O   0  0  0  0  0  0  0  0  0  0  0  0
   17.8142   -9.4756    4.8691 N   0  0  0  0  0  0  0  0  0  0  0  0
   19.1307   -9.7393    4.7763 N   0  0  0  0  0  0  0  0  0  0  0  0
   19.5462  -10.8849    5.1786 C   0  0  0  0  0  0  0  0  0  0  0  0
   20.9629  -11.2540    5.1121 C   0  0  0  0  0  0  0  0  0  0  0  0
   21.9259  -10.3676    4.6003 C   0  0  0  0  0  0  0  0  0  0  0  0
   23.2728  -10.7197    4.5379 C   0  0  0  0  0  0  0  0  0  0  0  0
   23.6766  -11.9784    4.9925 C   0  0  0  0  0  0  0  0  0  0  0  0
   22.7420  -12.8822    5.5069 C   0  0  0  0  0  0  0  0  0  0  0  0
   21.3863  -12.5285    5.5699 C   0  0  0  0  0  0  0  0  0  0  0  0
   20.4153  -13.3482    6.0558 O   0  0  0  0  0  0  0  0  0  0  0  0
   20.7560  -14.6312    6.5305 C   0  0  0  0  0  0  0  0  0  0  0  0
    0.0451    0.4752   -1.1337 H   0  0  0  0  0  0  0  0  0  0  0  0
    0.4282    0.3987    0.6015 H   0  0  0  0  0  0  0  0  0  0  0  0
   -0.0567   -1.0741   -0.2661 H   0  0  0  0  0  0  0  0  0  0  0  0
    2.5343    0.5264   -0.8083 H   0  0  0  0  0  0  0  0  0  0  0  0
    2.0536   -0.9336   -1.6684 H   0  0  0  0  0  0  0  0  0  0  0  0
    2.1571   -2.2380    0.4874 H   0  0  0  0  0  0  0  0  0  0  0  0
    2.6384   -0.7771    1.3477 H   0  0  0  0  0  0  0  0  0  0  0  0
    4.7130   -0.6197   -0.0809 H   0  0  0  0  0  0  0  0  0  0  0  0
    4.2317   -2.0806   -0.9407 H   0  0  0  0  0  0  0  0  0  0  0  0
    4.3370   -3.3849    1.2171 H   0  0  0  0  0  0  0  0  0  0  0  0
    4.8189   -1.9240    2.0764 H   0  0  0  0  0  0  0  0  0  0  0  0
    6.8922   -1.7671    0.6464 H   0  0  0  0  0  0  0  0  0  0  0  0
    6.4104   -3.2283   -0.2123 H   0  0  0  0  0  0  0  0  0  0  0  0
    6.5160   -4.5313    1.9465 H   0  0  0  0  0  0  0  0  0  0  0  0
    6.9986   -3.0698    2.8046 H   0  0  0  0  0  0  0  0  0  0  0  0
    9.0716   -2.9145    1.3735 H   0  0  0  0  0  0  0  0  0  0  0  0
    8.5891   -4.3765    0.5164 H   0  0  0  0  0  0  0  0  0  0  0  0
    8.6954   -5.6773    2.6764 H   0  0  0  0  0  0  0  0  0  0  0  0
    9.1786   -4.2150    3.5328 H   0  0  0  0  0  0  0  0  0  0  0  0
   11.2510   -4.0615    2.1005 H   0  0  0  0  0  0  0  0  0  0  0  0
   10.7680   -5.5244    1.2453 H   0  0  0  0  0  0  0  0  0  0  0  0
   10.8753   -6.8227    3.4067 H   0  0  0  0  0  0  0  0  0  0  0  0
   11.3584   -5.3591    4.2613 H   0  0  0  0  0  0  0  0  0  0  0  0
   13.4315   -5.2070    2.8292 H   0  0  0  0  0  0  0  0  0  0  0  0
   12.9479   -6.6694    1.9742 H   0  0  0  0  0  0  0  0  0  0  0  0
   13.0586   -7.9686    4.1320 H   0  0  0  0  0  0  0  0  0  0  0  0
   13.5353   -6.5047    4.9907 H   0  0  0  0  0  0  0  0  0  0  0  0
   15.6220   -6.3417    3.5722 H   0  0  0  0  0  0  0  0  0  0  0  0
   15.1411   -7.7909    2.6983 H   0  0  0  0  0  0  0  0  0  0  0  0
   15.3150   -9.1359    4.8154 H   0  0  0  0  0  0  0  0  0  0  0  0
   15.6688   -7.6650    5.7271 H   0  0  0  0  0  0  0  0  0  0  0  0
   17.1892  -10.1827    5.2626 H   0  0  0  0  0  0  0  0  0  0  0  0
   18.8529  -11.6378    5.5908 H   0  0  0  0  0  0  0  0  0  0  0  0
   21.5813   -9.3916    4.2527 H   0  0  0  0  0  0  0  0  0  0  0  0
   24.0056  -10.0161    4.1366 H   0  0  0  0  0  0  0  0  0  0  0  0
   24.7299  -12.2675    4.9494 H   0  0  0  0  0  0  0  0  0  0  0  0
   23.0774  -13.8585    5.8561 H   0  0  0  0  0  0  0  0  0  0  0  0
   19.8209  -15.0989    6.8668 H   0  0  0  0  0  0  0  0  0  0  0  0
   21.4573  -14.5811    7.3827 H   0  0  0  0  0  0  0  0  0  0  0  0
   21.2038  -15.2571    5.7379 H   0  0  0  0  0  0  0  0  0  0  0  0
  1  2  1  0
  1 29  1  0
  1 30  1  0
  1 31  1  0
  2  3  1  0
  2 32  1  0
  2 33  1  0
  3  4  1  0
  3 34  1  0
  3 35  1  0
  4  5  1  0
  4 36  1  0
  4 37  1  0
  5  6  1  0
  5 38  1  0
  5 39  1  0
  6  7  1  0
  6 40  1  0
  6 41  1  0
  7  8  1  0
  7 42  1  0
  7 43  1  0
  8  9  1  0
  8 44  1  0
  8 45  1  0
  9 10  1  0
  9 46  1  0
  9 47  1  0
 10 11  1  0
 10 48  1  0
 10 49  1  0
 11 12  1  0
 11 50  1  0
 11 51  1  0
 12 13  1  0
 12 52  1  0
 12 53  1  0
 13 14  1  0
 13 54  1  0
 13 55  1  0
 14 15  1  0
 14 56  1  0
 14 57  1  0
 15 16  1  0
 15 58  1  0
 15 59  1  0
 16 17  2  0
 16 18  1  0
 18 19  1  0
 18 60  1  0
 19 20  2  0
 20 21  1  0
 20 61  1  0
 21 22  2  0
 21 26  1  0
 22 23  1  0
 22 62  1  0
 23 24  2  0
 23 63  1  0
 24 25  1  0
 24 64  1  0
 25 26  2  0
 25 65  1  0
 26 27  1  0
 27 28  1  0
 28 66  1  0
 28 67  1  0
 28 68  1  0
M  END

