
     RDKit          3D

 37 38  0  0  0  0  0  0  0  0999 V2000
    1.4969   -0.4743    1.0908 C   0  0  0  0  0  0  0  0  0  0  0  0
    2.7603   -0.1616    0.3308 C   0  0  0  0  0  0  0  0  0  0  0  0
    3.3319    1.1217    0.3477 C   0  0  0  0  0  0  0  0  0  0  0  0
    4.5160    1.3626   -0.3596 C   0  0  0  0  0  0  0  0  0  0  0  0
    5.2654    2.6738   -0.2974 C   0  0  0  0  0  0  0  0  0  0  0  0
    6.4196    2.6730    0.1066 O   0  0  0  0  0  0  0  0  0  0  0  0
    4.6324    3.8305   -0.6993 N   0  0  0  0  0  0  0  0  0  0  0  0
    3.3402    3.8737   -1.3762 C   0  0  0  0  0  0  0  0  0  0  0  0
    2.2404    4.5188   -0.5318 C   0  0  0  0  0  0  0  0  0  0  0  0
    0.5447    4.5470   -1.5278 Br  0  0  0  0  0  0  0  0  0  0  0  0
    5.4176    5.0753   -0.6462 C   0  0  0  0  0  0  0  0  0  0  0  0
    5.1950    5.9248    0.5928 C   0  0  0  0  0  0  0  0  0  0  0  0
    5.5557    5.4398    1.8621 C   0  0  0  0  0  0  0  0  0  0  0  0
    5.3559    6.2217    3.0018 C   0  0  0  0  0  0  0  0  0  0  0  0
    4.8019    7.5024    2.8928 C   0  0  0  0  0  0  0  0  0  0  0  0
    4.4522    7.9986    1.6348 C   0  0  0  0  0  0  0  0  0  0  0  0
    4.6481    7.2125    0.4939 C   0  0  0  0  0  0  0  0  0  0  0  0
    5.0966    0.2920   -1.0500 C   0  0  0  0  0  0  0  0  0  0  0  0
    4.4447   -0.9426   -1.0259 C   0  0  0  0  0  0  0  0  0  0  0  0
    3.3120   -1.1693   -0.3596 N   0  0  0  0  0  0  0  0  0  0  0  0
    1.0875    0.4098    1.5997 H   0  0  0  0  0  0  0  0  0  0  0  0
    1.6914   -1.2564    1.8424 H   0  0  0  0  0  0  0  0  0  0  0  0
    0.7336   -0.8762    0.4058 H   0  0  0  0  0  0  0  0  0  0  0  0
    2.8605    1.9147    0.9316 H   0  0  0  0  0  0  0  0  0  0  0  0
    3.0387    2.8563   -1.6542 H   0  0  0  0  0  0  0  0  0  0  0  0
    3.4490    4.4416   -2.3162 H   0  0  0  0  0  0  0  0  0  0  0  0
    2.4627    5.5608   -0.2758 H   0  0  0  0  0  0  0  0  0  0  0  0
    2.0491    3.9599    0.3921 H   0  0  0  0  0  0  0  0  0  0  0  0
    5.1787    5.6622   -1.5466 H   0  0  0  0  0  0  0  0  0  0  0  0
    6.4750    4.7797   -0.6992 H   0  0  0  0  0  0  0  0  0  0  0  0
    6.0080    4.4487    1.9453 H   0  0  0  0  0  0  0  0  0  0  0  0
    5.6426    5.8323    3.9822 H   0  0  0  0  0  0  0  0  0  0  0  0
    4.6492    8.1131    3.7862 H   0  0  0  0  0  0  0  0  0  0  0  0
    4.0254    9.0003    1.5383 H   0  0  0  0  0  0  0  0  0  0  0  0
    4.3758    7.6105   -0.4887 H   0  0  0  0  0  0  0  0  0  0  0  0
    6.0386    0.4205   -1.5862 H   0  0  0  0  0  0  0  0  0  0  0  0
    4.8678   -1.7943   -1.5723 H   0  0  0  0  0  0  0  0  0  0  0  0
  1  2  1  0
  1 21  1  0
  1 22  1  0
  1 23  1  0
  2  3  2  0
  2 20  1  0
  3  4  1  0
  3 24  1  0
  4  5  1  0
  4 18  2  0
  5  6  2  0
  5  7  1  0
  7  8  1  0
  7 11  1  0
  8  9  1  0
  8 25  1  0
  8 26  1  0
  9 10  1  0
  9 27  1  0
  9 28  1  0
 11 12  1  0
 11 29  1  0
 11 30  1  0
 12 13  2  0
 12 17  1  0
 13 14  1  0
 13 31  1  0
 14 15  2  0
 14 32  1  0
 15 16  1  0
 15 33  1  0
 16 17  2  0
 16 34  1  0
 17 35  1  0
 18 19  1  0
 18 36  1  0
 19 20  2  0
 19 37  1  0
M  END

