
     RDKit          3D

 45 47  0  0  0  0  0  0  0  0999 V2000
    1.2792    0.4460   -0.3017 C   0  0  0  0  0  0  0  0  0  0  0  0
    2.7326    0.4615   -0.4113 N   0  0  0  0  0  0  0  0  0  0  0  0
    3.4416    1.4979    0.3279 C   0  0  0  0  0  0  0  0  0  0  0  0
    3.9908    1.0430    1.6678 C   0  0  0  0  0  0  0  0  0  0  0  0
    5.2991    1.3641    2.0690 C   0  0  0  0  0  0  0  0  0  0  0  0
    5.8040    0.9750    3.2399 N   0  0  0  0  0  0  0  0  0  0  0  0
    5.0018    0.2570    4.0273 C   0  0  0  0  0  0  0  0  0  0  0  0
    3.6963   -0.0677    3.6387 C   0  0  0  0  0  0  0  0  0  0  0  0
    3.1949    0.3244    2.4684 N   0  0  0  0  0  0  0  0  0  0  0  0
    3.3515   -0.5975   -1.0246 C   0  0  0  0  0  0  0  0  0  0  0  0
    2.7333   -1.5416   -1.4959 O   0  0  0  0  0  0  0  0  0  0  0  0
    4.8669   -0.6390   -1.0705 C   0  0  0  0  0  0  0  0  0  0  0  0
    5.4800   -1.7954   -0.6570 C   0  0  0  0  0  0  0  0  0  0  0  0
    6.8883   -2.0020   -0.7527 C   0  0  0  0  0  0  0  0  0  0  0  0
    7.6623   -1.0092   -1.3269 C   0  0  0  0  0  0  0  0  0  0  0  0
    7.0454    0.1141   -1.7669 N   0  0  0  0  0  0  0  0  0  0  0  0
    7.5923    0.8546   -2.2017 H   0  0  0  0  0  0  0  0  0  0  0  0
    5.6630    0.4113   -1.6977 C   0  0  0  0  0  0  0  0  0  0  0  0
    5.2740    1.4821   -2.1447 O   0  0  0  0  0  0  0  0  0  0  0  0
    9.1500   -1.1314   -1.5100 C   0  0  0  0  0  0  0  0  0  0  0  0
    9.8108   -2.0874   -0.4878 C   0  0  2  0  0  0  0  0  0  0  0  0
    9.8167   -1.4515    0.9165 C   0  0  0  0  0  0  0  0  0  0  0  0
   11.2588   -2.3650   -0.9219 C   0  0  0  0  0  0  0  0  0  0  0  0
    9.0061   -3.4061   -0.4773 C   0  0  0  0  0  0  0  0  0  0  0  0
    7.5106   -3.2426   -0.2317 C   0  0  0  0  0  0  0  0  0  0  0  0
    6.8588   -4.0985    0.3360 O   0  0  0  0  0  0  0  0  0  0  0  0
    0.8605    1.4007   -0.6625 H   0  0  0  0  0  0  0  0  0  0  0  0
    0.9753    0.2949    0.7467 H   0  0  0  0  0  0  0  0  0  0  0  0
    0.8928   -0.3769   -0.9131 H   0  0  0  0  0  0  0  0  0  0  0  0
    2.7210    2.3122    0.5082 H   0  0  0  0  0  0  0  0  0  0  0  0
    4.2376    1.9304   -0.2920 H   0  0  0  0  0  0  0  0  0  0  0  0
    5.9514    1.9495    1.4100 H   0  0  0  0  0  0  0  0  0  0  0  0
    5.4000   -0.0757    4.9925 H   0  0  0  0  0  0  0  0  0  0  0  0
    3.0470   -0.6595    4.2941 H   0  0  0  0  0  0  0  0  0  0  0  0
    4.8816   -2.6070   -0.2362 H   0  0  0  0  0  0  0  0  0  0  0  0
    9.6166   -0.1323   -1.4591 H   0  0  0  0  0  0  0  0  0  0  0  0
    9.3387   -1.5069   -2.5337 H   0  0  0  0  0  0  0  0  0  0  0  0
   10.4025   -0.5179    0.9216 H   0  0  0  0  0  0  0  0  0  0  0  0
   10.2748   -2.1367    1.6470 H   0  0  0  0  0  0  0  0  0  0  0  0
    8.8034   -1.2137    1.2757 H   0  0  0  0  0  0  0  0  0  0  0  0
   11.8486   -1.4342   -0.9565 H   0  0  0  0  0  0  0  0  0  0  0  0
   11.2992   -2.8289   -1.9209 H   0  0  0  0  0  0  0  0  0  0  0  0
   11.7539   -3.0484   -0.2143 H   0  0  0  0  0  0  0  0  0  0  0  0
    9.3929   -4.1112    0.2739 H   0  0  0  0  0  0  0  0  0  0  0  0
    9.1097   -3.9055   -1.4597 H   0  0  0  0  0  0  0  0  0  0  0  0
  1  2  1  0
  1 27  1  0
  1 28  1  0
  1 29  1  0
  2  3  1  0
  2 10  1  0
  3  4  1  0
  3 30  1  0
  3 31  1  0
  4  5  2  0
  4  9  1  0
  5  6  1  0
  5 32  1  0
  6  7  2  0
  7  8  1  0
  7 33  1  0
  8  9  2  0
  8 34  1  0
 10 11  2  0
 10 12  1  0
 12 13  2  0
 12 18  1  0
 13 14  1  0
 13 35  1  0
 14 15  2  0
 14 25  1  0
 15 16  1  0
 15 20  1  0
 16 17  1  0
 16 18  1  0
 18 19  2  0
 20 21  1  0
 20 36  1  0
 20 37  1  0
 21 22  1  1
 21 23  1  0
 21 24  1  0
 22 38  1  0
 22 39  1  0
 22 40  1  0
 23 41  1  0
 23 42  1  0
 23 43  1  0
 24 25  1  0
 24 44  1  0
 24 45  1  0
 25 26  2  0
M  END

