
     RDKit          3D

 41 43  0  0  0  0  0  0  0  0999 V2000
   13.7352  -13.0710    4.9833 C   0  0  0  0  0  0  0  0  0  0  0  0
   12.3592  -13.1230    5.4361 N   0  0  0  0  0  0  0  0  0  0  0  0
   11.7437  -14.1224    6.1345 C   0  0  0  0  0  0  0  0  0  0  0  0
   10.4341  -13.7275    6.3334 C   0  0  0  0  0  0  0  0  0  0  0  0
   10.3591  -12.4594    5.7101 C   0  0  0  0  0  0  0  0  0  0  0  0
    9.1580  -11.5819    5.6217 C   0  0  0  0  0  0  0  0  0  0  0  0
    8.0778  -11.9127    6.0937 O   0  0  0  0  0  0  0  0  0  0  0  0
    9.3715  -10.3967    4.9801 N   0  0  0  0  0  0  0  0  0  0  0  0
    8.3098   -9.4282    4.7779 C   0  0  0  0  0  0  0  0  0  0  0  0
    7.5964   -9.5591    3.4481 C   0  0  0  0  0  0  0  0  0  0  0  0
    6.7566  -10.6470    3.1536 C   0  0  0  0  0  0  0  0  0  0  0  0
    6.1405  -10.7750    1.9825 N   0  0  0  0  0  0  0  0  0  0  0  0
    6.3450   -9.8172    1.0644 C   0  0  0  0  0  0  0  0  0  0  0  0
    5.6707  -10.0468   -0.2919 C   0  0  1  0  0  0  0  0  0  0  0  0
    6.1255  -10.9765   -0.6768 H   0  0  0  0  0  0  0  0  0  0  0  0
    4.1511  -10.2827   -0.1665 C   0  0  0  0  0  0  0  0  0  0  0  0
    3.3949   -8.9637    0.0274 C   0  0  0  0  0  0  0  0  0  0  0  0
    3.7939   -7.9699   -1.0694 C   0  0  0  0  0  0  0  0  0  0  0  0
    5.3133   -7.8142   -1.1067 C   0  0  0  0  0  0  0  0  0  0  0  0
    5.9785   -9.0625   -1.2531 O   0  0  0  0  0  0  0  0  0  0  0  0
    7.1087   -8.7386    1.2438 N   0  0  0  0  0  0  0  0  0  0  0  0
    7.7210   -8.6180    2.4242 C   0  0  0  0  0  0  0  0  0  0  0  0
   11.5323  -12.1101    5.1731 N   0  0  0  0  0  0  0  0  0  0  0  0
   14.2513  -13.9876    5.2967 H   0  0  0  0  0  0  0  0  0  0  0  0
   14.2468  -12.2000    5.4195 H   0  0  0  0  0  0  0  0  0  0  0  0
   13.7724  -12.9915    3.8864 H   0  0  0  0  0  0  0  0  0  0  0  0
   12.2803  -15.0220    6.4288 H   0  0  0  0  0  0  0  0  0  0  0  0
    9.6344  -14.2546    6.8455 H   0  0  0  0  0  0  0  0  0  0  0  0
   10.2848  -10.2527    4.5614 H   0  0  0  0  0  0  0  0  0  0  0  0
    8.7282   -8.4132    4.8723 H   0  0  0  0  0  0  0  0  0  0  0  0
    7.5901   -9.5743    5.5971 H   0  0  0  0  0  0  0  0  0  0  0  0
    6.5891  -11.4295    3.9041 H   0  0  0  0  0  0  0  0  0  0  0  0
    3.9655  -10.9866    0.6578 H   0  0  0  0  0  0  0  0  0  0  0  0
    3.8097  -10.7638   -1.0987 H   0  0  0  0  0  0  0  0  0  0  0  0
    3.6339   -8.5352    1.0184 H   0  0  0  0  0  0  0  0  0  0  0  0
    2.3070   -9.1433    0.0214 H   0  0  0  0  0  0  0  0  0  0  0  0
    3.3264   -6.9837   -0.9065 H   0  0  0  0  0  0  0  0  0  0  0  0
    3.4403   -8.3394   -2.0487 H   0  0  0  0  0  0  0  0  0  0  0  0
    5.6677   -7.3029   -0.1934 H   0  0  0  0  0  0  0  0  0  0  0  0
    5.6296   -7.2094   -1.9708 H   0  0  0  0  0  0  0  0  0  0  0  0
    8.3414   -7.7224    2.5661 H   0  0  0  0  0  0  0  0  0  0  0  0
  1  2  1  0
  1 24  1  0
  1 25  1  0
  1 26  1  0
  2  3  1  0
  2 23  1  0
  3  4  2  0
  3 27  1  0
  4  5  1  0
  4 28  1  0
  5  6  1  0
  5 23  2  0
  6  7  2  0
  6  8  1  0
  8  9  1  0
  8 29  1  0
  9 10  1  0
  9 30  1  0
  9 31  1  0
 10 11  2  0
 10 22  1  0
 11 12  1  0
 11 32  1  0
 12 13  2  0
 13 14  1  0
 13 21  1  0
 14 15  1  6
 14 16  1  0
 14 20  1  0
 16 17  1  0
 16 33  1  0
 16 34  1  0
 17 18  1  0
 17 35  1  0
 17 36  1  0
 18 19  1  0
 18 37  1  0
 18 38  1  0
 19 20  1  0
 19 39  1  0
 19 40  1  0
 21 22  2  0
 22 41  1  0
M  END

