
     RDKit          3D

 34 35  0  0  0  0  0  0  0  0999 V2000
    2.4694    0.4841   -0.7276 C   0  0  0  0  0  0  0  0  0  0  0  0
    2.2898    0.1832   -2.4959 S   0  0  1  0  0  0  0  0  0  0  0  0
    0.9426   -0.3251   -2.7287 O   0  0  0  0  0  0  0  0  0  0  0  0
    2.7951    1.3666   -3.1914 O   0  0  0  0  0  0  0  0  0  0  0  0
    3.2976   -1.1246   -2.8082 N   0  0  0  0  0  0  0  0  0  0  0  0
    4.6913   -1.1744   -2.7984 C   0  0  0  0  0  0  0  0  0  0  0  0
    5.4881   -0.0098   -2.7906 C   0  0  0  0  0  0  0  0  0  0  0  0
    6.8763   -0.0991   -2.7462 C   0  0  0  0  0  0  0  0  0  0  0  0
    7.5153   -1.3428   -2.7126 C   0  0  0  0  0  0  0  0  0  0  0  0
    6.7385   -2.4965   -2.7529 C   0  0  0  0  0  0  0  0  0  0  0  0
    5.3338   -2.4487   -2.8151 C   0  0  0  0  0  0  0  0  0  0  0  0
    4.5178   -3.7065   -2.8804 C   0  0  0  0  0  0  0  0  0  0  0  0
    3.3253   -3.7397   -2.5586 O   0  0  0  0  0  0  0  0  0  0  0  0
    5.1507   -4.8232   -3.3351 N   0  0  0  0  0  0  0  0  0  0  0  0
    4.5031   -6.1281   -3.3900 C   0  0  0  0  0  0  0  0  0  0  0  0
    5.2143   -7.1650   -2.5859 C   0  0  0  0  0  0  0  0  0  0  0  0
    4.9015   -7.8661   -1.4542 C   0  0  0  0  0  0  0  0  0  0  0  0
    6.0287   -8.7106   -1.1751 C   0  0  0  0  0  0  0  0  0  0  0  0
    6.9427   -8.4540   -2.1551 C   0  0  0  0  0  0  0  0  0  0  0  0
    6.4600   -7.5208   -3.0170 O   0  0  0  0  0  0  0  0  0  0  0  0
    1.8399    1.3557   -0.5013 H   0  0  0  0  0  0  0  0  0  0  0  0
    3.5214    0.7023   -0.5004 H   0  0  0  0  0  0  0  0  0  0  0  0
    2.1157   -0.4022   -0.1858 H   0  0  0  0  0  0  0  0  0  0  0  0
    2.8434   -2.0448   -2.6949 H   0  0  0  0  0  0  0  0  0  0  0  0
    5.0011    0.9630   -2.8404 H   0  0  0  0  0  0  0  0  0  0  0  0
    7.4662    0.8211   -2.7356 H   0  0  0  0  0  0  0  0  0  0  0  0
    8.6034   -1.4121   -2.6553 H   0  0  0  0  0  0  0  0  0  0  0  0
    7.2401   -3.4657   -2.7007 H   0  0  0  0  0  0  0  0  0  0  0  0
    6.1023   -4.7563   -3.6708 H   0  0  0  0  0  0  0  0  0  0  0  0
    4.4278   -6.4573   -4.4421 H   0  0  0  0  0  0  0  0  0  0  0  0
    3.4838   -5.9957   -3.0070 H   0  0  0  0  0  0  0  0  0  0  0  0
    3.9763   -7.7881   -0.8871 H   0  0  0  0  0  0  0  0  0  0  0  0
    6.1402   -9.4144   -0.3529 H   0  0  0  0  0  0  0  0  0  0  0  0
    7.9360   -8.8389   -2.3711 H   0  0  0  0  0  0  0  0  0  0  0  0
  1  2  1  0
  1 21  1  0
  1 22  1  0
  1 23  1  0
  2  3  2  0
  2  4  2  0
  2  5  1  6
  5  6  1  0
  5 24  1  0
  6  7  2  0
  6 11  1  0
  7  8  1  0
  7 25  1  0
  8  9  2  0
  8 26  1  0
  9 10  1  0
  9 27  1  0
 10 11  2  0
 10 28  1  0
 11 12  1  0
 12 13  2  0
 12 14  1  0
 14 15  1  0
 14 29  1  0
 15 16  1  0
 15 30  1  0
 15 31  1  0
 16 17  2  0
 16 20  1  0
 17 18  1  0
 17 32  1  0
 18 19  2  0
 18 33  1  0
 19 20  1  0
 19 34  1  0
M  END

