
     RDKit          3D

 60 63  0  0  0  0  0  0  0  0999 V2000
    0.9984   -0.0186    0.0649 C   0  0  0  0  0  0  0  0  0  0  0  0
    2.4951   -0.1012   -0.1305 C   0  0  0  0  0  0  0  0  0  0  0  0
    3.2081    1.1460   -0.1524 C   0  0  0  0  0  0  0  0  0  0  0  0
    4.5743    1.2857   -0.2955 C   0  0  0  0  0  0  0  0  0  0  0  0
    5.2305    2.6158   -0.2840 C   0  0  0  0  0  0  0  0  0  0  0  0
    4.7254    3.6586    0.5116 C   0  0  0  0  0  0  0  0  0  0  0  0
    5.3085    4.9276    0.5108 C   0  0  0  0  0  0  0  0  0  0  0  0
    6.4276    5.2214   -0.2841 C   0  0  0  0  0  0  0  0  0  0  0  0
    7.0995    6.6072   -0.3133 C   0  0  1  0  0  0  0  0  0  0  0  0
    6.3990    7.6135    0.6176 C   0  0  0  0  0  0  0  0  0  0  0  0
    8.5723    6.4744    0.1393 C   0  0  0  0  0  0  0  0  0  0  0  0
    7.0536    7.1687   -1.7536 C   0  0  0  0  0  0  0  0  0  0  0  0
    6.9347    4.1712   -1.0726 C   0  0  0  0  0  0  0  0  0  0  0  0
    6.3620    2.9016   -1.0734 C   0  0  0  0  0  0  0  0  0  0  0  0
    5.3057    0.0518   -0.4348 C   0  0  0  0  0  0  0  0  0  0  0  0
    6.6269   -0.0781   -0.5766 N   0  0  0  0  0  0  0  0  0  0  0  0
    6.9468   -1.6835   -0.6789 S   0  0  0  0  0  0  0  0  0  0  0  0
    5.4237   -2.2734   -0.5461 N   0  0  0  0  0  0  0  0  0  0  0  0
    4.6033   -1.2269   -0.4141 C   0  0  0  0  0  0  0  0  0  0  0  0
    3.1716   -1.3072   -0.2711 C   0  0  0  0  0  0  0  0  0  0  0  0
    2.5063   -2.6383   -0.2956 C   0  0  0  0  0  0  0  0  0  0  0  0
    2.9017   -3.6683    0.5718 C   0  0  0  0  0  0  0  0  0  0  0  0
    2.2762   -4.9173    0.5466 C   0  0  0  0  0  0  0  0  0  0  0  0
    1.2374   -5.2047   -0.3532 C   0  0  0  0  0  0  0  0  0  0  0  0
    0.5308   -6.5728   -0.4139 C   0  0  1  0  0  0  0  0  0  0  0  0
    1.0884   -7.5626    0.6248 C   0  0  0  0  0  0  0  0  0  0  0  0
   -0.9793   -6.3843   -0.1393 C   0  0  0  0  0  0  0  0  0  0  0  0
    0.7243   -7.1877   -1.8197 C   0  0  0  0  0  0  0  0  0  0  0  0
    0.8553   -4.1724   -1.2300 C   0  0  0  0  0  0  0  0  0  0  0  0
    1.4699   -2.9217   -1.2033 C   0  0  0  0  0  0  0  0  0  0  0  0
    0.7467    0.7925    0.7661 H   0  0  0  0  0  0  0  0  0  0  0  0
    0.5768   -0.9549    0.4523 H   0  0  0  0  0  0  0  0  0  0  0  0
    0.4812    0.2095   -0.8835 H   0  0  0  0  0  0  0  0  0  0  0  0
    2.6069    2.0538   -0.0593 H   0  0  0  0  0  0  0  0  0  0  0  0
    3.8728    3.4723    1.1689 H   0  0  0  0  0  0  0  0  0  0  0  0
    4.8755    5.6912    1.1575 H   0  0  0  0  0  0  0  0  0  0  0  0
    6.4221    7.2861    1.6688 H   0  0  0  0  0  0  0  0  0  0  0  0
    5.3476    7.7749    0.3321 H   0  0  0  0  0  0  0  0  0  0  0  0
    6.9090    8.5883    0.5643 H   0  0  0  0  0  0  0  0  0  0  0  0
    8.6358    6.0798    1.1658 H   0  0  0  0  0  0  0  0  0  0  0  0
    9.0710    7.4576    0.1203 H   0  0  0  0  0  0  0  0  0  0  0  0
    9.1438    5.7982   -0.5145 H   0  0  0  0  0  0  0  0  0  0  0  0
    6.0142    7.2792   -2.1016 H   0  0  0  0  0  0  0  0  0  0  0  0
    7.5772    6.5140   -2.4667 H   0  0  0  0  0  0  0  0  0  0  0  0
    7.5344    8.1601   -1.7958 H   0  0  0  0  0  0  0  0  0  0  0  0
    7.8058    4.3422   -1.7098 H   0  0  0  0  0  0  0  0  0  0  0  0
    6.7958    2.1194   -1.6955 H   0  0  0  0  0  0  0  0  0  0  0  0
    3.7113   -3.4919    1.2821 H   0  0  0  0  0  0  0  0  0  0  0  0
    2.6201   -5.6757    1.2502 H   0  0  0  0  0  0  0  0  0  0  0  0
    0.9584   -7.1945    1.6547 H   0  0  0  0  0  0  0  0  0  0  0  0
    2.1591   -7.7653    0.4664 H   0  0  0  0  0  0  0  0  0  0  0  0
    0.5555   -8.5234    0.5477 H   0  0  0  0  0  0  0  0  0  0  0  0
   -1.1481   -5.9516    0.8597 H   0  0  0  0  0  0  0  0  0  0  0  0
   -1.5028   -7.3537   -0.1835 H   0  0  0  0  0  0  0  0  0  0  0  0
   -1.4513   -5.7174   -0.8768 H   0  0  0  0  0  0  0  0  0  0  0  0
    1.7930   -7.3361   -2.0418 H   0  0  0  0  0  0  0  0  0  0  0  0
    0.3046   -6.5466   -2.6099 H   0  0  0  0  0  0  0  0  0  0  0  0
    0.2231   -8.1677   -1.8838 H   0  0  0  0  0  0  0  0  0  0  0  0
    0.0606   -4.3434   -1.9602 H   0  0  0  0  0  0  0  0  0  0  0  0
    1.1526   -2.1559   -1.9151 H   0  0  0  0  0  0  0  0  0  0  0  0
  1  2  1  0
  1 31  1  0
  1 32  1  0
  1 33  1  0
  2  3  1  0
  2 20  2  0
  3  4  2  0
  3 34  1  0
  4  5  1  0
  4 15  1  0
  5  6  2  0
  5 14  1  0
  6  7  1  0
  6 35  1  0
  7  8  2  0
  7 36  1  0
  8  9  1  0
  8 13  1  0
  9 10  1  1
  9 11  1  0
  9 12  1  0
 10 37  1  0
 10 38  1  0
 10 39  1  0
 11 40  1  0
 11 41  1  0
 11 42  1  0
 12 43  1  0
 12 44  1  0
 12 45  1  0
 13 14  2  0
 13 46  1  0
 14 47  1  0
 15 16  2  0
 15 19  1  0
 16 17  1  0
 17 18  1  0
 18 19  2  0
 19 20  1  0
 20 21  1  0
 21 22  2  0
 21 30  1  0
 22 23  1  0
 22 48  1  0
 23 24  2  0
 23 49  1  0
 24 25  1  0
 24 29  1  0
 25 26  1  1
 25 27  1  0
 25 28  1  0
 26 50  1  0
 26 51  1  0
 26 52  1  0
 27 53  1  0
 27 54  1  0
 27 55  1  0
 28 56  1  0
 28 57  1  0
 28 58  1  0
 29 30  2  0
 29 59  1  0
 30 60  1  0
M  END

