
     RDKit          3D

 36 37  0  0  0  0  0  0  0  0999 V2000
    4.4644   -0.2693    1.2552 C   0  0  0  0  0  0  0  0  0  0  0  0
    3.3818    0.2490    0.5115 O   0  0  0  0  0  0  0  0  0  0  0  0
    3.6000    0.7716   -0.7110 C   0  0  0  0  0  0  0  0  0  0  0  0
    4.8592    0.8567   -1.3270 C   0  0  0  0  0  0  0  0  0  0  0  0
    4.9968    1.4205   -2.5979 C   0  0  0  0  0  0  0  0  0  0  0  0
    3.8883    1.9092   -3.3008 C   0  0  0  0  0  0  0  0  0  0  0  0
    4.0280    2.5076   -4.6941 C   0  0  1  0  0  0  0  0  0  0  0  0
    5.0022    3.6985   -4.7306 C   0  0  0  0  0  0  0  0  0  0  0  0
    4.4096    1.4485   -5.6323 N   0  0  0  0  0  0  0  0  0  0  0  0
    4.2357    1.4485   -6.9802 C   0  0  0  0  0  0  0  0  0  0  0  0
    3.5452    2.5246   -7.6554 C   0  0  0  0  0  0  0  0  0  0  0  0
    3.3396    2.5564   -8.9408 N   0  0  0  0  0  0  0  0  0  0  0  0
    3.7783    1.5629   -9.6964 N   0  0  0  0  0  0  0  0  0  0  0  0
    3.5216    1.6508  -11.1299 C   0  0  0  0  0  0  0  0  0  0  0  0
    4.4811    0.4179   -9.2344 C   0  0  0  0  0  0  0  0  0  0  0  0
    4.8400   -0.4331  -10.0326 O   0  0  0  0  0  0  0  0  0  0  0  0
    4.6852    0.4215   -7.8024 C   0  0  0  0  0  0  0  0  0  0  0  0
    5.6103   -1.0676   -7.0805 Br  0  0  0  0  0  0  0  0  0  0  0  0
    2.6292    1.8206   -2.6881 C   0  0  0  0  0  0  0  0  0  0  0  0
    2.4832    1.2685   -1.4179 C   0  0  0  0  0  0  0  0  0  0  0  0
    0.7581    1.1771   -0.6247 Br  0  0  0  0  0  0  0  0  0  0  0  0
    4.0418   -0.6368    2.1993 H   0  0  0  0  0  0  0  0  0  0  0  0
    5.2177    0.5073    1.4772 H   0  0  0  0  0  0  0  0  0  0  0  0
    4.9563   -1.1079    0.7312 H   0  0  0  0  0  0  0  0  0  0  0  0
    5.7452    0.4853   -0.8119 H   0  0  0  0  0  0  0  0  0  0  0  0
    5.9970    1.4753   -3.0360 H   0  0  0  0  0  0  0  0  0  0  0  0
    3.0296    2.8730   -4.9855 H   0  0  0  0  0  0  0  0  0  0  0  0
    6.0171    3.3894   -4.4372 H   0  0  0  0  0  0  0  0  0  0  0  0
    4.6693    4.4893   -4.0406 H   0  0  0  0  0  0  0  0  0  0  0  0
    5.0637    4.1260   -5.7430 H   0  0  0  0  0  0  0  0  0  0  0  0
    4.8845    0.6367   -5.2500 H   0  0  0  0  0  0  0  0  0  0  0  0
    3.1548    3.3790   -7.1002 H   0  0  0  0  0  0  0  0  0  0  0  0
    2.9695    2.5802  -11.3072 H   0  0  0  0  0  0  0  0  0  0  0  0
    2.9377    0.7810  -11.4651 H   0  0  0  0  0  0  0  0  0  0  0  0
    4.4698    1.6492  -11.6875 H   0  0  0  0  0  0  0  0  0  0  0  0
    1.7403    2.1867   -3.2060 H   0  0  0  0  0  0  0  0  0  0  0  0
  1  2  1  0
  1 22  1  0
  1 23  1  0
  1 24  1  0
  2  3  1  0
  3  4  2  0
  3 20  1  0
  4  5  1  0
  4 25  1  0
  5  6  2  0
  5 26  1  0
  6  7  1  0
  6 19  1  0
  7  8  1  0
  7  9  1  0
  7 27  1  6
  8 28  1  0
  8 29  1  0
  8 30  1  0
  9 10  1  0
  9 31  1  0
 10 11  1  0
 10 17  2  0
 11 12  2  0
 11 32  1  0
 12 13  1  0
 13 14  1  0
 13 15  1  0
 14 33  1  0
 14 34  1  0
 14 35  1  0
 15 16  2  0
 15 17  1  0
 17 18  1  0
 19 20  2  0
 19 36  1  0
 20 21  1  0
M  END

