
     RDKit          3D

 46 45  0  0  0  0  0  0  0  0999 V2000
    3.4808    1.2039   -1.2002 C   0  0  0  0  0  0  0  0  0  0  0  0
    4.1917    0.6991    0.0446 C   0  0  0  0  0  0  0  0  0  0  0  0
    4.2433   -0.7439    0.0708 O   0  0  0  0  0  0  0  0  0  0  0  0
    5.2389   -1.3392   -0.5991 C   0  0  0  0  0  0  0  0  0  0  0  0
    6.1050   -0.7196   -1.1855 O   0  0  0  0  0  0  0  0  0  0  0  0
    5.1401   -2.8521   -0.5369 C   0  0  1  0  0  0  0  0  0  0  0  0
    5.0278   -3.5051   -1.9339 C   0  0  0  0  0  0  0  0  0  0  0  0
    4.4487   -4.5746   -2.0615 O   0  0  0  0  0  0  0  0  0  0  0  0
    5.6110   -2.8420   -2.9684 N   0  0  0  0  0  0  0  0  0  0  0  0
    5.5706   -3.3356   -4.3279 C   0  0  0  0  0  0  0  0  0  0  0  0
    4.5418   -2.6459   -5.2620 C   0  0  1  0  0  0  0  0  0  0  0  0
    4.5967   -3.3412   -6.6279 C   0  0  0  0  0  0  0  0  0  0  0  0
    3.1305   -2.7057   -4.6700 C   0  0  0  0  0  0  0  0  0  0  0  0
    5.1478   -0.8799   -5.4091 S   0  0  0  0  0  0  0  0  0  0  0  0
    3.8438   -0.0566   -6.3760 C   0  0  0  0  0  0  0  0  0  0  0  0
    6.2941   -3.4848    0.3444 C   0  0  1  0  0  0  0  0  0  0  0  0
    6.3859   -2.7060    1.6721 C   0  0  0  0  0  0  0  0  0  0  0  0
    5.9318   -4.9490    0.6564 C   0  0  0  0  0  0  0  0  0  0  0  0
    7.6531   -3.4274   -0.3757 C   0  0  0  0  0  0  0  0  0  0  0  0
    3.4101    2.3030   -1.1690 H   0  0  0  0  0  0  0  0  0  0  0  0
    2.4599    0.7956   -1.2623 H   0  0  0  0  0  0  0  0  0  0  0  0
    4.0317    0.9213   -2.1098 H   0  0  0  0  0  0  0  0  0  0  0  0
    3.6465    0.9722    0.9592 H   0  0  0  0  0  0  0  0  0  0  0  0
    5.2167    1.0930    0.1027 H   0  0  0  0  0  0  0  0  0  0  0  0
    4.1919   -3.0972   -0.0407 H   0  0  0  0  0  0  0  0  0  0  0  0
    6.0596   -1.9500   -2.7714 H   0  0  0  0  0  0  0  0  0  0  0  0
    5.3176   -4.4051   -4.2757 H   0  0  0  0  0  0  0  0  0  0  0  0
    6.5746   -3.2442   -4.7759 H   0  0  0  0  0  0  0  0  0  0  0  0
    4.2748   -4.3927   -6.5333 H   0  0  0  0  0  0  0  0  0  0  0  0
    5.6157   -3.3263   -7.0434 H   0  0  0  0  0  0  0  0  0  0  0  0
    3.9263   -2.8577   -7.3546 H   0  0  0  0  0  0  0  0  0  0  0  0
    2.8489   -3.7520   -4.4690 H   0  0  0  0  0  0  0  0  0  0  0  0
    2.3869   -2.2825   -5.3624 H   0  0  0  0  0  0  0  0  0  0  0  0
    3.0712   -2.1528   -3.7217 H   0  0  0  0  0  0  0  0  0  0  0  0
    4.1989    0.9716   -6.5378 H   0  0  0  0  0  0  0  0  0  0  0  0
    2.8868   -0.0137   -5.8359 H   0  0  0  0  0  0  0  0  0  0  0  0
    3.6960   -0.5287   -7.3589 H   0  0  0  0  0  0  0  0  0  0  0  0
    5.4098   -2.6582    2.1805 H   0  0  0  0  0  0  0  0  0  0  0  0
    6.7451   -1.6754    1.5224 H   0  0  0  0  0  0  0  0  0  0  0  0
    7.0957   -3.2039    2.3519 H   0  0  0  0  0  0  0  0  0  0  0  0
    4.9946   -5.0121    1.2327 H   0  0  0  0  0  0  0  0  0  0  0  0
    6.7311   -5.4101    1.2592 H   0  0  0  0  0  0  0  0  0  0  0  0
    5.7953   -5.5396   -0.2593 H   0  0  0  0  0  0  0  0  0  0  0  0
    7.9186   -2.3976   -0.6562 H   0  0  0  0  0  0  0  0  0  0  0  0
    7.6540   -4.0421   -1.2890 H   0  0  0  0  0  0  0  0  0  0  0  0
    8.4432   -3.8169    0.2866 H   0  0  0  0  0  0  0  0  0  0  0  0
  1  2  1  0
  1 20  1  0
  1 21  1  0
  1 22  1  0
  2  3  1  0
  2 23  1  0
  2 24  1  0
  3  4  1  0
  4  5  2  0
  4  6  1  0
  6  7  1  0
  6 16  1  0
  6 25  1  1
  7  8  2  0
  7  9  1  0
  9 10  1  0
  9 26  1  0
 10 11  1  0
 10 27  1  0
 10 28  1  0
 11 12  1  0
 11 13  1  0
 11 14  1  6
 12 29  1  0
 12 30  1  0
 12 31  1  0
 13 32  1  0
 13 33  1  0
 13 34  1  0
 14 15  1  0
 15 35  1  0
 15 36  1  0
 15 37  1  0
 16 17  1  1
 16 18  1  0
 16 19  1  0
 17 38  1  0
 17 39  1  0
 17 40  1  0
 18 41  1  0
 18 42  1  0
 18 43  1  0
 19 44  1  0
 19 45  1  0
 19 46  1  0
M  END

