
     RDKit          3D

 66 70  0  0  0  0  0  0  0  0999 V2000
    6.2453    4.3053    2.8333 C   0  0  0  0  0  0  0  0  0  0  0  0
    6.4459    2.8748    2.4023 C   0  0  0  0  0  0  0  0  0  0  0  0
    5.5640    2.2710    1.4884 C   0  0  0  0  0  0  0  0  0  0  0  0
    5.7632    0.9637    1.0471 C   0  0  0  0  0  0  0  0  0  0  0  0
    6.8646    0.2481    1.5259 C   0  0  0  0  0  0  0  0  0  0  0  0
    7.1052   -1.4379    0.9841 S   0  0  1  0  0  0  0  0  0  0  0  0
    7.9590   -2.0960    1.9810 O   0  0  0  0  0  0  0  0  0  0  0  0
    5.7964   -1.9837    0.6100 O   0  0  0  0  0  0  0  0  0  0  0  0
    7.9506   -1.3223   -0.5168 N   0  0  0  0  0  0  0  0  0  0  0  0
    9.3467   -1.5892   -0.5683 C   0  0  0  0  0  0  0  0  0  0  0  0
   10.3089   -0.5821   -0.5384 C   0  0  0  0  0  0  0  0  0  0  0  0
   10.2350    0.8676   -0.5468 C   0  0  0  0  0  0  0  0  0  0  0  0
    9.1513    1.6431   -0.7927 C   0  0  0  0  0  0  0  0  0  0  0  0
    9.1289    3.1080   -0.8395 C   0  0  0  0  0  0  0  0  0  0  0  0
   10.2228    3.9206   -0.4678 C   0  0  0  0  0  0  0  0  0  0  0  0
   10.1457    5.3099   -0.5439 C   0  0  0  0  0  0  0  0  0  0  0  0
    8.9739    5.9338   -0.9909 C   0  0  0  0  0  0  0  0  0  0  0  0
    7.8779    5.1474   -1.3587 C   0  0  0  0  0  0  0  0  0  0  0  0
    7.9554    3.7557   -1.2809 C   0  0  0  0  0  0  0  0  0  0  0  0
   11.8991   -1.2955   -0.5999 S   0  0  0  0  0  0  0  0  0  0  0  0
   11.2819   -2.9194   -0.7527 C   0  0  0  0  0  0  0  0  0  0  0  0
   12.2294   -4.0382   -0.8550 C   0  0  0  0  0  0  0  0  0  0  0  0
   11.9777   -5.2863   -0.2499 C   0  0  0  0  0  0  0  0  0  0  0  0
   12.8859   -6.3354   -0.3275 C   0  0  0  0  0  0  0  0  0  0  0  0
   14.1156   -6.1983   -1.0213 C   0  0  0  0  0  0  0  0  0  0  0  0
   15.0188   -7.2402   -1.1056 N   0  0  0  0  0  0  0  0  0  0  0  0
   16.2798   -7.0531   -1.7922 C   0  0  0  0  0  0  0  0  0  0  0  0
   14.7254   -8.5084   -0.4706 C   0  0  0  0  0  0  0  0  0  0  0  0
   14.3743   -4.9407   -1.6228 C   0  0  0  0  0  0  0  0  0  0  0  0
   13.4544   -3.9012   -1.5380 C   0  0  0  0  0  0  0  0  0  0  0  0
    9.8916   -2.9161   -0.7134 C   0  0  0  0  0  0  0  0  0  0  0  0
    9.0555   -4.1230   -0.9316 C   0  0  0  0  0  0  0  0  0  0  0  0
    9.1279   -4.9221   -2.1273 C   0  0  0  0  0  0  0  0  0  0  0  0
    8.2594   -5.9805   -2.1191 C   0  0  0  0  0  0  0  0  0  0  0  0
    7.3340   -6.0310   -0.6570 S   0  0  0  0  0  0  0  0  0  0  0  0
    8.1165   -4.6171   -0.0484 C   0  0  0  0  0  0  0  0  0  0  0  0
    7.7460    0.8098    2.4511 C   0  0  0  0  0  0  0  0  0  0  0  0
    7.5294    2.1202    2.8802 C   0  0  0  0  0  0  0  0  0  0  0  0
    5.1768    4.5562    2.9198 H   0  0  0  0  0  0  0  0  0  0  0  0
    6.6850    4.9949    2.0916 H   0  0  0  0  0  0  0  0  0  0  0  0
    6.7278    4.5098    3.8005 H   0  0  0  0  0  0  0  0  0  0  0  0
    4.7016    2.8340    1.1208 H   0  0  0  0  0  0  0  0  0  0  0  0
    5.0663    0.4891    0.3541 H   0  0  0  0  0  0  0  0  0  0  0  0
    7.3981   -1.8908   -1.1620 H   0  0  0  0  0  0  0  0  0  0  0  0
   11.1988    1.3616   -0.3816 H   0  0  0  0  0  0  0  0  0  0  0  0
    8.1989    1.1495   -0.9969 H   0  0  0  0  0  0  0  0  0  0  0  0
   11.1443    3.4607   -0.1043 H   0  0  0  0  0  0  0  0  0  0  0  0
   11.0072    5.9150   -0.2489 H   0  0  0  0  0  0  0  0  0  0  0  0
    8.9175    7.0236   -1.0503 H   0  0  0  0  0  0  0  0  0  0  0  0
    6.9574    5.6205   -1.7112 H   0  0  0  0  0  0  0  0  0  0  0  0
    7.0941    3.1479   -1.5703 H   0  0  0  0  0  0  0  0  0  0  0  0
   11.0543   -5.4340    0.3115 H   0  0  0  0  0  0  0  0  0  0  0  0
   12.6347   -7.2715    0.1696 H   0  0  0  0  0  0  0  0  0  0  0  0
   16.1403   -6.7919   -2.8577 H   0  0  0  0  0  0  0  0  0  0  0  0
   16.8591   -7.9844   -1.7518 H   0  0  0  0  0  0  0  0  0  0  0  0
   16.8936   -6.2550   -1.3337 H   0  0  0  0  0  0  0  0  0  0  0  0
   13.7946   -8.9616   -0.8582 H   0  0  0  0  0  0  0  0  0  0  0  0
   14.6163   -8.4156    0.6266 H   0  0  0  0  0  0  0  0  0  0  0  0
   15.5446   -9.2123   -0.6661 H   0  0  0  0  0  0  0  0  0  0  0  0
   15.2993   -4.7702   -2.1722 H   0  0  0  0  0  0  0  0  0  0  0  0
   13.6898   -2.9553   -2.0332 H   0  0  0  0  0  0  0  0  0  0  0  0
    9.8055   -4.7009   -2.9528 H   0  0  0  0  0  0  0  0  0  0  0  0
    8.1063   -6.7304   -2.8940 H   0  0  0  0  0  0  0  0  0  0  0  0
    7.8661   -4.2246    0.9353 H   0  0  0  0  0  0  0  0  0  0  0  0
    8.5807    0.2200    2.8323 H   0  0  0  0  0  0  0  0  0  0  0  0
    8.2172    2.5653    3.6041 H   0  0  0  0  0  0  0  0  0  0  0  0
  1  2  1  0
  1 39  1  0
  1 40  1  0
  1 41  1  0
  2  3  2  0
  2 38  1  0
  3  4  1  0
  3 42  1  0
  4  5  2  0
  4 43  1  0
  5  6  1  0
  5 37  1  0
  6  7  2  0
  6  8  2  0
  6  9  1  6
  9 10  1  0
  9 44  1  0
 10 11  2  0
 10 31  1  0
 11 12  1  0
 11 20  1  0
 12 13  2  0
 12 45  1  0
 13 14  1  0
 13 46  1  0
 14 15  2  0
 14 19  1  0
 15 16  1  0
 15 47  1  0
 16 17  2  0
 16 48  1  0
 17 18  1  0
 17 49  1  0
 18 19  2  0
 18 50  1  0
 19 51  1  0
 20 21  1  0
 21 22  1  0
 21 31  2  0
 22 23  2  0
 22 30  1  0
 23 24  1  0
 23 52  1  0
 24 25  2  0
 24 53  1  0
 25 26  1  0
 25 29  1  0
 26 27  1  0
 26 28  1  0
 27 54  1  0
 27 55  1  0
 27 56  1  0
 28 57  1  0
 28 58  1  0
 28 59  1  0
 29 30  2  0
 29 60  1  0
 30 61  1  0
 31 32  1  0
 32 33  1  0
 32 36  2  0
 33 34  2  0
 33 62  1  0
 34 35  1  0
 34 63  1  0
 35 36  1  0
 36 64  1  0
 37 38  2  0
 37 65  1  0
 38 66  1  0
M  END

