
     RDKit          3D

 79 82  0  0  0  0  0  0  0  0999 V2000
    1.6462   -6.7076    3.4356 C   0  0  0  0  0  0  0  0  0  0  0  0
    1.1039   -5.3235    3.7540 C   0  0  0  0  0  0  0  0  0  0  0  0
    2.0787   -4.2985    3.5106 O   0  0  0  0  0  0  0  0  0  0  0  0
    2.9751   -4.0315    4.4921 C   0  0  0  0  0  0  0  0  0  0  0  0
    2.9603   -4.6057    5.5650 O   0  0  0  0  0  0  0  0  0  0  0  0
    3.9123   -2.9784    4.0784 C   0  0  0  0  0  0  0  0  0  0  0  0
    4.8559   -2.4971    4.9438 C   0  0  0  0  0  0  0  0  0  0  0  0
    5.0882   -2.9802    6.3498 C   0  0  0  0  0  0  0  0  0  0  0  0
    5.6800   -1.4699    4.5385 N   0  0  0  0  0  0  0  0  0  0  0  0
    5.5390   -0.7431    3.3653 C   0  0  0  0  0  0  0  0  0  0  0  0
    6.5285    0.5691    3.0768 S   0  0  0  0  0  0  0  0  0  0  0  0
    4.5545   -1.1637    2.5501 N   0  0  0  0  0  0  0  0  0  0  0  0
    3.8184   -2.4339    2.6610 C   0  0  1  0  0  0  0  0  0  0  0  0
    2.7601   -2.2285    2.4594 H   0  0  0  0  0  0  0  0  0  0  0  0
    4.2965   -3.4324    1.5993 C   0  0  0  0  0  0  0  0  0  0  0  0
    5.5437   -4.0601    1.7420 C   0  0  0  0  0  0  0  0  0  0  0  0
    6.0160   -4.9813    0.8071 C   0  0  0  0  0  0  0  0  0  0  0  0
    5.2309   -5.2989   -0.3057 C   0  0  0  0  0  0  0  0  0  0  0  0
    3.9940   -4.6785   -0.4768 C   0  0  0  0  0  0  0  0  0  0  0  0
    3.5282   -3.7460    0.4609 C   0  0  0  0  0  0  0  0  0  0  0  0
    2.2664   -3.2326    0.2308 O   0  0  0  0  0  0  0  0  0  0  0  0
    2.0823   -1.8554   -0.0616 C   0  0  0  0  0  0  0  0  0  0  0  0
    3.2335   -1.2176   -0.8404 C   0  0  0  0  0  0  0  0  0  0  0  0
    4.0514   -0.4813   -0.3109 O   0  0  0  0  0  0  0  0  0  0  0  0
    3.3331   -1.5076   -2.1778 N   0  0  0  0  0  0  0  0  0  0  0  0
    2.4549   -2.2957   -2.8299 N   0  0  0  0  0  0  0  0  0  0  0  0
    2.6473   -2.5201   -4.0788 C   0  0  0  0  0  0  0  0  0  0  0  0
    1.7529   -3.3623   -4.8728 C   0  0  0  0  0  0  0  0  0  0  0  0
    1.9967   -3.5482   -6.2408 C   0  0  0  0  0  0  0  0  0  0  0  0
    1.1592   -4.3459   -7.0223 C   0  0  0  0  0  0  0  0  0  0  0  0
    0.0471   -4.9853   -6.4520 C   0  0  0  0  0  0  0  0  0  0  0  0
   -0.8100   -5.7706   -7.1304 O   0  0  0  0  0  0  0  0  0  0  0  0
   -0.6195   -6.0064   -8.5123 C   0  0  0  0  0  0  0  0  0  0  0  0
   -1.6996   -6.9238   -9.0372 C   0  0  0  0  0  0  0  0  0  0  0  0
   -1.7188   -7.2249  -10.4094 C   0  0  0  0  0  0  0  0  0  0  0  0
   -2.6893   -8.0725  -10.9344 C   0  0  0  0  0  0  0  0  0  0  0  0
   -3.6636   -8.6366  -10.0948 C   0  0  0  0  0  0  0  0  0  0  0  0
   -4.6823   -9.5400  -10.7102 C   0  0  0  0  0  0  0  0  0  0  0  0
   -4.7200   -9.8149  -11.8887 O   0  0  0  0  0  0  0  0  0  0  0  0
   -5.5560  -10.0213   -9.8051 O   0  0  0  0  0  0  0  0  0  0  0  0
   -6.5877  -10.9047  -10.2804 C   0  0  0  0  0  0  0  0  0  0  0  0
   -7.7966  -10.1371  -10.7893 C   0  0  0  0  0  0  0  0  0  0  0  0
   -3.6467   -8.3359   -8.7258 C   0  0  0  0  0  0  0  0  0  0  0  0
   -2.6713   -7.4854   -8.1999 C   0  0  0  0  0  0  0  0  0  0  0  0
   -0.1971   -4.7979   -5.0682 C   0  0  0  0  0  0  0  0  0  0  0  0
   -1.6929   -5.6508   -4.2596 Br  0  0  0  0  0  0  0  0  0  0  0  0
    0.6368   -4.0046   -4.2960 C   0  0  0  0  0  0  0  0  0  0  0  0
    0.8498   -7.4594    3.5591 H   0  0  0  0  0  0  0  0  0  0  0  0
    2.4710   -6.9679    4.1152 H   0  0  0  0  0  0  0  0  0  0  0  0
    2.0111   -6.7575    2.3981 H   0  0  0  0  0  0  0  0  0  0  0  0
    0.7755   -5.2633    4.8024 H   0  0  0  0  0  0  0  0  0  0  0  0
    0.2611   -5.0667    3.0957 H   0  0  0  0  0  0  0  0  0  0  0  0
    4.1882   -2.8373    6.9647 H   0  0  0  0  0  0  0  0  0  0  0  0
    5.9293   -2.4413    6.8111 H   0  0  0  0  0  0  0  0  0  0  0  0
    5.2901   -4.0596    6.3674 H   0  0  0  0  0  0  0  0  0  0  0  0
    6.3856   -1.1059    5.1684 H   0  0  0  0  0  0  0  0  0  0  0  0
    4.4817   -0.6753    1.6533 H   0  0  0  0  0  0  0  0  0  0  0  0
    6.1508   -3.8272    2.6204 H   0  0  0  0  0  0  0  0  0  0  0  0
    6.9898   -5.4553    0.9509 H   0  0  0  0  0  0  0  0  0  0  0  0
    5.5818   -6.0271   -1.0414 H   0  0  0  0  0  0  0  0  0  0  0  0
    3.3562   -4.9023   -1.3340 H   0  0  0  0  0  0  0  0  0  0  0  0
    1.9743   -1.2538    0.8553 H   0  0  0  0  0  0  0  0  0  0  0  0
    1.1509   -1.7920   -0.6407 H   0  0  0  0  0  0  0  0  0  0  0  0
    4.1372   -1.0942   -2.6613 H   0  0  0  0  0  0  0  0  0  0  0  0
    3.5115   -2.0781   -4.6087 H   0  0  0  0  0  0  0  0  0  0  0  0
    2.8559   -3.0617   -6.7102 H   0  0  0  0  0  0  0  0  0  0  0  0
    1.3781   -4.4673   -8.0827 H   0  0  0  0  0  0  0  0  0  0  0  0
    0.3745   -6.4627   -8.6843 H   0  0  0  0  0  0  0  0  0  0  0  0
   -0.6388   -5.0489   -9.0671 H   0  0  0  0  0  0  0  0  0  0  0  0
   -0.9657   -6.7902  -11.0739 H   0  0  0  0  0  0  0  0  0  0  0  0
   -2.7139   -8.3134  -11.9987 H   0  0  0  0  0  0  0  0  0  0  0  0
   -6.8461  -11.5248   -9.4096 H   0  0  0  0  0  0  0  0  0  0  0  0
   -6.1701  -11.5477  -11.0692 H   0  0  0  0  0  0  0  0  0  0  0  0
   -8.1905   -9.4620  -10.0136 H   0  0  0  0  0  0  0  0  0  0  0  0
   -8.5956  -10.8418  -11.0705 H   0  0  0  0  0  0  0  0  0  0  0  0
   -7.5364   -9.5435  -11.6780 H   0  0  0  0  0  0  0  0  0  0  0  0
   -4.4036   -8.7721   -8.0729 H   0  0  0  0  0  0  0  0  0  0  0  0
   -2.6609   -7.2522   -7.1349 H   0  0  0  0  0  0  0  0  0  0  0  0
    0.4367   -3.8743   -3.2320 H   0  0  0  0  0  0  0  0  0  0  0  0
  1  2  1  0
  1 48  1  0
  1 49  1  0
  1 50  1  0
  2  3  1  0
  2 51  1  0
  2 52  1  0
  3  4  1  0
  4  5  2  0
  4  6  1  0
  6  7  2  0
  6 13  1  0
  7  8  1  0
  7  9  1  0
  8 53  1  0
  8 54  1  0
  8 55  1  0
  9 10  1  0
  9 56  1  0
 10 11  2  0
 10 12  1  0
 12 13  1  0
 12 57  1  0
 13 14  1  6
 13 15  1  0
 15 16  2  0
 15 20  1  0
 16 17  1  0
 16 58  1  0
 17 18  2  0
 17 59  1  0
 18 19  1  0
 18 60  1  0
 19 20  2  0
 19 61  1  0
 20 21  1  0
 21 22  1  0
 22 23  1  0
 22 62  1  0
 22 63  1  0
 23 24  2  0
 23 25  1  0
 25 26  1  0
 25 64  1  0
 26 27  2  0
 27 28  1  0
 27 65  1  0
 28 29  2  0
 28 47  1  0
 29 30  1  0
 29 66  1  0
 30 31  2  0
 30 67  1  0
 31 32  1  0
 31 45  1  0
 32 33  1  0
 33 34  1  0
 33 68  1  0
 33 69  1  0
 34 35  2  0
 34 44  1  0
 35 36  1  0
 35 70  1  0
 36 37  2  0
 36 71  1  0
 37 38  1  0
 37 43  1  0
 38 39  2  0
 38 40  1  0
 40 41  1  0
 41 42  1  0
 41 72  1  0
 41 73  1  0
 42 74  1  0
 42 75  1  0
 42 76  1  0
 43 44  2  0
 43 77  1  0
 44 78  1  0
 45 46  1  0
 45 47  2  0
 47 79  1  0
M  END

