
     RDKit          3D

 44 46  0  0  0  0  0  0  0  0999 V2000
    3.5041    0.3841    3.9714 C   0  0  0  0  0  0  0  0  0  0  0  0
    3.2761   -0.2546    2.6252 C   0  0  0  0  0  0  0  0  0  0  0  0
    2.2764    0.2394    1.7694 C   0  0  0  0  0  0  0  0  0  0  0  0
    2.0553   -0.3507    0.5257 C   0  0  0  0  0  0  0  0  0  0  0  0
    2.8166   -1.4373    0.1025 C   0  0  0  0  0  0  0  0  0  0  0  0
    3.8444   -1.9646    0.9176 C   0  0  0  0  0  0  0  0  0  0  0  0
    4.6384   -3.0095    0.5052 N   0  0  0  0  0  0  0  0  0  0  0  0
    4.3604   -3.8148   -0.6603 C   0  0  0  0  0  0  0  0  0  0  0  0
    5.5067   -4.7874   -0.9012 C   0  0  2  0  0  0  0  0  0  0  0  0
    5.2939   -5.8026   -2.0238 C   0  0  0  0  0  0  0  0  0  0  0  0
    6.2164   -6.9472   -1.5871 C   0  0  0  0  0  0  0  0  0  0  0  0
    6.1442   -6.9101   -0.0367 C   0  0  2  0  0  0  0  0  0  0  0  0
    7.5042   -7.1278    0.6469 C   0  0  0  0  0  0  0  0  0  0  0  0
    7.9812   -8.5841    0.5733 C   0  0  0  0  0  0  0  0  0  0  0  0
    6.9400   -9.5387    1.1705 C   0  0  0  0  0  0  0  0  0  0  0  0
    5.5729   -9.3580    0.4994 C   0  0  0  0  0  0  0  0  0  0  0  0
    5.1075   -7.8955    0.5370 C   0  0  0  0  0  0  0  0  0  0  0  0
    5.6921   -5.5724    0.2727 O   0  0  0  0  0  0  0  0  0  0  0  0
    4.0371   -1.3454    2.1811 C   0  0  0  0  0  0  0  0  0  0  0  0
    5.4143   -2.0518    3.3252 Br  0  0  0  0  0  0  0  0  0  0  0  0
    2.8079    1.2204    4.1280 H   0  0  0  0  0  0  0  0  0  0  0  0
    4.5331    0.7681    4.0657 H   0  0  0  0  0  0  0  0  0  0  0  0
    3.3640   -0.3409    4.7897 H   0  0  0  0  0  0  0  0  0  0  0  0
    1.6718    1.0897    2.0931 H   0  0  0  0  0  0  0  0  0  0  0  0
    1.2697    0.0371   -0.1282 H   0  0  0  0  0  0  0  0  0  0  0  0
    2.6165   -1.8879   -0.8698 H   0  0  0  0  0  0  0  0  0  0  0  0
    5.1423   -3.4993    1.2389 H   0  0  0  0  0  0  0  0  0  0  0  0
    4.2589   -3.1725   -1.5523 H   0  0  0  0  0  0  0  0  0  0  0  0
    3.4141   -4.3876   -0.5601 H   0  0  0  0  0  0  0  0  0  0  0  0
    6.4254   -4.1954   -1.0951 H   0  0  0  0  0  0  0  0  0  0  0  0
    5.5398   -5.4015   -3.0185 H   0  0  0  0  0  0  0  0  0  0  0  0
    4.2410   -6.1305   -2.0407 H   0  0  0  0  0  0  0  0  0  0  0  0
    7.2477   -6.7494   -1.9225 H   0  0  0  0  0  0  0  0  0  0  0  0
    5.9184   -7.9198   -2.0041 H   0  0  0  0  0  0  0  0  0  0  0  0
    7.3923   -6.8297    1.7036 H   0  0  0  0  0  0  0  0  0  0  0  0
    8.2471   -6.4429    0.2050 H   0  0  0  0  0  0  0  0  0  0  0  0
    8.9456   -8.6883    1.0978 H   0  0  0  0  0  0  0  0  0  0  0  0
    8.1740   -8.8624   -0.4794 H   0  0  0  0  0  0  0  0  0  0  0  0
    6.8436   -9.3363    2.2531 H   0  0  0  0  0  0  0  0  0  0  0  0
    7.2771  -10.5847    1.0780 H   0  0  0  0  0  0  0  0  0  0  0  0
    4.8177   -9.9997    0.9832 H   0  0  0  0  0  0  0  0  0  0  0  0
    5.6362   -9.7032   -0.5489 H   0  0  0  0  0  0  0  0  0  0  0  0
    4.9166   -7.5909    1.5802 H   0  0  0  0  0  0  0  0  0  0  0  0
    4.1517   -7.7750   -0.0005 H   0  0  0  0  0  0  0  0  0  0  0  0
  1  2  1  0
  1 21  1  0
  1 22  1  0
  1 23  1  0
  2  3  2  0
  2 19  1  0
  3  4  1  0
  3 24  1  0
  4  5  2  0
  4 25  1  0
  5  6  1  0
  5 26  1  0
  6  7  1  0
  6 19  2  0
  7  8  1  0
  7 27  1  0
  8  9  1  0
  8 28  1  0
  8 29  1  0
  9 10  1  0
  9 18  1  0
  9 30  1  6
 10 11  1  0
 10 31  1  0
 10 32  1  0
 11 12  1  0
 11 33  1  0
 11 34  1  0
 12 13  1  0
 12 17  1  0
 12 18  1  6
 13 14  1  0
 13 35  1  0
 13 36  1  0
 14 15  1  0
 14 37  1  0
 14 38  1  0
 15 16  1  0
 15 39  1  0
 15 40  1  0
 16 17  1  0
 16 41  1  0
 16 42  1  0
 17 43  1  0
 17 44  1  0
 19 20  1  0
M  END

