
     RDKit          3D

 49 51  0  0  0  0  0  0  0  0999 V2000
    1.1197   -0.3229   -1.1205 C   0  0  0  0  0  0  0  0  0  0  0  0
    2.5959   -0.2148   -0.8567 C   0  0  0  0  0  0  0  0  0  0  0  0
    3.0989    1.0273   -0.7259 N   0  0  0  0  0  0  0  0  0  0  0  0
    4.3959    1.1957   -0.4863 C   0  0  0  0  0  0  0  0  0  0  0  0
    4.8803    2.4910   -0.4220 N   0  0  0  0  0  0  0  0  0  0  0  0
    3.9990    3.6481   -0.2464 C   0  0  1  0  0  0  0  0  0  0  0  0
    3.9951    4.1493    1.2109 C   0  0  0  0  0  0  0  0  0  0  0  0
    2.8971    5.1544    1.6143 C   0  0  1  0  0  0  0  0  0  0  0  0
    1.4835    4.6043    1.3859 C   0  0  0  0  0  0  0  0  0  0  0  0
    3.0934    5.5655    3.0795 C   0  0  0  0  0  0  0  0  0  0  0  0
    4.3468    4.7413   -1.2767 C   0  0  0  0  0  0  0  0  0  0  0  0
    4.0136    5.8923   -1.1682 O   0  0  0  0  0  0  0  0  0  0  0  0
    5.0224    4.3005   -2.3483 O   0  0  0  0  0  0  0  0  0  0  0  0
    5.2578    0.0655   -0.3540 C   0  0  0  0  0  0  0  0  0  0  0  0
    6.6797   -0.0823   -0.1040 C   0  0  0  0  0  0  0  0  0  0  0  0
    7.6236    1.0513    0.1342 C   0  0  0  0  0  0  0  0  0  0  0  0
    7.6780    1.6878    1.3889 C   0  0  0  0  0  0  0  0  0  0  0  0
    8.5487    2.7599    1.6093 C   0  0  0  0  0  0  0  0  0  0  0  0
    9.3821    3.2110    0.5810 C   0  0  0  0  0  0  0  0  0  0  0  0
    9.3424    2.5834   -0.6677 C   0  0  0  0  0  0  0  0  0  0  0  0
    8.4701    1.5136   -0.8898 C   0  0  0  0  0  0  0  0  0  0  0  0
    7.0691   -1.4011   -0.1003 C   0  0  0  0  0  0  0  0  0  0  0  0
    8.4374   -1.9664    0.1331 C   0  0  0  0  0  0  0  0  0  0  0  0
    5.7293   -2.5039   -0.3895 S   0  0  0  0  0  0  0  0  0  0  0  0
    4.6026   -1.1714   -0.5273 C   0  0  0  0  0  0  0  0  0  0  0  0
    3.3036   -1.3394   -0.7725 N   0  0  0  0  0  0  0  0  0  0  0  0
    0.5510    0.1469   -0.3018 H   0  0  0  0  0  0  0  0  0  0  0  0
    0.8257   -1.3754   -1.2153 H   0  0  0  0  0  0  0  0  0  0  0  0
    0.8564    0.2195   -2.0428 H   0  0  0  0  0  0  0  0  0  0  0  0
    5.8089    2.5816   -0.0180 H   0  0  0  0  0  0  0  0  0  0  0  0
    2.9936    3.2886   -0.5158 H   0  0  0  0  0  0  0  0  0  0  0  0
    4.9835    4.5892    1.4356 H   0  0  0  0  0  0  0  0  0  0  0  0
    3.8991    3.2537    1.8511 H   0  0  0  0  0  0  0  0  0  0  0  0
    3.0211    6.0481    0.9842 H   0  0  0  0  0  0  0  0  0  0  0  0
    1.3224    3.6625    1.9397 H   0  0  0  0  0  0  0  0  0  0  0  0
    1.2795    4.4079    0.3217 H   0  0  0  0  0  0  0  0  0  0  0  0
    0.7256    5.3261    1.7302 H   0  0  0  0  0  0  0  0  0  0  0  0
    2.9819    4.7009    3.7576 H   0  0  0  0  0  0  0  0  0  0  0  0
    2.3511    6.3214    3.3819 H   0  0  0  0  0  0  0  0  0  0  0  0
    4.0943    5.9955    3.2488 H   0  0  0  0  0  0  0  0  0  0  0  0
    5.2147    3.3558   -2.1912 H   0  0  0  0  0  0  0  0  0  0  0  0
    7.0346    1.3319    2.1978 H   0  0  0  0  0  0  0  0  0  0  0  0
    8.5792    3.2408    2.5903 H   0  0  0  0  0  0  0  0  0  0  0  0
   10.0613    4.0496    0.7528 H   0  0  0  0  0  0  0  0  0  0  0  0
    9.9909    2.9308   -1.4759 H   0  0  0  0  0  0  0  0  0  0  0  0
    8.4371    1.0291   -1.8688 H   0  0  0  0  0  0  0  0  0  0  0  0
    9.1598   -1.1614    0.3258 H   0  0  0  0  0  0  0  0  0  0  0  0
    8.7917   -2.5419   -0.7386 H   0  0  0  0  0  0  0  0  0  0  0  0
    8.4480   -2.6502    0.9984 H   0  0  0  0  0  0  0  0  0  0  0  0
  1  2  1  0
  1 27  1  0
  1 28  1  0
  1 29  1  0
  2  3  2  0
  2 26  1  0
  3  4  1  0
  4  5  1  0
  4 14  2  0
  5  6  1  0
  5 30  1  0
  6  7  1  0
  6 11  1  0
  6 31  1  6
  7  8  1  0
  7 32  1  0
  7 33  1  0
  8  9  1  0
  8 10  1  0
  8 34  1  6
  9 35  1  0
  9 36  1  0
  9 37  1  0
 10 38  1  0
 10 39  1  0
 10 40  1  0
 11 12  2  0
 11 13  1  0
 13 41  1  0
 14 15  1  0
 14 25  1  0
 15 16  1  0
 15 22  2  0
 16 17  2  0
 16 21  1  0
 17 18  1  0
 17 42  1  0
 18 19  2  0
 18 43  1  0
 19 20  1  0
 19 44  1  0
 20 21  2  0
 20 45  1  0
 21 46  1  0
 22 23  1  0
 22 24  1  0
 23 47  1  0
 23 48  1  0
 23 49  1  0
 24 25  1  0
 25 26  2  0
M  END

