
     RDKit          3D

 48 52  0  0  0  0  0  0  0  0999 V2000
    2.7987   -0.6513    0.7793 O   0  0  0  0  0  0  0  0  0  0  0  0
    3.3575    0.3838    0.4535 N   0  0  0  0  0  0  0  0  0  0  0  0
    3.7077    1.2629    1.2237 O   0  0  0  0  0  0  0  0  0  0  0  0
    3.6325    0.5870   -0.9845 C   0  0  0  0  0  0  0  0  0  0  0  0
    3.2255   -0.3871   -1.8963 C   0  0  0  0  0  0  0  0  0  0  0  0
    3.4936   -0.1956   -3.2502 C   0  0  0  0  0  0  0  0  0  0  0  0
    4.1655    0.9580   -3.6944 C   0  0  0  0  0  0  0  0  0  0  0  0
    4.4293    1.2058   -5.1272 C   0  0  0  0  0  0  0  0  0  0  0  0
    4.3451    2.4505   -5.5863 N   0  0  0  0  0  0  0  0  0  0  0  0
    4.6206    2.3974   -6.9039 N   0  0  0  0  0  0  0  0  0  0  0  0
    4.5908    3.5810   -7.6839 C   0  0  0  0  0  0  0  0  0  0  0  0
    4.1241    4.7719   -7.1035 C   0  0  0  0  0  0  0  0  0  0  0  0
    4.0877    5.9406   -7.8576 C   0  0  0  0  0  0  0  0  0  0  0  0
    4.5160    5.9092   -9.1855 C   0  0  0  0  0  0  0  0  0  0  0  0
    4.4760    7.1485   -9.9863 N   0  0  0  0  0  0  0  0  0  0  0  0
    4.0663    8.1588   -9.4386 O   0  0  0  0  0  0  0  0  0  0  0  0
    4.8556    7.0820  -11.1443 O   0  0  0  0  0  0  0  0  0  0  0  0
    4.9830    4.7345   -9.7752 C   0  0  0  0  0  0  0  0  0  0  0  0
    5.0228    3.5656   -9.0204 C   0  0  0  0  0  0  0  0  0  0  0  0
    4.8894    1.1265   -7.3111 C   0  0  0  0  0  0  0  0  0  0  0  0
    4.7859    0.3095   -6.1967 C   0  0  0  0  0  0  0  0  0  0  0  0
    5.0772   -1.1096   -6.2542 C   0  0  0  0  0  0  0  0  0  0  0  0
    5.3035   -1.8096   -7.3295 N   0  0  0  0  0  0  0  0  0  0  0  0
    5.5819   -3.0901   -6.9193 N   0  0  0  0  0  0  0  0  0  0  0  0
    5.5095   -3.1010   -5.6199 C   0  0  0  0  0  0  0  0  0  0  0  0
    5.7154   -4.2155   -4.7017 C   0  0  0  0  0  0  0  0  0  0  0  0
    6.0129   -5.4871   -5.2271 C   0  0  0  0  0  0  0  0  0  0  0  0
    6.2141   -6.5647   -4.3670 C   0  0  0  0  0  0  0  0  0  0  0  0
    6.1218   -6.3881   -2.9810 C   0  0  0  0  0  0  0  0  0  0  0  0
    5.8274   -5.1259   -2.4560 C   0  0  0  0  0  0  0  0  0  0  0  0
    5.6247   -4.0403   -3.3095 C   0  0  0  0  0  0  0  0  0  0  0  0
    5.1907   -1.8653   -5.1323 O   0  0  0  0  0  0  0  0  0  0  0  0
    4.5505    1.9287   -2.7487 C   0  0  0  0  0  0  0  0  0  0  0  0
    4.2893    1.7484   -1.3932 C   0  0  0  0  0  0  0  0  0  0  0  0
    2.7004   -1.2710   -1.5353 H   0  0  0  0  0  0  0  0  0  0  0  0
    3.1618   -0.9454   -3.9678 H   0  0  0  0  0  0  0  0  0  0  0  0
    3.7946    4.7600   -6.0659 H   0  0  0  0  0  0  0  0  0  0  0  0
    3.7291    6.8787   -7.4346 H   0  0  0  0  0  0  0  0  0  0  0  0
    5.3127    4.7521  -10.8135 H   0  0  0  0  0  0  0  0  0  0  0  0
    5.3994    2.6519   -9.4798 H   0  0  0  0  0  0  0  0  0  0  0  0
    5.1399    0.8554   -8.3317 H   0  0  0  0  0  0  0  0  0  0  0  0
    6.0813   -5.6090   -6.3096 H   0  0  0  0  0  0  0  0  0  0  0  0
    6.4444   -7.5502   -4.7789 H   0  0  0  0  0  0  0  0  0  0  0  0
    6.2798   -7.2359   -2.3098 H   0  0  0  0  0  0  0  0  0  0  0  0
    5.7557   -4.9849   -1.3749 H   0  0  0  0  0  0  0  0  0  0  0  0
    5.3978   -3.0543   -2.8998 H   0  0  0  0  0  0  0  0  0  0  0  0
    5.0637    2.8281   -3.0915 H   0  0  0  0  0  0  0  0  0  0  0  0
    4.5868    2.4849   -0.6474 H   0  0  0  0  0  0  0  0  0  0  0  0
  1  2  2  0
  2  3  1  0
  2  4  1  0
  4  5  2  0
  4 34  1  0
  5  6  1  0
  5 35  1  0
  6  7  2  0
  6 36  1  0
  7  8  1  0
  7 33  1  0
  8  9  2  0
  8 21  1  0
  9 10  1  0
 10 11  1  0
 10 20  1  0
 11 12  2  0
 11 19  1  0
 12 13  1  0
 12 37  1  0
 13 14  2  0
 13 38  1  0
 14 15  1  0
 14 18  1  0
 15 16  1  0
 15 17  1  0
 18 19  2  0
 18 39  1  0
 19 40  1  0
 20 21  2  0
 20 41  1  0
 21 22  1  0
 22 23  2  0
 22 32  1  0
 23 24  2  0
 24 25  2  0
 25 26  1  0
 25 32  1  0
 26 27  2  0
 26 31  1  0
 27 28  1  0
 27 42  1  0
 28 29  2  0
 28 43  1  0
 29 30  1  0
 29 44  1  0
 30 31  2  0
 30 45  1  0
 31 46  1  0
 33 34  2  0
 33 47  1  0
 34 48  1  0
M  CHG  6   2   1   3  -1  16  -1  17  -1  23   1  24   1
M  END

