
     RDKit          3D

 43 46  0  0  0  0  0  0  0  0999 V2000
    4.0610    1.8820    4.7872 C   0  0  0  0  0  0  0  0  0  0  0  0
    3.2706    1.0157    3.8200 C   0  0  0  0  0  0  0  0  0  0  0  0
    3.8220   -0.3084    3.7180 O   0  0  0  0  0  0  0  0  0  0  0  0
    4.8225   -0.5034    2.8340 C   0  0  0  0  0  0  0  0  0  0  0  0
    5.2660    0.3785    2.1259 O   0  0  0  0  0  0  0  0  0  0  0  0
    5.2632   -1.9175    2.8540 C   0  0  0  0  0  0  0  0  0  0  0  0
    6.3400   -2.4013    2.2058 C   0  0  0  0  0  0  0  0  0  0  0  0
    7.3187   -1.6442    1.3493 C   0  0  1  0  0  0  0  0  0  0  0  0
    8.7496   -2.2611    1.3738 C   0  0  0  0  0  0  0  0  0  0  0  0
    9.2276   -2.5780   -0.0804 C   0  0  2  0  0  0  0  0  0  0  0  0
    9.1464   -1.2773   -0.8571 C   0  0  0  0  0  0  0  0  0  0  0  0
   10.1868   -0.5803   -1.4742 C   0  0  0  0  0  0  0  0  0  0  0  0
   11.8270   -1.2039   -1.4342 Cl  0  0  0  0  0  0  0  0  0  0  0  0
    9.9420    0.6322   -2.1330 C   0  0  0  0  0  0  0  0  0  0  0  0
    8.6471    1.1531   -2.1619 C   0  0  0  0  0  0  0  0  0  0  0  0
    7.5920    0.4749   -1.5386 C   0  0  0  0  0  0  0  0  0  0  0  0
    7.8468   -0.7359   -0.8967 C   0  0  0  0  0  0  0  0  0  0  0  0
    6.8321   -1.5870   -0.1588 C   0  0  1  0  0  0  0  0  0  0  0  0
    6.9035   -2.9961   -0.7147 C   0  0  0  0  0  0  0  0  0  0  0  0
    5.8358   -3.7457   -1.2066 C   0  0  0  0  0  0  0  0  0  0  0  0
    6.0673   -5.0481   -1.6674 C   0  0  0  0  0  0  0  0  0  0  0  0
    7.3499   -5.5974   -1.6272 C   0  0  0  0  0  0  0  0  0  0  0  0
    8.4141   -4.8369   -1.1236 C   0  0  0  0  0  0  0  0  0  0  0  0
   10.0134   -5.5573   -1.0676 Cl  0  0  0  0  0  0  0  0  0  0  0  0
    8.2065   -3.5321   -0.6715 C   0  0  0  0  0  0  0  0  0  0  0  0
    3.5654    2.8588    4.9065 H   0  0  0  0  0  0  0  0  0  0  0  0
    5.0791    2.0591    4.4101 H   0  0  0  0  0  0  0  0  0  0  0  0
    4.1269    1.4059    5.7779 H   0  0  0  0  0  0  0  0  0  0  0  0
    3.2441    1.4704    2.8184 H   0  0  0  0  0  0  0  0  0  0  0  0
    2.2403    0.8625    4.1732 H   0  0  0  0  0  0  0  0  0  0  0  0
    4.6489   -2.5886    3.4588 H   0  0  0  0  0  0  0  0  0  0  0  0
    6.5239   -3.4778    2.3049 H   0  0  0  0  0  0  0  0  0  0  0  0
    7.3421   -0.6009    1.6855 H   0  0  0  0  0  0  0  0  0  0  0  0
    8.7696   -3.1911    1.9629 H   0  0  0  0  0  0  0  0  0  0  0  0
    9.4601   -1.5651    1.8430 H   0  0  0  0  0  0  0  0  0  0  0  0
   10.2376   -2.9998   -0.0863 H   0  0  0  0  0  0  0  0  0  0  0  0
   10.7691    1.1557   -2.6152 H   0  0  0  0  0  0  0  0  0  0  0  0
    8.4617    2.0998   -2.6753 H   0  0  0  0  0  0  0  0  0  0  0  0
    6.5809    0.8889   -1.5515 H   0  0  0  0  0  0  0  0  0  0  0  0
    5.8235   -1.1591   -0.2067 H   0  0  0  0  0  0  0  0  0  0  0  0
    4.8300   -3.3190   -1.2333 H   0  0  0  0  0  0  0  0  0  0  0  0
    5.2410   -5.6440   -2.0629 H   0  0  0  0  0  0  0  0  0  0  0  0
    7.5384   -6.6113   -1.9834 H   0  0  0  0  0  0  0  0  0  0  0  0
  1  2  1  0
  1 26  1  0
  1 27  1  0
  1 28  1  0
  2  3  1  0
  2 29  1  0
  2 30  1  0
  3  4  1  0
  4  5  2  0
  4  6  1  0
  6  7  2  0
  6 31  1  0
  7  8  1  0
  7 32  1  0
  8  9  1  0
  8 18  1  0
  8 33  1  1
  9 10  1  0
  9 34  1  0
  9 35  1  0
 10 11  1  0
 10 25  1  0
 10 36  1  1
 11 12  1  0
 11 17  2  0
 12 13  1  0
 12 14  2  0
 14 15  1  0
 14 37  1  0
 15 16  2  0
 15 38  1  0
 16 17  1  0
 16 39  1  0
 17 18  1  0
 18 19  1  0
 18 40  1  1
 19 20  2  0
 19 25  1  0
 20 21  1  0
 20 41  1  0
 21 22  2  0
 21 42  1  0
 22 23  1  0
 22 43  1  0
 23 24  1  0
 23 25  2  0
M  END

