
     RDKit          3D

 44 47  0  0  0  0  0  0  0  0999 V2000
    0.9528    0.5397    0.7225 O   0  0  0  0  0  0  0  0  0  0  0  0
    2.0833    0.5481    0.2767 C   0  0  0  0  0  0  0  0  0  0  0  0
    2.9472    1.7688   -0.0172 C   0  0  0  0  0  0  0  0  0  0  0  0
    4.1860    1.2296   -0.7543 C   0  0  2  0  0  0  0  0  0  0  0  0
    4.0368    1.4087   -2.2660 C   0  0  0  0  0  0  0  0  0  0  0  0
    2.9360    1.5239   -2.7819 O   0  0  0  0  0  0  0  0  0  0  0  0
    5.1701    1.4481   -3.0547 N   0  0  0  0  0  0  0  0  0  0  0  0
    4.9904    1.7263   -4.4986 C   0  0  0  0  0  0  0  0  0  0  0  0
    6.3659    2.2274   -4.9726 C   0  0  0  0  0  0  0  0  0  0  0  0
    7.2995    1.7307   -3.8944 C   0  0  0  0  0  0  0  0  0  0  0  0
    8.6882    1.6760   -3.8843 C   0  0  0  0  0  0  0  0  0  0  0  0
    9.3527    1.1823   -2.7524 C   0  0  0  0  0  0  0  0  0  0  0  0
    8.6120    0.7435   -1.6538 C   0  0  0  0  0  0  0  0  0  0  0  0
    7.2104    0.7899   -1.6520 C   0  0  0  0  0  0  0  0  0  0  0  0
    6.5514    1.3034   -2.7766 C   0  0  0  0  0  0  0  0  0  0  0  0
    4.2008   -0.2875   -0.3858 C   0  0  0  0  0  0  0  0  0  0  0  0
    2.8313   -0.5686   -0.0110 N   0  0  0  0  0  0  0  0  0  0  0  0
    2.3389   -1.9121    0.2365 C   0  0  0  0  0  0  0  0  0  0  0  0
    2.8298   -2.5146    1.5415 C   0  0  0  0  0  0  0  0  0  0  0  0
    2.3737   -1.9997    2.7676 C   0  0  0  0  0  0  0  0  0  0  0  0
    2.8228   -2.5261    3.9787 C   0  0  0  0  0  0  0  0  0  0  0  0
    3.7390   -3.5840    3.9703 C   0  0  0  0  0  0  0  0  0  0  0  0
    4.3052   -4.2499    5.4866 Cl  0  0  0  0  0  0  0  0  0  0  0  0
    4.2037   -4.1156    2.7660 C   0  0  0  0  0  0  0  0  0  0  0  0
    3.7453   -3.5748    1.5604 C   0  0  0  0  0  0  0  0  0  0  0  0
    3.2152    2.2360    0.9444 H   0  0  0  0  0  0  0  0  0  0  0  0
    2.3716    2.4935   -0.6060 H   0  0  0  0  0  0  0  0  0  0  0  0
    5.1056    1.7187   -0.4108 H   0  0  0  0  0  0  0  0  0  0  0  0
    4.1729    2.4451   -4.6313 H   0  0  0  0  0  0  0  0  0  0  0  0
    4.6926    0.7966   -5.0136 H   0  0  0  0  0  0  0  0  0  0  0  0
    6.3925    3.3303   -5.0289 H   0  0  0  0  0  0  0  0  0  0  0  0
    6.6241    1.8474   -5.9724 H   0  0  0  0  0  0  0  0  0  0  0  0
    9.2563    2.0129   -4.7557 H   0  0  0  0  0  0  0  0  0  0  0  0
   10.4437    1.1312   -2.7349 H   0  0  0  0  0  0  0  0  0  0  0  0
    9.1260    0.3424   -0.7766 H   0  0  0  0  0  0  0  0  0  0  0  0
    6.6757    0.4083   -0.7863 H   0  0  0  0  0  0  0  0  0  0  0  0
    4.8992   -0.4888    0.4502 H   0  0  0  0  0  0  0  0  0  0  0  0
    4.5165   -0.9243   -1.2307 H   0  0  0  0  0  0  0  0  0  0  0  0
    2.6239   -2.5598   -0.6095 H   0  0  0  0  0  0  0  0  0  0  0  0
    1.2416   -1.8311    0.2505 H   0  0  0  0  0  0  0  0  0  0  0  0
    1.6512   -1.1790    2.7656 H   0  0  0  0  0  0  0  0  0  0  0  0
    2.4636   -2.1280    4.9293 H   0  0  0  0  0  0  0  0  0  0  0  0
    4.9152   -4.9430    2.7751 H   0  0  0  0  0  0  0  0  0  0  0  0
    4.1075   -3.9954    0.6176 H   0  0  0  0  0  0  0  0  0  0  0  0
  1  2  2  0
  2  3  1  0
  2 17  1  0
  3  4  1  0
  3 26  1  0
  3 27  1  0
  4  5  1  0
  4 16  1  0
  4 28  1  1
  5  6  2  0
  5  7  1  0
  7  8  1  0
  7 15  1  0
  8  9  1  0
  8 29  1  0
  8 30  1  0
  9 10  1  0
  9 31  1  0
  9 32  1  0
 10 11  1  0
 10 15  2  0
 11 12  2  0
 11 33  1  0
 12 13  1  0
 12 34  1  0
 13 14  2  0
 13 35  1  0
 14 15  1  0
 14 36  1  0
 16 17  1  0
 16 37  1  0
 16 38  1  0
 17 18  1  0
 18 19  1  0
 18 39  1  0
 18 40  1  0
 19 20  2  0
 19 25  1  0
 20 21  1  0
 20 41  1  0
 21 22  2  0
 21 42  1  0
 22 23  1  0
 22 24  1  0
 24 25  2  0
 24 43  1  0
 25 44  1  0
M  END

