
     RDKit          3D

 30 32  0  0  0  0  0  0  0  0999 V2000
    0.9207    0.3107   -0.2891 O   0  0  0  0  0  0  0  0  0  0  0  0
    2.1163    0.2456   -0.0345 C   0  0  0  0  0  0  0  0  0  0  0  0
    2.7523   -1.0097    0.3596 C   0  0  0  0  0  0  0  0  0  0  0  0
    4.0848   -1.1005    0.6437 C   0  0  0  0  0  0  0  0  0  0  0  0
    4.7940   -2.2068    1.0188 N   0  0  0  0  0  0  0  0  0  0  0  0
    4.3672   -3.5271    1.2080 C   0  0  0  0  0  0  0  0  0  0  0  0
    5.1192   -4.5902    0.6714 C   0  0  0  0  0  0  0  0  0  0  0  0
    4.7379   -5.9140    0.8801 C   0  0  0  0  0  0  0  0  0  0  0  0
    3.5882   -6.2165    1.6170 C   0  0  0  0  0  0  0  0  0  0  0  0
    2.8448   -5.1721    2.1551 C   0  0  0  0  0  0  0  0  0  0  0  0
    1.7556   -5.4196    2.8847 F   0  0  0  0  0  0  0  0  0  0  0  0
    3.2332   -3.8406    1.9751 C   0  0  0  0  0  0  0  0  0  0  0  0
    2.5250   -2.8774    2.5692 F   0  0  0  0  0  0  0  0  0  0  0  0
    4.9882    0.1036    0.5069 C   0  0  0  0  0  0  0  0  0  0  0  0
    6.1884   -0.0266    0.6974 O   0  0  0  0  0  0  0  0  0  0  0  0
    4.3671    1.3955    0.1332 C   0  0  0  0  0  0  0  0  0  0  0  0
    5.1658    2.5443    0.0340 C   0  0  0  0  0  0  0  0  0  0  0  0
    4.5878    3.7643   -0.3174 C   0  0  0  0  0  0  0  0  0  0  0  0
    3.2126    3.8396   -0.5742 C   0  0  0  0  0  0  0  0  0  0  0  0
    2.4143    2.6969   -0.4804 C   0  0  0  0  0  0  0  0  0  0  0  0
    2.9841    1.4708   -0.1258 C   0  0  0  0  0  0  0  0  0  0  0  0
    2.0845   -1.8674    0.4228 H   0  0  0  0  0  0  0  0  0  0  0  0
    5.7998   -2.0342    1.0129 H   0  0  0  0  0  0  0  0  0  0  0  0
    6.0046   -4.3552    0.0768 H   0  0  0  0  0  0  0  0  0  0  0  0
    5.3346   -6.7226    0.4530 H   0  0  0  0  0  0  0  0  0  0  0  0
    3.2578   -7.2424    1.7874 H   0  0  0  0  0  0  0  0  0  0  0  0
    6.2348    2.4575    0.2375 H   0  0  0  0  0  0  0  0  0  0  0  0
    5.2085    4.6605   -0.3926 H   0  0  0  0  0  0  0  0  0  0  0  0
    2.7621    4.7965   -0.8502 H   0  0  0  0  0  0  0  0  0  0  0  0
    1.3411    2.7262   -0.6787 H   0  0  0  0  0  0  0  0  0  0  0  0
  1  2  2  0
  2  3  1  0
  2 21  1  0
  3  4  2  0
  3 22  1  0
  4  5  1  0
  4 14  1  0
  5  6  1  0
  5 23  1  0
  6  7  2  0
  6 12  1  0
  7  8  1  0
  7 24  1  0
  8  9  2  0
  8 25  1  0
  9 10  1  0
  9 26  1  0
 10 11  1  0
 10 12  2  0
 12 13  1  0
 14 15  2  0
 14 16  1  0
 16 17  1  0
 16 21  2  0
 17 18  2  0
 17 27  1  0
 18 19  1  0
 18 28  1  0
 19 20  2  0
 19 29  1  0
 20 21  1  0
 20 30  1  0
M  END

