
     RDKit          3D

 54 53  0  0  0  0  0  0  0  0999 V2000
    2.8673   -0.3949    1.1224 C   0  0  0  0  0  0  0  0  0  0  0  0
    2.3210   -0.6500   -0.2836 C   0  0  0  0  0  0  0  0  0  0  0  0
    3.2344   -0.1460   -1.4033 C   0  0  0  0  0  0  0  0  0  0  0  0
    4.5165   -0.9338   -1.5539 C   0  0  0  0  0  0  0  0  0  0  0  0
    4.6989   -2.0558   -1.1268 O   0  0  0  0  0  0  0  0  0  0  0  0
    5.4304   -0.2547   -2.2630 O   0  0  0  0  0  0  0  0  0  0  0  0
    6.7322   -0.8265   -2.4872 C   0  0  0  0  0  0  0  0  0  0  0  0
    6.9118   -1.4501   -3.8945 C   0  0  1  0  0  0  0  0  0  0  0  0
    6.3841   -2.9076   -3.9734 C   0  0  0  0  0  0  0  0  0  0  0  0
    5.0058   -3.0385   -3.7323 O   0  0  0  0  0  0  0  0  0  0  0  0
    6.1861   -0.5689   -4.9213 C   0  0  0  0  0  0  0  0  0  0  0  0
    6.5373   -1.0158   -6.2381 O   0  0  0  0  0  0  0  0  0  0  0  0
    5.9129   -0.4079   -7.2725 C   0  0  0  0  0  0  0  0  0  0  0  0
    5.1144    0.4830   -7.1246 O   0  0  0  0  0  0  0  0  0  0  0  0
    6.3534   -0.9946   -8.5968 C   0  0  0  0  0  0  0  0  0  0  0  0
    5.7097   -0.3228   -9.8083 C   0  0  0  0  0  0  0  0  0  0  0  0
    6.1601   -0.9348  -11.1346 C   0  0  0  0  0  0  0  0  0  0  0  0
    8.4153   -1.4487   -4.2109 C   0  0  0  0  0  0  0  0  0  0  0  0
    9.1151   -2.1141   -3.1476 O   0  0  0  0  0  0  0  0  0  0  0  0
   10.4626   -2.1926   -3.2652 C   0  0  0  0  0  0  0  0  0  0  0  0
   11.0610   -1.7294   -4.2033 O   0  0  0  0  0  0  0  0  0  0  0  0
   11.0846   -2.9099   -2.0847 C   0  0  0  0  0  0  0  0  0  0  0  0
   10.5485   -4.3324   -1.8526 C   0  0  0  0  0  0  0  0  0  0  0  0
   10.8144   -5.2905   -3.0145 C   0  0  0  0  0  0  0  0  0  0  0  0
    2.1682   -0.7606    1.8910 H   0  0  0  0  0  0  0  0  0  0  0  0
    3.0263    0.6817    1.3033 H   0  0  0  0  0  0  0  0  0  0  0  0
    3.8276   -0.9117    1.2770 H   0  0  0  0  0  0  0  0  0  0  0  0
    1.3392   -0.1604   -0.3956 H   0  0  0  0  0  0  0  0  0  0  0  0
    2.1518   -1.7296   -0.4260 H   0  0  0  0  0  0  0  0  0  0  0  0
    3.4907    0.9192   -1.2834 H   0  0  0  0  0  0  0  0  0  0  0  0
    2.7256   -0.2208   -2.3818 H   0  0  0  0  0  0  0  0  0  0  0  0
    6.9469   -1.5654   -1.7046 H   0  0  0  0  0  0  0  0  0  0  0  0
    7.4227    0.0221   -2.3725 H   0  0  0  0  0  0  0  0  0  0  0  0
    6.9836   -3.5348   -3.2884 H   0  0  0  0  0  0  0  0  0  0  0  0
    6.5697   -3.2724   -4.9964 H   0  0  0  0  0  0  0  0  0  0  0  0
    4.8626   -3.0316   -2.7717 H   0  0  0  0  0  0  0  0  0  0  0  0
    6.4621    0.4932   -4.8120 H   0  0  0  0  0  0  0  0  0  0  0  0
    5.0995   -0.6476   -4.7866 H   0  0  0  0  0  0  0  0  0  0  0  0
    6.1275   -2.0757   -8.5704 H   0  0  0  0  0  0  0  0  0  0  0  0
    7.4554   -0.9335   -8.6396 H   0  0  0  0  0  0  0  0  0  0  0  0
    5.9437    0.7546   -9.7875 H   0  0  0  0  0  0  0  0  0  0  0  0
    4.6132   -0.3865   -9.7119 H   0  0  0  0  0  0  0  0  0  0  0  0
    7.2517   -0.8508  -11.2690 H   0  0  0  0  0  0  0  0  0  0  0  0
    5.6812   -0.4315  -11.9891 H   0  0  0  0  0  0  0  0  0  0  0  0
    5.9032   -2.0059  -11.1935 H   0  0  0  0  0  0  0  0  0  0  0  0
    8.7998   -0.4193   -4.3062 H   0  0  0  0  0  0  0  0  0  0  0  0
    8.6203   -1.9580   -5.1631 H   0  0  0  0  0  0  0  0  0  0  0  0
   10.8945   -2.2961   -1.1873 H   0  0  0  0  0  0  0  0  0  0  0  0
   12.1704   -2.9189   -2.2597 H   0  0  0  0  0  0  0  0  0  0  0  0
    9.4665   -4.2791   -1.6486 H   0  0  0  0  0  0  0  0  0  0  0  0
   11.0154   -4.7259   -0.9338 H   0  0  0  0  0  0  0  0  0  0  0  0
   10.3229   -4.9530   -3.9422 H   0  0  0  0  0  0  0  0  0  0  0  0
   10.4350   -6.2998   -2.7903 H   0  0  0  0  0  0  0  0  0  0  0  0
   11.8930   -5.3771   -3.2262 H   0  0  0  0  0  0  0  0  0  0  0  0
  1  2  1  0
  1 25  1  0
  1 26  1  0
  1 27  1  0
  2  3  1  0
  2 28  1  0
  2 29  1  0
  3  4  1  0
  3 30  1  0
  3 31  1  0
  4  5  2  0
  4  6  1  0
  6  7  1  0
  8  7  1  1
  7 32  1  0
  7 33  1  0
  8  9  1  0
  8 11  1  0
  8 18  1  0
  9 10  1  0
  9 34  1  0
  9 35  1  0
 10 36  1  0
 11 12  1  0
 11 37  1  0
 11 38  1  0
 12 13  1  0
 13 14  2  0
 13 15  1  0
 15 16  1  0
 15 39  1  0
 15 40  1  0
 16 17  1  0
 16 41  1  0
 16 42  1  0
 17 43  1  0
 17 44  1  0
 17 45  1  0
 18 19  1  0
 18 46  1  0
 18 47  1  0
 19 20  1  0
 20 21  2  0
 20 22  1  0
 22 23  1  0
 22 48  1  0
 22 49  1  0
 23 24  1  0
 23 50  1  0
 23 51  1  0
 24 52  1  0
 24 53  1  0
 24 54  1  0
M  END

