
     RDKit          3D

 50 52  0  0  0  0  0  0  0  0999 V2000
    1.8461    0.3887   -1.5468 C   0  0  0  0  0  0  0  0  0  0  0  0
    3.2043    0.0949   -1.3001 O   0  0  0  0  0  0  0  0  0  0  0  0
    3.6014   -1.1971   -1.2292 C   0  0  0  0  0  0  0  0  0  0  0  0
    2.7626   -2.3051   -1.4086 C   0  0  0  0  0  0  0  0  0  0  0  0
    3.2668   -3.6083   -1.3302 C   0  0  0  0  0  0  0  0  0  0  0  0
    4.6171   -3.8124   -1.0507 C   0  0  0  0  0  0  0  0  0  0  0  0
    5.2021   -5.1293   -1.0405 N   0  0  0  0  0  0  0  0  0  0  0  0
    6.3285   -5.2467   -1.7444 N   0  0  0  0  0  0  0  0  0  0  0  0
    7.0020   -6.3565   -1.8224 C   0  0  0  0  0  0  0  0  0  0  0  0
    8.2791   -6.2761   -2.6455 C   0  0  0  0  0  0  0  0  0  0  0  0
    9.0621   -7.1997   -2.7401 O   0  0  0  0  0  0  0  0  0  0  0  0
    8.4406   -5.0469   -3.2442 N   0  0  0  0  0  0  0  0  0  0  0  0
    9.5060   -4.5931   -4.0226 C   0  0  0  0  0  0  0  0  0  0  0  0
   10.6200   -5.3548   -4.4108 C   0  0  0  0  0  0  0  0  0  0  0  0
   11.6252   -4.7807   -5.1957 C   0  0  0  0  0  0  0  0  0  0  0  0
   11.5704   -3.4475   -5.6235 C   0  0  0  0  0  0  0  0  0  0  0  0
   12.6563   -2.8379   -6.4758 C   0  0  0  0  0  0  0  0  0  0  0  0
   10.4562   -2.6829   -5.2341 C   0  0  0  0  0  0  0  0  0  0  0  0
    9.4645   -3.2541   -4.4566 C   0  0  0  0  0  0  0  0  0  0  0  0
    8.3947   -2.5084   -4.0841 F   0  0  0  0  0  0  0  0  0  0  0  0
    6.5565   -7.6209   -1.1546 C   0  0  0  0  0  0  0  0  0  0  0  0
    7.1124   -8.7012   -1.2538 O   0  0  0  0  0  0  0  0  0  0  0  0
    5.3536   -7.4078   -0.3542 C   0  0  0  0  0  0  0  0  0  0  0  0
    4.7137   -6.2014   -0.3071 C   0  0  0  0  0  0  0  0  0  0  0  0
    3.6226   -5.8970    0.4038 O   0  0  0  0  0  0  0  0  0  0  0  0
    3.0617   -6.8868    1.2539 C   0  0  0  0  0  0  0  0  0  0  0  0
    5.4636   -2.7124   -0.8558 C   0  0  0  0  0  0  0  0  0  0  0  0
    4.9757   -1.4131   -0.9490 C   0  0  0  0  0  0  0  0  0  0  0  0
    5.8170   -0.3662   -0.7218 O   0  0  0  0  0  0  0  0  0  0  0  0
    6.2371    0.3642   -1.8686 C   0  0  0  0  0  0  0  0  0  0  0  0
    1.7585    1.4831   -1.5443 H   0  0  0  0  0  0  0  0  0  0  0  0
    1.1900   -0.0251   -0.7603 H   0  0  0  0  0  0  0  0  0  0  0  0
    1.5140    0.0044   -2.5280 H   0  0  0  0  0  0  0  0  0  0  0  0
    1.7039   -2.1649   -1.6264 H   0  0  0  0  0  0  0  0  0  0  0  0
    2.6016   -4.4553   -1.4950 H   0  0  0  0  0  0  0  0  0  0  0  0
    7.7016   -4.3752   -3.0567 H   0  0  0  0  0  0  0  0  0  0  0  0
   10.6803   -6.3913   -4.0862 H   0  0  0  0  0  0  0  0  0  0  0  0
   12.4805   -5.3987   -5.4818 H   0  0  0  0  0  0  0  0  0  0  0  0
   13.4759   -3.5502   -6.6502 H   0  0  0  0  0  0  0  0  0  0  0  0
   13.0863   -1.9398   -6.0012 H   0  0  0  0  0  0  0  0  0  0  0  0
   12.2687   -2.5261   -7.4608 H   0  0  0  0  0  0  0  0  0  0  0  0
   10.3483   -1.6364   -5.5295 H   0  0  0  0  0  0  0  0  0  0  0  0
    4.9850   -8.2647    0.2067 H   0  0  0  0  0  0  0  0  0  0  0  0
    2.2059   -6.4115    1.7488 H   0  0  0  0  0  0  0  0  0  0  0  0
    3.7903   -7.2174    2.0122 H   0  0  0  0  0  0  0  0  0  0  0  0
    2.7157   -7.7596    0.6759 H   0  0  0  0  0  0  0  0  0  0  0  0
    6.5231   -2.8526   -0.6415 H   0  0  0  0  0  0  0  0  0  0  0  0
    6.9041    1.1600   -1.5092 H   0  0  0  0  0  0  0  0  0  0  0  0
    5.3822    0.8209   -2.3939 H   0  0  0  0  0  0  0  0  0  0  0  0
    6.7949   -0.2844   -2.5682 H   0  0  0  0  0  0  0  0  0  0  0  0
  1  2  1  0
  1 31  1  0
  1 32  1  0
  1 33  1  0
  2  3  1  0
  3  4  2  0
  3 28  1  0
  4  5  1  0
  4 34  1  0
  5  6  2  0
  5 35  1  0
  6  7  1  0
  6 27  1  0
  7  8  1  0
  7 24  1  0
  8  9  2  0
  9 10  1  0
  9 21  1  0
 10 11  2  0
 10 12  1  0
 12 13  1  0
 12 36  1  0
 13 14  2  0
 13 19  1  0
 14 15  1  0
 14 37  1  0
 15 16  2  0
 15 38  1  0
 16 17  1  0
 16 18  1  0
 17 39  1  0
 17 40  1  0
 17 41  1  0
 18 19  2  0
 18 42  1  0
 19 20  1  0
 21 22  2  0
 21 23  1  0
 23 24  2  0
 23 43  1  0
 24 25  1  0
 25 26  1  0
 26 44  1  0
 26 45  1  0
 26 46  1  0
 27 28  2  0
 27 47  1  0
 28 29  1  0
 29 30  1  0
 30 48  1  0
 30 49  1  0
 30 50  1  0
M  END

