
     RDKit          3D

 58 59  0  0  0  0  0  0  0  0999 V2000
    0.8194    1.2715   -1.1436 C   0  0  0  0  0  0  0  0  0  0  0  0
    2.2492    1.7251   -1.3655 C   0  0  0  0  0  0  0  0  0  0  0  0
    3.0687    0.5694   -1.4829 O   0  0  0  0  0  0  0  0  0  0  0  0
    4.4117    0.7141   -1.6339 C   0  0  0  0  0  0  0  0  0  0  0  0
    5.0548    1.9471   -1.7432 C   0  0  0  0  0  0  0  0  0  0  0  0
    6.4570    2.0022   -1.8425 C   0  0  0  0  0  0  0  0  0  0  0  0
    7.0771    3.3439   -1.9805 C   0  0  0  0  0  0  0  0  0  0  0  0
    6.4733    4.3919   -1.9605 O   0  0  0  0  0  0  0  0  0  0  0  0
    8.4311    3.2883   -2.1440 O   0  0  0  0  0  0  0  0  0  0  0  0
    9.1309    4.5342   -2.2504 C   0  0  1  0  0  0  0  0  0  0  0  0
    9.5194    5.0657   -0.8741 C   0  0  0  0  0  0  0  0  0  0  0  0
   10.3632    4.3744   -3.1519 C   0  0  0  0  0  0  0  0  0  0  0  0
   11.1193    5.3176   -3.2905 O   0  0  0  0  0  0  0  0  0  0  0  0
   10.5027    3.1407   -3.7498 N   0  0  0  0  0  0  0  0  0  0  0  0
   11.5100    2.7088   -4.6069 C   0  0  0  0  0  0  0  0  0  0  0  0
   12.5230    3.5852   -5.0619 C   0  0  0  0  0  0  0  0  0  0  0  0
   13.5251    3.1485   -5.9203 C   0  0  0  0  0  0  0  0  0  0  0  0
   13.5739    1.8210   -6.3660 C   0  0  0  0  0  0  0  0  0  0  0  0
   12.6008    0.9342   -5.9323 C   0  0  0  0  0  0  0  0  0  0  0  0
   11.5805    1.3594   -5.0672 C   0  0  0  0  0  0  0  0  0  0  0  0
   10.6140    0.3305   -4.6699 N   0  0  0  0  0  0  0  0  0  0  0  0
    9.6324    0.6655   -4.0042 O   0  0  0  0  0  0  0  0  0  0  0  0
   10.8175   -0.8203   -5.0173 O   0  0  0  0  0  0  0  0  0  0  0  0
    7.2108    0.8285   -1.8222 C   0  0  0  0  0  0  0  0  0  0  0  0
    6.5751   -0.4163   -1.7328 C   0  0  0  0  0  0  0  0  0  0  0  0
    7.3731   -1.5112   -1.6819 O   0  0  0  0  0  0  0  0  0  0  0  0
    7.1521   -2.6099   -2.5716 C   0  0  0  0  0  0  0  0  0  0  0  0
    8.5036   -3.1579   -2.9930 C   0  0  0  0  0  0  0  0  0  0  0  0
    5.1684   -0.4907   -1.6435 C   0  0  0  0  0  0  0  0  0  0  0  0
    4.5874   -1.7077   -1.4740 O   0  0  0  0  0  0  0  0  0  0  0  0
    3.6268   -2.1670   -2.4344 C   0  0  0  0  0  0  0  0  0  0  0  0
    3.0629   -3.4824   -1.9367 C   0  0  0  0  0  0  0  0  0  0  0  0
    0.1596    2.1454   -1.0292 H   0  0  0  0  0  0  0  0  0  0  0  0
    0.7432    0.6561   -0.2343 H   0  0  0  0  0  0  0  0  0  0  0  0
    0.4581    0.6756   -1.9959 H   0  0  0  0  0  0  0  0  0  0  0  0
    2.6003    2.3457   -0.5205 H   0  0  0  0  0  0  0  0  0  0  0  0
    2.3294    2.3397   -2.2815 H   0  0  0  0  0  0  0  0  0  0  0  0
    4.5029    2.8850   -1.7468 H   0  0  0  0  0  0  0  0  0  0  0  0
    8.4703    5.2636   -2.7466 H   0  0  0  0  0  0  0  0  0  0  0  0
   10.1152    4.3199   -0.3254 H   0  0  0  0  0  0  0  0  0  0  0  0
    8.6141    5.2990   -0.2966 H   0  0  0  0  0  0  0  0  0  0  0  0
   10.1159    5.9805   -0.9924 H   0  0  0  0  0  0  0  0  0  0  0  0
    9.7927    2.4398   -3.5316 H   0  0  0  0  0  0  0  0  0  0  0  0
   12.4950    4.6145   -4.7148 H   0  0  0  0  0  0  0  0  0  0  0  0
   14.2842    3.8632   -6.2482 H   0  0  0  0  0  0  0  0  0  0  0  0
   14.3623    1.4843   -7.0417 H   0  0  0  0  0  0  0  0  0  0  0  0
   12.5982   -0.1090   -6.2443 H   0  0  0  0  0  0  0  0  0  0  0  0
    8.2949    0.8396   -1.9016 H   0  0  0  0  0  0  0  0  0  0  0  0
    6.5846   -2.2645   -3.4539 H   0  0  0  0  0  0  0  0  0  0  0  0
    6.5471   -3.3776   -2.0613 H   0  0  0  0  0  0  0  0  0  0  0  0
    9.0813   -2.3979   -3.5404 H   0  0  0  0  0  0  0  0  0  0  0  0
    8.3715   -4.0379   -3.6435 H   0  0  0  0  0  0  0  0  0  0  0  0
    9.0846   -3.4683   -2.1104 H   0  0  0  0  0  0  0  0  0  0  0  0
    4.1291   -2.2957   -3.4119 H   0  0  0  0  0  0  0  0  0  0  0  0
    2.8295   -1.4200   -2.5575 H   0  0  0  0  0  0  0  0  0  0  0  0
    3.8560   -4.2368   -1.8175 H   0  0  0  0  0  0  0  0  0  0  0  0
    2.3191   -3.8705   -2.6505 H   0  0  0  0  0  0  0  0  0  0  0  0
    2.5712   -3.3451   -0.9614 H   0  0  0  0  0  0  0  0  0  0  0  0
  1  2  1  0
  1 33  1  0
  1 34  1  0
  1 35  1  0
  2  3  1  0
  2 36  1  0
  2 37  1  0
  3  4  1  0
  4  5  2  0
  4 29  1  0
  5  6  1  0
  5 38  1  0
  6  7  1  0
  6 24  2  0
  7  8  2  0
  7  9  1  0
  9 10  1  0
 10 11  1  0
 10 12  1  0
 10 39  1  6
 11 40  1  0
 11 41  1  0
 11 42  1  0
 12 13  2  0
 12 14  1  0
 14 15  1  0
 14 43  1  0
 15 16  2  0
 15 20  1  0
 16 17  1  0
 16 44  1  0
 17 18  2  0
 17 45  1  0
 18 19  1  0
 18 46  1  0
 19 20  2  0
 19 47  1  0
 20 21  1  0
 21 22  1  0
 21 23  1  0
 24 25  1  0
 24 48  1  0
 25 26  2  0
 25 29  1  0
 26 27  1  0
 27 28  1  0
 27 49  1  0
 27 50  1  0
 28 51  1  0
 28 52  1  0
 28 53  1  0
 29 30  2  0
 30 31  1  0
 31 32  1  0
 31 54  1  0
 31 55  1  0
 32 56  1  0
 32 57  1  0
 32 58  1  0
M  CHG  4  22  -1  23  -1  26   1  30   1
M  END

