
     RDKit          3D

 53 56  0  0  0  0  0  0  0  0999 V2000
    0.9135    0.2206    0.2520 C   0  0  0  0  0  0  0  0  0  0  0  0
    2.4370    0.1985    0.1087 C   0  0  0  0  0  0  0  0  0  0  0  0
    2.9481    0.8033   -1.2035 C   0  0  1  0  0  0  0  0  0  0  0  0
    2.6023    2.2984   -1.3797 C   0  0  0  0  0  0  0  0  0  0  0  0
    3.6503    2.7716   -2.2644 N   0  0  0  0  0  0  0  0  0  0  0  0
    3.4237    3.7441   -3.2006 C   0  0  0  0  0  0  0  0  0  0  0  0
    2.3697    4.3677   -3.2353 O   0  0  0  0  0  0  0  0  0  0  0  0
    4.4987    3.9589   -4.2335 C   0  0  0  0  0  0  0  0  0  0  0  0
    5.0458    2.8399   -4.9433 C   0  0  0  0  0  0  0  0  0  0  0  0
    5.9137    2.9303   -5.9240 N   0  0  0  0  0  0  0  0  0  0  0  0
    6.3153    4.1672   -6.2710 C   0  0  0  0  0  0  0  0  0  0  0  0
    7.2071    4.6572   -7.2221 C   0  0  0  0  0  0  0  0  0  0  0  0
    7.1677    6.0618   -7.0784 C   0  0  0  0  0  0  0  0  0  0  0  0
    7.9322    7.0884   -7.8549 C   0  0  0  0  0  0  0  0  0  0  0  0
    6.3201    6.4499   -6.1130 N   0  0  0  0  0  0  0  0  0  0  0  0
    5.8035    5.3103   -5.6221 N   0  0  0  0  0  0  0  0  0  0  0  0
    4.8819    5.2386   -4.6141 C   0  0  0  0  0  0  0  0  0  0  0  0
    4.4155    6.5357   -4.0399 C   0  0  0  0  0  0  0  0  0  0  0  0
    4.8957    2.1596   -1.8282 C   0  0  0  0  0  0  0  0  0  0  0  0
    4.4987    0.7181   -1.4031 C   0  0  2  0  0  0  0  0  0  0  0  0
    4.8976   -0.2544   -2.4351 N   0  0  0  0  0  0  0  0  0  0  0  0
    6.3493   -0.4041   -2.6139 C   0  0  0  0  0  0  0  0  0  0  0  0
    6.9923   -1.3494   -1.5939 C   0  0  0  0  0  0  0  0  0  0  0  0
    6.3702   -2.6196   -1.6128 O   0  0  0  0  0  0  0  0  0  0  0  0
    4.9799   -2.5258   -1.3695 C   0  0  0  0  0  0  0  0  0  0  0  0
    4.3033   -1.5956   -2.3818 C   0  0  0  0  0  0  0  0  0  0  0  0
    0.5956   -0.2477    1.1968 H   0  0  0  0  0  0  0  0  0  0  0  0
    0.4264   -0.3278   -0.5717 H   0  0  0  0  0  0  0  0  0  0  0  0
    0.5152    1.2480    0.2442 H   0  0  0  0  0  0  0  0  0  0  0  0
    2.7949   -0.8419    0.1934 H   0  0  0  0  0  0  0  0  0  0  0  0
    2.8976    0.7412    0.9547 H   0  0  0  0  0  0  0  0  0  0  0  0
    2.4819    0.2795   -2.0525 H   0  0  0  0  0  0  0  0  0  0  0  0
    2.6383    2.8320   -0.4081 H   0  0  0  0  0  0  0  0  0  0  0  0
    1.6191    2.4900   -1.8265 H   0  0  0  0  0  0  0  0  0  0  0  0
    4.7127    1.8322   -4.6669 H   0  0  0  0  0  0  0  0  0  0  0  0
    7.7939    4.0630   -7.9168 H   0  0  0  0  0  0  0  0  0  0  0  0
    9.0192    6.9380   -7.7520 H   0  0  0  0  0  0  0  0  0  0  0  0
    7.6812    8.0952   -7.4942 H   0  0  0  0  0  0  0  0  0  0  0  0
    7.6953    7.0315   -8.9299 H   0  0  0  0  0  0  0  0  0  0  0  0
    5.2778    7.1084   -3.6629 H   0  0  0  0  0  0  0  0  0  0  0  0
    3.6708    6.3773   -3.2548 H   0  0  0  0  0  0  0  0  0  0  0  0
    3.9714    7.1498   -4.8393 H   0  0  0  0  0  0  0  0  0  0  0  0
    5.2898    2.7097   -0.9515 H   0  0  0  0  0  0  0  0  0  0  0  0
    5.6622    2.1894   -2.6071 H   0  0  0  0  0  0  0  0  0  0  0  0
    4.9722    0.5027   -0.4223 H   0  0  0  0  0  0  0  0  0  0  0  0
    6.8466    0.5765   -2.5796 H   0  0  0  0  0  0  0  0  0  0  0  0
    6.5253   -0.8150   -3.6238 H   0  0  0  0  0  0  0  0  0  0  0  0
    6.9424   -0.9147   -0.5727 H   0  0  0  0  0  0  0  0  0  0  0  0
    8.0553   -1.5083   -1.8344 H   0  0  0  0  0  0  0  0  0  0  0  0
    4.7970   -2.1728   -0.3321 H   0  0  0  0  0  0  0  0  0  0  0  0
    4.5708   -3.5454   -1.4508 H   0  0  0  0  0  0  0  0  0  0  0  0
    3.2247   -1.5373   -2.1815 H   0  0  0  0  0  0  0  0  0  0  0  0
    4.4154   -2.0460   -3.3843 H   0  0  0  0  0  0  0  0  0  0  0  0
  1  2  1  0
  1 27  1  0
  1 28  1  0
  1 29  1  0
  2  3  1  0
  2 30  1  0
  2 31  1  0
  3  4  1  0
  3 20  1  0
  3 32  1  6
  4  5  1  0
  4 33  1  0
  4 34  1  0
  5  6  1  0
  5 19  1  0
  6  7  2  0
  6  8  1  0
  8  9  1  0
  8 17  2  0
  9 10  2  0
  9 35  1  0
 10 11  1  0
 11 12  2  0
 11 16  1  0
 12 13  1  0
 12 36  1  0
 13 14  1  0
 13 15  2  0
 14 37  1  0
 14 38  1  0
 14 39  1  0
 15 16  1  0
 16 17  1  0
 17 18  1  0
 18 40  1  0
 18 41  1  0
 18 42  1  0
 19 20  1  0
 19 43  1  0
 19 44  1  0
 20 21  1  0
 20 45  1  1
 21 22  1  0
 21 26  1  0
 22 23  1  0
 22 46  1  0
 22 47  1  0
 23 24  1  0
 23 48  1  0
 23 49  1  0
 24 25  1  0
 25 26  1  0
 25 50  1  0
 25 51  1  0
 26 52  1  0
 26 53  1  0
M  END

