
     RDKit          3D

 72 77  0  0  0  0  0  0  0  0999 V2000
    2.4382    1.4360    4.0337 C   0  0  0  0  0  0  0  0  0  0  0  0
    3.4629    1.0391    2.9993 C   0  0  0  0  0  0  0  0  0  0  0  0
    4.7407    0.5950    3.3717 C   0  0  0  0  0  0  0  0  0  0  0  0
    5.6853    0.2378    2.4078 C   0  0  0  0  0  0  0  0  0  0  0  0
    5.3591    0.3190    1.0499 C   0  0  0  0  0  0  0  0  0  0  0  0
    6.3620   -0.0029    0.0669 N   0  0  0  0  0  0  0  0  0  0  0  0
    6.7610   -1.2368   -0.2522 C   0  0  0  0  0  0  0  0  0  0  0  0
    6.0947   -2.4849    0.1185 C   0  0  0  0  0  0  0  0  0  0  0  0
    6.8553   -3.4113    0.8678 C   0  0  0  0  0  0  0  0  0  0  0  0
    6.2784   -4.5626    1.3845 C   0  0  0  0  0  0  0  0  0  0  0  0
    4.9127   -4.8003    1.1432 C   0  0  0  0  0  0  0  0  0  0  0  0
    4.1654   -3.9293    0.3674 C   0  0  0  0  0  0  0  0  0  0  0  0
    4.7256   -2.7576   -0.2178 C   0  0  0  0  0  0  0  0  0  0  0  0
    3.9282   -1.9959   -1.0168 N   0  0  0  0  0  0  0  0  0  0  0  0
    4.3731   -1.3693   -2.4128 S   0  0  1  0  0  0  0  0  0  0  0  0
    3.7634   -0.0278   -2.5751 O   0  0  0  0  0  0  0  0  0  0  0  0
    5.8433   -1.4620   -2.6863 O   0  0  0  0  0  0  0  0  0  0  0  0
    3.5899   -2.4046   -3.6630 C   0  0  0  0  0  0  0  0  0  0  0  0
    2.2408   -2.2069   -3.9659 C   0  0  0  0  0  0  0  0  0  0  0  0
    1.6203   -3.0356   -4.9029 C   0  0  0  0  0  0  0  0  0  0  0  0
    2.3266   -4.0621   -5.5504 C   0  0  0  0  0  0  0  0  0  0  0  0
    1.6581   -4.9546   -6.5678 C   0  0  0  0  0  0  0  0  0  0  0  0
    3.6848   -4.2335   -5.2326 C   0  0  0  0  0  0  0  0  0  0  0  0
    4.3189   -3.4142   -4.2977 C   0  0  0  0  0  0  0  0  0  0  0  0
    7.9707   -1.2158   -0.8423 N   0  0  0  0  0  0  0  0  0  0  0  0
    8.1724   -1.9891   -1.4698 H   0  0  0  0  0  0  0  0  0  0  0  0
    8.2893    0.1464   -1.2885 C   0  0  2  0  0  0  0  0  0  0  0  0
    9.7622    0.4902   -1.2672 C   0  0  0  0  0  0  0  0  0  0  0  0
   10.2839    1.3566   -2.2391 C   0  0  0  0  0  0  0  0  0  0  0  0
   11.6326    1.7222   -2.2149 C   0  0  0  0  0  0  0  0  0  0  0  0
   12.4779    1.2191   -1.2220 C   0  0  0  0  0  0  0  0  0  0  0  0
   11.9674    0.3495   -0.2528 C   0  0  0  0  0  0  0  0  0  0  0  0
   10.6177   -0.0105   -0.2737 C   0  0  0  0  0  0  0  0  0  0  0  0
    7.4058    0.9917   -0.3222 C   0  0  1  0  0  0  0  0  0  0  0  0
    6.8973    2.2939   -0.8974 C   0  0  0  0  0  0  0  0  0  0  0  0
    5.9711    2.3190   -1.9532 C   0  0  0  0  0  0  0  0  0  0  0  0
    5.5582    3.5414   -2.4888 C   0  0  0  0  0  0  0  0  0  0  0  0
    6.0669    4.7448   -1.9887 C   0  0  0  0  0  0  0  0  0  0  0  0
    6.9883    4.7248   -0.9385 C   0  0  0  0  0  0  0  0  0  0  0  0
    7.3969    3.5041   -0.3940 C   0  0  0  0  0  0  0  0  0  0  0  0
    4.0895    0.7518    0.6529 C   0  0  0  0  0  0  0  0  0  0  0  0
    3.1586    1.1066    1.6296 C   0  0  0  0  0  0  0  0  0  0  0  0
    2.7907    1.2312    5.0553 H   0  0  0  0  0  0  0  0  0  0  0  0
    1.4909    0.8923    3.8856 H   0  0  0  0  0  0  0  0  0  0  0  0
    2.2040    2.5121    3.9683 H   0  0  0  0  0  0  0  0  0  0  0  0
    5.0020    0.5234    4.4310 H   0  0  0  0  0  0  0  0  0  0  0  0
    6.6758   -0.1098    2.7122 H   0  0  0  0  0  0  0  0  0  0  0  0
    7.9036   -3.1844    1.0798 H   0  0  0  0  0  0  0  0  0  0  0  0
    6.8709   -5.2573    1.9835 H   0  0  0  0  0  0  0  0  0  0  0  0
    4.4366   -5.6947    1.5556 H   0  0  0  0  0  0  0  0  0  0  0  0
    3.1153   -4.1296    0.1467 H   0  0  0  0  0  0  0  0  0  0  0  0
    1.6915   -1.4021   -3.4743 H   0  0  0  0  0  0  0  0  0  0  0  0
    0.5642   -2.8782   -5.1403 H   0  0  0  0  0  0  0  0  0  0  0  0
    0.5891   -4.7184   -6.6739 H   0  0  0  0  0  0  0  0  0  0  0  0
    1.7426   -6.0175   -6.2860 H   0  0  0  0  0  0  0  0  0  0  0  0
    2.1254   -4.8489   -7.5616 H   0  0  0  0  0  0  0  0  0  0  0  0
    4.2587   -5.0208   -5.7309 H   0  0  0  0  0  0  0  0  0  0  0  0
    5.3771   -3.5394   -4.0629 H   0  0  0  0  0  0  0  0  0  0  0  0
    7.8913    0.2666   -2.3098 H   0  0  0  0  0  0  0  0  0  0  0  0
    9.6273    1.7462   -3.0215 H   0  0  0  0  0  0  0  0  0  0  0  0
   12.0250    2.3980   -2.9789 H   0  0  0  0  0  0  0  0  0  0  0  0
   13.5341    1.4996   -1.2059 H   0  0  0  0  0  0  0  0  0  0  0  0
   12.6245   -0.0531    0.5224 H   0  0  0  0  0  0  0  0  0  0  0  0
   10.2243   -0.6966    0.4803 H   0  0  0  0  0  0  0  0  0  0  0  0
    7.9873    1.2169    0.5897 H   0  0  0  0  0  0  0  0  0  0  0  0
    5.5393    1.3941   -2.3425 H   0  0  0  0  0  0  0  0  0  0  0  0
    4.8266    3.5472   -3.3005 H   0  0  0  0  0  0  0  0  0  0  0  0
    5.7404    5.6978   -2.4133 H   0  0  0  0  0  0  0  0  0  0  0  0
    7.3872    5.6600   -0.5373 H   0  0  0  0  0  0  0  0  0  0  0  0
    8.1133    3.4918    0.4323 H   0  0  0  0  0  0  0  0  0  0  0  0
    3.8284    0.7719   -0.4062 H   0  0  0  0  0  0  0  0  0  0  0  0
    2.1643    1.4355    1.3147 H   0  0  0  0  0  0  0  0  0  0  0  0
  1  2  1  0
  1 43  1  0
  1 44  1  0
  1 45  1  0
  2  3  2  0
  2 42  1  0
  3  4  1  0
  3 46  1  0
  4  5  2  0
  4 47  1  0
  5  6  1  0
  5 41  1  0
  6  7  1  0
  6 34  1  0
  7  8  2  0
  7 25  1  0
  8  9  1  0
  8 13  1  0
  9 10  2  0
  9 48  1  0
 10 11  1  0
 10 49  1  0
 11 12  2  0
 11 50  1  0
 12 13  1  0
 12 51  1  0
 13 14  2  0
 15 14  1  1
 15 16  2  0
 15 17  2  0
 15 18  1  0
 18 19  2  0
 18 24  1  0
 19 20  1  0
 19 52  1  0
 20 21  2  0
 20 53  1  0
 21 22  1  0
 21 23  1  0
 22 54  1  0
 22 55  1  0
 22 56  1  0
 23 24  2  0
 23 57  1  0
 24 58  1  0
 25 26  1  0
 25 27  1  0
 27 28  1  0
 27 34  1  0
 27 59  1  6
 28 29  2  0
 28 33  1  0
 29 30  1  0
 29 60  1  0
 30 31  2  0
 30 61  1  0
 31 32  1  0
 31 62  1  0
 32 33  2  0
 32 63  1  0
 33 64  1  0
 34 35  1  0
 34 65  1  1
 35 36  2  0
 35 40  1  0
 36 37  1  0
 36 66  1  0
 37 38  2  0
 37 67  1  0
 38 39  1  0
 38 68  1  0
 39 40  2  0
 39 69  1  0
 40 70  1  0
 41 42  2  0
 41 71  1  0
 42 72  1  0
M  END

