
     RDKit          3D

 44 45  0  0  0  0  0  0  0  0999 V2000
    1.9069    4.0139    2.3277 C   0  0  0  0  0  0  0  0  0  0  0  0
    3.2722    3.3400    2.1902 C   0  0  0  0  0  0  0  0  0  0  0  0
    3.1789    1.8683    1.7447 C   0  0  0  0  0  0  0  0  0  0  0  0
    4.5175    1.1895    1.5870 C   0  0  0  0  0  0  0  0  0  0  0  0
    5.2851    1.2432    0.3833 C   0  0  0  0  0  0  0  0  0  0  0  0
    6.4967    0.5871    0.4567 C   0  0  0  0  0  0  0  0  0  0  0  0
    7.6479    0.4911   -0.4827 C   0  0  0  0  0  0  0  0  0  0  0  0
    8.7888    0.4316   -0.0389 O   0  0  0  0  0  0  0  0  0  0  0  0
    7.4010    0.5094   -1.8445 N   0  0  0  0  0  0  0  0  0  0  0  0
    8.5447    0.6132   -2.7451 C   0  0  0  0  0  0  0  0  0  0  0  0
    8.8195   -0.7018   -3.4915 C   0  0  2  0  0  0  0  0  0  0  0  0
    9.9983   -0.5617   -4.4558 C   0  0  0  0  0  0  0  0  0  0  0  0
    7.5422   -1.1662   -4.2095 C   0  0  0  0  0  0  0  0  0  0  0  0
    6.3362   -1.2219   -3.2493 C   0  0  2  0  0  0  0  0  0  0  0  0
    5.0341   -1.5984   -3.9550 C   0  0  0  0  0  0  0  0  0  0  0  0
    4.0302   -0.9401   -3.9123 O   0  0  0  0  0  0  0  0  0  0  0  0
    5.0587   -2.7564   -4.6539 O   0  0  0  0  0  0  0  0  0  0  0  0
    6.1613    0.1097   -2.4951 C   0  0  0  0  0  0  0  0  0  0  0  0
    6.7224   -0.0852    2.0464 S   0  0  0  0  0  0  0  0  0  0  0  0
    5.1721    0.4806    2.5819 C   0  0  0  0  0  0  0  0  0  0  0  0
    4.7126    0.2019    3.9836 C   0  0  0  0  0  0  0  0  0  0  0  0
    2.0061    5.0639    2.6457 H   0  0  0  0  0  0  0  0  0  0  0  0
    1.2771    3.4986    3.0724 H   0  0  0  0  0  0  0  0  0  0  0  0
    1.3572    4.0060    1.3715 H   0  0  0  0  0  0  0  0  0  0  0  0
    3.8152    3.3921    3.1502 H   0  0  0  0  0  0  0  0  0  0  0  0
    3.8932    3.8957    1.4659 H   0  0  0  0  0  0  0  0  0  0  0  0
    2.6343    1.8193    0.7856 H   0  0  0  0  0  0  0  0  0  0  0  0
    2.5604    1.3136    2.4711 H   0  0  0  0  0  0  0  0  0  0  0  0
    4.9460    1.7806   -0.5040 H   0  0  0  0  0  0  0  0  0  0  0  0
    9.4165    0.9045   -2.1475 H   0  0  0  0  0  0  0  0  0  0  0  0
    8.3383    1.4134   -3.4824 H   0  0  0  0  0  0  0  0  0  0  0  0
    9.0769   -1.4565   -2.7259 H   0  0  0  0  0  0  0  0  0  0  0  0
    9.7947    0.2011   -5.2267 H   0  0  0  0  0  0  0  0  0  0  0  0
   10.2067   -1.5114   -4.9745 H   0  0  0  0  0  0  0  0  0  0  0  0
   10.9148   -0.2628   -3.9229 H   0  0  0  0  0  0  0  0  0  0  0  0
    7.7240   -2.1497   -4.6797 H   0  0  0  0  0  0  0  0  0  0  0  0
    7.3131   -0.4680   -5.0360 H   0  0  0  0  0  0  0  0  0  0  0  0
    6.5339   -2.0117   -2.4986 H   0  0  0  0  0  0  0  0  0  0  0  0
    5.9300   -3.1733   -4.5930 H   0  0  0  0  0  0  0  0  0  0  0  0
    5.3594    0.0026   -1.7609 H   0  0  0  0  0  0  0  0  0  0  0  0
    5.8416    0.8870   -3.2116 H   0  0  0  0  0  0  0  0  0  0  0  0
    5.2165   -0.6791    4.4085 H   0  0  0  0  0  0  0  0  0  0  0  0
    3.6279    0.0136    4.0129 H   0  0  0  0  0  0  0  0  0  0  0  0
    4.9162    1.0530    4.6566 H   0  0  0  0  0  0  0  0  0  0  0  0
  1  2  1  0
  1 22  1  0
  1 23  1  0
  1 24  1  0
  2  3  1  0
  2 25  1  0
  2 26  1  0
  3  4  1  0
  3 27  1  0
  3 28  1  0
  4  5  1  0
  4 20  2  0
  5  6  2  0
  5 29  1  0
  6  7  1  0
  6 19  1  0
  7  8  2  0
  7  9  1  0
  9 10  1  0
  9 18  1  0
 10 11  1  0
 10 30  1  0
 10 31  1  0
 11 12  1  0
 11 13  1  0
 11 32  1  1
 12 33  1  0
 12 34  1  0
 12 35  1  0
 13 14  1  0
 13 36  1  0
 13 37  1  0
 14 15  1  0
 14 18  1  0
 14 38  1  1
 15 16  2  0
 15 17  1  0
 17 39  1  0
 18 40  1  0
 18 41  1  0
 19 20  1  0
 20 21  1  0
 21 42  1  0
 21 43  1  0
 21 44  1  0
M  END

