
     RDKit          3D

 85 92  0  0  0  0  0  0  0  0999 V2000
    2.4152    1.9602    1.0493 C   0  0  0  0  0  0  0  0  0  0  0  0
    2.4476    0.9255    2.1793 C   0  0  0  0  0  0  0  0  0  0  0  0
    3.1241   -0.3237    1.8384 N   0  0  0  0  0  0  0  0  0  0  0  0
    2.3707   -1.4059    1.1935 C   0  0  0  0  0  0  0  0  0  0  0  0
    0.8602   -1.3825    1.4024 C   0  0  0  0  0  0  0  0  0  0  0  0
    4.5032   -0.3946    1.8500 C   0  0  0  0  0  0  0  0  0  0  0  0
    5.3079    0.6467    2.3964 C   0  0  0  0  0  0  0  0  0  0  0  0
    6.6889    0.5484    2.4377 C   0  0  0  0  0  0  0  0  0  0  0  0
    7.3632   -0.5797    1.9291 C   0  0  0  0  0  0  0  0  0  0  0  0
    8.8228   -0.6768    1.9753 C   0  0  0  0  0  0  0  0  0  0  0  0
    9.5223    0.3487    2.4995 N   0  0  0  0  0  0  0  0  0  0  0  0
   10.8370    0.1936    2.5100 C   0  0  0  0  0  0  0  0  0  0  0  0
   11.6163    1.1611    3.0357 O   0  0  0  0  0  0  0  0  0  0  0  0
   11.1192    2.3828    3.4418 C   0  0  0  0  0  0  0  0  0  0  0  0
   11.4454    2.8003    4.7334 C   0  0  0  0  0  0  0  0  0  0  0  0
   11.0498    4.0638    5.1711 C   0  0  0  0  0  0  0  0  0  0  0  0
   10.3267    4.9232    4.3263 C   0  0  0  0  0  0  0  0  0  0  0  0
    9.8854    6.2589    4.7430 C   0  0  0  0  0  0  0  0  0  0  0  0
    9.1219    7.0546    4.0272 N   0  0  0  0  0  0  0  0  0  0  0  0
    8.9536    8.1941    4.7805 C   0  0  0  0  0  0  0  0  0  0  0  0
    8.2322    9.3602    4.4990 C   0  0  0  0  0  0  0  0  0  0  0  0
    8.2474   10.3589    5.4694 C   0  0  0  0  0  0  0  0  0  0  0  0
    7.4968   11.6027    5.2080 N   0  0  0  0  0  0  0  0  0  0  0  0
    6.8956   11.6905    4.1488 O   0  0  0  0  0  0  0  0  0  0  0  0
    7.5203   12.4714    6.0670 O   0  0  0  0  0  0  0  0  0  0  0  0
    8.9424   10.2446    6.6905 C   0  0  0  0  0  0  0  0  0  0  0  0
    9.6613    9.0895    6.9794 C   0  0  0  0  0  0  0  0  0  0  0  0
    9.6553    8.0744    6.0144 C   0  0  0  0  0  0  0  0  0  0  0  0
   10.2361    6.8301    5.9585 N   0  0  0  0  0  0  0  0  0  0  0  0
   10.8345    6.4209    6.6635 H   0  0  0  0  0  0  0  0  0  0  0  0
   10.0128    4.4829    3.0254 C   0  0  0  0  0  0  0  0  0  0  0  0
   10.4061    3.2257    2.5805 C   0  0  0  0  0  0  0  0  0  0  0  0
   11.5168   -0.8577    2.0637 N   0  0  0  0  0  0  0  0  0  0  0  0
   10.7333   -1.8107    1.5690 C   0  0  0  0  0  0  0  0  0  0  0  0
   11.4095   -2.8756    1.0909 O   0  0  0  0  0  0  0  0  0  0  0  0
   10.7837   -4.0226    0.6474 C   0  0  0  0  0  0  0  0  0  0  0  0
   11.1475   -4.4913   -0.6165 C   0  0  0  0  0  0  0  0  0  0  0  0
   10.6192   -5.6934   -1.0857 C   0  0  0  0  0  0  0  0  0  0  0  0
    9.7245   -6.4404   -0.3005 C   0  0  0  0  0  0  0  0  0  0  0  0
    9.1392   -7.7073   -0.7526 C   0  0  0  0  0  0  0  0  0  0  0  0
    8.2243   -8.3876   -0.0978 N   0  0  0  0  0  0  0  0  0  0  0  0
    7.9595   -9.4991   -0.8650 C   0  0  0  0  0  0  0  0  0  0  0  0
    7.0680  -10.5548   -0.6414 C   0  0  0  0  0  0  0  0  0  0  0  0
    7.0191  -11.5529   -1.6113 C   0  0  0  0  0  0  0  0  0  0  0  0
    6.0895  -12.6817   -1.4103 N   0  0  0  0  0  0  0  0  0  0  0  0
    5.4055  -12.6802   -0.3988 O   0  0  0  0  0  0  0  0  0  0  0  0
    6.0582  -13.5514   -2.2682 O   0  0  0  0  0  0  0  0  0  0  0  0
    7.8114  -11.5422   -2.7771 C   0  0  0  0  0  0  0  0  0  0  0  0
    8.6996  -10.4971   -3.0083 C   0  0  0  0  0  0  0  0  0  0  0  0
    8.7601   -9.4840   -2.0431 C   0  0  0  0  0  0  0  0  0  0  0  0
    9.4982   -8.3292   -1.9405 N   0  0  0  0  0  0  0  0  0  0  0  0
   10.1966   -8.0095   -2.5982 H   0  0  0  0  0  0  0  0  0  0  0  0
    9.3755   -5.9510    0.9737 C   0  0  0  0  0  0  0  0  0  0  0  0
    9.9001   -4.7547    1.4501 C   0  0  0  0  0  0  0  0  0  0  0  0
    9.4120   -1.7886    1.4929 N   0  0  0  0  0  0  0  0  0  0  0  0
    6.5802   -1.6056    1.3675 C   0  0  0  0  0  0  0  0  0  0  0  0
    5.1968   -1.5201    1.3201 C   0  0  0  0  0  0  0  0  0  0  0  0
    1.8970    2.8750    1.3799 H   0  0  0  0  0  0  0  0  0  0  0  0
    1.8822    1.5709    0.1669 H   0  0  0  0  0  0  0  0  0  0  0  0
    3.4309    2.2410    0.7309 H   0  0  0  0  0  0  0  0  0  0  0  0
    1.4231    0.6890    2.4924 H   0  0  0  0  0  0  0  0  0  0  0  0
    2.9235    1.3541    3.0734 H   0  0  0  0  0  0  0  0  0  0  0  0
    2.7466   -2.3623    1.5913 H   0  0  0  0  0  0  0  0  0  0  0  0
    2.5844   -1.4242    0.1057 H   0  0  0  0  0  0  0  0  0  0  0  0
    0.5908   -1.4087    2.4699 H   0  0  0  0  0  0  0  0  0  0  0  0
    0.4313   -2.2804    0.9316 H   0  0  0  0  0  0  0  0  0  0  0  0
    0.3735   -0.5101    0.9409 H   0  0  0  0  0  0  0  0  0  0  0  0
    4.8482    1.5476    2.7983 H   0  0  0  0  0  0  0  0  0  0  0  0
    7.2759    1.3596    2.8712 H   0  0  0  0  0  0  0  0  0  0  0  0
   12.0084    2.1267    5.3815 H   0  0  0  0  0  0  0  0  0  0  0  0
   11.3076    4.3608    6.1908 H   0  0  0  0  0  0  0  0  0  0  0  0
    7.6817    9.4928    3.5693 H   0  0  0  0  0  0  0  0  0  0  0  0
    8.8996   11.0770    7.3915 H   0  0  0  0  0  0  0  0  0  0  0  0
   10.2032    8.9897    7.9221 H   0  0  0  0  0  0  0  0  0  0  0  0
    9.4560    5.1559    2.3717 H   0  0  0  0  0  0  0  0  0  0  0  0
   10.1633    2.8951    1.5706 H   0  0  0  0  0  0  0  0  0  0  0  0
   11.8440   -3.9052   -1.2182 H   0  0  0  0  0  0  0  0  0  0  0  0
   10.9114   -6.0309   -2.0834 H   0  0  0  0  0  0  0  0  0  0  0  0
    6.4374  -10.6053    0.2446 H   0  0  0  0  0  0  0  0  0  0  0  0
    7.7079  -12.3659   -3.4821 H   0  0  0  0  0  0  0  0  0  0  0  0
    9.3181  -10.4781   -3.9080 H   0  0  0  0  0  0  0  0  0  0  0  0
    8.6847   -6.5372    1.5816 H   0  0  0  0  0  0  0  0  0  0  0  0
    9.6278   -4.3863    2.4391 H   0  0  0  0  0  0  0  0  0  0  0  0
    7.0816   -2.4824    0.9545 H   0  0  0  0  0  0  0  0  0  0  0  0
    4.6512   -2.3406    0.8593 H   0  0  0  0  0  0  0  0  0  0  0  0
  1  2  1  0
  1 58  1  0
  1 59  1  0
  1 60  1  0
  2  3  1  0
  2 61  1  0
  2 62  1  0
  3  4  1  0
  3  6  1  0
  4  5  1  0
  4 63  1  0
  4 64  1  0
  5 65  1  0
  5 66  1  0
  5 67  1  0
  6  7  2  0
  6 57  1  0
  7  8  1  0
  7 68  1  0
  8  9  2  0
  8 69  1  0
  9 10  1  0
  9 56  1  0
 10 11  2  0
 10 55  1  0
 11 12  1  0
 12 13  1  0
 12 33  2  0
 13 14  1  0
 14 15  2  0
 14 32  1  0
 15 16  1  0
 15 70  1  0
 16 17  2  0
 16 71  1  0
 17 18  1  0
 17 31  1  0
 18 19  2  0
 18 29  1  0
 19 20  1  0
 20 21  2  0
 20 28  1  0
 21 22  1  0
 21 72  1  0
 22 23  1  0
 22 26  2  0
 23 24  1  0
 23 25  1  0
 26 27  1  0
 26 73  1  0
 27 28  2  0
 27 74  1  0
 28 29  1  0
 29 30  1  0
 31 32  2  0
 31 75  1  0
 32 76  1  0
 33 34  1  0
 34 35  1  0
 34 55  2  0
 35 36  2  0
 36 37  1  0
 36 54  1  0
 37 38  2  0
 37 77  1  0
 38 39  1  0
 38 78  1  0
 39 40  2  0
 39 53  1  0
 40 41  1  0
 40 51  1  0
 41 42  2  0
 42 43  1  0
 42 50  1  0
 43 44  2  0
 43 79  1  0
 44 45  1  0
 44 48  1  0
 45 46  2  0
 45 47  1  0
 48 49  2  0
 48 80  1  0
 49 50  1  0
 49 81  1  0
 50 51  2  0
 51 52  1  0
 53 54  2  0
 53 82  1  0
 54 83  1  0
 56 57  2  0
 56 84  1  0
 57 85  1  0
M  CHG  6  24  -1  25  -1  35   1  45   1  47  -1  51   1
M  END

