
     RDKit          3D

 44 46  0  0  0  0  0  0  0  0999 V2000
    8.6244    5.1661   -2.1128 C   0  0  0  0  0  0  0  0  0  0  0  0
    8.3999    3.7304   -1.7356 C   0  0  0  0  0  0  0  0  0  0  0  0
    7.8213    2.7928   -2.5382 C   0  0  0  0  0  0  0  0  0  0  0  0
    7.6148    1.3990   -2.1340 C   0  0  0  0  0  0  0  0  0  0  0  0
    7.0408    0.5896   -2.8674 O   0  0  0  0  0  0  0  0  0  0  0  0
    8.1344    1.0796   -0.7878 C   0  0  0  0  0  0  0  0  0  0  0  0
    7.9304   -0.2382   -0.0798 C   0  0  0  0  0  0  0  0  0  0  0  0
    7.5490   -0.2375    1.0894 O   0  0  0  0  0  0  0  0  0  0  0  0
    8.1922   -1.3956   -0.7497 N   0  0  0  0  0  0  0  0  0  0  0  0
    8.9863   -1.5259   -1.9802 C   0  0  0  0  0  0  0  0  0  0  0  0
    8.8717   -3.0122   -2.3250 C   0  0  0  0  0  0  0  0  0  0  0  0
    8.7341   -3.6871   -0.9541 C   0  0  0  0  0  0  0  0  0  0  0  0
    7.9240   -2.6897   -0.0961 C   0  0  2  0  0  0  0  0  0  0  0  0
    6.3880   -2.9436    0.0714 C   0  0  1  0  0  0  0  0  0  0  0  0
    5.5169   -2.7992   -1.1974 C   0  0  0  0  0  0  0  0  0  0  0  0
    5.2548   -4.1030   -1.9601 C   0  0  0  0  0  0  0  0  0  0  0  0
    4.6597   -5.1591   -1.0254 C   0  0  0  0  0  0  0  0  0  0  0  0
    5.6192   -5.4701    0.1285 C   0  0  0  0  0  0  0  0  0  0  0  0
    6.1941   -4.2520    0.8484 C   0  0  0  0  0  0  0  0  0  0  0  0
    6.5523   -4.3352    2.0047 O   0  0  0  0  0  0  0  0  0  0  0  0
    8.6613    2.0796   -0.0180 C   0  0  0  0  0  0  0  0  0  0  0  0
    8.8145    3.3532   -0.4752 N   0  0  0  0  0  0  0  0  0  0  0  0
    9.2249    4.0481    0.1377 H   0  0  0  0  0  0  0  0  0  0  0  0
    8.2472    5.3630   -3.1242 H   0  0  0  0  0  0  0  0  0  0  0  0
    9.6981    5.4205   -2.0913 H   0  0  0  0  0  0  0  0  0  0  0  0
    8.1070    5.8470   -1.4153 H   0  0  0  0  0  0  0  0  0  0  0  0
    7.4700    3.0670   -3.5344 H   0  0  0  0  0  0  0  0  0  0  0  0
   10.0395   -1.2479   -1.7846 H   0  0  0  0  0  0  0  0  0  0  0  0
    8.5854   -0.8817   -2.7712 H   0  0  0  0  0  0  0  0  0  0  0  0
    9.7375   -3.3740   -2.8996 H   0  0  0  0  0  0  0  0  0  0  0  0
    7.9737   -3.1851   -2.9383 H   0  0  0  0  0  0  0  0  0  0  0  0
    9.7311   -3.8197   -0.5025 H   0  0  0  0  0  0  0  0  0  0  0  0
    8.2748   -4.6840   -1.0054 H   0  0  0  0  0  0  0  0  0  0  0  0
    8.3098   -2.6599    0.9338 H   0  0  0  0  0  0  0  0  0  0  0  0
    6.0925   -2.1594    0.7846 H   0  0  0  0  0  0  0  0  0  0  0  0
    5.9469   -2.0246   -1.8521 H   0  0  0  0  0  0  0  0  0  0  0  0
    4.5361   -2.3997   -0.8847 H   0  0  0  0  0  0  0  0  0  0  0  0
    6.1851   -4.4934   -2.4103 H   0  0  0  0  0  0  0  0  0  0  0  0
    4.5692   -3.9056   -2.8009 H   0  0  0  0  0  0  0  0  0  0  0  0
    4.4220   -6.0863   -1.5726 H   0  0  0  0  0  0  0  0  0  0  0  0
    3.7022   -4.7849   -0.6199 H   0  0  0  0  0  0  0  0  0  0  0  0
    6.4969   -6.0176   -0.2676 H   0  0  0  0  0  0  0  0  0  0  0  0
    5.1755   -6.1256    0.8935 H   0  0  0  0  0  0  0  0  0  0  0  0
    8.9649    1.8904    1.0136 H   0  0  0  0  0  0  0  0  0  0  0  0
  1  2  1  0
  1 24  1  0
  1 25  1  0
  1 26  1  0
  2  3  2  0
  2 22  1  0
  3  4  1  0
  3 27  1  0
  4  5  2  0
  4  6  1  0
  6  7  1  0
  6 21  2  0
  7  8  2  0
  7  9  1  0
  9 10  1  0
  9 13  1  0
 10 11  1  0
 10 28  1  0
 10 29  1  0
 11 12  1  0
 11 30  1  0
 11 31  1  0
 12 13  1  0
 12 32  1  0
 12 33  1  0
 13 14  1  0
 13 34  1  1
 14 15  1  0
 14 19  1  0
 14 35  1  1
 15 16  1  0
 15 36  1  0
 15 37  1  0
 16 17  1  0
 16 38  1  0
 16 39  1  0
 17 18  1  0
 17 40  1  0
 17 41  1  0
 18 19  1  0
 18 42  1  0
 18 43  1  0
 19 20  2  0
 21 22  1  0
 21 44  1  0
 22 23  1  0
M  END

