
     RDKit          3D

 57 58  0  0  0  0  0  0  0  0999 V2000
   14.0767   -1.0215    4.6282 C   0  0  0  0  0  0  0  0  0  0  0  0
   12.9727   -1.7985    3.9082 C   0  0  0  0  0  0  0  0  0  0  0  0
   12.8023   -1.4543    2.4147 C   0  0  1  0  0  0  0  0  0  0  0  0
   14.0196   -1.8335    1.5545 C   0  0  0  0  0  0  0  0  0  0  0  0
   13.9257   -1.3800    0.0975 C   0  0  0  0  0  0  0  0  0  0  0  0
   11.5928   -2.0818    1.8874 N   0  0  0  0  0  0  0  0  0  0  0  0
   10.4580   -1.3971    1.5964 C   0  0  0  0  0  0  0  0  0  0  0  0
   10.3110   -0.1932    1.7225 O   0  0  0  0  0  0  0  0  0  0  0  0
    9.2913   -2.2286    1.0658 C   0  0  0  0  0  0  0  0  0  0  0  0
    9.6471   -3.6090    0.9419 O   0  0  0  0  0  0  0  0  0  0  0  0
    8.6728   -4.4663    0.5478 C   0  0  0  0  0  0  0  0  0  0  0  0
    7.5327   -4.1058    0.3711 O   0  0  0  0  0  0  0  0  0  0  0  0
    9.2016   -5.8395    0.3012 C   0  0  0  0  0  0  0  0  0  0  0  0
   10.5307   -5.9491   -0.1311 C   0  0  0  0  0  0  0  0  0  0  0  0
   11.0119   -7.1400   -0.6577 C   0  0  0  0  0  0  0  0  0  0  0  0
   12.4021   -7.2206   -1.1057 N   0  0  0  0  0  0  0  0  0  0  0  0
   13.1133   -6.2380   -0.9412 O   0  0  0  0  0  0  0  0  0  0  0  0
   12.7727   -8.2690   -1.6155 O   0  0  0  0  0  0  0  0  0  0  0  0
   10.1708   -8.2546   -0.7835 C   0  0  0  0  0  0  0  0  0  0  0  0
    8.8692   -8.1752   -0.3266 C   0  0  0  0  0  0  0  0  0  0  0  0
    8.3472   -6.9939    0.2776 C   0  0  0  0  0  0  0  0  0  0  0  0
    7.0941   -7.0128    0.8390 N   0  0  0  0  0  0  0  0  0  0  0  0
    5.9928   -7.7937    0.2716 C   0  0  0  0  0  0  0  0  0  0  0  0
    5.3601   -8.7427    1.2931 C   0  0  0  0  0  0  0  0  0  0  0  0
    4.9162   -8.0006    2.5698 C   0  0  2  0  0  0  0  0  0  0  0  0
    3.6455   -7.1636    2.3627 C   0  0  0  0  0  0  0  0  0  0  0  0
    6.1026   -7.1681    3.0921 C   0  0  0  0  0  0  0  0  0  0  0  0
    6.7244   -6.2478    2.0291 C   0  0  0  0  0  0  0  0  0  0  0  0
   14.0752   -1.2494    5.7058 H   0  0  0  0  0  0  0  0  0  0  0  0
   13.9329    0.0665    4.5198 H   0  0  0  0  0  0  0  0  0  0  0  0
   15.0802   -1.2652    4.2458 H   0  0  0  0  0  0  0  0  0  0  0  0
   12.0080   -1.5983    4.4038 H   0  0  0  0  0  0  0  0  0  0  0  0
   13.1515   -2.8856    4.0089 H   0  0  0  0  0  0  0  0  0  0  0  0
   12.6216   -0.3706    2.3285 H   0  0  0  0  0  0  0  0  0  0  0  0
   14.1603   -2.9303    1.5998 H   0  0  0  0  0  0  0  0  0  0  0  0
   14.9204   -1.3967    2.0152 H   0  0  0  0  0  0  0  0  0  0  0  0
   13.0530   -1.8232   -0.4070 H   0  0  0  0  0  0  0  0  0  0  0  0
   14.8227   -1.6768   -0.4680 H   0  0  0  0  0  0  0  0  0  0  0  0
   13.8284   -0.2843    0.0263 H   0  0  0  0  0  0  0  0  0  0  0  0
   11.5744   -3.0897    1.7741 H   0  0  0  0  0  0  0  0  0  0  0  0
    8.9874   -1.8198    0.0894 H   0  0  0  0  0  0  0  0  0  0  0  0
    8.4331   -2.1117    1.7453 H   0  0  0  0  0  0  0  0  0  0  0  0
   11.1863   -5.0813   -0.1142 H   0  0  0  0  0  0  0  0  0  0  0  0
   10.5684   -9.1763   -1.2083 H   0  0  0  0  0  0  0  0  0  0  0  0
    8.2478   -9.0697   -0.3676 H   0  0  0  0  0  0  0  0  0  0  0  0
    6.3454   -8.3426   -0.6096 H   0  0  0  0  0  0  0  0  0  0  0  0
    5.2330   -7.0792   -0.0992 H   0  0  0  0  0  0  0  0  0  0  0  0
    6.0972   -9.5194    1.5611 H   0  0  0  0  0  0  0  0  0  0  0  0
    4.5039   -9.2590    0.8271 H   0  0  0  0  0  0  0  0  0  0  0  0
    4.6815   -8.7616    3.3342 H   0  0  0  0  0  0  0  0  0  0  0  0
    3.7782   -6.3619    1.6189 H   0  0  0  0  0  0  0  0  0  0  0  0
    3.3354   -6.6844    3.3052 H   0  0  0  0  0  0  0  0  0  0  0  0
    2.8099   -7.7951    2.0198 H   0  0  0  0  0  0  0  0  0  0  0  0
    6.8866   -7.8524    3.4601 H   0  0  0  0  0  0  0  0  0  0  0  0
    5.7906   -6.5501    3.9510 H   0  0  0  0  0  0  0  0  0  0  0  0
    7.6265   -5.7850    2.4490 H   0  0  0  0  0  0  0  0  0  0  0  0
    6.0446   -5.4228    1.7571 H   0  0  0  0  0  0  0  0  0  0  0  0
  1  2  1  0
  1 29  1  0
  1 30  1  0
  1 31  1  0
  2  3  1  0
  2 32  1  0
  2 33  1  0
  3  4  1  0
  3  6  1  0
  3 34  1  1
  4  5  1  0
  4 35  1  0
  4 36  1  0
  5 37  1  0
  5 38  1  0
  5 39  1  0
  6  7  1  0
  6 40  1  0
  7  8  2  0
  7  9  1  0
  9 10  1  0
  9 41  1  0
  9 42  1  0
 10 11  1  0
 11 12  2  0
 11 13  1  0
 13 14  2  0
 13 21  1  0
 14 15  1  0
 14 43  1  0
 15 16  1  0
 15 19  2  0
 16 17  2  0
 16 18  1  0
 19 20  1  0
 19 44  1  0
 20 21  2  0
 20 45  1  0
 21 22  1  0
 22 23  1  0
 22 28  1  0
 23 24  1  0
 23 46  1  0
 23 47  1  0
 24 25  1  0
 24 48  1  0
 24 49  1  0
 25 26  1  0
 25 27  1  0
 25 50  1  1
 26 51  1  0
 26 52  1  0
 26 53  1  0
 27 28  1  0
 27 54  1  0
 27 55  1  0
 28 56  1  0
 28 57  1  0
M  CHG  2  16   1  18  -1
M  END

