
     RDKit          3D

 40 41  0  0  0  0  0  0  0  0999 V2000
    1.1313   -0.3026   -0.5026 C   0  0  0  0  0  0  0  0  0  0  0  0
    2.4686   -0.1390    0.0522 N   0  0  0  0  0  0  0  0  0  0  0  0
    3.0017    1.2275   -0.0492 C   0  0  1  0  0  0  0  0  0  0  0  0
    2.2918    2.1809    0.9100 C   0  0  0  0  0  0  0  0  0  0  0  0
    2.0080    3.4845    0.4814 C   0  0  0  0  0  0  0  0  0  0  0  0
    1.4232    4.4428    1.2026 N   0  0  0  0  0  0  0  0  0  0  0  0
    1.0607    4.1072    2.4454 C   0  0  0  0  0  0  0  0  0  0  0  0
    1.2447    2.8420    2.9893 C   0  0  0  0  0  0  0  0  0  0  0  0
    1.8676    1.8299    2.2248 C   0  0  0  0  0  0  0  0  0  0  0  0
    2.0654    0.5754    2.7365 N   0  0  0  0  0  0  0  0  0  0  0  0
    4.5832    1.2081    0.0618 C   0  0  1  0  0  0  0  0  0  0  0  0
    5.1379    2.6360   -0.1409 C   0  0  0  0  0  0  0  0  0  0  0  0
    5.0443    0.7282    1.4492 C   0  0  0  0  0  0  0  0  0  0  0  0
    5.1243    0.3052   -1.0706 C   0  0  0  0  0  0  0  0  0  0  0  0
    4.9055    0.6515   -2.4195 C   0  0  0  0  0  0  0  0  0  0  0  0
    5.3782   -0.1425   -3.4656 C   0  0  0  0  0  0  0  0  0  0  0  0
    6.0912   -1.3149   -3.1950 C   0  0  0  0  0  0  0  0  0  0  0  0
    6.3206   -1.6765   -1.8675 C   0  0  0  0  0  0  0  0  0  0  0  0
    5.8429   -0.8772   -0.8214 C   0  0  0  0  0  0  0  0  0  0  0  0
    0.8385   -1.3633   -0.4570 H   0  0  0  0  0  0  0  0  0  0  0  0
    1.0451    0.0349   -1.5570 H   0  0  0  0  0  0  0  0  0  0  0  0
    0.3991    0.2723    0.0861 H   0  0  0  0  0  0  0  0  0  0  0  0
    3.1101   -0.7753   -0.4190 H   0  0  0  0  0  0  0  0  0  0  0  0
    2.7960    1.6294   -1.0630 H   0  0  0  0  0  0  0  0  0  0  0  0
    2.2817    3.7618   -0.5454 H   0  0  0  0  0  0  0  0  0  0  0  0
    0.5817    4.8904    3.0462 H   0  0  0  0  0  0  0  0  0  0  0  0
    0.9056    2.6238    4.0061 H   0  0  0  0  0  0  0  0  0  0  0  0
    1.5540    0.3206    3.5717 H   0  0  0  0  0  0  0  0  0  0  0  0
    2.2496   -0.1476    2.0361 H   0  0  0  0  0  0  0  0  0  0  0  0
    4.8276    3.2993    0.6793 H   0  0  0  0  0  0  0  0  0  0  0  0
    4.7991    3.0910   -1.0835 H   0  0  0  0  0  0  0  0  0  0  0  0
    6.2384    2.6091   -0.1614 H   0  0  0  0  0  0  0  0  0  0  0  0
    4.6658    1.4030    2.2287 H   0  0  0  0  0  0  0  0  0  0  0  0
    6.1438    0.7278    1.5111 H   0  0  0  0  0  0  0  0  0  0  0  0
    4.6870   -0.2820    1.6913 H   0  0  0  0  0  0  0  0  0  0  0  0
    4.3575    1.5637   -2.6655 H   0  0  0  0  0  0  0  0  0  0  0  0
    5.1911    0.1594   -4.4996 H   0  0  0  0  0  0  0  0  0  0  0  0
    6.4644   -1.9374   -4.0122 H   0  0  0  0  0  0  0  0  0  0  0  0
    6.8781   -2.5880   -1.6354 H   0  0  0  0  0  0  0  0  0  0  0  0
    6.0444   -1.1902    0.2031 H   0  0  0  0  0  0  0  0  0  0  0  0
  1  2  1  0
  1 20  1  0
  1 21  1  0
  1 22  1  0
  2  3  1  0
  2 23  1  0
  3  4  1  0
  3 11  1  0
  3 24  1  6
  4  5  2  0
  4  9  1  0
  5  6  1  0
  5 25  1  0
  6  7  2  0
  7  8  1  0
  7 26  1  0
  8  9  2  0
  8 27  1  0
  9 10  1  0
 10 28  1  0
 10 29  1  0
 11 12  1  6
 11 13  1  0
 11 14  1  0
 12 30  1  0
 12 31  1  0
 12 32  1  0
 13 33  1  0
 13 34  1  0
 13 35  1  0
 14 15  2  0
 14 19  1  0
 15 16  1  0
 15 36  1  0
 16 17  2  0
 16 37  1  0
 17 18  1  0
 17 38  1  0
 18 19  2  0
 18 39  1  0
 19 40  1  0
M  END

