
     RDKit          3D

 65 68  0  0  0  0  0  0  0  0999 V2000
    2.6344    0.8846   -1.6665 C   0  0  0  0  0  0  0  0  0  0  0  0
    3.9958    1.4879   -1.5848 C   0  0  0  0  0  0  0  0  0  0  0  0
    4.4691    2.5149   -0.8194 C   0  0  0  0  0  0  0  0  0  0  0  0
    3.9029    3.2829    0.2020 N   0  0  0  0  0  0  0  0  0  0  0  0
    2.7653    4.0541    0.1356 C   0  0  0  0  0  0  0  0  0  0  0  0
    1.7398    4.1281   -1.1770 S   0  0  0  0  0  0  0  0  0  0  0  0
    2.5705    4.7687    1.2922 N   0  0  0  0  0  0  0  0  0  0  0  0
    1.4984    5.7011    1.5188 C   0  0  1  0  0  0  0  0  0  0  0  0
    0.4171    5.1361    2.2860 N   0  0  0  0  0  0  0  0  0  0  0  0
   -0.8878    5.1390    1.8414 C   0  0  0  0  0  0  0  0  0  0  0  0
   -1.2324    5.7192    0.8336 O   0  0  0  0  0  0  0  0  0  0  0  0
   -1.8406    4.2984    2.7124 C   0  0  1  0  0  0  0  0  0  0  0  0
   -3.2573    4.8591    2.7154 C   0  0  0  0  0  0  0  0  0  0  0  0
   -4.0486    4.8576    1.5559 C   0  0  0  0  0  0  0  0  0  0  0  0
   -5.3434    5.3787    1.5817 C   0  0  0  0  0  0  0  0  0  0  0  0
   -5.8712    5.9071    2.7650 C   0  0  0  0  0  0  0  0  0  0  0  0
   -5.0923    5.9133    3.9239 C   0  0  0  0  0  0  0  0  0  0  0  0
   -3.7940    5.3937    3.8953 C   0  0  0  0  0  0  0  0  0  0  0  0
   -1.7805    2.8228    2.2984 C   0  0  0  0  0  0  0  0  0  0  0  0
   -2.0648    1.8347    3.2554 C   0  0  0  0  0  0  0  0  0  0  0  0
   -2.0519    0.4806    2.9149 C   0  0  0  0  0  0  0  0  0  0  0  0
   -1.7510    0.0900    1.6060 C   0  0  0  0  0  0  0  0  0  0  0  0
   -1.4628    1.0645    0.6476 C   0  0  0  0  0  0  0  0  0  0  0  0
   -1.4768    2.4217    0.9880 C   0  0  0  0  0  0  0  0  0  0  0  0
    2.0675    6.9874    2.1951 C   0  0  1  0  0  0  0  0  0  0  0  0
    3.3387    7.7101    1.1703 Cl  0  0  0  0  0  0  0  0  0  0  0  0
    0.7693    8.1719    2.4699 Cl  0  0  0  0  0  0  0  0  0  0  0  0
    2.7980    6.5312    3.8070 Cl  0  0  0  0  0  0  0  0  0  0  0  0
    5.8920    2.6922   -1.0958 C   0  0  0  0  0  0  0  0  0  0  0  0
    6.6888    3.4229   -0.5264 O   0  0  0  0  0  0  0  0  0  0  0  0
    6.1760    1.7550   -2.1006 N   0  0  0  0  0  0  0  0  0  0  0  0
    7.4641    1.2484   -2.4016 C   0  0  0  0  0  0  0  0  0  0  0  0
    8.5422    2.1413   -2.5184 C   0  0  0  0  0  0  0  0  0  0  0  0
    9.8172    1.6479   -2.7988 C   0  0  0  0  0  0  0  0  0  0  0  0
   10.0310    0.2778   -2.9812 C   0  0  0  0  0  0  0  0  0  0  0  0
    8.9549   -0.6061   -2.8641 C   0  0  0  0  0  0  0  0  0  0  0  0
    7.6762   -0.1305   -2.5650 C   0  0  0  0  0  0  0  0  0  0  0  0
    5.0320    0.9922   -2.3838 N   0  0  0  0  0  0  0  0  0  0  0  0
    4.7715    0.7979   -3.8138 C   0  0  0  0  0  0  0  0  0  0  0  0
    2.0856    1.0714   -0.7348 H   0  0  0  0  0  0  0  0  0  0  0  0
    2.7015   -0.2017   -1.8315 H   0  0  0  0  0  0  0  0  0  0  0  0
    2.0381    1.3377   -2.4751 H   0  0  0  0  0  0  0  0  0  0  0  0
    4.6214    3.6059    0.8524 H   0  0  0  0  0  0  0  0  0  0  0  0
    3.2080    4.6190    2.0696 H   0  0  0  0  0  0  0  0  0  0  0  0
    1.0757    5.9944    0.5443 H   0  0  0  0  0  0  0  0  0  0  0  0
    0.6503    4.6422    3.1397 H   0  0  0  0  0  0  0  0  0  0  0  0
   -1.4727    4.3549    3.7497 H   0  0  0  0  0  0  0  0  0  0  0  0
   -3.6453    4.4525    0.6272 H   0  0  0  0  0  0  0  0  0  0  0  0
   -5.9456    5.3731    0.6695 H   0  0  0  0  0  0  0  0  0  0  0  0
   -6.8863    6.3122    2.7819 H   0  0  0  0  0  0  0  0  0  0  0  0
   -5.4929    6.3236    4.8546 H   0  0  0  0  0  0  0  0  0  0  0  0
   -3.1886    5.4060    4.8069 H   0  0  0  0  0  0  0  0  0  0  0  0
   -2.3077    2.1316    4.2799 H   0  0  0  0  0  0  0  0  0  0  0  0
   -2.2773   -0.2722    3.6749 H   0  0  0  0  0  0  0  0  0  0  0  0
   -1.7401   -0.9692    1.3366 H   0  0  0  0  0  0  0  0  0  0  0  0
   -1.2233    0.7722   -0.3782 H   0  0  0  0  0  0  0  0  0  0  0  0
   -1.2362    3.1670    0.2267 H   0  0  0  0  0  0  0  0  0  0  0  0
    8.3745    3.2071   -2.3707 H   0  0  0  0  0  0  0  0  0  0  0  0
   10.6524    2.3478   -2.8828 H   0  0  0  0  0  0  0  0  0  0  0  0
   11.0308   -0.0987   -3.2097 H   0  0  0  0  0  0  0  0  0  0  0  0
    9.1102   -1.6804   -2.9929 H   0  0  0  0  0  0  0  0  0  0  0  0
    6.8422   -0.8224   -2.4389 H   0  0  0  0  0  0  0  0  0  0  0  0
    4.5732    1.7575   -4.3243 H   0  0  0  0  0  0  0  0  0  0  0  0
    3.9020    0.1381   -3.9269 H   0  0  0  0  0  0  0  0  0  0  0  0
    5.6358    0.3103   -4.2827 H   0  0  0  0  0  0  0  0  0  0  0  0
  1  2  1  0
  1 40  1  0
  1 41  1  0
  1 42  1  0
  2  3  2  0
  2 38  1  0
  3  4  1  0
  3 29  1  0
  4  5  1  0
  4 43  1  0
  5  6  2  0
  5  7  1  0
  7  8  1  0
  7 44  1  0
  8  9  1  0
  8 25  1  0
  8 45  1  6
  9 10  1  0
  9 46  1  0
 10 11  2  0
 10 12  1  0
 12 13  1  0
 12 19  1  0
 12 47  1  1
 13 14  2  0
 13 18  1  0
 14 15  1  0
 14 48  1  0
 15 16  2  0
 15 49  1  0
 16 17  1  0
 16 50  1  0
 17 18  2  0
 17 51  1  0
 18 52  1  0
 19 20  2  0
 19 24  1  0
 20 21  1  0
 20 53  1  0
 21 22  2  0
 21 54  1  0
 22 23  1  0
 22 55  1  0
 23 24  2  0
 23 56  1  0
 24 57  1  0
 25 26  1  6
 25 27  1  0
 25 28  1  0
 29 30  2  0
 29 31  1  0
 31 32  1  0
 31 38  1  0
 32 33  2  0
 32 37  1  0
 33 34  1  0
 33 58  1  0
 34 35  2  0
 34 59  1  0
 35 36  1  0
 35 60  1  0
 36 37  2  0
 36 61  1  0
 37 62  1  0
 38 39  1  0
 39 63  1  0
 39 64  1  0
 39 65  1  0
M  END

