
     RDKit          3D

 26 27  0  0  0  0  0  0  0  0999 V2000
    2.4304   -1.0789   -0.8840 C   0  0  0  0  0  0  0  0  0  0  0  0
    2.6555    0.0455   -0.0582 O   0  0  0  0  0  0  0  0  0  0  0  0
    3.3176   -0.1141    1.1090 C   0  0  0  0  0  0  0  0  0  0  0  0
    3.8162   -1.3173    1.6089 C   0  0  0  0  0  0  0  0  0  0  0  0
    4.4977   -1.3565    2.8423 C   0  0  0  0  0  0  0  0  0  0  0  0
    4.7028   -0.2169    3.6147 C   0  0  0  0  0  0  0  0  0  0  0  0
    5.4082   -0.2171    4.9553 C   0  0  1  0  0  0  0  0  0  0  0  0
    4.5551    0.2654    6.0103 O   0  0  0  0  0  0  0  0  0  0  0  0
    6.0326   -1.5642    5.3835 C   0  0  0  0  0  0  0  0  0  0  0  0
    6.7528   -2.2194    4.6782 O   0  0  0  0  0  0  0  0  0  0  0  0
    5.7347   -1.9020    6.6405 O   0  0  0  0  0  0  0  0  0  0  0  0
    4.1994    1.0212    3.1185 C   0  0  0  0  0  0  0  0  0  0  0  0
    4.2738    2.3423    3.6968 C   0  0  0  0  0  0  0  0  0  0  0  0
    3.6836    3.2930    2.9165 C   0  0  0  0  0  0  0  0  0  0  0  0
    2.9996    2.6591    1.4455 S   0  0  0  0  0  0  0  0  0  0  0  0
    3.5194    1.0492    1.8795 C   0  0  0  0  0  0  0  0  0  0  0  0
    1.8865   -0.7140   -1.7650 H   0  0  0  0  0  0  0  0  0  0  0  0
    1.8180   -1.8428   -0.3731 H   0  0  0  0  0  0  0  0  0  0  0  0
    3.3790   -1.5399   -1.2106 H   0  0  0  0  0  0  0  0  0  0  0  0
    3.6943   -2.2440    1.0485 H   0  0  0  0  0  0  0  0  0  0  0  0
    4.9025   -2.3118    3.1760 H   0  0  0  0  0  0  0  0  0  0  0  0
    6.2583    0.4885    4.9132 H   0  0  0  0  0  0  0  0  0  0  0  0
    3.6374    0.1502    5.7222 H   0  0  0  0  0  0  0  0  0  0  0  0
    5.1528   -1.1880    6.9778 H   0  0  0  0  0  0  0  0  0  0  0  0
    4.7309    2.5562    4.6627 H   0  0  0  0  0  0  0  0  0  0  0  0
    3.6042    4.3598    3.1248 H   0  0  0  0  0  0  0  0  0  0  0  0
  1  2  1  0
  1 17  1  0
  1 18  1  0
  1 19  1  0
  2  3  1  0
  3  4  2  0
  3 16  1  0
  4  5  1  0
  4 20  1  0
  5  6  2  0
  5 21  1  0
  6  7  1  0
  6 12  1  0
  7  8  1  0
  7  9  1  0
  7 22  1  6
  8 23  1  0
  9 10  2  0
  9 11  1  0
 11 24  1  0
 12 13  1  0
 12 16  2  0
 13 14  2  0
 13 25  1  0
 14 15  1  0
 14 26  1  0
 15 16  1  0
M  END

