
     RDKit          3D

126135  0  0  0  0  0  0  0  0999 V2000
    1.8209    6.1493    2.4647 C   0  0  0  0  0  0  0  0  0  0  0  0
    2.8472    6.1807    1.3314 C   0  0  0  0  0  0  0  0  0  0  0  0
    4.2564    5.7877    1.7839 C   0  0  0  0  0  0  0  0  0  0  0  0
    5.2737    5.8207    0.6544 C   0  0  0  0  0  0  0  0  0  0  0  0
    6.5365    5.4419    1.1822 O   0  0  0  0  0  0  0  0  0  0  0  0
    7.6210    5.3887    0.3767 C   0  0  0  0  0  0  0  0  0  0  0  0
    7.6117    5.6856   -0.9971 C   0  0  0  0  0  0  0  0  0  0  0  0
    8.7891    5.5956   -1.7394 C   0  0  0  0  0  0  0  0  0  0  0  0
   10.0041    5.2072   -1.1446 C   0  0  0  0  0  0  0  0  0  0  0  0
   11.2518    5.1344   -1.8977 C   0  0  0  0  0  0  0  0  0  0  0  0
   12.3933    5.2538   -1.1225 O   0  0  0  0  0  0  0  0  0  0  0  0
   13.4361    5.2317   -1.9816 C   0  0  0  0  0  0  0  0  0  0  0  0
   14.8166    5.3178   -1.9565 C   0  0  0  0  0  0  0  0  0  0  0  0
   15.1848    5.2002   -3.3306 C   0  0  0  0  0  0  0  0  0  0  0  0
   14.0529    5.0490   -4.1373 N   0  0  0  0  0  0  0  0  0  0  0  0
   12.9810    5.0785   -3.3074 C   0  0  0  0  0  0  0  0  0  0  0  0
   11.5504    4.9990   -3.2569 C   0  0  0  0  0  0  0  0  0  0  0  0
   10.6145    4.7577   -4.3788 C   0  0  0  0  0  0  0  0  0  0  0  0
    9.6971    3.6972   -4.3411 C   0  0  0  0  0  0  0  0  0  0  0  0
    8.8120    3.4545   -5.3954 C   0  0  0  0  0  0  0  0  0  0  0  0
    8.8374    4.2812   -6.5299 C   0  0  0  0  0  0  0  0  0  0  0  0
    8.0238    4.1354   -7.6059 O   0  0  0  0  0  0  0  0  0  0  0  0
    7.0782    3.0782   -7.6423 C   0  0  0  0  0  0  0  0  0  0  0  0
    6.3284    3.1448   -8.9644 C   0  0  0  0  0  0  0  0  0  0  0  0
    7.2093    2.9214  -10.1974 C   0  0  0  0  0  0  0  0  0  0  0  0
    6.4385    3.0160  -11.5143 C   0  0  0  0  0  0  0  0  0  0  0  0
    9.7618    5.3386   -6.5859 C   0  0  0  0  0  0  0  0  0  0  0  0
   10.6370    5.5688   -5.5311 C   0  0  0  0  0  0  0  0  0  0  0  0
   14.1402    5.1067   -5.6689 B   0  0  2  0  0  0  0  0  0  0  0  0
   13.8261    6.3728   -6.1411 F   0  0  0  0  0  0  0  0  0  0  0  0
   13.3842    4.1373   -6.2868 F   0  0  0  0  0  0  0  0  0  0  0  0
   15.6877    4.8180   -6.0475 N   0  0  0  0  0  0  0  0  0  0  0  0
   15.9594    4.6156   -7.3309 C   0  0  0  0  0  0  0  0  0  0  0  0
   17.2373    4.5968   -7.8883 C   0  0  0  0  0  0  0  0  0  0  0  0
   17.6057    4.4775   -9.2621 C   0  0  0  0  0  0  0  0  0  0  0  0
   18.9864    4.5626   -9.2369 C   0  0  0  0  0  0  0  0  0  0  0  0
   20.0293    4.5381  -10.0957 O   0  0  0  0  0  0  0  0  0  0  0  0
   21.1708    4.6575   -9.3204 C   0  0  0  0  0  0  0  0  0  0  0  0
   22.4186    4.5815  -10.0730 C   0  0  0  0  0  0  0  0  0  0  0  0
   23.6335    4.1951   -9.4767 C   0  0  0  0  0  0  0  0  0  0  0  0
   24.8108    4.1014  -10.2187 C   0  0  0  0  0  0  0  0  0  0  0  0
   24.8016    4.3926  -11.5937 C   0  0  0  0  0  0  0  0  0  0  0  0
   25.8866    4.3337  -12.3987 O   0  0  0  0  0  0  0  0  0  0  0  0
   27.1503    3.9545  -11.8684 C   0  0  0  0  0  0  0  0  0  0  0  0
   28.1755    3.9875  -12.9913 C   0  0  0  0  0  0  0  0  0  0  0  0
   28.4083    5.3783  -13.5897 C   0  0  0  0  0  0  0  0  0  0  0  0
   29.4281    5.3808  -14.7286 C   0  0  0  0  0  0  0  0  0  0  0  0
   23.5904    4.7677  -12.2052 C   0  0  0  0  0  0  0  0  0  0  0  0
   22.4240    4.8565  -11.4608 C   0  0  0  0  0  0  0  0  0  0  0  0
   20.8719    4.7954   -7.9615 C   0  0  0  0  0  0  0  0  0  0  0  0
   21.8075    5.0381   -6.8396 C   0  0  0  0  0  0  0  0  0  0  0  0
   22.7254    6.0982   -6.8788 C   0  0  0  0  0  0  0  0  0  0  0  0
   23.6102    6.3424   -5.8247 C   0  0  0  0  0  0  0  0  0  0  0  0
   23.5844    5.5173   -4.6891 C   0  0  0  0  0  0  0  0  0  0  0  0
   24.3961    5.6659   -3.6120 O   0  0  0  0  0  0  0  0  0  0  0  0
   25.3439    6.7212   -3.5779 C   0  0  0  0  0  0  0  0  0  0  0  0
   26.1092    6.6419   -2.2655 C   0  0  0  0  0  0  0  0  0  0  0  0
   26.9381    5.3647   -2.0983 C   0  0  0  0  0  0  0  0  0  0  0  0
   27.6794    5.2972   -0.7629 C   0  0  0  0  0  0  0  0  0  0  0  0
   22.6591    4.4608   -4.6312 C   0  0  0  0  0  0  0  0  0  0  0  0
   21.7841    4.2292   -5.6858 C   0  0  0  0  0  0  0  0  0  0  0  0
   19.4412    4.7172   -7.9113 C   0  0  0  0  0  0  0  0  0  0  0  0
   18.3691    4.7484   -7.0816 N   0  0  0  0  0  0  0  0  0  0  0  0
   18.2817    4.6917   -5.5499 B   0  0  1  0  0  0  0  0  0  0  0  0
   18.5959    3.4258   -5.0771 F   0  0  0  0  0  0  0  0  0  0  0  0
   19.0378    5.6612   -4.9324 F   0  0  0  0  0  0  0  0  0  0  0  0
   16.7343    4.9806   -5.1718 N   0  0  0  0  0  0  0  0  0  0  0  0
   16.4625    5.1823   -3.8881 C   0  0  0  0  0  0  0  0  0  0  0  0
    9.9988    4.9263    0.2420 C   0  0  0  0  0  0  0  0  0  0  0  0
    8.8323    5.0113    0.9867 C   0  0  0  0  0  0  0  0  0  0  0  0
    0.8188    6.4361    2.1087 H   0  0  0  0  0  0  0  0  0  0  0  0
    2.0984    6.8434    3.2753 H   0  0  0  0  0  0  0  0  0  0  0  0
    1.7426    5.1418    2.9061 H   0  0  0  0  0  0  0  0  0  0  0  0
    2.8732    7.1924    0.8871 H   0  0  0  0  0  0  0  0  0  0  0  0
    2.5201    5.5045    0.5205 H   0  0  0  0  0  0  0  0  0  0  0  0
    4.2472    4.7728    2.2178 H   0  0  0  0  0  0  0  0  0  0  0  0
    4.6008    6.4641    2.5854 H   0  0  0  0  0  0  0  0  0  0  0  0
    5.3355    6.8347    0.2152 H   0  0  0  0  0  0  0  0  0  0  0  0
    4.9787    5.1271   -0.1563 H   0  0  0  0  0  0  0  0  0  0  0  0
    6.6953    5.9975   -1.4978 H   0  0  0  0  0  0  0  0  0  0  0  0
    8.7613    5.8486   -2.7992 H   0  0  0  0  0  0  0  0  0  0  0  0
   15.4982    5.4289   -1.1170 H   0  0  0  0  0  0  0  0  0  0  0  0
    9.6737    3.0391   -3.4694 H   0  0  0  0  0  0  0  0  0  0  0  0
    8.1193    2.6160   -5.3244 H   0  0  0  0  0  0  0  0  0  0  0  0
    6.3741    3.1722   -6.7940 H   0  0  0  0  0  0  0  0  0  0  0  0
    7.5959    2.1048   -7.5388 H   0  0  0  0  0  0  0  0  0  0  0  0
    5.8288    4.1274   -9.0337 H   0  0  0  0  0  0  0  0  0  0  0  0
    5.5243    2.3877   -8.9328 H   0  0  0  0  0  0  0  0  0  0  0  0
    7.6936    1.9306  -10.1203 H   0  0  0  0  0  0  0  0  0  0  0  0
    8.0270    3.6607  -10.1867 H   0  0  0  0  0  0  0  0  0  0  0  0
    5.6301    2.2669  -11.5646 H   0  0  0  0  0  0  0  0  0  0  0  0
    7.0989    2.8502  -12.3803 H   0  0  0  0  0  0  0  0  0  0  0  0
    5.9744    4.0091  -11.6363 H   0  0  0  0  0  0  0  0  0  0  0  0
    9.7802    5.9659   -7.4793 H   0  0  0  0  0  0  0  0  0  0  0  0
   11.3590    6.3840   -5.6069 H   0  0  0  0  0  0  0  0  0  0  0  0
   15.0808    4.4880   -7.9643 H   0  0  0  0  0  0  0  0  0  0  0  0
   16.9242    4.3655  -10.1016 H   0  0  0  0  0  0  0  0  0  0  0  0
   23.6614    3.9464   -8.4160 H   0  0  0  0  0  0  0  0  0  0  0  0
   25.7268    3.7910   -9.7165 H   0  0  0  0  0  0  0  0  0  0  0  0
   27.0842    2.9399  -11.4337 H   0  0  0  0  0  0  0  0  0  0  0  0
   27.4396    4.6491  -11.0565 H   0  0  0  0  0  0  0  0  0  0  0  0
   27.8510    3.2879  -13.7818 H   0  0  0  0  0  0  0  0  0  0  0  0
   29.1232    3.5859  -12.5901 H   0  0  0  0  0  0  0  0  0  0  0  0
   28.7427    6.0642  -12.7897 H   0  0  0  0  0  0  0  0  0  0  0  0
   27.4445    5.7760  -13.9482 H   0  0  0  0  0  0  0  0  0  0  0  0
   30.4122    5.0137  -14.3910 H   0  0  0  0  0  0  0  0  0  0  0  0
   29.5736    6.3936  -15.1365 H   0  0  0  0  0  0  0  0  0  0  0  0
   29.1025    4.7322  -15.5591 H   0  0  0  0  0  0  0  0  0  0  0  0
   23.5955    4.9850  -13.2752 H   0  0  0  0  0  0  0  0  0  0  0  0
   21.4929    5.1447  -11.9504 H   0  0  0  0  0  0  0  0  0  0  0  0
   22.7492    6.7549   -7.7516 H   0  0  0  0  0  0  0  0  0  0  0  0
   24.3027    7.1810   -5.8965 H   0  0  0  0  0  0  0  0  0  0  0  0
   24.8269    7.6952   -3.6654 H   0  0  0  0  0  0  0  0  0  0  0  0
   26.0377    6.6341   -4.4369 H   0  0  0  0  0  0  0  0  0  0  0  0
   25.3875    6.7317   -1.4345 H   0  0  0  0  0  0  0  0  0  0  0  0
   26.7657    7.5285   -2.2055 H   0  0  0  0  0  0  0  0  0  0  0  0
   27.6634    5.2934   -2.9299 H   0  0  0  0  0  0  0  0  0  0  0  0
   26.2703    4.4937   -2.2016 H   0  0  0  0  0  0  0  0  0  0  0  0
   28.3771    6.1437   -0.6443 H   0  0  0  0  0  0  0  0  0  0  0  0
   28.2657    4.3688   -0.6738 H   0  0  0  0  0  0  0  0  0  0  0  0
   26.9770    5.3288    0.0868 H   0  0  0  0  0  0  0  0  0  0  0  0
   22.6391    3.8360   -3.7361 H   0  0  0  0  0  0  0  0  0  0  0  0
   21.0614    3.4147   -5.6088 H   0  0  0  0  0  0  0  0  0  0  0  0
   17.3411    5.3099   -3.2547 H   0  0  0  0  0  0  0  0  0  0  0  0
   10.9301    4.6363    0.7304 H   0  0  0  0  0  0  0  0  0  0  0  0
    8.8263    4.7890    2.0556 H   0  0  0  0  0  0  0  0  0  0  0  0
  1  2  1  0
  1 71  1  0
  1 72  1  0
  1 73  1  0
  2  3  1  0
  2 74  1  0
  2 75  1  0
  3  4  1  0
  3 76  1  0
  3 77  1  0
  4  5  1  0
  4 78  1  0
  4 79  1  0
  5  6  1  0
  6  7  2  0
  6 70  1  0
  7  8  1  0
  7 80  1  0
  8  9  2  0
  8 81  1  0
  9 10  1  0
  9 69  1  0
 10 11  1  0
 10 17  2  0
 11 12  1  0
 12 13  1  0
 12 16  2  0
 13 14  2  0
 13 82  1  0
 14 15  1  0
 14 68  1  0
 15 16  1  0
 15 29  1  0
 16 17  1  0
 17 18  1  0
 18 19  2  0
 18 28  1  0
 19 20  1  0
 19 83  1  0
 20 21  2  0
 20 84  1  0
 21 22  1  0
 21 27  1  0
 22 23  1  0
 23 24  1  0
 23 85  1  0
 23 86  1  0
 24 25  1  0
 24 87  1  0
 24 88  1  0
 25 26  1  0
 25 89  1  0
 25 90  1  0
 26 91  1  0
 26 92  1  0
 26 93  1  0
 27 28  2  0
 27 94  1  0
 28 95  1  0
 29 30  1  6
 29 31  1  0
 29 32  1  0
 32 33  1  0
 32 67  1  0
 33 34  2  0
 33 96  1  0
 34 35  1  0
 34 63  1  0
 35 36  2  0
 35 97  1  0
 36 37  1  0
 36 62  1  0
 37 38  1  0
 38 39  1  0
 38 50  2  0
 39 40  2  0
 39 49  1  0
 40 41  1  0
 40 98  1  0
 41 42  2  0
 41 99  1  0
 42 43  1  0
 42 48  1  0
 43 44  1  0
 44 45  1  0
 44100  1  0
 44101  1  0
 45 46  1  0
 45102  1  0
 45103  1  0
 46 47  1  0
 46104  1  0
 46105  1  0
 47106  1  0
 47107  1  0
 47108  1  0
 48 49  2  0
 48109  1  0
 49110  1  0
 50 51  1  0
 50 62  1  0
 51 52  2  0
 51 61  1  0
 52 53  1  0
 52111  1  0
 53 54  2  0
 53112  1  0
 54 55  1  0
 54 60  1  0
 55 56  1  0
 56 57  1  0
 56113  1  0
 56114  1  0
 57 58  1  0
 57115  1  0
 57116  1  0
 58 59  1  0
 58117  1  0
 58118  1  0
 59119  1  0
 59120  1  0
 59121  1  0
 60 61  2  0
 60122  1  0
 61123  1  0
 62 63  2  0
 63 64  1  0
 64 65  1  1
 64 66  1  0
 64 67  1  0
 67 68  2  0
 68124  1  0
 69 70  2  0
 69125  1  0
 70126  1  0
M  CHG  4  29  -1  63   1  64  -1  67   1
M  END

