
     RDKit          3D

 55 59  0  0  0  0  0  0  0  0999 V2000
    1.7332  -10.7150   -0.8481 C   0  0  0  0  0  0  0  0  0  0  0  0
    2.7141   -9.6816   -1.3420 C   0  0  0  0  0  0  0  0  0  0  0  0
    3.4185   -9.8435   -2.5465 C   0  0  0  0  0  0  0  0  0  0  0  0
    4.3103   -8.8476   -2.9458 C   0  0  0  0  0  0  0  0  0  0  0  0
    4.4782   -7.7196   -2.1416 C   0  0  0  0  0  0  0  0  0  0  0  0
    3.7343   -7.6440   -0.9579 C   0  0  0  0  0  0  0  0  0  0  0  0
    3.8359   -6.4641   -0.0163 C   0  0  0  0  0  0  0  0  0  0  0  0
    4.7998   -5.5454   -0.4678 O   0  0  0  0  0  0  0  0  0  0  0  0
    4.8955   -4.3378    0.2610 C   0  0  1  0  0  0  0  0  0  0  0  0
    3.8721   -3.9445    0.4464 H   0  0  0  0  0  0  0  0  0  0  0  0
    5.6091   -4.4954    1.6098 C   0  0  0  0  0  0  0  0  0  0  0  0
    5.8415   -3.1232    2.2423 C   0  0  0  0  0  0  0  0  0  0  0  0
    6.5530   -2.2522    1.3798 O   0  0  0  0  0  0  0  0  0  0  0  0
    5.9230   -2.0260    0.1364 C   0  0  2  0  0  0  0  0  0  0  0  0
    5.6643   -3.3391   -0.6028 C   0  0  0  0  0  0  0  0  0  0  0  0
    6.7000   -0.9487   -0.6620 C   0  0  0  0  0  0  0  0  0  0  0  0
    5.5169   -0.0944   -0.6126 N   0  0  0  0  0  0  0  0  0  0  0  0
    5.4410    1.2016   -0.9939 C   0  0  0  0  0  0  0  0  0  0  0  0
    6.3778    1.7714   -1.5353 O   0  0  0  0  0  0  0  0  0  0  0  0
    4.1361    1.9592   -0.6666 C   0  0  1  0  0  0  0  0  0  0  0  0
    4.2282    2.3237    0.3701 H   0  0  0  0  0  0  0  0  0  0  0  0
    3.8662    3.1044   -1.6710 C   0  0  0  0  0  0  0  0  0  0  0  0
    2.7038    2.5517   -2.4599 C   0  0  0  0  0  0  0  0  0  0  0  0
    2.0515    2.9986   -3.6056 C   0  0  0  0  0  0  0  0  0  0  0  0
    0.9524    2.2735   -4.0923 C   0  0  0  0  0  0  0  0  0  0  0  0
    0.5173    1.1194   -3.4306 C   0  0  0  0  0  0  0  0  0  0  0  0
    1.1658    0.6571   -2.2766 C   0  0  0  0  0  0  0  0  0  0  0  0
    2.2555    1.3920   -1.8171 C   0  0  0  0  0  0  0  0  0  0  0  0
    2.9870    1.0836   -0.7053 O   0  0  0  0  0  0  0  0  0  0  0  0
    4.7181   -1.0201    0.1961 C   0  0  0  0  0  0  0  0  0  0  0  0
    2.8813   -8.5977   -0.5732 N   0  0  0  0  0  0  0  0  0  0  0  0
    1.6719  -11.5821   -1.5212 H   0  0  0  0  0  0  0  0  0  0  0  0
    0.7287  -10.2718   -0.7519 H   0  0  0  0  0  0  0  0  0  0  0  0
    2.0220  -11.0651    0.1559 H   0  0  0  0  0  0  0  0  0  0  0  0
    3.2672  -10.7374   -3.1559 H   0  0  0  0  0  0  0  0  0  0  0  0
    4.8716   -8.9503   -3.8786 H   0  0  0  0  0  0  0  0  0  0  0  0
    5.1616   -6.9131   -2.4055 H   0  0  0  0  0  0  0  0  0  0  0  0
    4.0693   -6.8534    0.9940 H   0  0  0  0  0  0  0  0  0  0  0  0
    2.8365   -5.9863    0.0582 H   0  0  0  0  0  0  0  0  0  0  0  0
    6.5765   -4.9960    1.4360 H   0  0  0  0  0  0  0  0  0  0  0  0
    5.0272   -5.1242    2.3033 H   0  0  0  0  0  0  0  0  0  0  0  0
    6.4432   -3.2066    3.1594 H   0  0  0  0  0  0  0  0  0  0  0  0
    4.8691   -2.6701    2.5279 H   0  0  0  0  0  0  0  0  0  0  0  0
    6.6354   -3.7901   -0.8691 H   0  0  0  0  0  0  0  0  0  0  0  0
    5.1194   -3.1511   -1.5409 H   0  0  0  0  0  0  0  0  0  0  0  0
    7.0129   -1.2302   -1.6807 H   0  0  0  0  0  0  0  0  0  0  0  0
    7.5638   -0.5447   -0.1106 H   0  0  0  0  0  0  0  0  0  0  0  0
    4.7706    3.2968   -2.2663 H   0  0  0  0  0  0  0  0  0  0  0  0
    3.5951    4.0408   -1.1557 H   0  0  0  0  0  0  0  0  0  0  0  0
    2.3887    3.9022   -4.1205 H   0  0  0  0  0  0  0  0  0  0  0  0
    0.4336    2.6120   -4.9922 H   0  0  0  0  0  0  0  0  0  0  0  0
   -0.3406    0.5641   -3.8188 H   0  0  0  0  0  0  0  0  0  0  0  0
    0.8354   -0.2418   -1.7527 H   0  0  0  0  0  0  0  0  0  0  0  0
    3.7821   -1.3432   -0.2816 H   0  0  0  0  0  0  0  0  0  0  0  0
    4.4968   -0.6515    1.2114 H   0  0  0  0  0  0  0  0  0  0  0  0
  1  2  1  0
  1 32  1  0
  1 33  1  0
  1 34  1  0
  2  3  2  0
  2 31  1  0
  3  4  1  0
  3 35  1  0
  4  5  2  0
  4 36  1  0
  5  6  1  0
  5 37  1  0
  6  7  1  0
  6 31  2  0
  7  8  1  0
  7 38  1  0
  7 39  1  0
  8  9  1  0
  9 10  1  1
  9 11  1  0
  9 15  1  0
 11 12  1  0
 11 40  1  0
 11 41  1  0
 12 13  1  0
 12 42  1  0
 12 43  1  0
 14 13  1  1
 14 15  1  0
 14 16  1  0
 14 30  1  0
 15 44  1  0
 15 45  1  0
 16 17  1  0
 16 46  1  0
 16 47  1  0
 17 18  1  0
 17 30  1  0
 18 19  2  0
 18 20  1  0
 20 21  1  1
 20 22  1  0
 20 29  1  0
 22 23  1  0
 22 48  1  0
 22 49  1  0
 23 24  1  0
 23 28  2  0
 24 25  2  0
 24 50  1  0
 25 26  1  0
 25 51  1  0
 26 27  2  0
 26 52  1  0
 27 28  1  0
 27 53  1  0
 28 29  1  0
 30 54  1  0
 30 55  1  0
M  END

