
     RDKit          3D

 58 59  0  0  0  0  0  0  0  0999 V2000
    9.3332   -0.7407    3.3408 C   0  0  0  0  0  0  0  0  0  0  0  0
    8.6616   -0.7504    2.2135 C   0  0  0  0  0  0  0  0  0  0  0  0
    7.9628   -0.7230    1.0911 C   0  0  0  0  0  0  0  0  0  0  0  0
    8.4521   -1.0619   -0.1392 O   0  0  0  0  0  0  0  0  0  0  0  0
    9.8083   -1.4562   -0.2158 C   0  0  0  0  0  0  0  0  0  0  0  0
    6.4710   -0.4058    1.0471 C   0  0  1  0  0  0  0  0  0  0  0  0
    6.0119   -1.2835    0.5476 H   0  0  0  0  0  0  0  0  0  0  0  0
    5.9449   -0.2501    2.3448 O   0  0  0  0  0  0  0  0  0  0  0  0
    6.0142    0.8295    0.2161 C   0  0  2  0  0  0  0  0  0  0  0  0
    4.9259    0.8216    0.3759 H   0  0  0  0  0  0  0  0  0  0  0  0
    6.2597    0.7150   -1.3063 C   0  0  0  0  0  0  0  0  0  0  0  0
    5.6300   -0.4827   -2.0470 C   0  0  1  0  0  0  0  0  0  0  0  0
    4.1099   -0.5760   -1.8568 C   0  0  0  0  0  0  0  0  0  0  0  0
    5.9856   -0.4158   -3.5388 C   0  0  0  0  0  0  0  0  0  0  0  0
    6.4669    2.0995    0.7948 N   0  0  0  0  0  0  0  0  0  0  0  0
    7.8449    2.4955    0.5353 C   0  0  0  0  0  0  0  0  0  0  0  0
    8.4681    3.3013    1.6647 C   0  0  0  0  0  0  0  0  0  0  0  0
    8.2361    2.9496    3.0046 C   0  0  0  0  0  0  0  0  0  0  0  0
    8.8511    3.6560    4.0413 C   0  0  0  0  0  0  0  0  0  0  0  0
    9.7078    4.7259    3.7574 C   0  0  0  0  0  0  0  0  0  0  0  0
    9.9415    5.0861    2.4277 C   0  0  0  0  0  0  0  0  0  0  0  0
    9.3222    4.3791    1.3914 C   0  0  0  0  0  0  0  0  0  0  0  0
    5.5471    3.2192    0.6314 C   0  0  0  0  0  0  0  0  0  0  0  0
    4.1786    3.0638    1.2698 C   0  0  0  0  0  0  0  0  0  0  0  0
    4.0097    2.4248    2.5086 C   0  0  0  0  0  0  0  0  0  0  0  0
    2.7499    2.3658    3.1102 C   0  0  0  0  0  0  0  0  0  0  0  0
    1.6383    2.9451    2.4895 C   0  0  0  0  0  0  0  0  0  0  0  0
    1.7943    3.5774    1.2531 C   0  0  0  0  0  0  0  0  0  0  0  0
    3.0541    3.6298    0.6490 C   0  0  0  0  0  0  0  0  0  0  0  0
    9.4041   -1.6274    3.9858 H   0  0  0  0  0  0  0  0  0  0  0  0
    9.8548    0.1599    3.6922 H   0  0  0  0  0  0  0  0  0  0  0  0
   10.0104   -1.6915   -1.2693 H   0  0  0  0  0  0  0  0  0  0  0  0
    9.9994   -2.3483    0.4064 H   0  0  0  0  0  0  0  0  0  0  0  0
   10.4823   -0.6482    0.1186 H   0  0  0  0  0  0  0  0  0  0  0  0
    6.3156   -0.9431    2.9079 H   0  0  0  0  0  0  0  0  0  0  0  0
    7.3410    0.7091   -1.5072 H   0  0  0  0  0  0  0  0  0  0  0  0
    5.8643    1.6408   -1.7634 H   0  0  0  0  0  0  0  0  0  0  0  0
    6.0856   -1.4064   -1.6485 H   0  0  0  0  0  0  0  0  0  0  0  0
    3.6113    0.3488   -2.1957 H   0  0  0  0  0  0  0  0  0  0  0  0
    3.8240   -0.7379   -0.8057 H   0  0  0  0  0  0  0  0  0  0  0  0
    3.6906   -1.4114   -2.4409 H   0  0  0  0  0  0  0  0  0  0  0  0
    5.5566    0.4865   -4.0085 H   0  0  0  0  0  0  0  0  0  0  0  0
    5.5964   -1.2909   -4.0844 H   0  0  0  0  0  0  0  0  0  0  0  0
    7.0767   -0.3826   -3.6914 H   0  0  0  0  0  0  0  0  0  0  0  0
    7.9493    3.0712   -0.4109 H   0  0  0  0  0  0  0  0  0  0  0  0
    8.4468    1.5859    0.3960 H   0  0  0  0  0  0  0  0  0  0  0  0
    7.5626    2.1162    3.2159 H   0  0  0  0  0  0  0  0  0  0  0  0
    8.6582    3.3725    5.0799 H   0  0  0  0  0  0  0  0  0  0  0  0
   10.1854    5.2799    4.5698 H   0  0  0  0  0  0  0  0  0  0  0  0
   10.6018    5.9258    2.1947 H   0  0  0  0  0  0  0  0  0  0  0  0
    9.5031    4.6717    0.3523 H   0  0  0  0  0  0  0  0  0  0  0  0
    5.4080    3.4942   -0.4394 H   0  0  0  0  0  0  0  0  0  0  0  0
    6.0345    4.0958    1.0937 H   0  0  0  0  0  0  0  0  0  0  0  0
    4.8689    1.9449    2.9784 H   0  0  0  0  0  0  0  0  0  0  0  0
    2.6348    1.8593    4.0726 H   0  0  0  0  0  0  0  0  0  0  0  0
    0.6543    2.8975    2.9636 H   0  0  0  0  0  0  0  0  0  0  0  0
    0.9322    4.0269    0.7528 H   0  0  0  0  0  0  0  0  0  0  0  0
    3.1676    4.1221   -0.3219 H   0  0  0  0  0  0  0  0  0  0  0  0
  1  2  2  0
  1 30  1  0
  1 31  1  0
  2  3  2  0
  3  4  1  0
  3  6  1  0
  4  5  1  0
  5 32  1  0
  5 33  1  0
  5 34  1  0
  6  7  1  6
  6  8  1  0
  6  9  1  0
  8 35  1  0
  9 10  1  6
  9 11  1  0
  9 15  1  0
 11 12  1  0
 11 36  1  0
 11 37  1  0
 12 13  1  0
 12 14  1  0
 12 38  1  1
 13 39  1  0
 13 40  1  0
 13 41  1  0
 14 42  1  0
 14 43  1  0
 14 44  1  0
 15 16  1  0
 15 23  1  0
 16 17  1  0
 16 45  1  0
 16 46  1  0
 17 18  2  0
 17 22  1  0
 18 19  1  0
 18 47  1  0
 19 20  2  0
 19 48  1  0
 20 21  1  0
 20 49  1  0
 21 22  2  0
 21 50  1  0
 22 51  1  0
 23 24  1  0
 23 52  1  0
 23 53  1  0
 24 25  2  0
 24 29  1  0
 25 26  1  0
 25 54  1  0
 26 27  2  0
 26 55  1  0
 27 28  1  0
 27 56  1  0
 28 29  2  0
 28 57  1  0
 29 58  1  0
M  END

