
     RDKit          3D

 43 45  0  0  0  0  0  0  0  0999 V2000
    5.0107   -3.3227    0.5775 C   0  0  0  0  0  0  0  0  0  0  0  0
    3.7662   -2.7945   -0.1566 C   0  0  1  0  0  0  0  0  0  0  0  0
    3.1342   -1.6878    0.5686 N   0  0  0  0  0  0  0  0  0  0  0  0
    2.3225   -2.0516    1.7201 C   0  0  2  0  0  0  0  0  0  0  0  0
    0.8905   -2.6346    1.4372 C   0  0  0  0  0  0  0  0  0  0  0  0
   -0.0331   -1.7326    2.2839 C   0  0  2  0  0  0  0  0  0  0  0  0
   -0.1019   -0.3589    1.5786 C   0  0  0  0  0  0  0  0  0  0  0  0
    1.3098    0.2407    1.8493 C   0  0  0  0  0  0  0  0  0  0  0  0
    2.0314   -0.8534    2.6824 C   0  0  2  0  0  0  0  0  0  0  0  0
    3.2712   -0.3591    3.4120 C   0  0  0  0  0  0  0  0  0  0  0  0
    0.8412   -1.4295    3.5424 C   0  0  1  0  0  0  0  0  0  0  0  0
    0.2102   -0.4142    4.5118 C   0  0  0  0  0  0  0  0  0  0  0  0
    1.1838   -2.6752    4.3796 C   0  0  0  0  0  0  0  0  0  0  0  0
    4.1004   -2.3561   -1.5678 C   0  0  0  0  0  0  0  0  0  0  0  0
    3.4688   -3.2813   -2.9045 S   0  0  0  0  0  0  0  0  0  0  0  0
    4.2244   -2.2636   -4.0780 C   0  0  0  0  0  0  0  0  0  0  0  0
    4.9292   -1.2521   -3.4829 C   0  0  0  0  0  0  0  0  0  0  0  0
    4.8552   -1.3108   -2.0552 C   0  0  0  0  0  0  0  0  0  0  0  0
    5.7601   -0.0177   -0.9963 Br  0  0  0  0  0  0  0  0  0  0  0  0
    4.7511   -3.6662    1.5907 H   0  0  0  0  0  0  0  0  0  0  0  0
    5.7708   -2.5339    0.6673 H   0  0  0  0  0  0  0  0  0  0  0  0
    5.4430   -4.1765    0.0333 H   0  0  0  0  0  0  0  0  0  0  0  0
    3.0652   -3.6521   -0.2635 H   0  0  0  0  0  0  0  0  0  0  0  0
    2.5961   -1.1258   -0.0865 H   0  0  0  0  0  0  0  0  0  0  0  0
    2.9093   -2.7891    2.2864 H   0  0  0  0  0  0  0  0  0  0  0  0
    0.8100   -3.6935    1.7265 H   0  0  0  0  0  0  0  0  0  0  0  0
    0.6409   -2.5792    0.3649 H   0  0  0  0  0  0  0  0  0  0  0  0
   -1.0195   -2.1750    2.4958 H   0  0  0  0  0  0  0  0  0  0  0  0
   -0.8986    0.2730    1.9990 H   0  0  0  0  0  0  0  0  0  0  0  0
   -0.3217   -0.4681    0.5049 H   0  0  0  0  0  0  0  0  0  0  0  0
    1.2504    1.1793    2.4207 H   0  0  0  0  0  0  0  0  0  0  0  0
    1.8673    0.4871    0.9337 H   0  0  0  0  0  0  0  0  0  0  0  0
    4.0380   -0.0544    2.6828 H   0  0  0  0  0  0  0  0  0  0  0  0
    3.7121   -1.1477    4.0442 H   0  0  0  0  0  0  0  0  0  0  0  0
    3.0480    0.5066    4.0568 H   0  0  0  0  0  0  0  0  0  0  0  0
   -0.0552    0.5443    4.0470 H   0  0  0  0  0  0  0  0  0  0  0  0
    0.8971   -0.1950    5.3454 H   0  0  0  0  0  0  0  0  0  0  0  0
   -0.7106   -0.8320    4.9521 H   0  0  0  0  0  0  0  0  0  0  0  0
    1.6215   -3.5017    3.8042 H   0  0  0  0  0  0  0  0  0  0  0  0
    0.2739   -3.0653    4.8650 H   0  0  0  0  0  0  0  0  0  0  0  0
    1.8941   -2.4211    5.1832 H   0  0  0  0  0  0  0  0  0  0  0  0
    4.1095   -2.4656   -5.1420 H   0  0  0  0  0  0  0  0  0  0  0  0
    5.4873   -0.4872   -4.0231 H   0  0  0  0  0  0  0  0  0  0  0  0
  1  2  1  0
  1 20  1  0
  1 21  1  0
  1 22  1  0
  2  3  1  0
  2 14  1  0
  2 23  1  6
  3  4  1  0
  3 24  1  0
  4  5  1  0
  4  9  1  0
  4 25  1  1
  5  6  1  0
  5 26  1  0
  5 27  1  0
  6  7  1  0
  6 11  1  0
  6 28  1  1
  7  8  1  0
  7 29  1  0
  7 30  1  0
  8  9  1  0
  8 31  1  0
  8 32  1  0
  9 10  1  1
  9 11  1  0
 10 33  1  0
 10 34  1  0
 10 35  1  0
 11 12  1  1
 11 13  1  0
 12 36  1  0
 12 37  1  0
 12 38  1  0
 13 39  1  0
 13 40  1  0
 13 41  1  0
 14 15  1  0
 14 18  2  0
 15 16  1  0
 16 17  2  0
 16 42  1  0
 17 18  1  0
 17 43  1  0
 18 19  1  0
M  END

