
     RDKit          3D

 46 46  0  0  0  0  0  0  0  0999 V2000
    5.7158    1.5802    1.7363 C   0  0  0  0  0  0  0  0  0  0  0  0
    4.6319    0.7224    2.0076 O   0  0  0  0  0  0  0  0  0  0  0  0
    4.0930    0.0517    0.8981 C   0  0  0  0  0  0  0  0  0  0  0  0
    4.9249   -1.1393    0.3932 C   0  0  0  0  0  0  0  0  0  0  0  0
    5.1657   -2.1753    1.4029 N   0  0  0  0  0  0  0  0  0  0  0  0
    4.1675   -3.2421    1.5660 C   0  0  0  0  0  0  0  0  0  0  0  0
    3.0907   -3.0116    2.6219 C   0  0  0  0  0  0  0  0  0  0  0  0
    2.0832   -2.1629    2.1159 O   0  0  0  0  0  0  0  0  0  0  0  0
    1.0695   -1.8791    3.0457 C   0  0  0  0  0  0  0  0  0  0  0  0
    6.3453   -2.1106    2.0747 C   0  0  0  0  0  0  0  0  0  0  0  0
    7.2266   -1.2901    1.8182 O   0  0  0  0  0  0  0  0  0  0  0  0
    6.6249   -3.1124    3.2347 C   0  0  0  0  0  0  0  0  0  0  0  0
    5.7915   -3.8423    3.7530 O   0  0  0  0  0  0  0  0  0  0  0  0
    7.9227   -3.0384    3.6032 N   0  0  0  0  0  0  0  0  0  0  0  0
    8.4889   -3.7707    4.7212 C   0  0  1  0  0  0  0  0  0  0  0  0
    9.8588   -4.3424    4.3224 C   0  0  0  0  0  0  0  0  0  0  0  0
    8.5761   -2.9379    6.0026 C   0  0  0  0  0  0  0  0  0  0  0  0
    8.7425   -3.5912    7.2346 C   0  0  0  0  0  0  0  0  0  0  0  0
    8.8641   -2.8657    8.4211 C   0  0  0  0  0  0  0  0  0  0  0  0
    8.8192   -1.4676    8.3964 C   0  0  0  0  0  0  0  0  0  0  0  0
    8.6457   -0.8078    7.1779 C   0  0  0  0  0  0  0  0  0  0  0  0
    8.5235   -1.5376    5.9903 C   0  0  0  0  0  0  0  0  0  0  0  0
    5.9261    2.1424    2.6587 H   0  0  0  0  0  0  0  0  0  0  0  0
    5.4681    2.3070    0.9355 H   0  0  0  0  0  0  0  0  0  0  0  0
    6.6276    1.0254    1.4532 H   0  0  0  0  0  0  0  0  0  0  0  0
    3.9501    0.7459    0.0420 H   0  0  0  0  0  0  0  0  0  0  0  0
    3.1070   -0.3190    1.2098 H   0  0  0  0  0  0  0  0  0  0  0  0
    5.9036   -0.8023    0.0265 H   0  0  0  0  0  0  0  0  0  0  0  0
    4.3846   -1.5986   -0.4504 H   0  0  0  0  0  0  0  0  0  0  0  0
    4.6823   -4.1768    1.8082 H   0  0  0  0  0  0  0  0  0  0  0  0
    3.6673   -3.3703    0.5929 H   0  0  0  0  0  0  0  0  0  0  0  0
    3.5453   -2.5986    3.5401 H   0  0  0  0  0  0  0  0  0  0  0  0
    2.6567   -3.9973    2.8909 H   0  0  0  0  0  0  0  0  0  0  0  0
    0.3397   -1.2164    2.5580 H   0  0  0  0  0  0  0  0  0  0  0  0
    1.4645   -1.3698    3.9470 H   0  0  0  0  0  0  0  0  0  0  0  0
    0.5459   -2.7994    3.3755 H   0  0  0  0  0  0  0  0  0  0  0  0
    8.4681   -2.3404    3.1011 H   0  0  0  0  0  0  0  0  0  0  0  0
    7.7926   -4.6023    4.9131 H   0  0  0  0  0  0  0  0  0  0  0  0
   10.5651   -3.5304    4.0824 H   0  0  0  0  0  0  0  0  0  0  0  0
    9.7640   -4.9957    3.4413 H   0  0  0  0  0  0  0  0  0  0  0  0
   10.2937   -4.9264    5.1465 H   0  0  0  0  0  0  0  0  0  0  0  0
    8.7685   -4.6848    7.2669 H   0  0  0  0  0  0  0  0  0  0  0  0
    8.9873   -3.3937    9.3704 H   0  0  0  0  0  0  0  0  0  0  0  0
    8.9112   -0.8972    9.3242 H   0  0  0  0  0  0  0  0  0  0  0  0
    8.5989    0.2840    7.1474 H   0  0  0  0  0  0  0  0  0  0  0  0
    8.3664   -1.0074    5.0484 H   0  0  0  0  0  0  0  0  0  0  0  0
  1  2  1  0
  1 23  1  0
  1 24  1  0
  1 25  1  0
  2  3  1  0
  3  4  1  0
  3 26  1  0
  3 27  1  0
  4  5  1  0
  4 28  1  0
  4 29  1  0
  5  6  1  0
  5 10  1  0
  6  7  1  0
  6 30  1  0
  6 31  1  0
  7  8  1  0
  7 32  1  0
  7 33  1  0
  8  9  1  0
  9 34  1  0
  9 35  1  0
  9 36  1  0
 10 11  2  0
 10 12  1  0
 12 13  2  0
 12 14  1  0
 14 15  1  0
 14 37  1  0
 15 16  1  0
 15 17  1  0
 15 38  1  1
 16 39  1  0
 16 40  1  0
 16 41  1  0
 17 18  2  0
 17 22  1  0
 18 19  1  0
 18 42  1  0
 19 20  2  0
 19 43  1  0
 20 21  1  0
 20 44  1  0
 21 22  2  0
 21 45  1  0
 22 46  1  0
M  END

