
     RDKit          3D

 45 48  0  0  0  0  0  0  0  0999 V2000
    3.0485   -0.6793   -1.2149 O   0  0  0  0  0  0  0  0  0  0  0  0
    2.6573    0.0054   -0.2844 C   0  0  0  0  0  0  0  0  0  0  0  0
    1.4839    0.7332   -0.3012 N   0  0  0  0  0  0  0  0  0  0  0  0
    0.5526    0.8904   -1.3422 C   0  0  0  0  0  0  0  0  0  0  0  0
    0.6988    0.2746   -2.5788 C   0  0  0  0  0  0  0  0  0  0  0  0
   -0.2677    0.4643   -3.5939 C   0  0  0  0  0  0  0  0  0  0  0  0
   -1.3779    1.2532   -3.3942 C   0  0  0  0  0  0  0  0  0  0  0  0
   -1.5653    1.9041   -2.1453 C   0  0  0  0  0  0  0  0  0  0  0  0
   -2.6751    2.6784   -1.9875 N   0  0  0  0  0  0  0  0  0  0  0  0
   -2.8631    3.2958   -0.8440 C   0  0  0  0  0  0  0  0  0  0  0  0
   -1.9663    3.2071    0.2500 C   0  0  0  0  0  0  0  0  0  0  0  0
   -0.8371    2.4286    0.1151 C   0  0  0  0  0  0  0  0  0  0  0  0
   -0.5920    1.7330   -1.0996 C   0  0  0  0  0  0  0  0  0  0  0  0
    3.4373    0.0966    1.0021 C   0  0  0  0  0  0  0  0  0  0  0  0
    3.3315    1.1625    1.9134 C   0  0  0  0  0  0  0  0  0  0  0  0
    4.0999    1.1856    3.0766 C   0  0  0  0  0  0  0  0  0  0  0  0
    4.9970    0.1416    3.3597 C   0  0  0  0  0  0  0  0  0  0  0  0
    5.8148    0.1632    4.6388 C   0  0  0  0  0  0  0  0  0  0  0  0
    5.0346   -0.0751    5.8453 N   0  0  0  0  0  0  0  0  0  0  0  0
    4.5229    0.9550    6.5893 C   0  0  0  0  0  0  0  0  0  0  0  0
    4.6993    2.1306    6.2972 O   0  0  0  0  0  0  0  0  0  0  0  0
    3.7334    0.5785    7.7942 C   0  0  0  0  0  0  0  0  0  0  0  0
    3.0143    1.4709    8.5594 C   0  0  0  0  0  0  0  0  0  0  0  0
    2.3476    0.8571    9.6563 C   0  0  0  0  0  0  0  0  0  0  0  0
    2.5701   -0.4978    9.7188 C   0  0  0  0  0  0  0  0  0  0  0  0
    3.6016   -1.0374    8.4441 S   0  0  0  0  0  0  0  0  0  0  0  0
    5.1145   -0.9106    2.4403 C   0  0  0  0  0  0  0  0  0  0  0  0
    4.3523   -0.9310    1.2720 C   0  0  0  0  0  0  0  0  0  0  0  0
    1.2267    1.1485    0.5828 H   0  0  0  0  0  0  0  0  0  0  0  0
    1.5652   -0.3585   -2.7508 H   0  0  0  0  0  0  0  0  0  0  0  0
   -0.1184   -0.0372   -4.5535 H   0  0  0  0  0  0  0  0  0  0  0  0
   -2.1357    1.4071   -4.1637 H   0  0  0  0  0  0  0  0  0  0  0  0
   -3.7687    3.9095   -0.7540 H   0  0  0  0  0  0  0  0  0  0  0  0
   -2.1714    3.7497    1.1753 H   0  0  0  0  0  0  0  0  0  0  0  0
   -0.1438    2.3679    0.9582 H   0  0  0  0  0  0  0  0  0  0  0  0
    2.6762    2.0126    1.7046 H   0  0  0  0  0  0  0  0  0  0  0  0
    4.0205    2.0225    3.7748 H   0  0  0  0  0  0  0  0  0  0  0  0
    6.2842    1.1492    4.7638 H   0  0  0  0  0  0  0  0  0  0  0  0
    6.6158   -0.5907    4.5838 H   0  0  0  0  0  0  0  0  0  0  0  0
    4.7141   -1.0201    6.0232 H   0  0  0  0  0  0  0  0  0  0  0  0
    2.9844    2.5329    8.3150 H   0  0  0  0  0  0  0  0  0  0  0  0
    1.7280    1.3948   10.3754 H   0  0  0  0  0  0  0  0  0  0  0  0
    2.1931   -1.2108   10.4512 H   0  0  0  0  0  0  0  0  0  0  0  0
    5.8192   -1.7242    2.6370 H   0  0  0  0  0  0  0  0  0  0  0  0
    4.4516   -1.7402    0.5463 H   0  0  0  0  0  0  0  0  0  0  0  0
  1  2  2  0
  2  3  1  0
  2 14  1  0
  3  4  1  0
  3 29  1  0
  4  5  2  0
  4 13  1  0
  5  6  1  0
  5 30  1  0
  6  7  2  0
  6 31  1  0
  7  8  1  0
  7 32  1  0
  8  9  1  0
  8 13  2  0
  9 10  2  0
 10 11  1  0
 10 33  1  0
 11 12  2  0
 11 34  1  0
 12 13  1  0
 12 35  1  0
 14 15  2  0
 14 28  1  0
 15 16  1  0
 15 36  1  0
 16 17  2  0
 16 37  1  0
 17 18  1  0
 17 27  1  0
 18 19  1  0
 18 38  1  0
 18 39  1  0
 19 20  1  0
 19 40  1  0
 20 21  2  0
 20 22  1  0
 22 23  2  0
 22 26  1  0
 23 24  1  0
 23 41  1  0
 24 25  2  0
 24 42  1  0
 25 26  1  0
 25 43  1  0
 27 28  2  0
 27 44  1  0
 28 45  1  0
M  END

