
     RDKit          3D

 66 69  0  0  0  0  0  0  0  0999 V2000
    7.5586   -0.7975   -3.9927 C   0  0  0  0  0  0  0  0  0  0  0  0
    7.8769   -0.7919   -2.4891 C   0  0  0  0  0  0  0  0  0  0  0  0
    7.9169    0.5983   -1.8927 C   0  0  0  0  0  0  0  0  0  0  0  0
    6.7549    1.2003   -1.3808 C   0  0  0  0  0  0  0  0  0  0  0  0
    6.7825    2.4917   -0.8559 C   0  0  0  0  0  0  0  0  0  0  0  0
    7.9719    3.2372   -0.8571 C   0  0  0  0  0  0  0  0  0  0  0  0
    7.9639    4.5887   -0.1859 C   0  0  0  0  0  0  0  0  0  0  0  0
    7.4962    4.7042    0.9379 O   0  0  0  0  0  0  0  0  0  0  0  0
    8.4723    5.6809   -0.8587 N   0  0  0  0  0  0  0  0  0  0  0  0
    8.9012    5.6749   -2.2380 C   0  0  0  0  0  0  0  0  0  0  0  0
   10.4383    5.6526   -2.3919 C   0  0  0  0  0  0  0  0  0  0  0  0
   11.1586    5.4308   -1.4310 O   0  0  0  0  0  0  0  0  0  0  0  0
   10.9433    5.8953   -3.6457 N   0  0  0  0  0  0  0  0  0  0  0  0
   12.4040    5.9495   -3.8218 C   0  0  0  0  0  0  0  0  0  0  0  0
   13.0040    4.6588   -4.3457 C   0  0  0  0  0  0  0  0  0  0  0  0
   13.4090    4.5411   -5.6834 C   0  0  0  0  0  0  0  0  0  0  0  0
   13.9464    3.3425   -6.1667 C   0  0  0  0  0  0  0  0  0  0  0  0
   14.0876    2.2465   -5.3128 C   0  0  0  0  0  0  0  0  0  0  0  0
   13.6938    2.3555   -3.9737 C   0  0  0  0  0  0  0  0  0  0  0  0
   13.1569    3.5512   -3.4928 C   0  0  0  0  0  0  0  0  0  0  0  0
   10.1282    6.0605   -4.8387 C   0  0  0  0  0  0  0  0  0  0  0  0
    9.8820    7.5068   -5.2107 C   0  0  0  0  0  0  0  0  0  0  0  0
   10.1385    8.6416   -4.4788 C   0  0  0  0  0  0  0  0  0  0  0  0
    9.7544    9.8450   -5.1510 C   0  0  0  0  0  0  0  0  0  0  0  0
    9.2101    9.6093   -6.3854 C   0  0  0  0  0  0  0  0  0  0  0  0
    9.1638    7.9150   -6.7470 S   0  0  0  0  0  0  0  0  0  0  0  0
    8.6244    6.9266   -0.1006 C   0  0  0  0  0  0  0  0  0  0  0  0
    7.3194    7.6935    0.1728 C   0  0  2  0  0  0  0  0  0  0  0  0
    6.6537    7.0270    0.7428 H   0  0  0  0  0  0  0  0  0  0  0  0
    6.6024    8.2814   -1.0630 C   0  0  0  0  0  0  0  0  0  0  0  0
    7.0770    9.7412   -1.0817 C   0  0  0  0  0  0  0  0  0  0  0  0
    7.2066   10.0254    0.4150 C   0  0  0  0  0  0  0  0  0  0  0  0
    7.6744    8.8173    0.9898 O   0  0  0  0  0  0  0  0  0  0  0  0
    9.1416    2.6393   -1.3511 C   0  0  0  0  0  0  0  0  0  0  0  0
    9.1093    1.3376   -1.8574 C   0  0  0  0  0  0  0  0  0  0  0  0
    7.5372   -1.8255   -4.3892 H   0  0  0  0  0  0  0  0  0  0  0  0
    8.3135   -0.2304   -4.5608 H   0  0  0  0  0  0  0  0  0  0  0  0
    6.5780   -0.3365   -4.1933 H   0  0  0  0  0  0  0  0  0  0  0  0
    8.8474   -1.2885   -2.3217 H   0  0  0  0  0  0  0  0  0  0  0  0
    7.1230   -1.3956   -1.9564 H   0  0  0  0  0  0  0  0  0  0  0  0
    5.8155    0.6392   -1.3783 H   0  0  0  0  0  0  0  0  0  0  0  0
    5.8801    2.9327   -0.4267 H   0  0  0  0  0  0  0  0  0  0  0  0
    8.4982    6.5615   -2.7535 H   0  0  0  0  0  0  0  0  0  0  0  0
    8.4796    4.7980   -2.7501 H   0  0  0  0  0  0  0  0  0  0  0  0
   12.8301    6.1937   -2.8404 H   0  0  0  0  0  0  0  0  0  0  0  0
   12.6281    6.7777   -4.5118 H   0  0  0  0  0  0  0  0  0  0  0  0
   13.3152    5.4008   -6.3542 H   0  0  0  0  0  0  0  0  0  0  0  0
   14.2592    3.2687   -7.2115 H   0  0  0  0  0  0  0  0  0  0  0  0
   14.5103    1.3103   -5.6864 H   0  0  0  0  0  0  0  0  0  0  0  0
   13.8142    1.5045   -3.2981 H   0  0  0  0  0  0  0  0  0  0  0  0
   12.8576    3.6431   -2.4458 H   0  0  0  0  0  0  0  0  0  0  0  0
    9.1708    5.5327   -4.7156 H   0  0  0  0  0  0  0  0  0  0  0  0
   10.6333    5.5400   -5.6706 H   0  0  0  0  0  0  0  0  0  0  0  0
   10.5978    8.6164   -3.4895 H   0  0  0  0  0  0  0  0  0  0  0  0
    9.8820   10.8438   -4.7309 H   0  0  0  0  0  0  0  0  0  0  0  0
    8.8340   10.3309   -7.1093 H   0  0  0  0  0  0  0  0  0  0  0  0
    9.3281    7.5765   -0.6416 H   0  0  0  0  0  0  0  0  0  0  0  0
    9.0775    6.6974    0.8741 H   0  0  0  0  0  0  0  0  0  0  0  0
    5.5110    8.2408   -0.9165 H   0  0  0  0  0  0  0  0  0  0  0  0
    6.8212    7.7352   -1.9920 H   0  0  0  0  0  0  0  0  0  0  0  0
    6.3814   10.4212   -1.5964 H   0  0  0  0  0  0  0  0  0  0  0  0
    8.0594    9.8284   -1.5751 H   0  0  0  0  0  0  0  0  0  0  0  0
    6.2234   10.3102    0.8444 H   0  0  0  0  0  0  0  0  0  0  0  0
    7.9219   10.8289    0.6548 H   0  0  0  0  0  0  0  0  0  0  0  0
   10.0869    3.1840   -1.3051 H   0  0  0  0  0  0  0  0  0  0  0  0
   10.0352    0.8836   -2.2233 H   0  0  0  0  0  0  0  0  0  0  0  0
  1  2  1  0
  1 36  1  0
  1 37  1  0
  1 38  1  0
  2  3  1  0
  2 39  1  0
  2 40  1  0
  3  4  2  0
  3 35  1  0
  4  5  1  0
  4 41  1  0
  5  6  2  0
  5 42  1  0
  6  7  1  0
  6 34  1  0
  7  8  2  0
  7  9  1  0
  9 10  1  0
  9 27  1  0
 10 11  1  0
 10 43  1  0
 10 44  1  0
 11 12  2  0
 11 13  1  0
 13 14  1  0
 13 21  1  0
 14 15  1  0
 14 45  1  0
 14 46  1  0
 15 16  2  0
 15 20  1  0
 16 17  1  0
 16 47  1  0
 17 18  2  0
 17 48  1  0
 18 19  1  0
 18 49  1  0
 19 20  2  0
 19 50  1  0
 20 51  1  0
 21 22  1  0
 21 52  1  0
 21 53  1  0
 22 23  2  0
 22 26  1  0
 23 24  1  0
 23 54  1  0
 24 25  2  0
 24 55  1  0
 25 26  1  0
 25 56  1  0
 27 28  1  0
 27 57  1  0
 27 58  1  0
 28 29  1  1
 28 30  1  0
 28 33  1  0
 30 31  1  0
 30 59  1  0
 30 60  1  0
 31 32  1  0
 31 61  1  0
 31 62  1  0
 32 33  1  0
 32 63  1  0
 32 64  1  0
 34 35  2  0
 34 65  1  0
 35 66  1  0
M  END

