
     RDKit          3D

 24 25  0  0  0  0  0  0  0  0999 V2000
    1.8513    0.3658    3.3414 O   0  0  0  0  0  0  0  0  0  0  0  0
    2.5900    0.0250    2.4614 C   0  0  0  0  0  0  0  0  0  0  0  0
    3.2642   -1.1436    2.5301 O   0  0  0  0  0  0  0  0  0  0  0  0
    2.7987    0.8366    1.1817 C   0  0  0  0  0  0  0  0  0  0  0  0
    4.2490    1.0825    0.7579 C   0  0  1  0  0  0  0  0  0  0  0  0
    4.8496   -0.1649    0.5710 F   0  0  0  0  0  0  0  0  0  0  0  0
    4.2184    1.6576   -0.4756 F   0  0  0  0  0  0  0  0  0  0  0  0
    5.0939    1.9085    1.7047 C   0  0  0  0  0  0  0  0  0  0  0  0
    5.3226    3.2751    1.4185 C   0  0  0  0  0  0  0  0  0  0  0  0
    6.0617    4.0830    2.2769 C   0  0  0  0  0  0  0  0  0  0  0  0
    6.5814    3.5117    3.4476 C   0  0  0  0  0  0  0  0  0  0  0  0
    7.3370    4.0760    4.4590 N   0  0  0  0  0  0  0  0  0  0  0  0
    7.5472    3.1033    5.3043 C   0  0  0  0  0  0  0  0  0  0  0  0
    6.9805    1.9085    4.9233 N   0  0  0  0  0  0  0  0  0  0  0  0
    7.0108    1.0371    5.4378 H   0  0  0  0  0  0  0  0  0  0  0  0
    6.3421    2.1377    3.7205 C   0  0  0  0  0  0  0  0  0  0  0  0
    5.6045    1.3170    2.8657 C   0  0  0  0  0  0  0  0  0  0  0  0
    3.8349   -1.2472    1.7500 H   0  0  0  0  0  0  0  0  0  0  0  0
    2.2975    1.8027    1.3173 H   0  0  0  0  0  0  0  0  0  0  0  0
    2.3091    0.3083    0.3449 H   0  0  0  0  0  0  0  0  0  0  0  0
    4.9149    3.6948    0.4982 H   0  0  0  0  0  0  0  0  0  0  0  0
    6.2415    5.1360    2.0526 H   0  0  0  0  0  0  0  0  0  0  0  0
    8.1121    3.1882    6.2345 H   0  0  0  0  0  0  0  0  0  0  0  0
    5.4344    0.2632    3.0898 H   0  0  0  0  0  0  0  0  0  0  0  0
  1  2  2  0
  2  3  1  0
  2  4  1  0
  3 18  1  0
  4  5  1  0
  4 19  1  0
  4 20  1  0
  5  6  1  6
  5  7  1  0
  5  8  1  0
  8  9  2  0
  8 17  1  0
  9 10  1  0
  9 21  1  0
 10 11  2  0
 10 22  1  0
 11 12  1  0
 11 16  1  0
 12 13  2  0
 13 14  1  0
 13 23  1  0
 14 15  1  0
 14 16  1  0
 16 17  2  0
 17 24  1  0
M  END

