
     RDKit          3D

 44 46  0  0  0  0  0  0  0  0999 V2000
    3.6336   -0.5203    1.5271 C   0  0  0  0  0  0  0  0  0  0  0  0
    2.8265   -0.4070    0.3268 N   0  0  0  0  0  0  0  0  0  0  0  0
    2.9362   -1.4849   -0.6575 C   0  0  1  0  0  0  0  0  0  0  0  0
    2.5395   -2.8513   -0.1163 C   0  0  0  0  0  0  0  0  0  0  0  0
    3.4460   -3.6487    0.6010 C   0  0  0  0  0  0  0  0  0  0  0  0
    3.1001   -4.9148    1.0740 C   0  0  0  0  0  0  0  0  0  0  0  0
    1.8182   -5.4159    0.8157 C   0  0  0  0  0  0  0  0  0  0  0  0
    0.9048   -4.6575    0.0885 C   0  0  0  0  0  0  0  0  0  0  0  0
    1.2610   -3.3818   -0.3782 C   0  0  0  0  0  0  0  0  0  0  0  0
    0.3324   -2.7304   -1.1273 O   0  0  0  0  0  0  0  0  0  0  0  0
    0.5649   -1.3598   -1.4273 C   0  0  0  0  0  0  0  0  0  0  0  0
    2.0220   -1.1263   -1.8561 C   0  0  1  0  0  0  0  0  0  0  0  0
    2.3072    0.2163   -2.3920 N   0  0  0  0  0  0  0  0  0  0  0  0
    1.3202    1.2617   -2.1083 C   0  0  0  0  0  0  0  0  0  0  0  0
    1.8769    2.6364   -2.4519 C   0  0  0  0  0  0  0  0  0  0  0  0
    2.3157    2.6844   -3.7917 O   0  0  0  0  0  0  0  0  0  0  0  0
    3.3264    1.7307   -4.0147 C   0  0  0  0  0  0  0  0  0  0  0  0
    2.8630    0.2749   -3.7728 C   0  0  1  0  0  0  0  0  0  0  0  0
    4.1161   -0.6059   -3.8964 C   0  0  0  0  0  0  0  0  0  0  0  0
    1.8252   -0.1231   -4.8450 C   0  0  0  0  0  0  0  0  0  0  0  0
    3.5479    0.4113    2.1085 H   0  0  0  0  0  0  0  0  0  0  0  0
    4.7164   -0.7020    1.3393 H   0  0  0  0  0  0  0  0  0  0  0  0
    3.2712   -1.3391    2.1674 H   0  0  0  0  0  0  0  0  0  0  0  0
    3.0825    0.4450   -0.1727 H   0  0  0  0  0  0  0  0  0  0  0  0
    3.9797   -1.5772   -1.0323 H   0  0  0  0  0  0  0  0  0  0  0  0
    4.4545   -3.2645    0.7775 H   0  0  0  0  0  0  0  0  0  0  0  0
    3.8261   -5.5105    1.6321 H   0  0  0  0  0  0  0  0  0  0  0  0
    1.5316   -6.4074    1.1759 H   0  0  0  0  0  0  0  0  0  0  0  0
   -0.0953   -5.0300   -0.1422 H   0  0  0  0  0  0  0  0  0  0  0  0
    0.3245   -0.7534   -0.5392 H   0  0  0  0  0  0  0  0  0  0  0  0
   -0.1376   -1.1119   -2.2342 H   0  0  0  0  0  0  0  0  0  0  0  0
    2.2162   -1.8714   -2.6424 H   0  0  0  0  0  0  0  0  0  0  0  0
    1.0753    1.2404   -1.0363 H   0  0  0  0  0  0  0  0  0  0  0  0
    0.3691    1.1271   -2.6649 H   0  0  0  0  0  0  0  0  0  0  0  0
    2.7159    2.8831   -1.7676 H   0  0  0  0  0  0  0  0  0  0  0  0
    1.0977    3.4051   -2.3344 H   0  0  0  0  0  0  0  0  0  0  0  0
    4.1946    1.9366   -3.3553 H   0  0  0  0  0  0  0  0  0  0  0  0
    3.6513    1.8462   -5.0600 H   0  0  0  0  0  0  0  0  0  0  0  0
    4.8392   -0.3737   -3.0998 H   0  0  0  0  0  0  0  0  0  0  0  0
    4.6033   -0.4273   -4.8682 H   0  0  0  0  0  0  0  0  0  0  0  0
    3.8842   -1.6794   -3.8466 H   0  0  0  0  0  0  0  0  0  0  0  0
    0.9877    0.5892   -4.8724 H   0  0  0  0  0  0  0  0  0  0  0  0
    1.4221   -1.1312   -4.6583 H   0  0  0  0  0  0  0  0  0  0  0  0
    2.2824   -0.1308   -5.8473 H   0  0  0  0  0  0  0  0  0  0  0  0
  1  2  1  0
  1 21  1  0
  1 22  1  0
  1 23  1  0
  2  3  1  0
  2 24  1  0
  3  4  1  0
  3 12  1  0
  3 25  1  6
  4  5  1  0
  4  9  2  0
  5  6  2  0
  5 26  1  0
  6  7  1  0
  6 27  1  0
  7  8  2  0
  7 28  1  0
  8  9  1  0
  8 29  1  0
  9 10  1  0
 10 11  1  0
 11 12  1  0
 11 30  1  0
 11 31  1  0
 12 13  1  0
 12 32  1  6
 13 14  1  0
 13 18  1  0
 14 15  1  0
 14 33  1  0
 14 34  1  0
 15 16  1  0
 15 35  1  0
 15 36  1  0
 16 17  1  0
 17 18  1  0
 17 37  1  0
 17 38  1  0
 18 19  1  1
 18 20  1  0
 19 39  1  0
 19 40  1  0
 19 41  1  0
 20 42  1  0
 20 43  1  0
 20 44  1  0
M  END

