
     RDKit          3D

 36 38  0  0  0  0  0  0  0  0999 V2000
    1.0393   -0.6243    0.4366 C   0  0  0  0  0  0  0  0  0  0  0  0
    2.4900   -0.7189    0.4420 N   0  0  0  0  0  0  0  0  0  0  0  0
    3.1265   -0.5718    1.7529 C   0  0  1  0  0  0  0  0  0  0  0  0
    3.0176   -1.9256    2.4941 C   0  0  0  0  0  0  0  0  0  0  0  0
    3.5037   -1.8752    4.2589 S   0  0  0  0  0  0  0  0  0  0  0  0
    1.9919   -1.3369    4.9857 C   0  0  0  0  0  0  0  0  0  0  0  0
    0.8764   -1.1020    4.3575 N   0  0  0  0  0  0  0  0  0  0  0  0
   -0.1125   -0.7100    5.2263 C   0  0  0  0  0  0  0  0  0  0  0  0
    0.2399   -0.6390    6.5445 C   0  0  0  0  0  0  0  0  0  0  0  0
    1.9106   -1.0846    6.7294 S   0  0  0  0  0  0  0  0  0  0  0  0
    4.5719   -0.1307    1.5904 C   0  0  0  0  0  0  0  0  0  0  0  0
    5.1178    0.8799    2.3967 C   0  0  0  0  0  0  0  0  0  0  0  0
    6.4551    1.2559    2.2628 C   0  0  0  0  0  0  0  0  0  0  0  0
    7.2728    0.6370    1.3143 C   0  0  0  0  0  0  0  0  0  0  0  0
    6.7292   -0.3635    0.4821 C   0  0  0  0  0  0  0  0  0  0  0  0
    5.3936   -0.7428    0.6324 C   0  0  0  0  0  0  0  0  0  0  0  0
    7.4845   -0.9815   -0.4774 O   0  0  0  0  0  0  0  0  0  0  0  0
    8.6980   -0.3169   -0.7900 C   0  0  0  0  0  0  0  0  0  0  0  0
    9.4018    0.1227    0.4831 C   0  0  0  0  0  0  0  0  0  0  0  0
    8.5816    1.0214    1.2125 O   0  0  0  0  0  0  0  0  0  0  0  0
    0.6683   -0.7253   -0.5955 H   0  0  0  0  0  0  0  0  0  0  0  0
    0.6448    0.3272    0.8556 H   0  0  0  0  0  0  0  0  0  0  0  0
    0.5918   -1.4385    1.0269 H   0  0  0  0  0  0  0  0  0  0  0  0
    2.8835   -0.0294   -0.1952 H   0  0  0  0  0  0  0  0  0  0  0  0
    2.6051    0.1846    2.3750 H   0  0  0  0  0  0  0  0  0  0  0  0
    3.6856   -2.6673    2.0331 H   0  0  0  0  0  0  0  0  0  0  0  0
    1.9895   -2.3077    2.4599 H   0  0  0  0  0  0  0  0  0  0  0  0
   -1.1062   -0.4795    4.8370 H   0  0  0  0  0  0  0  0  0  0  0  0
   -0.3696   -0.3570    7.4010 H   0  0  0  0  0  0  0  0  0  0  0  0
    4.4927    1.3719    3.1452 H   0  0  0  0  0  0  0  0  0  0  0  0
    6.8944    2.0324    2.8926 H   0  0  0  0  0  0  0  0  0  0  0  0
    5.0012   -1.5187   -0.0283 H   0  0  0  0  0  0  0  0  0  0  0  0
    8.4949    0.5648   -1.4273 H   0  0  0  0  0  0  0  0  0  0  0  0
    9.3156   -1.0264   -1.3603 H   0  0  0  0  0  0  0  0  0  0  0  0
   10.3381    0.6535    0.2562 H   0  0  0  0  0  0  0  0  0  0  0  0
    9.6396   -0.7625    1.1032 H   0  0  0  0  0  0  0  0  0  0  0  0
  1  2  1  0
  1 21  1  0
  1 22  1  0
  1 23  1  0
  2  3  1  0
  2 24  1  0
  3  4  1  0
  3 11  1  0
  3 25  1  1
  4  5  1  0
  4 26  1  0
  4 27  1  0
  5  6  1  0
  6  7  2  0
  6 10  1  0
  7  8  1  0
  8  9  2  0
  8 28  1  0
  9 10  1  0
  9 29  1  0
 11 12  2  0
 11 16  1  0
 12 13  1  0
 12 30  1  0
 13 14  2  0
 13 31  1  0
 14 15  1  0
 14 20  1  0
 15 16  2  0
 15 17  1  0
 16 32  1  0
 17 18  1  0
 18 19  1  0
 18 33  1  0
 18 34  1  0
 19 20  1  0
 19 35  1  0
 19 36  1  0
M  END

