
     RDKit          3D

 66 70  0  0  0  0  0  0  0  0999 V2000
    0.0061   -1.7465   -0.1900 C   0  0  0  0  0  0  0  0  0  0  0  0
    1.5013   -2.0697   -0.1626 C   0  0  0  0  0  0  0  0  0  0  0  0
    2.3874   -1.0281   -0.8846 C   0  0  1  0  0  0  0  0  0  0  0  0
    1.9944   -0.9529   -1.9107 H   0  0  0  0  0  0  0  0  0  0  0  0
    2.2401    0.4097   -0.4083 C   0  0  0  0  0  0  0  0  0  0  0  0
    2.2436    1.4206   -1.2665 N   0  0  0  0  0  0  0  0  0  0  0  0
    2.0795    2.5489   -0.5570 N   0  0  0  0  0  0  0  0  0  0  0  0
    1.9636    2.2855    0.6948 N   0  0  0  0  0  0  0  0  0  0  0  0
    2.0683    0.9453    0.8311 N   0  0  0  0  0  0  0  0  0  0  0  0
    1.9697    0.3841    2.1837 C   0  0  0  0  0  0  0  0  0  0  0  0
    3.1932    0.6054    3.0580 C   0  0  0  0  0  0  0  0  0  0  0  0
    3.6817    1.8982    3.3113 C   0  0  0  0  0  0  0  0  0  0  0  0
    4.7791    2.0831    4.1546 C   0  0  0  0  0  0  0  0  0  0  0  0
    5.3972    0.9847    4.7625 C   0  0  0  0  0  0  0  0  0  0  0  0
    4.9139   -0.3027    4.5195 C   0  0  0  0  0  0  0  0  0  0  0  0
    3.8183   -0.4906    3.6703 C   0  0  0  0  0  0  0  0  0  0  0  0
    3.7894   -1.3953   -1.0520 N   0  0  0  0  0  0  0  0  0  0  0  0
    4.7265   -1.3818    0.0612 C   0  0  0  0  0  0  0  0  0  0  0  0
    5.0050   -2.6913    0.7458 C   0  0  0  0  0  0  0  0  0  0  0  0
    6.1035   -3.5084    0.7575 C   0  0  0  0  0  0  0  0  0  0  0  0
    5.7730   -4.6378    1.5796 C   0  0  0  0  0  0  0  0  0  0  0  0
    4.4957   -4.4272    2.0072 C   0  0  0  0  0  0  0  0  0  0  0  0
    4.0211   -3.2516    1.5122 O   0  0  0  0  0  0  0  0  0  0  0  0
    4.1224   -2.2231   -2.1958 C   0  0  0  0  0  0  0  0  0  0  0  0
    4.5275   -1.4748   -3.4507 C   0  0  0  0  0  0  0  0  0  0  0  0
    4.5393   -0.1187   -3.5744 C   0  0  0  0  0  0  0  0  0  0  0  0
    4.9184    0.5464   -4.7970 C   0  0  0  0  0  0  0  0  0  0  0  0
    4.9282    1.9621   -4.9531 C   0  0  0  0  0  0  0  0  0  0  0  0
    4.5417    2.8640   -3.8077 C   0  0  0  0  0  0  0  0  0  0  0  0
    5.3054    2.4997   -6.1804 C   0  0  0  0  0  0  0  0  0  0  0  0
    5.6812    1.6919   -7.2768 C   0  0  0  0  0  0  0  0  0  0  0  0
    6.0801    2.3314   -8.5836 C   0  0  0  0  0  0  0  0  0  0  0  0
    5.6724    0.3089   -7.1240 C   0  0  0  0  0  0  0  0  0  0  0  0
    5.2935   -0.2656   -5.8965 C   0  0  0  0  0  0  0  0  0  0  0  0
    5.2738   -1.6366   -5.7334 N   0  0  0  0  0  0  0  0  0  0  0  0
    5.5382   -2.2314   -6.5140 H   0  0  0  0  0  0  0  0  0  0  0  0
    4.9112   -2.3283   -4.5836 C   0  0  0  0  0  0  0  0  0  0  0  0
    4.9249   -3.5544   -4.5556 O   0  0  0  0  0  0  0  0  0  0  0  0
   -0.5813   -2.5599    0.2636 H   0  0  0  0  0  0  0  0  0  0  0  0
   -0.3552   -1.6130   -1.2231 H   0  0  0  0  0  0  0  0  0  0  0  0
   -0.2354   -0.8216    0.3592 H   0  0  0  0  0  0  0  0  0  0  0  0
    1.6766   -3.0296   -0.6753 H   0  0  0  0  0  0  0  0  0  0  0  0
    1.8544   -2.2360    0.8657 H   0  0  0  0  0  0  0  0  0  0  0  0
    1.7610   -0.6859    2.0896 H   0  0  0  0  0  0  0  0  0  0  0  0
    1.0869    0.8579    2.6397 H   0  0  0  0  0  0  0  0  0  0  0  0
    3.2015    2.7565    2.8370 H   0  0  0  0  0  0  0  0  0  0  0  0
    5.1518    3.0934    4.3416 H   0  0  0  0  0  0  0  0  0  0  0  0
    6.2549    1.1338    5.4234 H   0  0  0  0  0  0  0  0  0  0  0  0
    5.3922   -1.1679    4.9853 H   0  0  0  0  0  0  0  0  0  0  0  0
    3.4564   -1.5025    3.4729 H   0  0  0  0  0  0  0  0  0  0  0  0
    4.3804   -0.6486    0.8059 H   0  0  0  0  0  0  0  0  0  0  0  0
    5.7037   -1.0070   -0.2907 H   0  0  0  0  0  0  0  0  0  0  0  0
    7.0410   -3.3242    0.2366 H   0  0  0  0  0  0  0  0  0  0  0  0
    6.4024   -5.4936    1.8146 H   0  0  0  0  0  0  0  0  0  0  0  0
    3.8139   -4.9930    2.6369 H   0  0  0  0  0  0  0  0  0  0  0  0
    3.2906   -2.9048   -2.4581 H   0  0  0  0  0  0  0  0  0  0  0  0
    4.9371   -2.9178   -1.9301 H   0  0  0  0  0  0  0  0  0  0  0  0
    4.2302    0.4820   -2.7175 H   0  0  0  0  0  0  0  0  0  0  0  0
    3.5491    2.6165   -3.4003 H   0  0  0  0  0  0  0  0  0  0  0  0
    4.5323    3.9171   -4.1230 H   0  0  0  0  0  0  0  0  0  0  0  0
    5.2521    2.7737   -2.9683 H   0  0  0  0  0  0  0  0  0  0  0  0
    5.3106    3.5869   -6.3008 H   0  0  0  0  0  0  0  0  0  0  0  0
    6.9453    3.0023   -8.4500 H   0  0  0  0  0  0  0  0  0  0  0  0
    5.2601    2.9464   -8.9909 H   0  0  0  0  0  0  0  0  0  0  0  0
    6.3480    1.5807   -9.3414 H   0  0  0  0  0  0  0  0  0  0  0  0
    5.9568   -0.3414   -7.9563 H   0  0  0  0  0  0  0  0  0  0  0  0
  1  2  1  0
  1 39  1  0
  1 40  1  0
  1 41  1  0
  2  3  1  0
  2 42  1  0
  2 43  1  0
  3  4  1  6
  3  5  1  0
  3 17  1  0
  5  6  2  0
  5  9  1  0
  6  7  1  0
  7  8  2  0
  8  9  1  0
  9 10  1  0
 10 11  1  0
 10 44  1  0
 10 45  1  0
 11 12  2  0
 11 16  1  0
 12 13  1  0
 12 46  1  0
 13 14  2  0
 13 47  1  0
 14 15  1  0
 14 48  1  0
 15 16  2  0
 15 49  1  0
 16 50  1  0
 17 18  1  0
 17 24  1  0
 18 19  1  0
 18 51  1  0
 18 52  1  0
 19 20  2  0
 19 23  1  0
 20 21  1  0
 20 53  1  0
 21 22  2  0
 21 54  1  0
 22 23  1  0
 22 55  1  0
 24 25  1  0
 24 56  1  0
 24 57  1  0
 25 26  2  0
 25 37  1  0
 26 27  1  0
 26 58  1  0
 27 28  2  0
 27 34  1  0
 28 29  1  0
 28 30  1  0
 29 59  1  0
 29 60  1  0
 29 61  1  0
 30 31  2  0
 30 62  1  0
 31 32  1  0
 31 33  1  0
 32 63  1  0
 32 64  1  0
 32 65  1  0
 33 34  2  0
 33 66  1  0
 34 35  1  0
 35 36  1  0
 35 37  1  0
 37 38  2  0
M  END

