
     RDKit          3D

 64 65  0  0  0  0  0  0  0  0999 V2000
    0.0785    1.9026   -2.4848 C   0  0  0  0  0  0  0  0  0  0  0  0
    1.5046    2.4154   -2.5229 C   0  0  0  0  0  0  0  0  0  0  0  0
    2.3821    1.3160   -2.3067 O   0  0  0  0  0  0  0  0  0  0  0  0
    3.7163    1.4919   -2.4242 C   0  0  0  0  0  0  0  0  0  0  0  0
    4.3423    2.7396   -2.5626 C   0  0  0  0  0  0  0  0  0  0  0  0
    5.7313    2.8557   -2.6648 C   0  0  0  0  0  0  0  0  0  0  0  0
    6.5422    1.7110   -2.6300 C   0  0  0  0  0  0  0  0  0  0  0  0
    7.9483    1.7421   -2.7305 N   0  0  0  0  0  0  0  0  0  0  0  0
    8.7825    2.8270   -2.8639 C   0  0  0  0  0  0  0  0  0  0  0  0
    8.3916    3.9824   -2.8929 O   0  0  0  0  0  0  0  0  0  0  0  0
   10.2616    2.4553   -2.9996 C   0  0  0  0  0  0  0  0  0  0  0  0
   11.2021    3.6539   -2.8800 C   0  0  0  0  0  0  0  0  0  0  0  0
   11.2712    4.2347   -1.4605 C   0  0  0  0  0  0  0  0  0  0  0  0
   12.1707    5.3651   -1.3390 N   0  0  0  0  0  0  0  0  0  0  0  0
   13.5095    5.2037   -1.1324 C   0  0  0  0  0  0  0  0  0  0  0  0
   14.0499    4.1288   -0.9519 O   0  0  0  0  0  0  0  0  0  0  0  0
   14.1232    6.4097   -1.1487 O   0  0  0  0  0  0  0  0  0  0  0  0
   15.5632    6.5466   -0.9314 C   0  0  1  0  0  0  0  0  0  0  0  0
   16.3349    5.8098   -2.0319 C   0  0  0  0  0  0  0  0  0  0  0  0
   15.7823    8.0575   -1.0368 C   0  0  0  0  0  0  0  0  0  0  0  0
   15.9348    6.0420    0.4674 C   0  0  0  0  0  0  0  0  0  0  0  0
    5.9244    0.4579   -2.4923 C   0  0  0  0  0  0  0  0  0  0  0  0
    4.5408    0.3457   -2.3894 C   0  0  0  0  0  0  0  0  0  0  0  0
    3.8508   -1.3187   -2.2941 S   0  0  1  0  0  0  0  0  0  0  0  0
    2.8422   -1.4744   -3.3421 O   0  0  0  0  0  0  0  0  0  0  0  0
    5.0105   -2.2203   -2.2297 O   0  0  0  0  0  0  0  0  0  0  0  0
    3.0526   -1.3741   -0.8389 N   0  0  0  0  0  0  0  0  0  0  0  0
    3.7476   -1.7482    0.4051 C   0  0  0  0  0  0  0  0  0  0  0  0
    2.6509   -2.4537    1.2165 C   0  0  0  0  0  0  0  0  0  0  0  0
    1.3598   -1.7809    0.7266 C   0  0  0  0  0  0  0  0  0  0  0  0
    1.5982   -1.6077   -0.7780 C   0  0  0  0  0  0  0  0  0  0  0  0
   -0.6233    2.7272   -2.6841 H   0  0  0  0  0  0  0  0  0  0  0  0
   -0.1622    1.4775   -1.4983 H   0  0  0  0  0  0  0  0  0  0  0  0
   -0.0705    1.1219   -3.2455 H   0  0  0  0  0  0  0  0  0  0  0  0
    1.6668    3.1854   -1.7455 H   0  0  0  0  0  0  0  0  0  0  0  0
    1.7275    2.8780   -3.5018 H   0  0  0  0  0  0  0  0  0  0  0  0
    3.7461    3.6514   -2.5900 H   0  0  0  0  0  0  0  0  0  0  0  0
    6.1959    3.8332   -2.7703 H   0  0  0  0  0  0  0  0  0  0  0  0
    8.3961    0.8328   -2.7161 H   0  0  0  0  0  0  0  0  0  0  0  0
   10.3899    1.9765   -3.9872 H   0  0  0  0  0  0  0  0  0  0  0  0
   10.5169    1.6808   -2.2537 H   0  0  0  0  0  0  0  0  0  0  0  0
   10.8704    4.4397   -3.5772 H   0  0  0  0  0  0  0  0  0  0  0  0
   12.2162    3.3462   -3.1799 H   0  0  0  0  0  0  0  0  0  0  0  0
   11.6198    3.4580   -0.7617 H   0  0  0  0  0  0  0  0  0  0  0  0
   10.2690    4.5568   -1.1405 H   0  0  0  0  0  0  0  0  0  0  0  0
   11.8410    6.2982   -1.5541 H   0  0  0  0  0  0  0  0  0  0  0  0
   16.0189    6.1667   -3.0250 H   0  0  0  0  0  0  0  0  0  0  0  0
   16.1646    4.7274   -1.9738 H   0  0  0  0  0  0  0  0  0  0  0  0
   17.4135    6.0063   -1.9265 H   0  0  0  0  0  0  0  0  0  0  0  0
   15.4737    8.4252   -2.0273 H   0  0  0  0  0  0  0  0  0  0  0  0
   16.8454    8.3012   -0.8893 H   0  0  0  0  0  0  0  0  0  0  0  0
   15.1929    8.5882   -0.2737 H   0  0  0  0  0  0  0  0  0  0  0  0
   15.7585    4.9625    0.5550 H   0  0  0  0  0  0  0  0  0  0  0  0
   15.3376    6.5626    1.2326 H   0  0  0  0  0  0  0  0  0  0  0  0
   16.9985    6.2462    0.6673 H   0  0  0  0  0  0  0  0  0  0  0  0
    6.5108   -0.4635   -2.4687 H   0  0  0  0  0  0  0  0  0  0  0  0
    4.1187   -0.8477    0.9292 H   0  0  0  0  0  0  0  0  0  0  0  0
    4.6087   -2.3970    0.1911 H   0  0  0  0  0  0  0  0  0  0  0  0
    2.8067   -2.3652    2.3021 H   0  0  0  0  0  0  0  0  0  0  0  0
    2.6334   -3.5275    0.9664 H   0  0  0  0  0  0  0  0  0  0  0  0
    1.2417   -0.7944    1.2060 H   0  0  0  0  0  0  0  0  0  0  0  0
    0.4533   -2.3674    0.9395 H   0  0  0  0  0  0  0  0  0  0  0  0
    1.0479   -0.7622   -1.2117 H   0  0  0  0  0  0  0  0  0  0  0  0
    1.3160   -2.5162   -1.3378 H   0  0  0  0  0  0  0  0  0  0  0  0
  1  2  1  0
  1 32  1  0
  1 33  1  0
  1 34  1  0
  2  3  1  0
  2 35  1  0
  2 36  1  0
  3  4  1  0
  4  5  2  0
  4 23  1  0
  5  6  1  0
  5 37  1  0
  6  7  2  0
  6 38  1  0
  7  8  1  0
  7 22  1  0
  8  9  1  0
  8 39  1  0
  9 10  2  0
  9 11  1  0
 11 12  1  0
 11 40  1  0
 11 41  1  0
 12 13  1  0
 12 42  1  0
 12 43  1  0
 13 14  1  0
 13 44  1  0
 13 45  1  0
 14 15  1  0
 14 46  1  0
 15 16  2  0
 15 17  1  0
 18 17  1  6
 18 19  1  0
 18 20  1  0
 18 21  1  0
 19 47  1  0
 19 48  1  0
 19 49  1  0
 20 50  1  0
 20 51  1  0
 20 52  1  0
 21 53  1  0
 21 54  1  0
 21 55  1  0
 22 23  2  0
 22 56  1  0
 24 23  1  6
 24 25  2  0
 24 26  2  0
 24 27  1  0
 27 28  1  0
 27 31  1  0
 28 29  1  0
 28 57  1  0
 28 58  1  0
 29 30  1  0
 29 59  1  0
 29 60  1  0
 30 31  1  0
 30 61  1  0
 30 62  1  0
 31 63  1  0
 31 64  1  0
M  END

