
     RDKit          3D

 46 47  0  0  0  0  0  0  0  0999 V2000
    1.1925   -0.8604    0.5687 C   0  0  0  0  0  0  0  0  0  0  0  0
    2.4906   -0.3972    0.9336 O   0  0  0  0  0  0  0  0  0  0  0  0
    3.1893    0.2379   -0.0236 C   0  0  0  0  0  0  0  0  0  0  0  0
    2.7654    0.4198   -1.1418 O   0  0  0  0  0  0  0  0  0  0  0  0
    4.5363    0.6876    0.4509 C   0  0  0  0  0  0  0  0  0  0  0  0
    4.9674    0.4454    1.7640 C   0  0  0  0  0  0  0  0  0  0  0  0
    6.2386    0.8835    2.1712 C   0  0  0  0  0  0  0  0  0  0  0  0
    6.7873    0.7026    3.4534 N   0  0  0  0  0  0  0  0  0  0  0  0
    6.3044    0.1295    4.5785 C   0  0  0  0  0  0  0  0  0  0  0  0
    4.8221   -0.5849    4.8570 S   0  0  0  0  0  0  0  0  0  0  0  0
    7.2075    0.1547    5.6590 N   0  0  0  0  0  0  0  0  0  0  0  0
    8.4899    0.6658    5.7340 C   0  0  0  0  0  0  0  0  0  0  0  0
    9.0188    1.2415    4.7842 O   0  0  0  0  0  0  0  0  0  0  0  0
    9.1962    0.4932    7.0356 C   0  0  0  0  0  0  0  0  0  0  0  0
    8.7570   -0.3477    8.0787 C   0  0  0  0  0  0  0  0  0  0  0  0
    9.4795   -0.4563    9.2580 C   0  0  0  0  0  0  0  0  0  0  0  0
   10.6700    0.2765    9.4329 C   0  0  0  0  0  0  0  0  0  0  0  0
   11.3000    0.1098   10.6130 O   0  0  0  0  0  0  0  0  0  0  0  0
   12.5062    0.8018   10.8686 C   0  0  0  0  0  0  0  0  0  0  0  0
   11.1239    1.1123    8.3970 C   0  0  0  0  0  0  0  0  0  0  0  0
   10.3905    1.2075    7.2161 C   0  0  0  0  0  0  0  0  0  0  0  0
    7.0553    1.5587    1.2471 C   0  0  0  0  0  0  0  0  0  0  0  0
    6.6192    1.7968   -0.0595 C   0  0  0  0  0  0  0  0  0  0  0  0
    7.5518    2.5225   -0.9763 C   0  0  0  0  0  0  0  0  0  0  0  0
    8.6519    2.9142   -0.6602 O   0  0  0  0  0  0  0  0  0  0  0  0
    7.0325    2.6962   -2.2043 O   0  0  0  0  0  0  0  0  0  0  0  0
    7.8546    3.3811   -3.1475 C   0  0  0  0  0  0  0  0  0  0  0  0
    5.3522    1.3604   -0.4649 C   0  0  0  0  0  0  0  0  0  0  0  0
    0.7780   -1.3428    1.4623 H   0  0  0  0  0  0  0  0  0  0  0  0
    1.2531   -1.5804   -0.2618 H   0  0  0  0  0  0  0  0  0  0  0  0
    0.5520   -0.0223    0.2540 H   0  0  0  0  0  0  0  0  0  0  0  0
    4.3210   -0.0776    2.4636 H   0  0  0  0  0  0  0  0  0  0  0  0
    7.7383    1.0815    3.5809 H   0  0  0  0  0  0  0  0  0  0  0  0
    6.7947   -0.2569    6.4883 H   0  0  0  0  0  0  0  0  0  0  0  0
    7.8529   -0.9538    7.9784 H   0  0  0  0  0  0  0  0  0  0  0  0
    9.1498   -1.1103   10.0671 H   0  0  0  0  0  0  0  0  0  0  0  0
   12.8245    0.5075   11.8771 H   0  0  0  0  0  0  0  0  0  0  0  0
   12.3619    1.8961   10.8423 H   0  0  0  0  0  0  0  0  0  0  0  0
   13.2954    0.5256   10.1476 H   0  0  0  0  0  0  0  0  0  0  0  0
   12.0433    1.6881    8.5018 H   0  0  0  0  0  0  0  0  0  0  0  0
   10.7364    1.8480    6.4029 H   0  0  0  0  0  0  0  0  0  0  0  0
    8.0494    1.9115    1.5327 H   0  0  0  0  0  0  0  0  0  0  0  0
    7.2765    3.4295   -4.0784 H   0  0  0  0  0  0  0  0  0  0  0  0
    8.7981    2.8383   -3.3109 H   0  0  0  0  0  0  0  0  0  0  0  0
    8.0951    4.3950   -2.7932 H   0  0  0  0  0  0  0  0  0  0  0  0
    4.9925    1.5356   -1.4779 H   0  0  0  0  0  0  0  0  0  0  0  0
  1  2  1  0
  1 29  1  0
  1 30  1  0
  1 31  1  0
  2  3  1  0
  3  4  2  0
  3  5  1  0
  5  6  2  0
  5 28  1  0
  6  7  1  0
  6 32  1  0
  7  8  1  0
  7 22  2  0
  8  9  1  0
  8 33  1  0
  9 10  2  0
  9 11  1  0
 11 12  1  0
 11 34  1  0
 12 13  2  0
 12 14  1  0
 14 15  2  0
 14 21  1  0
 15 16  1  0
 15 35  1  0
 16 17  2  0
 16 36  1  0
 17 18  1  0
 17 20  1  0
 18 19  1  0
 19 37  1  0
 19 38  1  0
 19 39  1  0
 20 21  2  0
 20 40  1  0
 21 41  1  0
 22 23  1  0
 22 42  1  0
 23 24  1  0
 23 28  2  0
 24 25  2  0
 24 26  1  0
 26 27  1  0
 27 43  1  0
 27 44  1  0
 27 45  1  0
 28 46  1  0
M  END

