
     RDKit          3D

 37 39  0  0  0  0  0  0  0  0999 V2000
    4.0255    0.5804    0.8890 C   0  0  0  0  0  0  0  0  0  0  0  0
    3.9569   -0.0931   -0.4901 C   0  0  1  0  0  0  0  0  0  0  0  0
    2.8357    0.4655   -1.2369 N   0  0  0  0  0  0  0  0  0  0  0  0
    2.4567   -0.1816   -2.5010 C   0  0  2  0  0  0  0  0  0  0  0  0
    1.3684    0.6772   -3.1659 C   0  0  0  0  0  0  0  0  0  0  0  0
    0.1463    0.8524   -2.2717 C   0  0  0  0  0  0  0  0  0  0  0  0
   -0.6897   -0.7317   -1.8804 S   0  0  0  0  0  0  0  0  0  0  0  0
    0.6314   -1.9177   -1.9712 C   0  0  0  0  0  0  0  0  0  0  0  0
    0.2573   -3.2596   -1.7657 C   0  0  0  0  0  0  0  0  0  0  0  0
    1.1836   -4.2950   -1.8667 C   0  0  0  0  0  0  0  0  0  0  0  0
    2.4993   -3.9809   -2.1967 C   0  0  0  0  0  0  0  0  0  0  0  0
    3.4072   -4.9665   -2.3148 F   0  0  0  0  0  0  0  0  0  0  0  0
    2.8918   -2.6652   -2.4098 C   0  0  0  0  0  0  0  0  0  0  0  0
    1.9736   -1.6104   -2.2844 C   0  0  0  0  0  0  0  0  0  0  0  0
    5.3002    0.0593   -1.2105 C   0  0  0  0  0  0  0  0  0  0  0  0
    6.2791   -0.9460   -1.1864 C   0  0  0  0  0  0  0  0  0  0  0  0
    7.4976   -0.7221   -1.8300 C   0  0  0  0  0  0  0  0  0  0  0  0
    7.7011    0.4972   -2.4799 C   0  0  0  0  0  0  0  0  0  0  0  0
    6.6656    1.4364   -2.4538 C   0  0  0  0  0  0  0  0  0  0  0  0
    5.5003    1.2260   -1.8388 N   0  0  0  0  0  0  0  0  0  0  0  0
    3.0638    0.4631    1.4099 H   0  0  0  0  0  0  0  0  0  0  0  0
    4.2349    1.6570    0.7782 H   0  0  0  0  0  0  0  0  0  0  0  0
    4.8253    0.1441    1.5074 H   0  0  0  0  0  0  0  0  0  0  0  0
    3.7688   -1.1670   -0.3363 H   0  0  0  0  0  0  0  0  0  0  0  0
    3.0735    1.4377   -1.4457 H   0  0  0  0  0  0  0  0  0  0  0  0
    3.3128   -0.2377   -3.2049 H   0  0  0  0  0  0  0  0  0  0  0  0
    1.0825    0.2248   -4.1293 H   0  0  0  0  0  0  0  0  0  0  0  0
    1.7864    1.6743   -3.3913 H   0  0  0  0  0  0  0  0  0  0  0  0
   -0.6235    1.4653   -2.7637 H   0  0  0  0  0  0  0  0  0  0  0  0
    0.4354    1.3341   -1.3280 H   0  0  0  0  0  0  0  0  0  0  0  0
   -0.7841   -3.4939   -1.5300 H   0  0  0  0  0  0  0  0  0  0  0  0
    0.8965   -5.3361   -1.7065 H   0  0  0  0  0  0  0  0  0  0  0  0
    3.9309   -2.4624   -2.6796 H   0  0  0  0  0  0  0  0  0  0  0  0
    6.0829   -1.8895   -0.6705 H   0  0  0  0  0  0  0  0  0  0  0  0
    8.2757   -1.4903   -1.8285 H   0  0  0  0  0  0  0  0  0  0  0  0
    8.6365    0.7177   -2.9988 H   0  0  0  0  0  0  0  0  0  0  0  0
    6.7858    2.4037   -2.9568 H   0  0  0  0  0  0  0  0  0  0  0  0
  1  2  1  0
  1 21  1  0
  1 22  1  0
  1 23  1  0
  2  3  1  0
  2 15  1  0
  2 24  1  1
  3  4  1  0
  3 25  1  0
  4  5  1  0
  4 14  1  0
  4 26  1  6
  5  6  1  0
  5 27  1  0
  5 28  1  0
  6  7  1  0
  6 29  1  0
  6 30  1  0
  7  8  1  0
  8  9  2  0
  8 14  1  0
  9 10  1  0
  9 31  1  0
 10 11  2  0
 10 32  1  0
 11 12  1  0
 11 13  1  0
 13 14  2  0
 13 33  1  0
 15 16  2  0
 15 20  1  0
 16 17  1  0
 16 34  1  0
 17 18  2  0
 17 35  1  0
 18 19  1  0
 18 36  1  0
 19 20  2  0
 19 37  1  0
M  END

