
     RDKit          3D

 82 88  0  0  0  0  0  0  0  0999 V2000
    1.2228    1.2016   -0.1184 C   0  0  0  0  0  0  0  0  0  0  0  0
    1.4842    0.7249    1.1873 O   0  0  0  0  0  0  0  0  0  0  0  0
    2.6780    0.9857    1.7730 C   0  0  0  0  0  0  0  0  0  0  0  0
    3.7305    1.7059    1.1975 C   0  0  0  0  0  0  0  0  0  0  0  0
    4.9270    1.8845    1.9018 C   0  0  0  0  0  0  0  0  0  0  0  0
    5.1111    1.3535    3.1881 C   0  0  0  0  0  0  0  0  0  0  0  0
    6.3879    1.5604    3.9310 C   0  0  0  0  0  0  0  0  0  0  0  0
    7.1119    0.4227    4.4147 C   0  0  0  0  0  0  0  0  0  0  0  0
    8.1857    0.4441    5.2624 N   0  0  0  0  0  0  0  0  0  0  0  0
    8.5058   -0.8706    5.5043 C   0  0  0  0  0  0  0  0  0  0  0  0
    9.4644   -1.3930    6.3902 C   0  0  0  0  0  0  0  0  0  0  0  0
   10.3600   -0.7322    7.2429 C   0  0  0  0  0  0  0  0  0  0  0  0
   11.2685   -1.2670    8.2077 C   0  0  0  0  0  0  0  0  0  0  0  0
   11.8855   -0.2061    8.8576 C   0  0  0  0  0  0  0  0  0  0  0  0
   11.4090    1.0067    8.2777 C   0  0  0  0  0  0  0  0  0  0  0  0
   10.4852    0.6323    7.3256 N   0  0  0  0  0  0  0  0  0  0  0  0
    9.8388    1.2484    6.8430 H   0  0  0  0  0  0  0  0  0  0  0  0
   11.7051    2.3968    8.4749 C   0  0  0  0  0  0  0  0  0  0  0  0
   11.9231    2.9662    9.8105 C   0  0  0  0  0  0  0  0  0  0  0  0
   12.5670    4.2093    9.9662 C   0  0  0  0  0  0  0  0  0  0  0  0
   12.7838    4.7686   11.2257 C   0  0  0  0  0  0  0  0  0  0  0  0
   12.3748    4.0895   12.3794 C   0  0  0  0  0  0  0  0  0  0  0  0
   12.5592    4.5265   13.6554 O   0  0  0  0  0  0  0  0  0  0  0  0
   13.2502    5.7407   13.8846 C   0  0  0  0  0  0  0  0  0  0  0  0
   11.7204    2.8439   12.2443 C   0  0  0  0  0  0  0  0  0  0  0  0
   11.2626    2.2470   13.3934 O   0  0  0  0  0  0  0  0  0  0  0  0
   11.7580    0.9692   13.7585 C   0  0  0  0  0  0  0  0  0  0  0  0
   12.8759    1.0381   14.8097 C   0  0  0  0  0  0  0  0  0  0  0  0
   13.4115    0.0367   15.2050 O   0  0  0  0  0  0  0  0  0  0  0  0
   13.1815    2.2552   15.2577 O   0  0  0  0  0  0  0  0  0  0  0  0
   11.4932    2.3042   10.9836 C   0  0  0  0  0  0  0  0  0  0  0  0
   11.5577    3.1931    7.3105 C   0  0  0  0  0  0  0  0  0  0  0  0
   10.8188    4.3232    7.2716 N   0  0  0  0  0  0  0  0  0  0  0  0
   10.3138    4.4306    6.0329 C   0  0  0  0  0  0  0  0  0  0  0  0
    9.1178    5.1319    5.7724 C   0  0  0  0  0  0  0  0  0  0  0  0
    8.0757    4.5565    5.0285 C   0  0  0  0  0  0  0  0  0  0  0  0
    6.8583    5.1357    4.5307 C   0  0  0  0  0  0  0  0  0  0  0  0
    6.0922    4.1316    3.9785 C   0  0  0  0  0  0  0  0  0  0  0  0
    6.7937    2.8876    4.1582 C   0  0  0  0  0  0  0  0  0  0  0  0
    7.9897    3.2075    4.7528 N   0  0  0  0  0  0  0  0  0  0  0  0
    8.5343    2.4444    5.1609 H   0  0  0  0  0  0  0  0  0  0  0  0
   11.0336    3.5408    5.0191 C   0  0  0  0  0  0  0  0  0  0  0  0
   12.0052    2.7661    5.9166 C   0  0  0  0  0  0  0  0  0  0  0  0
    7.6314   -1.7515    4.7465 C   0  0  0  0  0  0  0  0  0  0  0  0
    6.7637   -0.9512    4.0689 C   0  0  0  0  0  0  0  0  0  0  0  0
    4.0396    0.6384    3.7615 C   0  0  0  0  0  0  0  0  0  0  0  0
    2.8455    0.4578    3.0742 C   0  0  0  0  0  0  0  0  0  0  0  0
    1.8347   -0.2853    3.6437 O   0  0  0  0  0  0  0  0  0  0  0  0
    0.6265    0.3869    4.0016 C   0  0  0  0  0  0  0  0  0  0  0  0
   -0.5929   -0.2254    3.3060 C   0  0  0  0  0  0  0  0  0  0  0  0
   -1.7019    0.1958    3.4944 O   0  0  0  0  0  0  0  0  0  0  0  0
   -0.3231   -1.2629    2.5108 O   0  0  0  0  0  0  0  0  0  0  0  0
    0.2117    0.8594   -0.3734 H   0  0  0  0  0  0  0  0  0  0  0  0
    1.9405    0.7910   -0.8500 H   0  0  0  0  0  0  0  0  0  0  0  0
    1.2553    2.3043   -0.1613 H   0  0  0  0  0  0  0  0  0  0  0  0
    3.6341    2.1180    0.1927 H   0  0  0  0  0  0  0  0  0  0  0  0
    5.7436    2.4332    1.4279 H   0  0  0  0  0  0  0  0  0  0  0  0
    9.4940   -2.4835    6.4519 H   0  0  0  0  0  0  0  0  0  0  0  0
   11.4411   -2.3290    8.3748 H   0  0  0  0  0  0  0  0  0  0  0  0
   12.6577   -0.2666    9.6217 H   0  0  0  0  0  0  0  0  0  0  0  0
   12.9092    4.7486    9.0821 H   0  0  0  0  0  0  0  0  0  0  0  0
   13.2910    5.7307   11.3014 H   0  0  0  0  0  0  0  0  0  0  0  0
   13.2963    5.8706   14.9735 H   0  0  0  0  0  0  0  0  0  0  0  0
   12.7138    6.5963   13.4402 H   0  0  0  0  0  0  0  0  0  0  0  0
   14.2766    5.7050   13.4805 H   0  0  0  0  0  0  0  0  0  0  0  0
   12.1366    0.4032   12.8922 H   0  0  0  0  0  0  0  0  0  0  0  0
   10.9288    0.3933   14.1982 H   0  0  0  0  0  0  0  0  0  0  0  0
   12.6603    2.9419   14.7899 H   0  0  0  0  0  0  0  0  0  0  0  0
   10.9356    1.3690   10.9123 H   0  0  0  0  0  0  0  0  0  0  0  0
    8.8976    6.0411    6.3388 H   0  0  0  0  0  0  0  0  0  0  0  0
    6.6186    6.1968    4.5771 H   0  0  0  0  0  0  0  0  0  0  0  0
    5.1153    4.2337    3.5128 H   0  0  0  0  0  0  0  0  0  0  0  0
   11.5457    4.1858    4.2869 H   0  0  0  0  0  0  0  0  0  0  0  0
   10.3740    2.8874    4.4340 H   0  0  0  0  0  0  0  0  0  0  0  0
   13.0419    3.1265    5.7930 H   0  0  0  0  0  0  0  0  0  0  0  0
   12.0281    1.6854    5.7369 H   0  0  0  0  0  0  0  0  0  0  0  0
    7.6818   -2.8400    4.7461 H   0  0  0  0  0  0  0  0  0  0  0  0
    5.9720   -1.2558    3.3891 H   0  0  0  0  0  0  0  0  0  0  0  0
    4.1236    0.2159    4.7641 H   0  0  0  0  0  0  0  0  0  0  0  0
    0.6642    1.4584    3.7541 H   0  0  0  0  0  0  0  0  0  0  0  0
    0.4740    0.2950    5.0899 H   0  0  0  0  0  0  0  0  0  0  0  0
    0.6482   -1.3600    2.4904 H   0  0  0  0  0  0  0  0  0  0  0  0
  1  2  1  0
  1 53  1  0
  1 54  1  0
  1 55  1  0
  2  3  1  0
  3  4  2  0
  3 47  1  0
  4  5  1  0
  4 56  1  0
  5  6  2  0
  5 57  1  0
  6  7  1  0
  6 46  1  0
  7  8  1  0
  7 39  2  0
  8  9  2  0
  8 45  1  0
  9 10  1  0
 10 11  2  0
 10 44  1  0
 11 12  1  0
 11 58  1  0
 12 13  2  0
 12 16  1  0
 13 14  1  0
 13 59  1  0
 14 15  2  0
 14 60  1  0
 15 16  1  0
 15 18  1  0
 16 17  1  0
 18 19  1  0
 18 32  2  0
 19 20  2  0
 19 31  1  0
 20 21  1  0
 20 61  1  0
 21 22  2  0
 21 62  1  0
 22 23  1  0
 22 25  1  0
 23 24  1  0
 24 63  1  0
 24 64  1  0
 24 65  1  0
 25 26  1  0
 25 31  2  0
 26 27  1  0
 27 28  1  0
 27 66  1  0
 27 67  1  0
 28 29  2  0
 28 30  1  0
 30 68  1  0
 31 69  1  0
 32 33  1  0
 32 43  1  0
 33 34  2  0
 34 35  1  0
 34 42  1  0
 35 36  2  0
 35 70  1  0
 36 37  1  0
 36 40  1  0
 37 38  2  0
 37 71  1  0
 38 39  1  0
 38 72  1  0
 39 40  1  0
 40 41  1  0
 42 43  1  0
 42 73  1  0
 42 74  1  0
 43 75  1  0
 43 76  1  0
 44 45  2  0
 44 77  1  0
 45 78  1  0
 46 47  2  0
 46 79  1  0
 47 48  1  0
 48 49  1  0
 49 50  1  0
 49 80  1  0
 49 81  1  0
 50 51  2  0
 50 52  1  0
 52 82  1  0
M  END

