
     RDKit          3D

 47 49  0  0  0  0  0  0  0  0999 V2000
    1.8506    0.9959    1.4207 C   0  0  0  0  0  0  0  0  0  0  0  0
    2.3948    0.2346    0.2146 C   0  0  0  0  0  0  0  0  0  0  0  0
    2.9385   -1.1748    0.5562 C   0  0  2  0  0  0  0  0  0  0  0  0
    1.8399   -2.0875    1.1237 C   0  0  0  0  0  0  0  0  0  0  0  0
    2.0170   -2.8371    2.0556 O   0  0  0  0  0  0  0  0  0  0  0  0
    0.6926   -1.9734    0.4569 O   0  0  0  0  0  0  0  0  0  0  0  0
   -0.3236   -2.9321    0.7689 C   0  0  0  0  0  0  0  0  0  0  0  0
    4.0173   -1.1098    1.5284 N   0  0  0  0  0  0  0  0  0  0  0  0
    5.3083   -0.9832    0.8694 C   0  0  1  0  0  0  0  0  0  0  0  0
    5.5718    0.0831    0.7728 H   0  0  0  0  0  0  0  0  0  0  0  0
    6.4286   -1.6475    1.6507 C   0  0  0  0  0  0  0  0  0  0  0  0
    7.6545   -0.9982    1.8239 C   0  0  0  0  0  0  0  0  0  0  0  0
    8.6997   -1.6308    2.5059 C   0  0  0  0  0  0  0  0  0  0  0  0
    8.5340   -2.9118    3.0262 C   0  0  0  0  0  0  0  0  0  0  0  0
    7.3076   -3.5635    2.8540 C   0  0  0  0  0  0  0  0  0  0  0  0
    7.2261   -4.8397    3.3715 O   0  0  0  0  0  0  0  0  0  0  0  0
    6.0075   -5.4127    3.5916 C   0  0  1  0  0  0  0  0  0  0  0  0
    5.4682   -5.8644    2.4233 F   0  0  0  0  0  0  0  0  0  0  0  0
    6.2073   -6.4742    4.3775 F   0  0  0  0  0  0  0  0  0  0  0  0
    6.2594   -2.9430    2.1693 C   0  0  0  0  0  0  0  0  0  0  0  0
    5.0945   -1.5076   -0.6236 C   0  0  1  0  0  0  0  0  0  0  0  0
    5.4608   -0.7536   -1.3328 H   0  0  0  0  0  0  0  0  0  0  0  0
    5.7837   -2.8267   -0.9453 C   0  0  0  0  0  0  0  0  0  0  0  0
    6.9543   -3.0137   -1.1684 O   0  0  0  0  0  0  0  0  0  0  0  0
    4.8092   -3.8296   -0.9429 N   0  0  0  0  0  0  0  0  0  0  0  0
    5.1228   -5.2379   -1.1134 C   0  0  0  0  0  0  0  0  0  0  0  0
    3.5154   -3.3387   -0.8289 C   0  0  0  0  0  0  0  0  0  0  0  0
    2.5158   -4.0207   -0.8464 O   0  0  0  0  0  0  0  0  0  0  0  0
    3.5898   -1.8090   -0.7306 C   0  0  1  0  0  0  0  0  0  0  0  0
    3.1187   -1.4088   -1.6409 H   0  0  0  0  0  0  0  0  0  0  0  0
    1.5666    2.0225    1.1412 H   0  0  0  0  0  0  0  0  0  0  0  0
    2.6072    1.0485    2.2177 H   0  0  0  0  0  0  0  0  0  0  0  0
    0.9538    0.5069    1.8343 H   0  0  0  0  0  0  0  0  0  0  0  0
    3.2213    0.8074   -0.2421 H   0  0  0  0  0  0  0  0  0  0  0  0
    1.6195    0.1307   -0.5600 H   0  0  0  0  0  0  0  0  0  0  0  0
   -1.1975   -2.6550    0.1670 H   0  0  0  0  0  0  0  0  0  0  0  0
   -0.5688   -2.9065    1.8404 H   0  0  0  0  0  0  0  0  0  0  0  0
    0.0268   -3.9382    0.4974 H   0  0  0  0  0  0  0  0  0  0  0  0
    3.9547   -1.8831    2.1862 H   0  0  0  0  0  0  0  0  0  0  0  0
    7.7960    0.0075    1.4209 H   0  0  0  0  0  0  0  0  0  0  0  0
    9.6545   -1.1160    2.6368 H   0  0  0  0  0  0  0  0  0  0  0  0
    9.3335   -3.4238    3.5644 H   0  0  0  0  0  0  0  0  0  0  0  0
    5.2807   -4.7224    4.0568 H   0  0  0  0  0  0  0  0  0  0  0  0
    5.3237   -3.4778    2.0035 H   0  0  0  0  0  0  0  0  0  0  0  0
    5.9555   -5.3356   -1.8228 H   0  0  0  0  0  0  0  0  0  0  0  0
    4.2273   -5.7499   -1.4881 H   0  0  0  0  0  0  0  0  0  0  0  0
    5.4197   -5.6854   -0.1522 H   0  0  0  0  0  0  0  0  0  0  0  0
  1  2  1  0
  1 31  1  0
  1 32  1  0
  1 33  1  0
  2  3  1  0
  2 34  1  0
  2 35  1  0
  3  4  1  1
  3  8  1  0
  3 29  1  0
  4  5  2  0
  4  6  1  0
  6  7  1  0
  7 36  1  0
  7 37  1  0
  7 38  1  0
  8  9  1  0
  8 39  1  0
  9 10  1  6
  9 11  1  0
  9 21  1  0
 11 12  2  0
 11 20  1  0
 12 13  1  0
 12 40  1  0
 13 14  2  0
 13 41  1  0
 14 15  1  0
 14 42  1  0
 15 16  1  0
 15 20  2  0
 16 17  1  0
 17 18  1  0
 17 19  1  0
 17 43  1  1
 20 44  1  0
 21 22  1  6
 21 23  1  0
 21 29  1  0
 23 24  2  0
 23 25  1  0
 25 26  1  0
 25 27  1  0
 26 45  1  0
 26 46  1  0
 26 47  1  0
 27 28  2  0
 27 29  1  0
 29 30  1  6
M  END

