
     RDKit          3D

 53 56  0  0  0  0  0  0  0  0999 V2000
    5.6244    1.8841   -0.5977 N   0  0  0  0  0  0  0  0  0  0  0  0
    4.7544    1.1419   -0.3793 C   0  0  0  0  0  0  0  0  0  0  0  0
    3.7495    0.1726   -0.0821 C   0  0  0  0  0  0  0  0  0  0  0  0
    2.4140    0.3815   -0.2872 C   0  0  0  0  0  0  0  0  0  0  0  0
    1.7611    1.5333   -0.8090 C   0  0  0  0  0  0  0  0  0  0  0  0
    0.4191    1.8018   -1.0366 C   0  0  0  0  0  0  0  0  0  0  0  0
    0.3490    3.1109   -1.5692 C   0  0  0  0  0  0  0  0  0  0  0  0
    1.6520    3.5758   -1.6400 C   0  0  0  0  0  0  0  0  0  0  0  0
    2.2483    4.8274   -2.0900 C   0  0  0  0  0  0  0  0  0  0  0  0
    3.6462    5.0185   -2.0393 C   0  0  0  0  0  0  0  0  0  0  0  0
    4.2128    6.2189   -2.4712 C   0  0  0  0  0  0  0  0  0  0  0  0
    3.4105    7.2516   -2.9606 C   0  0  0  0  0  0  0  0  0  0  0  0
    2.0299    7.0477   -3.0048 C   0  0  0  0  0  0  0  0  0  0  0  0
    1.1598    8.1298   -3.5207 N   0  0  0  0  0  0  0  0  0  0  0  0
    1.7007    9.1596   -3.8861 O   0  0  0  0  0  0  0  0  0  0  0  0
   -0.0426    7.9225   -3.5475 O   0  0  0  0  0  0  0  0  0  0  0  0
    1.4359    5.8637   -2.5822 C   0  0  0  0  0  0  0  0  0  0  0  0
    2.4946    2.6220   -1.1812 O   0  0  0  0  0  0  0  0  0  0  0  0
    4.1544   -1.1692    0.4916 C   0  0  0  0  0  0  0  0  0  0  0  0
    3.3107   -2.0141    0.7515 O   0  0  0  0  0  0  0  0  0  0  0  0
    5.4997   -1.3246    0.6779 N   0  0  0  0  0  0  0  0  0  0  0  0
    6.1952   -2.4393    1.1896 C   0  0  0  0  0  0  0  0  0  0  0  0
    5.5761   -3.6239    1.6152 C   0  0  0  0  0  0  0  0  0  0  0  0
    6.3432   -4.6835    2.1031 C   0  0  0  0  0  0  0  0  0  0  0  0
    7.7482   -4.6094    2.2058 C   0  0  0  0  0  0  0  0  0  0  0  0
    8.5201   -5.6541    2.7397 N   0  0  0  0  0  0  0  0  0  0  0  0
    9.7875   -5.9986    2.0960 C   0  0  0  0  0  0  0  0  0  0  0  0
   10.6615   -6.8222    3.0366 C   0  0  0  0  0  0  0  0  0  0  0  0
    9.9836   -7.9699    3.4993 O   0  0  0  0  0  0  0  0  0  0  0  0
    8.8008   -7.6156    4.1815 C   0  0  0  0  0  0  0  0  0  0  0  0
    7.8451   -6.8193    3.2939 C   0  0  0  0  0  0  0  0  0  0  0  0
    8.3539   -3.4071    1.7735 C   0  0  0  0  0  0  0  0  0  0  0  0
    7.5966   -2.3542    1.2768 C   0  0  0  0  0  0  0  0  0  0  0  0
    1.7714   -0.4586   -0.0085 H   0  0  0  0  0  0  0  0  0  0  0  0
   -0.4072    1.1224   -0.8376 H   0  0  0  0  0  0  0  0  0  0  0  0
   -0.5467    3.6508   -1.8660 H   0  0  0  0  0  0  0  0  0  0  0  0
    4.2858    4.2194   -1.6591 H   0  0  0  0  0  0  0  0  0  0  0  0
    5.2960    6.3502   -2.4251 H   0  0  0  0  0  0  0  0  0  0  0  0
    3.8242    8.1989   -3.3045 H   0  0  0  0  0  0  0  0  0  0  0  0
    0.3525    5.7720   -2.6449 H   0  0  0  0  0  0  0  0  0  0  0  0
    6.0864   -0.5382    0.4166 H   0  0  0  0  0  0  0  0  0  0  0  0
    4.4945   -3.7145    1.5486 H   0  0  0  0  0  0  0  0  0  0  0  0
    5.8168   -5.5908    2.3976 H   0  0  0  0  0  0  0  0  0  0  0  0
   10.3331   -5.0894    1.8122 H   0  0  0  0  0  0  0  0  0  0  0  0
    9.6070   -6.5804    1.1662 H   0  0  0  0  0  0  0  0  0  0  0  0
   10.9761   -6.1899    3.8930 H   0  0  0  0  0  0  0  0  0  0  0  0
   11.5641   -7.1677    2.5098 H   0  0  0  0  0  0  0  0  0  0  0  0
    9.0436   -7.0160    5.0833 H   0  0  0  0  0  0  0  0  0  0  0  0
    8.3206   -8.5509    4.5070 H   0  0  0  0  0  0  0  0  0  0  0  0
    6.9935   -6.4921    3.9085 H   0  0  0  0  0  0  0  0  0  0  0  0
    7.4478   -7.4825    2.4946 H   0  0  0  0  0  0  0  0  0  0  0  0
    9.4342   -3.2776    1.8478 H   0  0  0  0  0  0  0  0  0  0  0  0
    8.1051   -1.4385    0.9596 H   0  0  0  0  0  0  0  0  0  0  0  0
  1  2  3  0
  2  3  1  0
  3  4  2  0
  3 19  1  0
  4  5  1  0
  4 34  1  0
  5  6  2  0
  5 18  1  0
  6  7  1  0
  6 35  1  0
  7  8  2  0
  7 36  1  0
  8  9  1  0
  8 18  1  0
  9 10  2  0
  9 17  1  0
 10 11  1  0
 10 37  1  0
 11 12  2  0
 11 38  1  0
 12 13  1  0
 12 39  1  0
 13 14  1  0
 13 17  2  0
 14 15  1  0
 14 16  1  0
 17 40  1  0
 19 20  2  0
 19 21  1  0
 21 22  2  0
 21 41  1  0
 22 23  1  0
 22 33  1  0
 23 24  2  0
 23 42  1  0
 24 25  1  0
 24 43  1  0
 25 26  2  0
 25 32  1  0
 26 27  1  0
 26 31  1  0
 27 28  1  0
 27 44  1  0
 27 45  1  0
 28 29  1  0
 28 46  1  0
 28 47  1  0
 29 30  1  0
 30 31  1  0
 30 48  1  0
 30 49  1  0
 31 50  1  0
 31 51  1  0
 32 33  2  0
 32 52  1  0
 33 53  1  0
M  CHG  4  15  -1  16  -1  21   1  26   1
M  END

