
     RDKit          3D

 40 40  0  0  0  0  0  0  0  0999 V2000
    0.6517   -0.1678    0.9773 C   0  0  0  0  0  0  0  0  0  0  0  0
    1.9913   -0.1593    0.2385 C   0  0  0  0  0  0  0  0  0  0  0  0
    2.9546   -1.3009    0.6210 C   0  0  1  0  0  0  0  0  0  0  0  0
    2.4135   -2.7158    0.3346 C   0  0  0  0  0  0  0  0  0  0  0  0
    2.4059   -3.0219   -1.1666 C   0  0  0  0  0  0  0  0  0  0  0  0
    3.7766   -2.7535   -1.7917 C   0  0  0  0  0  0  0  0  0  0  0  0
    4.2376   -1.3972   -1.5134 N   0  0  0  0  0  0  0  0  0  0  0  0
    5.4704   -1.0480   -2.2074 C   0  0  0  0  0  0  0  0  0  0  0  0
    5.3443   -0.9502   -3.7348 C   0  0  0  0  0  0  0  0  0  0  0  0
    4.2144   -0.0508   -4.2503 C   0  0  0  0  0  0  0  0  0  0  0  0
    4.3086    1.4055   -3.8018 C   0  0  0  0  0  0  0  0  0  0  0  0
    3.2819    2.3241   -4.4552 C   0  0  0  0  0  0  0  0  0  0  0  0
    3.2214    3.7483   -3.9290 C   0  0  0  0  0  0  0  0  0  0  0  0
    2.5496    1.9443   -5.3421 O   0  0  0  0  0  0  0  0  0  0  0  0
    4.3170   -1.1460   -0.0774 C   0  0  0  0  0  0  0  0  0  0  0  0
    0.0551    0.7232    0.7235 H   0  0  0  0  0  0  0  0  0  0  0  0
    0.7942   -0.1697    2.0716 H   0  0  0  0  0  0  0  0  0  0  0  0
    0.0405   -1.0486    0.7233 H   0  0  0  0  0  0  0  0  0  0  0  0
    2.5061    0.7961    0.4471 H   0  0  0  0  0  0  0  0  0  0  0  0
    1.8218   -0.1691   -0.8505 H   0  0  0  0  0  0  0  0  0  0  0  0
    3.1416   -1.2219    1.7080 H   0  0  0  0  0  0  0  0  0  0  0  0
    1.4092   -2.8527    0.7667 H   0  0  0  0  0  0  0  0  0  0  0  0
    3.0677   -3.4468    0.8433 H   0  0  0  0  0  0  0  0  0  0  0  0
    1.6501   -2.4042   -1.6802 H   0  0  0  0  0  0  0  0  0  0  0  0
    2.1258   -4.0740   -1.3427 H   0  0  0  0  0  0  0  0  0  0  0  0
    3.7211   -2.9019   -2.8805 H   0  0  0  0  0  0  0  0  0  0  0  0
    4.5098   -3.5049   -1.4065 H   0  0  0  0  0  0  0  0  0  0  0  0
    6.2916   -1.7638   -1.9631 H   0  0  0  0  0  0  0  0  0  0  0  0
    5.8005   -0.0725   -1.8125 H   0  0  0  0  0  0  0  0  0  0  0  0
    5.2191   -1.9569   -4.1680 H   0  0  0  0  0  0  0  0  0  0  0  0
    6.3157   -0.5890   -4.1190 H   0  0  0  0  0  0  0  0  0  0  0  0
    3.2417   -0.4549   -3.9281 H   0  0  0  0  0  0  0  0  0  0  0  0
    4.2001   -0.0781   -5.3515 H   0  0  0  0  0  0  0  0  0  0  0  0
    5.3082    1.8275   -4.0268 H   0  0  0  0  0  0  0  0  0  0  0  0
    4.1979    1.4991   -2.7068 H   0  0  0  0  0  0  0  0  0  0  0  0
    2.8213    3.7454   -2.9005 H   0  0  0  0  0  0  0  0  0  0  0  0
    2.5656    4.3542   -4.5680 H   0  0  0  0  0  0  0  0  0  0  0  0
    4.2257    4.1995   -3.8799 H   0  0  0  0  0  0  0  0  0  0  0  0
    4.6989   -0.1227    0.0752 H   0  0  0  0  0  0  0  0  0  0  0  0
    5.0520   -1.8333    0.4080 H   0  0  0  0  0  0  0  0  0  0  0  0
  1  2  1  0
  1 16  1  0
  1 17  1  0
  1 18  1  0
  2  3  1  0
  2 19  1  0
  2 20  1  0
  3  4  1  0
  3 15  1  0
  3 21  1  1
  4  5  1  0
  4 22  1  0
  4 23  1  0
  5  6  1  0
  5 24  1  0
  5 25  1  0
  6  7  1  0
  6 26  1  0
  6 27  1  0
  7  8  1  0
  7 15  1  0
  8  9  1  0
  8 28  1  0
  8 29  1  0
  9 10  1  0
  9 30  1  0
  9 31  1  0
 10 11  1  0
 10 32  1  0
 10 33  1  0
 11 12  1  0
 11 34  1  0
 11 35  1  0
 12 13  1  0
 12 14  2  0
 13 36  1  0
 13 37  1  0
 13 38  1  0
 15 39  1  0
 15 40  1  0
M  END

