
     RDKit          3D

 32 33  0  0  0  0  0  0  0  0999 V2000
    4.9663   -0.0011    1.5277 C   0  0  0  0  0  0  0  0  0  0  0  0
    4.6079    1.0679    0.5061 C   0  0  2  0  0  0  0  0  0  0  0  0
    5.0922    0.8262   -0.4571 H   0  0  0  0  0  0  0  0  0  0  0  0
    5.0608    2.3214    0.9869 O   0  0  0  0  0  0  0  0  0  0  0  0
    3.0937    1.1616    0.2279 C   0  0  1  0  0  0  0  0  0  0  0  0
    2.6879    0.1716   -0.0392 H   0  0  0  0  0  0  0  0  0  0  0  0
    2.4195    1.6234    1.4361 N   0  0  0  0  0  0  0  0  0  0  0  0
    1.0841    1.4680    1.6319 C   0  0  0  0  0  0  0  0  0  0  0  0
    0.3581    0.9802    0.7474 O   0  0  0  0  0  0  0  0  0  0  0  0
    0.6257    1.8698    2.8600 N   0  0  0  0  0  0  0  0  0  0  0  0
   -0.6793    1.9157    3.3755 C   0  0  0  0  0  0  0  0  0  0  0  0
   -0.7504    2.4403    4.5970 N   0  0  0  0  0  0  0  0  0  0  0  0
   -1.9478    2.5331    5.2041 C   0  0  0  0  0  0  0  0  0  0  0  0
   -3.1239    2.1526    4.7282 N   0  0  0  0  0  0  0  0  0  0  0  0
   -3.0726    1.6182    3.5020 C   0  0  0  0  0  0  0  0  0  0  0  0
   -4.1253    1.1299    2.7668 N   0  0  0  0  0  0  0  0  0  0  0  0
   -3.5838    0.7082    1.6487 C   0  0  0  0  0  0  0  0  0  0  0  0
   -2.2298    0.8826    1.5818 N   0  0  0  0  0  0  0  0  0  0  0  0
   -1.5619    0.6517    0.8487 H   0  0  0  0  0  0  0  0  0  0  0  0
   -1.8605    1.4722    2.7657 C   0  0  0  0  0  0  0  0  0  0  0  0
    2.8147    2.1264   -0.9505 C   0  0  0  0  0  0  0  0  0  0  0  0
    3.6807    2.8057   -1.4513 O   0  0  0  0  0  0  0  0  0  0  0  0
    1.5529    2.1659   -1.3622 O   0  0  0  0  0  0  0  0  0  0  0  0
    4.4760    0.1880    2.4949 H   0  0  0  0  0  0  0  0  0  0  0  0
    6.0533    0.0001    1.6927 H   0  0  0  0  0  0  0  0  0  0  0  0
    4.6651   -0.9997    1.1759 H   0  0  0  0  0  0  0  0  0  0  0  0
    4.9906    2.9310    0.2322 H   0  0  0  0  0  0  0  0  0  0  0  0
    2.9869    2.2273    2.0275 H   0  0  0  0  0  0  0  0  0  0  0  0
    1.2966    2.2105    3.5440 H   0  0  0  0  0  0  0  0  0  0  0  0
   -1.9344    2.9754    6.2068 H   0  0  0  0  0  0  0  0  0  0  0  0
   -4.1337    0.2540    0.8227 H   0  0  0  0  0  0  0  0  0  0  0  0
    0.9848    1.6158   -0.7676 H   0  0  0  0  0  0  0  0  0  0  0  0
  1  2  1  0
  1 24  1  0
  1 25  1  0
  1 26  1  0
  2  3  1  6
  2  4  1  0
  2  5  1  0
  4 27  1  0
  5  6  1  6
  5  7  1  0
  5 21  1  0
  7  8  1  0
  7 28  1  0
  8  9  2  0
  8 10  1  0
 10 11  1  0
 10 29  1  0
 11 12  2  0
 11 20  1  0
 12 13  1  0
 13 14  2  0
 13 30  1  0
 14 15  1  0
 15 16  1  0
 15 20  2  0
 16 17  2  0
 17 18  1  0
 17 31  1  0
 18 19  1  0
 18 20  1  0
 21 22  2  0
 21 23  1  0
 23 32  1  0
M  END

