
     RDKit          3D

 48 50  0  0  0  0  0  0  0  0999 V2000
    5.1623   -1.3183   -1.7250 C   0  0  0  0  0  0  0  0  0  0  0  0
    4.2708   -0.7284   -0.7299 N   0  0  0  0  0  0  0  0  0  0  0  0
    2.9320   -1.0455   -0.6118 C   0  0  0  0  0  0  0  0  0  0  0  0
    2.2292   -0.6012    0.2778 O   0  0  0  0  0  0  0  0  0  0  0  0
    2.3520   -2.0488   -1.6356 C   0  0  1  0  0  0  0  0  0  0  0  0
    2.7097   -3.5145   -1.2418 C   0  0  0  0  0  0  0  0  0  0  0  0
    1.3966   -4.2991   -1.4030 C   0  0  0  0  0  0  0  0  0  0  0  0
    0.3256   -3.2609   -1.0626 C   0  0  0  0  0  0  0  0  0  0  0  0
    0.8960   -2.0394   -1.6183 N   0  0  0  0  0  0  0  0  0  0  0  0
    0.1085   -0.9975   -2.0000 C   0  0  0  0  0  0  0  0  0  0  0  0
   -1.1027   -0.9872   -1.9380 O   0  0  0  0  0  0  0  0  0  0  0  0
    0.8651    0.0222   -2.4982 O   0  0  0  0  0  0  0  0  0  0  0  0
    0.1743    1.1823   -2.9659 C   0  0  0  0  0  0  0  0  0  0  0  0
    0.4487    2.4048   -2.1179 C   0  0  0  0  0  0  0  0  0  0  0  0
    0.3793    3.6768   -2.7062 C   0  0  0  0  0  0  0  0  0  0  0  0
    0.5585    4.8307   -1.9389 C   0  0  0  0  0  0  0  0  0  0  0  0
    0.8196    4.7263   -0.5694 C   0  0  0  0  0  0  0  0  0  0  0  0
    0.9006    3.4617    0.0216 C   0  0  0  0  0  0  0  0  0  0  0  0
    0.7162    2.3055   -0.7444 C   0  0  0  0  0  0  0  0  0  0  0  0
    4.8751    0.1187    0.2599 C   0  0  0  0  0  0  0  0  0  0  0  0
    5.9693   -0.3354    1.0041 C   0  0  0  0  0  0  0  0  0  0  0  0
    6.5896    0.4952    1.9417 C   0  0  0  0  0  0  0  0  0  0  0  0
    6.1089    1.7929    2.1570 C   0  0  0  0  0  0  0  0  0  0  0  0
    6.6652    2.6447    3.0569 O   0  0  0  0  0  0  0  0  0  0  0  0
    5.0076    2.2494    1.4159 C   0  0  0  0  0  0  0  0  0  0  0  0
    4.4023    1.4227    0.4749 C   0  0  0  0  0  0  0  0  0  0  0  0
    4.6422   -1.4832   -2.6774 H   0  0  0  0  0  0  0  0  0  0  0  0
    5.5944   -2.2818   -1.4003 H   0  0  0  0  0  0  0  0  0  0  0  0
    5.9900   -0.6219   -1.9165 H   0  0  0  0  0  0  0  0  0  0  0  0
    2.7039   -1.8010   -2.6482 H   0  0  0  0  0  0  0  0  0  0  0  0
    3.0360   -3.5450   -0.1899 H   0  0  0  0  0  0  0  0  0  0  0  0
    3.5297   -3.9186   -1.8524 H   0  0  0  0  0  0  0  0  0  0  0  0
    1.3533   -5.1893   -0.7581 H   0  0  0  0  0  0  0  0  0  0  0  0
    1.2741   -4.6310   -2.4470 H   0  0  0  0  0  0  0  0  0  0  0  0
    0.1836   -3.1666    0.0302 H   0  0  0  0  0  0  0  0  0  0  0  0
   -0.6560   -3.4568   -1.5144 H   0  0  0  0  0  0  0  0  0  0  0  0
   -0.9041    0.9574   -2.9762 H   0  0  0  0  0  0  0  0  0  0  0  0
    0.5027    1.3577   -4.0029 H   0  0  0  0  0  0  0  0  0  0  0  0
    0.1822    3.7666   -3.7792 H   0  0  0  0  0  0  0  0  0  0  0  0
    0.5005    5.8136   -2.4139 H   0  0  0  0  0  0  0  0  0  0  0  0
    0.9631    5.6268    0.0334 H   0  0  0  0  0  0  0  0  0  0  0  0
    1.1090    3.3686    1.0908 H   0  0  0  0  0  0  0  0  0  0  0  0
    0.8007    1.3246   -0.2719 H   0  0  0  0  0  0  0  0  0  0  0  0
    6.3454   -1.3510    0.8606 H   0  0  0  0  0  0  0  0  0  0  0  0
    7.4466    0.1268    2.5145 H   0  0  0  0  0  0  0  0  0  0  0  0
    7.4004    2.2066    3.5051 H   0  0  0  0  0  0  0  0  0  0  0  0
    4.6425    3.2638    1.5880 H   0  0  0  0  0  0  0  0  0  0  0  0
    3.5505    1.7884   -0.0990 H   0  0  0  0  0  0  0  0  0  0  0  0
  1  2  1  0
  1 27  1  0
  1 28  1  0
  1 29  1  0
  2  3  1  0
  2 20  1  0
  3  4  2  0
  3  5  1  0
  5  6  1  0
  5  9  1  0
  5 30  1  6
  6  7  1  0
  6 31  1  0
  6 32  1  0
  7  8  1  0
  7 33  1  0
  7 34  1  0
  8  9  1  0
  8 35  1  0
  8 36  1  0
  9 10  1  0
 10 11  2  0
 10 12  1  0
 12 13  1  0
 13 14  1  0
 13 37  1  0
 13 38  1  0
 14 15  2  0
 14 19  1  0
 15 16  1  0
 15 39  1  0
 16 17  2  0
 16 40  1  0
 17 18  1  0
 17 41  1  0
 18 19  2  0
 18 42  1  0
 19 43  1  0
 20 21  2  0
 20 26  1  0
 21 22  1  0
 21 44  1  0
 22 23  2  0
 22 45  1  0
 23 24  1  0
 23 25  1  0
 24 46  1  0
 25 26  2  0
 25 47  1  0
 26 48  1  0
M  END

