
     RDKit          3D

 47 49  0  0  0  0  0  0  0  0999 V2000
    6.7506    6.1009    4.7465 C   0  0  0  0  0  0  0  0  0  0  0  0
    6.2609    5.0557    3.7993 C   0  0  0  0  0  0  0  0  0  0  0  0
    6.9188    4.5975    2.7540 N   0  0  0  0  0  0  0  0  0  0  0  0
    6.0983    3.6651    2.1904 C   0  0  0  0  0  0  0  0  0  0  0  0
    6.5079    2.7802    0.7121 S   0  0  1  0  0  0  0  0  0  0  0  0
    5.4521    1.7848    0.5112 O   0  0  0  0  0  0  0  0  0  0  0  0
    6.8385    3.7653   -0.3230 O   0  0  0  0  0  0  0  0  0  0  0  0
    7.8888    1.9288    1.1400 N   0  0  0  0  0  0  0  0  0  0  0  0
    9.1892    2.4741    0.7996 C   0  0  0  0  0  0  0  0  0  0  0  0
   10.0576    1.3430    0.2268 C   0  0  0  0  0  0  0  0  0  0  0  0
    9.5734    0.2284    0.0734 O   0  0  0  0  0  0  0  0  0  0  0  0
   11.3574    1.6347   -0.0828 N   0  0  0  0  0  0  0  0  0  0  0  0
   12.2194    0.5721   -0.6146 C   0  0  0  0  0  0  0  0  0  0  0  0
   12.8741    0.9895   -1.9329 C   0  0  0  0  0  0  0  0  0  0  0  0
   13.6087    2.3252   -1.7792 C   0  0  0  0  0  0  0  0  0  0  0  0
   12.6576    3.3912   -1.2275 C   0  0  0  0  0  0  0  0  0  0  0  0
   11.9752    2.9589    0.0897 C   0  0  2  0  0  0  0  0  0  0  0  0
   12.8982    2.9898    1.2931 C   0  0  0  0  0  0  0  0  0  0  0  0
   13.9334    3.9166    1.6009 C   0  0  0  0  0  0  0  0  0  0  0  0
   14.4917    3.6682    2.7819 N   0  0  0  0  0  0  0  0  0  0  0  0
   13.8368    2.5983    3.2448 N   0  0  0  0  0  0  0  0  0  0  0  0
   14.0947    2.2076    4.1432 H   0  0  0  0  0  0  0  0  0  0  0  0
   12.8732    2.1496    2.3982 C   0  0  0  0  0  0  0  0  0  0  0  0
    4.9202    3.5429    2.8885 C   0  0  0  0  0  0  0  0  0  0  0  0
    5.0301    4.4441    3.9225 N   0  0  0  0  0  0  0  0  0  0  0  0
    4.0381    4.7022    4.9504 C   0  0  0  0  0  0  0  0  0  0  0  0
    7.7512    6.4169    4.4257 H   0  0  0  0  0  0  0  0  0  0  0  0
    6.8186    5.7240    5.7812 H   0  0  0  0  0  0  0  0  0  0  0  0
    6.0942    6.9876    4.7591 H   0  0  0  0  0  0  0  0  0  0  0  0
    7.8031    0.9469    0.8522 H   0  0  0  0  0  0  0  0  0  0  0  0
    9.6746    2.9149    1.6871 H   0  0  0  0  0  0  0  0  0  0  0  0
    9.0843    3.2789    0.0517 H   0  0  0  0  0  0  0  0  0  0  0  0
   11.5915   -0.3187   -0.7340 H   0  0  0  0  0  0  0  0  0  0  0  0
   13.0036    0.3380    0.1283 H   0  0  0  0  0  0  0  0  0  0  0  0
   12.0961    1.0782   -2.7116 H   0  0  0  0  0  0  0  0  0  0  0  0
   13.5656    0.1953   -2.2594 H   0  0  0  0  0  0  0  0  0  0  0  0
   14.0233    2.6553   -2.7457 H   0  0  0  0  0  0  0  0  0  0  0  0
   14.4663    2.2002   -1.0947 H   0  0  0  0  0  0  0  0  0  0  0  0
   11.8613    3.5865   -1.9661 H   0  0  0  0  0  0  0  0  0  0  0  0
   13.1807    4.3474   -1.0702 H   0  0  0  0  0  0  0  0  0  0  0  0
   11.1674    3.6804    0.2706 H   0  0  0  0  0  0  0  0  0  0  0  0
   14.2895    4.7573    1.0059 H   0  0  0  0  0  0  0  0  0  0  0  0
   12.2564    1.2838    2.6302 H   0  0  0  0  0  0  0  0  0  0  0  0
    4.0524    2.9087    2.7320 H   0  0  0  0  0  0  0  0  0  0  0  0
    3.1557    4.0765    4.7654 H   0  0  0  0  0  0  0  0  0  0  0  0
    3.7249    5.7578    4.9399 H   0  0  0  0  0  0  0  0  0  0  0  0
    4.4325    4.4626    5.9505 H   0  0  0  0  0  0  0  0  0  0  0  0
  1  2  1  0
  1 27  1  0
  1 28  1  0
  1 29  1  0
  2  3  2  0
  2 25  1  0
  3  4  1  0
  4  5  1  0
  4 24  2  0
  5  6  2  0
  5  7  2  0
  5  8  1  1
  8  9  1  0
  8 30  1  0
  9 10  1  0
  9 31  1  0
  9 32  1  0
 10 11  2  0
 10 12  1  0
 12 13  1  0
 12 17  1  0
 13 14  1  0
 13 33  1  0
 13 34  1  0
 14 15  1  0
 14 35  1  0
 14 36  1  0
 15 16  1  0
 15 37  1  0
 15 38  1  0
 16 17  1  0
 16 39  1  0
 16 40  1  0
 17 18  1  0
 17 41  1  1
 18 19  1  0
 18 23  2  0
 19 20  2  0
 19 42  1  0
 20 21  1  0
 21 22  1  0
 21 23  1  0
 23 43  1  0
 24 25  1  0
 24 44  1  0
 25 26  1  0
 26 45  1  0
 26 46  1  0
 26 47  1  0
M  END

