
     RDKit          3D

 45 48  0  0  0  0  0  0  0  0999 V2000
   -1.5235   -1.4754    4.1636 O   0  0  0  0  0  0  0  0  0  0  0  0
   -1.5759   -2.5179    4.7873 C   0  0  0  0  0  0  0  0  0  0  0  0
   -2.6345   -2.9323    5.8114 C   0  0  0  0  0  0  0  0  0  0  0  0
   -2.0133   -4.1387    6.5273 C   0  0  0  0  0  0  0  0  0  0  0  0
   -1.0362   -4.7190    5.4845 C   0  0  0  0  0  0  0  0  0  0  0  0
   -0.6894   -3.5621    4.6731 N   0  0  0  0  0  0  0  0  0  0  0  0
    0.3957   -3.5524    3.7118 C   0  0  0  0  0  0  0  0  0  0  0  0
    0.0654   -4.2906    2.4085 C   0  0  0  0  0  0  0  0  0  0  0  0
    1.1804   -4.2317    1.3403 C   0  0  2  0  0  0  0  0  0  0  0  0
    1.4091   -3.1736    1.1317 H   0  0  0  0  0  0  0  0  0  0  0  0
    0.7528   -4.9584    0.0389 C   0  0  0  0  0  0  0  0  0  0  0  0
    1.3196   -6.3029    0.1755 N   0  0  0  0  0  0  0  0  0  0  0  0
    1.1538   -7.2862   -0.8633 C   0  0  0  0  0  0  0  0  0  0  0  0
    1.9435   -7.0332   -2.1219 C   0  0  0  0  0  0  0  0  0  0  0  0
    3.0885   -6.3401   -2.4090 C   0  0  0  0  0  0  0  0  0  0  0  0
    3.3259   -6.5200   -3.8146 C   0  0  0  0  0  0  0  0  0  0  0  0
    2.3109   -7.3084   -4.2714 C   0  0  0  0  0  0  0  0  0  0  0  0
    1.4662   -7.6223   -3.2530 O   0  0  0  0  0  0  0  0  0  0  0  0
    2.4207   -6.2428    1.0225 C   0  0  0  0  0  0  0  0  0  0  0  0
    3.4279   -7.1930    1.2305 C   0  0  0  0  0  0  0  0  0  0  0  0
    4.4462   -6.8934    2.1476 C   0  0  0  0  0  0  0  0  0  0  0  0
    4.4740   -5.6757    2.8318 C   0  0  0  0  0  0  0  0  0  0  0  0
    3.4562   -4.7292    2.6154 C   0  0  0  0  0  0  0  0  0  0  0  0
    2.4302   -5.0145    1.7225 C   0  0  0  0  0  0  0  0  0  0  0  0
   -3.5504   -3.2008    5.2560 H   0  0  0  0  0  0  0  0  0  0  0  0
   -2.8890   -2.0862    6.4650 H   0  0  0  0  0  0  0  0  0  0  0  0
   -2.7491   -4.8814    6.8677 H   0  0  0  0  0  0  0  0  0  0  0  0
   -1.4489   -3.8009    7.4111 H   0  0  0  0  0  0  0  0  0  0  0  0
   -1.5144   -5.5126    4.8769 H   0  0  0  0  0  0  0  0  0  0  0  0
   -0.1356   -5.1613    5.9433 H   0  0  0  0  0  0  0  0  0  0  0  0
    1.2895   -3.9889    4.1870 H   0  0  0  0  0  0  0  0  0  0  0  0
    0.6076   -2.4942    3.4922 H   0  0  0  0  0  0  0  0  0  0  0  0
   -0.8468   -3.8375    1.9840 H   0  0  0  0  0  0  0  0  0  0  0  0
   -0.1679   -5.3489    2.6192 H   0  0  0  0  0  0  0  0  0  0  0  0
    1.1643   -4.4466   -0.8539 H   0  0  0  0  0  0  0  0  0  0  0  0
   -0.3422   -5.0067   -0.0787 H   0  0  0  0  0  0  0  0  0  0  0  0
    0.0864   -7.3447   -1.1383 H   0  0  0  0  0  0  0  0  0  0  0  0
    1.4077   -8.2796   -0.4511 H   0  0  0  0  0  0  0  0  0  0  0  0
    3.6949   -5.7774   -1.7031 H   0  0  0  0  0  0  0  0  0  0  0  0
    4.1458   -6.1123   -4.4024 H   0  0  0  0  0  0  0  0  0  0  0  0
    2.0550   -7.7111   -5.2478 H   0  0  0  0  0  0  0  0  0  0  0  0
    3.4419   -8.1360    0.6806 H   0  0  0  0  0  0  0  0  0  0  0  0
    5.2419   -7.6250    2.3129 H   0  0  0  0  0  0  0  0  0  0  0  0
    5.2878   -5.4544    3.5259 H   0  0  0  0  0  0  0  0  0  0  0  0
    3.4840   -3.7696    3.1390 H   0  0  0  0  0  0  0  0  0  0  0  0
  1  2  2  0
  2  3  1  0
  2  6  1  0
  3  4  1  0
  3 25  1  0
  3 26  1  0
  4  5  1  0
  4 27  1  0
  4 28  1  0
  5  6  1  0
  5 29  1  0
  5 30  1  0
  6  7  1  0
  7  8  1  0
  7 31  1  0
  7 32  1  0
  8  9  1  0
  8 33  1  0
  8 34  1  0
  9 10  1  6
  9 11  1  0
  9 24  1  0
 11 12  1  0
 11 35  1  0
 11 36  1  0
 12 13  1  0
 12 19  1  0
 13 14  1  0
 13 37  1  0
 13 38  1  0
 14 15  2  0
 14 18  1  0
 15 16  1  0
 15 39  1  0
 16 17  2  0
 16 40  1  0
 17 18  1  0
 17 41  1  0
 19 20  1  0
 19 24  2  0
 20 21  2  0
 20 42  1  0
 21 22  1  0
 21 43  1  0
 22 23  2  0
 22 44  1  0
 23 24  1  0
 23 45  1  0
M  END

