
     RDKit          3D

 56 58  0  0  0  0  0  0  0  0999 V2000
    0.5974   -0.4635   -0.3485 C   0  0  0  0  0  0  0  0  0  0  0  0
    2.0428   -0.1125   -0.0868 C   0  0  0  0  0  0  0  0  0  0  0  0
    2.7231   -0.6693    0.8566 N   0  0  0  0  0  0  0  0  0  0  0  0
    2.1340   -1.5911    1.6523 N   0  0  0  0  0  0  0  0  0  0  0  0
    3.2023   -2.5966    2.5603 S   0  0  1  0  0  0  0  0  0  0  0  0
    2.3133   -3.6750    2.9988 O   0  0  0  0  0  0  0  0  0  0  0  0
    4.3812   -2.9110    1.7576 O   0  0  0  0  0  0  0  0  0  0  0  0
    3.6550   -1.5421    3.9556 C   0  0  0  0  0  0  0  0  0  0  0  0
    2.6584   -1.2618    4.9254 C   0  0  0  0  0  0  0  0  0  0  0  0
    1.2290   -1.7447    4.8469 C   0  0  0  0  0  0  0  0  0  0  0  0
    3.0211   -0.4752    6.0265 C   0  0  0  0  0  0  0  0  0  0  0  0
    4.3124    0.0318    6.1947 C   0  0  0  0  0  0  0  0  0  0  0  0
    4.6825    0.8551    7.4025 C   0  0  0  0  0  0  0  0  0  0  0  0
    5.2604   -0.2544    5.2077 C   0  0  0  0  0  0  0  0  0  0  0  0
    4.9732   -1.0313    4.0764 C   0  0  0  0  0  0  0  0  0  0  0  0
    6.0931   -1.2387    3.0817 C   0  0  0  0  0  0  0  0  0  0  0  0
    2.7498    0.8966   -0.9206 C   0  0  0  0  0  0  0  0  0  0  0  0
    2.0576    1.8883   -1.6384 C   0  0  0  0  0  0  0  0  0  0  0  0
    2.7676    2.8288   -2.3879 C   0  0  0  0  0  0  0  0  0  0  0  0
    4.1608    2.8101   -2.4556 C   0  0  0  0  0  0  0  0  0  0  0  0
    4.8646    1.8171   -1.7457 C   0  0  0  0  0  0  0  0  0  0  0  0
    6.2657    1.6990   -1.7585 N   0  0  0  0  0  0  0  0  0  0  0  0
    7.2027    2.4858   -2.3973 C   0  0  0  0  0  0  0  0  0  0  0  0
    6.9100    3.4731   -3.0580 O   0  0  0  0  0  0  0  0  0  0  0  0
    8.6066    2.0324   -2.2082 C   0  0  0  0  0  0  0  0  0  0  0  0
    9.1024    0.7954   -1.6469 C   0  0  0  0  0  0  0  0  0  0  0  0
   10.4587    0.8717   -1.7019 C   0  0  0  0  0  0  0  0  0  0  0  0
   10.8397    2.0566   -2.2505 O   0  0  0  0  0  0  0  0  0  0  0  0
    9.7251    2.7616   -2.5631 C   0  0  0  0  0  0  0  0  0  0  0  0
    9.9257    4.0970   -3.1828 C   0  0  0  0  0  0  0  0  0  0  0  0
    4.1514    0.8762   -0.9885 C   0  0  0  0  0  0  0  0  0  0  0  0
    0.4833   -1.5523   -0.4996 H   0  0  0  0  0  0  0  0  0  0  0  0
    0.2025    0.0253   -1.2458 H   0  0  0  0  0  0  0  0  0  0  0  0
   -0.0392   -0.1882    0.5104 H   0  0  0  0  0  0  0  0  0  0  0  0
    1.3533   -2.1603    1.3042 H   0  0  0  0  0  0  0  0  0  0  0  0
    1.1703   -2.8390    4.9224 H   0  0  0  0  0  0  0  0  0  0  0  0
    0.7658   -1.4709    3.8873 H   0  0  0  0  0  0  0  0  0  0  0  0
    0.6371   -1.2959    5.6568 H   0  0  0  0  0  0  0  0  0  0  0  0
    2.2579   -0.2524    6.7771 H   0  0  0  0  0  0  0  0  0  0  0  0
    3.7937    1.1661    7.9706 H   0  0  0  0  0  0  0  0  0  0  0  0
    5.2408    1.7602    7.1145 H   0  0  0  0  0  0  0  0  0  0  0  0
    5.3314    0.2804    8.0854 H   0  0  0  0  0  0  0  0  0  0  0  0
    6.2724    0.1466    5.3117 H   0  0  0  0  0  0  0  0  0  0  0  0
    6.9772   -0.6695    3.4023 H   0  0  0  0  0  0  0  0  0  0  0  0
    5.8022   -0.9089    2.0751 H   0  0  0  0  0  0  0  0  0  0  0  0
    6.3672   -2.2982    2.9874 H   0  0  0  0  0  0  0  0  0  0  0  0
    0.9687    1.9479   -1.5986 H   0  0  0  0  0  0  0  0  0  0  0  0
    2.2226    3.6025   -2.9349 H   0  0  0  0  0  0  0  0  0  0  0  0
    4.7119    3.5404   -3.0422 H   0  0  0  0  0  0  0  0  0  0  0  0
    6.6271    0.9434   -1.1903 H   0  0  0  0  0  0  0  0  0  0  0  0
    8.5341   -0.0549   -1.2742 H   0  0  0  0  0  0  0  0  0  0  0  0
   11.2584    0.1954   -1.4125 H   0  0  0  0  0  0  0  0  0  0  0  0
   10.5188    4.7503   -2.5213 H   0  0  0  0  0  0  0  0  0  0  0  0
    8.9500    4.5545   -3.3805 H   0  0  0  0  0  0  0  0  0  0  0  0
   10.4786    4.0035   -4.1327 H   0  0  0  0  0  0  0  0  0  0  0  0
    4.6824    0.0950   -0.4398 H   0  0  0  0  0  0  0  0  0  0  0  0
  1  2  1  0
  1 32  1  0
  1 33  1  0
  1 34  1  0
  2  3  2  0
  2 17  1  0
  3  4  1  0
  5  4  1  6
  4 35  1  0
  5  6  2  0
  5  7  2  0
  5  8  1  0
  8  9  2  0
  8 15  1  0
  9 10  1  0
  9 11  1  0
 10 36  1  0
 10 37  1  0
 10 38  1  0
 11 12  2  0
 11 39  1  0
 12 13  1  0
 12 14  1  0
 13 40  1  0
 13 41  1  0
 13 42  1  0
 14 15  2  0
 14 43  1  0
 15 16  1  0
 16 44  1  0
 16 45  1  0
 16 46  1  0
 17 18  2  0
 17 31  1  0
 18 19  1  0
 18 47  1  0
 19 20  2  0
 19 48  1  0
 20 21  1  0
 20 49  1  0
 21 22  1  0
 21 31  2  0
 22 23  1  0
 22 50  1  0
 23 24  2  0
 23 25  1  0
 25 26  1  0
 25 29  2  0
 26 27  2  0
 26 51  1  0
 27 28  1  0
 27 52  1  0
 28 29  1  0
 29 30  1  0
 30 53  1  0
 30 54  1  0
 30 55  1  0
 31 56  1  0
M  END

