
     RDKit          3D

 17 16  0  0  0  0  0  0  0  0999 V2000
    1.0954    0.0731    0.1930 C   0  0  0  0  0  0  0  0  0  0  0  0
    2.5049    0.1665    0.4134 O   0  0  0  0  0  0  0  0  0  0  0  0
    3.1213    1.2287   -0.1280 C   0  0  0  0  0  0  0  0  0  0  0  0
    2.5542    2.0833   -0.7625 O   0  0  0  0  0  0  0  0  0  0  0  0
    4.6165    1.1868    0.1234 C   0  0  0  0  0  0  0  0  0  0  0  0
    5.2231    2.5761    0.2409 C   0  0  1  0  0  0  0  0  0  0  0  0
    4.6965    3.3466    1.8112 Cl  0  0  0  0  0  0  0  0  0  0  0  0
    6.7457    2.6061    0.2368 C   0  0  0  0  0  0  0  0  0  0  0  0
    7.4069    2.0348   -1.3482 Cl  0  0  0  0  0  0  0  0  0  0  0  0
    0.7693   -0.8494    0.6888 H   0  0  0  0  0  0  0  0  0  0  0  0
    0.8700    0.0293   -0.8832 H   0  0  0  0  0  0  0  0  0  0  0  0
    0.5764    0.9425    0.6235 H   0  0  0  0  0  0  0  0  0  0  0  0
    5.0750    0.6873   -0.7485 H   0  0  0  0  0  0  0  0  0  0  0  0
    4.8379    0.5743    1.0090 H   0  0  0  0  0  0  0  0  0  0  0  0
    4.8215    3.2216   -0.5512 H   0  0  0  0  0  0  0  0  0  0  0  0
    7.1604    1.9583    1.0209 H   0  0  0  0  0  0  0  0  0  0  0  0
    7.1083    3.6301    0.3866 H   0  0  0  0  0  0  0  0  0  0  0  0
  1  2  1  0
  1 10  1  0
  1 11  1  0
  1 12  1  0
  2  3  1  0
  3  4  2  0
  3  5  1  0
  5  6  1  0
  5 13  1  0
  5 14  1  0
  6  7  1  0
  6  8  1  0
  6 15  1  6
  8  9  1  0
  8 16  1  0
  8 17  1  0
M  END

