
     RDKit          3D

 53 54  0  0  0  0  0  0  0  0999 V2000
    0.5034    0.1699   -0.2943 C   0  0  0  0  0  0  0  0  0  0  0  0
    2.0229   -0.0942   -0.1537 C   0  0  1  0  0  0  0  0  0  0  0  0
    2.5301    0.5224    1.1735 C   0  0  0  0  0  0  0  0  0  0  0  0
    2.2044   -1.6223   -0.0368 C   0  0  0  0  0  0  0  0  0  0  0  0
    2.7590    0.5991   -1.3367 C   0  0  0  0  0  0  0  0  0  0  0  0
    2.6027    1.9878   -1.4498 C   0  0  0  0  0  0  0  0  0  0  0  0
    3.1969    2.7611   -2.4554 C   0  0  0  0  0  0  0  0  0  0  0  0
    2.9635    4.2077   -2.4762 C   0  0  0  0  0  0  0  0  0  0  0  0
    3.4486    5.1093   -3.3582 C   0  0  0  0  0  0  0  0  0  0  0  0
    3.2035    6.5571   -3.3642 C   0  0  0  0  0  0  0  0  0  0  0  0
    3.8087    7.3324   -4.3755 C   0  0  0  0  0  0  0  0  0  0  0  0
    3.6101    8.7160   -4.4301 C   0  0  0  0  0  0  0  0  0  0  0  0
    4.1762    9.4959   -5.3888 O   0  0  0  0  0  0  0  0  0  0  0  0
    2.8047    9.3521   -3.4779 C   0  0  0  0  0  0  0  0  0  0  0  0
    2.2016    8.5855   -2.4719 C   0  0  0  0  0  0  0  0  0  0  0  0
    1.4098    9.1484   -1.5213 O   0  0  0  0  0  0  0  0  0  0  0  0
    2.3956    7.2017   -2.4109 C   0  0  0  0  0  0  0  0  0  0  0  0
    3.9940    2.0878   -3.3981 C   0  0  0  0  0  0  0  0  0  0  0  0
    4.2014    0.7093   -3.3584 C   0  0  0  0  0  0  0  0  0  0  0  0
    5.0915    0.0162   -4.4257 C   0  0  1  0  0  0  0  0  0  0  0  0
    5.6582    1.0257   -5.4451 C   0  0  0  0  0  0  0  0  0  0  0  0
    6.3215   -0.6603   -3.7627 C   0  0  0  0  0  0  0  0  0  0  0  0
    4.2662   -1.0083   -5.2501 C   0  0  0  0  0  0  0  0  0  0  0  0
    3.5704   -0.0304   -2.3109 C   0  0  0  0  0  0  0  0  0  0  0  0
    3.7356   -1.3811   -2.2203 O   0  0  0  0  0  0  0  0  0  0  0  0
   -0.0419   -0.2910    0.5458 H   0  0  0  0  0  0  0  0  0  0  0  0
    0.1150   -0.2651   -1.2289 H   0  0  0  0  0  0  0  0  0  0  0  0
    0.2600    1.2428   -0.2985 H   0  0  0  0  0  0  0  0  0  0  0  0
    2.0072    0.0648    2.0294 H   0  0  0  0  0  0  0  0  0  0  0  0
    2.3632    1.6086    1.2255 H   0  0  0  0  0  0  0  0  0  0  0  0
    3.6095    0.3431    1.3015 H   0  0  0  0  0  0  0  0  0  0  0  0
    1.6329   -1.9719    0.8387 H   0  0  0  0  0  0  0  0  0  0  0  0
    3.2545   -1.9076    0.1066 H   0  0  0  0  0  0  0  0  0  0  0  0
    1.8318   -2.1551   -0.9210 H   0  0  0  0  0  0  0  0  0  0  0  0
    1.9833    2.5072   -0.7160 H   0  0  0  0  0  0  0  0  0  0  0  0
    2.3164    4.5681   -1.6696 H   0  0  0  0  0  0  0  0  0  0  0  0
    4.0971    4.7580   -4.1676 H   0  0  0  0  0  0  0  0  0  0  0  0
    4.4405    6.8463   -5.1254 H   0  0  0  0  0  0  0  0  0  0  0  0
    4.7030    8.9417   -5.9791 H   0  0  0  0  0  0  0  0  0  0  0  0
    2.6617   10.4340   -3.5377 H   0  0  0  0  0  0  0  0  0  0  0  0
    1.3557   10.1010   -1.6717 H   0  0  0  0  0  0  0  0  0  0  0  0
    1.9034    6.6524   -1.6084 H   0  0  0  0  0  0  0  0  0  0  0  0
    4.4634    2.6720   -4.1859 H   0  0  0  0  0  0  0  0  0  0  0  0
    6.2928    1.7853   -4.9646 H   0  0  0  0  0  0  0  0  0  0  0  0
    4.8616    1.5420   -6.0015 H   0  0  0  0  0  0  0  0  0  0  0  0
    6.2811    0.4916   -6.1795 H   0  0  0  0  0  0  0  0  0  0  0  0
    6.9359    0.0930   -3.2457 H   0  0  0  0  0  0  0  0  0  0  0  0
    6.9496   -1.1442   -4.5282 H   0  0  0  0  0  0  0  0  0  0  0  0
    6.0747   -1.4275   -3.0126 H   0  0  0  0  0  0  0  0  0  0  0  0
    3.4420   -0.4986   -5.7726 H   0  0  0  0  0  0  0  0  0  0  0  0
    3.8061   -1.8128   -4.6557 H   0  0  0  0  0  0  0  0  0  0  0  0
    4.9040   -1.4898   -6.0090 H   0  0  0  0  0  0  0  0  0  0  0  0
    4.2980   -1.6905   -2.9363 H   0  0  0  0  0  0  0  0  0  0  0  0
  2  1  1  6
  1 26  1  0
  1 27  1  0
  1 28  1  0
  2  3  1  0
  2  4  1  0
  2  5  1  0
  3 29  1  0
  3 30  1  0
  3 31  1  0
  4 32  1  0
  4 33  1  0
  4 34  1  0
  5  6  2  0
  5 24  1  0
  6  7  1  0
  6 35  1  0
  7  8  1  0
  7 18  2  0
  8  9  2  0
  8 36  1  0
  9 10  1  0
  9 37  1  0
 10 11  2  0
 10 17  1  0
 11 12  1  0
 11 38  1  0
 12 13  1  0
 12 14  2  0
 13 39  1  0
 14 15  1  0
 14 40  1  0
 15 16  1  0
 15 17  2  0
 16 41  1  0
 17 42  1  0
 18 19  1  0
 18 43  1  0
 19 20  1  0
 19 24  2  0
 20 21  1  6
 20 22  1  0
 20 23  1  0
 21 44  1  0
 21 45  1  0
 21 46  1  0
 22 47  1  0
 22 48  1  0
 22 49  1  0
 23 50  1  0
 23 51  1  0
 23 52  1  0
 24 25  1  0
 25 53  1  0
M  END

