
     RDKit          3D

 39 39  0  0  0  0  0  0  0  0999 V2000
    2.6860    2.3765    1.9605 C   0  0  0  0  0  0  0  0  0  0  0  0
    2.1115    1.1022    2.6018 C   0  0  1  0  0  0  0  0  0  0  0  0
    0.6476    1.0810    2.6402 N   0  0  0  0  0  0  0  0  0  0  0  0
    2.5773   -0.1898    1.9079 C   0  0  0  0  0  0  0  0  0  0  0  0
    4.0889   -0.4208    1.8288 C   0  0  0  0  0  0  0  0  0  0  0  0
    4.7387   -0.6730    3.1904 C   0  0  0  0  0  0  0  0  0  0  0  0
    4.0662   -0.8619    4.1925 O   0  0  0  0  0  0  0  0  0  0  0  0
    6.1211   -0.7018    3.2456 N   0  0  0  0  0  0  0  0  0  0  0  0
    6.9951   -0.5713    2.0947 C   0  0  0  0  0  0  0  0  0  0  0  0
    7.5156    0.8746    1.8969 C   0  0  0  0  0  0  0  0  0  0  0  0
    8.4556    0.9808    0.7803 C   0  0  0  0  0  0  0  0  0  0  0  0
    9.1959    1.0313   -0.1095 N   0  0  0  0  0  0  0  0  0  0  0  0
    6.7570   -0.9502    4.5465 C   0  0  0  0  0  0  0  0  0  0  0  0
    7.2067   -2.3844    4.7421 C   0  0  0  0  0  0  0  0  0  0  0  0
    8.5587   -2.7452    4.7608 C   0  0  0  0  0  0  0  0  0  0  0  0
    8.9079   -4.0873    4.9325 C   0  0  0  0  0  0  0  0  0  0  0  0
    7.8827   -5.0244    5.0801 C   0  0  0  0  0  0  0  0  0  0  0  0
    6.5864   -4.6983    5.0719 N   0  0  0  0  0  0  0  0  0  0  0  0
    6.2624   -3.4158    4.9096 C   0  0  0  0  0  0  0  0  0  0  0  0
    2.2930    3.2731    2.4675 H   0  0  0  0  0  0  0  0  0  0  0  0
    2.4040    2.4446    0.8945 H   0  0  0  0  0  0  0  0  0  0  0  0
    3.7864    2.4297    2.0209 H   0  0  0  0  0  0  0  0  0  0  0  0
    2.4545    1.0509    3.6484 H   0  0  0  0  0  0  0  0  0  0  0  0
    0.2704    1.2017    1.6974 H   0  0  0  0  0  0  0  0  0  0  0  0
    0.2951    1.8669    3.1870 H   0  0  0  0  0  0  0  0  0  0  0  0
    2.1793   -0.1964    0.8763 H   0  0  0  0  0  0  0  0  0  0  0  0
    2.1070   -1.0309    2.4366 H   0  0  0  0  0  0  0  0  0  0  0  0
    4.5893    0.4132    1.3114 H   0  0  0  0  0  0  0  0  0  0  0  0
    4.2813   -1.3118    1.2041 H   0  0  0  0  0  0  0  0  0  0  0  0
    6.4857   -0.9033    1.1814 H   0  0  0  0  0  0  0  0  0  0  0  0
    7.8533   -1.2496    2.2255 H   0  0  0  0  0  0  0  0  0  0  0  0
    8.0187    1.2264    2.8126 H   0  0  0  0  0  0  0  0  0  0  0  0
    6.6719    1.5606    1.7173 H   0  0  0  0  0  0  0  0  0  0  0  0
    6.0182   -0.6794    5.3119 H   0  0  0  0  0  0  0  0  0  0  0  0
    7.6221   -0.2752    4.6533 H   0  0  0  0  0  0  0  0  0  0  0  0
    9.3357   -1.9820    4.6501 H   0  0  0  0  0  0  0  0  0  0  0  0
    9.9541   -4.4012    4.9523 H   0  0  0  0  0  0  0  0  0  0  0  0
    8.1200   -6.0865    5.2152 H   0  0  0  0  0  0  0  0  0  0  0  0
    5.1940   -3.1687    4.9162 H   0  0  0  0  0  0  0  0  0  0  0  0
  1  2  1  0
  1 20  1  0
  1 21  1  0
  1 22  1  0
  2  3  1  0
  2  4  1  0
  2 23  1  1
  3 24  1  0
  3 25  1  0
  4  5  1  0
  4 26  1  0
  4 27  1  0
  5  6  1  0
  5 28  1  0
  5 29  1  0
  6  7  2  0
  6  8  1  0
  8  9  1  0
  8 13  1  0
  9 10  1  0
  9 30  1  0
  9 31  1  0
 10 11  1  0
 10 32  1  0
 10 33  1  0
 11 12  3  0
 13 14  1  0
 13 34  1  0
 13 35  1  0
 14 15  2  0
 14 19  1  0
 15 16  1  0
 15 36  1  0
 16 17  2  0
 16 37  1  0
 17 18  1  0
 17 38  1  0
 18 19  2  0
 19 39  1  0
M  END

