
     RDKit          3D

 29 31  0  0  0  0  0  0  0  0999 V2000
    1.2035    0.5757   -0.0485 Cl  0  0  0  0  0  0  0  0  0  0  0  0
    2.7795   -0.3669   -0.3360 C   0  0  1  0  0  0  0  0  0  0  0  0
    3.8709    0.5580   -0.8330 C   0  0  0  0  0  0  0  0  0  0  0  0
    4.0968    1.8188   -0.2607 C   0  0  0  0  0  0  0  0  0  0  0  0
    5.1459    2.6227   -0.7123 C   0  0  0  0  0  0  0  0  0  0  0  0
    5.9816    2.1801   -1.7430 C   0  0  0  0  0  0  0  0  0  0  0  0
    5.7590    0.9283   -2.3227 C   0  0  0  0  0  0  0  0  0  0  0  0
    4.7093    0.1237   -1.8703 C   0  0  0  0  0  0  0  0  0  0  0  0
    3.1471   -1.1414    0.8916 C   0  0  0  0  0  0  0  0  0  0  0  0
    4.1610   -0.9073    1.7970 C   0  0  0  0  0  0  0  0  0  0  0  0
    4.1716   -1.8594    2.8577 C   0  0  0  0  0  0  0  0  0  0  0  0
    3.1785   -2.7999    2.7490 C   0  0  0  0  0  0  0  0  0  0  0  0
    2.2013   -2.5530    1.3466 S   0  0  0  0  0  0  0  0  0  0  0  0
    3.2217   -3.8439    3.8288 C   0  0  0  0  0  0  0  0  0  0  0  0
    4.1922   -3.1806    4.8518 C   0  0  0  0  0  0  0  0  0  0  0  0
    5.0403   -2.1428    4.0596 C   0  0  0  0  0  0  0  0  0  0  0  0
    2.5005   -1.0582   -1.1418 H   0  0  0  0  0  0  0  0  0  0  0  0
    3.4297    2.1745    0.5270 H   0  0  0  0  0  0  0  0  0  0  0  0
    5.3074    3.6050   -0.2606 H   0  0  0  0  0  0  0  0  0  0  0  0
    6.7986    2.8131   -2.0986 H   0  0  0  0  0  0  0  0  0  0  0  0
    6.4006    0.5767   -3.1347 H   0  0  0  0  0  0  0  0  0  0  0  0
    4.5401   -0.8548   -2.3288 H   0  0  0  0  0  0  0  0  0  0  0  0
    4.8669   -0.0836    1.6890 H   0  0  0  0  0  0  0  0  0  0  0  0
    3.6242   -4.7984    3.4411 H   0  0  0  0  0  0  0  0  0  0  0  0
    2.2381   -4.0720    4.2705 H   0  0  0  0  0  0  0  0  0  0  0  0
    4.8107   -3.9196    5.3830 H   0  0  0  0  0  0  0  0  0  0  0  0
    3.5962   -2.6501    5.6115 H   0  0  0  0  0  0  0  0  0  0  0  0
    6.0127   -2.5671    3.7474 H   0  0  0  0  0  0  0  0  0  0  0  0
    5.2678   -1.2472    4.6603 H   0  0  0  0  0  0  0  0  0  0  0  0
  1  2  1  0
  2  3  1  0
  2  9  1  0
  2 17  1  6
  3  4  2  0
  3  8  1  0
  4  5  1  0
  4 18  1  0
  5  6  2  0
  5 19  1  0
  6  7  1  0
  6 20  1  0
  7  8  2  0
  7 21  1  0
  8 22  1  0
  9 10  2  0
  9 13  1  0
 10 11  1  0
 10 23  1  0
 11 12  2  0
 11 16  1  0
 12 13  1  0
 12 14  1  0
 14 15  1  0
 14 24  1  0
 14 25  1  0
 15 16  1  0
 15 26  1  0
 15 27  1  0
 16 28  1  0
 16 29  1  0
M  END

