
     RDKit          3D

 45 49  0  0  0  0  0  0  0  0999 V2000
    2.0653    4.1712   -2.4470 C   0  0  0  0  0  0  0  0  0  0  0  0
    3.3802    3.4743   -2.2012 C   0  0  0  0  0  0  0  0  0  0  0  0
    4.5986    4.0475   -2.6017 C   0  0  0  0  0  0  0  0  0  0  0  0
    5.8118    3.3970   -2.3835 C   0  0  0  0  0  0  0  0  0  0  0  0
    5.8376    2.1431   -1.7511 C   0  0  0  0  0  0  0  0  0  0  0  0
    7.1077    1.4439   -1.5147 C   0  0  0  0  0  0  0  0  0  0  0  0
    8.2709    1.9111   -1.9092 N   0  0  0  0  0  0  0  0  0  0  0  0
    9.1788    0.9443   -1.4856 O   0  0  0  0  0  0  0  0  0  0  0  0
    8.4708   -0.0115   -0.8791 C   0  0  0  0  0  0  0  0  0  0  0  0
    9.2166   -1.1806   -0.2932 C   0  0  0  0  0  0  0  0  0  0  0  0
    8.3566   -2.2490    0.1369 N   0  0  0  0  0  0  0  0  0  0  0  0
    8.0090   -3.2290   -0.7311 N   0  0  0  0  0  0  0  0  0  0  0  0
    7.0535   -3.9257   -0.3413 N   0  0  0  0  0  0  0  0  0  0  0  0
    6.5627   -3.4114    0.9721 C   0  0  1  0  0  0  0  0  0  0  0  0
    5.4795   -3.2365    0.9023 H   0  0  0  0  0  0  0  0  0  0  0  0
    6.8343   -4.4107    2.1046 C   0  0  0  0  0  0  0  0  0  0  0  0
    6.3277   -5.4888    2.2475 O   0  0  0  0  0  0  0  0  0  0  0  0
    7.7989   -3.8373    2.9658 N   0  0  0  0  0  0  0  0  0  0  0  0
    8.3158   -4.5071    4.1200 C   0  0  0  0  0  0  0  0  0  0  0  0
    8.6727   -5.8607    4.0408 C   0  0  0  0  0  0  0  0  0  0  0  0
    9.1746   -6.5168    5.1646 C   0  0  0  0  0  0  0  0  0  0  0  0
    9.3242   -5.8079    6.3546 C   0  0  0  0  0  0  0  0  0  0  0  0
    9.8106   -6.4352    7.4325 F   0  0  0  0  0  0  0  0  0  0  0  0
    8.9795   -4.4615    6.4492 C   0  0  0  0  0  0  0  0  0  0  0  0
    8.4679   -3.8102    5.3268 C   0  0  0  0  0  0  0  0  0  0  0  0
    8.1856   -2.5484    2.5773 C   0  0  0  0  0  0  0  0  0  0  0  0
    8.9805   -1.8397    3.1432 O   0  0  0  0  0  0  0  0  0  0  0  0
    7.4457   -2.2010    1.2808 C   0  0  1  0  0  0  0  0  0  0  0  0
    6.9408   -1.2266    1.3608 H   0  0  0  0  0  0  0  0  0  0  0  0
    7.1982    0.2290   -0.8567 N   0  0  0  0  0  0  0  0  0  0  0  0
    4.6257    1.5602   -1.3454 C   0  0  0  0  0  0  0  0  0  0  0  0
    3.4189    2.2197   -1.5690 C   0  0  0  0  0  0  0  0  0  0  0  0
    2.2113    5.1839   -2.8502 H   0  0  0  0  0  0  0  0  0  0  0  0
    1.4771    4.2560   -1.5185 H   0  0  0  0  0  0  0  0  0  0  0  0
    1.4469    3.6092   -3.1676 H   0  0  0  0  0  0  0  0  0  0  0  0
    4.5960    5.0239   -3.0940 H   0  0  0  0  0  0  0  0  0  0  0  0
    6.7498    3.8568   -2.7005 H   0  0  0  0  0  0  0  0  0  0  0  0
    9.8217   -0.8329    0.5608 H   0  0  0  0  0  0  0  0  0  0  0  0
    9.9137   -1.5811   -1.0445 H   0  0  0  0  0  0  0  0  0  0  0  0
    8.5470   -6.4072    3.1068 H   0  0  0  0  0  0  0  0  0  0  0  0
    9.4542   -7.5711    5.1276 H   0  0  0  0  0  0  0  0  0  0  0  0
    9.1114   -3.9380    7.3978 H   0  0  0  0  0  0  0  0  0  0  0  0
    8.2005   -2.7561    5.3888 H   0  0  0  0  0  0  0  0  0  0  0  0
    4.6428    0.5849   -0.8564 H   0  0  0  0  0  0  0  0  0  0  0  0
    2.4844    1.7509   -1.2470 H   0  0  0  0  0  0  0  0  0  0  0  0
  1  2  1  0
  1 33  1  0
  1 34  1  0
  1 35  1  0
  2  3  2  0
  2 32  1  0
  3  4  1  0
  3 36  1  0
  4  5  2  0
  4 37  1  0
  5  6  1  0
  5 31  1  0
  6  7  2  0
  6 30  1  0
  7  8  1  0
  8  9  1  0
  9 10  1  0
  9 30  2  0
 10 11  1  0
 10 38  1  0
 10 39  1  0
 11 12  1  0
 11 28  1  0
 12 13  2  0
 13 14  1  0
 14 15  1  6
 14 16  1  0
 14 28  1  0
 16 17  2  0
 16 18  1  0
 18 19  1  0
 18 26  1  0
 19 20  2  0
 19 25  1  0
 20 21  1  0
 20 40  1  0
 21 22  2  0
 21 41  1  0
 22 23  1  0
 22 24  1  0
 24 25  2  0
 24 42  1  0
 25 43  1  0
 26 27  2  0
 26 28  1  0
 28 29  1  1
 31 32  2  0
 31 44  1  0
 32 45  1  0
M  END

