
     RDKit          3D

 47 48  0  0  0  0  0  0  0  0999 V2000
    4.0322   -2.5535    3.4367 C   0  0  0  0  0  0  0  0  0  0  0  0
    4.0319   -1.1646    3.0191 N   0  0  0  0  0  0  0  0  0  0  0  0
    4.5159   -0.9491    1.6661 C   0  0  0  0  0  0  0  0  0  0  0  0
    4.3635    0.5046    1.2077 C   0  0  0  0  0  0  0  0  0  0  0  0
    5.0918    1.5663    2.0599 C   0  0  1  0  0  0  0  0  0  0  0  0
    6.6185    1.3620    2.1679 C   0  0  0  0  0  0  0  0  0  0  0  0
    7.3673    1.7367    0.8836 C   0  0  0  0  0  0  0  0  0  0  0  0
    7.0433    3.1053    0.4862 N   0  0  0  0  0  0  0  0  0  0  0  0
    8.0700    3.9408    0.1017 C   0  0  0  0  0  0  0  0  0  0  0  0
    9.2192    3.5190   -0.0315 O   0  0  0  0  0  0  0  0  0  0  0  0
    7.7679    5.3843   -0.0862 C   0  0  0  0  0  0  0  0  0  0  0  0
    6.9603    6.2324    0.6726 C   0  0  0  0  0  0  0  0  0  0  0  0
    7.1765    7.5543    0.2191 C   0  0  0  0  0  0  0  0  0  0  0  0
    8.1054    7.4776   -0.8058 C   0  0  0  0  0  0  0  0  0  0  0  0
    8.4700    6.1712   -0.9884 N   0  0  0  0  0  0  0  0  0  0  0  0
    9.4710    5.7147   -1.9751 C   0  0  1  0  0  0  0  0  0  0  0  0
    9.2136    6.3302   -3.3535 C   0  0  0  0  0  0  0  0  0  0  0  0
   10.8913    5.9718   -1.4630 C   0  0  0  0  0  0  0  0  0  0  0  0
    5.6146    3.3339    0.2816 C   0  0  0  0  0  0  0  0  0  0  0  0
    4.8162    2.9967    1.5460 C   0  0  0  0  0  0  0  0  0  0  0  0
    3.7018   -2.6326    4.4846 H   0  0  0  0  0  0  0  0  0  0  0  0
    5.0191   -3.0632    3.3518 H   0  0  0  0  0  0  0  0  0  0  0  0
    3.3188   -3.1311    2.8240 H   0  0  0  0  0  0  0  0  0  0  0  0
    4.5769   -0.6106    3.6776 H   0  0  0  0  0  0  0  0  0  0  0  0
    3.9160   -1.5852    0.9910 H   0  0  0  0  0  0  0  0  0  0  0  0
    5.5698   -1.2872    1.5245 H   0  0  0  0  0  0  0  0  0  0  0  0
    3.2879    0.7509    1.2104 H   0  0  0  0  0  0  0  0  0  0  0  0
    4.6928    0.5624    0.1561 H   0  0  0  0  0  0  0  0  0  0  0  0
    4.6670    1.5037    3.0772 H   0  0  0  0  0  0  0  0  0  0  0  0
    6.8620    0.3212    2.4376 H   0  0  0  0  0  0  0  0  0  0  0  0
    7.0041    1.9951    2.9855 H   0  0  0  0  0  0  0  0  0  0  0  0
    7.1062    1.0403    0.0626 H   0  0  0  0  0  0  0  0  0  0  0  0
    8.4539    1.6756    1.0175 H   0  0  0  0  0  0  0  0  0  0  0  0
    6.3183    5.9249    1.4954 H   0  0  0  0  0  0  0  0  0  0  0  0
    6.7112    8.4638    0.5942 H   0  0  0  0  0  0  0  0  0  0  0  0
    8.5224    8.2676   -1.4252 H   0  0  0  0  0  0  0  0  0  0  0  0
    9.3394    4.6288   -2.0471 H   0  0  0  0  0  0  0  0  0  0  0  0
    9.4021    7.4155   -3.3687 H   0  0  0  0  0  0  0  0  0  0  0  0
    8.1774    6.1560   -3.6820 H   0  0  0  0  0  0  0  0  0  0  0  0
    9.8892    5.8716   -4.0921 H   0  0  0  0  0  0  0  0  0  0  0  0
   11.0768    7.0489   -1.3193 H   0  0  0  0  0  0  0  0  0  0  0  0
   11.6303    5.5906   -2.1857 H   0  0  0  0  0  0  0  0  0  0  0  0
   11.0406    5.4487   -0.5085 H   0  0  0  0  0  0  0  0  0  0  0  0
    5.2734    2.6949   -0.5570 H   0  0  0  0  0  0  0  0  0  0  0  0
    5.4455    4.3712   -0.0249 H   0  0  0  0  0  0  0  0  0  0  0  0
    3.7399    3.1292    1.3442 H   0  0  0  0  0  0  0  0  0  0  0  0
    5.0867    3.7217    2.3331 H   0  0  0  0  0  0  0  0  0  0  0  0
  1  2  1  0
  1 21  1  0
  1 22  1  0
  1 23  1  0
  2  3  1  0
  2 24  1  0
  3  4  1  0
  3 25  1  0
  3 26  1  0
  4  5  1  0
  4 27  1  0
  4 28  1  0
  5  6  1  0
  5 20  1  0
  5 29  1  1
  6  7  1  0
  6 30  1  0
  6 31  1  0
  7  8  1  0
  7 32  1  0
  7 33  1  0
  8  9  1  0
  8 19  1  0
  9 10  2  0
  9 11  1  0
 11 12  2  0
 11 15  1  0
 12 13  1  0
 12 34  1  0
 13 14  2  0
 13 35  1  0
 14 15  1  0
 14 36  1  0
 15 16  1  0
 16 17  1  0
 16 18  1  0
 16 37  1  6
 17 38  1  0
 17 39  1  0
 17 40  1  0
 18 41  1  0
 18 42  1  0
 18 43  1  0
 19 20  1  0
 19 44  1  0
 19 45  1  0
 20 46  1  0
 20 47  1  0
M  END

