
     RDKit          3D

 77 80  0  0  0  0  0  0  0  0999 V2000
    3.9434   -1.5296    1.1975 C   0  0  0  0  0  0  0  0  0  0  0  0
    3.0389   -0.3186    1.0391 C   0  0  0  0  0  0  0  0  0  0  0  0
    1.8321   -0.4324    0.9052 O   0  0  0  0  0  0  0  0  0  0  0  0
    3.6284    0.9367    1.0640 N   0  0  0  0  0  0  0  0  0  0  0  0
    2.8021    2.0515    0.8296 N   0  0  0  0  0  0  0  0  0  0  0  0
    1.9567    2.4075    1.9861 C   0  0  0  0  0  0  0  0  0  0  0  0
    1.3426    3.7787    1.8058 C   0  0  0  0  0  0  0  0  0  0  0  0
    1.8408    4.8845    2.5129 C   0  0  0  0  0  0  0  0  0  0  0  0
    1.2897    6.1586    2.3613 C   0  0  0  0  0  0  0  0  0  0  0  0
    0.2199    6.3593    1.4877 C   0  0  0  0  0  0  0  0  0  0  0  0
   -0.2843    5.2730    0.7791 C   0  0  0  0  0  0  0  0  0  0  0  0
   -1.3093    5.4557   -0.0559 F   0  0  0  0  0  0  0  0  0  0  0  0
    0.2643    3.9929    0.9287 C   0  0  0  0  0  0  0  0  0  0  0  0
   -0.4310    2.6848    0.0057 Cl  0  0  0  0  0  0  0  0  0  0  0  0
    5.0625    1.1864    0.8597 C   0  0  1  0  0  0  0  0  0  0  0  0
    5.5989    0.2889    1.1984 H   0  0  0  0  0  0  0  0  0  0  0  0
    5.3672    1.4300   -0.6311 C   0  0  0  0  0  0  0  0  0  0  0  0
    6.8492    1.4220   -1.0071 C   0  0  0  0  0  0  0  0  0  0  0  0
    7.0510    1.5390   -2.5192 C   0  0  0  0  0  0  0  0  0  0  0  0
    6.0966    1.5779   -3.2828 O   0  0  0  0  0  0  0  0  0  0  0  0
    8.3475    1.6037   -2.9772 N   0  0  0  0  0  0  0  0  0  0  0  0
    8.6045    1.6896   -4.4129 C   0  0  0  0  0  0  0  0  0  0  0  0
    9.5452    2.8557   -4.7094 C   0  0  0  0  0  0  0  0  0  0  0  0
   10.7509    2.7282   -3.8966 N   0  0  0  0  0  0  0  0  0  0  0  0
   10.5104    2.6796   -2.4526 C   0  0  1  0  0  0  0  0  0  0  0  0
   11.4738    2.4252   -1.9761 H   0  0  0  0  0  0  0  0  0  0  0  0
   10.0064    3.9932   -1.8284 C   0  0  0  0  0  0  0  0  0  0  0  0
    9.5582    1.5013   -2.1725 C   0  0  0  0  0  0  0  0  0  0  0  0
    5.4917    2.3126    1.8075 C   0  0  0  0  0  0  0  0  0  0  0  0
    6.9273    2.3480    1.8392 O   0  0  0  0  0  0  0  0  0  0  0  0
    7.4285    3.2923    2.7070 N   0  0  0  0  0  0  0  0  0  0  0  0
    7.3697    2.9905    4.0705 C   0  0  0  0  0  0  0  0  0  0  0  0
    6.9156    1.9522    4.5089 O   0  0  0  0  0  0  0  0  0  0  0  0
    7.9106    3.9849    4.8794 N   0  0  0  0  0  0  0  0  0  0  0  0
    8.7009    5.0383    4.4087 C   0  0  0  0  0  0  0  0  0  0  0  0
    8.8936    6.1526    5.1486 C   0  0  0  0  0  0  0  0  0  0  0  0
    8.1891    6.3294    6.4161 C   0  0  0  0  0  0  0  0  0  0  0  0
    8.0881    7.5730    7.0626 C   0  0  0  0  0  0  0  0  0  0  0  0
    7.3532    7.7036    8.2426 C   0  0  0  0  0  0  0  0  0  0  0  0
    6.7018    6.5928    8.7873 C   0  0  0  0  0  0  0  0  0  0  0  0
    6.7974    5.3484    8.1526 C   0  0  0  0  0  0  0  0  0  0  0  0
    7.5430    5.2045    6.9814 C   0  0  0  0  0  0  0  0  0  0  0  0
    7.7603    3.8542    6.3331 C   0  0  0  0  0  0  0  0  0  0  0  0
    3.2962   -2.4124    1.2664 H   0  0  0  0  0  0  0  0  0  0  0  0
    4.5686   -1.4634    2.1011 H   0  0  0  0  0  0  0  0  0  0  0  0
    4.6119   -1.6494    0.3302 H   0  0  0  0  0  0  0  0  0  0  0  0
    2.1898    1.8328    0.0403 H   0  0  0  0  0  0  0  0  0  0  0  0
    2.6032    2.4229    2.8744 H   0  0  0  0  0  0  0  0  0  0  0  0
    1.1661    1.6565    2.1558 H   0  0  0  0  0  0  0  0  0  0  0  0
    2.6762    4.7335    3.2009 H   0  0  0  0  0  0  0  0  0  0  0  0
    1.6935    7.0014    2.9267 H   0  0  0  0  0  0  0  0  0  0  0  0
   -0.2377    7.3397    1.3419 H   0  0  0  0  0  0  0  0  0  0  0  0
    4.9022    2.3783   -0.9424 H   0  0  0  0  0  0  0  0  0  0  0  0
    4.8574    0.6494   -1.2175 H   0  0  0  0  0  0  0  0  0  0  0  0
    7.3259    0.4902   -0.6526 H   0  0  0  0  0  0  0  0  0  0  0  0
    7.3854    2.2322   -0.4931 H   0  0  0  0  0  0  0  0  0  0  0  0
    7.6397    1.8059   -4.9210 H   0  0  0  0  0  0  0  0  0  0  0  0
    9.0752    0.7484   -4.7545 H   0  0  0  0  0  0  0  0  0  0  0  0
    8.9924    3.8069   -4.5499 H   0  0  0  0  0  0  0  0  0  0  0  0
    9.8328    2.8262   -5.7732 H   0  0  0  0  0  0  0  0  0  0  0  0
   11.4249    3.4561   -4.1249 H   0  0  0  0  0  0  0  0  0  0  0  0
    9.0031    4.2640   -2.1923 H   0  0  0  0  0  0  0  0  0  0  0  0
   10.6894    4.8245   -2.0693 H   0  0  0  0  0  0  0  0  0  0  0  0
    9.9544    3.9119   -0.7300 H   0  0  0  0  0  0  0  0  0  0  0  0
    9.3111    1.4645   -1.1059 H   0  0  0  0  0  0  0  0  0  0  0  0
   10.0854    0.5636   -2.4300 H   0  0  0  0  0  0  0  0  0  0  0  0
    5.1145    2.1007    2.8192 H   0  0  0  0  0  0  0  0  0  0  0  0
    5.0977    3.2844    1.4587 H   0  0  0  0  0  0  0  0  0  0  0  0
    7.2321    4.2494    2.4134 H   0  0  0  0  0  0  0  0  0  0  0  0
    9.1547    4.8945    3.4264 H   0  0  0  0  0  0  0  0  0  0  0  0
    9.5365    6.9480    4.7675 H   0  0  0  0  0  0  0  0  0  0  0  0
    8.5855    8.4442    6.6272 H   0  0  0  0  0  0  0  0  0  0  0  0
    7.2842    8.6761    8.7365 H   0  0  0  0  0  0  0  0  0  0  0  0
    6.1228    6.6917    9.7087 H   0  0  0  0  0  0  0  0  0  0  0  0
    6.2950    4.4773    8.5832 H   0  0  0  0  0  0  0  0  0  0  0  0
    6.9307    3.1629    6.5254 H   0  0  0  0  0  0  0  0  0  0  0  0
    8.6737    3.3813    6.7487 H   0  0  0  0  0  0  0  0  0  0  0  0
  1  2  1  0
  1 44  1  0
  1 45  1  0
  1 46  1  0
  2  3  2  0
  2  4  1  0
  4  5  1  0
  4 15  1  0
  5  6  1  0
  5 47  1  0
  6  7  1  0
  6 48  1  0
  6 49  1  0
  7  8  2  0
  7 13  1  0
  8  9  1  0
  8 50  1  0
  9 10  2  0
  9 51  1  0
 10 11  1  0
 10 52  1  0
 11 12  1  0
 11 13  2  0
 13 14  1  0
 15 16  1  1
 15 17  1  0
 15 29  1  0
 17 18  1  0
 17 53  1  0
 17 54  1  0
 18 19  1  0
 18 55  1  0
 18 56  1  0
 19 20  2  0
 19 21  1  0
 21 22  1  0
 21 28  1  0
 22 23  1  0
 22 57  1  0
 22 58  1  0
 23 24  1  0
 23 59  1  0
 23 60  1  0
 24 25  1  0
 24 61  1  0
 25 26  1  1
 25 27  1  0
 25 28  1  0
 27 62  1  0
 27 63  1  0
 27 64  1  0
 28 65  1  0
 28 66  1  0
 29 30  1  0
 29 67  1  0
 29 68  1  0
 30 31  1  0
 31 32  1  0
 31 69  1  0
 32 33  2  0
 32 34  1  0
 34 35  1  0
 34 43  1  0
 35 36  2  0
 35 70  1  0
 36 37  1  0
 36 71  1  0
 37 38  2  0
 37 42  1  0
 38 39  1  0
 38 72  1  0
 39 40  2  0
 39 73  1  0
 40 41  1  0
 40 74  1  0
 41 42  2  0
 41 75  1  0
 42 43  1  0
 43 76  1  0
 43 77  1  0
M  END

