
     RDKit          3D

 40 41  0  0  0  0  0  0  0  0999 V2000
    0.8664   -0.1737    0.2682 C   0  0  0  0  0  0  0  0  0  0  0  0
    2.3942   -0.0147    0.1378 C   0  0  1  0  0  0  0  0  0  0  0  0
    2.9617    0.3655    1.5155 C   0  0  0  0  0  0  0  0  0  0  0  0
    3.0444   -1.3386   -0.3365 C   0  0  0  0  0  0  0  0  0  0  0  0
    2.7229   -1.7008   -1.7912 C   0  0  0  0  0  0  0  0  0  0  0  0
    3.0627   -0.5944   -2.8171 C   0  0  2  0  0  0  0  0  0  0  0  0
    2.4171   -0.9627   -4.0798 N   0  0  0  0  0  0  0  0  0  0  0  0
    4.6240   -0.4805   -2.9545 C   0  0  0  0  0  0  0  0  0  0  0  0
    5.1272    0.4983   -3.9914 C   0  0  0  0  0  0  0  0  0  0  0  0
    5.4596    1.8215   -3.6448 C   0  0  0  0  0  0  0  0  0  0  0  0
    5.9013    2.7189   -4.6185 C   0  0  0  0  0  0  0  0  0  0  0  0
    6.0226    2.3228   -5.9529 C   0  0  0  0  0  0  0  0  0  0  0  0
    5.7021    1.0064   -6.3102 C   0  0  0  0  0  0  0  0  0  0  0  0
    5.8070    0.5463   -7.5852 O   0  0  0  0  0  0  0  0  0  0  0  0
    5.2593    0.1055   -5.3310 C   0  0  0  0  0  0  0  0  0  0  0  0
    2.4222    0.7287   -2.3397 C   0  0  0  0  0  0  0  0  0  0  0  0
    2.7436    1.0948   -0.8857 C   0  0  0  0  0  0  0  0  0  0  0  0
    0.6171   -0.9574    1.0027 H   0  0  0  0  0  0  0  0  0  0  0  0
    0.3837   -0.4465   -0.6817 H   0  0  0  0  0  0  0  0  0  0  0  0
    0.4051    0.7660    0.6147 H   0  0  0  0  0  0  0  0  0  0  0  0
    2.7406   -0.4121    2.2657 H   0  0  0  0  0  0  0  0  0  0  0  0
    2.5274    1.3123    1.8776 H   0  0  0  0  0  0  0  0  0  0  0  0
    4.0564    0.4921    1.4775 H   0  0  0  0  0  0  0  0  0  0  0  0
    2.7253   -2.1624    0.3258 H   0  0  0  0  0  0  0  0  0  0  0  0
    4.1379   -1.2580   -0.2052 H   0  0  0  0  0  0  0  0  0  0  0  0
    1.6482   -1.9163   -1.9021 H   0  0  0  0  0  0  0  0  0  0  0  0
    3.2507   -2.6314   -2.0680 H   0  0  0  0  0  0  0  0  0  0  0  0
    2.7875   -1.8498   -4.4253 H   0  0  0  0  0  0  0  0  0  0  0  0
    2.6173   -0.2694   -4.8016 H   0  0  0  0  0  0  0  0  0  0  0  0
    4.9957   -1.4892   -3.2034 H   0  0  0  0  0  0  0  0  0  0  0  0
    5.0641   -0.2228   -1.9792 H   0  0  0  0  0  0  0  0  0  0  0  0
    5.3811    2.1453   -2.6044 H   0  0  0  0  0  0  0  0  0  0  0  0
    6.1605    3.7432   -4.3379 H   0  0  0  0  0  0  0  0  0  0  0  0
    6.3736    3.0278   -6.7133 H   0  0  0  0  0  0  0  0  0  0  0  0
    6.1226    1.2571   -8.1583 H   0  0  0  0  0  0  0  0  0  0  0  0
    5.0381   -0.9183   -5.6403 H   0  0  0  0  0  0  0  0  0  0  0  0
    1.3344    0.6176   -2.4729 H   0  0  0  0  0  0  0  0  0  0  0  0
    2.7268    1.5518   -3.0080 H   0  0  0  0  0  0  0  0  0  0  0  0
    2.2108    2.0234   -0.6156 H   0  0  0  0  0  0  0  0  0  0  0  0
    3.8185    1.3297   -0.7885 H   0  0  0  0  0  0  0  0  0  0  0  0
  2  1  1  1
  1 18  1  0
  1 19  1  0
  1 20  1  0
  2  3  1  0
  2  4  1  0
  2 17  1  0
  3 21  1  0
  3 22  1  0
  3 23  1  0
  4  5  1  0
  4 24  1  0
  4 25  1  0
  5  6  1  0
  5 26  1  0
  5 27  1  0
  6  7  1  6
  6  8  1  0
  6 16  1  0
  7 28  1  0
  7 29  1  0
  8  9  1  0
  8 30  1  0
  8 31  1  0
  9 10  2  0
  9 15  1  0
 10 11  1  0
 10 32  1  0
 11 12  2  0
 11 33  1  0
 12 13  1  0
 12 34  1  0
 13 14  1  0
 13 15  2  0
 14 35  1  0
 15 36  1  0
 16 17  1  0
 16 37  1  0
 16 38  1  0
 17 39  1  0
 17 40  1  0
M  END

