
     RDKit          3D

 67 70  0  0  0  0  0  0  0  0999 V2000
    5.8642   -3.6851  -10.5748 C   0  0  0  0  0  0  0  0  0  0  0  0
    6.5174   -3.3130   -9.6263 C   0  0  0  0  0  0  0  0  0  0  0  0
    7.3176   -2.8439   -8.4954 C   0  0  0  0  0  0  0  0  0  0  0  0
    7.1957   -3.7272   -7.4015 O   0  0  0  0  0  0  0  0  0  0  0  0
    7.9662   -3.3532   -6.2751 C   0  0  0  0  0  0  0  0  0  0  0  0
    7.6951   -4.3942   -5.1937 C   0  0  1  0  0  0  0  0  0  0  0  0
    6.6206   -4.3307   -4.9350 H   0  0  0  0  0  0  0  0  0  0  0  0
    7.9989   -5.6849   -5.6875 O   0  0  0  0  0  0  0  0  0  0  0  0
    8.5303   -4.1362   -3.9371 C   0  0  0  0  0  0  0  0  0  0  0  0
    8.2834   -5.0827   -2.8533 N   0  0  0  0  0  0  0  0  0  0  0  0
    7.3840   -4.6238   -1.7976 C   0  0  0  0  0  0  0  0  0  0  0  0
    5.9543   -4.4133   -2.2186 C   0  0  0  0  0  0  0  0  0  0  0  0
    5.0422   -5.3183   -2.8528 C   0  0  0  0  0  0  0  0  0  0  0  0
    5.3065   -6.7440   -3.2807 C   0  0  1  0  0  0  0  0  0  0  0  0
    5.1671   -7.7031   -2.0823 C   0  0  0  0  0  0  0  0  0  0  0  0
    4.4053   -7.1761   -4.4434 C   0  0  0  0  0  0  0  0  0  0  0  0
    3.8481   -4.7628   -3.0106 N   0  0  0  0  0  0  0  0  0  0  0  0
    3.9239   -3.5156   -2.4882 N   0  0  0  0  0  0  0  0  0  0  0  0
    2.7829   -2.6677   -2.5110 C   0  0  0  0  0  0  0  0  0  0  0  0
    2.5849   -1.6871   -1.5275 C   0  0  0  0  0  0  0  0  0  0  0  0
    1.4483   -0.8763   -1.5821 C   0  0  0  0  0  0  0  0  0  0  0  0
    0.5011   -1.0437   -2.5955 C   0  0  0  0  0  0  0  0  0  0  0  0
    0.6974   -2.0353   -3.5626 C   0  0  0  0  0  0  0  0  0  0  0  0
    1.8326   -2.8448   -3.5285 C   0  0  0  0  0  0  0  0  0  0  0  0
    5.1921   -3.2777   -2.0145 C   0  0  0  0  0  0  0  0  0  0  0  0
    5.5446   -2.1038   -1.4246 O   0  0  0  0  0  0  0  0  0  0  0  0
    6.0023   -1.0496   -2.1859 C   0  0  0  0  0  0  0  0  0  0  0  0
    6.4596    0.0714   -1.4820 C   0  0  0  0  0  0  0  0  0  0  0  0
    6.9415    1.1723   -2.1905 C   0  0  0  0  0  0  0  0  0  0  0  0
    6.9802    1.1715   -3.5896 C   0  0  0  0  0  0  0  0  0  0  0  0
    6.5147    0.0410   -4.2528 C   0  0  0  0  0  0  0  0  0  0  0  0
    6.5537    0.0066   -5.5974 F   0  0  0  0  0  0  0  0  0  0  0  0
    6.0165   -1.0750   -3.5834 C   0  0  0  0  0  0  0  0  0  0  0  0
    9.4616   -5.7327   -2.3492 C   0  0  1  0  0  0  0  0  0  0  0  0
    9.3776   -7.1906   -1.9723 C   0  0  0  0  0  0  0  0  0  0  0  0
   10.1222   -6.7706   -3.2151 C   0  0  0  0  0  0  0  0  0  0  0  0
    5.2816   -4.0180  -11.4133 H   0  0  0  0  0  0  0  0  0  0  0  0
    6.9870   -1.8243   -8.2066 H   0  0  0  0  0  0  0  0  0  0  0  0
    8.3790   -2.7541   -8.8104 H   0  0  0  0  0  0  0  0  0  0  0  0
    7.6882   -2.3384   -5.9316 H   0  0  0  0  0  0  0  0  0  0  0  0
    9.0461   -3.3443   -6.5321 H   0  0  0  0  0  0  0  0  0  0  0  0
    7.5669   -5.7515   -6.5523 H   0  0  0  0  0  0  0  0  0  0  0  0
    8.3560   -3.0920   -3.6072 H   0  0  0  0  0  0  0  0  0  0  0  0
    9.5910   -4.2047   -4.2271 H   0  0  0  0  0  0  0  0  0  0  0  0
    7.7475   -3.6857   -1.3212 H   0  0  0  0  0  0  0  0  0  0  0  0
    7.4099   -5.3932   -1.0082 H   0  0  0  0  0  0  0  0  0  0  0  0
    6.3534   -6.7748   -3.6231 H   0  0  0  0  0  0  0  0  0  0  0  0
    4.1303   -7.7115   -1.7078 H   0  0  0  0  0  0  0  0  0  0  0  0
    5.8221   -7.4122   -1.2458 H   0  0  0  0  0  0  0  0  0  0  0  0
    5.4333   -8.7321   -2.3746 H   0  0  0  0  0  0  0  0  0  0  0  0
    3.3420   -7.1248   -4.1638 H   0  0  0  0  0  0  0  0  0  0  0  0
    4.6357   -8.2115   -4.7411 H   0  0  0  0  0  0  0  0  0  0  0  0
    4.5503   -6.5288   -5.3223 H   0  0  0  0  0  0  0  0  0  0  0  0
    3.3077   -1.5653   -0.7218 H   0  0  0  0  0  0  0  0  0  0  0  0
    1.3000   -0.1137   -0.8134 H   0  0  0  0  0  0  0  0  0  0  0  0
   -0.3876   -0.4090   -2.6291 H   0  0  0  0  0  0  0  0  0  0  0  0
   -0.0391   -2.1795   -4.3572 H   0  0  0  0  0  0  0  0  0  0  0  0
    1.9967   -3.6252   -4.2711 H   0  0  0  0  0  0  0  0  0  0  0  0
    6.4347    0.0579   -0.3914 H   0  0  0  0  0  0  0  0  0  0  0  0
    7.3003    2.0474   -1.6436 H   0  0  0  0  0  0  0  0  0  0  0  0
    7.3597    2.0191   -4.1619 H   0  0  0  0  0  0  0  0  0  0  0  0
    5.6474   -1.9296   -4.1494 H   0  0  0  0  0  0  0  0  0  0  0  0
   10.1342   -5.1126   -1.7279 H   0  0  0  0  0  0  0  0  0  0  0  0
    8.4111   -7.6830   -2.1070 H   0  0  0  0  0  0  0  0  0  0  0  0
    9.9513   -7.5344   -1.1067 H   0  0  0  0  0  0  0  0  0  0  0  0
    9.6459   -6.9565   -4.1810 H   0  0  0  0  0  0  0  0  0  0  0  0
   11.2147   -6.8244   -3.2122 H   0  0  0  0  0  0  0  0  0  0  0  0
  1  2  3  0
  1 37  1  0
  2  3  1  0
  3  4  1  0
  3 38  1  0
  3 39  1  0
  4  5  1  0
  5  6  1  0
  5 40  1  0
  5 41  1  0
  6  7  1  1
  6  8  1  0
  6  9  1  0
  8 42  1  0
  9 10  1  0
  9 43  1  0
  9 44  1  0
 10 11  1  0
 10 34  1  0
 11 12  1  0
 11 45  1  0
 11 46  1  0
 12 13  1  0
 12 25  2  0
 13 14  1  0
 13 17  2  0
 14 15  1  0
 14 16  1  0
 14 47  1  6
 15 48  1  0
 15 49  1  0
 15 50  1  0
 16 51  1  0
 16 52  1  0
 16 53  1  0
 17 18  1  0
 18 19  1  0
 18 25  1  0
 19 20  2  0
 19 24  1  0
 20 21  1  0
 20 54  1  0
 21 22  2  0
 21 55  1  0
 22 23  1  0
 22 56  1  0
 23 24  2  0
 23 57  1  0
 24 58  1  0
 25 26  1  0
 26 27  1  0
 27 28  2  0
 27 33  1  0
 28 29  1  0
 28 59  1  0
 29 30  2  0
 29 60  1  0
 30 31  1  0
 30 61  1  0
 31 32  1  0
 31 33  2  0
 33 62  1  0
 34 35  1  0
 34 36  1  0
 34 63  1  1
 35 36  1  0
 35 64  1  0
 35 65  1  0
 36 66  1  0
 36 67  1  0
M  END

