
     RDKit          3D

 34 33  0  0  0  0  0  0  0  0999 V2000
    1.2579   -3.4205   -0.3712 C   0  0  0  0  0  0  0  0  0  0  0  0
    2.2137   -3.2766    0.3591 C   0  0  0  0  0  0  0  0  0  0  0  0
    3.3665   -3.0663    1.2450 C   0  0  0  0  0  0  0  0  0  0  0  0
    4.5178   -2.4833    0.5779 N   0  0  0  0  0  0  0  0  0  0  0  0
    5.6378   -3.2537    0.3154 C   0  0  0  0  0  0  0  0  0  0  0  0
    5.7945   -4.3746    0.7791 O   0  0  0  0  0  0  0  0  0  0  0  0
    6.5697   -2.6560   -0.5035 N   0  0  0  0  0  0  0  0  0  0  0  0
    7.8815   -3.2589   -0.6954 C   0  0  0  0  0  0  0  0  0  0  0  0
    7.8510   -4.5208   -1.5768 C   0  0  1  0  0  0  0  0  0  0  0  0
    7.1276   -4.3394   -2.9339 C   0  0  0  0  0  0  0  0  0  0  0  0
    7.6137   -3.2256   -3.8829 C   0  0  1  0  0  0  0  0  0  0  0  0
    9.0629   -3.4033   -4.3573 C   0  0  0  0  0  0  0  0  0  0  0  0
    6.6588   -3.1202   -5.0806 C   0  0  0  0  0  0  0  0  0  0  0  0
    9.2635   -5.0928   -1.6886 C   0  0  0  0  0  0  0  0  0  0  0  0
   10.2486   -4.5708   -1.2370 O   0  0  0  0  0  0  0  0  0  0  0  0
    9.3643   -6.2785   -2.3340 O   0  0  0  0  0  0  0  0  0  0  0  0
    0.4116   -3.5614   -1.0170 H   0  0  0  0  0  0  0  0  0  0  0  0
    3.7078   -4.0284    1.6587 H   0  0  0  0  0  0  0  0  0  0  0  0
    3.0569   -2.4364    2.0984 H   0  0  0  0  0  0  0  0  0  0  0  0
    4.3502   -1.6574    0.0150 H   0  0  0  0  0  0  0  0  0  0  0  0
    6.4790   -1.6675   -0.7012 H   0  0  0  0  0  0  0  0  0  0  0  0
    8.3255   -3.5299    0.2749 H   0  0  0  0  0  0  0  0  0  0  0  0
    8.5402   -2.5014   -1.1416 H   0  0  0  0  0  0  0  0  0  0  0  0
    7.2688   -5.2728   -1.0146 H   0  0  0  0  0  0  0  0  0  0  0  0
    6.0657   -4.1564   -2.7054 H   0  0  0  0  0  0  0  0  0  0  0  0
    7.1391   -5.2980   -3.4876 H   0  0  0  0  0  0  0  0  0  0  0  0
    7.5532   -2.2682   -3.3328 H   0  0  0  0  0  0  0  0  0  0  0  0
    9.2011   -4.3786   -4.8543 H   0  0  0  0  0  0  0  0  0  0  0  0
    9.7874   -3.3458   -3.5324 H   0  0  0  0  0  0  0  0  0  0  0  0
    9.3314   -2.6203   -5.0847 H   0  0  0  0  0  0  0  0  0  0  0  0
    6.6735   -4.0477   -5.6791 H   0  0  0  0  0  0  0  0  0  0  0  0
    6.9456   -2.2921   -5.7483 H   0  0  0  0  0  0  0  0  0  0  0  0
    5.6185   -2.9495   -4.7588 H   0  0  0  0  0  0  0  0  0  0  0  0
    8.4897   -6.5862   -2.6118 H   0  0  0  0  0  0  0  0  0  0  0  0
  1  2  3  0
  1 17  1  0
  2  3  1  0
  3  4  1  0
  3 18  1  0
  3 19  1  0
  4  5  1  0
  4 20  1  0
  5  6  2  0
  5  7  1  0
  7  8  1  0
  7 21  1  0
  8  9  1  0
  8 22  1  0
  8 23  1  0
  9 10  1  0
  9 14  1  0
  9 24  1  1
 10 11  1  0
 10 25  1  0
 10 26  1  0
 11 12  1  0
 11 13  1  0
 11 27  1  1
 12 28  1  0
 12 29  1  0
 12 30  1  0
 13 31  1  0
 13 32  1  0
 13 33  1  0
 14 15  2  0
 14 16  1  0
 16 34  1  0
M  END

