
     RDKit          3D

 55 58  0  0  0  0  0  0  0  0999 V2000
    5.8380    0.6612    1.5521 C   0  0  0  0  0  0  0  0  0  0  0  0
    6.8925    0.4064    0.6316 O   0  0  0  0  0  0  0  0  0  0  0  0
    6.6412   -0.2082   -0.5429 C   0  0  0  0  0  0  0  0  0  0  0  0
    7.3372    0.1286   -1.6527 C   0  0  0  0  0  0  0  0  0  0  0  0
    7.1125   -0.5305   -2.9256 C   0  0  0  0  0  0  0  0  0  0  0  0
    6.2723   -1.5857   -3.0908 C   0  0  0  0  0  0  0  0  0  0  0  0
    6.0829   -2.2764   -4.3810 C   0  0  0  0  0  0  0  0  0  0  0  0
    5.7140   -3.6361   -4.4563 C   0  0  0  0  0  0  0  0  0  0  0  0
    5.5850   -4.2858   -5.6817 C   0  0  0  0  0  0  0  0  0  0  0  0
    5.7999   -3.6140   -6.8989 C   0  0  0  0  0  0  0  0  0  0  0  0
    5.6555   -4.3065   -8.2041 C   0  0  0  0  0  0  0  0  0  0  0  0
    5.1792   -3.6364   -9.3461 C   0  0  0  0  0  0  0  0  0  0  0  0
    5.0451   -4.2923  -10.5716 C   0  0  0  0  0  0  0  0  0  0  0  0
    5.3827   -5.6473  -10.7246 C   0  0  0  0  0  0  0  0  0  0  0  0
    5.2759   -6.4253  -12.0269 C   0  0  1  0  0  0  0  0  0  0  0  0
    4.0083   -7.3156  -12.0858 C   0  0  0  0  0  0  0  0  0  0  0  0
    2.7550   -6.4731  -12.3489 C   0  0  0  0  0  0  0  0  0  0  0  0
    2.9166   -5.5651  -13.5811 C   0  0  2  0  0  0  0  0  0  0  0  0
    2.8086   -6.3012  -14.9204 C   0  0  0  0  0  0  0  0  0  0  0  0
    4.1245   -4.8029  -13.4871 O   0  0  0  0  0  0  0  0  0  0  0  0
    5.3116   -5.5503  -13.2890 C   0  0  0  0  0  0  0  0  0  0  0  0
    5.8481   -6.2945   -9.5715 C   0  0  0  0  0  0  0  0  0  0  0  0
    6.1908   -7.5975   -9.6613 F   0  0  0  0  0  0  0  0  0  0  0  0
    5.9916   -5.6659   -8.3419 C   0  0  0  0  0  0  0  0  0  0  0  0
    6.1472   -2.2507   -6.8265 C   0  0  0  0  0  0  0  0  0  0  0  0
    6.2807   -1.6009   -5.6040 C   0  0  0  0  0  0  0  0  0  0  0  0
    5.6450   -2.1733   -1.8428 C   0  0  2  0  0  0  0  0  0  0  0  0
    4.3631   -2.6530   -2.0896 F   0  0  0  0  0  0  0  0  0  0  0  0
    5.5369   -1.2353   -0.6403 C   0  0  1  0  0  0  0  0  0  0  0  0
    5.5078   -2.0310    0.5040 F   0  0  0  0  0  0  0  0  0  0  0  0
    6.2925    1.2004    2.3935 H   0  0  0  0  0  0  0  0  0  0  0  0
    5.3787   -0.2679    1.9188 H   0  0  0  0  0  0  0  0  0  0  0  0
    5.0618    1.3044    1.0998 H   0  0  0  0  0  0  0  0  0  0  0  0
    8.0698    0.9349   -1.5832 H   0  0  0  0  0  0  0  0  0  0  0  0
    7.6864   -0.1633   -3.7791 H   0  0  0  0  0  0  0  0  0  0  0  0
    5.5123   -4.1999   -3.5453 H   0  0  0  0  0  0  0  0  0  0  0  0
    5.2818   -5.3352   -5.6906 H   0  0  0  0  0  0  0  0  0  0  0  0
    4.8789   -2.5894   -9.2718 H   0  0  0  0  0  0  0  0  0  0  0  0
    4.6524   -3.7516  -11.4340 H   0  0  0  0  0  0  0  0  0  0  0  0
    6.1518   -7.0939  -12.0698 H   0  0  0  0  0  0  0  0  0  0  0  0
    3.9037   -7.8888  -11.1518 H   0  0  0  0  0  0  0  0  0  0  0  0
    4.1430   -8.0588  -12.8911 H   0  0  0  0  0  0  0  0  0  0  0  0
    2.5547   -5.8360  -11.4716 H   0  0  0  0  0  0  0  0  0  0  0  0
    1.8718   -7.1208  -12.4777 H   0  0  0  0  0  0  0  0  0  0  0  0
    2.1234   -4.8003  -13.5578 H   0  0  0  0  0  0  0  0  0  0  0  0
    3.5230   -7.1340  -15.0122 H   0  0  0  0  0  0  0  0  0  0  0  0
    2.9944   -5.6004  -15.7487 H   0  0  0  0  0  0  0  0  0  0  0  0
    1.7969   -6.7194  -15.0430 H   0  0  0  0  0  0  0  0  0  0  0  0
    6.1270   -4.8129  -13.2359 H   0  0  0  0  0  0  0  0  0  0  0  0
    5.5154   -6.2009  -14.1622 H   0  0  0  0  0  0  0  0  0  0  0  0
    6.3932   -6.2443   -7.5085 H   0  0  0  0  0  0  0  0  0  0  0  0
    6.3303   -1.6905   -7.7462 H   0  0  0  0  0  0  0  0  0  0  0  0
    6.5319   -0.5381   -5.5991 H   0  0  0  0  0  0  0  0  0  0  0  0
    6.2488   -3.0406   -1.5088 H   0  0  0  0  0  0  0  0  0  0  0  0
    4.5548   -0.7274   -0.7002 H   0  0  0  0  0  0  0  0  0  0  0  0
  1  2  1  0
  1 31  1  0
  1 32  1  0
  1 33  1  0
  2  3  1  0
  3  4  2  0
  3 29  1  0
  4  5  1  0
  4 34  1  0
  5  6  2  0
  5 35  1  0
  6  7  1  0
  6 27  1  0
  7  8  2  0
  7 26  1  0
  8  9  1  0
  8 36  1  0
  9 10  2  0
  9 37  1  0
 10 11  1  0
 10 25  1  0
 11 12  2  0
 11 24  1  0
 12 13  1  0
 12 38  1  0
 13 14  2  0
 13 39  1  0
 14 15  1  0
 14 22  1  0
 15 16  1  0
 15 21  1  0
 15 40  1  6
 16 17  1  0
 16 41  1  0
 16 42  1  0
 17 18  1  0
 17 43  1  0
 17 44  1  0
 18 19  1  0
 18 20  1  0
 18 45  1  6
 19 46  1  0
 19 47  1  0
 19 48  1  0
 20 21  1  0
 21 49  1  0
 21 50  1  0
 22 23  1  0
 22 24  2  0
 24 51  1  0
 25 26  2  0
 25 52  1  0
 26 53  1  0
 27 28  1  0
 27 29  1  0
 27 54  1  1
 29 30  1  0
 29 55  1  6
M  END

