
     RDKit          3D

 62 66  0  0  0  0  0  0  0  0999 V2000
    2.3655   -1.7000   -5.4284 C   0  0  0  0  0  0  0  0  0  0  0  0
    2.9677   -2.4165   -4.2191 C   0  0  0  0  0  0  0  0  0  0  0  0
    4.3078   -1.8299   -3.7647 C   0  0  0  0  0  0  0  0  0  0  0  0
    4.9189   -2.5467   -2.5570 C   0  0  0  0  0  0  0  0  0  0  0  0
    6.2549   -1.9489   -2.1077 C   0  0  0  0  0  0  0  0  0  0  0  0
    6.9077   -2.6499   -0.9067 C   0  0  0  0  0  0  0  0  0  0  0  0
    7.3233   -4.0211   -1.1498 N   0  0  0  0  0  0  0  0  0  0  0  0
    8.4930   -4.3923   -1.8039 C   0  0  0  0  0  0  0  0  0  0  0  0
    9.4921   -3.5873   -2.3578 C   0  0  0  0  0  0  0  0  0  0  0  0
   10.6089   -4.1934   -2.9668 C   0  0  0  0  0  0  0  0  0  0  0  0
   11.6394   -3.3259   -3.5374 C   0  0  0  0  0  0  0  0  0  0  0  0
   12.7830   -3.7064   -4.1567 C   0  0  0  0  0  0  0  0  0  0  0  0
   13.7834   -2.8130   -4.7116 C   0  0  0  0  0  0  0  0  0  0  0  0
   13.8396   -1.4283   -4.7564 C   0  0  0  0  0  0  0  0  0  0  0  0
   15.0056   -0.9296   -5.3980 C   0  0  0  0  0  0  0  0  0  0  0  0
   15.8403   -1.9279   -5.8435 C   0  0  0  0  0  0  0  0  0  0  0  0
   15.2035   -3.4906   -5.4801 S   0  0  0  0  0  0  0  0  0  0  0  0
   10.6875   -5.6130   -3.0035 C   0  0  0  0  0  0  0  0  0  0  0  0
    9.6954   -6.4109   -2.4508 C   0  0  0  0  0  0  0  0  0  0  0  0
    8.5810   -5.8122   -1.8392 C   0  0  0  0  0  0  0  0  0  0  0  0
    7.4058   -6.3148   -1.1698 C   0  0  0  0  0  0  0  0  0  0  0  0
    6.9211   -7.5972   -0.8740 C   0  0  0  0  0  0  0  0  0  0  0  0
    5.7218   -7.7289   -0.1842 C   0  0  0  0  0  0  0  0  0  0  0  0
    4.9665   -6.5999    0.2326 C   0  0  0  0  0  0  0  0  0  0  0  0
    3.7156   -6.8350    0.9551 C   0  0  0  0  0  0  0  0  0  0  0  0
    2.8590   -5.9052    1.4425 C   0  0  0  0  0  0  0  0  0  0  0  0
    1.6253   -6.1798    2.1562 C   0  0  0  0  0  0  0  0  0  0  0  0
    1.0308   -7.3804    2.5133 C   0  0  0  0  0  0  0  0  0  0  0  0
   -0.1939   -7.2186    3.2164 C   0  0  0  0  0  0  0  0  0  0  0  0
   -0.5373   -5.8993    3.3984 C   0  0  0  0  0  0  0  0  0  0  0  0
    0.6393   -4.8415    2.7074 S   0  0  0  0  0  0  0  0  0  0  0  0
    5.4465   -5.3088   -0.0658 C   0  0  0  0  0  0  0  0  0  0  0  0
    6.6513   -5.1753   -0.7564 C   0  0  0  0  0  0  0  0  0  0  0  0
    1.4041   -2.1477   -5.7268 H   0  0  0  0  0  0  0  0  0  0  0  0
    3.0395   -1.7486   -6.3002 H   0  0  0  0  0  0  0  0  0  0  0  0
    2.1829   -0.6335   -5.2136 H   0  0  0  0  0  0  0  0  0  0  0  0
    3.1028   -3.4880   -4.4536 H   0  0  0  0  0  0  0  0  0  0  0  0
    2.2529   -2.3834   -3.3767 H   0  0  0  0  0  0  0  0  0  0  0  0
    4.1747   -0.7576   -3.5269 H   0  0  0  0  0  0  0  0  0  0  0  0
    5.0239   -1.8622   -4.6071 H   0  0  0  0  0  0  0  0  0  0  0  0
    5.0558   -3.6152   -2.7990 H   0  0  0  0  0  0  0  0  0  0  0  0
    4.2027   -2.5168   -1.7147 H   0  0  0  0  0  0  0  0  0  0  0  0
    6.1123   -0.8877   -1.8341 H   0  0  0  0  0  0  0  0  0  0  0  0
    6.9635   -1.9519   -2.9543 H   0  0  0  0  0  0  0  0  0  0  0  0
    6.2170   -2.6542   -0.0494 H   0  0  0  0  0  0  0  0  0  0  0  0
    7.7938   -2.0783   -0.5835 H   0  0  0  0  0  0  0  0  0  0  0  0
    9.4220   -2.4981   -2.3284 H   0  0  0  0  0  0  0  0  0  0  0  0
   11.4395   -2.2534   -3.4393 H   0  0  0  0  0  0  0  0  0  0  0  0
   12.9986   -4.7740   -4.2623 H   0  0  0  0  0  0  0  0  0  0  0  0
   13.0621   -0.7875   -4.3384 H   0  0  0  0  0  0  0  0  0  0  0  0
   15.2215    0.1325   -5.5264 H   0  0  0  0  0  0  0  0  0  0  0  0
   16.7918   -1.8293   -6.3639 H   0  0  0  0  0  0  0  0  0  0  0  0
   11.5463   -6.0921   -3.4764 H   0  0  0  0  0  0  0  0  0  0  0  0
    9.7843   -7.4995   -2.4906 H   0  0  0  0  0  0  0  0  0  0  0  0
    7.4801   -8.4848   -1.1803 H   0  0  0  0  0  0  0  0  0  0  0  0
    5.3415   -8.7267    0.0486 H   0  0  0  0  0  0  0  0  0  0  0  0
    3.4693   -7.8913    1.1055 H   0  0  0  0  0  0  0  0  0  0  0  0
    3.0906   -4.8446    1.3022 H   0  0  0  0  0  0  0  0  0  0  0  0
    1.4647   -8.3526    2.2761 H   0  0  0  0  0  0  0  0  0  0  0  0
   -0.8018   -8.0501    3.5769 H   0  0  0  0  0  0  0  0  0  0  0  0
   -1.4149   -5.4935    3.8992 H   0  0  0  0  0  0  0  0  0  0  0  0
    4.8791   -4.4278    0.2350 H   0  0  0  0  0  0  0  0  0  0  0  0
  1  2  1  0
  1 34  1  0
  1 35  1  0
  1 36  1  0
  2  3  1  0
  2 37  1  0
  2 38  1  0
  3  4  1  0
  3 39  1  0
  3 40  1  0
  4  5  1  0
  4 41  1  0
  4 42  1  0
  5  6  1  0
  5 43  1  0
  5 44  1  0
  6  7  1  0
  6 45  1  0
  6 46  1  0
  7  8  1  0
  7 33  1  0
  8  9  2  0
  8 20  1  0
  9 10  1  0
  9 47  1  0
 10 11  1  0
 10 18  2  0
 11 12  2  0
 11 48  1  0
 12 13  1  0
 12 49  1  0
 13 14  2  0
 13 17  1  0
 14 15  1  0
 14 50  1  0
 15 16  2  0
 15 51  1  0
 16 17  1  0
 16 52  1  0
 18 19  1  0
 18 53  1  0
 19 20  2  0
 19 54  1  0
 20 21  1  0
 21 22  1  0
 21 33  2  0
 22 23  2  0
 22 55  1  0
 23 24  1  0
 23 56  1  0
 24 25  1  0
 24 32  2  0
 25 26  2  0
 25 57  1  0
 26 27  1  0
 26 58  1  0
 27 28  2  0
 27 31  1  0
 28 29  1  0
 28 59  1  0
 29 30  2  0
 29 60  1  0
 30 31  1  0
 30 61  1  0
 32 33  1  0
 32 62  1  0
M  END

