
     RDKit          3D

 80 84  0  0  0  0  0  0  0  0999 V2000
    3.4874    0.3664    4.8172 C   0  0  0  0  0  0  0  0  0  0  0  0
    2.8368    1.4757    3.9906 C   0  0  0  0  0  0  0  0  0  0  0  0
    2.9659    1.2975    2.4622 C   0  0  0  0  0  0  0  0  0  0  0  0
    4.3748    1.3731    1.9357 C   0  0  0  0  0  0  0  0  0  0  0  0
    5.1496    2.4959    1.7882 C   0  0  0  0  0  0  0  0  0  0  0  0
    6.4292    2.0439    1.2634 C   0  0  0  0  0  0  0  0  0  0  0  0
    6.4269    0.6976    1.0757 N   0  0  0  0  0  0  0  0  0  0  0  0
    5.2217    0.2591    1.4649 C   0  0  0  0  0  0  0  0  0  0  0  0
    4.8615   -1.1441    1.5175 C   0  0  0  0  0  0  0  0  0  0  0  0
    5.5455   -2.1786    0.9376 C   0  0  0  0  0  0  0  0  0  0  0  0
    6.5446   -1.9407   -0.0874 C   0  0  0  0  0  0  0  0  0  0  0  0
    7.8903   -2.1738    0.1249 N   0  0  0  0  0  0  0  0  0  0  0  0
    8.2550   -2.4198    1.0379 H   0  0  0  0  0  0  0  0  0  0  0  0
    8.6233   -1.4345   -0.7818 C   0  0  0  0  0  0  0  0  0  0  0  0
    7.7195   -0.8970   -1.7046 C   0  0  0  0  0  0  0  0  0  0  0  0
    6.4160   -1.2120   -1.2865 C   0  0  0  0  0  0  0  0  0  0  0  0
    5.1395   -0.8131   -1.9712 C   0  0  0  0  0  0  0  0  0  0  0  0
    4.9287   -1.4530   -3.3580 C   0  0  0  0  0  0  0  0  0  0  0  0
    4.7470   -2.9706   -3.3254 C   0  0  0  0  0  0  0  0  0  0  0  0
    9.9696   -0.9747   -0.5221 C   0  0  0  0  0  0  0  0  0  0  0  0
   10.1479    0.3472   -0.5241 N   0  0  0  0  0  0  0  0  0  0  0  0
   11.4470    0.5889   -0.1745 C   0  0  0  0  0  0  0  0  0  0  0  0
   11.8685    1.9104    0.0693 C   0  0  0  0  0  0  0  0  0  0  0  0
   13.2457    2.0674    0.2487 O   0  0  0  0  0  0  0  0  0  0  0  0
   13.9831    2.8373   -0.6116 C   0  0  0  0  0  0  0  0  0  0  0  0
   15.4355    2.8110   -0.2092 C   0  0  0  0  0  0  0  0  0  0  0  0
   13.5134    3.4325   -1.5405 O   0  0  0  0  0  0  0  0  0  0  0  0
   11.0988    3.0758    0.2767 C   0  0  0  0  0  0  0  0  0  0  0  0
    9.7354    3.2687    0.5459 C   0  0  0  0  0  0  0  0  0  0  0  0
    8.7564    2.3153    0.5660 N   0  0  0  0  0  0  0  0  0  0  0  0
    8.9633    1.3723    0.1628 H   0  0  0  0  0  0  0  0  0  0  0  0
    7.5794    2.8238    1.0344 C   0  0  0  0  0  0  0  0  0  0  0  0
    7.8056    4.2239    1.2860 C   0  0  0  0  0  0  0  0  0  0  0  0
    9.1181    4.5182    0.9887 C   0  0  0  0  0  0  0  0  0  0  0  0
    9.7935    5.8535    1.1407 C   0  0  0  0  0  0  0  0  0  0  0  0
   10.1060    6.2605    2.5973 C   0  0  0  0  0  0  0  0  0  0  0  0
   11.1319    5.3738    3.3028 C   0  0  0  0  0  0  0  0  0  0  0  0
   12.1582   -0.6828    0.0164 C   0  0  0  0  0  0  0  0  0  0  0  0
   13.6191   -0.8840    0.3235 C   0  0  0  0  0  0  0  0  0  0  0  0
   14.0188   -2.2879    0.8008 C   0  0  0  0  0  0  0  0  0  0  0  0
   13.5339   -2.6396    2.2098 C   0  0  0  0  0  0  0  0  0  0  0  0
   11.1932   -1.6554   -0.1657 C   0  0  0  0  0  0  0  0  0  0  0  0
    3.3716    0.5539    5.8968 H   0  0  0  0  0  0  0  0  0  0  0  0
    4.5660    0.2851    4.6069 H   0  0  0  0  0  0  0  0  0  0  0  0
    3.0305   -0.6149    4.6028 H   0  0  0  0  0  0  0  0  0  0  0  0
    3.2754    2.4495    4.2710 H   0  0  0  0  0  0  0  0  0  0  0  0
    1.7634    1.5401    4.2426 H   0  0  0  0  0  0  0  0  0  0  0  0
    2.3610    2.0796    1.9721 H   0  0  0  0  0  0  0  0  0  0  0  0
    2.5055    0.3384    2.1705 H   0  0  0  0  0  0  0  0  0  0  0  0
    4.8703    3.5236    2.0200 H   0  0  0  0  0  0  0  0  0  0  0  0
    4.0233   -1.3961    2.1752 H   0  0  0  0  0  0  0  0  0  0  0  0
    5.3552   -3.2010    1.2886 H   0  0  0  0  0  0  0  0  0  0  0  0
    8.0086   -0.3020   -2.5686 H   0  0  0  0  0  0  0  0  0  0  0  0
    5.1326    0.2853   -2.0840 H   0  0  0  0  0  0  0  0  0  0  0  0
    4.2840   -1.0611   -1.3226 H   0  0  0  0  0  0  0  0  0  0  0  0
    5.7831   -1.1966   -4.0093 H   0  0  0  0  0  0  0  0  0  0  0  0
    4.0429   -0.9864   -3.8243 H   0  0  0  0  0  0  0  0  0  0  0  0
    5.6268   -3.4714   -2.8903 H   0  0  0  0  0  0  0  0  0  0  0  0
    4.5961   -3.3782   -4.3381 H   0  0  0  0  0  0  0  0  0  0  0  0
    3.8709   -3.2548   -2.7179 H   0  0  0  0  0  0  0  0  0  0  0  0
   15.5432    3.1189    0.8418 H   0  0  0  0  0  0  0  0  0  0  0  0
   16.0079    3.4791   -0.8633 H   0  0  0  0  0  0  0  0  0  0  0  0
   15.8258    1.7845   -0.2893 H   0  0  0  0  0  0  0  0  0  0  0  0
   11.6942    3.9850    0.3598 H   0  0  0  0  0  0  0  0  0  0  0  0
    7.0542    4.9154    1.6637 H   0  0  0  0  0  0  0  0  0  0  0  0
    9.1372    6.6227    0.7000 H   0  0  0  0  0  0  0  0  0  0  0  0
   10.7222    5.8780    0.5475 H   0  0  0  0  0  0  0  0  0  0  0  0
    9.1641    6.2663    3.1735 H   0  0  0  0  0  0  0  0  0  0  0  0
   10.4651    7.3045    2.5900 H   0  0  0  0  0  0  0  0  0  0  0  0
   10.7959    4.3260    3.3572 H   0  0  0  0  0  0  0  0  0  0  0  0
   11.3111    5.7198    4.3333 H   0  0  0  0  0  0  0  0  0  0  0  0
   12.1016    5.3843    2.7772 H   0  0  0  0  0  0  0  0  0  0  0  0
   13.9378   -0.1385    1.0708 H   0  0  0  0  0  0  0  0  0  0  0  0
   14.2000   -0.6380   -0.5856 H   0  0  0  0  0  0  0  0  0  0  0  0
   15.1202   -2.3550    0.7754 H   0  0  0  0  0  0  0  0  0  0  0  0
   13.6622   -3.0429    0.0785 H   0  0  0  0  0  0  0  0  0  0  0  0
   13.9400   -1.9346    2.9545 H   0  0  0  0  0  0  0  0  0  0  0  0
   13.8555   -3.6523    2.5018 H   0  0  0  0  0  0  0  0  0  0  0  0
   12.4363   -2.6009    2.2869 H   0  0  0  0  0  0  0  0  0  0  0  0
   11.3291   -2.7342   -0.1091 H   0  0  0  0  0  0  0  0  0  0  0  0
  1  2  1  0
  1 43  1  0
  1 44  1  0
  1 45  1  0
  2  3  1  0
  2 46  1  0
  2 47  1  0
  3  4  1  0
  3 48  1  0
  3 49  1  0
  4  5  2  0
  4  8  1  0
  5  6  1  0
  5 50  1  0
  6  7  2  0
  6 32  1  0
  7  8  1  0
  8  9  2  0
  9 10  1  0
  9 51  1  0
 10 11  2  0
 10 52  1  0
 11 12  1  0
 11 16  1  0
 12 13  1  0
 12 14  1  0
 14 15  1  0
 14 20  2  0
 15 16  2  0
 15 53  1  0
 16 17  1  0
 17 18  1  0
 17 54  1  0
 17 55  1  0
 18 19  1  0
 18 56  1  0
 18 57  1  0
 19 58  1  0
 19 59  1  0
 19 60  1  0
 20 21  1  0
 20 42  1  0
 21 22  2  0
 22 23  1  0
 22 38  1  0
 23 24  1  0
 23 28  2  0
 24 25  1  0
 25 26  1  0
 25 27  2  0
 26 61  1  0
 26 62  1  0
 26 63  1  0
 28 29  1  0
 28 64  1  0
 29 30  1  0
 29 34  2  0
 30 31  1  0
 30 32  1  0
 32 33  2  0
 33 34  1  0
 33 65  1  0
 34 35  1  0
 35 36  1  0
 35 66  1  0
 35 67  1  0
 36 37  1  0
 36 68  1  0
 36 69  1  0
 37 70  1  0
 37 71  1  0
 37 72  1  0
 38 39  1  0
 38 42  2  0
 39 40  1  0
 39 73  1  0
 39 74  1  0
 40 41  1  0
 40 75  1  0
 40 76  1  0
 41 77  1  0
 41 78  1  0
 41 79  1  0
 42 80  1  0
M  END

