
     RDKit          3D

 42 43  0  0  0  0  0  0  0  0999 V2000
    5.8401   -1.6950    0.5409 C   0  0  0  0  0  0  0  0  0  0  0  0
    4.7148   -0.9104    1.1324 C   0  0  0  0  0  0  0  0  0  0  0  0
    4.8449    0.2916    1.6469 N   0  0  0  0  0  0  0  0  0  0  0  0
    3.5942    0.6797    2.0619 C   0  0  0  0  0  0  0  0  0  0  0  0
    2.6745   -0.2970    1.7884 C   0  0  0  0  0  0  0  0  0  0  0  0
    3.3887   -1.3312    1.1908 N   0  0  0  0  0  0  0  0  0  0  0  0
    2.8270   -2.5434    0.7203 C   0  0  0  0  0  0  0  0  0  0  0  0
    1.5032   -2.5840    0.2496 C   0  0  0  0  0  0  0  0  0  0  0  0
    0.9695   -3.7966   -0.1743 C   0  0  0  0  0  0  0  0  0  0  0  0
    1.7820   -4.9452   -0.1378 C   0  0  0  0  0  0  0  0  0  0  0  0
    1.3636   -6.2169   -0.5363 N   0  0  0  0  0  0  0  0  0  0  0  0
    0.1473   -6.6066   -1.0281 C   0  0  0  0  0  0  0  0  0  0  0  0
   -0.8079   -5.8693   -1.2147 O   0  0  0  0  0  0  0  0  0  0  0  0
    0.0601   -8.1221   -1.2960 C   0  0  1  0  0  0  0  0  0  0  0  0
   -0.5716   -8.2175   -2.1968 H   0  0  0  0  0  0  0  0  0  0  0  0
    1.4002   -8.6901   -1.4764 N   0  0  0  0  0  0  0  0  0  0  0  0
   -0.6386   -8.8446   -0.1244 C   0  0  0  0  0  0  0  0  0  0  0  0
   -2.0583   -8.3889    0.2607 C   0  0  1  0  0  0  0  0  0  0  0  0
   -3.0470   -8.4703   -0.9094 C   0  0  0  0  0  0  0  0  0  0  0  0
   -2.5499   -9.2088    1.4614 C   0  0  0  0  0  0  0  0  0  0  0  0
    3.0997   -4.7838    0.3275 C   0  0  0  0  0  0  0  0  0  0  0  0
    3.5977   -3.6278    0.7499 N   0  0  0  0  0  0  0  0  0  0  0  0
    6.7197   -1.0385    0.5146 H   0  0  0  0  0  0  0  0  0  0  0  0
    5.6135   -2.0374   -0.4812 H   0  0  0  0  0  0  0  0  0  0  0  0
    6.0676   -2.5932    1.1331 H   0  0  0  0  0  0  0  0  0  0  0  0
    3.4213    1.6416    2.5438 H   0  0  0  0  0  0  0  0  0  0  0  0
    1.6111   -0.3753    1.9945 H   0  0  0  0  0  0  0  0  0  0  0  0
    0.9020   -1.6758    0.1961 H   0  0  0  0  0  0  0  0  0  0  0  0
   -0.0511   -3.8713   -0.5449 H   0  0  0  0  0  0  0  0  0  0  0  0
    2.0357   -6.9881   -0.5096 H   0  0  0  0  0  0  0  0  0  0  0  0
    1.7252   -8.5737   -2.4362 H   0  0  0  0  0  0  0  0  0  0  0  0
    1.4039   -9.6904   -1.2813 H   0  0  0  0  0  0  0  0  0  0  0  0
    0.0206   -8.7667    0.7586 H   0  0  0  0  0  0  0  0  0  0  0  0
   -0.6760   -9.9194   -0.3879 H   0  0  0  0  0  0  0  0  0  0  0  0
   -2.0041   -7.3320    0.5721 H   0  0  0  0  0  0  0  0  0  0  0  0
   -3.0806   -9.4881   -1.3373 H   0  0  0  0  0  0  0  0  0  0  0  0
   -2.7823   -7.7613   -1.7071 H   0  0  0  0  0  0  0  0  0  0  0  0
   -4.0663   -8.2200   -0.5740 H   0  0  0  0  0  0  0  0  0  0  0  0
   -2.6426  -10.2784    1.2036 H   0  0  0  0  0  0  0  0  0  0  0  0
   -3.5400   -8.8625    1.7981 H   0  0  0  0  0  0  0  0  0  0  0  0
   -1.8594   -9.1316    2.3173 H   0  0  0  0  0  0  0  0  0  0  0  0
    3.7727   -5.6507    0.3623 H   0  0  0  0  0  0  0  0  0  0  0  0
  1  2  1  0
  1 23  1  0
  1 24  1  0
  1 25  1  0
  2  3  2  0
  2  6  1  0
  3  4  1  0
  4  5  2  0
  4 26  1  0
  5  6  1  0
  5 27  1  0
  6  7  1  0
  7  8  2  0
  7 22  1  0
  8  9  1  0
  8 28  1  0
  9 10  2  0
  9 29  1  0
 10 11  1  0
 10 21  1  0
 11 12  1  0
 11 30  1  0
 12 13  2  0
 12 14  1  0
 14 15  1  6
 14 16  1  0
 14 17  1  0
 16 31  1  0
 16 32  1  0
 17 18  1  0
 17 33  1  0
 17 34  1  0
 18 19  1  0
 18 20  1  0
 18 35  1  1
 19 36  1  0
 19 37  1  0
 19 38  1  0
 20 39  1  0
 20 40  1  0
 20 41  1  0
 21 22  2  0
 21 42  1  0
M  END

