
     RDKit          3D

 20 21  0  0  0  0  0  0  0  0999 V2000
    1.1012    0.1308    0.1960 N   0  0  0  0  0  0  0  0  0  0  0  0
    2.4674    0.1337    0.0447 C   0  0  0  0  0  0  0  0  0  0  0  0
    3.2178    1.1916    0.0261 N   0  0  0  0  0  0  0  0  0  0  0  0
    4.5216    0.7099   -0.0329 N   0  0  0  0  0  0  0  0  0  0  0  0
    5.6032    1.6057   -0.0574 C   0  0  0  0  0  0  0  0  0  0  0  0
    6.9348    1.1626   -0.1274 C   0  0  0  0  0  0  0  0  0  0  0  0
    7.9436    2.1281   -0.1476 C   0  0  0  0  0  0  0  0  0  0  0  0
    7.7338    3.4467   -0.1047 N   0  0  0  0  0  0  0  0  0  0  0  0
    6.4615    3.8498   -0.0378 C   0  0  0  0  0  0  0  0  0  0  0  0
    5.3647    2.9886   -0.0114 C   0  0  0  0  0  0  0  0  0  0  0  0
    4.5664   -0.6846   -0.0772 C   0  0  0  0  0  0  0  0  0  0  0  0
    5.5115   -1.4405   -0.1367 O   0  0  0  0  0  0  0  0  0  0  0  0
    3.2079   -1.0233   -0.0317 N   0  0  0  0  0  0  0  0  0  0  0  0
    2.8856   -1.9797    0.0443 H   0  0  0  0  0  0  0  0  0  0  0  0
    0.7020    1.0648    0.1653 H   0  0  0  0  0  0  0  0  0  0  0  0
    0.5941   -0.5243   -0.3931 H   0  0  0  0  0  0  0  0  0  0  0  0
    7.1689    0.1007   -0.1642 H   0  0  0  0  0  0  0  0  0  0  0  0
    8.9893    1.8020   -0.2021 H   0  0  0  0  0  0  0  0  0  0  0  0
    6.2930    4.9331   -0.0023 H   0  0  0  0  0  0  0  0  0  0  0  0
    4.3454    3.3673    0.0436 H   0  0  0  0  0  0  0  0  0  0  0  0
  1  2  1  0
  1 15  1  0
  1 16  1  0
  2  3  2  0
  2 13  1  0
  3  4  1  0
  4  5  1  0
  4 11  1  0
  5  6  2  0
  5 10  1  0
  6  7  1  0
  6 17  1  0
  7  8  2  0
  7 18  1  0
  8  9  1  0
  9 10  2  0
  9 19  1  0
 10 20  1  0
 11 12  2  0
 11 13  1  0
 13 14  1  0
M  END

