
     RDKit          3D

 47 50  0  0  0  0  0  0  0  0999 V2000
    1.2238    0.9641   -9.2203 O   0  0  0  0  0  0  0  0  0  0  0  0
    0.9207    1.3550   -8.1248 C   0  0  0  0  0  0  0  0  0  0  0  0
   -0.3564    1.2494   -7.6893 O   0  0  0  0  0  0  0  0  0  0  0  0
    1.9035    1.9816   -7.1739 C   0  0  0  0  0  0  0  0  0  0  0  0
    3.1091    2.4724   -7.6965 C   0  0  0  0  0  0  0  0  0  0  0  0
    4.0577    3.0567   -6.8586 C   0  0  0  0  0  0  0  0  0  0  0  0
    3.8514    3.1490   -5.4731 C   0  0  0  0  0  0  0  0  0  0  0  0
    4.8677    3.7439   -4.5239 C   0  0  0  0  0  0  0  0  0  0  0  0
    4.5107    5.1601   -4.0469 C   0  0  1  0  0  0  0  0  0  0  0  0
    5.5018    5.6114   -2.5612 S   0  0  0  0  0  0  0  0  0  0  0  0
    4.6659    7.1520   -2.2871 C   0  0  0  0  0  0  0  0  0  0  0  0
    4.4166    7.5909   -0.9806 C   0  0  0  0  0  0  0  0  0  0  0  0
    3.7690    8.8045   -0.7498 C   0  0  0  0  0  0  0  0  0  0  0  0
    3.3434    9.5718   -1.8370 C   0  0  0  0  0  0  0  0  0  0  0  0
    3.5802    9.1393   -3.1420 C   0  0  0  0  0  0  0  0  0  0  0  0
    4.2572    7.9332   -3.3936 C   0  0  0  0  0  0  0  0  0  0  0  0
    4.5747    7.5432   -4.7212 N   0  0  0  0  0  0  0  0  0  0  0  0
    4.7449    8.5722   -5.7549 C   0  0  0  0  0  0  0  0  0  0  0  0
    5.8722    9.5529   -5.4912 C   0  0  0  0  0  0  0  0  0  0  0  0
    5.7414   10.8905   -5.8909 C   0  0  0  0  0  0  0  0  0  0  0  0
    6.7930   11.7954   -5.7194 C   0  0  0  0  0  0  0  0  0  0  0  0
    7.9906   11.3740   -5.1355 C   0  0  0  0  0  0  0  0  0  0  0  0
    8.1276   10.0436   -4.7267 C   0  0  0  0  0  0  0  0  0  0  0  0
    7.0776    9.1394   -4.9044 C   0  0  0  0  0  0  0  0  0  0  0  0
    4.7770    6.2248   -5.1080 C   0  0  0  0  0  0  0  0  0  0  0  0
    5.1471    5.9257   -6.2305 O   0  0  0  0  0  0  0  0  0  0  0  0
    2.6449    2.6388   -4.9789 C   0  0  0  0  0  0  0  0  0  0  0  0
    2.4150    2.7025   -3.6530 F   0  0  0  0  0  0  0  0  0  0  0  0
    1.6764    2.0603   -5.7911 C   0  0  0  0  0  0  0  0  0  0  0  0
   -0.4743    1.7335   -6.8605 H   0  0  0  0  0  0  0  0  0  0  0  0
    3.2814    2.3902   -8.7707 H   0  0  0  0  0  0  0  0  0  0  0  0
    4.9783    3.4676   -7.2753 H   0  0  0  0  0  0  0  0  0  0  0  0
    5.8551    3.7633   -5.0045 H   0  0  0  0  0  0  0  0  0  0  0  0
    4.9341    3.1009   -3.6326 H   0  0  0  0  0  0  0  0  0  0  0  0
    3.4540    5.1995   -3.7360 H   0  0  0  0  0  0  0  0  0  0  0  0
    4.7318    6.9629   -0.1440 H   0  0  0  0  0  0  0  0  0  0  0  0
    3.5864    9.1406    0.2732 H   0  0  0  0  0  0  0  0  0  0  0  0
    2.8213   10.5173   -1.6737 H   0  0  0  0  0  0  0  0  0  0  0  0
    3.2467    9.7587   -3.9739 H   0  0  0  0  0  0  0  0  0  0  0  0
    3.7980    9.1144   -5.9071 H   0  0  0  0  0  0  0  0  0  0  0  0
    4.9461    8.0168   -6.6813 H   0  0  0  0  0  0  0  0  0  0  0  0
    4.8050   11.2300   -6.3444 H   0  0  0  0  0  0  0  0  0  0  0  0
    6.6729   12.8342   -6.0376 H   0  0  0  0  0  0  0  0  0  0  0  0
    8.8129   12.0802   -4.9956 H   0  0  0  0  0  0  0  0  0  0  0  0
    9.0595    9.7060   -4.2657 H   0  0  0  0  0  0  0  0  0  0  0  0
    7.1932    8.1034   -4.5762 H   0  0  0  0  0  0  0  0  0  0  0  0
    0.7837    1.6531   -5.3098 H   0  0  0  0  0  0  0  0  0  0  0  0
  1  2  2  0
  2  3  1  0
  2  4  1  0
  3 30  1  0
  4  5  2  0
  4 29  1  0
  5  6  1  0
  5 31  1  0
  6  7  2  0
  6 32  1  0
  7  8  1  0
  7 27  1  0
  8  9  1  0
  8 33  1  0
  8 34  1  0
  9 10  1  0
  9 25  1  0
  9 35  1  1
 10 11  1  0
 11 12  2  0
 11 16  1  0
 12 13  1  0
 12 36  1  0
 13 14  2  0
 13 37  1  0
 14 15  1  0
 14 38  1  0
 15 16  2  0
 15 39  1  0
 16 17  1  0
 17 18  1  0
 17 25  1  0
 18 19  1  0
 18 40  1  0
 18 41  1  0
 19 20  2  0
 19 24  1  0
 20 21  1  0
 20 42  1  0
 21 22  2  0
 21 43  1  0
 22 23  1  0
 22 44  1  0
 23 24  2  0
 23 45  1  0
 24 46  1  0
 25 26  2  0
 27 28  1  0
 27 29  2  0
 29 47  1  0
M  END

