
     RDKit          3D

 39 41  0  0  0  0  0  0  0  0999 V2000
    3.4989    1.5342    3.2925 O   0  0  0  0  0  0  0  0  0  0  0  0
    3.6576    0.9344    2.2332 C   0  0  0  0  0  0  0  0  0  0  0  0
    3.4289    1.4781    0.9879 N   0  0  0  0  0  0  0  0  0  0  0  0
    2.9807    2.7686    0.6484 C   0  0  0  0  0  0  0  0  0  0  0  0
    2.7608    3.1301   -0.9621 S   0  0  0  0  0  0  0  0  0  0  0  0
    2.7888    3.5937    1.6973 N   0  0  0  0  0  0  0  0  0  0  0  0
    2.2374    4.9102    1.6159 C   0  0  0  0  0  0  0  0  0  0  0  0
    0.9292    5.0755    2.0864 C   0  0  0  0  0  0  0  0  0  0  0  0
    0.2691    6.3005    2.0139 C   0  0  0  0  0  0  0  0  0  0  0  0
    0.9411    7.3788    1.4329 C   0  0  0  0  0  0  0  0  0  0  0  0
    2.2492    7.2418    0.9783 C   0  0  0  0  0  0  0  0  0  0  0  0
    2.9608    6.0176    1.0819 C   0  0  0  0  0  0  0  0  0  0  0  0
    4.2764    5.9524    0.6730 N   0  0  0  0  0  0  0  0  0  0  0  0
    5.2791    4.9972    1.1590 C   0  0  0  0  0  0  0  0  0  0  0  0
    6.6162    5.6926    0.8717 C   0  0  0  0  0  0  0  0  0  0  0  0
    6.3050    6.5154   -0.3829 C   0  0  0  0  0  0  0  0  0  0  0  0
    4.8950    7.0338   -0.0911 C   0  0  0  0  0  0  0  0  0  0  0  0
    4.1212   -0.4629    2.2149 C   0  0  0  0  0  0  0  0  0  0  0  0
    4.4383   -1.3130    3.2440 C   0  0  0  0  0  0  0  0  0  0  0  0
    4.8244   -2.5458    2.6356 C   0  0  0  0  0  0  0  0  0  0  0  0
    4.7128   -2.3536    1.2843 C   0  0  0  0  0  0  0  0  0  0  0  0
    4.2886   -1.0975    1.0180 O   0  0  0  0  0  0  0  0  0  0  0  0
    3.5768    0.8877    0.1740 H   0  0  0  0  0  0  0  0  0  0  0  0
    2.9160    3.1637    2.6204 H   0  0  0  0  0  0  0  0  0  0  0  0
    0.4201    4.1968    2.4906 H   0  0  0  0  0  0  0  0  0  0  0  0
   -0.7544    6.4026    2.3799 H   0  0  0  0  0  0  0  0  0  0  0  0
    0.4464    8.3494    1.3392 H   0  0  0  0  0  0  0  0  0  0  0  0
    2.7458    8.1120    0.5515 H   0  0  0  0  0  0  0  0  0  0  0  0
    5.2244    4.0413    0.6096 H   0  0  0  0  0  0  0  0  0  0  0  0
    5.1389    4.7792    2.2295 H   0  0  0  0  0  0  0  0  0  0  0  0
    7.4403    4.9758    0.7368 H   0  0  0  0  0  0  0  0  0  0  0  0
    6.8875    6.3621    1.7056 H   0  0  0  0  0  0  0  0  0  0  0  0
    6.2910    5.8635   -1.2719 H   0  0  0  0  0  0  0  0  0  0  0  0
    7.0232    7.3279   -0.5691 H   0  0  0  0  0  0  0  0  0  0  0  0
    4.3188    7.2508   -1.0063 H   0  0  0  0  0  0  0  0  0  0  0  0
    4.9447    7.9745    0.4958 H   0  0  0  0  0  0  0  0  0  0  0  0
    4.3931   -1.0658    4.3017 H   0  0  0  0  0  0  0  0  0  0  0  0
    5.1434   -3.4587    3.1337 H   0  0  0  0  0  0  0  0  0  0  0  0
    4.8926   -2.9918    0.4228 H   0  0  0  0  0  0  0  0  0  0  0  0
  1  2  2  0
  2  3  1  0
  2 18  1  0
  3  4  1  0
  3 23  1  0
  4  5  2  0
  4  6  1  0
  6  7  1  0
  6 24  1  0
  7  8  2  0
  7 12  1  0
  8  9  1  0
  8 25  1  0
  9 10  2  0
  9 26  1  0
 10 11  1  0
 10 27  1  0
 11 12  2  0
 11 28  1  0
 12 13  1  0
 13 14  1  0
 13 17  1  0
 14 15  1  0
 14 29  1  0
 14 30  1  0
 15 16  1  0
 15 31  1  0
 15 32  1  0
 16 17  1  0
 16 33  1  0
 16 34  1  0
 17 35  1  0
 17 36  1  0
 18 19  2  0
 18 22  1  0
 19 20  1  0
 19 37  1  0
 20 21  2  0
 20 38  1  0
 21 22  1  0
 21 39  1  0
M  END

