
     RDKit          3D

 73 79  0  0  0  0  0  0  0  0999 V2000
    5.3345   -0.9924    2.3585 C   0  0  0  0  0  0  0  0  0  0  0  0
    6.4844   -1.8799    1.9895 C   0  0  0  0  0  0  0  0  0  0  0  0
    7.6718   -1.4619    1.3691 C   0  0  0  0  0  0  0  0  0  0  0  0
    8.0552   -0.0838    0.9916 C   0  0  0  0  0  0  0  0  0  0  0  0
    8.0520    0.9678    1.9264 C   0  0  0  0  0  0  0  0  0  0  0  0
    8.4101    2.2686    1.5805 C   0  0  0  0  0  0  0  0  0  0  0  0
    8.8025    2.5934    0.2581 C   0  0  0  0  0  0  0  0  0  0  0  0
    9.1629    3.8818   -0.0952 N   0  0  0  0  0  0  0  0  0  0  0  0
    9.1352    4.9387    0.8930 C   0  0  0  0  0  0  0  0  0  0  0  0
    9.5610    4.1754   -1.4554 C   0  0  0  0  0  0  0  0  0  0  0  0
    8.8098    1.5361   -0.6858 C   0  0  0  0  0  0  0  0  0  0  0  0
    8.4449    0.2427   -0.3206 C   0  0  0  0  0  0  0  0  0  0  0  0
    8.4728   -2.6283    1.1718 C   0  0  0  0  0  0  0  0  0  0  0  0
    9.8338   -2.7227    0.5657 C   0  0  0  0  0  0  0  0  0  0  0  0
    7.8204   -3.7068    1.6391 N   0  0  0  0  0  0  0  0  0  0  0  0
    6.5901   -3.3013    2.1576 C   0  0  0  0  0  0  0  0  0  0  0  0
    5.7148   -4.2412    2.7298 C   0  0  0  0  0  0  0  0  0  0  0  0
    4.4064   -3.7993    3.2640 C   0  0  0  0  0  0  0  0  0  0  0  0
    3.9885   -3.3260    4.5120 C   0  0  0  0  0  0  0  0  0  0  0  0
    4.8195   -3.1406    5.7123 C   0  0  0  0  0  0  0  0  0  0  0  0
    4.2547   -2.6336    6.8973 C   0  0  0  0  0  0  0  0  0  0  0  0
    5.0765   -2.4754    8.0112 C   0  0  0  0  0  0  0  0  0  0  0  0
    6.4266   -2.8245    7.9131 C   0  0  0  0  0  0  0  0  0  0  0  0
    6.8929   -3.3208    6.6906 C   0  0  0  0  0  0  0  0  0  0  0  0
    6.1159   -3.4760    5.6204 N   0  0  0  0  0  0  0  0  0  0  0  0
    2.6562   -3.0409    4.5151 N   0  0  0  0  0  0  0  0  0  0  0  0
    2.2152   -3.3224    3.2990 C   0  0  0  0  0  0  0  0  0  0  0  0
    0.9197   -3.2208    2.7312 C   0  0  0  0  0  0  0  0  0  0  0  0
    0.7240   -3.5834    1.4185 C   0  0  0  0  0  0  0  0  0  0  0  0
    1.8158   -4.0576    0.6319 C   0  0  0  0  0  0  0  0  0  0  0  0
    3.0701   -4.1585    1.1723 C   0  0  0  0  0  0  0  0  0  0  0  0
    3.2646   -3.7986    2.4855 N   0  0  0  0  0  0  0  0  0  0  0  0
    6.0400   -5.6129    2.7577 C   0  0  0  0  0  0  0  0  0  0  0  0
    5.3306   -6.7472    3.2774 C   0  0  0  0  0  0  0  0  0  0  0  0
    3.9986   -6.7959    3.9624 C   0  0  0  0  0  0  0  0  0  0  0  0
    6.1485   -7.8506    3.0354 C   0  0  0  0  0  0  0  0  0  0  0  0
    7.3230   -7.4018    2.3921 C   0  0  0  0  0  0  0  0  0  0  0  0
    8.4935   -8.2093    1.9388 C   0  0  0  0  0  0  0  0  0  0  0  0
    7.2493   -6.0650    2.2305 N   0  0  0  0  0  0  0  0  0  0  0  0
    8.3479   -5.1737    1.5821 B   0  0  1  0  0  0  0  0  0  0  0  0
    8.5502   -5.5501    0.2543 F   0  0  0  0  0  0  0  0  0  0  0  0
    9.5381   -5.2899    2.2993 F   0  0  0  0  0  0  0  0  0  0  0  0
    4.3757   -1.3778    1.9813 H   0  0  0  0  0  0  0  0  0  0  0  0
    5.4795    0.0121    1.9377 H   0  0  0  0  0  0  0  0  0  0  0  0
    5.2280   -0.8883    3.4503 H   0  0  0  0  0  0  0  0  0  0  0  0
    7.7768    0.7590    2.9634 H   0  0  0  0  0  0  0  0  0  0  0  0
    8.3915    3.0348    2.3547 H   0  0  0  0  0  0  0  0  0  0  0  0
    9.8211    4.7414    1.7384 H   0  0  0  0  0  0  0  0  0  0  0  0
    8.1246    5.0906    1.3172 H   0  0  0  0  0  0  0  0  0  0  0  0
    9.4455    5.8828    0.4269 H   0  0  0  0  0  0  0  0  0  0  0  0
   10.4472    3.5916   -1.7678 H   0  0  0  0  0  0  0  0  0  0  0  0
    9.8178    5.2393   -1.5393 H   0  0  0  0  0  0  0  0  0  0  0  0
    8.7550    3.9665   -2.1842 H   0  0  0  0  0  0  0  0  0  0  0  0
    9.0957    1.7220   -1.7205 H   0  0  0  0  0  0  0  0  0  0  0  0
    8.4484   -0.5370   -1.0869 H   0  0  0  0  0  0  0  0  0  0  0  0
    9.7851   -3.2015   -0.4264 H   0  0  0  0  0  0  0  0  0  0  0  0
   10.2823   -1.7273    0.4575 H   0  0  0  0  0  0  0  0  0  0  0  0
   10.4816   -3.3570    1.1881 H   0  0  0  0  0  0  0  0  0  0  0  0
    3.1943   -2.3797    6.9128 H   0  0  0  0  0  0  0  0  0  0  0  0
    4.6690   -2.0842    8.9472 H   0  0  0  0  0  0  0  0  0  0  0  0
    7.1062   -2.7172    8.7615 H   0  0  0  0  0  0  0  0  0  0  0  0
    7.9449   -3.6067    6.5732 H   0  0  0  0  0  0  0  0  0  0  0  0
    0.1128   -2.8526    3.3659 H   0  0  0  0  0  0  0  0  0  0  0  0
   -0.2691   -3.5093    0.9704 H   0  0  0  0  0  0  0  0  0  0  0  0
    1.6662   -4.3448   -0.4098 H   0  0  0  0  0  0  0  0  0  0  0  0
    3.9469   -4.5115    0.6287 H   0  0  0  0  0  0  0  0  0  0  0  0
    3.1801   -6.4404    3.3162 H   0  0  0  0  0  0  0  0  0  0  0  0
    3.9814   -6.1741    4.8703 H   0  0  0  0  0  0  0  0  0  0  0  0
    3.7630   -7.8299    4.2546 H   0  0  0  0  0  0  0  0  0  0  0  0
    5.9321   -8.8852    3.2977 H   0  0  0  0  0  0  0  0  0  0  0  0
    8.3355   -9.2748    2.1530 H   0  0  0  0  0  0  0  0  0  0  0  0
    9.4139   -7.8706    2.4401 H   0  0  0  0  0  0  0  0  0  0  0  0
    8.6610   -8.0760    0.8584 H   0  0  0  0  0  0  0  0  0  0  0  0
  1  2  1  0
  1 43  1  0
  1 44  1  0
  1 45  1  0
  2  3  1  0
  2 16  2  0
  3  4  1  0
  3 13  2  0
  4  5  2  0
  4 12  1  0
  5  6  1  0
  5 46  1  0
  6  7  2  0
  6 47  1  0
  7  8  1  0
  7 11  1  0
  8  9  1  0
  8 10  1  0
  9 48  1  0
  9 49  1  0
  9 50  1  0
 10 51  1  0
 10 52  1  0
 10 53  1  0
 11 12  2  0
 11 54  1  0
 12 55  1  0
 13 14  1  0
 13 15  1  0
 14 56  1  0
 14 57  1  0
 14 58  1  0
 15 16  1  0
 15 40  1  0
 16 17  1  0
 17 18  1  0
 17 33  2  0
 18 19  2  0
 18 32  1  0
 19 20  1  0
 19 26  1  0
 20 21  2  0
 20 25  1  0
 21 22  1  0
 21 59  1  0
 22 23  2  0
 22 60  1  0
 23 24  1  0
 23 61  1  0
 24 25  2  0
 24 62  1  0
 26 27  2  0
 27 28  1  0
 27 32  1  0
 28 29  2  0
 28 63  1  0
 29 30  1  0
 29 64  1  0
 30 31  2  0
 30 65  1  0
 31 32  1  0
 31 66  1  0
 33 34  1  0
 33 39  1  0
 34 35  1  0
 34 36  2  0
 35 67  1  0
 35 68  1  0
 35 69  1  0
 36 37  1  0
 36 70  1  0
 37 38  1  0
 37 39  2  0
 38 71  1  0
 38 72  1  0
 38 73  1  0
 39 40  1  0
 40 41  1  6
 40 42  1  0
M  CHG  2  39   1  40  -1
M  END

