
     RDKit          3D

 23 23  0  0  0  0  0  0  0  0999 V2000
    3.6456    0.4406    0.7509 C   0  0  0  0  0  0  0  0  0  0  0  0
    2.4080   -0.1026    0.0261 C   0  0  1  0  0  0  0  0  0  0  0  0
    1.1190    0.6035    0.4570 C   0  0  0  0  0  0  0  0  0  0  0  0
    2.5709   -0.0636   -1.4305 N   0  0  0  0  0  0  0  0  0  0  0  0
    2.7843    1.1423   -2.2104 C   0  0  0  0  0  0  0  0  0  0  0  0
    2.7406    0.5679   -3.6353 C   0  0  2  0  0  0  0  0  0  0  0  0
    1.3781    0.7758   -4.3244 C   0  0  0  0  0  0  0  0  0  0  0  0
    0.8337    1.8459   -4.3453 O   0  0  0  0  0  0  0  0  0  0  0  0
    0.8873   -0.3151   -4.9145 O   0  0  0  0  0  0  0  0  0  0  0  0
    3.0083   -0.8286   -3.4830 O   0  0  0  0  0  0  0  0  0  0  0  0
    2.7969   -1.1991   -2.1586 C   0  0  0  0  0  0  0  0  0  0  0  0
    2.8167   -2.3440   -1.8009 O   0  0  0  0  0  0  0  0  0  0  0  0
    3.5349    0.3115    1.8387 H   0  0  0  0  0  0  0  0  0  0  0  0
    3.7918    1.5169    0.5608 H   0  0  0  0  0  0  0  0  0  0  0  0
    4.5548   -0.0950    0.4370 H   0  0  0  0  0  0  0  0  0  0  0  0
    2.3159   -1.1756    0.2533 H   0  0  0  0  0  0  0  0  0  0  0  0
    1.1579    1.6865    0.2538 H   0  0  0  0  0  0  0  0  0  0  0  0
    0.9610    0.4777    1.5392 H   0  0  0  0  0  0  0  0  0  0  0  0
    0.2464    0.1860   -0.0678 H   0  0  0  0  0  0  0  0  0  0  0  0
    3.7589    1.6126   -1.9886 H   0  0  0  0  0  0  0  0  0  0  0  0
    1.9936    1.8939   -2.0707 H   0  0  0  0  0  0  0  0  0  0  0  0
    3.5109    1.0061   -4.2883 H   0  0  0  0  0  0  0  0  0  0  0  0
    1.4874   -1.0610   -4.7207 H   0  0  0  0  0  0  0  0  0  0  0  0
  1  2  1  0
  1 13  1  0
  1 14  1  0
  1 15  1  0
  2  3  1  0
  2  4  1  0
  2 16  1  1
  3 17  1  0
  3 18  1  0
  3 19  1  0
  4  5  1  0
  4 11  1  0
  5  6  1  0
  5 20  1  0
  5 21  1  0
  6  7  1  0
  6 10  1  0
  6 22  1  6
  7  8  2  0
  7  9  1  0
  9 23  1  0
 10 11  1  0
 11 12  2  0
M  END

