
     RDKit          3D

 61 64  0  0  0  0  0  0  0  0999 V2000
    6.4353   -0.8922   -8.5399 C   0  0  0  0  0  0  0  0  0  0  0  0
    6.4029   -0.6686   -7.1487 O   0  0  0  0  0  0  0  0  0  0  0  0
    7.3714    0.2584   -6.6857 C   0  0  0  0  0  0  0  0  0  0  0  0
    7.2413    0.4224   -5.1752 C   0  0  0  0  0  0  0  0  0  0  0  0
    7.6254   -0.7850   -4.3109 C   0  0  0  0  0  0  0  0  0  0  0  0
    8.2681   -0.6754   -3.2963 O   0  0  0  0  0  0  0  0  0  0  0  0
    7.1222   -1.9886   -4.8077 N   0  0  0  0  0  0  0  0  0  0  0  0
    7.2530   -3.2503   -4.2610 C   0  0  0  0  0  0  0  0  0  0  0  0
    7.8770   -3.5717   -3.1687 N   0  0  0  0  0  0  0  0  0  0  0  0
    7.8190   -4.9019   -2.8997 N   0  0  0  0  0  0  0  0  0  0  0  0
    7.1618   -5.6088   -3.7649 C   0  0  0  0  0  0  0  0  0  0  0  0
    6.9839   -7.0971   -3.7122 C   0  0  1  0  0  0  0  0  0  0  0  0
    5.9124   -7.3200   -3.8716 H   0  0  0  0  0  0  0  0  0  0  0  0
    7.7955   -7.8910   -4.7625 C   0  0  0  0  0  0  0  0  0  0  0  0
    7.7173   -9.3424   -4.2593 C   0  0  0  0  0  0  0  0  0  0  0  0
    7.5951   -9.2491   -2.7049 C   0  0  1  0  0  0  0  0  0  0  0  0
    6.6785   -9.7753   -2.3877 H   0  0  0  0  0  0  0  0  0  0  0  0
    8.7813   -9.8770   -1.9407 C   0  0  0  0  0  0  0  0  0  0  0  0
    8.8973  -11.3719   -2.1017 C   0  0  0  0  0  0  0  0  0  0  0  0
    8.2169  -12.2757   -1.2620 C   0  0  0  0  0  0  0  0  0  0  0  0
    8.3523  -13.6329   -1.4849 C   0  0  0  0  0  0  0  0  0  0  0  0
    9.1783  -14.0070   -2.5659 C   0  0  0  0  0  0  0  0  0  0  0  0
    9.4325  -15.3241   -2.9462 N   0  0  0  0  0  0  0  0  0  0  0  0
    8.9840  -16.4794   -2.3628 C   0  0  0  0  0  0  0  0  0  0  0  0
    8.2514  -16.5303   -1.3906 O   0  0  0  0  0  0  0  0  0  0  0  0
    9.4295  -17.7674   -3.0780 C   0  0  0  0  0  0  0  0  0  0  0  0
   10.8699  -17.8492   -3.5346 C   0  0  0  0  0  0  0  0  0  0  0  0
   11.7081  -18.8965   -3.1232 C   0  0  0  0  0  0  0  0  0  0  0  0
   13.0197  -18.9410   -3.5988 C   0  0  0  0  0  0  0  0  0  0  0  0
   13.4605  -17.9383   -4.4644 C   0  0  0  0  0  0  0  0  0  0  0  0
   12.5607  -16.9272   -4.8116 C   0  0  0  0  0  0  0  0  0  0  0  0
   11.3040  -16.8873   -4.3642 N   0  0  0  0  0  0  0  0  0  0  0  0
    9.8020  -13.1060   -3.3345 N   0  0  0  0  0  0  0  0  0  0  0  0
    9.6650  -11.8149   -3.1049 N   0  0  0  0  0  0  0  0  0  0  0  0
    7.4417   -7.7387   -2.3915 C   0  0  0  0  0  0  0  0  0  0  0  0
    6.5049   -4.6283   -5.0828 S   0  0  0  0  0  0  0  0  0  0  0  0
    5.6429   -1.6146   -8.7817 H   0  0  0  0  0  0  0  0  0  0  0  0
    7.4092   -1.3044   -8.8684 H   0  0  0  0  0  0  0  0  0  0  0  0
    6.2472    0.0427   -9.1016 H   0  0  0  0  0  0  0  0  0  0  0  0
    7.2147    1.2384   -7.1776 H   0  0  0  0  0  0  0  0  0  0  0  0
    8.3908   -0.0840   -6.9583 H   0  0  0  0  0  0  0  0  0  0  0  0
    6.1976    0.6968   -4.9401 H   0  0  0  0  0  0  0  0  0  0  0  0
    7.8802    1.2495   -4.8366 H   0  0  0  0  0  0  0  0  0  0  0  0
    6.6233   -1.9107   -5.6956 H   0  0  0  0  0  0  0  0  0  0  0  0
    8.8371   -7.5276   -4.7505 H   0  0  0  0  0  0  0  0  0  0  0  0
    7.4170   -7.7649   -5.7892 H   0  0  0  0  0  0  0  0  0  0  0  0
    8.5857   -9.9421   -4.5689 H   0  0  0  0  0  0  0  0  0  0  0  0
    6.8254   -9.8363   -4.6776 H   0  0  0  0  0  0  0  0  0  0  0  0
    9.7194   -9.4204   -2.2940 H   0  0  0  0  0  0  0  0  0  0  0  0
    8.6804   -9.6337   -0.8695 H   0  0  0  0  0  0  0  0  0  0  0  0
    7.5965  -11.9059   -0.4413 H   0  0  0  0  0  0  0  0  0  0  0  0
    7.8667  -14.3940   -0.8775 H   0  0  0  0  0  0  0  0  0  0  0  0
   10.0836  -15.4314   -3.7348 H   0  0  0  0  0  0  0  0  0  0  0  0
    8.7777  -17.8729   -3.9645 H   0  0  0  0  0  0  0  0  0  0  0  0
    9.1847  -18.5896   -2.3946 H   0  0  0  0  0  0  0  0  0  0  0  0
   11.3327  -19.6637   -2.4425 H   0  0  0  0  0  0  0  0  0  0  0  0
   13.6901  -19.7488   -3.2937 H   0  0  0  0  0  0  0  0  0  0  0  0
   14.4783  -17.9326   -4.8599 H   0  0  0  0  0  0  0  0  0  0  0  0
   12.8660  -16.1127   -5.4778 H   0  0  0  0  0  0  0  0  0  0  0  0
    8.4112   -7.2992   -2.1091 H   0  0  0  0  0  0  0  0  0  0  0  0
    6.7495   -7.5371   -1.5600 H   0  0  0  0  0  0  0  0  0  0  0  0
  1  2  1  0
  1 37  1  0
  1 38  1  0
  1 39  1  0
  2  3  1  0
  3  4  1  0
  3 40  1  0
  3 41  1  0
  4  5  1  0
  4 42  1  0
  4 43  1  0
  5  6  2  0
  5  7  1  0
  7  8  1  0
  7 44  1  0
  8  9  2  0
  8 36  1  0
  9 10  1  0
 10 11  2  0
 11 12  1  0
 11 36  1  0
 12 13  1  6
 12 14  1  0
 12 35  1  0
 14 15  1  0
 14 45  1  0
 14 46  1  0
 15 16  1  0
 15 47  1  0
 15 48  1  0
 16 17  1  1
 16 18  1  0
 16 35  1  0
 18 19  1  0
 18 49  1  0
 18 50  1  0
 19 20  2  0
 19 34  1  0
 20 21  1  0
 20 51  1  0
 21 22  2  0
 21 52  1  0
 22 23  1  0
 22 33  1  0
 23 24  1  0
 23 53  1  0
 24 25  2  0
 24 26  1  0
 26 27  1  0
 26 54  1  0
 26 55  1  0
 27 28  2  0
 27 32  1  0
 28 29  1  0
 28 56  1  0
 29 30  2  0
 29 57  1  0
 30 31  1  0
 30 58  1  0
 31 32  2  0
 31 59  1  0
 33 34  2  0
 35 60  1  0
 35 61  1  0
M  END

