
     RDKit          3D

 52 55  0  0  0  0  0  0  0  0999 V2000
    1.2429    0.5622   -0.5514 O   0  0  0  0  0  0  0  0  0  0  0  0
    2.1663   -0.0649   -0.0508 C   0  0  0  0  0  0  0  0  0  0  0  0
    2.7121   -1.3087   -0.7640 C   0  0  0  0  0  0  0  0  0  0  0  0
    3.8622   -0.9812   -1.6999 C   0  0  0  0  0  0  0  0  0  0  0  0
    3.7152    0.0585   -2.6375 C   0  0  0  0  0  0  0  0  0  0  0  0
    4.7313    0.3888   -3.5331 C   0  0  0  0  0  0  0  0  0  0  0  0
    5.9355   -0.3220   -3.5152 C   0  0  0  0  0  0  0  0  0  0  0  0
    6.1126   -1.3588   -2.5997 C   0  0  0  0  0  0  0  0  0  0  0  0
    5.0836   -1.6773   -1.7061 C   0  0  0  0  0  0  0  0  0  0  0  0
    5.3750   -3.0028   -0.5802 Cl  0  0  0  0  0  0  0  0  0  0  0  0
    2.7586    0.3258    1.1243 N   0  0  0  0  0  0  0  0  0  0  0  0
    3.8815   -0.3067    1.7958 C   0  0  0  0  0  0  0  0  0  0  0  0
    5.0162    0.6953    2.0464 C   0  0  0  0  0  0  0  0  0  0  0  0
    4.5247    1.8842    2.7197 N   0  0  0  0  0  0  0  0  0  0  0  0
    5.3725    2.6762    3.4915 C   0  0  0  0  0  0  0  0  0  0  0  0
    6.6829    2.2836    3.8705 C   0  0  0  0  0  0  0  0  0  0  0  0
    7.4040    3.1165    4.6974 C   0  0  0  0  0  0  0  0  0  0  0  0
    6.8018    4.3270    5.1293 C   0  0  0  0  0  0  0  0  0  0  0  0
    7.4073    5.2094    6.0173 N   0  0  0  0  0  0  0  0  0  0  0  0
    6.8964    6.5773    6.1075 C   0  0  0  0  0  0  0  0  0  0  0  0
    7.2615    7.1883    7.4534 C   0  0  0  0  0  0  0  0  0  0  0  0
    8.6535    7.1135    7.6994 O   0  0  0  0  0  0  0  0  0  0  0  0
    9.0939    5.7764    7.6990 C   0  0  0  0  0  0  0  0  0  0  0  0
    8.8127    5.0781    6.3670 C   0  0  0  0  0  0  0  0  0  0  0  0
    5.5877    4.6611    4.6761 N   0  0  0  0  0  0  0  0  0  0  0  0
    4.8978    3.8629    3.8862 N   0  0  0  0  0  0  0  0  0  0  0  0
    3.3806    2.5142    2.0597 C   0  0  0  0  0  0  0  0  0  0  0  0
    2.2611    1.5054    1.8281 C   0  0  0  0  0  0  0  0  0  0  0  0
    1.8632   -1.6776   -1.3587 H   0  0  0  0  0  0  0  0  0  0  0  0
    2.9959   -2.1066   -0.0687 H   0  0  0  0  0  0  0  0  0  0  0  0
    2.7715    0.6098   -2.6457 H   0  0  0  0  0  0  0  0  0  0  0  0
    4.5818    1.2014   -4.2479 H   0  0  0  0  0  0  0  0  0  0  0  0
    6.7384   -0.0739   -4.2136 H   0  0  0  0  0  0  0  0  0  0  0  0
    7.0424   -1.9291   -2.5685 H   0  0  0  0  0  0  0  0  0  0  0  0
    4.2746   -1.1436    1.2086 H   0  0  0  0  0  0  0  0  0  0  0  0
    3.5434   -0.7065    2.7712 H   0  0  0  0  0  0  0  0  0  0  0  0
    5.4995    0.9476    1.0778 H   0  0  0  0  0  0  0  0  0  0  0  0
    5.7668    0.1896    2.6685 H   0  0  0  0  0  0  0  0  0  0  0  0
    7.1372    1.3599    3.5136 H   0  0  0  0  0  0  0  0  0  0  0  0
    8.4182    2.8408    4.9848 H   0  0  0  0  0  0  0  0  0  0  0  0
    5.8092    6.5546    5.9684 H   0  0  0  0  0  0  0  0  0  0  0  0
    7.3221    7.2010    5.2935 H   0  0  0  0  0  0  0  0  0  0  0  0
    6.7043    6.6705    8.2614 H   0  0  0  0  0  0  0  0  0  0  0  0
    6.9878    8.2539    7.4726 H   0  0  0  0  0  0  0  0  0  0  0  0
    8.5989    5.2080    8.5144 H   0  0  0  0  0  0  0  0  0  0  0  0
   10.1772    5.7880    7.8945 H   0  0  0  0  0  0  0  0  0  0  0  0
    9.0815    4.0182    6.4799 H   0  0  0  0  0  0  0  0  0  0  0  0
    9.4673    5.5090    5.5786 H   0  0  0  0  0  0  0  0  0  0  0  0
    3.6914    2.9482    1.0863 H   0  0  0  0  0  0  0  0  0  0  0  0
    3.0322    3.3392    2.6910 H   0  0  0  0  0  0  0  0  0  0  0  0
    1.4602    1.9450    1.2218 H   0  0  0  0  0  0  0  0  0  0  0  0
    1.8382    1.1924    2.8009 H   0  0  0  0  0  0  0  0  0  0  0  0
  1  2  2  0
  2  3  1  0
  2 11  1  0
  3  4  1  0
  3 29  1  0
  3 30  1  0
  4  5  2  0
  4  9  1  0
  5  6  1  0
  5 31  1  0
  6  7  2  0
  6 32  1  0
  7  8  1  0
  7 33  1  0
  8  9  2  0
  8 34  1  0
  9 10  1  0
 11 12  1  0
 11 28  1  0
 12 13  1  0
 12 35  1  0
 12 36  1  0
 13 14  1  0
 13 37  1  0
 13 38  1  0
 14 15  1  0
 14 27  1  0
 15 16  2  0
 15 26  1  0
 16 17  1  0
 16 39  1  0
 17 18  2  0
 17 40  1  0
 18 19  1  0
 18 25  1  0
 19 20  1  0
 19 24  1  0
 20 21  1  0
 20 41  1  0
 20 42  1  0
 21 22  1  0
 21 43  1  0
 21 44  1  0
 22 23  1  0
 23 24  1  0
 23 45  1  0
 23 46  1  0
 24 47  1  0
 24 48  1  0
 25 26  2  0
 27 28  1  0
 27 49  1  0
 27 50  1  0
 28 51  1  0
 28 52  1  0
M  END

