
     RDKit          3D

 35 36  0  0  0  0  0  0  0  0999 V2000
    2.4601    1.6360    0.5061 C   0  0  0  0  0  0  0  0  0  0  0  0
    2.6000    0.1964    0.0227 C   0  0  1  0  0  0  0  0  0  0  0  0
    3.1404    0.1851   -1.3436 N   0  0  0  0  0  0  0  0  0  0  0  0
    3.0546   -0.8761   -2.1678 C   0  0  0  0  0  0  0  0  0  0  0  0
    2.5686   -1.9655   -1.8567 O   0  0  0  0  0  0  0  0  0  0  0  0
    3.6147   -0.6402   -3.5521 C   0  0  0  0  0  0  0  0  0  0  0  0
    3.5557   -1.6669   -4.4996 C   0  0  0  0  0  0  0  0  0  0  0  0
    4.0791   -1.4248   -5.7666 C   0  0  0  0  0  0  0  0  0  0  0  0
    4.6513   -0.1736   -6.0625 C   0  0  0  0  0  0  0  0  0  0  0  0
    5.2026    0.0753   -7.3947 C   0  0  0  0  0  0  0  0  0  0  0  0
    5.7950    1.1942   -7.8548 C   0  0  0  0  0  0  0  0  0  0  0  0
    6.2930    1.2402   -9.2619 C   0  0  0  0  0  0  0  0  0  0  0  0
    6.2001    0.3274  -10.0409 O   0  0  0  0  0  0  0  0  0  0  0  0
    6.8772    2.4023   -9.6360 O   0  0  0  0  0  0  0  0  0  0  0  0
    4.6543    0.7841   -5.0234 C   0  0  0  0  0  0  0  0  0  0  0  0
    4.1536    0.5597   -3.8160 N   0  0  0  0  0  0  0  0  0  0  0  0
    3.4347   -0.6338    0.9699 C   0  0  0  0  0  0  0  0  0  0  0  0
    4.0900   -0.2016    2.0280 N   0  0  0  0  0  0  0  0  0  0  0  0
    4.6847   -1.3124    2.5729 C   0  0  0  0  0  0  0  0  0  0  0  0
    4.3826   -2.4330    1.8277 C   0  0  0  0  0  0  0  0  0  0  0  0
    3.5761   -1.9833    0.8101 N   0  0  0  0  0  0  0  0  0  0  0  0
    3.1809   -2.4931    0.0193 H   0  0  0  0  0  0  0  0  0  0  0  0
    1.8296    2.2143   -0.1863 H   0  0  0  0  0  0  0  0  0  0  0  0
    3.4473    2.1146    0.5914 H   0  0  0  0  0  0  0  0  0  0  0  0
    2.0068    1.6572    1.5059 H   0  0  0  0  0  0  0  0  0  0  0  0
    1.6022   -0.2727   -0.0413 H   0  0  0  0  0  0  0  0  0  0  0  0
    3.6129    1.0060   -1.7160 H   0  0  0  0  0  0  0  0  0  0  0  0
    3.1049   -2.6199   -4.2206 H   0  0  0  0  0  0  0  0  0  0  0  0
    4.0505   -2.2013   -6.5358 H   0  0  0  0  0  0  0  0  0  0  0  0
    5.1269   -0.7502   -8.1118 H   0  0  0  0  0  0  0  0  0  0  0  0
    5.9241    2.0782   -7.2217 H   0  0  0  0  0  0  0  0  0  0  0  0
    6.8802    3.0382   -8.9073 H   0  0  0  0  0  0  0  0  0  0  0  0
    5.0843    1.7777   -5.1889 H   0  0  0  0  0  0  0  0  0  0  0  0
    5.2967   -1.2530    3.4723 H   0  0  0  0  0  0  0  0  0  0  0  0
    4.6614   -3.4785    1.9333 H   0  0  0  0  0  0  0  0  0  0  0  0
  1  2  1  0
  1 23  1  0
  1 24  1  0
  1 25  1  0
  2  3  1  0
  2 17  1  0
  2 26  1  6
  3  4  1  0
  3 27  1  0
  4  5  2  0
  4  6  1  0
  6  7  2  0
  6 16  1  0
  7  8  1  0
  7 28  1  0
  8  9  2  0
  8 29  1  0
  9 10  1  0
  9 15  1  0
 10 11  2  0
 10 30  1  0
 11 12  1  0
 11 31  1  0
 12 13  2  0
 12 14  1  0
 14 32  1  0
 15 16  2  0
 15 33  1  0
 17 18  2  0
 17 21  1  0
 18 19  1  0
 19 20  2  0
 19 34  1  0
 20 21  1  0
 20 35  1  0
 21 22  1  0
M  END

