
     RDKit          3D

 51 52  0  0  0  0  0  0  0  0999 V2000
    0.8855    0.5539   -0.7264 C   0  0  0  0  0  0  0  0  0  0  0  0
    2.3808    0.2501   -0.6336 C   0  0  0  0  0  0  0  0  0  0  0  0
    2.7373   -0.7507    0.4776 C   0  0  1  0  0  0  0  0  0  0  0  0
    2.1298   -2.0607    0.1961 N   0  0  0  0  0  0  0  0  0  0  0  0
    1.5562   -2.8058    1.1978 C   0  0  0  0  0  0  0  0  0  0  0  0
    1.3414   -2.3814    2.3220 O   0  0  0  0  0  0  0  0  0  0  0  0
    1.2090   -4.1193    0.8463 N   0  0  0  0  0  0  0  0  0  0  0  0
    0.3351   -4.8624    1.7852 C   0  0  0  0  0  0  0  0  0  0  0  0
   -0.2850   -5.9754    0.9230 C   0  0  0  0  0  0  0  0  0  0  0  0
    0.5839   -6.0497   -0.3667 C   0  0  2  0  0  0  0  0  0  0  0  0
   -0.1732   -6.6091   -1.5701 C   0  0  0  0  0  0  0  0  0  0  0  0
    1.8304   -6.9309   -0.0938 C   0  0  0  0  0  0  0  0  0  0  0  0
    1.9315   -8.0580   -0.5004 O   0  0  0  0  0  0  0  0  0  0  0  0
    2.8012   -6.3765    0.6542 O   0  0  0  0  0  0  0  0  0  0  0  0
    0.9792   -4.5674   -0.5326 C   0  0  0  0  0  0  0  0  0  0  0  0
    4.2311   -0.8865    0.7623 C   0  0  0  0  0  0  0  0  0  0  0  0
    4.6578   -1.1873    2.0564 C   0  0  0  0  0  0  0  0  0  0  0  0
    6.0189   -1.3708    2.3407 C   0  0  0  0  0  0  0  0  0  0  0  0
    6.9809   -1.2571    1.3356 C   0  0  0  0  0  0  0  0  0  0  0  0
    8.3149   -1.4123    1.5098 O   0  0  0  0  0  0  0  0  0  0  0  0
    8.8036   -1.7226    2.7933 C   0  0  0  0  0  0  0  0  0  0  0  0
    6.5599   -0.9498    0.0120 C   0  0  0  0  0  0  0  0  0  0  0  0
    7.5501   -0.8492   -0.9089 O   0  0  0  0  0  0  0  0  0  0  0  0
    7.2199   -0.5439   -2.2414 C   0  0  0  0  0  0  0  0  0  0  0  0
    5.2010   -0.7707   -0.2550 C   0  0  0  0  0  0  0  0  0  0  0  0
    0.6726    1.2605   -1.5440 H   0  0  0  0  0  0  0  0  0  0  0  0
    0.5108    1.0003    0.2092 H   0  0  0  0  0  0  0  0  0  0  0  0
    0.3040   -0.3627   -0.9108 H   0  0  0  0  0  0  0  0  0  0  0  0
    2.9439    1.1795   -0.4474 H   0  0  0  0  0  0  0  0  0  0  0  0
    2.7387   -0.1306   -1.6078 H   0  0  0  0  0  0  0  0  0  0  0  0
    2.2540   -0.4210    1.4077 H   0  0  0  0  0  0  0  0  0  0  0  0
    2.4833   -2.5465   -0.6202 H   0  0  0  0  0  0  0  0  0  0  0  0
   -0.4175   -4.1905    2.2240 H   0  0  0  0  0  0  0  0  0  0  0  0
    0.9346   -5.2542    2.6216 H   0  0  0  0  0  0  0  0  0  0  0  0
   -1.3114   -5.7045    0.6287 H   0  0  0  0  0  0  0  0  0  0  0  0
   -0.3409   -6.9410    1.4465 H   0  0  0  0  0  0  0  0  0  0  0  0
   -0.4515   -7.6567   -1.3927 H   0  0  0  0  0  0  0  0  0  0  0  0
    0.4502   -6.5895   -2.4773 H   0  0  0  0  0  0  0  0  0  0  0  0
   -1.0862   -6.0232   -1.7599 H   0  0  0  0  0  0  0  0  0  0  0  0
    2.5544   -5.4596    0.9039 H   0  0  0  0  0  0  0  0  0  0  0  0
    0.1604   -4.0049   -1.0208 H   0  0  0  0  0  0  0  0  0  0  0  0
    1.8821   -4.4526   -1.1550 H   0  0  0  0  0  0  0  0  0  0  0  0
    3.9211   -1.2926    2.8562 H   0  0  0  0  0  0  0  0  0  0  0  0
    6.3208   -1.6024    3.3623 H   0  0  0  0  0  0  0  0  0  0  0  0
    9.8950   -1.8053    2.7009 H   0  0  0  0  0  0  0  0  0  0  0  0
    8.4027   -2.6828    3.1667 H   0  0  0  0  0  0  0  0  0  0  0  0
    8.5661   -0.9315    3.5280 H   0  0  0  0  0  0  0  0  0  0  0  0
    8.1655   -0.5123   -2.7994 H   0  0  0  0  0  0  0  0  0  0  0  0
    6.7206    0.4387   -2.3300 H   0  0  0  0  0  0  0  0  0  0  0  0
    6.5661   -1.3131   -2.6931 H   0  0  0  0  0  0  0  0  0  0  0  0
    4.8905   -0.5286   -1.2708 H   0  0  0  0  0  0  0  0  0  0  0  0
  1  2  1  0
  1 26  1  0
  1 27  1  0
  1 28  1  0
  2  3  1  0
  2 29  1  0
  2 30  1  0
  3  4  1  0
  3 16  1  0
  3 31  1  1
  4  5  1  0
  4 32  1  0
  5  6  2  0
  5  7  1  0
  7  8  1  0
  7 15  1  0
  8  9  1  0
  8 33  1  0
  8 34  1  0
  9 10  1  0
  9 35  1  0
  9 36  1  0
 10 11  1  0
 10 12  1  1
 10 15  1  0
 11 37  1  0
 11 38  1  0
 11 39  1  0
 12 13  2  0
 12 14  1  0
 14 40  1  0
 15 41  1  0
 15 42  1  0
 16 17  2  0
 16 25  1  0
 17 18  1  0
 17 43  1  0
 18 19  2  0
 18 44  1  0
 19 20  1  0
 19 22  1  0
 20 21  1  0
 21 45  1  0
 21 46  1  0
 21 47  1  0
 22 23  1  0
 22 25  2  0
 23 24  1  0
 24 48  1  0
 24 49  1  0
 24 50  1  0
 25 51  1  0
M  END

