
     RDKit          3D

 71 76  0  0  0  0  0  0  0  0999 V2000
    3.0686   -0.6237    3.5146 C   0  0  0  0  0  0  0  0  0  0  0  0
    4.5683   -0.8613    3.5608 C   0  0  0  0  0  0  0  0  0  0  0  0
    4.9940   -1.7699    2.5240 O   0  0  0  0  0  0  0  0  0  0  0  0
    5.2577   -1.2507    1.3255 C   0  0  0  0  0  0  0  0  0  0  0  0
    5.1701   -0.0820    1.0363 O   0  0  0  0  0  0  0  0  0  0  0  0
    5.6965   -2.2813    0.2953 C   0  0  0  0  0  0  0  0  0  0  0  0
    5.7791   -3.5721    0.8353 O   0  0  0  0  0  0  0  0  0  0  0  0
    6.1547   -4.6068    0.0384 C   0  0  0  0  0  0  0  0  0  0  0  0
    6.4777   -4.4886   -1.3243 C   0  0  0  0  0  0  0  0  0  0  0  0
    6.8508   -5.6195   -2.0505 C   0  0  0  0  0  0  0  0  0  0  0  0
    6.9197   -6.8961   -1.4586 C   0  0  0  0  0  0  0  0  0  0  0  0
    7.3089   -8.1121   -2.1682 C   0  0  0  0  0  0  0  0  0  0  0  0
    7.7771   -8.1847   -3.4412 C   0  0  0  0  0  0  0  0  0  0  0  0
    8.1782   -9.3349   -4.2176 C   0  0  0  0  0  0  0  0  0  0  0  0
    7.9734  -10.6711   -3.9744 N   0  0  0  0  0  0  0  0  0  0  0  0
    8.5484  -11.3850   -5.0200 C   0  0  0  0  0  0  0  0  0  0  0  0
    8.4735  -12.7827   -5.0751 C   0  0  0  0  0  0  0  0  0  0  0  0
    7.8041  -13.5233   -4.1200 C   0  0  0  0  0  0  0  0  0  0  0  0
    7.6416  -14.9442   -3.9844 C   0  0  0  0  0  0  0  0  0  0  0  0
    8.0386  -16.0303   -4.7844 C   0  0  0  0  0  0  0  0  0  0  0  0
    7.6462  -17.3084   -4.4067 C   0  0  0  0  0  0  0  0  0  0  0  0
    6.8478  -17.5169   -3.2580 C   0  0  0  0  0  0  0  0  0  0  0  0
    6.4562  -16.4524   -2.4564 C   0  0  0  0  0  0  0  0  0  0  0  0
    6.8815  -15.1538   -2.8008 C   0  0  0  0  0  0  0  0  0  0  0  0
    6.6156  -13.8506   -2.2267 C   0  0  0  0  0  0  0  0  0  0  0  0
    5.8817  -13.5820   -1.0135 C   0  0  0  0  0  0  0  0  0  0  0  0
    5.0542  -12.4793   -0.8806 N   0  0  0  0  0  0  0  0  0  0  0  0
    4.9554  -11.7728   -1.6089 H   0  0  0  0  0  0  0  0  0  0  0  0
    4.4945  -12.4429    0.3555 C   0  0  0  0  0  0  0  0  0  0  0  0
    3.5372  -11.3708    0.7638 C   0  0  0  0  0  0  0  0  0  0  0  0
    4.9741  -13.5449    1.0608 C   0  0  0  0  0  0  0  0  0  0  0  0
    5.8488  -14.2734    0.2182 C   0  0  0  0  0  0  0  0  0  0  0  0
    6.6595  -15.4580    0.6606 C   0  0  0  0  0  0  0  0  0  0  0  0
    7.1547  -12.9082   -3.0480 N   0  0  0  0  0  0  0  0  0  0  0  0
    7.1406  -11.3398   -2.8481 B   0  0  1  0  0  0  0  0  0  0  0  0
    7.6515  -11.0620   -1.5871 F   0  0  0  0  0  0  0  0  0  0  0  0
    5.8051  -10.8832   -2.9405 F   0  0  0  0  0  0  0  0  0  0  0  0
    9.1410  -10.4813   -5.9451 C   0  0  0  0  0  0  0  0  0  0  0  0
    9.8688  -10.8470   -7.2027 C   0  0  0  0  0  0  0  0  0  0  0  0
    8.8924   -9.2108   -5.4395 C   0  0  0  0  0  0  0  0  0  0  0  0
    6.5834   -6.9857   -0.0870 C   0  0  0  0  0  0  0  0  0  0  0  0
    6.2106   -5.8705    0.6505 C   0  0  0  0  0  0  0  0  0  0  0  0
    2.7642    0.0052    4.3666 H   0  0  0  0  0  0  0  0  0  0  0  0
    2.5172   -1.5748    3.5743 H   0  0  0  0  0  0  0  0  0  0  0  0
    2.7831   -0.1038    2.5882 H   0  0  0  0  0  0  0  0  0  0  0  0
    4.8676   -1.3538    4.4969 H   0  0  0  0  0  0  0  0  0  0  0  0
    5.1217    0.0834    3.4554 H   0  0  0  0  0  0  0  0  0  0  0  0
    6.6680   -1.9359   -0.1056 H   0  0  0  0  0  0  0  0  0  0  0  0
    4.9696   -2.2277   -0.5376 H   0  0  0  0  0  0  0  0  0  0  0  0
    6.4381   -3.5239   -1.8307 H   0  0  0  0  0  0  0  0  0  0  0  0
    7.0848   -5.4975   -3.1103 H   0  0  0  0  0  0  0  0  0  0  0  0
    7.2363   -9.0301   -1.5856 H   0  0  0  0  0  0  0  0  0  0  0  0
    7.9243   -7.2519   -3.9948 H   0  0  0  0  0  0  0  0  0  0  0  0
    8.9645  -13.3033   -5.8985 H   0  0  0  0  0  0  0  0  0  0  0  0
    8.6299  -15.8759   -5.6903 H   0  0  0  0  0  0  0  0  0  0  0  0
    7.9411  -18.1666   -5.0160 H   0  0  0  0  0  0  0  0  0  0  0  0
    6.5268  -18.5304   -3.0058 H   0  0  0  0  0  0  0  0  0  0  0  0
    5.8144  -16.6200   -1.5923 H   0  0  0  0  0  0  0  0  0  0  0  0
    3.9515  -10.3657    0.5775 H   0  0  0  0  0  0  0  0  0  0  0  0
    3.3069  -11.4516    1.8351 H   0  0  0  0  0  0  0  0  0  0  0  0
    2.5849  -11.4389    0.2091 H   0  0  0  0  0  0  0  0  0  0  0  0
    4.7335  -13.7849    2.0955 H   0  0  0  0  0  0  0  0  0  0  0  0
    7.0324  -15.2973    1.6847 H   0  0  0  0  0  0  0  0  0  0  0  0
    7.5291  -15.6353    0.0134 H   0  0  0  0  0  0  0  0  0  0  0  0
    6.0665  -16.3888    0.6837 H   0  0  0  0  0  0  0  0  0  0  0  0
   10.2415   -9.9480   -7.7146 H   0  0  0  0  0  0  0  0  0  0  0  0
   10.7362  -11.4978   -6.9999 H   0  0  0  0  0  0  0  0  0  0  0  0
    9.2179  -11.3867   -7.9113 H   0  0  0  0  0  0  0  0  0  0  0  0
    9.1991   -8.2623   -5.8786 H   0  0  0  0  0  0  0  0  0  0  0  0
    6.6253   -7.9620    0.4036 H   0  0  0  0  0  0  0  0  0  0  0  0
    5.9557   -5.9458    1.7094 H   0  0  0  0  0  0  0  0  0  0  0  0
  1  2  1  0
  1 43  1  0
  1 44  1  0
  1 45  1  0
  2  3  1  0
  2 46  1  0
  2 47  1  0
  3  4  1  0
  4  5  2  0
  4  6  1  0
  6  7  1  0
  6 48  1  0
  6 49  1  0
  7  8  1  0
  8  9  2  0
  8 42  1  0
  9 10  1  0
  9 50  1  0
 10 11  2  0
 10 51  1  0
 11 12  1  0
 11 41  1  0
 12 13  2  0
 12 52  1  0
 13 14  1  0
 13 53  1  0
 14 15  1  0
 14 40  2  0
 15 16  1  0
 15 35  1  0
 16 17  1  0
 16 38  2  0
 17 18  2  0
 17 54  1  0
 18 19  1  0
 18 34  1  0
 19 20  2  0
 19 24  1  0
 20 21  1  0
 20 55  1  0
 21 22  2  0
 21 56  1  0
 22 23  1  0
 22 57  1  0
 23 24  2  0
 23 58  1  0
 24 25  1  0
 25 26  1  0
 25 34  2  0
 26 27  1  0
 26 32  2  0
 27 28  1  0
 27 29  1  0
 29 30  1  0
 29 31  2  0
 30 59  1  0
 30 60  1  0
 30 61  1  0
 31 32  1  0
 31 62  1  0
 32 33  1  0
 33 63  1  0
 33 64  1  0
 33 65  1  0
 34 35  1  0
 35 36  1  1
 35 37  1  0
 38 39  1  0
 38 40  1  0
 39 66  1  0
 39 67  1  0
 39 68  1  0
 40 69  1  0
 41 42  2  0
 41 70  1  0
 42 71  1  0
M  CHG  2  34   1  35  -1
M  END

