
     RDKit          3D

 37 38  0  0  0  0  0  0  0  0999 V2000
    2.3598   -1.6424    4.0162 C   0  0  0  0  0  0  0  0  0  0  0  0
    3.3798   -0.6696    4.0012 O   0  0  0  0  0  0  0  0  0  0  0  0
    3.1855    0.3734    3.0808 C   0  0  0  0  0  0  0  0  0  0  0  0
    4.4036    1.2854    3.0628 C   0  0  0  0  0  0  0  0  0  0  0  0
    5.5913    0.5895    2.5946 N   0  0  0  0  0  0  0  0  0  0  0  0
    6.8537    1.3026    2.7375 C   0  0  0  0  0  0  0  0  0  0  0  0
    7.3283    1.4657    4.1588 C   0  0  0  0  0  0  0  0  0  0  0  0
    7.8690    2.5820    4.6030 N   0  0  0  0  0  0  0  0  0  0  0  0
    8.2652    2.3298    5.8895 C   0  0  0  0  0  0  0  0  0  0  0  0
    7.9547    1.0375    6.2390 C   0  0  0  0  0  0  0  0  0  0  0  0
    7.3521    0.4786    5.1247 N   0  0  0  0  0  0  0  0  0  0  0  0
    6.8177   -0.8757    5.0300 C   0  0  1  0  0  0  0  0  0  0  0  0
    7.8951   -1.9809    5.1008 C   0  0  0  0  0  0  0  0  0  0  0  0
    7.1323   -3.3017    5.1380 C   0  0  0  0  0  0  0  0  0  0  0  0
    5.7761   -2.9965    6.3381 S   0  0  2  0  0  0  0  0  0  0  0  0
    6.2893   -3.2843    7.6855 O   0  0  0  0  0  0  0  0  0  0  0  0
    4.5268   -3.6096    5.8623 O   0  0  0  0  0  0  0  0  0  0  0  0
    5.7552   -1.1718    6.1086 C   0  0  0  0  0  0  0  0  0  0  0  0
    2.6680   -2.4260    4.7220 H   0  0  0  0  0  0  0  0  0  0  0  0
    2.2214   -2.0970    3.0150 H   0  0  0  0  0  0  0  0  0  0  0  0
    1.3881   -1.2151    4.3351 H   0  0  0  0  0  0  0  0  0  0  0  0
    2.2857    0.9703    3.3398 H   0  0  0  0  0  0  0  0  0  0  0  0
    3.0078   -0.0392    2.0631 H   0  0  0  0  0  0  0  0  0  0  0  0
    4.5905    1.6459    4.0881 H   0  0  0  0  0  0  0  0  0  0  0  0
    4.1568    2.1865    2.4588 H   0  0  0  0  0  0  0  0  0  0  0  0
    5.4701    0.2844    1.6308 H   0  0  0  0  0  0  0  0  0  0  0  0
    6.8465    2.3301    2.3212 H   0  0  0  0  0  0  0  0  0  0  0  0
    7.6131    0.7393    2.1648 H   0  0  0  0  0  0  0  0  0  0  0  0
    8.7471    3.0897    6.5039 H   0  0  0  0  0  0  0  0  0  0  0  0
    8.0947    0.4841    7.1643 H   0  0  0  0  0  0  0  0  0  0  0  0
    6.3098   -0.9254    4.0562 H   0  0  0  0  0  0  0  0  0  0  0  0
    8.5014   -1.8714    6.0147 H   0  0  0  0  0  0  0  0  0  0  0  0
    8.5762   -1.9231    4.2379 H   0  0  0  0  0  0  0  0  0  0  0  0
    7.7019   -4.1612    5.5151 H   0  0  0  0  0  0  0  0  0  0  0  0
    6.6549   -3.5489    4.1790 H   0  0  0  0  0  0  0  0  0  0  0  0
    6.0074   -0.7565    7.0927 H   0  0  0  0  0  0  0  0  0  0  0  0
    4.7494   -0.8716    5.7891 H   0  0  0  0  0  0  0  0  0  0  0  0
  1  2  1  0
  1 19  1  0
  1 20  1  0
  1 21  1  0
  2  3  1  0
  3  4  1  0
  3 22  1  0
  3 23  1  0
  4  5  1  0
  4 24  1  0
  4 25  1  0
  5  6  1  0
  5 26  1  0
  6  7  1  0
  6 27  1  0
  6 28  1  0
  7  8  2  0
  7 11  1  0
  8  9  1  0
  9 10  2  0
  9 29  1  0
 10 11  1  0
 10 30  1  0
 11 12  1  0
 12 13  1  0
 12 18  1  0
 12 31  1  6
 13 14  1  0
 13 32  1  0
 13 33  1  0
 15 14  1  6
 14 34  1  0
 14 35  1  0
 15 16  2  0
 15 17  2  0
 15 18  1  0
 18 36  1  0
 18 37  1  0
M  END

