
     RDKit          3D

 24 25  0  0  0  0  0  0  0  0999 V2000
    4.2182    0.5271   -0.7494 N   0  0  0  0  0  0  0  0  0  0  0  0
    2.7386    0.0637   -0.0572 S   0  0  1  0  0  0  0  0  0  0  0  0
    2.0787    1.3333    0.2642 O   0  0  0  0  0  0  0  0  0  0  0  0
    2.0833   -0.9520   -0.8788 O   0  0  0  0  0  0  0  0  0  0  0  0
    3.2428   -0.7421    1.4132 C   0  0  0  0  0  0  0  0  0  0  0  0
    3.1198   -2.0784    1.7498 C   0  0  0  0  0  0  0  0  0  0  0  0
    3.6322   -2.2921    2.9911 N   0  0  0  0  0  0  0  0  0  0  0  0
    4.0646   -1.1141    3.4155 C   0  0  0  0  0  0  0  0  0  0  0  0
    3.8497   -0.1266    2.4956 N   0  0  0  0  0  0  0  0  0  0  0  0
    4.2611    1.2757    2.6232 C   0  0  0  0  0  0  0  0  0  0  0  0
    4.5615    1.6092    4.0841 C   0  0  0  0  0  0  0  0  0  0  0  0
    5.4247    0.5262    4.7417 C   0  0  0  0  0  0  0  0  0  0  0  0
    4.6852   -0.8191    4.7480 C   0  0  0  0  0  0  0  0  0  0  0  0
    4.0626    1.3871   -1.2794 H   0  0  0  0  0  0  0  0  0  0  0  0
    4.5756   -0.2132   -1.3561 H   0  0  0  0  0  0  0  0  0  0  0  0
    2.6791   -2.8671    1.1423 H   0  0  0  0  0  0  0  0  0  0  0  0
    3.4593    1.9060    2.2148 H   0  0  0  0  0  0  0  0  0  0  0  0
    5.1525    1.4309    1.9916 H   0  0  0  0  0  0  0  0  0  0  0  0
    3.6144    1.7151    4.6417 H   0  0  0  0  0  0  0  0  0  0  0  0
    5.0613    2.5899    4.1202 H   0  0  0  0  0  0  0  0  0  0  0  0
    5.6877    0.8152    5.7709 H   0  0  0  0  0  0  0  0  0  0  0  0
    6.3757    0.4289    4.1880 H   0  0  0  0  0  0  0  0  0  0  0  0
    3.8853   -0.8047    5.5110 H   0  0  0  0  0  0  0  0  0  0  0  0
    5.3481   -1.6549    5.0187 H   0  0  0  0  0  0  0  0  0  0  0  0
  2  1  1  6
  1 14  1  0
  1 15  1  0
  2  3  2  0
  2  4  2  0
  2  5  1  0
  5  6  2  0
  5  9  1  0
  6  7  1  0
  6 16  1  0
  7  8  2  0
  8  9  1  0
  8 13  1  0
  9 10  1  0
 10 11  1  0
 10 17  1  0
 10 18  1  0
 11 12  1  0
 11 19  1  0
 11 20  1  0
 12 13  1  0
 12 21  1  0
 12 22  1  0
 13 23  1  0
 13 24  1  0
M  END

