
     RDKit          3D

 42 42  0  0  0  0  0  0  0  0999 V2000
    1.7527   -1.0898    2.5747 C   0  0  0  0  0  0  0  0  0  0  0  0
    2.9497   -0.2225    2.1966 C   0  0  0  0  0  0  0  0  0  0  0  0
    3.4454   -0.4937    0.8371 N   0  0  0  0  0  0  0  0  0  0  0  0
    2.7494    0.1760   -0.2875 C   0  0  0  0  0  0  0  0  0  0  0  0
    2.3012   -0.7624   -1.4130 C   0  0  0  0  0  0  0  0  0  0  0  0
    1.2317   -1.7858   -1.0333 C   0  0  0  0  0  0  0  0  0  0  0  0
   -0.0653   -1.1537   -0.7926 N   0  0  0  0  0  0  0  0  0  0  0  0
    5.1296   -0.5426    0.7027 S   0  0  1  0  0  0  0  0  0  0  0  0
    5.4060   -0.6415   -0.7353 O   0  0  0  0  0  0  0  0  0  0  0  0
    5.7589    0.5325    1.4768 O   0  0  0  0  0  0  0  0  0  0  0  0
    5.4672   -1.9757    1.5130 N   0  0  0  0  0  0  0  0  0  0  0  0
    5.1143   -3.2149    0.7988 C   0  0  0  0  0  0  0  0  0  0  0  0
    6.2685   -3.7582   -0.0500 C   0  0  0  0  0  0  0  0  0  0  0  0
    7.5460   -3.8997    0.7871 C   0  0  0  0  0  0  0  0  0  0  0  0
    7.8831   -2.5795    1.4942 C   0  0  0  0  0  0  0  0  0  0  0  0
    6.7082   -2.0300    2.3293 C   0  0  2  0  0  0  0  0  0  0  0  0
    6.4538   -2.8076    3.6257 C   0  0  0  0  0  0  0  0  0  0  0  0
    1.3922   -0.8221    3.5809 H   0  0  0  0  0  0  0  0  0  0  0  0
    2.0301   -2.1551    2.5773 H   0  0  0  0  0  0  0  0  0  0  0  0
    0.9125   -0.9650    1.8741 H   0  0  0  0  0  0  0  0  0  0  0  0
    3.7711   -0.4129    2.9005 H   0  0  0  0  0  0  0  0  0  0  0  0
    2.7033    0.8511    2.2983 H   0  0  0  0  0  0  0  0  0  0  0  0
    3.3879    0.9667   -0.7140 H   0  0  0  0  0  0  0  0  0  0  0  0
    1.8820    0.6959    0.1504 H   0  0  0  0  0  0  0  0  0  0  0  0
    3.1938   -1.2774   -1.7990 H   0  0  0  0  0  0  0  0  0  0  0  0
    1.9082   -0.1381   -2.2340 H   0  0  0  0  0  0  0  0  0  0  0  0
    1.6047   -2.3930   -0.1804 H   0  0  0  0  0  0  0  0  0  0  0  0
    1.1085   -2.4863   -1.8768 H   0  0  0  0  0  0  0  0  0  0  0  0
   -0.0185   -0.4984   -0.0127 H   0  0  0  0  0  0  0  0  0  0  0  0
   -0.7642   -1.8497   -0.5334 H   0  0  0  0  0  0  0  0  0  0  0  0
    4.2219   -3.0185    0.1890 H   0  0  0  0  0  0  0  0  0  0  0  0
    4.8149   -3.9575    1.5589 H   0  0  0  0  0  0  0  0  0  0  0  0
    6.4431   -3.0621   -0.8864 H   0  0  0  0  0  0  0  0  0  0  0  0
    5.9754   -4.7283   -0.4859 H   0  0  0  0  0  0  0  0  0  0  0  0
    8.3894   -4.2090    0.1483 H   0  0  0  0  0  0  0  0  0  0  0  0
    7.4151   -4.7059    1.5316 H   0  0  0  0  0  0  0  0  0  0  0  0
    8.1458   -1.8216    0.7361 H   0  0  0  0  0  0  0  0  0  0  0  0
    8.7678   -2.6981    2.1420 H   0  0  0  0  0  0  0  0  0  0  0  0
    6.9320   -0.9916    2.6037 H   0  0  0  0  0  0  0  0  0  0  0  0
    6.2163   -3.8684    3.4511 H   0  0  0  0  0  0  0  0  0  0  0  0
    5.6174   -2.3612    4.1846 H   0  0  0  0  0  0  0  0  0  0  0  0
    7.3504   -2.7722    4.2644 H   0  0  0  0  0  0  0  0  0  0  0  0
  1  2  1  0
  1 18  1  0
  1 19  1  0
  1 20  1  0
  2  3  1  0
  2 21  1  0
  2 22  1  0
  3  4  1  0
  8  3  1  6
  4  5  1  0
  4 23  1  0
  4 24  1  0
  5  6  1  0
  5 25  1  0
  5 26  1  0
  6  7  1  0
  6 27  1  0
  6 28  1  0
  7 29  1  0
  7 30  1  0
  8  9  2  0
  8 10  2  0
  8 11  1  0
 11 12  1  0
 11 16  1  0
 12 13  1  0
 12 31  1  0
 12 32  1  0
 13 14  1  0
 13 33  1  0
 13 34  1  0
 14 15  1  0
 14 35  1  0
 14 36  1  0
 15 16  1  0
 15 37  1  0
 15 38  1  0
 16 17  1  0
 16 39  1  1
 17 40  1  0
 17 41  1  0
 17 42  1  0
M  END

