
     RDKit          3D

 35 36  0  0  0  0  0  0  0  0999 V2000
    1.1180    0.2527    0.7089 C   0  0  0  0  0  0  0  0  0  0  0  0
    2.6093    0.2149    0.5085 C   0  0  0  0  0  0  0  0  0  0  0  0
    3.5297    0.4159    1.5426 C   0  0  0  0  0  0  0  0  0  0  0  0
    4.9123    0.3786    1.3183 C   0  0  0  0  0  0  0  0  0  0  0  0
    5.4244    0.1356    0.0378 C   0  0  0  0  0  0  0  0  0  0  0  0
    6.9175    0.0664   -0.2808 C   0  0  1  0  0  0  0  0  0  0  0  0
    7.8426    0.6204    0.8052 C   0  0  0  0  0  0  0  0  0  0  0  0
    7.3021   -1.3097   -0.6714 N   0  0  0  0  0  0  0  0  0  0  0  0
    7.3217   -2.3235    0.3849 C   0  0  0  0  0  0  0  0  0  0  0  0
    7.2221   -3.7399   -0.1636 C   0  0  0  0  0  0  0  0  0  0  0  0
    8.2755   -3.9384   -1.2508 C   0  0  0  0  0  0  0  0  0  0  0  0
    7.9859   -2.9745   -2.3934 C   0  0  2  0  0  0  0  0  0  0  0  0
    9.5001   -2.9259   -3.6579 Br  0  0  0  0  0  0  0  0  0  0  0  0
    7.6026   -1.5357   -1.9943 C   0  0  0  0  0  0  0  0  0  0  0  0
    7.5129   -0.6680   -2.8466 O   0  0  0  0  0  0  0  0  0  0  0  0
    4.5133   -0.0628   -1.0155 C   0  0  0  0  0  0  0  0  0  0  0  0
    3.1497   -0.0223   -0.7644 C   0  0  0  0  0  0  0  0  0  0  0  0
    2.2962   -0.2114   -1.7882 F   0  0  0  0  0  0  0  0  0  0  0  0
    0.8654    0.4283    1.7644 H   0  0  0  0  0  0  0  0  0  0  0  0
    0.6470   -0.6926    0.3932 H   0  0  0  0  0  0  0  0  0  0  0  0
    0.6536    1.0510    0.1065 H   0  0  0  0  0  0  0  0  0  0  0  0
    3.1546    0.6083    2.5517 H   0  0  0  0  0  0  0  0  0  0  0  0
    5.5855    0.5497    2.1599 H   0  0  0  0  0  0  0  0  0  0  0  0
    7.0785    0.6531   -1.1945 H   0  0  0  0  0  0  0  0  0  0  0  0
    7.7713    0.0728    1.7575 H   0  0  0  0  0  0  0  0  0  0  0  0
    7.5982    1.6739    1.0082 H   0  0  0  0  0  0  0  0  0  0  0  0
    8.8882    0.5734    0.4650 H   0  0  0  0  0  0  0  0  0  0  0  0
    6.4796   -2.1178    1.0657 H   0  0  0  0  0  0  0  0  0  0  0  0
    8.2475   -2.2287    0.9835 H   0  0  0  0  0  0  0  0  0  0  0  0
    6.2114   -3.9174   -0.5711 H   0  0  0  0  0  0  0  0  0  0  0  0
    7.3677   -4.4581    0.6590 H   0  0  0  0  0  0  0  0  0  0  0  0
    8.2897   -4.9716   -1.6289 H   0  0  0  0  0  0  0  0  0  0  0  0
    9.2776   -3.7341   -0.8378 H   0  0  0  0  0  0  0  0  0  0  0  0
    7.1488   -3.3392   -3.0063 H   0  0  0  0  0  0  0  0  0  0  0  0
    4.8634   -0.2361   -2.0357 H   0  0  0  0  0  0  0  0  0  0  0  0
  1  2  1  0
  1 19  1  0
  1 20  1  0
  1 21  1  0
  2  3  2  0
  2 17  1  0
  3  4  1  0
  3 22  1  0
  4  5  2  0
  4 23  1  0
  5  6  1  0
  5 16  1  0
  6  7  1  0
  6  8  1  0
  6 24  1  6
  7 25  1  0
  7 26  1  0
  7 27  1  0
  8  9  1  0
  8 14  1  0
  9 10  1  0
  9 28  1  0
  9 29  1  0
 10 11  1  0
 10 30  1  0
 10 31  1  0
 11 12  1  0
 11 32  1  0
 11 33  1  0
 12 13  1  0
 12 14  1  0
 12 34  1  6
 14 15  2  0
 16 17  2  0
 16 35  1  0
 17 18  1  0
M  END

