
     RDKit          3D

 45 47  0  0  0  0  0  0  0  0999 V2000
    1.1789   -0.1232    0.8469 C   0  0  0  0  0  0  0  0  0  0  0  0
    2.6434   -0.2109    0.4884 C   0  0  0  0  0  0  0  0  0  0  0  0
    3.3925    0.9785    0.5346 C   0  0  0  0  0  0  0  0  0  0  0  0
    4.7522    1.0238    0.2290 C   0  0  0  0  0  0  0  0  0  0  0  0
    5.4166   -0.1494   -0.1353 C   0  0  0  0  0  0  0  0  0  0  0  0
    4.7042   -1.3428   -0.1849 C   0  0  0  0  0  0  0  0  0  0  0  0
    3.3274   -1.4041    0.1153 C   0  0  0  0  0  0  0  0  0  0  0  0
    2.6742   -2.7397    0.0195 C   0  0  0  0  0  0  0  0  0  0  0  0
    3.4574   -3.8064   -0.1833 N   0  0  0  0  0  0  0  0  0  0  0  0
    2.8448   -4.9979   -0.2806 C   0  0  0  0  0  0  0  0  0  0  0  0
    3.5974   -6.1012   -0.5098 N   0  0  0  0  0  0  0  0  0  0  0  0
    3.0123   -7.4434   -0.5581 C   0  0  0  0  0  0  0  0  0  0  0  0
    3.1995   -8.2370    0.7403 C   0  0  0  0  0  0  0  0  0  0  0  0
    4.6425   -8.2719    1.2942 C   0  0  0  0  0  0  0  0  0  0  0  0
    5.1800   -7.0105    1.7705 N   0  0  0  0  0  0  0  0  0  0  0  0
    4.5056   -6.4234    2.9088 C   0  0  0  0  0  0  0  0  0  0  0  0
    5.7559   -6.0957    0.8006 C   0  0  0  0  0  0  0  0  0  0  0  0
    5.0514   -6.0218   -0.5755 C   0  0  0  0  0  0  0  0  0  0  0  0
    1.5016   -5.1600   -0.1621 N   0  0  0  0  0  0  0  0  0  0  0  0
    0.8330   -4.0476    0.0370 C   0  0  0  0  0  0  0  0  0  0  0  0
   -0.7019   -4.1394    0.1982 C   0  0  1  0  0  0  0  0  0  0  0  0
   -1.3120   -5.7969   -0.0365 Cl  0  0  0  0  0  0  0  0  0  0  0  0
   -1.1209   -3.5902    1.8629 Cl  0  0  0  0  0  0  0  0  0  0  0  0
   -1.4792   -3.0531   -1.0042 Cl  0  0  0  0  0  0  0  0  0  0  0  0
    1.3387   -2.8234    0.1344 N   0  0  0  0  0  0  0  0  0  0  0  0
    0.9329    0.9018    1.1624 H   0  0  0  0  0  0  0  0  0  0  0  0
    0.9072   -0.8183    1.6537 H   0  0  0  0  0  0  0  0  0  0  0  0
    0.5334   -0.4011    0.0018 H   0  0  0  0  0  0  0  0  0  0  0  0
    2.8810    1.9004    0.8235 H   0  0  0  0  0  0  0  0  0  0  0  0
    5.2898    1.9745    0.2769 H   0  0  0  0  0  0  0  0  0  0  0  0
    6.4816   -0.1348   -0.3792 H   0  0  0  0  0  0  0  0  0  0  0  0
    5.2036   -2.2693   -0.4661 H   0  0  0  0  0  0  0  0  0  0  0  0
    3.4931   -7.9765   -1.3971 H   0  0  0  0  0  0  0  0  0  0  0  0
    1.9454   -7.3432   -0.7889 H   0  0  0  0  0  0  0  0  0  0  0  0
    2.8610   -9.2727    0.5590 H   0  0  0  0  0  0  0  0  0  0  0  0
    2.5267   -7.8255    1.5113 H   0  0  0  0  0  0  0  0  0  0  0  0
    5.3278   -8.6795    0.5288 H   0  0  0  0  0  0  0  0  0  0  0  0
    4.6656   -8.9956    2.1296 H   0  0  0  0  0  0  0  0  0  0  0  0
    4.3200   -7.2005    3.6697 H   0  0  0  0  0  0  0  0  0  0  0  0
    3.5278   -5.9411    2.6882 H   0  0  0  0  0  0  0  0  0  0  0  0
    5.1470   -5.6596    3.3774 H   0  0  0  0  0  0  0  0  0  0  0  0
    6.8174   -6.3484    0.5956 H   0  0  0  0  0  0  0  0  0  0  0  0
    5.7573   -5.0901    1.2459 H   0  0  0  0  0  0  0  0  0  0  0  0
    5.3810   -6.8596   -1.2086 H   0  0  0  0  0  0  0  0  0  0  0  0
    5.3459   -5.0922   -1.0822 H   0  0  0  0  0  0  0  0  0  0  0  0
  1  2  1  0
  1 26  1  0
  1 27  1  0
  1 28  1  0
  2  3  2  0
  2  7  1  0
  3  4  1  0
  3 29  1  0
  4  5  2  0
  4 30  1  0
  5  6  1  0
  5 31  1  0
  6  7  2  0
  6 32  1  0
  7  8  1  0
  8  9  2  0
  8 25  1  0
  9 10  1  0
 10 11  1  0
 10 19  2  0
 11 12  1  0
 11 18  1  0
 12 13  1  0
 12 33  1  0
 12 34  1  0
 13 14  1  0
 13 35  1  0
 13 36  1  0
 14 15  1  0
 14 37  1  0
 14 38  1  0
 15 16  1  0
 15 17  1  0
 16 39  1  0
 16 40  1  0
 16 41  1  0
 17 18  1  0
 17 42  1  0
 17 43  1  0
 18 44  1  0
 18 45  1  0
 19 20  1  0
 20 21  1  0
 20 25  2  0
 21 22  1  6
 21 23  1  0
 21 24  1  0
M  END

