
     RDKit          3D

 32 33  0  0  0  0  0  0  0  0999 V2000
    4.9053   -2.0072   -4.6116 C   0  0  0  0  0  0  0  0  0  0  0  0
    5.2108   -1.7919   -3.1174 C   0  0  1  0  0  0  0  0  0  0  0  0
    6.5823   -1.1353   -2.9012 C   0  0  0  0  0  0  0  0  0  0  0  0
    4.1060   -0.9836   -2.4768 C   0  0  0  0  0  0  0  0  0  0  0  0
    4.1056    0.3835   -2.6174 N   0  0  0  0  0  0  0  0  0  0  0  0
    3.1466    1.0145   -2.0869 N   0  0  0  0  0  0  0  0  0  0  0  0
    2.0515   -0.0881   -1.2964 S   0  0  0  0  0  0  0  0  0  0  0  0
    3.0145   -1.4415   -1.7503 C   0  0  0  0  0  0  0  0  0  0  0  0
    2.6888   -2.8727   -1.4440 C   0  0  0  0  0  0  0  0  0  0  0  0
    3.0635   -3.7740   -2.1779 O   0  0  0  0  0  0  0  0  0  0  0  0
    1.9514   -3.0559   -0.3030 N   0  0  0  0  0  0  0  0  0  0  0  0
    1.5077   -4.2619    0.2759 C   0  0  0  0  0  0  0  0  0  0  0  0
    1.9153   -5.5372   -0.1411 C   0  0  0  0  0  0  0  0  0  0  0  0
    1.4788   -6.6684    0.5546 C   0  0  0  0  0  0  0  0  0  0  0  0
    0.6415   -6.5387    1.6642 C   0  0  0  0  0  0  0  0  0  0  0  0
    0.2087   -5.2706    2.0624 C   0  0  0  0  0  0  0  0  0  0  0  0
    0.6177   -4.1244    1.3726 C   0  0  0  0  0  0  0  0  0  0  0  0
    0.2307   -2.8170    1.7553 N   0  0  0  0  0  0  0  0  0  0  0  0
    5.7039   -2.6031   -5.0818 H   0  0  0  0  0  0  0  0  0  0  0  0
    4.8376   -1.0444   -5.1437 H   0  0  0  0  0  0  0  0  0  0  0  0
    3.9559   -2.5480   -4.7385 H   0  0  0  0  0  0  0  0  0  0  0  0
    5.2031   -2.7812   -2.6388 H   0  0  0  0  0  0  0  0  0  0  0  0
    6.6222   -0.1381   -3.3648 H   0  0  0  0  0  0  0  0  0  0  0  0
    7.3732   -1.7577   -3.3486 H   0  0  0  0  0  0  0  0  0  0  0  0
    6.8095   -1.0172   -1.8298 H   0  0  0  0  0  0  0  0  0  0  0  0
    1.7883   -2.2482    0.2958 H   0  0  0  0  0  0  0  0  0  0  0  0
    2.5787   -5.6236   -0.9985 H   0  0  0  0  0  0  0  0  0  0  0  0
    1.8063   -7.6572    0.2253 H   0  0  0  0  0  0  0  0  0  0  0  0
    0.3094   -7.4226    2.2138 H   0  0  0  0  0  0  0  0  0  0  0  0
   -0.4703   -5.1625    2.9132 H   0  0  0  0  0  0  0  0  0  0  0  0
   -0.2751   -2.7989    2.6371 H   0  0  0  0  0  0  0  0  0  0  0  0
   -0.3388   -2.3503    1.0477 H   0  0  0  0  0  0  0  0  0  0  0  0
  1  2  1  0
  1 19  1  0
  1 20  1  0
  1 21  1  0
  2  3  1  0
  2  4  1  0
  2 22  1  1
  3 23  1  0
  3 24  1  0
  3 25  1  0
  4  5  2  0
  4  8  1  0
  5  6  1  0
  6  7  2  0
  7  8  1  0
  8  9  2  0
  9 10  1  0
  9 11  1  0
 11 12  1  0
 11 26  1  0
 12 13  2  0
 12 17  1  0
 13 14  1  0
 13 27  1  0
 14 15  2  0
 14 28  1  0
 15 16  1  0
 15 29  1  0
 16 17  2  0
 16 30  1  0
 17 18  1  0
 18 31  1  0
 18 32  1  0
M  CHG  2   7   1  10  -1
M  END

