
     RDKit          3D

 33 34  0  0  0  0  0  0  0  0999 V2000
    0.7294   -1.9501   -0.8474 C   0  0  0  0  0  0  0  0  0  0  0  0
    2.1641   -2.3769   -1.0686 C   0  0  0  0  0  0  0  0  0  0  0  0
    2.9967   -1.5554   -0.2209 O   0  0  0  0  0  0  0  0  0  0  0  0
    4.3145   -1.6223   -0.3157 C   0  0  0  0  0  0  0  0  0  0  0  0
    5.1342   -0.5563   -0.1387 C   0  0  0  0  0  0  0  0  0  0  0  0
    4.5557    0.7337    0.0479 C   0  0  0  0  0  0  0  0  0  0  0  0
    4.1193    1.8011    0.1936 N   0  0  0  0  0  0  0  0  0  0  0  0
    6.6517   -0.6941   -0.1093 C   0  0  1  0  0  0  0  0  0  0  0  0
    7.2387   -0.3214    1.2585 C   0  0  0  0  0  0  0  0  0  0  0  0
    6.8404   -1.0593    2.3871 C   0  0  0  0  0  0  0  0  0  0  0  0
    7.3216   -0.7930    3.6653 C   0  0  0  0  0  0  0  0  0  0  0  0
    8.2348    0.2476    3.8209 C   0  0  0  0  0  0  0  0  0  0  0  0
    8.7145    0.5253    5.0388 F   0  0  0  0  0  0  0  0  0  0  0  0
    8.6635    1.0089    2.7389 C   0  0  0  0  0  0  0  0  0  0  0  0
    8.1614    0.7186    1.4643 C   0  0  0  0  0  0  0  0  0  0  0  0
    8.8866    1.9480   -0.1272 I   0  0  0  0  0  0  0  0  0  0  0  0
    7.0342   -2.1041   -0.5392 C   0  0  0  0  0  0  0  0  0  0  0  0
    8.4010   -2.4411   -0.7373 C   0  0  0  0  0  0  0  0  0  0  0  0
    9.5058   -2.7667   -0.9098 N   0  0  0  0  0  0  0  0  0  0  0  0
    6.1104   -3.0894   -0.7476 C   0  0  0  0  0  0  0  0  0  0  0  0
    6.3515   -4.3567   -1.1733 N   0  0  0  0  0  0  0  0  0  0  0  0
    4.7722   -2.8819   -0.5744 O   0  0  0  0  0  0  0  0  0  0  0  0
    0.0591   -2.5602   -1.4722 H   0  0  0  0  0  0  0  0  0  0  0  0
    0.5898   -0.8916   -1.1122 H   0  0  0  0  0  0  0  0  0  0  0  0
    0.4413   -2.0846    0.2062 H   0  0  0  0  0  0  0  0  0  0  0  0
    2.4735   -2.2329   -2.1182 H   0  0  0  0  0  0  0  0  0  0  0  0
    2.3159   -3.4360   -0.8077 H   0  0  0  0  0  0  0  0  0  0  0  0
    7.0659    0.0168   -0.8411 H   0  0  0  0  0  0  0  0  0  0  0  0
    6.1231   -1.8731    2.2515 H   0  0  0  0  0  0  0  0  0  0  0  0
    7.0039   -1.3710    4.5346 H   0  0  0  0  0  0  0  0  0  0  0  0
    9.3795    1.8137    2.9060 H   0  0  0  0  0  0  0  0  0  0  0  0
    7.3123   -4.6778   -1.1975 H   0  0  0  0  0  0  0  0  0  0  0  0
    5.6274   -5.0505   -1.0365 H   0  0  0  0  0  0  0  0  0  0  0  0
  1  2  1  0
  1 23  1  0
  1 24  1  0
  1 25  1  0
  2  3  1  0
  2 26  1  0
  2 27  1  0
  3  4  1  0
  4  5  2  0
  4 22  1  0
  5  6  1  0
  5  8  1  0
  6  7  3  0
  8  9  1  0
  8 17  1  0
  8 28  1  6
  9 10  2  0
  9 15  1  0
 10 11  1  0
 10 29  1  0
 11 12  2  0
 11 30  1  0
 12 13  1  0
 12 14  1  0
 14 15  2  0
 14 31  1  0
 15 16  1  0
 17 18  1  0
 17 20  2  0
 18 19  3  0
 20 21  1  0
 20 22  1  0
 21 32  1  0
 21 33  1  0
M  END

