
     RDKit          3D

 37 38  0  0  0  0  0  0  0  0999 V2000
    1.4966   -0.0454   -1.5331 C   0  0  0  0  0  0  0  0  0  0  0  0
    2.7084    0.1244   -0.6666 C   0  0  0  0  0  0  0  0  0  0  0  0
    2.9982    1.2130    0.1184 C   0  0  0  0  0  0  0  0  0  0  0  0
    4.4950    0.9709    0.9571 S   0  0  0  0  0  0  0  0  0  0  0  0
    4.6401   -0.5884    0.1780 C   0  0  0  0  0  0  0  0  0  0  0  0
    5.8293   -1.4891    0.3827 C   0  0  0  0  0  0  0  0  0  0  0  0
    5.4061   -2.8784    0.3814 N   0  0  0  0  0  0  0  0  0  0  0  0
    6.4558   -3.8642    0.1469 C   0  0  1  0  0  0  0  0  0  0  0  0
    7.4924   -3.8547    1.2837 C   0  0  0  0  0  0  0  0  0  0  0  0
    5.8335   -5.2460    0.0043 C   0  0  0  0  0  0  0  0  0  0  0  0
    4.7260   -5.6351    0.7735 C   0  0  0  0  0  0  0  0  0  0  0  0
    4.1957   -6.9196    0.6617 C   0  0  0  0  0  0  0  0  0  0  0  0
    4.7325   -7.8925   -0.2000 C   0  0  0  0  0  0  0  0  0  0  0  0
    4.0952   -9.2578   -0.2526 C   0  0  0  0  0  0  0  0  0  0  0  0
    5.8428   -7.4747   -0.9648 C   0  0  0  0  0  0  0  0  0  0  0  0
    6.5093   -8.3816   -1.9256 N   0  0  0  0  0  0  0  0  0  0  0  0
    6.2779   -9.5791   -1.8448 O   0  0  0  0  0  0  0  0  0  0  0  0
    7.2654   -7.8841   -2.7458 O   0  0  0  0  0  0  0  0  0  0  0  0
    6.3758   -6.1844   -0.8740 C   0  0  0  0  0  0  0  0  0  0  0  0
    3.6540   -0.8774   -0.6175 N   0  0  0  0  0  0  0  0  0  0  0  0
    0.8341    0.8296   -1.4752 H   0  0  0  0  0  0  0  0  0  0  0  0
    0.9255   -0.9378   -1.2290 H   0  0  0  0  0  0  0  0  0  0  0  0
    1.7899   -0.1940   -2.5851 H   0  0  0  0  0  0  0  0  0  0  0  0
    2.4171    2.1241    0.2486 H   0  0  0  0  0  0  0  0  0  0  0  0
    6.3276   -1.2256    1.3303 H   0  0  0  0  0  0  0  0  0  0  0  0
    6.5678   -1.2662   -0.4246 H   0  0  0  0  0  0  0  0  0  0  0  0
    4.6664   -2.9769   -0.3151 H   0  0  0  0  0  0  0  0  0  0  0  0
    7.0082   -3.6528   -0.7977 H   0  0  0  0  0  0  0  0  0  0  0  0
    7.0018   -4.0454    2.2512 H   0  0  0  0  0  0  0  0  0  0  0  0
    8.0152   -2.8872    1.3443 H   0  0  0  0  0  0  0  0  0  0  0  0
    8.2527   -4.6324    1.1179 H   0  0  0  0  0  0  0  0  0  0  0  0
    4.2747   -4.9097    1.4534 H   0  0  0  0  0  0  0  0  0  0  0  0
    3.3255   -7.1898    1.2656 H   0  0  0  0  0  0  0  0  0  0  0  0
    3.1701   -9.2599    0.3420 H   0  0  0  0  0  0  0  0  0  0  0  0
    4.7722  -10.0306    0.1402 H   0  0  0  0  0  0  0  0  0  0  0  0
    3.8581   -9.5630   -1.2818 H   0  0  0  0  0  0  0  0  0  0  0  0
    7.2221   -5.9353   -1.5146 H   0  0  0  0  0  0  0  0  0  0  0  0
  1  2  1  0
  1 21  1  0
  1 22  1  0
  1 23  1  0
  2  3  2  0
  2 20  1  0
  3  4  1  0
  3 24  1  0
  4  5  1  0
  5  6  1  0
  5 20  2  0
  6  7  1  0
  6 25  1  0
  6 26  1  0
  7  8  1  0
  7 27  1  0
  8  9  1  0
  8 10  1  0
  8 28  1  6
  9 29  1  0
  9 30  1  0
  9 31  1  0
 10 11  2  0
 10 19  1  0
 11 12  1  0
 11 32  1  0
 12 13  2  0
 12 33  1  0
 13 14  1  0
 13 15  1  0
 14 34  1  0
 14 35  1  0
 14 36  1  0
 15 16  1  0
 15 19  2  0
 16 17  2  0
 16 18  1  0
 19 37  1  0
M  CHG  2  16   1  18  -1
M  END

