
     RDKit          3D

 51 59  0  0  0  0  0  0  0  0999 V2000
    1.8192   -1.3969   -2.5677 C   0  0  0  0  0  0  0  0  0  0  0  0
    0.9528   -0.3274   -2.6782 C   0  0  0  0  0  0  0  0  0  0  0  0
    1.1018    0.6072   -1.5662 C   0  0  0  0  0  0  0  0  0  0  0  0
    1.5555    1.7882   -1.3859 N   0  0  0  0  0  0  0  0  0  0  0  0
    1.6130    2.2175   -0.0856 C   0  0  0  0  0  0  0  0  0  0  0  0
    1.5224    1.4012    1.0526 C   0  0  0  0  0  0  0  0  0  0  0  0
    1.8399    2.2034    2.2238 C   0  0  0  0  0  0  0  0  0  0  0  0
    1.9481    2.1715    3.6304 C   0  0  0  0  0  0  0  0  0  0  0  0
    2.2609    3.3682    4.3060 C   0  0  0  0  0  0  0  0  0  0  0  0
    2.4671    4.6198    3.6701 C   0  0  0  0  0  0  0  0  0  0  0  0
    2.3624    4.6851    2.2735 C   0  0  0  0  0  0  0  0  0  0  0  0
    2.4287    5.6173    1.1314 C   0  0  0  0  0  0  0  0  0  0  0  0
    2.6815    6.9843    1.0340 C   0  0  0  0  0  0  0  0  0  0  0  0
    2.6656    7.5818   -0.2400 C   0  0  0  0  0  0  0  0  0  0  0  0
    2.3954    6.7756   -1.3777 C   0  0  0  0  0  0  0  0  0  0  0  0
    2.1376    5.4068   -1.3407 C   0  0  0  0  0  0  0  0  0  0  0  0
    2.1575    4.8453   -0.0686 C   0  0  0  0  0  0  0  0  0  0  0  0
    1.9507    3.5145    0.3219 N   0  0  0  0  0  0  0  0  0  0  0  0
    2.0753    3.4650    1.6750 C   0  0  0  0  0  0  0  0  0  0  0  0
    2.4201    7.5169   -2.5229 O   0  0  0  0  0  0  0  0  0  0  0  0
    2.7034    8.8015   -2.1515 C   0  0  0  0  0  0  0  0  0  0  0  0
    2.8149    9.8701   -3.0588 C   0  0  0  0  0  0  0  0  0  0  0  0
    3.1052   11.1114   -2.5345 C   0  0  0  0  0  0  0  0  0  0  0  0
    3.2868   11.3134   -1.1302 C   0  0  0  0  0  0  0  0  0  0  0  0
    3.5856   12.6029   -0.6112 C   0  0  0  0  0  0  0  0  0  0  0  0
    3.7625   12.8067    0.7424 C   0  0  0  0  0  0  0  0  0  0  0  0
    3.6468   11.7192    1.6394 C   0  0  0  0  0  0  0  0  0  0  0  0
    3.3573   10.4517    1.1709 C   0  0  0  0  0  0  0  0  0  0  0  0
    3.1690   10.2072   -0.2153 C   0  0  0  0  0  0  0  0  0  0  0  0
    2.8672    8.9223   -0.7693 C   0  0  0  0  0  0  0  0  0  0  0  0
    1.2020    0.0481    0.9087 N   0  0  0  0  0  0  0  0  0  0  0  0
    0.5407   -0.2850   -0.3471 C   0  0  2  0  0  0  0  0  0  0  0  0
    0.6185   -1.7919   -0.5942 C   0  0  0  0  0  0  0  0  0  0  0  0
    1.2550   -2.3844   -1.6501 C   0  0  0  0  0  0  0  0  0  0  0  0
    2.9076   -1.2448   -2.5455 H   0  0  0  0  0  0  0  0  0  0  0  0
   -0.1038   -0.6316   -2.7614 H   0  0  0  0  0  0  0  0  0  0  0  0
    1.7854    1.2553    4.2029 H   0  0  0  0  0  0  0  0  0  0  0  0
    2.3402    3.3329    5.3957 H   0  0  0  0  0  0  0  0  0  0  0  0
    2.6960    5.4976    4.2790 H   0  0  0  0  0  0  0  0  0  0  0  0
    2.8851    7.5647    1.9341 H   0  0  0  0  0  0  0  0  0  0  0  0
    1.9392    4.8219   -2.2383 H   0  0  0  0  0  0  0  0  0  0  0  0
    2.6745    9.7054   -4.1283 H   0  0  0  0  0  0  0  0  0  0  0  0
    3.2019   11.9736   -3.1991 H   0  0  0  0  0  0  0  0  0  0  0  0
    3.6738   13.4395   -1.3100 H   0  0  0  0  0  0  0  0  0  0  0  0
    3.9916   13.8051    1.1232 H   0  0  0  0  0  0  0  0  0  0  0  0
    3.7874   11.8828    2.7109 H   0  0  0  0  0  0  0  0  0  0  0  0
    3.2721    9.6260    1.8773 H   0  0  0  0  0  0  0  0  0  0  0  0
    1.9458   -0.5957    1.1788 H   0  0  0  0  0  0  0  0  0  0  0  0
   -0.5266    0.0126   -0.2709 H   0  0  0  0  0  0  0  0  0  0  0  0
    0.2567   -2.4062    0.2397 H   0  0  0  0  0  0  0  0  0  0  0  0
    1.4547   -3.4629   -1.6464 H   0  0  0  0  0  0  0  0  0  0  0  0
  1  2  2  0
  1 34  1  0
  1 35  1  0
  2  3  1  0
  2 36  1  0
  3  4  2  0
  3 32  1  0
  4  5  1  0
  5  6  2  0
  5 18  1  0
  6  7  1  0
  6 31  1  0
  7  8  2  0
  7 19  1  0
  8  9  1  0
  8 37  1  0
  9 10  2  0
  9 38  1  0
 10 11  1  0
 10 39  1  0
 11 12  1  0
 11 19  2  0
 12 13  1  0
 12 17  2  0
 13 14  2  0
 13 40  1  0
 14 15  1  0
 14 30  1  0
 15 16  2  0
 15 20  1  0
 16 17  1  0
 16 41  1  0
 17 18  1  0
 18 19  1  0
 20 21  1  0
 21 22  1  0
 21 30  2  0
 22 23  2  0
 22 42  1  0
 23 24  1  0
 23 43  1  0
 24 25  1  0
 24 29  2  0
 25 26  2  0
 25 44  1  0
 26 27  1  0
 26 45  1  0
 27 28  2  0
 27 46  1  0
 28 29  1  0
 28 47  1  0
 29 30  1  0
 31 32  1  0
 31 48  1  0
 32 33  1  0
 32 49  1  1
 33 34  2  0
 33 50  1  0
 34 51  1  0
M  END

