
     RDKit          3D

 39 41  0  0  0  0  0  0  0  0999 V2000
    7.3684    1.4009    1.9662 C   0  0  0  0  0  0  0  0  0  0  0  0
    6.3911    0.9752    2.9451 N   0  0  0  0  0  0  0  0  0  0  0  0
    6.6404    1.4232    4.3117 C   0  0  0  0  0  0  0  0  0  0  0  0
    6.4713    2.9158    4.5813 C   0  0  0  0  0  0  0  0  0  0  0  0
    5.2365    3.4405    4.9971 C   0  0  0  0  0  0  0  0  0  0  0  0
    5.0670    4.8129    5.2026 C   0  0  0  0  0  0  0  0  0  0  0  0
    6.1360    5.6897    4.9964 C   0  0  0  0  0  0  0  0  0  0  0  0
    7.3741    5.1828    4.5899 C   0  0  0  0  0  0  0  0  0  0  0  0
    7.5373    3.8096    4.3863 C   0  0  0  0  0  0  0  0  0  0  0  0
    5.0022    1.0480    2.5369 C   0  0  0  0  0  0  0  0  0  0  0  0
    4.6594    0.3064    1.2352 C   0  0  1  0  0  0  0  0  0  0  0  0
    5.2024    0.7942    0.4051 H   0  0  0  0  0  0  0  0  0  0  0  0
    5.0318   -1.1907    1.1469 C   0  0  0  0  0  0  0  0  0  0  0  0
    6.1044   -1.6891    1.3818 O   0  0  0  0  0  0  0  0  0  0  0  0
    3.7743   -1.9050    0.6511 C   0  0  1  0  0  0  0  0  0  0  0  0
    3.9859   -2.8936    0.2242 H   0  0  0  0  0  0  0  0  0  0  0  0
    2.7775   -1.9074    1.8472 C   0  0  0  0  0  0  0  0  0  0  0  0
    2.3145   -0.4199    1.9345 C   0  0  0  0  0  0  0  0  0  0  0  0
    3.1566    0.2752    0.8381 C   0  0  2  0  0  0  0  0  0  0  0  0
    2.7672    1.2577    0.5334 H   0  0  0  0  0  0  0  0  0  0  0  0
    3.1641   -0.8153   -0.2576 C   0  0  0  0  0  0  0  0  0  0  0  0
    8.3790    1.2917    2.3904 H   0  0  0  0  0  0  0  0  0  0  0  0
    7.2579    2.4573    1.6324 H   0  0  0  0  0  0  0  0  0  0  0  0
    7.3274    0.7481    1.0816 H   0  0  0  0  0  0  0  0  0  0  0  0
    7.6685    1.1243    4.5766 H   0  0  0  0  0  0  0  0  0  0  0  0
    5.9632    0.8613    4.9778 H   0  0  0  0  0  0  0  0  0  0  0  0
    4.3973    2.7615    5.1757 H   0  0  0  0  0  0  0  0  0  0  0  0
    4.0981    5.1985    5.5314 H   0  0  0  0  0  0  0  0  0  0  0  0
    6.0072    6.7629    5.1594 H   0  0  0  0  0  0  0  0  0  0  0  0
    8.2191    5.8596    4.4369 H   0  0  0  0  0  0  0  0  0  0  0  0
    8.5141    3.4228    4.0816 H   0  0  0  0  0  0  0  0  0  0  0  0
    4.6445    2.0978    2.4098 H   0  0  0  0  0  0  0  0  0  0  0  0
    4.4041    0.6254    3.3613 H   0  0  0  0  0  0  0  0  0  0  0  0
    3.2486   -2.2692    2.7740 H   0  0  0  0  0  0  0  0  0  0  0  0
    1.9355   -2.5824    1.6291 H   0  0  0  0  0  0  0  0  0  0  0  0
    2.4560    0.0150    2.9341 H   0  0  0  0  0  0  0  0  0  0  0  0
    1.2433   -0.3244    1.6985 H   0  0  0  0  0  0  0  0  0  0  0  0
    3.7955   -0.5623   -1.1245 H   0  0  0  0  0  0  0  0  0  0  0  0
    2.1561   -1.0730   -0.6193 H   0  0  0  0  0  0  0  0  0  0  0  0
  1  2  1  0
  1 22  1  0
  1 23  1  0
  1 24  1  0
  2  3  1  0
  2 10  1  0
  3  4  1  0
  3 25  1  0
  3 26  1  0
  4  5  2  0
  4  9  1  0
  5  6  1  0
  5 27  1  0
  6  7  2  0
  6 28  1  0
  7  8  1  0
  7 29  1  0
  8  9  2  0
  8 30  1  0
  9 31  1  0
 10 11  1  0
 10 32  1  0
 10 33  1  0
 11 12  1  6
 11 13  1  0
 11 19  1  0
 13 14  2  0
 13 15  1  0
 15 16  1  6
 15 17  1  0
 15 21  1  0
 17 18  1  0
 17 34  1  0
 17 35  1  0
 18 19  1  0
 18 36  1  0
 18 37  1  0
 19 20  1  6
 19 21  1  0
 21 38  1  0
 21 39  1  0
M  END

