
     RDKit          3D

 44 46  0  0  0  0  0  0  0  0999 V2000
    1.1883   -0.2229   -0.3258 C   0  0  0  0  0  0  0  0  0  0  0  0
    2.6697   -0.2676   -0.0001 C   0  0  0  0  0  0  0  0  0  0  0  0
    3.1648    1.0571   -0.0286 O   0  0  0  0  0  0  0  0  0  0  0  0
    4.4821    1.3018    0.2353 C   0  0  0  0  0  0  0  0  0  0  0  0
    5.4211    0.2871    0.5398 C   0  0  0  0  0  0  0  0  0  0  0  0
    6.7542    0.6065    0.7987 C   0  0  0  0  0  0  0  0  0  0  0  0
    7.1415    1.9478    0.7504 C   0  0  0  0  0  0  0  0  0  0  0  0
    8.3727    2.5380    0.9546 N   0  0  0  0  0  0  0  0  0  0  0  0
    9.2276    2.0501    1.1817 H   0  0  0  0  0  0  0  0  0  0  0  0
    8.2487    3.9012    0.7873 C   0  0  0  0  0  0  0  0  0  0  0  0
    6.9484    4.2380    0.4788 C   0  0  0  0  0  0  0  0  0  0  0  0
    6.4487    5.6372    0.1842 C   0  0  1  0  0  0  0  0  0  0  0  0
    5.9685    5.8085   -1.1970 N   0  0  0  0  0  0  0  0  0  0  0  0
    5.3502    6.1276    1.1717 C   0  0  1  0  0  0  0  0  0  0  0  0
    5.7448    5.9754    2.6554 C   0  0  0  0  0  0  0  0  0  0  0  0
    6.7943    7.0007    3.1101 C   0  0  0  0  0  0  0  0  0  0  0  0
    6.3422    8.4378    2.8186 C   0  0  0  0  0  0  0  0  0  0  0  0
    5.9618    8.6185    1.3432 C   0  0  0  0  0  0  0  0  0  0  0  0
    4.9198    7.5848    0.8916 C   0  0  0  0  0  0  0  0  0  0  0  0
    6.2118    2.9883    0.4484 C   0  0  0  0  0  0  0  0  0  0  0  0
    4.8733    2.6429    0.1891 C   0  0  0  0  0  0  0  0  0  0  0  0
    0.7626   -1.2384   -0.3138 H   0  0  0  0  0  0  0  0  0  0  0  0
    1.0233    0.2133   -1.3230 H   0  0  0  0  0  0  0  0  0  0  0  0
    0.6477    0.3913    0.4106 H   0  0  0  0  0  0  0  0  0  0  0  0
    3.2101   -0.8957   -0.7351 H   0  0  0  0  0  0  0  0  0  0  0  0
    2.8344   -0.7180    0.9981 H   0  0  0  0  0  0  0  0  0  0  0  0
    5.1146   -0.7579    0.5759 H   0  0  0  0  0  0  0  0  0  0  0  0
    7.4722   -0.1839    1.0323 H   0  0  0  0  0  0  0  0  0  0  0  0
    9.1130    4.5544    0.9027 H   0  0  0  0  0  0  0  0  0  0  0  0
    7.3197    6.3066    0.2884 H   0  0  0  0  0  0  0  0  0  0  0  0
    5.1870    5.1737   -1.3704 H   0  0  0  0  0  0  0  0  0  0  0  0
    6.6999    5.5210   -1.8477 H   0  0  0  0  0  0  0  0  0  0  0  0
    4.4695    5.4832    0.9978 H   0  0  0  0  0  0  0  0  0  0  0  0
    6.0966    4.9513    2.8560 H   0  0  0  0  0  0  0  0  0  0  0  0
    4.8337    6.1143    3.2653 H   0  0  0  0  0  0  0  0  0  0  0  0
    7.7548    6.8074    2.5984 H   0  0  0  0  0  0  0  0  0  0  0  0
    6.9963    6.8745    4.1876 H   0  0  0  0  0  0  0  0  0  0  0  0
    7.1290    9.1562    3.1068 H   0  0  0  0  0  0  0  0  0  0  0  0
    5.4637    8.6719    3.4490 H   0  0  0  0  0  0  0  0  0  0  0  0
    6.8685    8.5332    0.7171 H   0  0  0  0  0  0  0  0  0  0  0  0
    5.5743    9.6371    1.1708 H   0  0  0  0  0  0  0  0  0  0  0  0
    4.7079    7.7020   -0.1806 H   0  0  0  0  0  0  0  0  0  0  0  0
    3.9759    7.7745    1.4349 H   0  0  0  0  0  0  0  0  0  0  0  0
    4.1107    3.3880   -0.0423 H   0  0  0  0  0  0  0  0  0  0  0  0
  1  2  1  0
  1 22  1  0
  1 23  1  0
  1 24  1  0
  2  3  1  0
  2 25  1  0
  2 26  1  0
  3  4  1  0
  4  5  2  0
  4 21  1  0
  5  6  1  0
  5 27  1  0
  6  7  2  0
  6 28  1  0
  7  8  1  0
  7 20  1  0
  8  9  1  0
  8 10  1  0
 10 11  2  0
 10 29  1  0
 11 12  1  0
 11 20  1  0
 12 13  1  0
 12 14  1  0
 12 30  1  6
 13 31  1  0
 13 32  1  0
 14 15  1  0
 14 19  1  0
 14 33  1  1
 15 16  1  0
 15 34  1  0
 15 35  1  0
 16 17  1  0
 16 36  1  0
 16 37  1  0
 17 18  1  0
 17 38  1  0
 17 39  1  0
 18 19  1  0
 18 40  1  0
 18 41  1  0
 19 42  1  0
 19 43  1  0
 20 21  2  0
 21 44  1  0
M  END

