
     RDKit          3D

 54 58  0  0  0  0  0  0  0  0999 V2000
    2.7598    1.2138    0.7926 O   0  0  0  0  0  0  0  0  0  0  0  0
    3.8696    0.8557    0.4091 C   0  0  0  0  0  0  0  0  0  0  0  0
    4.6304   -0.0687    1.1016 N   0  0  0  0  0  0  0  0  0  0  0  0
    4.2152   -0.5274    2.4220 C   0  0  0  0  0  0  0  0  0  0  0  0
    4.7741    0.2886    3.5733 C   0  0  0  0  0  0  0  0  0  0  0  0
    4.3193    1.5972    3.8116 C   0  0  0  0  0  0  0  0  0  0  0  0
    4.8471    2.3569    4.8540 C   0  0  0  0  0  0  0  0  0  0  0  0
    5.8459    1.8435    5.7066 C   0  0  0  0  0  0  0  0  0  0  0  0
    6.4036    2.6554    6.8205 C   0  0  0  0  0  0  0  0  0  0  0  0
    5.5844    3.5336    7.5583 C   0  0  0  0  0  0  0  0  0  0  0  0
    6.0804    4.3144    8.6082 C   0  0  0  0  0  0  0  0  0  0  0  0
    7.4341    4.2013    8.9165 C   0  0  0  0  0  0  0  0  0  0  0  0
    8.2769    3.3354    8.2077 C   0  0  0  0  0  0  0  0  0  0  0  0
    7.7704    2.5642    7.1697 C   0  0  0  0  0  0  0  0  0  0  0  0
    9.6514    3.4232    8.8338 C   0  0  0  0  0  0  0  0  0  0  0  0
    9.4882    4.6577    9.7522 C   0  0  0  0  0  0  0  0  0  0  0  0
    8.0718    4.8842    9.9020 O   0  0  0  0  0  0  0  0  0  0  0  0
    6.2920    0.5316    5.4645 C   0  0  0  0  0  0  0  0  0  0  0  0
    5.7665   -0.2280    4.4165 C   0  0  0  0  0  0  0  0  0  0  0  0
    4.4410    1.3494   -0.7455 N   0  0  0  0  0  0  0  0  0  0  0  0
    3.6387    2.1447   -1.6865 C   0  0  1  0  0  0  0  0  0  0  0  0
    4.7401    2.8539   -2.5057 C   0  0  0  0  0  0  0  0  0  0  0  0
    5.9518    1.8818   -2.4498 C   0  0  0  0  0  0  0  0  0  0  0  0
    5.4525    0.6954   -1.5909 C   0  0  2  0  0  0  0  0  0  0  0  0
    4.7629   -0.4205   -2.4033 C   0  0  0  0  0  0  0  0  0  0  0  0
    3.5867    0.0977   -3.2503 C   0  0  2  0  0  0  0  0  0  0  0  0
    4.1373    0.5865   -4.4733 O   0  0  0  0  0  0  0  0  0  0  0  0
    2.7654    1.1764   -2.5106 C   0  0  0  0  0  0  0  0  0  0  0  0
    5.6244   -0.0953    0.9074 H   0  0  0  0  0  0  0  0  0  0  0  0
    4.5144   -1.5820    2.5366 H   0  0  0  0  0  0  0  0  0  0  0  0
    3.1171   -0.4855    2.4279 H   0  0  0  0  0  0  0  0  0  0  0  0
    3.5473    2.0159    3.1608 H   0  0  0  0  0  0  0  0  0  0  0  0
    4.4906    3.3794    5.0000 H   0  0  0  0  0  0  0  0  0  0  0  0
    4.5208    3.5958    7.3174 H   0  0  0  0  0  0  0  0  0  0  0  0
    5.4340    4.9873    9.1744 H   0  0  0  0  0  0  0  0  0  0  0  0
    8.4320    1.9033    6.6042 H   0  0  0  0  0  0  0  0  0  0  0  0
   10.4623    3.5582    8.1015 H   0  0  0  0  0  0  0  0  0  0  0  0
    9.8804    2.5105    9.4119 H   0  0  0  0  0  0  0  0  0  0  0  0
    9.9333    5.5596    9.2957 H   0  0  0  0  0  0  0  0  0  0  0  0
    9.9197    4.5270   10.7548 H   0  0  0  0  0  0  0  0  0  0  0  0
    7.0428    0.0868    6.1221 H   0  0  0  0  0  0  0  0  0  0  0  0
    6.1271   -1.2502    4.2630 H   0  0  0  0  0  0  0  0  0  0  0  0
    2.9969    2.8369   -1.1271 H   0  0  0  0  0  0  0  0  0  0  0  0
    4.9921    3.8144   -2.0323 H   0  0  0  0  0  0  0  0  0  0  0  0
    4.4176    3.0578   -3.5351 H   0  0  0  0  0  0  0  0  0  0  0  0
    6.8099    2.3604   -1.9546 H   0  0  0  0  0  0  0  0  0  0  0  0
    6.2694    1.5496   -3.4461 H   0  0  0  0  0  0  0  0  0  0  0  0
    6.2696    0.2672   -0.9902 H   0  0  0  0  0  0  0  0  0  0  0  0
    4.3929   -1.1768   -1.6918 H   0  0  0  0  0  0  0  0  0  0  0  0
    5.4765   -0.9224   -3.0763 H   0  0  0  0  0  0  0  0  0  0  0  0
    2.9193   -0.7588   -3.4718 H   0  0  0  0  0  0  0  0  0  0  0  0
    3.4114    0.9175   -5.0176 H   0  0  0  0  0  0  0  0  0  0  0  0
    2.0635    0.6929   -1.8117 H   0  0  0  0  0  0  0  0  0  0  0  0
    2.1483    1.7295   -3.2418 H   0  0  0  0  0  0  0  0  0  0  0  0
  1  2  2  0
  2  3  1  0
  2 20  1  0
  3  4  1  0
  3 29  1  0
  4  5  1  0
  4 30  1  0
  4 31  1  0
  5  6  2  0
  5 19  1  0
  6  7  1  0
  6 32  1  0
  7  8  2  0
  7 33  1  0
  8  9  1  0
  8 18  1  0
  9 10  2  0
  9 14  1  0
 10 11  1  0
 10 34  1  0
 11 12  2  0
 11 35  1  0
 12 13  1  0
 12 17  1  0
 13 14  2  0
 13 15  1  0
 14 36  1  0
 15 16  1  0
 15 37  1  0
 15 38  1  0
 16 17  1  0
 16 39  1  0
 16 40  1  0
 18 19  2  0
 18 41  1  0
 19 42  1  0
 20 21  1  0
 20 24  1  0
 21 22  1  0
 21 28  1  0
 21 43  1  1
 22 23  1  0
 22 44  1  0
 22 45  1  0
 23 24  1  0
 23 46  1  0
 23 47  1  0
 24 25  1  0
 24 48  1  1
 25 26  1  0
 25 49  1  0
 25 50  1  0
 26 27  1  0
 26 28  1  0
 26 51  1  6
 27 52  1  0
 28 53  1  0
 28 54  1  0
M  END

