
     RDKit          3D

 47 47  0  0  0  0  0  0  0  0999 V2000
    0.6683    3.0078    3.2499 C   0  0  0  0  0  0  0  0  0  0  0  0
    2.1765    3.2421    3.1540 C   0  0  0  0  0  0  0  0  0  0  0  0
    2.9432    2.0655    2.5405 C   0  0  0  0  0  0  0  0  0  0  0  0
    4.4530    2.3060    2.4452 C   0  0  0  0  0  0  0  0  0  0  0  0
    5.2779    1.1045    1.9482 C   0  0  1  0  0  0  0  0  0  0  0  0
    4.9298    0.6317    0.5185 C   0  0  0  0  0  0  0  0  0  0  0  0
    5.1107    1.6599   -0.6036 C   0  0  0  0  0  0  0  0  0  0  0  0
    6.7839    1.3756    2.0717 C   0  0  0  0  0  0  0  0  0  0  0  0
    7.1841    1.6367    3.4243 O   0  0  0  0  0  0  0  0  0  0  0  0
    7.5019    0.5731    4.2042 C   0  0  0  0  0  0  0  0  0  0  0  0
    7.4568   -0.5679    3.7877 O   0  0  0  0  0  0  0  0  0  0  0  0
    7.8853    1.0541    5.5456 C   0  0  0  0  0  0  0  0  0  0  0  0
    8.2716    0.3968    6.6715 C   0  0  0  0  0  0  0  0  0  0  0  0
    8.4751   -1.0009    7.0522 C   0  0  0  0  0  0  0  0  0  0  0  0
    8.2996   -2.1087    6.1979 C   0  0  0  0  0  0  0  0  0  0  0  0
    8.5159   -3.4142    6.6381 C   0  0  0  0  0  0  0  0  0  0  0  0
    8.9168   -3.6449    7.9547 C   0  0  0  0  0  0  0  0  0  0  0  0
    9.1027   -2.5750    8.8345 C   0  0  0  0  0  0  0  0  0  0  0  0
    8.8868   -1.2612    8.3979 C   0  0  0  0  0  0  0  0  0  0  0  0
    9.0511   -0.1837    9.2071 O   0  0  0  0  0  0  0  0  0  0  0  0
    9.4587   -0.3583   10.5456 C   0  0  0  0  0  0  0  0  0  0  0  0
    0.1507    3.8723    3.6956 H   0  0  0  0  0  0  0  0  0  0  0  0
    0.4384    2.1260    3.8714 H   0  0  0  0  0  0  0  0  0  0  0  0
    0.2253    2.8320    2.2550 H   0  0  0  0  0  0  0  0  0  0  0  0
    2.5826    3.4533    4.1600 H   0  0  0  0  0  0  0  0  0  0  0  0
    2.3712    4.1521    2.5572 H   0  0  0  0  0  0  0  0  0  0  0  0
    2.5263    1.8523    1.5397 H   0  0  0  0  0  0  0  0  0  0  0  0
    2.7563    1.1565    3.1428 H   0  0  0  0  0  0  0  0  0  0  0  0
    4.8320    2.5868    3.4422 H   0  0  0  0  0  0  0  0  0  0  0  0
    4.6454    3.1824    1.7989 H   0  0  0  0  0  0  0  0  0  0  0  0
    5.0666    0.2498    2.6151 H   0  0  0  0  0  0  0  0  0  0  0  0
    3.8861    0.2758    0.5124 H   0  0  0  0  0  0  0  0  0  0  0  0
    5.5419   -0.2598    0.2941 H   0  0  0  0  0  0  0  0  0  0  0  0
    4.4716    2.5460   -0.4606 H   0  0  0  0  0  0  0  0  0  0  0  0
    4.8431    1.2201   -1.5777 H   0  0  0  0  0  0  0  0  0  0  0  0
    6.1516    2.0133   -0.6843 H   0  0  0  0  0  0  0  0  0  0  0  0
    7.0730    2.2808    1.5174 H   0  0  0  0  0  0  0  0  0  0  0  0
    7.3549    0.5169    1.6887 H   0  0  0  0  0  0  0  0  0  0  0  0
    7.8406    2.1434    5.6193 H   0  0  0  0  0  0  0  0  0  0  0  0
    8.4832    1.0733    7.5030 H   0  0  0  0  0  0  0  0  0  0  0  0
    7.9874   -1.9184    5.1722 H   0  0  0  0  0  0  0  0  0  0  0  0
    8.3710   -4.2498    5.9498 H   0  0  0  0  0  0  0  0  0  0  0  0
    9.0893   -4.6644    8.3101 H   0  0  0  0  0  0  0  0  0  0  0  0
    9.4160   -2.7734    9.8590 H   0  0  0  0  0  0  0  0  0  0  0  0
    9.5209    0.6462   10.9850 H   0  0  0  0  0  0  0  0  0  0  0  0
   10.4498   -0.8411   10.6133 H   0  0  0  0  0  0  0  0  0  0  0  0
    8.7305   -0.9565   11.1218 H   0  0  0  0  0  0  0  0  0  0  0  0
  1  2  1  0
  1 22  1  0
  1 23  1  0
  1 24  1  0
  2  3  1  0
  2 25  1  0
  2 26  1  0
  3  4  1  0
  3 27  1  0
  3 28  1  0
  4  5  1  0
  4 29  1  0
  4 30  1  0
  5  6  1  0
  5  8  1  0
  5 31  1  1
  6  7  1  0
  6 32  1  0
  6 33  1  0
  7 34  1  0
  7 35  1  0
  7 36  1  0
  8  9  1  0
  8 37  1  0
  8 38  1  0
  9 10  1  0
 10 11  2  0
 10 12  1  0
 12 13  2  0
 12 39  1  0
 13 14  1  0
 13 40  1  0
 14 15  2  0
 14 19  1  0
 15 16  1  0
 15 41  1  0
 16 17  2  0
 16 42  1  0
 17 18  1  0
 17 43  1  0
 18 19  2  0
 18 44  1  0
 19 20  1  0
 20 21  1  0
 21 45  1  0
 21 46  1  0
 21 47  1  0
M  END

