
     RDKit          3D

 23 24  0  0  0  0  0  0  0  0999 V2000
    0.6313    0.4936    0.1733 O   0  0  0  0  0  0  0  0  0  0  0  0
    2.0069    0.1612    0.1651 C   0  0  1  0  0  0  0  0  0  0  0  0
    2.6667    0.6899   -1.0999 C   0  0  0  0  0  0  0  0  0  0  0  0
    2.2547    1.7677   -1.8509 C   0  0  0  0  0  0  0  0  0  0  0  0
    3.0883    2.0155   -2.9835 C   0  0  0  0  0  0  0  0  0  0  0  0
    4.1246    1.1229   -3.0790 C   0  0  0  0  0  0  0  0  0  0  0  0
    4.0964   -0.0300   -1.7884 S   0  0  0  0  0  0  0  0  0  0  0  0
    2.6260    0.7490    1.4299 C   0  0  0  0  0  0  0  0  0  0  0  0
    2.1010    1.9250    1.9849 C   0  0  0  0  0  0  0  0  0  0  0  0
    2.6456    2.5092    3.1277 C   0  0  0  0  0  0  0  0  0  0  0  0
    3.7459    1.9037    3.7404 C   0  0  0  0  0  0  0  0  0  0  0  0
    4.5098    2.6820    5.3035 Br  0  0  0  0  0  0  0  0  0  0  0  0
    4.2923    0.7283    3.2263 C   0  0  0  0  0  0  0  0  0  0  0  0
    3.7246    0.1645    2.0790 C   0  0  0  0  0  0  0  0  0  0  0  0
    4.4325   -1.3268    1.4795 Cl  0  0  0  0  0  0  0  0  0  0  0  0
    0.2532    0.1905   -0.6632 H   0  0  0  0  0  0  0  0  0  0  0  0
    2.1482   -0.9337    0.2046 H   0  0  0  0  0  0  0  0  0  0  0  0
    1.3750    2.3591   -1.5939 H   0  0  0  0  0  0  0  0  0  0  0  0
    2.9224    2.8238   -3.6977 H   0  0  0  0  0  0  0  0  0  0  0  0
    4.9082    1.0757   -3.8342 H   0  0  0  0  0  0  0  0  0  0  0  0
    1.2309    2.3759    1.5059 H   0  0  0  0  0  0  0  0  0  0  0  0
    2.2178    3.4235    3.5411 H   0  0  0  0  0  0  0  0  0  0  0  0
    5.1440    0.2456    3.7048 H   0  0  0  0  0  0  0  0  0  0  0  0
  1  2  1  0
  1 16  1  0
  2  3  1  0
  2  8  1  0
  2 17  1  1
  3  4  2  0
  3  7  1  0
  4  5  1  0
  4 18  1  0
  5  6  2  0
  5 19  1  0
  6  7  1  0
  6 20  1  0
  8  9  2  0
  8 14  1  0
  9 10  1  0
  9 21  1  0
 10 11  2  0
 10 22  1  0
 11 12  1  0
 11 13  1  0
 13 14  2  0
 13 23  1  0
 14 15  1  0
M  END

