
     RDKit          3D

 81 85  0  0  0  0  0  0  0  0999 V2000
    0.8785   -0.4729   -0.5480 C   0  0  0  0  0  0  0  0  0  0  0  0
    2.1751   -0.0350   -1.2319 C   0  0  0  0  0  0  0  0  0  0  0  0
    2.6734    1.2515   -0.7733 N   0  0  0  0  0  0  0  0  0  0  0  0
    3.5724    1.3581    0.2534 C   0  0  0  0  0  0  0  0  0  0  0  0
    4.0364    0.3813    0.8236 O   0  0  0  0  0  0  0  0  0  0  0  0
    3.9657    2.7619    0.6490 C   0  0  0  0  0  0  0  0  0  0  0  0
    3.8503    3.8529   -0.2243 C   0  0  0  0  0  0  0  0  0  0  0  0
    4.2511    5.1304    0.1963 C   0  0  0  0  0  0  0  0  0  0  0  0
    4.1202    6.1684   -0.6804 O   0  0  0  0  0  0  0  0  0  0  0  0
    4.6417    7.4157   -0.2668 C   0  0  1  0  0  0  0  0  0  0  0  0
    4.4723    8.6233   -1.1961 C   0  0  0  0  0  0  0  0  0  0  0  0
    4.4083    9.5151    0.0965 C   0  0  2  0  0  0  0  0  0  0  0  0
    5.7500   10.0531    0.6053 C   0  0  0  0  0  0  0  0  0  0  0  0
    6.7992   10.2672   -0.3090 C   0  0  0  0  0  0  0  0  0  0  0  0
    8.0705   10.6374    0.1187 C   0  0  0  0  0  0  0  0  0  0  0  0
    8.3460   10.7677    1.4803 C   0  0  0  0  0  0  0  0  0  0  0  0
    7.3103   10.5803    2.4029 C   0  0  0  0  0  0  0  0  0  0  0  0
    7.4969   10.6527    3.7533 O   0  0  0  0  0  0  0  0  0  0  0  0
    8.8145   10.6955    4.2891 C   0  0  0  0  0  0  0  0  0  0  0  0
    8.7542   10.6340    5.8063 C   0  0  0  0  0  0  0  0  0  0  0  0
    8.1497    9.3539    6.3868 C   0  0  0  0  0  0  0  0  0  0  0  0
    8.4000    9.2375    7.8895 C   0  0  0  0  0  0  0  0  0  0  0  0
    9.0019   10.0634    8.5263 O   0  0  0  0  0  0  0  0  0  0  0  0
    7.9156    8.1365    8.4881 O   0  0  0  0  0  0  0  0  0  0  0  0
    5.9857   10.2901    1.9819 C   0  0  0  0  0  0  0  0  0  0  0  0
    4.9219   10.1889    3.0602 C   0  0  0  0  0  0  0  0  0  0  0  0
    4.7067   11.4498    3.9150 C   0  0  0  0  0  0  0  0  0  0  0  0
    4.1847   11.1123    5.3083 C   0  0  0  0  0  0  0  0  0  0  0  0
    4.3053   10.0401    5.8416 O   0  0  0  0  0  0  0  0  0  0  0  0
    3.5971   12.1319    5.9710 O   0  0  0  0  0  0  0  0  0  0  0  0
    3.9299    8.2225    0.8323 C   0  0  0  0  0  0  0  0  0  0  0  0
    4.7707    5.2863    1.4850 C   0  0  0  0  0  0  0  0  0  0  0  0
    4.8665    4.2081    2.3809 C   0  0  0  0  0  0  0  0  0  0  0  0
    5.3613    4.5179    3.7511 C   0  0  0  0  0  0  0  0  0  0  0  0
    4.9247    5.7009    4.3838 C   0  0  0  0  0  0  0  0  0  0  0  0
    5.4492    6.1029    5.6081 C   0  0  0  0  0  0  0  0  0  0  0  0
    6.4310    5.3289    6.2273 C   0  0  0  0  0  0  0  0  0  0  0  0
    6.8576    4.1252    5.6335 C   0  0  0  0  0  0  0  0  0  0  0  0
    6.3148    3.7255    4.4065 C   0  0  0  0  0  0  0  0  0  0  0  0
    7.8117    3.3409    6.2177 O   0  0  0  0  0  0  0  0  0  0  0  0
    8.5787    3.9835    7.2249 C   0  0  0  0  0  0  0  0  0  0  0  0
    7.6824    4.7823    8.1549 C   0  0  0  0  0  0  0  0  0  0  0  0
    6.9760    5.7743    7.4099 O   0  0  0  0  0  0  0  0  0  0  0  0
    4.4809    2.9354    1.9457 C   0  0  0  0  0  0  0  0  0  0  0  0
    0.5435   -1.4463   -0.9417 H   0  0  0  0  0  0  0  0  0  0  0  0
    0.0671    0.2551   -0.7152 H   0  0  0  0  0  0  0  0  0  0  0  0
    1.0304   -0.5764    0.5373 H   0  0  0  0  0  0  0  0  0  0  0  0
    2.0345    0.0162   -2.3251 H   0  0  0  0  0  0  0  0  0  0  0  0
    2.9683   -0.7693   -1.0326 H   0  0  0  0  0  0  0  0  0  0  0  0
    2.1920    2.0879   -1.0791 H   0  0  0  0  0  0  0  0  0  0  0  0
    3.4902    3.7391   -1.2486 H   0  0  0  0  0  0  0  0  0  0  0  0
    5.7093    7.2936   -0.0132 H   0  0  0  0  0  0  0  0  0  0  0  0
    3.4845    8.5972   -1.6799 H   0  0  0  0  0  0  0  0  0  0  0  0
    5.2393    8.8042   -1.9602 H   0  0  0  0  0  0  0  0  0  0  0  0
    3.6614   10.3247    0.0526 H   0  0  0  0  0  0  0  0  0  0  0  0
    6.6225   10.1317   -1.3760 H   0  0  0  0  0  0  0  0  0  0  0  0
    8.8667   10.8003   -0.6120 H   0  0  0  0  0  0  0  0  0  0  0  0
    9.3547   11.0129    1.8107 H   0  0  0  0  0  0  0  0  0  0  0  0
    9.3188   11.6286    3.9773 H   0  0  0  0  0  0  0  0  0  0  0  0
    9.4017    9.8490    3.8848 H   0  0  0  0  0  0  0  0  0  0  0  0
    8.2022   11.5071    6.1904 H   0  0  0  0  0  0  0  0  0  0  0  0
    9.7822   10.7473    6.1857 H   0  0  0  0  0  0  0  0  0  0  0  0
    8.5753    8.4574    5.8985 H   0  0  0  0  0  0  0  0  0  0  0  0
    7.0622    9.3113    6.2031 H   0  0  0  0  0  0  0  0  0  0  0  0
    7.4592    7.5199    7.8815 H   0  0  0  0  0  0  0  0  0  0  0  0
    5.1904    9.3794    3.7577 H   0  0  0  0  0  0  0  0  0  0  0  0
    3.9538    9.9187    2.6263 H   0  0  0  0  0  0  0  0  0  0  0  0
    4.0260   12.1619    3.4166 H   0  0  0  0  0  0  0  0  0  0  0  0
    5.6589   11.9791    4.0767 H   0  0  0  0  0  0  0  0  0  0  0  0
    3.5709   12.9241    5.4154 H   0  0  0  0  0  0  0  0  0  0  0  0
    2.8390    8.0992    0.7472 H   0  0  0  0  0  0  0  0  0  0  0  0
    4.2289    8.0642    1.8724 H   0  0  0  0  0  0  0  0  0  0  0  0
    5.1254    6.2535    1.8221 H   0  0  0  0  0  0  0  0  0  0  0  0
    4.1499    6.3106    3.9167 H   0  0  0  0  0  0  0  0  0  0  0  0
    5.1040    7.0200    6.0918 H   0  0  0  0  0  0  0  0  0  0  0  0
    6.6979    2.8088    3.9535 H   0  0  0  0  0  0  0  0  0  0  0  0
    9.3272    4.6530    6.7603 H   0  0  0  0  0  0  0  0  0  0  0  0
    9.1112    3.1944    7.7753 H   0  0  0  0  0  0  0  0  0  0  0  0
    8.2652    5.3198    8.9161 H   0  0  0  0  0  0  0  0  0  0  0  0
    6.9583    4.1165    8.6573 H   0  0  0  0  0  0  0  0  0  0  0  0
    4.5463    2.0629    2.5973 H   0  0  0  0  0  0  0  0  0  0  0  0
  1  2  1  0
  1 45  1  0
  1 46  1  0
  1 47  1  0
  2  3  1  0
  2 48  1  0
  2 49  1  0
  3  4  1  0
  3 50  1  0
  4  5  2  0
  4  6  1  0
  6  7  2  0
  6 44  1  0
  7  8  1  0
  7 51  1  0
  8  9  1  0
  8 32  2  0
  9 10  1  0
 10 11  1  0
 10 31  1  0
 10 52  1  1
 11 12  1  0
 11 53  1  0
 11 54  1  0
 12 13  1  0
 12 31  1  0
 12 55  1  6
 13 14  2  0
 13 25  1  0
 14 15  1  0
 14 56  1  0
 15 16  2  0
 15 57  1  0
 16 17  1  0
 16 58  1  0
 17 18  1  0
 17 25  2  0
 18 19  1  0
 19 20  1  0
 19 59  1  0
 19 60  1  0
 20 21  1  0
 20 61  1  0
 20 62  1  0
 21 22  1  0
 21 63  1  0
 21 64  1  0
 22 23  2  0
 22 24  1  0
 24 65  1  0
 25 26  1  0
 26 27  1  0
 26 66  1  0
 26 67  1  0
 27 28  1  0
 27 68  1  0
 27 69  1  0
 28 29  2  0
 28 30  1  0
 30 70  1  0
 31 71  1  0
 31 72  1  0
 32 33  1  0
 32 73  1  0
 33 34  1  0
 33 44  2  0
 34 35  2  0
 34 39  1  0
 35 36  1  0
 35 74  1  0
 36 37  2  0
 36 75  1  0
 37 38  1  0
 37 43  1  0
 38 39  2  0
 38 40  1  0
 39 76  1  0
 40 41  1  0
 41 42  1  0
 41 77  1  0
 41 78  1  0
 42 43  1  0
 42 79  1  0
 42 80  1  0
 44 81  1  0
M  END

