
     RDKit          3D

 48 49  0  0  0  0  0  0  0  0999 V2000
    6.4250    2.8298   -4.4815 C   0  0  0  0  0  0  0  0  0  0  0  0
    6.7797    2.1144   -3.2008 C   0  0  0  0  0  0  0  0  0  0  0  0
    5.8194    1.8924   -2.2034 C   0  0  0  0  0  0  0  0  0  0  0  0
    6.1414    1.1997   -1.0328 C   0  0  0  0  0  0  0  0  0  0  0  0
    7.4378    0.7159   -0.8208 C   0  0  0  0  0  0  0  0  0  0  0  0
    7.7954   -0.0191    0.4574 C   0  0  0  0  0  0  0  0  0  0  0  0
    8.2612   -1.3866    0.2450 N   0  0  0  0  0  0  0  0  0  0  0  0
    9.5739   -1.6295    0.0468 N   0  0  0  0  0  0  0  0  0  0  0  0
    9.6819   -2.9266   -0.2216 C   0  0  0  0  0  0  0  0  0  0  0  0
   11.0092   -3.5527   -0.5113 C   0  0  0  0  0  0  0  0  0  0  0  0
    8.4057   -3.5673   -0.1784 C   0  0  0  0  0  0  0  0  0  0  0  0
    8.1205   -4.9782   -0.5768 C   0  0  0  0  0  0  0  0  0  0  0  0
    8.6420   -5.4363   -1.5864 O   0  0  0  0  0  0  0  0  0  0  0  0
    7.2329   -5.7080    0.1858 N   0  0  0  0  0  0  0  0  0  0  0  0
    6.9522   -5.4434    1.5920 C   0  0  0  0  0  0  0  0  0  0  0  0
    6.8215   -7.0218   -0.3100 C   0  0  0  0  0  0  0  0  0  0  0  0
    5.4514   -7.0019   -1.0403 C   0  0  1  0  0  0  0  0  0  0  0  0
    5.5450   -6.3109   -2.4066 C   0  0  0  0  0  0  0  0  0  0  0  0
    4.9456   -8.4366   -1.1884 C   0  0  0  0  0  0  0  0  0  0  0  0
    4.4852   -6.3261   -0.2301 O   0  0  0  0  0  0  0  0  0  0  0  0
    7.5319   -2.5235    0.1074 C   0  0  0  0  0  0  0  0  0  0  0  0
    5.8093   -2.5128    0.2425 Cl  0  0  0  0  0  0  0  0  0  0  0  0
    8.4063    0.9378   -1.8123 C   0  0  0  0  0  0  0  0  0  0  0  0
    8.0788    1.6246   -2.9809 C   0  0  0  0  0  0  0  0  0  0  0  0
    5.5940    3.5365   -4.3347 H   0  0  0  0  0  0  0  0  0  0  0  0
    6.1107    2.1134   -5.2609 H   0  0  0  0  0  0  0  0  0  0  0  0
    7.2836    3.3893   -4.8837 H   0  0  0  0  0  0  0  0  0  0  0  0
    4.8005    2.2648   -2.3436 H   0  0  0  0  0  0  0  0  0  0  0  0
    5.3703    1.0362   -0.2743 H   0  0  0  0  0  0  0  0  0  0  0  0
    6.9293   -0.0546    1.1326 H   0  0  0  0  0  0  0  0  0  0  0  0
    8.6177    0.4861    0.9840 H   0  0  0  0  0  0  0  0  0  0  0  0
   11.7829   -2.7741   -0.5584 H   0  0  0  0  0  0  0  0  0  0  0  0
   10.9723   -4.1007   -1.4640 H   0  0  0  0  0  0  0  0  0  0  0  0
   11.2913   -4.2785    0.2693 H   0  0  0  0  0  0  0  0  0  0  0  0
    7.3261   -4.4571    1.8858 H   0  0  0  0  0  0  0  0  0  0  0  0
    7.4476   -6.1994    2.2290 H   0  0  0  0  0  0  0  0  0  0  0  0
    5.8717   -5.4951    1.7877 H   0  0  0  0  0  0  0  0  0  0  0  0
    6.7456   -7.6996    0.5546 H   0  0  0  0  0  0  0  0  0  0  0  0
    7.6020   -7.4012   -0.9841 H   0  0  0  0  0  0  0  0  0  0  0  0
    6.2693   -6.8106   -3.0668 H   0  0  0  0  0  0  0  0  0  0  0  0
    5.8714   -5.2643   -2.3001 H   0  0  0  0  0  0  0  0  0  0  0  0
    4.5559   -6.3138   -2.8902 H   0  0  0  0  0  0  0  0  0  0  0  0
    5.6614   -9.0523   -1.7548 H   0  0  0  0  0  0  0  0  0  0  0  0
    3.9803   -8.4453   -1.7163 H   0  0  0  0  0  0  0  0  0  0  0  0
    4.7952   -8.8927   -0.1976 H   0  0  0  0  0  0  0  0  0  0  0  0
    4.7076   -5.3846   -0.2501 H   0  0  0  0  0  0  0  0  0  0  0  0
    9.4219    0.5622   -1.6636 H   0  0  0  0  0  0  0  0  0  0  0  0
    8.8497    1.7885   -3.7396 H   0  0  0  0  0  0  0  0  0  0  0  0
  1  2  1  0
  1 25  1  0
  1 26  1  0
  1 27  1  0
  2  3  2  0
  2 24  1  0
  3  4  1  0
  3 28  1  0
  4  5  2  0
  4 29  1  0
  5  6  1  0
  5 23  1  0
  6  7  1  0
  6 30  1  0
  6 31  1  0
  7  8  1  0
  7 21  1  0
  8  9  2  0
  9 10  1  0
  9 11  1  0
 10 32  1  0
 10 33  1  0
 10 34  1  0
 11 12  1  0
 11 21  2  0
 12 13  2  0
 12 14  1  0
 14 15  1  0
 14 16  1  0
 15 35  1  0
 15 36  1  0
 15 37  1  0
 16 17  1  0
 16 38  1  0
 16 39  1  0
 17 18  1  0
 17 19  1  0
 17 20  1  1
 18 40  1  0
 18 41  1  0
 18 42  1  0
 19 43  1  0
 19 44  1  0
 19 45  1  0
 20 46  1  0
 21 22  1  0
 23 24  2  0
 23 47  1  0
 24 48  1  0
M  END

