
     RDKit          3D

 41 43  0  0  0  0  0  0  0  0999 V2000
    1.4296    0.0940    1.5188 C   0  0  0  0  0  0  0  0  0  0  0  0
    2.5686    0.1821    0.5384 C   0  0  0  0  0  0  0  0  0  0  0  0
    2.9409    1.3080   -0.1199 C   0  0  0  0  0  0  0  0  0  0  0  0
    2.2089    2.5740   -0.0612 C   0  0  0  0  0  0  0  0  0  0  0  0
    0.8961    2.9355    0.1577 C   0  0  0  0  0  0  0  0  0  0  0  0
    0.8280    4.3589    0.0284 C   0  0  0  0  0  0  0  0  0  0  0  0
    2.0954    4.7710   -0.2684 C   0  0  0  0  0  0  0  0  0  0  0  0
    2.9320    3.7081   -0.3298 O   0  0  0  0  0  0  0  0  0  0  0  0
    4.1695    1.3322   -1.0134 C   0  0  0  0  0  0  0  0  0  0  0  0
    5.0263    0.1686   -0.8558 N   0  0  0  0  0  0  0  0  0  0  0  0
    6.1643    0.1867   -1.7545 C   0  0  0  0  0  0  0  0  0  0  0  0
    7.2041    1.2370   -1.4049 C   0  0  0  0  0  0  0  0  0  0  0  0
    7.5124    1.5215   -0.0639 C   0  0  0  0  0  0  0  0  0  0  0  0
    8.5077    2.4395    0.2594 C   0  0  0  0  0  0  0  0  0  0  0  0
    9.2137    3.1137   -0.7504 C   0  0  0  0  0  0  0  0  0  0  0  0
   10.2812    4.0859   -0.3348 C   0  0  0  0  0  0  0  0  0  0  0  0
   10.7737    4.0979    0.7626 O   0  0  0  0  0  0  0  0  0  0  0  0
   10.6786    4.9820   -1.2696 O   0  0  0  0  0  0  0  0  0  0  0  0
    8.9146    2.8251   -2.0908 C   0  0  0  0  0  0  0  0  0  0  0  0
    7.9184    1.9005   -2.4116 C   0  0  0  0  0  0  0  0  0  0  0  0
    4.2598   -1.0657   -0.8784 C   0  0  0  0  0  0  0  0  0  0  0  0
    3.3268   -1.1081    0.3263 C   0  0  0  0  0  0  0  0  0  0  0  0
    0.5023   -0.2641    1.0341 H   0  0  0  0  0  0  0  0  0  0  0  0
    1.2056    1.0588    1.9945 H   0  0  0  0  0  0  0  0  0  0  0  0
    1.6668   -0.6351    2.3116 H   0  0  0  0  0  0  0  0  0  0  0  0
    0.0665    2.2631    0.3549 H   0  0  0  0  0  0  0  0  0  0  0  0
   -0.0519    4.9899    0.1361 H   0  0  0  0  0  0  0  0  0  0  0  0
    2.5412    5.7442   -0.4569 H   0  0  0  0  0  0  0  0  0  0  0  0
    4.7512    2.2389   -0.7885 H   0  0  0  0  0  0  0  0  0  0  0  0
    3.8355    1.4469   -2.0747 H   0  0  0  0  0  0  0  0  0  0  0  0
    5.8617    0.3171   -2.8196 H   0  0  0  0  0  0  0  0  0  0  0  0
    6.6496   -0.8041   -1.6973 H   0  0  0  0  0  0  0  0  0  0  0  0
    6.9477    1.0128    0.7204 H   0  0  0  0  0  0  0  0  0  0  0  0
    8.7594    2.6559    1.2995 H   0  0  0  0  0  0  0  0  0  0  0  0
   10.1000    4.9391   -2.0434 H   0  0  0  0  0  0  0  0  0  0  0  0
    9.4719    3.2973   -2.9060 H   0  0  0  0  0  0  0  0  0  0  0  0
    7.6976    1.6884   -3.4615 H   0  0  0  0  0  0  0  0  0  0  0  0
    4.9543   -1.9204   -0.8494 H   0  0  0  0  0  0  0  0  0  0  0  0
    3.6667   -1.1664   -1.8181 H   0  0  0  0  0  0  0  0  0  0  0  0
    3.9072   -1.3367    1.2405 H   0  0  0  0  0  0  0  0  0  0  0  0
    2.6074   -1.9395    0.2113 H   0  0  0  0  0  0  0  0  0  0  0  0
  1  2  1  0
  1 23  1  0
  1 24  1  0
  1 25  1  0
  2  3  2  0
  2 22  1  0
  3  4  1  0
  3  9  1  0
  4  5  2  0
  4  8  1  0
  5  6  1  0
  5 26  1  0
  6  7  2  0
  6 27  1  0
  7  8  1  0
  7 28  1  0
  9 10  1  0
  9 29  1  0
  9 30  1  0
 10 11  1  0
 10 21  1  0
 11 12  1  0
 11 31  1  0
 11 32  1  0
 12 13  2  0
 12 20  1  0
 13 14  1  0
 13 33  1  0
 14 15  2  0
 14 34  1  0
 15 16  1  0
 15 19  1  0
 16 17  2  0
 16 18  1  0
 18 35  1  0
 19 20  2  0
 19 36  1  0
 20 37  1  0
 21 22  1  0
 21 38  1  0
 21 39  1  0
 22 40  1  0
 22 41  1  0
M  END

