
     RDKit          3D

 19 20  0  0  0  0  0  0  0  0999 V2000
    0.8066    0.0015   -0.1807 O   0  0  0  0  0  0  0  0  0  0  0  0
    2.1877   -0.0230    0.1284 C   0  0  1  0  0  0  0  0  0  0  0  0
    2.8825   -1.2822   -0.4296 C   0  0  0  0  0  0  0  0  0  0  0  0
    4.4264   -1.1208   -0.3989 C   0  0  1  0  0  0  0  0  0  0  0  0
    5.0116   -0.7356   -1.7635 C   0  0  0  0  0  0  0  0  0  0  0  0
    4.7414    0.6600   -1.8271 O   0  0  0  0  0  0  0  0  0  0  0  0
    4.3537    1.0830   -0.5199 C   0  0  1  0  0  0  0  0  0  0  0  0
    2.8226    1.2525   -0.4344 C   0  0  0  0  0  0  0  0  0  0  0  0
    4.7731    0.0526    0.3504 O   0  0  0  0  0  0  0  0  0  0  0  0
    0.3775   -0.7254    0.2891 H   0  0  0  0  0  0  0  0  0  0  0  0
    2.3380   -0.0152    1.2243 H   0  0  0  0  0  0  0  0  0  0  0  0
    2.5243   -1.4396   -1.4598 H   0  0  0  0  0  0  0  0  0  0  0  0
    2.5708   -2.1632    0.1559 H   0  0  0  0  0  0  0  0  0  0  0  0
    4.9325   -1.9766    0.0676 H   0  0  0  0  0  0  0  0  0  0  0  0
    4.5328   -1.2517   -2.6106 H   0  0  0  0  0  0  0  0  0  0  0  0
    6.1008   -0.9222   -1.7976 H   0  0  0  0  0  0  0  0  0  0  0  0
    4.9010    2.0024   -0.2613 H   0  0  0  0  0  0  0  0  0  0  0  0
    2.4246    1.4488   -1.4415 H   0  0  0  0  0  0  0  0  0  0  0  0
    2.5542    2.1098    0.2024 H   0  0  0  0  0  0  0  0  0  0  0  0
  1  2  1  0
  1 10  1  0
  2  3  1  0
  2  8  1  0
  2 11  1  1
  3  4  1  0
  3 12  1  0
  3 13  1  0
  4  5  1  0
  4  9  1  0
  4 14  1  1
  5  6  1  0
  5 15  1  0
  5 16  1  0
  6  7  1  0
  7  8  1  0
  7  9  1  0
  7 17  1  1
  8 18  1  0
  8 19  1  0
M  END

