
     RDKit          3D

 50 52  0  0  0  0  0  0  0  0999 V2000
    2.6020    1.2679   -1.0008 C   0  0  0  0  0  0  0  0  0  0  0  0
    3.8139    0.5487   -0.9791 O   0  0  0  0  0  0  0  0  0  0  0  0
    3.8524   -0.7051   -1.4961 C   0  0  0  0  0  0  0  0  0  0  0  0
    5.0943   -1.3634   -1.4342 C   0  0  0  0  0  0  0  0  0  0  0  0
    5.2336   -2.6520   -1.9357 C   0  0  0  0  0  0  0  0  0  0  0  0
    4.1438   -3.3217   -2.5199 C   0  0  0  0  0  0  0  0  0  0  0  0
    4.2735   -4.7421   -3.0184 C   0  0  2  0  0  0  0  0  0  0  0  0
    3.4950   -4.9254   -3.7843 H   0  0  0  0  0  0  0  0  0  0  0  0
    4.1196   -5.7975   -1.9186 C   0  0  0  0  0  0  0  0  0  0  0  0
    4.3301   -7.2082   -2.4584 C   0  0  0  0  0  0  0  0  0  0  0  0
    3.7739   -8.1761   -1.9724 O   0  0  0  0  0  0  0  0  0  0  0  0
    5.2955   -7.2911   -3.5718 C   0  0  0  0  0  0  0  0  0  0  0  0
    5.7034   -8.5382   -4.0900 C   0  0  0  0  0  0  0  0  0  0  0  0
    6.6733   -8.6613   -5.0722 C   0  0  0  0  0  0  0  0  0  0  0  0
    7.0797  -10.0082   -5.6407 C   0  0  0  0  0  0  0  0  0  0  0  0
    6.4162  -10.3132   -6.9638 C   0  0  0  0  0  0  0  0  0  0  0  0
    6.9913  -10.5350   -8.1594 C   0  0  0  0  0  0  0  0  0  0  0  0
    8.4768  -10.5126   -8.4170 C   0  0  0  0  0  0  0  0  0  0  0  0
    6.1490  -10.8367   -9.3753 C   0  0  0  0  0  0  0  0  0  0  0  0
    7.2721   -7.4634   -5.5588 C   0  0  0  0  0  0  0  0  0  0  0  0
    8.2277   -7.6275   -6.5009 O   0  0  0  0  0  0  0  0  0  0  0  0
    8.8781   -6.5001   -7.0478 C   0  0  0  0  0  0  0  0  0  0  0  0
    6.8819   -6.2104   -5.0754 C   0  0  0  0  0  0  0  0  0  0  0  0
    5.8899   -6.1238   -4.0883 C   0  0  0  0  0  0  0  0  0  0  0  0
    5.5510   -4.8814   -3.6645 O   0  0  0  0  0  0  0  0  0  0  0  0
    2.9172   -2.6555   -2.5863 C   0  0  0  0  0  0  0  0  0  0  0  0
    2.7577   -1.3608   -2.0779 C   0  0  0  0  0  0  0  0  0  0  0  0
    2.8050    2.2387   -0.5288 H   0  0  0  0  0  0  0  0  0  0  0  0
    1.8071    0.7532   -0.4311 H   0  0  0  0  0  0  0  0  0  0  0  0
    2.2434    1.4408   -2.0318 H   0  0  0  0  0  0  0  0  0  0  0  0
    5.9378   -0.8343   -0.9860 H   0  0  0  0  0  0  0  0  0  0  0  0
    6.2061   -3.1469   -1.8914 H   0  0  0  0  0  0  0  0  0  0  0  0
    3.1285   -5.7346   -1.4471 H   0  0  0  0  0  0  0  0  0  0  0  0
    4.8709   -5.6163   -1.1284 H   0  0  0  0  0  0  0  0  0  0  0  0
    5.2285   -9.4277   -3.6677 H   0  0  0  0  0  0  0  0  0  0  0  0
    6.7841  -10.7826   -4.9119 H   0  0  0  0  0  0  0  0  0  0  0  0
    8.1739  -10.0572   -5.7309 H   0  0  0  0  0  0  0  0  0  0  0  0
    5.3203  -10.3489   -6.9166 H   0  0  0  0  0  0  0  0  0  0  0  0
    9.0668  -10.2281   -7.5369 H   0  0  0  0  0  0  0  0  0  0  0  0
    8.7151   -9.7991   -9.2261 H   0  0  0  0  0  0  0  0  0  0  0  0
    8.8279  -11.5010   -8.7645 H   0  0  0  0  0  0  0  0  0  0  0  0
    5.0742  -10.8512   -9.1411 H   0  0  0  0  0  0  0  0  0  0  0  0
    6.4176  -11.8156   -9.8123 H   0  0  0  0  0  0  0  0  0  0  0  0
    6.3169  -10.0873  -10.1702 H   0  0  0  0  0  0  0  0  0  0  0  0
    9.6008   -6.8828   -7.7806 H   0  0  0  0  0  0  0  0  0  0  0  0
    9.4185   -5.9257   -6.2748 H   0  0  0  0  0  0  0  0  0  0  0  0
    8.1673   -5.8287   -7.5602 H   0  0  0  0  0  0  0  0  0  0  0  0
    7.3130   -5.2819   -5.4454 H   0  0  0  0  0  0  0  0  0  0  0  0
    2.0566   -3.1497   -3.0471 H   0  0  0  0  0  0  0  0  0  0  0  0
    1.7838   -0.8765   -2.1504 H   0  0  0  0  0  0  0  0  0  0  0  0
  1  2  1  0
  1 28  1  0
  1 29  1  0
  1 30  1  0
  2  3  1  0
  3  4  2  0
  3 27  1  0
  4  5  1  0
  4 31  1  0
  5  6  2  0
  5 32  1  0
  6  7  1  0
  6 26  1  0
  7  8  1  6
  7  9  1  0
  7 25  1  0
  9 10  1  0
  9 33  1  0
  9 34  1  0
 10 11  2  0
 10 12  1  0
 12 13  2  0
 12 24  1  0
 13 14  1  0
 13 35  1  0
 14 15  1  0
 14 20  2  0
 15 16  1  0
 15 36  1  0
 15 37  1  0
 16 17  2  0
 16 38  1  0
 17 18  1  0
 17 19  1  0
 18 39  1  0
 18 40  1  0
 18 41  1  0
 19 42  1  0
 19 43  1  0
 19 44  1  0
 20 21  1  0
 20 23  1  0
 21 22  1  0
 22 45  1  0
 22 46  1  0
 22 47  1  0
 23 24  2  0
 23 48  1  0
 24 25  1  0
 26 27  2  0
 26 49  1  0
 27 50  1  0
M  END

