
     RDKit          3D

 34 35  0  0  0  0  0  0  0  0999 V2000
    0.9451   -0.0780   -0.1124 C   0  0  0  0  0  0  0  0  0  0  0  0
    2.4398    0.1121   -0.0040 C   0  0  0  0  0  0  0  0  0  0  0  0
    3.0469    1.3251   -0.3456 C   0  0  0  0  0  0  0  0  0  0  0  0
    4.4344    1.5182   -0.2532 C   0  0  0  0  0  0  0  0  0  0  0  0
    5.0644    2.8246   -0.6706 C   0  0  0  0  0  0  0  0  0  0  0  0
    5.2228    0.4500    0.2098 C   0  0  0  0  0  0  0  0  0  0  0  0
    6.5973    0.5755    0.2680 O   0  0  0  0  0  0  0  0  0  0  0  0
    7.1279    1.2255    1.4220 C   0  0  0  0  0  0  0  0  0  0  0  0
    8.6173    1.3636    1.2663 C   0  0  1  0  0  0  0  0  0  0  0  0
    9.4951    1.4257    2.4921 C   0  0  0  0  0  0  0  0  0  0  0  0
    9.5276    0.2109    1.6001 C   0  0  0  0  0  0  0  0  0  0  0  0
    4.6452   -0.7920    0.5419 C   0  0  0  0  0  0  0  0  0  0  0  0
    5.5338   -1.9513    0.9584 C   0  0  0  0  0  0  0  0  0  0  0  0
    4.7816   -3.0536    1.5468 N   0  0  0  0  0  0  0  0  0  0  0  0
    3.2605   -0.9413    0.4284 C   0  0  0  0  0  0  0  0  0  0  0  0
    0.4479    0.8242   -0.4990 H   0  0  0  0  0  0  0  0  0  0  0  0
    0.4978   -0.3129    0.8684 H   0  0  0  0  0  0  0  0  0  0  0  0
    0.6943   -0.9151   -0.7852 H   0  0  0  0  0  0  0  0  0  0  0  0
    2.4269    2.1502   -0.7107 H   0  0  0  0  0  0  0  0  0  0  0  0
    4.4289    3.3527   -1.3971 H   0  0  0  0  0  0  0  0  0  0  0  0
    6.0520    2.6578   -1.1256 H   0  0  0  0  0  0  0  0  0  0  0  0
    5.2109    3.5066    0.1857 H   0  0  0  0  0  0  0  0  0  0  0  0
    6.8910    0.6373    2.3305 H   0  0  0  0  0  0  0  0  0  0  0  0
    6.6598    2.2187    1.5492 H   0  0  0  0  0  0  0  0  0  0  0  0
    8.9155    1.9888    0.4174 H   0  0  0  0  0  0  0  0  0  0  0  0
    9.0177    1.3316    3.4727 H   0  0  0  0  0  0  0  0  0  0  0  0
   10.3488    2.1088    2.4792 H   0  0  0  0  0  0  0  0  0  0  0  0
    9.0666   -0.7102    1.9697 H   0  0  0  0  0  0  0  0  0  0  0  0
   10.4063    0.0477    0.9701 H   0  0  0  0  0  0  0  0  0  0  0  0
    6.3470   -1.5632    1.6039 H   0  0  0  0  0  0  0  0  0  0  0  0
    6.0464   -2.3319    0.0563 H   0  0  0  0  0  0  0  0  0  0  0  0
    4.4326   -2.7938    2.4704 H   0  0  0  0  0  0  0  0  0  0  0  0
    5.3869   -3.8619    1.6818 H   0  0  0  0  0  0  0  0  0  0  0  0
    2.8304   -1.9146    0.6753 H   0  0  0  0  0  0  0  0  0  0  0  0
  1  2  1  0
  1 16  1  0
  1 17  1  0
  1 18  1  0
  2  3  2  0
  2 15  1  0
  3  4  1  0
  3 19  1  0
  4  5  1  0
  4  6  2  0
  5 20  1  0
  5 21  1  0
  5 22  1  0
  6  7  1  0
  6 12  1  0
  7  8  1  0
  8  9  1  0
  8 23  1  0
  8 24  1  0
  9 10  1  0
  9 11  1  0
  9 25  1  6
 10 11  1  0
 10 26  1  0
 10 27  1  0
 11 28  1  0
 11 29  1  0
 12 13  1  0
 12 15  2  0
 13 14  1  0
 13 30  1  0
 13 31  1  0
 14 32  1  0
 14 33  1  0
 15 34  1  0
M  END

