
     RDKit          3D

 52 56  0  0  0  0  0  0  0  0999 V2000
    1.6709    0.7860   -2.2598 C   0  0  0  0  0  0  0  0  0  0  0  0
    2.9874    1.2252   -2.6620 N   0  0  0  0  0  0  0  0  0  0  0  0
    3.9308    1.7202   -1.7733 C   0  0  0  0  0  0  0  0  0  0  0  0
    3.8064    1.8674   -0.5622 O   0  0  0  0  0  0  0  0  0  0  0  0
    5.0528    2.0408   -2.5270 N   0  0  0  0  0  0  0  0  0  0  0  0
    6.2805    2.5292   -1.9198 C   0  0  0  0  0  0  0  0  0  0  0  0
    6.2376    4.0302   -1.5731 C   0  0  0  0  0  0  0  0  0  0  0  0
    6.8882    4.8471   -2.1983 O   0  0  0  0  0  0  0  0  0  0  0  0
    5.4142    4.3122   -0.5149 N   0  0  0  0  0  0  0  0  0  0  0  0
    5.1406    5.6043   -0.0080 C   0  0  0  0  0  0  0  0  0  0  0  0
    3.7998    5.9831    0.1627 C   0  0  0  0  0  0  0  0  0  0  0  0
    3.4605    7.2633    0.5961 C   0  0  0  0  0  0  0  0  0  0  0  0
    4.4739    8.1930    0.8533 C   0  0  0  0  0  0  0  0  0  0  0  0
    5.8092    7.8160    0.7288 C   0  0  0  0  0  0  0  0  0  0  0  0
    6.1749    6.5138    0.3346 C   0  0  0  0  0  0  0  0  0  0  0  0
    7.5291    6.1637    0.2741 N   0  0  0  0  0  0  0  0  0  0  0  0
    8.5168    6.9596   -0.4726 C   0  0  0  0  0  0  0  0  0  0  0  0
    9.7040    5.9921   -0.6890 C   0  0  0  0  0  0  0  0  0  0  0  0
    9.4500    4.9009    0.3290 C   0  0  0  0  0  0  0  0  0  0  0  0
   10.2598    3.8619    0.7676 C   0  0  0  0  0  0  0  0  0  0  0  0
    9.7584    2.9389    1.7026 C   0  0  0  0  0  0  0  0  0  0  0  0
    8.4519    3.0759    2.1807 C   0  0  0  0  0  0  0  0  0  0  0  0
    7.6225    4.1216    1.7499 C   0  0  0  0  0  0  0  0  0  0  0  0
    8.1322    5.0336    0.8168 C   0  0  0  0  0  0  0  0  0  0  0  0
    4.8078    1.7841   -3.8752 C   0  0  0  0  0  0  0  0  0  0  0  0
    5.5860    1.9571   -5.0160 C   0  0  0  0  0  0  0  0  0  0  0  0
    5.0287    1.5765   -6.2461 C   0  0  0  0  0  0  0  0  0  0  0  0
    3.7346    1.0463   -6.3262 C   0  0  0  0  0  0  0  0  0  0  0  0
    2.9465    0.8792   -5.1775 C   0  0  0  0  0  0  0  0  0  0  0  0
    3.4994    1.2551   -3.9564 C   0  0  0  0  0  0  0  0  0  0  0  0
    1.5929    0.9166   -1.1725 H   0  0  0  0  0  0  0  0  0  0  0  0
    1.5153   -0.2768   -2.5074 H   0  0  0  0  0  0  0  0  0  0  0  0
    0.8867    1.3835   -2.7532 H   0  0  0  0  0  0  0  0  0  0  0  0
    7.1080    2.3805   -2.6225 H   0  0  0  0  0  0  0  0  0  0  0  0
    6.4752    1.9423   -1.0086 H   0  0  0  0  0  0  0  0  0  0  0  0
    4.8200    3.5423   -0.1919 H   0  0  0  0  0  0  0  0  0  0  0  0
    3.0206    5.2582   -0.0870 H   0  0  0  0  0  0  0  0  0  0  0  0
    2.4099    7.5402    0.7114 H   0  0  0  0  0  0  0  0  0  0  0  0
    4.2242    9.2071    1.1749 H   0  0  0  0  0  0  0  0  0  0  0  0
    6.6011    8.5266    0.9744 H   0  0  0  0  0  0  0  0  0  0  0  0
    8.8315    7.8453    0.1127 H   0  0  0  0  0  0  0  0  0  0  0  0
    8.0754    7.3053   -1.4177 H   0  0  0  0  0  0  0  0  0  0  0  0
   10.6772    6.4900   -0.5609 H   0  0  0  0  0  0  0  0  0  0  0  0
    9.6717    5.5718   -1.7087 H   0  0  0  0  0  0  0  0  0  0  0  0
   11.2807    3.7611    0.3876 H   0  0  0  0  0  0  0  0  0  0  0  0
   10.3895    2.1206    2.0571 H   0  0  0  0  0  0  0  0  0  0  0  0
    8.0663    2.3621    2.9139 H   0  0  0  0  0  0  0  0  0  0  0  0
    6.6113    4.2286    2.1455 H   0  0  0  0  0  0  0  0  0  0  0  0
    6.5866    2.3891   -4.9606 H   0  0  0  0  0  0  0  0  0  0  0  0
    5.6164    1.7036   -7.1581 H   0  0  0  0  0  0  0  0  0  0  0  0
    3.3275    0.7615   -7.2990 H   0  0  0  0  0  0  0  0  0  0  0  0
    1.9363    0.4703   -5.2412 H   0  0  0  0  0  0  0  0  0  0  0  0
  1  2  1  0
  1 31  1  0
  1 32  1  0
  1 33  1  0
  2  3  1  0
  2 30  1  0
  3  4  2  0
  3  5  1  0
  5  6  1  0
  5 25  1  0
  6  7  1  0
  6 34  1  0
  6 35  1  0
  7  8  2  0
  7  9  1  0
  9 10  1  0
  9 36  1  0
 10 11  2  0
 10 15  1  0
 11 12  1  0
 11 37  1  0
 12 13  2  0
 12 38  1  0
 13 14  1  0
 13 39  1  0
 14 15  2  0
 14 40  1  0
 15 16  1  0
 16 17  1  0
 16 24  1  0
 17 18  1  0
 17 41  1  0
 17 42  1  0
 18 19  1  0
 18 43  1  0
 18 44  1  0
 19 20  1  0
 19 24  2  0
 20 21  2  0
 20 45  1  0
 21 22  1  0
 21 46  1  0
 22 23  2  0
 22 47  1  0
 23 24  1  0
 23 48  1  0
 25 26  1  0
 25 30  2  0
 26 27  2  0
 26 49  1  0
 27 28  1  0
 27 50  1  0
 28 29  2  0
 28 51  1  0
 29 30  1  0
 29 52  1  0
M  END

