
     RDKit          3D

 43 43  0  0  0  0  0  0  0  0999 V2000
    1.7707    5.4598    4.8110 C   0  0  0  0  0  0  0  0  0  0  0  0
    3.1846    4.8667    4.8107 C   0  0  1  0  0  0  0  0  0  0  0  0
    3.5226    4.2520    6.1754 C   0  0  0  0  0  0  0  0  0  0  0  0
    3.3410    3.8609    3.6599 C   0  0  0  0  0  0  0  0  0  0  0  0
    4.7025    3.3748    3.5085 N   0  0  0  0  0  0  0  0  0  0  0  0
    4.9023    2.4974    2.3676 C   0  0  0  0  0  0  0  0  0  0  0  0
    6.3579    2.1169    2.1627 C   0  0  0  0  0  0  0  0  0  0  0  0
    7.3833    2.9230    2.6788 C   0  0  0  0  0  0  0  0  0  0  0  0
    8.7301    2.6556    2.4186 C   0  0  0  0  0  0  0  0  0  0  0  0
    9.0758    1.5759    1.6043 C   0  0  0  0  0  0  0  0  0  0  0  0
    8.0711    0.7589    1.0792 C   0  0  0  0  0  0  0  0  0  0  0  0
    6.7209    1.0044    1.3720 C   0  0  0  0  0  0  0  0  0  0  0  0
    5.7689    0.2051    0.7836 O   0  0  0  0  0  0  0  0  0  0  0  0
    5.0680   -0.7887    1.5601 C   0  0  1  0  0  0  0  0  0  0  0  0
    3.7187   -0.9891    0.8851 C   0  0  0  0  0  0  0  0  0  0  0  0
    5.8860   -2.0893    1.7143 C   0  0  1  0  0  0  0  0  0  0  0  0
    6.3555   -2.6986    0.3929 C   0  0  0  0  0  0  0  0  0  0  0  0
    6.9545   -1.9119    2.6286 O   0  0  0  0  0  0  0  0  0  0  0  0
    1.6574    6.2188    5.6015 H   0  0  0  0  0  0  0  0  0  0  0  0
    1.0108    4.6796    4.9902 H   0  0  0  0  0  0  0  0  0  0  0  0
    1.5333    5.9414    3.8483 H   0  0  0  0  0  0  0  0  0  0  0  0
    3.9056    5.6815    4.6170 H   0  0  0  0  0  0  0  0  0  0  0  0
    2.8654    3.3931    6.3987 H   0  0  0  0  0  0  0  0  0  0  0  0
    3.3904    4.9890    6.9839 H   0  0  0  0  0  0  0  0  0  0  0  0
    4.5672    3.9048    6.2268 H   0  0  0  0  0  0  0  0  0  0  0  0
    3.0571    4.3582    2.7153 H   0  0  0  0  0  0  0  0  0  0  0  0
    2.6014    3.0357    3.8002 H   0  0  0  0  0  0  0  0  0  0  0  0
    5.0035    2.8965    4.3570 H   0  0  0  0  0  0  0  0  0  0  0  0
    4.5575    3.0320    1.4617 H   0  0  0  0  0  0  0  0  0  0  0  0
    4.2728    1.5863    2.4157 H   0  0  0  0  0  0  0  0  0  0  0  0
    7.0944    3.7864    3.2808 H   0  0  0  0  0  0  0  0  0  0  0  0
    9.5051    3.3029    2.8363 H   0  0  0  0  0  0  0  0  0  0  0  0
   10.1230    1.3694    1.3694 H   0  0  0  0  0  0  0  0  0  0  0  0
    8.3193   -0.0723    0.4150 H   0  0  0  0  0  0  0  0  0  0  0  0
    4.9254   -0.4072    2.5865 H   0  0  0  0  0  0  0  0  0  0  0  0
    3.8487   -1.2875   -0.1661 H   0  0  0  0  0  0  0  0  0  0  0  0
    3.1412   -0.0529    0.8973 H   0  0  0  0  0  0  0  0  0  0  0  0
    3.1331   -1.7659    1.4005 H   0  0  0  0  0  0  0  0  0  0  0  0
    5.2133   -2.8107    2.2115 H   0  0  0  0  0  0  0  0  0  0  0  0
    6.9601   -1.9815   -0.1834 H   0  0  0  0  0  0  0  0  0  0  0  0
    5.5075   -3.0015   -0.2409 H   0  0  0  0  0  0  0  0  0  0  0  0
    6.9672   -3.5894    0.5986 H   0  0  0  0  0  0  0  0  0  0  0  0
    7.5693   -1.2584    2.2669 H   0  0  0  0  0  0  0  0  0  0  0  0
  1  2  1  0
  1 19  1  0
  1 20  1  0
  1 21  1  0
  2  3  1  0
  2  4  1  0
  2 22  1  6
  3 23  1  0
  3 24  1  0
  3 25  1  0
  4  5  1  0
  4 26  1  0
  4 27  1  0
  5  6  1  0
  5 28  1  0
  6  7  1  0
  6 29  1  0
  6 30  1  0
  7  8  2  0
  7 12  1  0
  8  9  1  0
  8 31  1  0
  9 10  2  0
  9 32  1  0
 10 11  1  0
 10 33  1  0
 11 12  2  0
 11 34  1  0
 12 13  1  0
 13 14  1  0
 14 15  1  0
 14 16  1  0
 14 35  1  1
 15 36  1  0
 15 37  1  0
 15 38  1  0
 16 17  1  0
 16 18  1  0
 16 39  1  1
 17 40  1  0
 17 41  1  0
 17 42  1  0
 18 43  1  0
M  END

