
     RDKit          3D

 53 56  0  0  0  0  0  0  0  0999 V2000
    0.1128    1.4449   -7.0927 N   0  0  0  0  0  0  0  0  0  0  0  0
    0.2965    0.2523   -7.7442 C   0  0  0  0  0  0  0  0  0  0  0  0
   -0.5579   -0.1234   -8.5584 O   0  0  0  0  0  0  0  0  0  0  0  0
    1.5105   -0.5275   -7.4158 C   0  0  0  0  0  0  0  0  0  0  0  0
    2.3616   -0.1714   -6.3511 C   0  0  0  0  0  0  0  0  0  0  0  0
    3.5216   -0.8638   -6.0885 C   0  0  0  0  0  0  0  0  0  0  0  0
    3.8463   -1.9670   -6.9309 C   0  0  0  0  0  0  0  0  0  0  0  0
    5.0124   -2.6227   -6.7056 N   0  0  0  0  0  0  0  0  0  0  0  0
    5.6031   -3.7264   -7.4366 C   0  0  2  0  0  0  0  0  0  0  0  0
    5.0980   -3.8061   -8.4111 H   0  0  0  0  0  0  0  0  0  0  0  0
    5.4496   -5.0625   -6.6768 C   0  0  0  0  0  0  0  0  0  0  0  0
    6.2097   -6.2205   -7.3404 C   0  0  0  0  0  0  0  0  0  0  0  0
    7.6832   -5.8719   -7.5803 C   0  0  0  0  0  0  0  0  0  0  0  0
    7.8156   -4.5671   -8.3759 C   0  0  0  0  0  0  0  0  0  0  0  0
    7.0979   -3.3888   -7.6904 C   0  0  2  0  0  0  0  0  0  0  0  0
    7.1166   -2.5175   -8.3661 H   0  0  0  0  0  0  0  0  0  0  0  0
    7.7128   -2.9414   -6.4308 N   0  0  0  0  0  0  0  0  0  0  0  0
    3.0319   -2.3689   -7.9185 N   0  0  0  0  0  0  0  0  0  0  0  0
    1.8993   -1.6941   -8.1672 C   0  0  0  0  0  0  0  0  0  0  0  0
    1.0648   -2.0991   -9.1748 N   0  0  0  0  0  0  0  0  0  0  0  0
    1.1500   -3.0957  -10.1416 C   0  0  0  0  0  0  0  0  0  0  0  0
    0.1818   -3.0608  -11.1715 C   0  0  0  0  0  0  0  0  0  0  0  0
    0.1909   -4.0097  -12.1890 C   0  0  0  0  0  0  0  0  0  0  0  0
    1.1451   -5.0301  -12.2135 C   0  0  0  0  0  0  0  0  0  0  0  0
    2.0916   -5.0692  -11.1866 C   0  0  0  0  0  0  0  0  0  0  0  0
    3.0528   -6.1200  -11.1647 N   0  0  0  0  0  0  0  0  0  0  0  0
    3.6297   -6.7141  -10.0882 C   0  0  0  0  0  0  0  0  0  0  0  0
    4.4764   -7.6472  -10.4777 N   0  0  0  0  0  0  0  0  0  0  0  0
    4.3748   -7.5946  -11.8340 C   0  0  0  0  0  0  0  0  0  0  0  0
    3.5251   -6.6922  -12.2948 N   0  0  0  0  0  0  0  0  0  0  0  0
    2.1180   -4.1152  -10.1626 C   0  0  0  0  0  0  0  0  0  0  0  0
   -0.6763    1.9953   -7.4110 H   0  0  0  0  0  0  0  0  0  0  0  0
    0.8832    1.9431   -6.6700 H   0  0  0  0  0  0  0  0  0  0  0  0
    2.0943    0.6616   -5.6966 H   0  0  0  0  0  0  0  0  0  0  0  0
    4.1763   -0.5901   -5.2593 H   0  0  0  0  0  0  0  0  0  0  0  0
    5.6569   -2.2265   -6.0245 H   0  0  0  0  0  0  0  0  0  0  0  0
    4.3765   -5.2971   -6.5821 H   0  0  0  0  0  0  0  0  0  0  0  0
    5.8182   -4.9183   -5.6445 H   0  0  0  0  0  0  0  0  0  0  0  0
    5.7482   -6.4772   -8.3085 H   0  0  0  0  0  0  0  0  0  0  0  0
    6.1258   -7.1263   -6.7172 H   0  0  0  0  0  0  0  0  0  0  0  0
    8.1890   -6.6926   -8.1140 H   0  0  0  0  0  0  0  0  0  0  0  0
    8.2081   -5.7758   -6.6107 H   0  0  0  0  0  0  0  0  0  0  0  0
    7.3801   -4.7123   -9.3807 H   0  0  0  0  0  0  0  0  0  0  0  0
    8.8769   -4.3055   -8.5303 H   0  0  0  0  0  0  0  0  0  0  0  0
    8.5662   -2.4166   -6.6168 H   0  0  0  0  0  0  0  0  0  0  0  0
    7.9841   -3.7340   -5.8486 H   0  0  0  0  0  0  0  0  0  0  0  0
    0.2297   -1.4954   -9.2231 H   0  0  0  0  0  0  0  0  0  0  0  0
   -0.5696   -2.2672  -11.1676 H   0  0  0  0  0  0  0  0  0  0  0  0
   -0.5628   -3.9567  -12.9786 H   0  0  0  0  0  0  0  0  0  0  0  0
    1.1683   -5.7835  -13.0002 H   0  0  0  0  0  0  0  0  0  0  0  0
    3.3807   -6.4448   -9.0636 H   0  0  0  0  0  0  0  0  0  0  0  0
    4.9435   -8.2392  -12.5044 H   0  0  0  0  0  0  0  0  0  0  0  0
    2.8803   -4.1267   -9.3895 H   0  0  0  0  0  0  0  0  0  0  0  0
  1  2  1  0
  1 32  1  0
  1 33  1  0
  2  3  2  0
  2  4  1  0
  4  5  2  0
  4 19  1  0
  5  6  1  0
  5 34  1  0
  6  7  2  0
  6 35  1  0
  7  8  1  0
  7 18  1  0
  8  9  1  0
  8 36  1  0
  9 10  1  6
  9 11  1  0
  9 15  1  0
 11 12  1  0
 11 37  1  0
 11 38  1  0
 12 13  1  0
 12 39  1  0
 12 40  1  0
 13 14  1  0
 13 41  1  0
 13 42  1  0
 14 15  1  0
 14 43  1  0
 14 44  1  0
 15 16  1  6
 15 17  1  0
 17 45  1  0
 17 46  1  0
 18 19  2  0
 19 20  1  0
 20 21  1  0
 20 47  1  0
 21 22  2  0
 21 31  1  0
 22 23  1  0
 22 48  1  0
 23 24  2  0
 23 49  1  0
 24 25  1  0
 24 50  1  0
 25 26  1  0
 25 31  2  0
 26 27  1  0
 26 30  1  0
 27 28  2  0
 27 51  1  0
 28 29  1  0
 29 30  2  0
 29 52  1  0
 31 53  1  0
M  END

