
     RDKit          3D

 70 70  0  0  0  0  0  0  0  0999 V2000
    1.3961    0.5591    1.7922 C   0  0  0  0  0  0  0  0  0  0  0  0
    2.2914   -0.0941    0.7388 C   0  0  0  0  0  0  0  0  0  0  0  0
    3.0207   -1.3078    1.1678 N   0  0  0  0  0  0  0  0  0  0  0  0
    2.2556   -2.4355    1.3621 C   0  0  0  0  0  0  0  0  0  0  0  0
    1.0328   -2.3843    1.3011 O   0  0  0  0  0  0  0  0  0  0  0  0
    2.9344   -3.7875    1.6509 C   0  0  1  0  0  0  0  0  0  0  0  0
    2.0552   -4.5301    2.5326 N   0  0  0  0  0  0  0  0  0  0  0  0
    2.4895   -5.0779    3.7038 C   0  0  0  0  0  0  0  0  0  0  0  0
    3.6561   -5.1448    4.0457 O   0  0  0  0  0  0  0  0  0  0  0  0
    1.4318   -5.5399    4.4085 O   0  0  0  0  0  0  0  0  0  0  0  0
    1.5947   -6.2119    5.6965 C   0  0  1  0  0  0  0  0  0  0  0  0
    2.2188   -5.2526    6.7165 C   0  0  0  0  0  0  0  0  0  0  0  0
    0.1549   -6.5536    6.0871 C   0  0  0  0  0  0  0  0  0  0  0  0
    2.4261   -7.4882    5.5250 C   0  0  0  0  0  0  0  0  0  0  0  0
    3.2513   -4.5463    0.3210 C   0  0  1  0  0  0  0  0  0  0  0  0
    4.1923   -5.7265    0.5897 C   0  0  0  0  0  0  0  0  0  0  0  0
    1.9821   -5.0005   -0.4101 C   0  0  0  0  0  0  0  0  0  0  0  0
    4.4773   -1.3472    1.0123 C   0  0  1  0  0  0  0  0  0  0  0  0
    4.8303   -0.8809   -0.4365 C   0  0  0  0  0  0  0  0  0  0  0  0
    4.4597   -1.5602   -1.3806 O   0  0  0  0  0  0  0  0  0  0  0  0
    5.5066    0.2892   -0.5704 N   0  0  0  0  0  0  0  0  0  0  0  0
    5.9211    0.8299   -1.8661 C   0  0  1  0  0  0  0  0  0  0  0  0
    5.6055    2.3259   -1.9367 C   0  0  0  0  0  0  0  0  0  0  0  0
    7.3992    0.5304   -2.1447 C   0  0  0  0  0  0  0  0  0  0  0  0
    5.2764   -0.7125    2.1490 C   0  0  0  0  0  0  0  0  0  0  0  0
    4.6772   -0.1494    3.2805 C   0  0  0  0  0  0  0  0  0  0  0  0
    5.4516    0.3717    4.3231 C   0  0  0  0  0  0  0  0  0  0  0  0
    6.8508    0.3374    4.2821 C   0  0  0  0  0  0  0  0  0  0  0  0
    7.6907    0.8774    5.4133 C   0  0  0  0  0  0  0  0  0  0  0  0
    7.4519   -0.2496    3.1547 C   0  0  0  0  0  0  0  0  0  0  0  0
    6.6835   -0.7693    2.1145 C   0  0  0  0  0  0  0  0  0  0  0  0
    0.8602    1.4042    1.3303 H   0  0  0  0  0  0  0  0  0  0  0  0
    1.9707    0.9596    2.6407 H   0  0  0  0  0  0  0  0  0  0  0  0
    0.6495   -0.1534    2.1651 H   0  0  0  0  0  0  0  0  0  0  0  0
    3.0433    0.6296    0.3967 H   0  0  0  0  0  0  0  0  0  0  0  0
    1.6774   -0.3639   -0.1355 H   0  0  0  0  0  0  0  0  0  0  0  0
    3.8728   -3.6516    2.2056 H   0  0  0  0  0  0  0  0  0  0  0  0
    1.0585   -4.3793    2.4072 H   0  0  0  0  0  0  0  0  0  0  0  0
    1.6196   -4.3312    6.7901 H   0  0  0  0  0  0  0  0  0  0  0  0
    3.2437   -4.9865    6.4285 H   0  0  0  0  0  0  0  0  0  0  0  0
    2.2396   -5.7266    7.7105 H   0  0  0  0  0  0  0  0  0  0  0  0
   -0.4520   -5.6387    6.1647 H   0  0  0  0  0  0  0  0  0  0  0  0
    0.1343   -7.0711    7.0583 H   0  0  0  0  0  0  0  0  0  0  0  0
   -0.3056   -7.2082    5.3316 H   0  0  0  0  0  0  0  0  0  0  0  0
    3.4548   -7.2500    5.2265 H   0  0  0  0  0  0  0  0  0  0  0  0
    1.9751   -8.1376    4.7582 H   0  0  0  0  0  0  0  0  0  0  0  0
    2.4512   -8.0472    6.4737 H   0  0  0  0  0  0  0  0  0  0  0  0
    3.7703   -3.8279   -0.3372 H   0  0  0  0  0  0  0  0  0  0  0  0
    3.7241   -6.4620    1.2631 H   0  0  0  0  0  0  0  0  0  0  0  0
    5.1322   -5.4015    1.0638 H   0  0  0  0  0  0  0  0  0  0  0  0
    4.4452   -6.2423   -0.3506 H   0  0  0  0  0  0  0  0  0  0  0  0
    1.4318   -5.7476    0.1849 H   0  0  0  0  0  0  0  0  0  0  0  0
    2.2451   -5.4679   -1.3722 H   0  0  0  0  0  0  0  0  0  0  0  0
    1.2999   -4.1622   -0.6141 H   0  0  0  0  0  0  0  0  0  0  0  0
    4.7750   -2.4013    0.9820 H   0  0  0  0  0  0  0  0  0  0  0  0
    5.8186    0.7623    0.2718 H   0  0  0  0  0  0  0  0  0  0  0  0
    5.3108    0.2924   -2.6071 H   0  0  0  0  0  0  0  0  0  0  0  0
    6.1704    2.8902   -1.1743 H   0  0  0  0  0  0  0  0  0  0  0  0
    4.5327    2.5138   -1.7775 H   0  0  0  0  0  0  0  0  0  0  0  0
    5.8825    2.7335   -2.9212 H   0  0  0  0  0  0  0  0  0  0  0  0
    8.0515    1.0150   -1.3983 H   0  0  0  0  0  0  0  0  0  0  0  0
    7.6912    0.9029   -3.1394 H   0  0  0  0  0  0  0  0  0  0  0  0
    7.5889   -0.5534   -2.1182 H   0  0  0  0  0  0  0  0  0  0  0  0
    3.5910   -0.1356    3.3605 H   0  0  0  0  0  0  0  0  0  0  0  0
    4.9495    0.8064    5.1922 H   0  0  0  0  0  0  0  0  0  0  0  0
    7.0852    1.4543    6.1277 H   0  0  0  0  0  0  0  0  0  0  0  0
    8.4952    1.5324    5.0415 H   0  0  0  0  0  0  0  0  0  0  0  0
    8.1755    0.0590    5.9730 H   0  0  0  0  0  0  0  0  0  0  0  0
    8.5427   -0.3111    3.0961 H   0  0  0  0  0  0  0  0  0  0  0  0
    7.1890   -1.2344    1.2633 H   0  0  0  0  0  0  0  0  0  0  0  0
  1  2  1  0
  1 32  1  0
  1 33  1  0
  1 34  1  0
  2  3  1  0
  2 35  1  0
  2 36  1  0
  3  4  1  0
  3 18  1  0
  4  5  2  0
  4  6  1  0
  6  7  1  0
  6 15  1  0
  6 37  1  1
  7  8  1  0
  7 38  1  0
  8  9  2  0
  8 10  1  0
 11 10  1  6
 11 12  1  0
 11 13  1  0
 11 14  1  0
 12 39  1  0
 12 40  1  0
 12 41  1  0
 13 42  1  0
 13 43  1  0
 13 44  1  0
 14 45  1  0
 14 46  1  0
 14 47  1  0
 15 16  1  0
 15 17  1  0
 15 48  1  6
 16 49  1  0
 16 50  1  0
 16 51  1  0
 17 52  1  0
 17 53  1  0
 17 54  1  0
 18 19  1  0
 18 25  1  0
 18 55  1  6
 19 20  2  0
 19 21  1  0
 21 22  1  0
 21 56  1  0
 22 23  1  0
 22 24  1  0
 22 57  1  6
 23 58  1  0
 23 59  1  0
 23 60  1  0
 24 61  1  0
 24 62  1  0
 24 63  1  0
 25 26  2  0
 25 31  1  0
 26 27  1  0
 26 64  1  0
 27 28  2  0
 27 65  1  0
 28 29  1  0
 28 30  1  0
 29 66  1  0
 29 67  1  0
 29 68  1  0
 30 31  2  0
 30 69  1  0
 31 70  1  0
M  END

