
     RDKit          3D

 34 34  0  0  0  0  0  0  0  0999 V2000
    1.1520    0.5032    0.5567 C   0  0  0  0  0  0  0  0  0  0  0  0
    2.6624    0.5402    0.4145 C   0  0  1  0  0  0  0  0  0  0  0  0
    3.3853    1.1490    1.6009 C   0  0  0  0  0  0  0  0  0  0  0  0
    3.3400   -0.5762   -0.3501 C   0  0  0  0  0  0  0  0  0  0  0  0
    3.2019    0.7896   -0.9797 C   0  0  2  0  0  0  0  0  0  0  0  0
    4.3850    1.5722   -1.1762 N   0  0  0  0  0  0  0  0  0  0  0  0
    4.3166    2.9529   -1.1742 C   0  0  0  0  0  0  0  0  0  0  0  0
    3.3145    3.5695   -0.8485 O   0  0  0  0  0  0  0  0  0  0  0  0
    5.4881    3.5703   -1.5867 N   0  0  0  0  0  0  0  0  0  0  0  0
    5.6444    4.9891   -1.3983 C   0  0  0  0  0  0  0  0  0  0  0  0
    6.9043    5.2803   -0.5808 C   0  0  0  0  0  0  0  0  0  0  0  0
    7.7476    4.4215   -0.3615 O   0  0  0  0  0  0  0  0  0  0  0  0
    7.0425    6.5615   -0.1548 N   0  0  0  0  0  0  0  0  0  0  0  0
    8.2047    6.9921    0.5729 C   0  0  0  0  0  0  0  0  0  0  0  0
    8.1101    8.4885    0.8459 C   0  0  0  0  0  0  0  0  0  0  0  0
    7.1787    9.1636    0.5013 O   0  0  0  0  0  0  0  0  0  0  0  0
    9.1491    9.0205    1.5126 O   0  0  0  0  0  0  0  0  0  0  0  0
    0.8512   -0.0916    1.4359 H   0  0  0  0  0  0  0  0  0  0  0  0
    0.6688    0.0588   -0.3279 H   0  0  0  0  0  0  0  0  0  0  0  0
    0.7531    1.5235    0.6806 H   0  0  0  0  0  0  0  0  0  0  0  0
    3.1776    0.5729    2.5184 H   0  0  0  0  0  0  0  0  0  0  0  0
    3.0509    2.1867    1.7599 H   0  0  0  0  0  0  0  0  0  0  0  0
    4.4739    1.1675    1.4490 H   0  0  0  0  0  0  0  0  0  0  0  0
    2.7335   -1.3913   -0.7556 H   0  0  0  0  0  0  0  0  0  0  0  0
    4.3406   -0.8766   -0.0237 H   0  0  0  0  0  0  0  0  0  0  0  0
    2.4395    0.8986   -1.7630 H   0  0  0  0  0  0  0  0  0  0  0  0
    5.1367    1.1430   -1.7057 H   0  0  0  0  0  0  0  0  0  0  0  0
    6.3602    3.0585   -1.4665 H   0  0  0  0  0  0  0  0  0  0  0  0
    4.7433    5.3794   -0.8985 H   0  0  0  0  0  0  0  0  0  0  0  0
    5.7372    5.5281   -2.3617 H   0  0  0  0  0  0  0  0  0  0  0  0
    6.3325    7.2703   -0.3232 H   0  0  0  0  0  0  0  0  0  0  0  0
    9.1325    6.7765    0.0097 H   0  0  0  0  0  0  0  0  0  0  0  0
    8.3062    6.4533    1.5351 H   0  0  0  0  0  0  0  0  0  0  0  0
    9.8159    8.3486    1.7186 H   0  0  0  0  0  0  0  0  0  0  0  0
  2  1  1  6
  1 18  1  0
  1 19  1  0
  1 20  1  0
  2  3  1  0
  2  4  1  0
  2  5  1  0
  3 21  1  0
  3 22  1  0
  3 23  1  0
  4  5  1  0
  4 24  1  0
  4 25  1  0
  5  6  1  0
  5 26  1  6
  6  7  1  0
  6 27  1  0
  7  8  2  0
  7  9  1  0
  9 10  1  0
  9 28  1  0
 10 11  1  0
 10 29  1  0
 10 30  1  0
 11 12  2  0
 11 13  1  0
 13 14  1  0
 13 31  1  0
 14 15  1  0
 14 32  1  0
 14 33  1  0
 15 16  2  0
 15 17  1  0
 17 34  1  0
M  END

