
     RDKit          3D

 43 44  0  0  0  0  0  0  0  0999 V2000
    6.1937    0.9304   -2.7183 C   0  0  0  0  0  0  0  0  0  0  0  0
    5.9752   -0.3970   -1.9866 C   0  0  0  0  0  0  0  0  0  0  0  0
    4.5886   -0.5065   -1.3194 C   0  0  1  0  0  0  0  0  0  0  0  0
    4.4334    0.4305   -0.7576 H   0  0  0  0  0  0  0  0  0  0  0  0
    3.4579   -0.6388   -2.3489 C   0  0  0  0  0  0  0  0  0  0  0  0
    4.4558   -1.5857   -0.2134 C   0  0  2  0  0  0  0  0  0  0  0  0
    3.4304   -1.4954    0.1875 H   0  0  0  0  0  0  0  0  0  0  0  0
    5.3626   -1.3290    1.0072 C   0  0  0  0  0  0  0  0  0  0  0  0
    5.8889   -0.2730    1.2164 O   0  0  0  0  0  0  0  0  0  0  0  0
    5.4345   -2.3301    1.9063 O   0  0  0  0  0  0  0  0  0  0  0  0
    4.5163   -2.9913   -0.6652 N   0  0  0  0  0  0  0  0  0  0  0  0
    5.7503   -3.6072   -0.9900 C   0  0  0  0  0  0  0  0  0  0  0  0
    6.8198   -3.0663   -0.8283 O   0  0  0  0  0  0  0  0  0  0  0  0
    5.5264   -4.9819   -1.5086 C   0  0  0  0  0  0  0  0  0  0  0  0
    6.5833   -5.7371   -1.9034 C   0  0  0  0  0  0  0  0  0  0  0  0
    6.6650   -7.0868   -2.4402 C   0  0  0  0  0  0  0  0  0  0  0  0
    7.9468   -7.5858   -2.7478 C   0  0  0  0  0  0  0  0  0  0  0  0
    8.0968   -8.8741   -3.2659 C   0  0  0  0  0  0  0  0  0  0  0  0
    6.9852   -9.6811   -3.4859 C   0  0  0  0  0  0  0  0  0  0  0  0
    5.6948   -9.2005   -3.1855 C   0  0  0  0  0  0  0  0  0  0  0  0
    4.6740  -10.0533   -3.4324 O   0  0  0  0  0  0  0  0  0  0  0  0
    3.3486   -9.6525   -3.1549 C   0  0  0  0  0  0  0  0  0  0  0  0
    5.5373   -7.9114   -2.6658 C   0  0  0  0  0  0  0  0  0  0  0  0
    3.8020   -5.3562   -1.4735 S   0  0  0  0  0  0  0  0  0  0  0  0
    3.3802   -3.7730   -0.8011 C   0  0  0  0  0  0  0  0  0  0  0  0
    1.8350   -3.3937   -0.3911 S   0  0  0  0  0  0  0  0  0  0  0  0
    7.2069    0.9740   -3.1481 H   0  0  0  0  0  0  0  0  0  0  0  0
    6.0915    1.7843   -2.0280 H   0  0  0  0  0  0  0  0  0  0  0  0
    5.4828    1.0827   -3.5464 H   0  0  0  0  0  0  0  0  0  0  0  0
    6.7541   -0.5116   -1.2218 H   0  0  0  0  0  0  0  0  0  0  0  0
    6.1131   -1.2331   -2.6941 H   0  0  0  0  0  0  0  0  0  0  0  0
    3.4791    0.2015   -3.0579 H   0  0  0  0  0  0  0  0  0  0  0  0
    2.4658   -0.6518   -1.8736 H   0  0  0  0  0  0  0  0  0  0  0  0
    3.5569   -1.5658   -2.9386 H   0  0  0  0  0  0  0  0  0  0  0  0
    4.9343   -3.1019    1.6045 H   0  0  0  0  0  0  0  0  0  0  0  0
    7.5411   -5.2175   -1.7881 H   0  0  0  0  0  0  0  0  0  0  0  0
    8.8230   -6.9566   -2.5771 H   0  0  0  0  0  0  0  0  0  0  0  0
    9.0939   -9.2537   -3.5012 H   0  0  0  0  0  0  0  0  0  0  0  0
    7.0797  -10.6909   -3.8900 H   0  0  0  0  0  0  0  0  0  0  0  0
    2.7037  -10.4979   -3.4279 H   0  0  0  0  0  0  0  0  0  0  0  0
    3.0540   -8.7702   -3.7507 H   0  0  0  0  0  0  0  0  0  0  0  0
    3.2055   -9.4239   -2.0837 H   0  0  0  0  0  0  0  0  0  0  0  0
    4.5393   -7.5455   -2.4367 H   0  0  0  0  0  0  0  0  0  0  0  0
  1  2  1  0
  1 27  1  0
  1 28  1  0
  1 29  1  0
  2  3  1  0
  2 30  1  0
  2 31  1  0
  3  4  1  1
  3  5  1  0
  3  6  1  0
  5 32  1  0
  5 33  1  0
  5 34  1  0
  6  7  1  1
  6  8  1  0
  6 11  1  0
  8  9  2  0
  8 10  1  0
 10 35  1  0
 11 12  1  0
 11 25  1  0
 12 13  2  0
 12 14  1  0
 14 15  2  0
 14 24  1  0
 15 16  1  0
 15 36  1  0
 16 17  2  0
 16 23  1  0
 17 18  1  0
 17 37  1  0
 18 19  2  0
 18 38  1  0
 19 20  1  0
 19 39  1  0
 20 21  1  0
 20 23  2  0
 21 22  1  0
 22 40  1  0
 22 41  1  0
 22 42  1  0
 23 43  1  0
 24 25  1  0
 25 26  2  0
M  END

