
     RDKit          3D

 80 85  0  0  0  0  0  0  0  0999 V2000
   11.0668    0.4967    1.9652 C   0  0  0  0  0  0  0  0  0  0  0  0
   10.4742    0.4200    3.3730 C   0  0  0  0  0  0  0  0  0  0  0  0
    9.5421   -0.7692    3.6975 C   0  0  1  0  0  0  0  0  0  0  0  0
   10.1498   -2.1074    3.2642 C   0  0  0  0  0  0  0  0  0  0  0  0
    9.2245   -0.7427    5.1953 C   0  0  0  0  0  0  0  0  0  0  0  0
    8.3211   -0.5176    2.9007 O   0  0  0  0  0  0  0  0  0  0  0  0
    7.0483   -0.8656    3.2682 C   0  0  0  0  0  0  0  0  0  0  0  0
    6.7345   -2.1752    3.7183 C   0  0  0  0  0  0  0  0  0  0  0  0
    5.4289   -2.5114    4.0170 C   0  0  0  0  0  0  0  0  0  0  0  0
    4.3832   -1.5601    3.8365 C   0  0  0  0  0  0  0  0  0  0  0  0
    3.0238   -1.9132    4.0532 C   0  0  0  0  0  0  0  0  0  0  0  0
    2.0637   -0.9418    3.8502 C   0  0  0  0  0  0  0  0  0  0  0  0
    2.4784    0.3460    3.4236 C   0  0  0  0  0  0  0  0  0  0  0  0
    3.7265    0.6866    3.1853 N   0  0  0  0  0  0  0  0  0  0  0  0
    4.7025   -0.2441    3.3737 C   0  0  0  0  0  0  0  0  0  0  0  0
    6.0598    0.1044    3.0881 C   0  0  0  0  0  0  0  0  0  0  0  0
    6.4087    1.4751    2.5951 C   0  0  0  0  0  0  0  0  0  0  0  0
    6.4678    1.7561    1.2297 C   0  0  0  0  0  0  0  0  0  0  0  0
    6.1223    0.7010    0.1954 C   0  0  0  0  0  0  0  0  0  0  0  0
    7.2994    0.1263   -0.6036 C   0  0  0  0  0  0  0  0  0  0  0  0
    7.3169    0.0865   -1.8066 O   0  0  0  0  0  0  0  0  0  0  0  0
    8.3229   -0.3732    0.1094 O   0  0  0  0  0  0  0  0  0  0  0  0
    6.8242    3.0737    0.7819 C   0  0  0  0  0  0  0  0  0  0  0  0
    6.8427    3.4095   -0.6898 C   0  0  0  0  0  0  0  0  0  0  0  0
    7.1241    4.0525    1.7112 C   0  0  0  0  0  0  0  0  0  0  0  0
    7.0675    3.8017    3.1027 C   0  0  0  0  0  0  0  0  0  0  0  0
    7.3616    4.8164    3.9688 N   0  0  0  0  0  0  0  0  0  0  0  0
    7.2871    4.5900    5.2518 C   0  0  0  0  0  0  0  0  0  0  0  0
    7.5731    5.5748    6.1310 O   0  0  0  0  0  0  0  0  0  0  0  0
    7.9481    6.8396    5.6048 C   0  0  0  0  0  0  0  0  0  0  0  0
    8.2070    7.7970    6.7423 C   0  0  0  0  0  0  0  0  0  0  0  0
    7.9784    7.4641    8.0836 C   0  0  0  0  0  0  0  0  0  0  0  0
    8.2301    8.3841    9.1057 C   0  0  0  0  0  0  0  0  0  0  0  0
    8.7240    9.6552    8.8042 C   0  0  0  0  0  0  0  0  0  0  0  0
    8.9672   10.0075    7.4742 C   0  0  0  0  0  0  0  0  0  0  0  0
    8.6976    9.0819    6.4675 C   0  0  0  0  0  0  0  0  0  0  0  0
    8.9955    9.3924    5.1316 O   0  0  0  0  0  0  0  0  0  0  0  0
    8.1922   10.2416    4.4557 C   0  0  1  0  0  0  0  0  0  0  0  0
    8.1966   11.4808    4.9745 F   0  0  0  0  0  0  0  0  0  0  0  0
    8.6291   10.3105    3.2059 F   0  0  0  0  0  0  0  0  0  0  0  0
    6.9140    9.8289    4.4438 F   0  0  0  0  0  0  0  0  0  0  0  0
    6.9100    3.3360    5.8207 C   0  0  0  0  0  0  0  0  0  0  0  0
    6.6192    2.3050    4.9636 C   0  0  0  0  0  0  0  0  0  0  0  0
    6.6947    2.4985    3.5521 C   0  0  0  0  0  0  0  0  0  0  0  0
    2.7425   -3.3426    4.4428 C   0  0  0  0  0  0  0  0  0  0  0  0
    3.9398   -3.9296    5.1844 C   0  0  0  0  0  0  0  0  0  0  0  0
    5.1556   -3.7679    4.4523 O   0  0  0  0  0  0  0  0  0  0  0  0
   11.6609    1.4184    1.8630 H   0  0  0  0  0  0  0  0  0  0  0  0
   10.2958    0.5137    1.1831 H   0  0  0  0  0  0  0  0  0  0  0  0
   11.7407   -0.3480    1.7522 H   0  0  0  0  0  0  0  0  0  0  0  0
    9.9071    1.3397    3.5898 H   0  0  0  0  0  0  0  0  0  0  0  0
   11.2982    0.3854    4.1064 H   0  0  0  0  0  0  0  0  0  0  0  0
   11.1726   -2.2039    3.6612 H   0  0  0  0  0  0  0  0  0  0  0  0
   10.1979   -2.1763    2.1682 H   0  0  0  0  0  0  0  0  0  0  0  0
    9.5693   -2.9638    3.6366 H   0  0  0  0  0  0  0  0  0  0  0  0
   10.1576   -0.8811    5.7618 H   0  0  0  0  0  0  0  0  0  0  0  0
    8.5316   -1.5394    5.4967 H   0  0  0  0  0  0  0  0  0  0  0  0
    8.7913    0.2261    5.4855 H   0  0  0  0  0  0  0  0  0  0  0  0
    7.5059   -2.9340    3.8284 H   0  0  0  0  0  0  0  0  0  0  0  0
    1.0023   -1.1516    4.0040 H   0  0  0  0  0  0  0  0  0  0  0  0
    1.7212    1.1253    3.2676 H   0  0  0  0  0  0  0  0  0  0  0  0
    5.4237    1.0981   -0.5527 H   0  0  0  0  0  0  0  0  0  0  0  0
    5.6212   -0.1490    0.6828 H   0  0  0  0  0  0  0  0  0  0  0  0
    8.2226   -0.2791    1.0802 H   0  0  0  0  0  0  0  0  0  0  0  0
    5.8295    3.3455   -1.1232 H   0  0  0  0  0  0  0  0  0  0  0  0
    7.4693    2.7198   -1.2753 H   0  0  0  0  0  0  0  0  0  0  0  0
    7.2105    4.4323   -0.8527 H   0  0  0  0  0  0  0  0  0  0  0  0
    7.4016    5.0597    1.3937 H   0  0  0  0  0  0  0  0  0  0  0  0
    7.1522    7.2233    4.9442 H   0  0  0  0  0  0  0  0  0  0  0  0
    8.8419    6.7372    4.9666 H   0  0  0  0  0  0  0  0  0  0  0  0
    7.6002    6.4682    8.3147 H   0  0  0  0  0  0  0  0  0  0  0  0
    8.0429    8.1023   10.1447 H   0  0  0  0  0  0  0  0  0  0  0  0
    8.9288   10.3740    9.6010 H   0  0  0  0  0  0  0  0  0  0  0  0
    9.3664   10.9871    7.2093 H   0  0  0  0  0  0  0  0  0  0  0  0
    6.8586    3.2306    6.9053 H   0  0  0  0  0  0  0  0  0  0  0  0
    6.3190    1.3325    5.3578 H   0  0  0  0  0  0  0  0  0  0  0  0
    2.5514   -3.9361    3.5301 H   0  0  0  0  0  0  0  0  0  0  0  0
    1.8378   -3.4177    5.0668 H   0  0  0  0  0  0  0  0  0  0  0  0
    3.8288   -5.0110    5.3415 H   0  0  0  0  0  0  0  0  0  0  0  0
    4.0497   -3.4450    6.1729 H   0  0  0  0  0  0  0  0  0  0  0  0
  1  2  1  0
  1 48  1  0
  1 49  1  0
  1 50  1  0
  2  3  1  0
  2 51  1  0
  2 52  1  0
  3  4  1  0
  3  5  1  0
  3  6  1  6
  4 53  1  0
  4 54  1  0
  4 55  1  0
  5 56  1  0
  5 57  1  0
  5 58  1  0
  6  7  1  0
  7  8  2  0
  7 16  1  0
  8  9  1  0
  8 59  1  0
  9 10  2  0
  9 47  1  0
 10 11  1  0
 10 15  1  0
 11 12  2  0
 11 45  1  0
 12 13  1  0
 12 60  1  0
 13 14  2  0
 13 61  1  0
 14 15  1  0
 15 16  2  0
 16 17  1  0
 17 18  2  0
 17 44  1  0
 18 19  1  0
 18 23  1  0
 19 20  1  0
 19 62  1  0
 19 63  1  0
 20 21  2  0
 20 22  1  0
 22 64  1  0
 23 24  1  0
 23 25  2  0
 24 65  1  0
 24 66  1  0
 24 67  1  0
 25 26  1  0
 25 68  1  0
 26 27  1  0
 26 44  2  0
 27 28  2  0
 28 29  1  0
 28 42  1  0
 29 30  1  0
 30 31  1  0
 30 69  1  0
 30 70  1  0
 31 32  2  0
 31 36  1  0
 32 33  1  0
 32 71  1  0
 33 34  2  0
 33 72  1  0
 34 35  1  0
 34 73  1  0
 35 36  2  0
 35 74  1  0
 36 37  1  0
 37 38  1  0
 38 39  1  1
 38 40  1  0
 38 41  1  0
 42 43  2  0
 42 75  1  0
 43 44  1  0
 43 76  1  0
 45 46  1  0
 45 77  1  0
 45 78  1  0
 46 47  1  0
 46 79  1  0
 46 80  1  0
M  END

