
     RDKit          3D

 21 21  0  0  0  0  0  0  0  0999 V2000
    1.0329   -0.6329   -0.4200 C   0  0  0  0  0  0  0  0  0  0  0  0
    2.4513   -0.6149   -0.2529 O   0  0  0  0  0  0  0  0  0  0  0  0
    2.9237   -1.1092    0.9057 C   0  0  0  0  0  0  0  0  0  0  0  0
    2.2138   -1.5481    1.7781 O   0  0  0  0  0  0  0  0  0  0  0  0
    4.4369   -1.0343    0.9524 C   0  0  0  0  0  0  0  0  0  0  0  0
    5.0443   -1.5524    2.2583 C   0  0  1  0  0  0  0  0  0  0  0  0
    4.9088   -3.0511    2.4912 C   0  0  0  0  0  0  0  0  0  0  0  0
    5.9384   -3.6527    2.9339 N   0  0  0  0  0  0  0  0  0  0  0  0
    7.0185   -2.6741    3.1064 C   0  0  0  0  0  0  0  0  0  0  0  0
    6.5774   -1.3890    2.3661 C   0  0  0  0  0  0  0  0  0  0  0  0
    0.8359   -0.2024   -1.4096 H   0  0  0  0  0  0  0  0  0  0  0  0
    0.5386   -0.0357    0.3614 H   0  0  0  0  0  0  0  0  0  0  0  0
    0.6450   -1.6615   -0.3669 H   0  0  0  0  0  0  0  0  0  0  0  0
    4.7197    0.0185    0.7807 H   0  0  0  0  0  0  0  0  0  0  0  0
    4.8311   -1.5868    0.0814 H   0  0  0  0  0  0  0  0  0  0  0  0
    4.5317   -1.0406    3.0945 H   0  0  0  0  0  0  0  0  0  0  0  0
    3.9630   -3.5835    2.3262 H   0  0  0  0  0  0  0  0  0  0  0  0
    7.9692   -3.0903    2.7358 H   0  0  0  0  0  0  0  0  0  0  0  0
    7.1561   -2.5051    4.1903 H   0  0  0  0  0  0  0  0  0  0  0  0
    7.0208   -1.3649    1.3562 H   0  0  0  0  0  0  0  0  0  0  0  0
    6.8797   -0.4641    2.8794 H   0  0  0  0  0  0  0  0  0  0  0  0
  1  2  1  0
  1 11  1  0
  1 12  1  0
  1 13  1  0
  2  3  1  0
  3  4  2  0
  3  5  1  0
  5  6  1  0
  5 14  1  0
  5 15  1  0
  6  7  1  0
  6 10  1  0
  6 16  1  1
  7  8  2  0
  7 17  1  0
  8  9  1  0
  9 10  1  0
  9 18  1  0
  9 19  1  0
 10 20  1  0
 10 21  1  0
M  END

