
     RDKit          3D

 31 32  0  0  0  0  0  0  0  0999 V2000
    0.8880   -0.3387    0.3642 C   0  0  0  0  0  0  0  0  0  0  0  0
    2.3674   -0.1763    0.1294 C   0  0  0  0  0  0  0  0  0  0  0  0
    2.9178    1.1096    0.0121 C   0  0  0  0  0  0  0  0  0  0  0  0
    4.2924    1.3040   -0.2075 C   0  0  0  0  0  0  0  0  0  0  0  0
    4.8862    2.5718   -0.3278 N   0  0  0  0  0  0  0  0  0  0  0  0
    4.2940    3.8184   -0.2704 C   0  0  0  0  0  0  0  0  0  0  0  0
    3.0945    3.9956   -0.1240 O   0  0  0  0  0  0  0  0  0  0  0  0
    5.2214    4.9719   -0.4100 C   0  0  0  0  0  0  0  0  0  0  0  0
    4.7988    6.2770   -0.5262 C   0  0  0  0  0  0  0  0  0  0  0  0
    5.8663    7.2181   -0.6448 C   0  0  0  0  0  0  0  0  0  0  0  0
    5.6669    8.5841   -0.8368 N   0  0  0  0  0  0  0  0  0  0  0  0
    7.1143    6.6112   -0.6116 C   0  0  0  0  0  0  0  0  0  0  0  0
    8.4493    7.2816   -0.7207 C   0  0  0  0  0  0  0  0  0  0  0  0
    6.9617    4.8867   -0.4343 S   0  0  0  0  0  0  0  0  0  0  0  0
    5.1306    0.1796   -0.3124 C   0  0  0  0  0  0  0  0  0  0  0  0
    4.6032   -1.1033   -0.1997 C   0  0  0  0  0  0  0  0  0  0  0  0
    3.2350   -1.2772    0.0194 C   0  0  0  0  0  0  0  0  0  0  0  0
    2.5627   -3.0639    0.1669 Br  0  0  0  0  0  0  0  0  0  0  0  0
    0.3905    0.6395    0.4184 H   0  0  0  0  0  0  0  0  0  0  0  0
    0.6909   -0.8832    1.3020 H   0  0  0  0  0  0  0  0  0  0  0  0
    0.4187   -0.9249   -0.4426 H   0  0  0  0  0  0  0  0  0  0  0  0
    2.2728    1.9818    0.0889 H   0  0  0  0  0  0  0  0  0  0  0  0
    5.8838    2.5520   -0.5072 H   0  0  0  0  0  0  0  0  0  0  0  0
    3.7383    6.5327   -0.5291 H   0  0  0  0  0  0  0  0  0  0  0  0
    4.7804    8.9375   -0.4927 H   0  0  0  0  0  0  0  0  0  0  0  0
    6.4374    9.1811   -0.5545 H   0  0  0  0  0  0  0  0  0  0  0  0
    8.5903    8.0374    0.0740 H   0  0  0  0  0  0  0  0  0  0  0  0
    8.5621    7.7993   -1.6900 H   0  0  0  0  0  0  0  0  0  0  0  0
    9.2767    6.5630   -0.6319 H   0  0  0  0  0  0  0  0  0  0  0  0
    6.2036    0.3077   -0.4825 H   0  0  0  0  0  0  0  0  0  0  0  0
    5.2572   -1.9729   -0.2817 H   0  0  0  0  0  0  0  0  0  0  0  0
  1  2  1  0
  1 19  1  0
  1 20  1  0
  1 21  1  0
  2  3  2  0
  2 17  1  0
  3  4  1  0
  3 22  1  0
  4  5  1  0
  4 15  2  0
  5  6  1  0
  5 23  1  0
  6  7  2  0
  6  8  1  0
  8  9  2  0
  8 14  1  0
  9 10  1  0
  9 24  1  0
 10 11  1  0
 10 12  2  0
 11 25  1  0
 11 26  1  0
 12 13  1  0
 12 14  1  0
 13 27  1  0
 13 28  1  0
 13 29  1  0
 15 16  1  0
 15 30  1  0
 16 17  2  0
 16 31  1  0
 17 18  1  0
M  END

