
     RDKit          3D

 74 80  0  0  0  0  0  0  0  0999 V2000
    8.6516   -0.1238    3.5038 C   0  0  0  0  0  0  0  0  0  0  0  0
    7.5963   -0.3137    2.4133 C   0  0  0  0  0  0  0  0  0  0  0  0
    8.1105   -0.0087    1.0030 C   0  0  0  0  0  0  0  0  0  0  0  0
    7.0591   -0.1965   -0.0946 C   0  0  0  0  0  0  0  0  0  0  0  0
    7.5810    0.1099   -1.5010 C   0  0  0  0  0  0  0  0  0  0  0  0
    6.5084   -0.0865   -2.5759 C   0  0  0  0  0  0  0  0  0  0  0  0
    6.9920    0.2037   -3.9343 N   0  0  0  0  0  0  0  0  0  0  0  0
    7.5757   -0.8497   -4.6527 C   0  0  0  0  0  0  0  0  0  0  0  0
    7.6739   -1.9598   -4.1599 O   0  0  0  0  0  0  0  0  0  0  0  0
    8.0599   -0.5426   -6.0268 C   0  0  0  0  0  0  0  0  0  0  0  0
    8.6513   -1.5522   -6.7693 C   0  0  0  0  0  0  0  0  0  0  0  0
    9.1372   -1.2818   -8.0636 C   0  0  0  0  0  0  0  0  0  0  0  0
    9.0115   -0.0186   -8.6133 C   0  0  0  0  0  0  0  0  0  0  0  0
    8.3859    1.0413   -7.8992 C   0  0  0  0  0  0  0  0  0  0  0  0
    8.2249    2.3752   -8.4251 C   0  0  0  0  0  0  0  0  0  0  0  0
    8.6279    2.7708   -9.7863 C   0  0  0  0  0  0  0  0  0  0  0  0
    9.2942    3.9287  -10.1432 C   0  0  0  0  0  0  0  0  0  0  0  0
    9.4618    4.0816  -11.5444 C   0  0  0  0  0  0  0  0  0  0  0  0
    8.9110    3.0467  -12.2741 C   0  0  0  0  0  0  0  0  0  0  0  0
    8.8836    2.8617  -13.7179 C   0  0  0  0  0  0  0  0  0  0  0  0
    9.3716    3.7328  -14.7292 C   0  0  0  0  0  0  0  0  0  0  0  0
    9.0874    3.1001  -15.9300 C   0  0  0  0  0  0  0  0  0  0  0  0
    9.2932    3.6101  -17.2999 C   0  0  0  0  0  0  0  0  0  0  0  0
   10.5187    4.2131  -17.6382 C   0  0  0  0  0  0  0  0  0  0  0  0
   10.7193    4.7559  -18.9094 C   0  0  0  0  0  0  0  0  0  0  0  0
    9.6998    4.7042  -19.8643 C   0  0  0  0  0  0  0  0  0  0  0  0
    8.4759    4.1110  -19.5374 C   0  0  0  0  0  0  0  0  0  0  0  0
    8.2711    3.5705  -18.2671 C   0  0  0  0  0  0  0  0  0  0  0  0
    8.4771    1.9076  -15.5920 N   0  0  0  0  0  0  0  0  0  0  0  0
    8.0531    0.8332  -16.4288 C   0  0  0  0  0  0  0  0  0  0  0  0
    8.8416    0.4057  -17.5048 C   0  0  0  0  0  0  0  0  0  0  0  0
    8.4056   -0.6576  -18.2989 C   0  0  0  0  0  0  0  0  0  0  0  0
    7.2001   -1.3060  -18.0152 C   0  0  0  0  0  0  0  0  0  0  0  0
    6.4284   -0.8870  -16.9263 C   0  0  0  0  0  0  0  0  0  0  0  0
    6.8481    0.1816  -16.1328 C   0  0  0  0  0  0  0  0  0  0  0  0
    8.3494    1.7670  -14.2592 N   0  0  0  0  0  0  0  0  0  0  0  0
    8.1801    1.8669  -11.2205 S   0  0  0  0  0  0  0  0  0  0  0  0
    7.6704    3.3559   -7.6005 C   0  0  0  0  0  0  0  0  0  0  0  0
    7.2475    3.0767   -6.2900 C   0  0  0  0  0  0  0  0  0  0  0  0
    7.3557    1.7952   -5.7753 C   0  0  0  0  0  0  0  0  0  0  0  0
    7.9262    0.7650   -6.5680 C   0  0  0  0  0  0  0  0  0  0  0  0
    6.8731    1.5227   -4.3965 C   0  0  0  0  0  0  0  0  0  0  0  0
    6.3916    2.3903   -3.6888 O   0  0  0  0  0  0  0  0  0  0  0  0
    8.2479   -0.3514    4.5035 H   0  0  0  0  0  0  0  0  0  0  0  0
    9.0247    0.9141    3.5244 H   0  0  0  0  0  0  0  0  0  0  0  0
    9.5215   -0.7818    3.3389 H   0  0  0  0  0  0  0  0  0  0  0  0
    6.7238    0.3301    2.6281 H   0  0  0  0  0  0  0  0  0  0  0  0
    7.2165   -1.3514    2.4441 H   0  0  0  0  0  0  0  0  0  0  0  0
    8.9828   -0.6530    0.7857 H   0  0  0  0  0  0  0  0  0  0  0  0
    8.4901    1.0296    0.9699 H   0  0  0  0  0  0  0  0  0  0  0  0
    6.1876    0.4491    0.1215 H   0  0  0  0  0  0  0  0  0  0  0  0
    6.6804   -1.2350   -0.0625 H   0  0  0  0  0  0  0  0  0  0  0  0
    8.4397   -0.5444   -1.7288 H   0  0  0  0  0  0  0  0  0  0  0  0
    7.9433    1.1512   -1.5437 H   0  0  0  0  0  0  0  0  0  0  0  0
    5.6594    0.5835   -2.3886 H   0  0  0  0  0  0  0  0  0  0  0  0
    6.1595   -1.1272   -2.5755 H   0  0  0  0  0  0  0  0  0  0  0  0
    8.7393   -2.5440   -6.3219 H   0  0  0  0  0  0  0  0  0  0  0  0
    9.6244   -2.0745   -8.6361 H   0  0  0  0  0  0  0  0  0  0  0  0
    9.4084    0.1699   -9.6106 H   0  0  0  0  0  0  0  0  0  0  0  0
    9.6734    4.6386   -9.4066 H   0  0  0  0  0  0  0  0  0  0  0  0
    9.9793    4.9249  -12.0036 H   0  0  0  0  0  0  0  0  0  0  0  0
    9.8200    4.7158  -14.6128 H   0  0  0  0  0  0  0  0  0  0  0  0
   11.3219    4.2430  -16.8982 H   0  0  0  0  0  0  0  0  0  0  0  0
   11.6791    5.2169  -19.1559 H   0  0  0  0  0  0  0  0  0  0  0  0
    9.8568    5.1269  -20.8597 H   0  0  0  0  0  0  0  0  0  0  0  0
    7.6703    4.0754  -20.2751 H   0  0  0  0  0  0  0  0  0  0  0  0
    7.3058    3.1257  -18.0175 H   0  0  0  0  0  0  0  0  0  0  0  0
    9.7942    0.8939  -17.7126 H   0  0  0  0  0  0  0  0  0  0  0  0
    9.0228   -0.9885  -19.1377 H   0  0  0  0  0  0  0  0  0  0  0  0
    6.8665   -2.1408  -18.6362 H   0  0  0  0  0  0  0  0  0  0  0  0
    5.4888   -1.3937  -16.6924 H   0  0  0  0  0  0  0  0  0  0  0  0
    6.2622    0.5156  -15.2758 H   0  0  0  0  0  0  0  0  0  0  0  0
    7.5313    4.3617   -8.0009 H   0  0  0  0  0  0  0  0  0  0  0  0
    6.8074    3.8550   -5.6637 H   0  0  0  0  0  0  0  0  0  0  0  0
  1  2  1  0
  1 44  1  0
  1 45  1  0
  1 46  1  0
  2  3  1  0
  2 47  1  0
  2 48  1  0
  3  4  1  0
  3 49  1  0
  3 50  1  0
  4  5  1  0
  4 51  1  0
  4 52  1  0
  5  6  1  0
  5 53  1  0
  5 54  1  0
  6  7  1  0
  6 55  1  0
  6 56  1  0
  7  8  1  0
  7 42  1  0
  8  9  2  0
  8 10  1  0
 10 11  2  0
 10 41  1  0
 11 12  1  0
 11 57  1  0
 12 13  2  0
 12 58  1  0
 13 14  1  0
 13 59  1  0
 14 15  1  0
 14 41  2  0
 15 16  2  0
 15 38  1  0
 16 17  1  0
 16 37  1  0
 17 18  2  0
 17 60  1  0
 18 19  1  0
 18 61  1  0
 19 20  1  0
 19 37  2  0
 20 21  1  0
 20 36  2  0
 21 22  2  0
 21 62  1  0
 22 23  1  0
 22 29  1  0
 23 24  2  0
 23 28  1  0
 24 25  1  0
 24 63  1  0
 25 26  2  0
 25 64  1  0
 26 27  1  0
 26 65  1  0
 27 28  2  0
 27 66  1  0
 28 67  1  0
 29 30  1  0
 29 36  1  0
 30 31  2  0
 30 35  1  0
 31 32  1  0
 31 68  1  0
 32 33  2  0
 32 69  1  0
 33 34  1  0
 33 70  1  0
 34 35  2  0
 34 71  1  0
 35 72  1  0
 38 39  2  0
 38 73  1  0
 39 40  1  0
 39 74  1  0
 40 41  1  0
 40 42  2  0
 42 43  1  0
M  CHG  2  37   1  43  -1
M  END

