
     RDKit          3D

 46 46  0  0  0  0  0  0  0  0999 V2000
    0.8944   -0.1823    1.7805 C   0  0  0  0  0  0  0  0  0  0  0  0
    2.2661    0.0590    1.1445 C   0  0  0  0  0  0  0  0  0  0  0  0
    3.0490   -1.2365    0.8567 C   0  0  1  0  0  0  0  0  0  0  0  0
    2.4119   -2.1683   -0.1989 C   0  0  0  0  0  0  0  0  0  0  0  0
    2.3336   -1.6491   -1.6366 C   0  0  0  0  0  0  0  0  0  0  0  0
    4.4763   -0.9628    0.5804 N   0  0  0  0  0  0  0  0  0  0  0  0
    4.8508    0.1753   -0.2408 C   0  0  0  0  0  0  0  0  0  0  0  0
    5.3907   -1.8663    1.0918 C   0  0  0  0  0  0  0  0  0  0  0  0
    4.9715   -2.9158    1.6186 O   0  0  0  0  0  0  0  0  0  0  0  0
    6.8323   -1.6344    1.0414 C   0  0  0  0  0  0  0  0  0  0  0  0
    7.7520   -0.1608    0.6126 S   0  0  0  0  0  0  0  0  0  0  0  0
    9.2311   -0.9836    1.0849 C   0  0  0  0  0  0  0  0  0  0  0  0
   10.4275   -0.3493    0.9897 N   0  0  0  0  0  0  0  0  0  0  0  0
   11.6970   -0.9558    1.3655 C   0  0  0  0  0  0  0  0  0  0  0  0
   12.6008   -1.3516    0.1792 C   0  0  1  0  0  0  0  0  0  0  0  0
   11.9541   -2.4192   -0.7107 C   0  0  0  0  0  0  0  0  0  0  0  0
   13.0448   -0.1297   -0.6354 C   0  0  0  0  0  0  0  0  0  0  0  0
    9.0811   -2.2075    1.5163 N   0  0  0  0  0  0  0  0  0  0  0  0
    7.7629   -2.5808    1.5156 C   0  0  0  0  0  0  0  0  0  0  0  0
    7.4454   -3.8168    1.9547 N   0  0  0  0  0  0  0  0  0  0  0  0
    0.4102    0.7721    2.0414 H   0  0  0  0  0  0  0  0  0  0  0  0
    0.9807   -0.7767    2.7051 H   0  0  0  0  0  0  0  0  0  0  0  0
    0.2118   -0.7202    1.1038 H   0  0  0  0  0  0  0  0  0  0  0  0
    2.8747    0.6754    1.8281 H   0  0  0  0  0  0  0  0  0  0  0  0
    2.1333    0.6604    0.2289 H   0  0  0  0  0  0  0  0  0  0  0  0
    3.0592   -1.8198    1.7880 H   0  0  0  0  0  0  0  0  0  0  0  0
    1.3977   -2.4314    0.1488 H   0  0  0  0  0  0  0  0  0  0  0  0
    2.9875   -3.1069   -0.1757 H   0  0  0  0  0  0  0  0  0  0  0  0
    1.7659   -0.7066   -1.7159 H   0  0  0  0  0  0  0  0  0  0  0  0
    1.8287   -2.3839   -2.2843 H   0  0  0  0  0  0  0  0  0  0  0  0
    3.3335   -1.4778   -2.0659 H   0  0  0  0  0  0  0  0  0  0  0  0
    3.9904    0.5026   -0.8358 H   0  0  0  0  0  0  0  0  0  0  0  0
    5.6430   -0.0950   -0.9544 H   0  0  0  0  0  0  0  0  0  0  0  0
    5.1933    1.0465    0.3471 H   0  0  0  0  0  0  0  0  0  0  0  0
   10.4255    0.6048    0.6541 H   0  0  0  0  0  0  0  0  0  0  0  0
   11.4556   -1.8435    1.9658 H   0  0  0  0  0  0  0  0  0  0  0  0
   12.2418   -0.2508    2.0184 H   0  0  0  0  0  0  0  0  0  0  0  0
   13.5041   -1.7920    0.6418 H   0  0  0  0  0  0  0  0  0  0  0  0
   11.0518   -2.0274   -1.2082 H   0  0  0  0  0  0  0  0  0  0  0  0
   11.6496   -3.3017   -0.1276 H   0  0  0  0  0  0  0  0  0  0  0  0
   12.6511   -2.7493   -1.4977 H   0  0  0  0  0  0  0  0  0  0  0  0
   12.1846    0.3566   -1.1271 H   0  0  0  0  0  0  0  0  0  0  0  0
   13.7496   -0.4175   -1.4315 H   0  0  0  0  0  0  0  0  0  0  0  0
   13.5454    0.6227   -0.0031 H   0  0  0  0  0  0  0  0  0  0  0  0
    8.1681   -4.3642    2.4002 H   0  0  0  0  0  0  0  0  0  0  0  0
    6.4483   -3.9947    2.0773 H   0  0  0  0  0  0  0  0  0  0  0  0
  1  2  1  0
  1 21  1  0
  1 22  1  0
  1 23  1  0
  2  3  1  0
  2 24  1  0
  2 25  1  0
  3  4  1  0
  3  6  1  0
  3 26  1  1
  4  5  1  0
  4 27  1  0
  4 28  1  0
  5 29  1  0
  5 30  1  0
  5 31  1  0
  6  7  1  0
  6  8  1  0
  7 32  1  0
  7 33  1  0
  7 34  1  0
  8  9  2  0
  8 10  1  0
 10 11  1  0
 10 19  2  0
 11 12  1  0
 12 13  1  0
 12 18  2  0
 13 14  1  0
 13 35  1  0
 14 15  1  0
 14 36  1  0
 14 37  1  0
 15 16  1  0
 15 17  1  0
 15 38  1  1
 16 39  1  0
 16 40  1  0
 16 41  1  0
 17 42  1  0
 17 43  1  0
 17 44  1  0
 18 19  1  0
 19 20  1  0
 20 45  1  0
 20 46  1  0
M  END

