
     RDKit          3D

 30 31  0  0  0  0  0  0  0  0999 V2000
    1.3061   -0.1094    1.1505 N   0  0  0  0  0  0  0  0  0  0  0  0
    2.4330   -0.1603    0.8727 C   0  0  0  0  0  0  0  0  0  0  0  0
    3.8245   -0.2222    0.5297 C   0  0  0  0  0  0  0  0  0  0  0  0
    4.4949   -1.4562    0.4906 C   0  0  0  0  0  0  0  0  0  0  0  0
    5.8478   -1.5248    0.1580 C   0  0  0  0  0  0  0  0  0  0  0  0
    6.5529   -0.3473   -0.1426 C   0  0  0  0  0  0  0  0  0  0  0  0
    7.8623   -0.3070   -0.4754 O   0  0  0  0  0  0  0  0  0  0  0  0
    8.6187   -1.5025   -0.5417 C   0  0  0  0  0  0  0  0  0  0  0  0
   10.0353   -1.0980   -0.9445 C   0  0  0  0  0  0  0  0  0  0  0  0
   10.9187   -2.2450   -1.0462 N   0  0  0  0  0  0  0  0  0  0  0  0
   11.6957   -2.7066    0.0207 C   0  0  0  0  0  0  0  0  0  0  0  0
   11.6950   -2.2206    1.1248 O   0  0  0  0  0  0  0  0  0  0  0  0
   12.5078   -3.8970   -0.4795 C   0  0  0  0  0  0  0  0  0  0  0  0
   12.1118   -4.0705   -1.9516 C   0  0  0  0  0  0  0  0  0  0  0  0
   11.0849   -2.9765   -2.2259 C   0  0  0  0  0  0  0  0  0  0  0  0
   10.5011   -2.7482   -3.2567 O   0  0  0  0  0  0  0  0  0  0  0  0
    5.8864    0.8924   -0.1052 C   0  0  0  0  0  0  0  0  0  0  0  0
    4.5413    0.9554    0.2261 C   0  0  0  0  0  0  0  0  0  0  0  0
    3.9492   -2.3727    0.7237 H   0  0  0  0  0  0  0  0  0  0  0  0
    6.3407   -2.4963    0.1360 H   0  0  0  0  0  0  0  0  0  0  0  0
    8.1924   -2.1921   -1.2922 H   0  0  0  0  0  0  0  0  0  0  0  0
    8.6322   -2.0097    0.4398 H   0  0  0  0  0  0  0  0  0  0  0  0
   10.4493   -0.4137   -0.1908 H   0  0  0  0  0  0  0  0  0  0  0  0
   10.0081   -0.5969   -1.9223 H   0  0  0  0  0  0  0  0  0  0  0  0
   12.2745   -4.7693    0.1500 H   0  0  0  0  0  0  0  0  0  0  0  0
   13.5760   -3.6775   -0.3296 H   0  0  0  0  0  0  0  0  0  0  0  0
   11.6551   -5.0458   -2.1790 H   0  0  0  0  0  0  0  0  0  0  0  0
   12.9500   -3.9442   -2.6540 H   0  0  0  0  0  0  0  0  0  0  0  0
    6.4541    1.7938   -0.3423 H   0  0  0  0  0  0  0  0  0  0  0  0
    4.0301    1.9196    0.2535 H   0  0  0  0  0  0  0  0  0  0  0  0
  1  2  3  0
  2  3  1  0
  3  4  2  0
  3 18  1  0
  4  5  1  0
  4 19  1  0
  5  6  2  0
  5 20  1  0
  6  7  1  0
  6 17  1  0
  7  8  1  0
  8  9  1  0
  8 21  1  0
  8 22  1  0
  9 10  1  0
  9 23  1  0
  9 24  1  0
 10 11  1  0
 10 15  1  0
 11 12  2  0
 11 13  1  0
 13 14  1  0
 13 25  1  0
 13 26  1  0
 14 15  1  0
 14 27  1  0
 14 28  1  0
 15 16  2  0
 17 18  2  0
 17 29  1  0
 18 30  1  0
M  END

