
     RDKit          3D

 36 38  0  0  0  0  0  0  0  0999 V2000
    0.8121   -0.6385   -0.0326 C   0  0  0  0  0  0  0  0  0  0  0  0
    2.2104    0.0116   -0.0656 C   0  0  1  0  0  0  0  0  0  0  0  0
    2.1667    1.3680   -0.6041 N   0  0  0  0  0  0  0  0  0  0  0  0
    2.1146    1.6340   -1.9771 C   0  0  0  0  0  0  0  0  0  0  0  0
    1.9244    0.6387   -2.9574 C   0  0  0  0  0  0  0  0  0  0  0  0
    1.8534    0.9831   -4.3101 C   0  0  0  0  0  0  0  0  0  0  0  0
    1.9866    2.3049   -4.7291 C   0  0  0  0  0  0  0  0  0  0  0  0
    2.2039    3.3042   -3.7577 C   0  0  0  0  0  0  0  0  0  0  0  0
    2.2548    2.9687   -2.4059 C   0  0  0  0  0  0  0  0  0  0  0  0
    2.3570    4.6175   -4.1075 O   0  0  0  0  0  0  0  0  0  0  0  0
    2.6021    4.8382   -5.4881 C   0  0  0  0  0  0  0  0  0  0  0  0
    1.6800    3.9757   -6.3347 C   0  0  0  0  0  0  0  0  0  0  0  0
    1.9105    2.6047   -6.0677 O   0  0  0  0  0  0  0  0  0  0  0  0
    2.8003    0.0280    1.3379 C   0  0  0  0  0  0  0  0  0  0  0  0
    2.4466    1.0493    2.2358 C   0  0  0  0  0  0  0  0  0  0  0  0
    2.9479    1.0734    3.5378 C   0  0  0  0  0  0  0  0  0  0  0  0
    2.4841    2.3688    4.6155 Cl  0  0  0  0  0  0  0  0  0  0  0  0
    3.8111    0.0722    3.9888 C   0  0  0  0  0  0  0  0  0  0  0  0
    4.1598   -0.9584    3.1176 C   0  0  0  0  0  0  0  0  0  0  0  0
    3.6573   -0.9820    1.8124 C   0  0  0  0  0  0  0  0  0  0  0  0
    4.1231   -2.3279    0.7876 Cl  0  0  0  0  0  0  0  0  0  0  0  0
    0.3510   -0.6349   -1.0306 H   0  0  0  0  0  0  0  0  0  0  0  0
    0.1490   -0.0852    0.6497 H   0  0  0  0  0  0  0  0  0  0  0  0
    0.8828   -1.6815    0.3122 H   0  0  0  0  0  0  0  0  0  0  0  0
    2.8663   -0.6218   -0.6889 H   0  0  0  0  0  0  0  0  0  0  0  0
    2.7462    2.0292   -0.1001 H   0  0  0  0  0  0  0  0  0  0  0  0
    1.8294   -0.4103   -2.6801 H   0  0  0  0  0  0  0  0  0  0  0  0
    1.6935    0.2166   -5.0717 H   0  0  0  0  0  0  0  0  0  0  0  0
    2.4088    3.7755   -1.6852 H   0  0  0  0  0  0  0  0  0  0  0  0
    3.6564    4.6024   -5.7280 H   0  0  0  0  0  0  0  0  0  0  0  0
    2.4308    5.9086   -5.6761 H   0  0  0  0  0  0  0  0  0  0  0  0
    1.8676    4.1329   -7.4074 H   0  0  0  0  0  0  0  0  0  0  0  0
    0.6255    4.2372   -6.1195 H   0  0  0  0  0  0  0  0  0  0  0  0
    1.7631    1.8359    1.9122 H   0  0  0  0  0  0  0  0  0  0  0  0
    4.2010    0.0977    5.0074 H   0  0  0  0  0  0  0  0  0  0  0  0
    4.8284   -1.7555    3.4463 H   0  0  0  0  0  0  0  0  0  0  0  0
  1  2  1  0
  1 22  1  0
  1 23  1  0
  1 24  1  0
  2  3  1  0
  2 14  1  0
  2 25  1  6
  3  4  1  0
  3 26  1  0
  4  5  2  0
  4  9  1  0
  5  6  1  0
  5 27  1  0
  6  7  2  0
  6 28  1  0
  7  8  1  0
  7 13  1  0
  8  9  2  0
  8 10  1  0
  9 29  1  0
 10 11  1  0
 11 12  1  0
 11 30  1  0
 11 31  1  0
 12 13  1  0
 12 32  1  0
 12 33  1  0
 14 15  2  0
 14 20  1  0
 15 16  1  0
 15 34  1  0
 16 17  1  0
 16 18  2  0
 18 19  1  0
 18 35  1  0
 19 20  2  0
 19 36  1  0
 20 21  1  0
M  END

