
     RDKit          3D

 38 40  0  0  0  0  0  0  0  0999 V2000
   -0.1361   -3.3844    1.8837 O   0  0  0  0  0  0  0  0  0  0  0  0
    0.6057   -3.9562    1.1321 C   0  0  0  0  0  0  0  0  0  0  0  0
    0.5505   -5.2718    0.9032 O   0  0  0  0  0  0  0  0  0  0  0  0
    1.6846   -3.2082    0.3190 C   0  0  1  0  0  0  0  0  0  0  0  0
    1.1512   -2.6197   -0.4407 H   0  0  0  0  0  0  0  0  0  0  0  0
    2.5688   -2.3072    1.2103 C   0  0  0  0  0  0  0  0  0  0  0  0
    3.8194   -3.1383    1.3682 C   0  0  0  0  0  0  0  0  0  0  0  0
    4.8881   -3.0008    2.2524 C   0  0  0  0  0  0  0  0  0  0  0  0
    5.9534   -3.9074    2.1800 C   0  0  0  0  0  0  0  0  0  0  0  0
    5.9436   -4.9412    1.2360 C   0  0  0  0  0  0  0  0  0  0  0  0
    4.8712   -5.0981    0.3506 C   0  0  0  0  0  0  0  0  0  0  0  0
    3.8236   -4.1807    0.4303 C   0  0  0  0  0  0  0  0  0  0  0  0
    2.6031   -4.1841   -0.3387 N   0  0  0  0  0  0  0  0  0  0  0  0
    2.7576   -3.9997   -2.0726 S   0  0  1  0  0  0  0  0  0  0  0  0
    2.6723   -2.5784   -2.4231 O   0  0  0  0  0  0  0  0  0  0  0  0
    3.9108   -4.8075   -2.4605 O   0  0  0  0  0  0  0  0  0  0  0  0
    1.2849   -4.8215   -2.6162 C   0  0  0  0  0  0  0  0  0  0  0  0
    0.3578   -4.1445   -3.3145 C   0  0  0  0  0  0  0  0  0  0  0  0
   -0.8714   -4.6853   -3.9001 C   0  0  0  0  0  0  0  0  0  0  0  0
   -1.2046   -6.0541   -3.8095 C   0  0  0  0  0  0  0  0  0  0  0  0
   -2.3734   -6.5636   -4.3634 C   0  0  0  0  0  0  0  0  0  0  0  0
   -3.2547   -5.7069   -5.0339 C   0  0  0  0  0  0  0  0  0  0  0  0
   -2.9589   -4.3489   -5.1445 C   0  0  0  0  0  0  0  0  0  0  0  0
   -1.7813   -3.8444   -4.5845 C   0  0  0  0  0  0  0  0  0  0  0  0
   -1.4733   -2.1313   -4.7586 Cl  0  0  0  0  0  0  0  0  0  0  0  0
    1.3099   -5.4737    0.3169 H   0  0  0  0  0  0  0  0  0  0  0  0
    2.0551   -2.0764    2.1543 H   0  0  0  0  0  0  0  0  0  0  0  0
    2.7940   -1.3525    0.7066 H   0  0  0  0  0  0  0  0  0  0  0  0
    4.8945   -2.1964    2.9924 H   0  0  0  0  0  0  0  0  0  0  0  0
    6.7962   -3.8095    2.8684 H   0  0  0  0  0  0  0  0  0  0  0  0
    6.7798   -5.6432    1.1916 H   0  0  0  0  0  0  0  0  0  0  0  0
    4.8569   -5.8973   -0.3891 H   0  0  0  0  0  0  0  0  0  0  0  0
    1.2807   -5.8905   -2.3948 H   0  0  0  0  0  0  0  0  0  0  0  0
    0.5361   -3.0761   -3.4650 H   0  0  0  0  0  0  0  0  0  0  0  0
   -0.5237   -6.7315   -3.2906 H   0  0  0  0  0  0  0  0  0  0  0  0
   -2.5999   -7.6281   -4.2740 H   0  0  0  0  0  0  0  0  0  0  0  0
   -4.1765   -6.0957   -5.4730 H   0  0  0  0  0  0  0  0  0  0  0  0
   -3.6351   -3.6680   -5.6634 H   0  0  0  0  0  0  0  0  0  0  0  0
  1  2  2  0
  2  3  1  0
  2  4  1  0
  3 26  1  0
  4  5  1  6
  4  6  1  0
  4 13  1  0
  6  7  1  0
  6 27  1  0
  6 28  1  0
  7  8  2  0
  7 12  1  0
  8  9  1  0
  8 29  1  0
  9 10  2  0
  9 30  1  0
 10 11  1  0
 10 31  1  0
 11 12  2  0
 11 32  1  0
 12 13  1  0
 13 14  1  0
 14 15  2  0
 14 16  2  0
 14 17  1  6
 17 18  2  0
 17 33  1  0
 18 19  1  0
 18 34  1  0
 19 20  2  0
 19 24  1  0
 20 21  1  0
 20 35  1  0
 21 22  2  0
 21 36  1  0
 22 23  1  0
 22 37  1  0
 23 24  2  0
 23 38  1  0
 24 25  1  0
M  END

