
     RDKit          3D

 48 51  0  0  0  0  0  0  0  0999 V2000
    1.9046   -1.3069    0.9538 C   0  0  0  0  0  0  0  0  0  0  0  0
    2.5417   -0.2261    0.0694 C   0  0  1  0  0  0  0  0  0  0  0  0
    1.8634    1.0409    0.3450 N   0  0  0  0  0  0  0  0  0  0  0  0
    2.1789    2.2081   -0.3664 C   0  0  0  0  0  0  0  0  0  0  0  0
    2.1554    2.2877   -1.7672 C   0  0  0  0  0  0  0  0  0  0  0  0
    1.8271    1.1868   -2.4883 F   0  0  0  0  0  0  0  0  0  0  0  0
    2.4285    3.4569   -2.4680 C   0  0  0  0  0  0  0  0  0  0  0  0
    2.4259    3.4925   -3.8728 N   0  0  0  0  0  0  0  0  0  0  0  0
    2.7424    4.6446   -1.7567 C   0  0  0  0  0  0  0  0  0  0  0  0
    2.9744    5.7770   -2.5233 N   0  0  0  0  0  0  0  0  0  0  0  0
    2.7488    4.6364   -0.3332 C   0  0  0  0  0  0  0  0  0  0  0  0
    3.0710    5.8391    0.4613 C   0  0  0  0  0  0  0  0  0  0  0  0
    3.0745    6.0170    1.8805 C   0  0  0  0  0  0  0  0  0  0  0  0
    3.4561    7.3301    2.0971 C   0  0  0  0  0  0  0  0  0  0  0  0
    3.6327    8.0738    3.3629 C   0  0  1  0  0  0  0  0  0  0  0  0
    4.7245    9.1131    3.5317 C   0  0  0  0  0  0  0  0  0  0  0  0
    3.2876    9.5461    3.4784 C   0  0  0  0  0  0  0  0  0  0  0  0
    3.6566    7.8606    0.8581 N   0  0  0  0  0  0  0  0  0  0  0  0
    3.9346    8.8046    0.6230 H   0  0  0  0  0  0  0  0  0  0  0  0
    3.4285    6.9872   -0.1344 N   0  0  0  0  0  0  0  0  0  0  0  0
    2.4750    3.4042    0.2931 C   0  0  0  0  0  0  0  0  0  0  0  0
    2.5000    3.3201    1.6540 F   0  0  0  0  0  0  0  0  0  0  0  0
    4.0641   -0.2037    0.2394 C   0  0  0  0  0  0  0  0  0  0  0  0
    4.8634   -1.0622   -0.5316 C   0  0  0  0  0  0  0  0  0  0  0  0
    6.2492   -1.1127   -0.3664 C   0  0  0  0  0  0  0  0  0  0  0  0
    6.8409   -0.2825    0.5829 C   0  0  0  0  0  0  0  0  0  0  0  0
    8.1737   -0.3191    0.7474 F   0  0  0  0  0  0  0  0  0  0  0  0
    6.0820    0.5906    1.3572 C   0  0  0  0  0  0  0  0  0  0  0  0
    4.6961    0.6243    1.1791 C   0  0  0  0  0  0  0  0  0  0  0  0
    0.8184   -1.3496    0.7804 H   0  0  0  0  0  0  0  0  0  0  0  0
    2.0802   -1.0900    2.0214 H   0  0  0  0  0  0  0  0  0  0  0  0
    2.3397   -2.2945    0.7423 H   0  0  0  0  0  0  0  0  0  0  0  0
    2.3367   -0.4880   -0.9796 H   0  0  0  0  0  0  0  0  0  0  0  0
    1.7841    1.2297    1.3390 H   0  0  0  0  0  0  0  0  0  0  0  0
    2.0944    2.6243   -4.2831 H   0  0  0  0  0  0  0  0  0  0  0  0
    1.8866    4.2811   -4.2313 H   0  0  0  0  0  0  0  0  0  0  0  0
    3.4753    5.5808   -3.3869 H   0  0  0  0  0  0  0  0  0  0  0  0
    3.3265    6.5723   -1.9909 H   0  0  0  0  0  0  0  0  0  0  0  0
    2.8307    5.2883    2.6435 H   0  0  0  0  0  0  0  0  0  0  0  0
    3.4147    7.4578    4.2389 H   0  0  0  0  0  0  0  0  0  0  0  0
    5.3671    9.3191    2.6700 H   0  0  0  0  0  0  0  0  0  0  0  0
    5.2486    9.1497    4.4908 H   0  0  0  0  0  0  0  0  0  0  0  0
    2.9259   10.0552    2.5795 H   0  0  0  0  0  0  0  0  0  0  0  0
    2.8067    9.8858    4.3999 H   0  0  0  0  0  0  0  0  0  0  0  0
    4.3939   -1.7052   -1.2824 H   0  0  0  0  0  0  0  0  0  0  0  0
    6.8763   -1.7769   -0.9646 H   0  0  0  0  0  0  0  0  0  0  0  0
    6.5812    1.2373    2.0816 H   0  0  0  0  0  0  0  0  0  0  0  0
    4.1049    1.3263    1.7710 H   0  0  0  0  0  0  0  0  0  0  0  0
  1  2  1  0
  1 30  1  0
  1 31  1  0
  1 32  1  0
  2  3  1  0
  2 23  1  0
  2 33  1  6
  3  4  1  0
  3 34  1  0
  4  5  2  0
  4 21  1  0
  5  6  1  0
  5  7  1  0
  7  8  1  0
  7  9  2  0
  8 35  1  0
  8 36  1  0
  9 10  1  0
  9 11  1  0
 10 37  1  0
 10 38  1  0
 11 12  1  0
 11 21  2  0
 12 13  1  0
 12 20  2  0
 13 14  2  0
 13 39  1  0
 14 15  1  0
 14 18  1  0
 15 16  1  0
 15 17  1  0
 15 40  1  1
 16 17  1  0
 16 41  1  0
 16 42  1  0
 17 43  1  0
 17 44  1  0
 18 19  1  0
 18 20  1  0
 21 22  1  0
 23 24  2  0
 23 29  1  0
 24 25  1  0
 24 45  1  0
 25 26  2  0
 25 46  1  0
 26 27  1  0
 26 28  1  0
 28 29  2  0
 28 47  1  0
 29 48  1  0
M  END

