
     RDKit          3D

 42 44  0  0  0  0  0  0  0  0999 V2000
    4.5194   -6.8844   -0.6636 C   0  0  0  0  0  0  0  0  0  0  0  0
    4.3213   -5.5462   -0.2990 O   0  0  0  0  0  0  0  0  0  0  0  0
    4.5172   -4.6325   -1.3494 C   0  0  0  0  0  0  0  0  0  0  0  0
    4.1909   -3.2422   -0.8135 C   0  0  0  0  0  0  0  0  0  0  0  0
    4.5805   -2.1640   -1.7181 N   0  0  0  0  0  0  0  0  0  0  0  0
    3.9412   -2.1675   -3.0299 C   0  0  0  0  0  0  0  0  0  0  0  0
    2.4370   -2.0801   -3.0150 C   0  0  0  0  0  0  0  0  0  0  0  0
    1.5688   -3.0322   -3.1817 N   0  0  0  0  0  0  0  0  0  0  0  0
    0.3571   -2.3921   -3.0021 C   0  0  0  0  0  0  0  0  0  0  0  0
   -0.9719   -3.0346   -3.0598 C   0  0  0  0  0  0  0  0  0  0  0  0
   -2.0533   -2.3222   -2.5035 C   0  0  0  0  0  0  0  0  0  0  0  0
   -3.3448   -2.8403   -2.5155 C   0  0  0  0  0  0  0  0  0  0  0  0
   -3.5743   -4.0926   -3.0909 C   0  0  0  0  0  0  0  0  0  0  0  0
   -2.5102   -4.8023   -3.6473 C   0  0  0  0  0  0  0  0  0  0  0  0
   -1.1960   -4.3045   -3.6507 C   0  0  0  0  0  0  0  0  0  0  0  0
   -0.1094   -5.1378   -4.2874 C   0  0  0  0  0  0  0  0  0  0  0  0
    0.4880   -1.1073   -2.7407 N   0  0  0  0  0  0  0  0  0  0  0  0
    1.8573   -0.9008   -2.7444 O   0  0  0  0  0  0  0  0  0  0  0  0
    4.6306   -0.8706   -1.0887 C   0  0  1  0  0  0  0  0  0  0  0  0
    5.8368   -0.5378   -0.2516 C   0  0  0  0  0  0  0  0  0  0  0  0
    5.6411    0.1267   -1.5918 C   0  0  0  0  0  0  0  0  0  0  0  0
    4.3383   -7.5067    0.2253 H   0  0  0  0  0  0  0  0  0  0  0  0
    5.5538   -7.0715   -1.0190 H   0  0  0  0  0  0  0  0  0  0  0  0
    3.8234   -7.2054   -1.4659 H   0  0  0  0  0  0  0  0  0  0  0  0
    3.8669   -4.8931   -2.2094 H   0  0  0  0  0  0  0  0  0  0  0  0
    5.5682   -4.6510   -1.7092 H   0  0  0  0  0  0  0  0  0  0  0  0
    4.7576   -3.1113    0.1203 H   0  0  0  0  0  0  0  0  0  0  0  0
    3.1154   -3.2121   -0.5368 H   0  0  0  0  0  0  0  0  0  0  0  0
    4.1969   -3.0863   -3.5765 H   0  0  0  0  0  0  0  0  0  0  0  0
    4.3369   -1.3161   -3.6035 H   0  0  0  0  0  0  0  0  0  0  0  0
   -1.8565   -1.3476   -2.0539 H   0  0  0  0  0  0  0  0  0  0  0  0
   -4.1666   -2.2710   -2.0746 H   0  0  0  0  0  0  0  0  0  0  0  0
   -4.5811   -4.5181   -3.1080 H   0  0  0  0  0  0  0  0  0  0  0  0
   -2.6976   -5.7791   -4.1016 H   0  0  0  0  0  0  0  0  0  0  0  0
   -0.5447   -6.0262   -4.7679 H   0  0  0  0  0  0  0  0  0  0  0  0
    0.6353   -5.4670   -3.5480 H   0  0  0  0  0  0  0  0  0  0  0  0
    0.4520   -4.5715   -5.0453 H   0  0  0  0  0  0  0  0  0  0  0  0
    3.6714   -0.4520   -0.7425 H   0  0  0  0  0  0  0  0  0  0  0  0
    6.6166   -1.3011   -0.1840 H   0  0  0  0  0  0  0  0  0  0  0  0
    5.6887    0.0513    0.6576 H   0  0  0  0  0  0  0  0  0  0  0  0
    6.2965   -0.1967   -2.4054 H   0  0  0  0  0  0  0  0  0  0  0  0
    5.3544    1.1813   -1.6239 H   0  0  0  0  0  0  0  0  0  0  0  0
  1  2  1  0
  1 22  1  0
  1 23  1  0
  1 24  1  0
  2  3  1  0
  3  4  1  0
  3 25  1  0
  3 26  1  0
  4  5  1  0
  4 27  1  0
  4 28  1  0
  5  6  1  0
  5 19  1  0
  6  7  1  0
  6 29  1  0
  6 30  1  0
  7  8  2  0
  7 18  1  0
  8  9  1  0
  9 10  1  0
  9 17  2  0
 10 11  2  0
 10 15  1  0
 11 12  1  0
 11 31  1  0
 12 13  2  0
 12 32  1  0
 13 14  1  0
 13 33  1  0
 14 15  2  0
 14 34  1  0
 15 16  1  0
 16 35  1  0
 16 36  1  0
 16 37  1  0
 17 18  1  0
 19 20  1  0
 19 21  1  0
 19 38  1  1
 20 21  1  0
 20 39  1  0
 20 40  1  0
 21 41  1  0
 21 42  1  0
M  END

