
     RDKit          3D

 47 49  0  0  0  0  0  0  0  0999 V2000
    2.4199    2.0616    0.0516 C   0  0  0  0  0  0  0  0  0  0  0  0
    3.0255    0.6938   -0.0579 C   0  0  0  0  0  0  0  0  0  0  0  0
    2.4345   -0.4954   -0.5616 C   0  0  0  0  0  0  0  0  0  0  0  0
    3.2652   -1.5315   -0.4990 N   0  0  0  0  0  0  0  0  0  0  0  0
    4.3916   -1.0493    0.0495 N   0  0  0  0  0  0  0  0  0  0  0  0
    5.5506   -1.9181    0.1619 C   0  0  1  0  0  0  0  0  0  0  0  0
    6.5892   -1.4840    1.2042 C   0  0  0  0  0  0  0  0  0  0  0  0
    7.4016   -2.7650    1.4249 C   0  0  0  0  0  0  0  0  0  0  0  0
    6.4156   -3.8247    1.2126 N   0  0  0  0  0  0  0  0  0  0  0  0
    6.7612   -5.1378    1.4456 C   0  0  0  0  0  0  0  0  0  0  0  0
    7.8846   -5.4489    1.8225 O   0  0  0  0  0  0  0  0  0  0  0  0
    5.7674   -6.0698    1.2083 N   0  0  0  0  0  0  0  0  0  0  0  0
    5.9758   -7.4744    1.5790 C   0  0  1  0  0  0  0  0  0  0  0  0
    4.6238   -8.1981    1.6688 C   0  0  0  0  0  0  0  0  0  0  0  0
    3.9544   -8.4121    0.3013 C   0  0  0  0  0  0  0  0  0  0  0  0
    4.8876   -9.1088   -0.7036 C   0  0  2  0  0  0  0  0  0  0  0  0
    5.0449  -10.6001   -0.3717 C   0  0  0  0  0  0  0  0  0  0  0  0
    4.4243  -11.1785    0.4792 O   0  0  0  0  0  0  0  0  0  0  0  0
    5.9302  -11.2796   -1.1378 O   0  0  0  0  0  0  0  0  0  0  0  0
    6.2361   -8.3570   -0.7963 C   0  0  0  0  0  0  0  0  0  0  0  0
    6.9005   -8.1887    0.5732 C   0  0  0  0  0  0  0  0  0  0  0  0
    5.1784   -3.3424    0.6129 C   0  0  0  0  0  0  0  0  0  0  0  0
    4.2959    0.2853    0.3210 C   0  0  0  0  0  0  0  0  0  0  0  0
    2.0735    2.4317   -0.9277 H   0  0  0  0  0  0  0  0  0  0  0  0
    3.1460    2.7902    0.4426 H   0  0  0  0  0  0  0  0  0  0  0  0
    1.5475    2.0691    0.7265 H   0  0  0  0  0  0  0  0  0  0  0  0
    1.4294   -0.6292   -0.9640 H   0  0  0  0  0  0  0  0  0  0  0  0
    6.0398   -1.9815   -0.8273 H   0  0  0  0  0  0  0  0  0  0  0  0
    6.0735   -1.1896    2.1329 H   0  0  0  0  0  0  0  0  0  0  0  0
    7.2131   -0.6405    0.8748 H   0  0  0  0  0  0  0  0  0  0  0  0
    7.8430   -2.8286    2.4306 H   0  0  0  0  0  0  0  0  0  0  0  0
    8.2365   -2.8522    0.7056 H   0  0  0  0  0  0  0  0  0  0  0  0
    4.8086   -5.7438    1.1884 H   0  0  0  0  0  0  0  0  0  0  0  0
    6.4704   -7.4996    2.5646 H   0  0  0  0  0  0  0  0  0  0  0  0
    3.9453   -7.6457    2.3423 H   0  0  0  0  0  0  0  0  0  0  0  0
    4.7899   -9.1805    2.1360 H   0  0  0  0  0  0  0  0  0  0  0  0
    3.6477   -7.4445   -0.1320 H   0  0  0  0  0  0  0  0  0  0  0  0
    3.0399   -9.0090    0.4296 H   0  0  0  0  0  0  0  0  0  0  0  0
    4.4104   -9.0898   -1.7022 H   0  0  0  0  0  0  0  0  0  0  0  0
    6.3568  -10.6832   -1.7693 H   0  0  0  0  0  0  0  0  0  0  0  0
    6.0415   -7.3620   -1.2290 H   0  0  0  0  0  0  0  0  0  0  0  0
    6.9327   -8.8487   -1.4994 H   0  0  0  0  0  0  0  0  0  0  0  0
    7.8374   -7.6198    0.4890 H   0  0  0  0  0  0  0  0  0  0  0  0
    7.1646   -9.1771    0.9895 H   0  0  0  0  0  0  0  0  0  0  0  0
    4.3383   -3.2954    1.3323 H   0  0  0  0  0  0  0  0  0  0  0  0
    4.8562   -3.9679   -0.2334 H   0  0  0  0  0  0  0  0  0  0  0  0
    5.1186    0.8459    0.7592 H   0  0  0  0  0  0  0  0  0  0  0  0
  1  2  1  0
  1 24  1  0
  1 25  1  0
  1 26  1  0
  2  3  1  0
  2 23  2  0
  3  4  2  0
  3 27  1  0
  4  5  1  0
  5  6  1  0
  5 23  1  0
  6  7  1  0
  6 22  1  0
  6 28  1  6
  7  8  1  0
  7 29  1  0
  7 30  1  0
  8  9  1  0
  8 31  1  0
  8 32  1  0
  9 10  1  0
  9 22  1  0
 10 11  2  0
 10 12  1  0
 12 13  1  0
 12 33  1  0
 13 14  1  0
 13 21  1  0
 13 34  1  1
 14 15  1  0
 14 35  1  0
 14 36  1  0
 15 16  1  0
 15 37  1  0
 15 38  1  0
 16 17  1  0
 16 20  1  0
 16 39  1  6
 17 18  2  0
 17 19  1  0
 19 40  1  0
 20 21  1  0
 20 41  1  0
 20 42  1  0
 21 43  1  0
 21 44  1  0
 22 45  1  0
 22 46  1  0
 23 47  1  0
M  END

