
     RDKit          3D

 36 37  0  0  0  0  0  0  0  0999 V2000
    4.6007   -2.6553   -0.7475 O   0  0  0  0  0  0  0  0  0  0  0  0
    4.2729   -1.5222   -0.4283 C   0  0  0  0  0  0  0  0  0  0  0  0
    3.3357   -1.2912    0.5448 N   0  0  0  0  0  0  0  0  0  0  0  0
    2.6735   -2.3875    1.2236 C   0  0  0  0  0  0  0  0  0  0  0  0
    3.5017   -2.9504    2.3849 C   0  0  0  0  0  0  0  0  0  0  0  0
    2.7666   -4.0075    3.0415 N   0  0  0  0  0  0  0  0  0  0  0  0
    3.2328   -4.7558    4.0713 C   0  0  0  0  0  0  0  0  0  0  0  0
    4.5411   -4.5485    4.5940 C   0  0  0  0  0  0  0  0  0  0  0  0
    5.0347   -5.3045    5.6446 C   0  0  0  0  0  0  0  0  0  0  0  0
    4.2608   -6.3134    6.2450 C   0  0  0  0  0  0  0  0  0  0  0  0
    2.9823   -6.5441    5.7659 C   0  0  0  0  0  0  0  0  0  0  0  0
    2.4627   -5.7886    4.7008 C   0  0  0  0  0  0  0  0  0  0  0  0
    1.1082   -6.1070    4.2758 N   0  0  0  0  0  0  0  0  0  0  0  0
    0.6114   -5.4659    3.3396 O   0  0  0  0  0  0  0  0  0  0  0  0
    0.5031   -6.9939    4.8566 O   0  0  0  0  0  0  0  0  0  0  0  0
    4.8681   -0.3090   -1.0919 C   0  0  0  0  0  0  0  0  0  0  0  0
    5.4940   -0.4974   -2.3340 C   0  0  0  0  0  0  0  0  0  0  0  0
    6.0748    0.5716   -3.0131 C   0  0  0  0  0  0  0  0  0  0  0  0
    6.0455    1.8465   -2.4365 C   0  0  0  0  0  0  0  0  0  0  0  0
    6.7734    3.1919   -3.2769 Cl  0  0  0  0  0  0  0  0  0  0  0  0
    5.4471    2.0546   -1.1901 C   0  0  0  0  0  0  0  0  0  0  0  0
    4.8626    0.9755   -0.5253 C   0  0  0  0  0  0  0  0  0  0  0  0
    2.9932   -0.3513    0.6913 H   0  0  0  0  0  0  0  0  0  0  0  0
    2.4867   -3.1942    0.4968 H   0  0  0  0  0  0  0  0  0  0  0  0
    1.7002   -2.0312    1.5972 H   0  0  0  0  0  0  0  0  0  0  0  0
    3.7431   -2.1331    3.0921 H   0  0  0  0  0  0  0  0  0  0  0  0
    4.4584   -3.3230    1.9786 H   0  0  0  0  0  0  0  0  0  0  0  0
    1.8216   -4.2450    2.7435 H   0  0  0  0  0  0  0  0  0  0  0  0
    5.1689   -3.7766    4.1499 H   0  0  0  0  0  0  0  0  0  0  0  0
    6.0471   -5.1070    6.0073 H   0  0  0  0  0  0  0  0  0  0  0  0
    4.6569   -6.9053    7.0718 H   0  0  0  0  0  0  0  0  0  0  0  0
    2.3399   -7.3123    6.1943 H   0  0  0  0  0  0  0  0  0  0  0  0
    5.5159   -1.5047   -2.7540 H   0  0  0  0  0  0  0  0  0  0  0  0
    6.5533    0.4263   -3.9830 H   0  0  0  0  0  0  0  0  0  0  0  0
    5.4499    3.0510   -0.7456 H   0  0  0  0  0  0  0  0  0  0  0  0
    4.4279    1.1490    0.4624 H   0  0  0  0  0  0  0  0  0  0  0  0
  1  2  2  0
  2  3  1  0
  2 16  1  0
  3  4  1  0
  3 23  1  0
  4  5  1  0
  4 24  1  0
  4 25  1  0
  5  6  1  0
  5 26  1  0
  5 27  1  0
  6  7  1  0
  6 28  1  0
  7  8  2  0
  7 12  1  0
  8  9  1  0
  8 29  1  0
  9 10  2  0
  9 30  1  0
 10 11  1  0
 10 31  1  0
 11 12  2  0
 11 32  1  0
 12 13  1  0
 13 14  2  0
 13 15  1  0
 16 17  2  0
 16 22  1  0
 17 18  1  0
 17 33  1  0
 18 19  2  0
 18 34  1  0
 19 20  1  0
 19 21  1  0
 21 22  2  0
 21 35  1  0
 22 36  1  0
M  CHG  2  13   1  15  -1
M  END

