
     RDKit          3D

 64 66  0  0  0  0  0  0  0  0999 V2000
    9.2088   -0.3877   -2.0812 C   0  0  0  0  0  0  0  0  0  0  0  0
    7.7516   -0.7843   -2.1048 C   0  0  0  0  0  0  0  0  0  0  0  0
    6.9667   -0.6015   -3.2509 C   0  0  0  0  0  0  0  0  0  0  0  0
    5.6107   -0.9628   -3.2823 C   0  0  0  0  0  0  0  0  0  0  0  0
    4.7783   -0.7639   -4.5266 C   0  0  0  0  0  0  0  0  0  0  0  0
    5.0396   -1.5195   -2.1302 C   0  0  0  0  0  0  0  0  0  0  0  0
    5.7989   -1.7182   -0.9675 C   0  0  0  0  0  0  0  0  0  0  0  0
    5.1536   -2.2988    0.2824 C   0  0  0  0  0  0  0  0  0  0  0  0
    4.3281   -3.5537   -0.0035 C   0  0  0  0  0  0  0  0  0  0  0  0
    3.1110   -3.4552   -0.1680 O   0  0  0  0  0  0  0  0  0  0  0  0
    4.9718   -4.7602   -0.1089 N   0  0  0  0  0  0  0  0  0  0  0  0
    6.3936   -4.9168    0.1853 C   0  0  0  0  0  0  0  0  0  0  0  0
    6.7873   -5.0443    1.6518 C   0  0  0  0  0  0  0  0  0  0  0  0
    5.8411   -5.0056    2.6820 C   0  0  0  0  0  0  0  0  0  0  0  0
    6.2263   -5.1156    4.0217 C   0  0  0  0  0  0  0  0  0  0  0  0
    7.5744   -5.2672    4.3440 C   0  0  0  0  0  0  0  0  0  0  0  0
    8.5258   -5.3091    3.3211 C   0  0  0  0  0  0  0  0  0  0  0  0
    8.1575   -5.2006    1.9731 C   0  0  0  0  0  0  0  0  0  0  0  0
    9.2102   -5.2563    0.8916 C   0  0  0  0  0  0  0  0  0  0  0  0
    4.1561   -5.9196   -0.5538 C   0  0  1  0  0  0  0  0  0  0  0  0
    3.3429   -5.4678   -1.1386 H   0  0  0  0  0  0  0  0  0  0  0  0
    4.9129   -6.9077   -1.4329 C   0  0  0  0  0  0  0  0  0  0  0  0
    3.4930   -6.6540    0.6415 C   0  0  0  0  0  0  0  0  0  0  0  0
    3.8684   -7.7550    1.0124 O   0  0  0  0  0  0  0  0  0  0  0  0
    2.4676   -5.9589    1.2069 N   0  0  0  0  0  0  0  0  0  0  0  0
    1.6874   -6.4495    2.3246 C   0  0  1  0  0  0  0  0  0  0  0  0
    1.6933   -5.5461    3.5706 C   0  0  0  0  0  0  0  0  0  0  0  0
    0.5491   -6.1195    4.4163 C   0  0  0  0  0  0  0  0  0  0  0  0
   -0.5389   -6.5379    3.3884 C   0  0  0  0  0  0  0  0  0  0  0  0
    0.1806   -6.6185    2.0163 C   0  0  0  0  0  0  0  0  0  0  0  0
    7.1502   -1.3479   -0.9684 C   0  0  0  0  0  0  0  0  0  0  0  0
    9.5204    0.0667   -3.0331 H   0  0  0  0  0  0  0  0  0  0  0  0
    9.8596   -1.2593   -1.8971 H   0  0  0  0  0  0  0  0  0  0  0  0
    9.4135    0.3395   -1.2778 H   0  0  0  0  0  0  0  0  0  0  0  0
    7.4220   -0.1627   -4.1440 H   0  0  0  0  0  0  0  0  0  0  0  0
    5.3384   -0.2321   -5.3098 H   0  0  0  0  0  0  0  0  0  0  0  0
    3.8656   -0.1851   -4.3096 H   0  0  0  0  0  0  0  0  0  0  0  0
    4.4510   -1.7305   -4.9459 H   0  0  0  0  0  0  0  0  0  0  0  0
    3.9823   -1.8004   -2.1288 H   0  0  0  0  0  0  0  0  0  0  0  0
    4.4309   -1.5778    0.6929 H   0  0  0  0  0  0  0  0  0  0  0  0
    5.9126   -2.4783    1.0556 H   0  0  0  0  0  0  0  0  0  0  0  0
    6.9445   -4.0799   -0.2716 H   0  0  0  0  0  0  0  0  0  0  0  0
    6.7497   -5.8048   -0.3535 H   0  0  0  0  0  0  0  0  0  0  0  0
    4.7834   -4.8959    2.4370 H   0  0  0  0  0  0  0  0  0  0  0  0
    5.4686   -5.0856    4.8088 H   0  0  0  0  0  0  0  0  0  0  0  0
    7.8887   -5.3554    5.3871 H   0  0  0  0  0  0  0  0  0  0  0  0
    9.5836   -5.4307    3.5720 H   0  0  0  0  0  0  0  0  0  0  0  0
   10.2147   -5.3775    1.3217 H   0  0  0  0  0  0  0  0  0  0  0  0
    9.2192   -4.3410    0.2750 H   0  0  0  0  0  0  0  0  0  0  0  0
    9.0420   -6.0983    0.1982 H   0  0  0  0  0  0  0  0  0  0  0  0
    5.4438   -6.3902   -2.2463 H   0  0  0  0  0  0  0  0  0  0  0  0
    4.1912   -7.6042   -1.8844 H   0  0  0  0  0  0  0  0  0  0  0  0
    5.6145   -7.5209   -0.8507 H   0  0  0  0  0  0  0  0  0  0  0  0
    2.2600   -5.0404    0.8109 H   0  0  0  0  0  0  0  0  0  0  0  0
    2.1239   -7.4252    2.5874 H   0  0  0  0  0  0  0  0  0  0  0  0
    1.4732   -4.5055    3.2689 H   0  0  0  0  0  0  0  0  0  0  0  0
    2.6653   -5.5429    4.0884 H   0  0  0  0  0  0  0  0  0  0  0  0
    0.1743   -5.4116    5.1713 H   0  0  0  0  0  0  0  0  0  0  0  0
    0.9110   -7.0064    4.9629 H   0  0  0  0  0  0  0  0  0  0  0  0
   -1.3542   -5.7984    3.3550 H   0  0  0  0  0  0  0  0  0  0  0  0
   -1.0016   -7.4967    3.6684 H   0  0  0  0  0  0  0  0  0  0  0  0
   -0.1411   -5.7919    1.3604 H   0  0  0  0  0  0  0  0  0  0  0  0
   -0.0217   -7.5530    1.4711 H   0  0  0  0  0  0  0  0  0  0  0  0
    7.7461   -1.4882   -0.0606 H   0  0  0  0  0  0  0  0  0  0  0  0
  1  2  1  0
  1 32  1  0
  1 33  1  0
  1 34  1  0
  2  3  2  0
  2 31  1  0
  3  4  1  0
  3 35  1  0
  4  5  1  0
  4  6  2  0
  5 36  1  0
  5 37  1  0
  5 38  1  0
  6  7  1  0
  6 39  1  0
  7  8  1  0
  7 31  2  0
  8  9  1  0
  8 40  1  0
  8 41  1  0
  9 10  2  0
  9 11  1  0
 11 12  1  0
 11 20  1  0
 12 13  1  0
 12 42  1  0
 12 43  1  0
 13 14  2  0
 13 18  1  0
 14 15  1  0
 14 44  1  0
 15 16  2  0
 15 45  1  0
 16 17  1  0
 16 46  1  0
 17 18  2  0
 17 47  1  0
 18 19  1  0
 19 48  1  0
 19 49  1  0
 19 50  1  0
 20 21  1  6
 20 22  1  0
 20 23  1  0
 22 51  1  0
 22 52  1  0
 22 53  1  0
 23 24  2  0
 23 25  1  0
 25 26  1  0
 25 54  1  0
 26 27  1  0
 26 30  1  0
 26 55  1  1
 27 28  1  0
 27 56  1  0
 27 57  1  0
 28 29  1  0
 28 58  1  0
 28 59  1  0
 29 30  1  0
 29 60  1  0
 29 61  1  0
 30 62  1  0
 30 63  1  0
 31 64  1  0
M  END

