
     RDKit          3D

 43 44  0  0  0  0  0  0  0  0999 V2000
    3.6501    0.5591   -1.5253 C   0  0  0  0  0  0  0  0  0  0  0  0
    3.2034   -0.1977   -0.4223 O   0  0  0  0  0  0  0  0  0  0  0  0
    3.8255   -0.0481    0.7682 C   0  0  0  0  0  0  0  0  0  0  0  0
    4.9029    0.8059    1.0316 C   0  0  0  0  0  0  0  0  0  0  0  0
    5.4655    0.8685    2.3144 C   0  0  0  0  0  0  0  0  0  0  0  0
    4.9720    0.0943    3.3671 C   0  0  0  0  0  0  0  0  0  0  0  0
    5.5778    0.1719    4.7600 C   0  0  1  0  0  0  0  0  0  0  0  0
    4.5803    0.7506    5.7815 C   0  0  0  0  0  0  0  0  0  0  0  0
    6.0568   -1.1502    5.1588 N   0  0  0  0  0  0  0  0  0  0  0  0
    7.0928   -1.3698    6.0549 C   0  0  0  0  0  0  0  0  0  0  0  0
    7.6619   -0.3533    6.8479 C   0  0  0  0  0  0  0  0  0  0  0  0
    8.6967   -0.6443    7.7428 C   0  0  0  0  0  0  0  0  0  0  0  0
    9.2157   -1.9353    7.8955 C   0  0  0  0  0  0  0  0  0  0  0  0
   10.3407   -2.2267    8.8802 C   0  0  1  0  0  0  0  0  0  0  0  0
    9.8986   -3.1873    9.9982 C   0  0  0  0  0  0  0  0  0  0  0  0
   11.6100   -2.7406    8.1782 C   0  0  0  0  0  0  0  0  0  0  0  0
    8.6449   -2.9444    7.0974 C   0  0  0  0  0  0  0  0  0  0  0  0
    7.6143   -2.6761    6.2036 C   0  0  0  0  0  0  0  0  0  0  0  0
    3.8854   -0.7629    3.1039 C   0  0  0  0  0  0  0  0  0  0  0  0
    3.3345   -0.8301    1.8353 C   0  0  0  0  0  0  0  0  0  0  0  0
    2.3043   -1.6517    1.6004 F   0  0  0  0  0  0  0  0  0  0  0  0
    3.0100    0.2819   -2.3733 H   0  0  0  0  0  0  0  0  0  0  0  0
    4.7012    0.3321   -1.7801 H   0  0  0  0  0  0  0  0  0  0  0  0
    3.5545    1.6449   -1.3436 H   0  0  0  0  0  0  0  0  0  0  0  0
    5.3168    1.4272    0.2372 H   0  0  0  0  0  0  0  0  0  0  0  0
    6.3104    1.5399    2.4879 H   0  0  0  0  0  0  0  0  0  0  0  0
    6.4394    0.8640    4.6977 H   0  0  0  0  0  0  0  0  0  0  0  0
    3.6756    0.1261    5.8388 H   0  0  0  0  0  0  0  0  0  0  0  0
    4.2803    1.7708    5.4945 H   0  0  0  0  0  0  0  0  0  0  0  0
    5.0226    0.7891    6.7879 H   0  0  0  0  0  0  0  0  0  0  0  0
    5.9386   -1.8753    4.4622 H   0  0  0  0  0  0  0  0  0  0  0  0
    7.3029    0.6737    6.7758 H   0  0  0  0  0  0  0  0  0  0  0  0
    9.1126    0.1719    8.3421 H   0  0  0  0  0  0  0  0  0  0  0  0
   10.5984   -1.2651    9.3584 H   0  0  0  0  0  0  0  0  0  0  0  0
    9.6322   -4.1780    9.5934 H   0  0  0  0  0  0  0  0  0  0  0  0
    9.0175   -2.7991   10.5327 H   0  0  0  0  0  0  0  0  0  0  0  0
   10.7069   -3.3365   10.7335 H   0  0  0  0  0  0  0  0  0  0  0  0
   11.4313   -3.7106    7.6848 H   0  0  0  0  0  0  0  0  0  0  0  0
   12.4302   -2.8839    8.9013 H   0  0  0  0  0  0  0  0  0  0  0  0
   11.9538   -2.0337    7.4069 H   0  0  0  0  0  0  0  0  0  0  0  0
    9.0125   -3.9720    7.1726 H   0  0  0  0  0  0  0  0  0  0  0  0
    7.1933   -3.4881    5.6025 H   0  0  0  0  0  0  0  0  0  0  0  0
    3.4479   -1.3903    3.8840 H   0  0  0  0  0  0  0  0  0  0  0  0
  1  2  1  0
  1 22  1  0
  1 23  1  0
  1 24  1  0
  2  3  1  0
  3  4  2  0
  3 20  1  0
  4  5  1  0
  4 25  1  0
  5  6  2  0
  5 26  1  0
  6  7  1  0
  6 19  1  0
  7  8  1  0
  7  9  1  0
  7 27  1  6
  8 28  1  0
  8 29  1  0
  8 30  1  0
  9 10  1  0
  9 31  1  0
 10 11  2  0
 10 18  1  0
 11 12  1  0
 11 32  1  0
 12 13  2  0
 12 33  1  0
 13 14  1  0
 13 17  1  0
 14 15  1  0
 14 16  1  0
 14 34  1  1
 15 35  1  0
 15 36  1  0
 15 37  1  0
 16 38  1  0
 16 39  1  0
 16 40  1  0
 17 18  2  0
 17 41  1  0
 18 42  1  0
 19 20  2  0
 19 43  1  0
 20 21  1  0
M  END

