
     RDKit          3D

 48 50  0  0  0  0  0  0  0  0999 V2000
    0.7699    2.1705   -0.6634 C   0  0  0  0  0  0  0  0  0  0  0  0
    2.2730    2.4265   -0.6375 C   0  0  0  0  0  0  0  0  0  0  0  0
    3.0072    1.1922   -0.4044 N   0  0  0  0  0  0  0  0  0  0  0  0
    4.4706    1.2650   -0.4544 C   0  0  2  0  0  0  0  0  0  0  0  0
    5.0390   -0.1628   -0.3982 C   0  0  0  0  0  0  0  0  0  0  0  0
    4.7742   -0.8004    0.9705 C   0  0  0  0  0  0  0  0  0  0  0  0
    5.4762   -0.0211    2.0875 C   0  0  0  0  0  0  0  0  0  0  0  0
    5.4317    1.4803    1.9151 C   0  0  0  0  0  0  0  0  0  0  0  0
    5.8787    2.2198    2.9343 N   0  0  0  0  0  0  0  0  0  0  0  0
    5.9296    3.5455    2.7887 C   0  0  0  0  0  0  0  0  0  0  0  0
    6.3320    4.3552    4.0309 C   0  0  1  0  0  0  0  0  0  0  0  0
    5.0824    4.4144    4.7348 O   0  0  0  0  0  0  0  0  0  0  0  0
    5.0518    4.9058    6.0560 C   0  0  0  0  0  0  0  0  0  0  0  0
    3.6051    4.9036    6.5212 C   0  0  0  0  0  0  0  0  0  0  0  0
    7.4770    3.6520    4.8260 C   0  0  0  0  0  0  0  0  0  0  0  0
    8.4336    4.7676    5.2679 C   0  0  0  0  0  0  0  0  0  0  0  0
    8.3810    5.7479    4.0863 C   0  0  0  0  0  0  0  0  0  0  0  0
    6.8932    5.7705    3.6996 C   0  0  0  0  0  0  0  0  0  0  0  0
    5.6168    4.2003    1.6685 N   0  0  0  0  0  0  0  0  0  0  0  0
    5.1739    3.4664    0.6477 C   0  0  0  0  0  0  0  0  0  0  0  0
    5.0182    2.0796    0.7084 C   0  0  0  0  0  0  0  0  0  0  0  0
    0.2127    3.1097   -0.8040 H   0  0  0  0  0  0  0  0  0  0  0  0
    0.4399    1.7056    0.2785 H   0  0  0  0  0  0  0  0  0  0  0  0
    0.4923    1.4937   -1.4901 H   0  0  0  0  0  0  0  0  0  0  0  0
    2.5035    3.1347    0.1757 H   0  0  0  0  0  0  0  0  0  0  0  0
    2.5810    2.9341   -1.5817 H   0  0  0  0  0  0  0  0  0  0  0  0
    2.6969    0.4863   -1.0728 H   0  0  0  0  0  0  0  0  0  0  0  0
    4.8169    1.7557   -1.3930 H   0  0  0  0  0  0  0  0  0  0  0  0
    6.1233   -0.1258   -0.6023 H   0  0  0  0  0  0  0  0  0  0  0  0
    4.5907   -0.7681   -1.2052 H   0  0  0  0  0  0  0  0  0  0  0  0
    5.1071   -1.8505    0.9804 H   0  0  0  0  0  0  0  0  0  0  0  0
    3.6874   -0.8021    1.1469 H   0  0  0  0  0  0  0  0  0  0  0  0
    6.5465   -0.2960    2.1350 H   0  0  0  0  0  0  0  0  0  0  0  0
    5.0695   -0.2697    3.0806 H   0  0  0  0  0  0  0  0  0  0  0  0
    5.4639    5.9334    6.1145 H   0  0  0  0  0  0  0  0  0  0  0  0
    5.6649    4.2769    6.7311 H   0  0  0  0  0  0  0  0  0  0  0  0
    2.9902    5.5462    5.8722 H   0  0  0  0  0  0  0  0  0  0  0  0
    3.5295    5.2740    7.5560 H   0  0  0  0  0  0  0  0  0  0  0  0
    3.1905    3.8844    6.4818 H   0  0  0  0  0  0  0  0  0  0  0  0
    8.0023    2.9637    4.1472 H   0  0  0  0  0  0  0  0  0  0  0  0
    7.0814    3.0283    5.6398 H   0  0  0  0  0  0  0  0  0  0  0  0
    9.4487    4.3997    5.4879 H   0  0  0  0  0  0  0  0  0  0  0  0
    8.0643    5.2633    6.1828 H   0  0  0  0  0  0  0  0  0  0  0  0
    8.9871    5.3524    3.2518 H   0  0  0  0  0  0  0  0  0  0  0  0
    8.7782    6.7473    4.3260 H   0  0  0  0  0  0  0  0  0  0  0  0
    6.7060    6.0298    2.6505 H   0  0  0  0  0  0  0  0  0  0  0  0
    6.3542    6.5096    4.3119 H   0  0  0  0  0  0  0  0  0  0  0  0
    4.9377    4.0058   -0.2789 H   0  0  0  0  0  0  0  0  0  0  0  0
  1  2  1  0
  1 22  1  0
  1 23  1  0
  1 24  1  0
  2  3  1  0
  2 25  1  0
  2 26  1  0
  3  4  1  0
  3 27  1  0
  4  5  1  0
  4 21  1  0
  4 28  1  6
  5  6  1  0
  5 29  1  0
  5 30  1  0
  6  7  1  0
  6 31  1  0
  6 32  1  0
  7  8  1  0
  7 33  1  0
  7 34  1  0
  8  9  1  0
  8 21  2  0
  9 10  2  0
 10 11  1  0
 10 19  1  0
 11 12  1  1
 11 15  1  0
 11 18  1  0
 12 13  1  0
 13 14  1  0
 13 35  1  0
 13 36  1  0
 14 37  1  0
 14 38  1  0
 14 39  1  0
 15 16  1  0
 15 40  1  0
 15 41  1  0
 16 17  1  0
 16 42  1  0
 16 43  1  0
 17 18  1  0
 17 44  1  0
 17 45  1  0
 18 46  1  0
 18 47  1  0
 19 20  2  0
 20 21  1  0
 20 48  1  0
M  END

