
     RDKit          3D

 68 72  0  0  0  0  0  0  0  0999 V2000
    4.6407    0.0720   -3.8182 C   0  0  0  0  0  0  0  0  0  0  0  0
    4.3032   -0.4896   -2.4236 C   0  0  1  0  0  0  0  0  0  0  0  0
    3.2619   -0.2078   -2.1860 H   0  0  0  0  0  0  0  0  0  0  0  0
    4.3598   -2.0262   -2.4150 C   0  0  0  0  0  0  0  0  0  0  0  0
    5.7347   -2.5025   -2.4861 N   0  0  0  0  0  0  0  0  0  0  0  0
    5.8547   -3.9209   -2.7866 C   0  0  0  0  0  0  0  0  0  0  0  0
    5.4682   -4.2752   -4.2129 C   0  0  0  0  0  0  0  0  0  0  0  0
    5.9746   -3.5349   -5.2935 C   0  0  0  0  0  0  0  0  0  0  0  0
    5.6575   -3.8827   -6.6080 C   0  0  0  0  0  0  0  0  0  0  0  0
    4.8259   -4.9788   -6.8659 C   0  0  0  0  0  0  0  0  0  0  0  0
    4.3135   -5.7205   -5.7990 C   0  0  0  0  0  0  0  0  0  0  0  0
    4.6322   -5.3673   -4.4829 C   0  0  0  0  0  0  0  0  0  0  0  0
    6.5671   -2.0267   -1.3739 C   0  0  2  0  0  0  0  0  0  0  0  0
    7.6104   -2.2825   -1.6333 H   0  0  0  0  0  0  0  0  0  0  0  0
    6.2633   -2.6735   -0.0094 C   0  0  0  0  0  0  0  0  0  0  0  0
    6.5019   -0.4873   -1.3405 C   0  0  0  0  0  0  0  0  0  0  0  0
    5.1303   -0.0018   -1.3116 N   0  0  0  0  0  0  0  0  0  0  0  0
    4.8748    1.3526   -0.8127 C   0  0  2  0  0  0  0  0  0  0  0  0
    3.7828    1.4797   -0.9146 H   0  0  0  0  0  0  0  0  0  0  0  0
    5.4915    2.4994   -1.6248 C   0  0  0  0  0  0  0  0  0  0  0  0
    6.8804    2.6900   -1.7381 C   0  0  0  0  0  0  0  0  0  0  0  0
    7.4060    3.7243   -2.5099 C   0  0  0  0  0  0  0  0  0  0  0  0
    6.5620    4.6199   -3.1910 C   0  0  0  0  0  0  0  0  0  0  0  0
    7.0877    5.7193   -4.0104 C   0  0  0  0  0  0  0  0  0  0  0  0
    6.3572    6.5976   -4.6476 N   0  0  0  0  0  0  0  0  0  0  0  0
    7.1170    7.5091   -5.3320 C   0  0  0  0  0  0  0  0  0  0  0  0
    6.4403    8.5894   -6.1178 C   0  0  0  0  0  0  0  0  0  0  0  0
    7.0317    9.4285   -6.7457 O   0  0  0  0  0  0  0  0  0  0  0  0
    5.1017    8.5303   -6.0530 O   0  0  0  0  0  0  0  0  0  0  0  0
    8.4755    7.3454   -5.2324 C   0  0  0  0  0  0  0  0  0  0  0  0
    8.8207    5.9860   -4.2359 S   0  0  0  0  0  0  0  0  0  0  0  0
    5.1715    4.4485   -3.0655 C   0  0  0  0  0  0  0  0  0  0  0  0
    4.6562    3.4071   -2.2973 C   0  0  0  0  0  0  0  0  0  0  0  0
    5.1465    1.4636    0.7010 C   0  0  0  0  0  0  0  0  0  0  0  0
    5.6670    2.6249    1.2959 C   0  0  0  0  0  0  0  0  0  0  0  0
    5.8130    2.6966    2.6847 C   0  0  0  0  0  0  0  0  0  0  0  0
    5.4459    1.6262    3.5005 C   0  0  0  0  0  0  0  0  0  0  0  0
    4.9155    0.4679    2.9137 C   0  0  0  0  0  0  0  0  0  0  0  0
    4.5285   -0.6114    3.6445 O   0  0  0  0  0  0  0  0  0  0  0  0
    4.7680    0.3954    1.5237 C   0  0  0  0  0  0  0  0  0  0  0  0
    3.9457   -0.3410   -4.5668 H   0  0  0  0  0  0  0  0  0  0  0  0
    5.6582   -0.2059   -4.1283 H   0  0  0  0  0  0  0  0  0  0  0  0
    4.5568    1.1667   -3.8496 H   0  0  0  0  0  0  0  0  0  0  0  0
    3.8122   -2.4129   -3.2880 H   0  0  0  0  0  0  0  0  0  0  0  0
    3.8319   -2.4019   -1.5113 H   0  0  0  0  0  0  0  0  0  0  0  0
    5.2659   -4.5601   -2.0922 H   0  0  0  0  0  0  0  0  0  0  0  0
    6.9125   -4.2002   -2.6320 H   0  0  0  0  0  0  0  0  0  0  0  0
    6.6163   -2.6749   -5.0884 H   0  0  0  0  0  0  0  0  0  0  0  0
    6.0615   -3.2965   -7.4379 H   0  0  0  0  0  0  0  0  0  0  0  0
    4.5768   -5.2504   -7.8951 H   0  0  0  0  0  0  0  0  0  0  0  0
    3.6584   -6.5749   -5.9891 H   0  0  0  0  0  0  0  0  0  0  0  0
    4.2233   -5.9492   -3.6513 H   0  0  0  0  0  0  0  0  0  0  0  0
    6.4037   -3.7650   -0.0478 H   0  0  0  0  0  0  0  0  0  0  0  0
    5.2360   -2.4766    0.3279 H   0  0  0  0  0  0  0  0  0  0  0  0
    6.9434   -2.2805    0.7625 H   0  0  0  0  0  0  0  0  0  0  0  0
    7.0676   -0.1062   -2.2154 H   0  0  0  0  0  0  0  0  0  0  0  0
    7.0203   -0.1308   -0.4368 H   0  0  0  0  0  0  0  0  0  0  0  0
    7.5679    2.0375   -1.1996 H   0  0  0  0  0  0  0  0  0  0  0  0
    8.4918    3.8373   -2.5727 H   0  0  0  0  0  0  0  0  0  0  0  0
    4.8707    7.7683   -5.4874 H   0  0  0  0  0  0  0  0  0  0  0  0
    9.2498    7.9546   -5.6942 H   0  0  0  0  0  0  0  0  0  0  0  0
    4.5038    5.1420   -3.5785 H   0  0  0  0  0  0  0  0  0  0  0  0
    3.5710    3.2942   -2.2178 H   0  0  0  0  0  0  0  0  0  0  0  0
    5.9532    3.4801    0.6841 H   0  0  0  0  0  0  0  0  0  0  0  0
    6.2211    3.6030    3.1397 H   0  0  0  0  0  0  0  0  0  0  0  0
    5.5655    1.6871    4.5870 H   0  0  0  0  0  0  0  0  0  0  0  0
    4.6710   -0.4323    4.5831 H   0  0  0  0  0  0  0  0  0  0  0  0
    4.3528   -0.5107    1.0839 H   0  0  0  0  0  0  0  0  0  0  0  0
  1  2  1  0
  1 41  1  0
  1 42  1  0
  1 43  1  0
  2  3  1  1
  2  4  1  0
  2 17  1  0
  4  5  1  0
  4 44  1  0
  4 45  1  0
  5  6  1  0
  5 13  1  0
  6  7  1  0
  6 46  1  0
  6 47  1  0
  7  8  2  0
  7 12  1  0
  8  9  1  0
  8 48  1  0
  9 10  2  0
  9 49  1  0
 10 11  1  0
 10 50  1  0
 11 12  2  0
 11 51  1  0
 12 52  1  0
 13 14  1  6
 13 15  1  0
 13 16  1  0
 15 53  1  0
 15 54  1  0
 15 55  1  0
 16 17  1  0
 16 56  1  0
 16 57  1  0
 17 18  1  0
 18 19  1  1
 18 20  1  0
 18 34  1  0
 20 21  2  0
 20 33  1  0
 21 22  1  0
 21 58  1  0
 22 23  2  0
 22 59  1  0
 23 24  1  0
 23 32  1  0
 24 25  2  0
 24 31  1  0
 25 26  1  0
 26 27  1  0
 26 30  2  0
 27 28  2  0
 27 29  1  0
 29 60  1  0
 30 31  1  0
 30 61  1  0
 32 33  2  0
 32 62  1  0
 33 63  1  0
 34 35  2  0
 34 40  1  0
 35 36  1  0
 35 64  1  0
 36 37  2  0
 36 65  1  0
 37 38  1  0
 37 66  1  0
 38 39  1  0
 38 40  2  0
 39 67  1  0
 40 68  1  0
M  END

