
     RDKit          3D

 52 55  0  0  0  0  0  0  0  0999 V2000
    1.5356   -1.1684   -0.5274 C   0  0  0  0  0  0  0  0  0  0  0  0
    1.9994   -1.2471    0.9215 C   0  0  1  0  0  0  0  0  0  0  0  0
    3.7814   -0.6319    1.0636 S   0  0  0  0  0  0  0  0  0  0  0  0
    3.6985    0.7541    2.1438 C   0  0  0  0  0  0  0  0  0  0  0  0
    3.7658    0.6987    3.4565 N   0  0  0  0  0  0  0  0  0  0  0  0
    3.7591    1.9713    3.9367 N   0  0  0  0  0  0  0  0  0  0  0  0
    3.7020    2.7965    2.9102 C   0  0  0  0  0  0  0  0  0  0  0  0
    3.6435    4.2901    3.0179 C   0  0  0  0  0  0  0  0  0  0  0  0
    2.2297    4.8574    3.0505 C   0  0  0  0  0  0  0  0  0  0  0  0
    1.3207    4.4377    4.0354 C   0  0  0  0  0  0  0  0  0  0  0  0
    0.0320    4.9729    4.0866 C   0  0  0  0  0  0  0  0  0  0  0  0
   -0.3691    5.9354    3.1534 C   0  0  0  0  0  0  0  0  0  0  0  0
    0.5278    6.3574    2.1694 C   0  0  0  0  0  0  0  0  0  0  0  0
    1.8185    5.8199    2.1189 C   0  0  0  0  0  0  0  0  0  0  0  0
    3.6612    2.0805    1.7392 N   0  0  0  0  0  0  0  0  0  0  0  0
    3.5694    2.6004    0.4063 C   0  0  0  0  0  0  0  0  0  0  0  0
    4.7243    3.0613   -0.2362 C   0  0  0  0  0  0  0  0  0  0  0  0
    4.6301    3.5915   -1.5254 C   0  0  0  0  0  0  0  0  0  0  0  0
    3.3890    3.6546   -2.1672 C   0  0  0  0  0  0  0  0  0  0  0  0
    2.2417    3.1852   -1.5196 C   0  0  0  0  0  0  0  0  0  0  0  0
    2.3232    2.6564   -0.2283 C   0  0  0  0  0  0  0  0  0  0  0  0
    1.0719   -0.4762    1.8674 C   0  0  0  0  0  0  0  0  0  0  0  0
    0.4652    0.5158    1.4697 O   0  0  0  0  0  0  0  0  0  0  0  0
    0.9661   -0.9285    3.1405 N   0  0  0  0  0  0  0  0  0  0  0  0
    0.2246   -0.1438    4.1389 C   0  0  0  0  0  0  0  0  0  0  0  0
    0.8648   -0.5598    5.4663 C   0  0  0  0  0  0  0  0  0  0  0  0
    1.2536   -2.0236    5.2170 C   0  0  0  0  0  0  0  0  0  0  0  0
    1.7408   -2.0187    3.7605 C   0  0  0  0  0  0  0  0  0  0  0  0
    2.2464   -1.6807   -1.1932 H   0  0  0  0  0  0  0  0  0  0  0  0
    1.4373   -0.1237   -0.8483 H   0  0  0  0  0  0  0  0  0  0  0  0
    0.5513   -1.6539   -0.6338 H   0  0  0  0  0  0  0  0  0  0  0  0
    2.0766   -2.2964    1.2363 H   0  0  0  0  0  0  0  0  0  0  0  0
    4.2066    4.7496    2.1928 H   0  0  0  0  0  0  0  0  0  0  0  0
    4.1631    4.5471    3.9543 H   0  0  0  0  0  0  0  0  0  0  0  0
    1.6332    3.6825    4.7618 H   0  0  0  0  0  0  0  0  0  0  0  0
   -0.6641    4.6373    4.8598 H   0  0  0  0  0  0  0  0  0  0  0  0
   -1.3784    6.3531    3.1935 H   0  0  0  0  0  0  0  0  0  0  0  0
    0.2234    7.1072    1.4344 H   0  0  0  0  0  0  0  0  0  0  0  0
    2.5142    6.1533    1.3436 H   0  0  0  0  0  0  0  0  0  0  0  0
    5.6881    2.9968    0.2737 H   0  0  0  0  0  0  0  0  0  0  0  0
    5.5298    3.9511   -2.0306 H   0  0  0  0  0  0  0  0  0  0  0  0
    3.3172    4.0681   -3.1763 H   0  0  0  0  0  0  0  0  0  0  0  0
    1.2719    3.2299   -2.0212 H   0  0  0  0  0  0  0  0  0  0  0  0
    1.4432    2.2668    0.2889 H   0  0  0  0  0  0  0  0  0  0  0  0
   -0.8510   -0.3976    4.1021 H   0  0  0  0  0  0  0  0  0  0  0  0
    0.3146    0.9270    3.9097 H   0  0  0  0  0  0  0  0  0  0  0  0
    0.1869   -0.4295    6.3230 H   0  0  0  0  0  0  0  0  0  0  0  0
    1.7686    0.0444    5.6431 H   0  0  0  0  0  0  0  0  0  0  0  0
    0.3701   -2.6764    5.3214 H   0  0  0  0  0  0  0  0  0  0  0  0
    2.0258   -2.3949    5.9067 H   0  0  0  0  0  0  0  0  0  0  0  0
    1.5540   -2.9821    3.2590 H   0  0  0  0  0  0  0  0  0  0  0  0
    2.8175   -1.7919    3.7030 H   0  0  0  0  0  0  0  0  0  0  0  0
  1  2  1  0
  1 29  1  0
  1 30  1  0
  1 31  1  0
  2  3  1  0
  2 22  1  0
  2 32  1  1
  3  4  1  0
  4  5  2  0
  4 15  1  0
  5  6  1  0
  6  7  2  0
  7  8  1  0
  7 15  1  0
  8  9  1  0
  8 33  1  0
  8 34  1  0
  9 10  2  0
  9 14  1  0
 10 11  1  0
 10 35  1  0
 11 12  2  0
 11 36  1  0
 12 13  1  0
 12 37  1  0
 13 14  2  0
 13 38  1  0
 14 39  1  0
 15 16  1  0
 16 17  2  0
 16 21  1  0
 17 18  1  0
 17 40  1  0
 18 19  2  0
 18 41  1  0
 19 20  1  0
 19 42  1  0
 20 21  2  0
 20 43  1  0
 21 44  1  0
 22 23  2  0
 22 24  1  0
 24 25  1  0
 24 28  1  0
 25 26  1  0
 25 45  1  0
 25 46  1  0
 26 27  1  0
 26 47  1  0
 26 48  1  0
 27 28  1  0
 27 49  1  0
 27 50  1  0
 28 51  1  0
 28 52  1  0
M  END

