
     RDKit          3D

 62 58  0  0  0  0  0  0  0  0999 V2000
    1.3375    8.0085   -1.9061 O   0  0  0  0  0  0  0  0  0  0  0  0
    2.6136    7.6173   -2.1186 C   0  0  0  0  0  0  0  0  0  0  0  0
    2.9779    6.3215   -2.5104 C   0  0  0  0  0  0  0  0  0  0  0  0
    4.3255    6.0347   -2.7001 C   0  0  0  0  0  0  0  0  0  0  0  0
    5.2743    7.0501   -2.4931 C   0  0  0  0  0  0  0  0  0  0  0  0
    6.7187    6.8131   -2.6759 C   0  0  0  0  0  0  0  0  0  0  0  0
    7.1966    5.6808   -3.0118 N   0  0  0  0  0  0  0  0  0  0  0  0
    8.6205    5.5418   -3.1860 C   0  0  0  0  0  0  0  0  0  0  0  0
    9.1796    6.4517   -2.8911 H   0  0  0  0  0  0  0  0  0  0  0  0
    8.9361    5.1675   -5.0333 P   0  0  0  0  0  0  0  0  0  0  0  0
    9.1065    4.3600   -2.3439 C   0  0  0  0  0  0  0  0  0  0  0  0
   10.4706    4.1426   -2.6041 O   0  0  0  0  0  0  0  0  0  0  0  0
   11.0202    3.0399   -1.9223 C   0  0  0  0  0  0  0  0  0  0  0  0
   12.5085    2.9515   -2.1660 C   0  0  0  0  0  0  0  0  0  0  0  0
   13.2735    4.1022   -2.4004 C   0  0  0  0  0  0  0  0  0  0  0  0
   14.6552    4.0163   -2.5818 C   0  0  0  0  0  0  0  0  0  0  0  0
   15.3099    2.7784   -2.5233 C   0  0  0  0  0  0  0  0  0  0  0  0
   16.7971    2.6691   -2.7651 C   0  0  0  0  0  0  0  0  0  0  0  0
   17.4520    3.8529   -2.3748 O   0  0  0  0  0  0  0  0  0  0  0  0
   18.8272    3.8735   -2.6648 C   0  0  0  0  0  0  0  0  0  0  0  0
   19.4278    5.1794   -2.1396 C   0  0  0  0  0  0  0  0  0  0  0  0
   18.9511    6.0334   -2.6601 H   0  0  0  0  0  0  0  0  0  0  0  0
   19.0984    5.3103   -0.2616 P   0  0  0  0  0  0  0  0  0  0  0  0
   20.8565    5.1401   -2.3246 N   0  0  0  0  0  0  0  0  0  0  0  0
   21.4322    6.1028   -2.9289 C   0  0  0  0  0  0  0  0  0  0  0  0
   22.8902    6.1533   -3.1472 C   0  0  0  0  0  0  0  0  0  0  0  0
   23.7443    5.1408   -2.6787 C   0  0  0  0  0  0  0  0  0  0  0  0
   25.1103    5.2462   -2.9175 C   0  0  0  0  0  0  0  0  0  0  0  0
   25.5874    6.3623   -3.6191 C   0  0  0  0  0  0  0  0  0  0  0  0
   26.8915    6.5691   -3.9074 O   0  0  0  0  0  0  0  0  0  0  0  0
   24.6542    7.3260   -4.0486 C   0  0  0  0  0  0  0  0  0  0  0  0
   23.3527    7.2216   -3.8185 N   0  0  0  0  0  0  0  0  0  0  0  0
   14.5460    1.6287   -2.2813 C   0  0  0  0  0  0  0  0  0  0  0  0
   13.1622    1.7129   -2.1151 C   0  0  0  0  0  0  0  0  0  0  0  0
    4.9197    8.2909   -2.1182 N   0  0  0  0  0  0  0  0  0  0  0  0
    3.6362    8.5686   -1.9361 C   0  0  0  0  0  0  0  0  0  0  0  0
    0.7341    7.2701   -2.0652 H   0  0  0  0  0  0  0  0  0  0  0  0
    2.2131    5.5530   -2.6643 H   0  0  0  0  0  0  0  0  0  0  0  0
    4.6674    5.0448   -3.0065 H   0  0  0  0  0  0  0  0  0  0  0  0
    7.3479    7.7072   -2.4958 H   0  0  0  0  0  0  0  0  0  0  0  0
   10.3075    5.5635   -5.0473 H   0  0  0  0  0  0  0  0  0  0  0  0
    8.4775    6.4404   -5.4976 H   0  0  0  0  0  0  0  0  0  0  0  0
    8.5001    3.4661   -2.5947 H   0  0  0  0  0  0  0  0  0  0  0  0
    8.9379    4.5809   -1.2687 H   0  0  0  0  0  0  0  0  0  0  0  0
   10.5276    2.0985   -2.2416 H   0  0  0  0  0  0  0  0  0  0  0  0
   10.8261    3.1385   -0.8313 H   0  0  0  0  0  0  0  0  0  0  0  0
   12.7720    5.0703   -2.4506 H   0  0  0  0  0  0  0  0  0  0  0  0
   15.2430    4.9181   -2.7615 H   0  0  0  0  0  0  0  0  0  0  0  0
   16.9862    2.4739   -3.8439 H   0  0  0  0  0  0  0  0  0  0  0  0
   17.2070    1.7969   -2.2153 H   0  0  0  0  0  0  0  0  0  0  0  0
   19.0031    3.8019   -3.7590 H   0  0  0  0  0  0  0  0  0  0  0  0
   19.3525    3.0198   -2.1909 H   0  0  0  0  0  0  0  0  0  0  0  0
   17.7699    5.8226   -0.3649 H   0  0  0  0  0  0  0  0  0  0  0  0
   19.6782    6.6107   -0.1246 H   0  0  0  0  0  0  0  0  0  0  0  0
   20.8854    6.9762   -3.3361 H   0  0  0  0  0  0  0  0  0  0  0  0
   23.3165    4.2957   -2.1369 H   0  0  0  0  0  0  0  0  0  0  0  0
   25.8032    4.4750   -2.5650 H   0  0  0  0  0  0  0  0  0  0  0  0
   27.4265    5.8428   -3.5596 H   0  0  0  0  0  0  0  0  0  0  0  0
   25.0160    8.2031   -4.5972 H   0  0  0  0  0  0  0  0  0  0  0  0
   15.0362    0.6519   -2.2268 H   0  0  0  0  0  0  0  0  0  0  0  0
   12.5847    0.8004   -1.9383 H   0  0  0  0  0  0  0  0  0  0  0  0
    3.3629    9.5851   -1.6306 H   0  0  0  0  0  0  0  0  0  0  0  0
  1  2  2  0
  1 37  1  0
  2  3  1  0
  2 36  1  0
  3  4  2  0
  3 38  1  0
  4  5  1  0
  4 39  1  0
  5  6  2  0
  5 35  1  0
  6  7  1  0
  6 40  1  0
  7  8  2  0
  8  9  1  0
  8 11  1  0
 11 12  1  0
 11 43  1  0
 11 44  1  0
 12 13  1  0
 13 14  1  0
 13 45  1  0
 13 46  1  0
 14 15  2  0
 14 34  1  0
 15 16  1  0
 15 47  1  0
 16 17  2  0
 16 48  1  0
 17 18  1  0
 17 33  1  0
 18 19  1  0
 18 49  1  0
 18 50  1  0
 19 20  1  0
 20 21  1  0
 20 51  1  0
 20 52  1  0
 21 22  1  0
 21 24  2  0
 24 25  1  0
 25 26  2  0
 25 55  1  0
 26 27  1  0
 26 32  1  0
 27 28  2  0
 27 56  1  0
 28 29  1  0
 28 57  1  0
 29 30  2  0
 29 31  1  0
 30 58  1  0
 31 32  2  0
 31 59  1  0
 33 34  2  0
 33 60  1  0
 34 61  1  0
 35 36  2  0
 36 62  1  0
M  CHG  8   1   1  10  -3  23  -3  30   1  41   1  42   1  53   1  54   1
M  END

