
     RDKit          3D

 51 54  0  0  0  0  0  0  0  0999 V2000
    5.2925   -1.1348   -1.9888 C   0  0  0  0  0  0  0  0  0  0  0  0
    4.4464   -0.8249   -0.9045 O   0  0  0  0  0  0  0  0  0  0  0  0
    4.5074   -1.5816    0.2233 C   0  0  0  0  0  0  0  0  0  0  0  0
    5.3463   -2.6924    0.3903 C   0  0  0  0  0  0  0  0  0  0  0  0
    5.3700   -3.3942    1.5998 C   0  0  0  0  0  0  0  0  0  0  0  0
    4.5542   -3.0062    2.6692 C   0  0  0  0  0  0  0  0  0  0  0  0
    4.5680   -3.7814    3.9730 C   0  0  0  0  0  0  0  0  0  0  0  0
    3.8595   -5.0550    3.9098 N   0  0  0  0  0  0  0  0  0  0  0  0
    4.4893   -6.2298    3.6840 C   0  0  0  0  0  0  0  0  0  0  0  0
    5.6981   -6.3658    3.5567 O   0  0  0  0  0  0  0  0  0  0  0  0
    3.5603   -7.4532    3.5556 C   0  0  1  0  0  0  0  0  0  0  0  0
    4.0728   -8.6552    4.3854 C   0  0  0  0  0  0  0  0  0  0  0  0
    3.1185   -8.6328    5.5542 C   0  0  0  0  0  0  0  0  0  0  0  0
    3.0349   -9.3437    6.7541 C   0  0  0  0  0  0  0  0  0  0  0  0
    4.0626  -10.3267    7.1920 C   0  0  0  0  0  0  0  0  0  0  0  0
    5.4367  -10.0316    7.1232 C   0  0  0  0  0  0  0  0  0  0  0  0
    6.3854  -10.9604    7.5574 C   0  0  0  0  0  0  0  0  0  0  0  0
    5.9903  -12.2020    8.0618 C   0  0  0  0  0  0  0  0  0  0  0  0
    4.6277  -12.4841    8.1272 C   0  0  0  0  0  0  0  0  0  0  0  0
    4.2292  -13.6719    8.6050 F   0  0  0  0  0  0  0  0  0  0  0  0
    3.6634  -11.5724    7.7079 C   0  0  0  0  0  0  0  0  0  0  0  0
    1.8900   -9.0921    7.5486 C   0  0  0  0  0  0  0  0  0  0  0  0
    0.9259   -8.1833    7.1190 C   0  0  0  0  0  0  0  0  0  0  0  0
    0.9986   -7.5039    5.9620 N   0  0  0  0  0  0  0  0  0  0  0  0
    2.0655   -7.7535    5.2381 C   0  0  0  0  0  0  0  0  0  0  0  0
    2.2321   -7.1510    4.0261 O   0  0  0  0  0  0  0  0  0  0  0  0
    3.7074   -1.9021    2.4933 C   0  0  0  0  0  0  0  0  0  0  0  0
    3.6691   -1.1867    1.2952 C   0  0  0  0  0  0  0  0  0  0  0  0
    2.8700   -0.0823    1.2190 O   0  0  0  0  0  0  0  0  0  0  0  0
    1.8065   -0.1008    0.2786 C   0  0  0  0  0  0  0  0  0  0  0  0
    5.0860   -0.3900   -2.7692 H   0  0  0  0  0  0  0  0  0  0  0  0
    5.0919   -2.1430   -2.3946 H   0  0  0  0  0  0  0  0  0  0  0  0
    6.3589   -1.0717   -1.7072 H   0  0  0  0  0  0  0  0  0  0  0  0
    6.0028   -3.0103   -0.4201 H   0  0  0  0  0  0  0  0  0  0  0  0
    6.0355   -4.2535    1.7143 H   0  0  0  0  0  0  0  0  0  0  0  0
    4.1215   -3.1755    4.7767 H   0  0  0  0  0  0  0  0  0  0  0  0
    5.6024   -4.0178    4.2603 H   0  0  0  0  0  0  0  0  0  0  0  0
    2.8452   -5.0730    3.9501 H   0  0  0  0  0  0  0  0  0  0  0  0
    3.4860   -7.6843    2.4819 H   0  0  0  0  0  0  0  0  0  0  0  0
    5.1331   -8.5109    4.6293 H   0  0  0  0  0  0  0  0  0  0  0  0
    3.9901   -9.6031    3.8272 H   0  0  0  0  0  0  0  0  0  0  0  0
    5.7647   -9.0587    6.7542 H   0  0  0  0  0  0  0  0  0  0  0  0
    7.4485  -10.7128    7.5069 H   0  0  0  0  0  0  0  0  0  0  0  0
    6.7120  -12.9465    8.4030 H   0  0  0  0  0  0  0  0  0  0  0  0
    2.6100  -11.8510    7.7691 H   0  0  0  0  0  0  0  0  0  0  0  0
    1.7705   -9.5937    8.5105 H   0  0  0  0  0  0  0  0  0  0  0  0
    0.0461   -7.9859    7.7415 H   0  0  0  0  0  0  0  0  0  0  0  0
    3.0564   -1.5557    3.3005 H   0  0  0  0  0  0  0  0  0  0  0  0
    1.2433    0.8320    0.4239 H   0  0  0  0  0  0  0  0  0  0  0  0
    1.1297   -0.9562    0.4595 H   0  0  0  0  0  0  0  0  0  0  0  0
    2.1743   -0.1443   -0.7583 H   0  0  0  0  0  0  0  0  0  0  0  0
  1  2  1  0
  1 31  1  0
  1 32  1  0
  1 33  1  0
  2  3  1  0
  3  4  2  0
  3 28  1  0
  4  5  1  0
  4 34  1  0
  5  6  2  0
  5 35  1  0
  6  7  1  0
  6 27  1  0
  7  8  1  0
  7 36  1  0
  7 37  1  0
  8  9  1  0
  8 38  1  0
  9 10  2  0
  9 11  1  0
 11 12  1  0
 11 26  1  0
 11 39  1  6
 12 13  1  0
 12 40  1  0
 12 41  1  0
 13 14  1  0
 13 25  2  0
 14 15  1  0
 14 22  2  0
 15 16  2  0
 15 21  1  0
 16 17  1  0
 16 42  1  0
 17 18  2  0
 17 43  1  0
 18 19  1  0
 18 44  1  0
 19 20  1  0
 19 21  2  0
 21 45  1  0
 22 23  1  0
 22 46  1  0
 23 24  2  0
 23 47  1  0
 24 25  1  0
 25 26  1  0
 27 28  2  0
 27 48  1  0
 28 29  1  0
 29 30  1  0
 30 49  1  0
 30 50  1  0
 30 51  1  0
M  END

