
     RDKit          3D

 48 52  0  0  0  0  0  0  0  0999 V2000
    0.8755   -0.0071   -0.9507 O   0  0  0  0  0  0  0  0  0  0  0  0
    2.0602   -0.0055   -0.6642 C   0  0  0  0  0  0  0  0  0  0  0  0
    3.0271   -1.1190   -0.6048 C   0  0  0  0  0  0  0  0  0  0  0  0
    3.0755   -2.4588   -0.7668 N   0  0  0  0  0  0  0  0  0  0  0  0
    2.3281   -3.0922   -1.0262 H   0  0  0  0  0  0  0  0  0  0  0  0
    4.3104   -2.9295   -0.5593 N   0  0  0  0  0  0  0  0  0  0  0  0
    5.0849   -1.8710   -0.2534 C   0  0  0  0  0  0  0  0  0  0  0  0
    6.5057   -2.0997    0.0721 C   0  0  0  0  0  0  0  0  0  0  0  0
    6.9094   -3.3615    0.5421 C   0  0  0  0  0  0  0  0  0  0  0  0
    8.2416   -3.6178    0.8590 C   0  0  0  0  0  0  0  0  0  0  0  0
    8.7055   -5.2001    1.4502 Cl  0  0  0  0  0  0  0  0  0  0  0  0
    9.2098   -2.6206    0.7173 C   0  0  0  0  0  0  0  0  0  0  0  0
    8.8245   -1.3680    0.2418 C   0  0  0  0  0  0  0  0  0  0  0  0
    7.4898   -1.1009   -0.0889 C   0  0  0  0  0  0  0  0  0  0  0  0
    7.1107    0.1062   -0.5912 O   0  0  0  0  0  0  0  0  0  0  0  0
    4.2905   -0.6881   -0.2777 C   0  0  0  0  0  0  0  0  0  0  0  0
    4.2549    0.8047   -0.0473 C   0  0  2  0  0  0  0  0  0  0  0  0
    4.7121    1.2609    1.3354 C   0  0  0  0  0  0  0  0  0  0  0  0
    4.2107    0.6531    2.4965 C   0  0  0  0  0  0  0  0  0  0  0  0
    4.6284    1.0785    3.7580 C   0  0  0  0  0  0  0  0  0  0  0  0
    5.5564    2.1195    3.8779 C   0  0  0  0  0  0  0  0  0  0  0  0
    6.0595    2.7317    2.7283 C   0  0  0  0  0  0  0  0  0  0  0  0
    5.6379    2.3028    1.4654 C   0  0  0  0  0  0  0  0  0  0  0  0
    2.8228    1.0980   -0.3172 N   0  0  0  0  0  0  0  0  0  0  0  0
    2.2927    2.4467   -0.4378 C   0  0  0  0  0  0  0  0  0  0  0  0
    1.7624    3.0530    0.8520 C   0  0  0  0  0  0  0  0  0  0  0  0
    0.7238    2.4007    1.5405 C   0  0  0  0  0  0  0  0  0  0  0  0
    0.1897    2.9188    2.7194 C   0  0  0  0  0  0  0  0  0  0  0  0
    0.6842    4.1197    3.2386 C   0  0  0  0  0  0  0  0  0  0  0  0
    1.7044    4.7960    2.5711 C   0  0  0  0  0  0  0  0  0  0  0  0
    2.2313    4.2622    1.3894 C   0  0  0  0  0  0  0  0  0  0  0  0
    3.5048    5.1782    0.5878 Cl  0  0  0  0  0  0  0  0  0  0  0  0
    6.1564   -4.1406    0.6578 H   0  0  0  0  0  0  0  0  0  0  0  0
   10.2506   -2.8232    0.9736 H   0  0  0  0  0  0  0  0  0  0  0  0
    9.5757   -0.5822    0.1142 H   0  0  0  0  0  0  0  0  0  0  0  0
    7.8698    0.7037   -0.6008 H   0  0  0  0  0  0  0  0  0  0  0  0
    4.8716    1.3234   -0.7995 H   0  0  0  0  0  0  0  0  0  0  0  0
    3.4870   -0.1613    2.4104 H   0  0  0  0  0  0  0  0  0  0  0  0
    4.2297    0.5951    4.6536 H   0  0  0  0  0  0  0  0  0  0  0  0
    5.8839    2.4518    4.8663 H   0  0  0  0  0  0  0  0  0  0  0  0
    6.7785    3.5508    2.8121 H   0  0  0  0  0  0  0  0  0  0  0  0
    6.0270    2.7922    0.5688 H   0  0  0  0  0  0  0  0  0  0  0  0
    1.4615    2.3855   -1.1583 H   0  0  0  0  0  0  0  0  0  0  0  0
    3.0657    3.0962   -0.8696 H   0  0  0  0  0  0  0  0  0  0  0  0
    0.3290    1.4731    1.1179 H   0  0  0  0  0  0  0  0  0  0  0  0
   -0.6180    2.3891    3.2301 H   0  0  0  0  0  0  0  0  0  0  0  0
    0.2736    4.5366    4.1616 H   0  0  0  0  0  0  0  0  0  0  0  0
    2.1013    5.7369    2.9555 H   0  0  0  0  0  0  0  0  0  0  0  0
  1  2  2  0
  2  3  1  0
  2 24  1  0
  3  4  1  0
  3 16  2  0
  4  5  1  0
  4  6  1  0
  6  7  2  0
  7  8  1  0
  7 16  1  0
  8  9  2  0
  8 14  1  0
  9 10  1  0
  9 33  1  0
 10 11  1  0
 10 12  2  0
 12 13  1  0
 12 34  1  0
 13 14  2  0
 13 35  1  0
 14 15  1  0
 15 36  1  0
 16 17  1  0
 17 18  1  0
 17 24  1  0
 17 37  1  6
 18 19  2  0
 18 23  1  0
 19 20  1  0
 19 38  1  0
 20 21  2  0
 20 39  1  0
 21 22  1  0
 21 40  1  0
 22 23  2  0
 22 41  1  0
 23 42  1  0
 24 25  1  0
 25 26  1  0
 25 43  1  0
 25 44  1  0
 26 27  2  0
 26 31  1  0
 27 28  1  0
 27 45  1  0
 28 29  2  0
 28 46  1  0
 29 30  1  0
 29 47  1  0
 30 31  2  0
 30 48  1  0
 31 32  1  0
M  END

