
     RDKit          3D

 34 37  0  0  0  0  0  0  0  0999 V2000
    3.3531    2.7279    0.1147 O   0  0  0  0  0  0  0  0  0  0  0  0
    3.9909    2.4135   -0.8677 C   0  0  0  0  0  0  0  0  0  0  0  0
    3.8636    1.1206   -1.5445 C   0  0  0  0  0  0  0  0  0  0  0  0
    3.0253    0.0735   -1.2027 C   0  0  0  0  0  0  0  0  0  0  0  0
    3.1430   -1.0361   -2.0679 C   0  0  0  0  0  0  0  0  0  0  0  0
    4.0727   -0.8508   -3.0845 C   0  0  0  0  0  0  0  0  0  0  0  0
    4.4496   -1.7866   -4.1524 C   0  0  0  0  0  0  0  0  0  0  0  0
    5.0758   -1.3496   -5.3381 C   0  0  0  0  0  0  0  0  0  0  0  0
    5.4185   -2.2540   -6.3357 C   0  0  0  0  0  0  0  0  0  0  0  0
    5.1446   -3.6212   -6.1913 C   0  0  0  0  0  0  0  0  0  0  0  0
    5.4666   -4.5171   -7.1535 O   0  0  0  0  0  0  0  0  0  0  0  0
    4.5158   -4.0934   -5.0160 C   0  0  0  0  0  0  0  0  0  0  0  0
    4.1929   -5.5103   -4.7673 C   0  0  0  0  0  0  0  0  0  0  0  0
    3.6145   -5.9005   -3.6684 N   0  0  0  0  0  0  0  0  0  0  0  0
    3.4056   -7.2577   -3.6396 C   0  0  0  0  0  0  0  0  0  0  0  0
    2.8030   -7.9722   -2.5864 C   0  0  0  0  0  0  0  0  0  0  0  0
    2.6591   -9.3499   -2.7013 C   0  0  0  0  0  0  0  0  0  0  0  0
    3.1067  -10.0316   -3.8516 C   0  0  0  0  0  0  0  0  0  0  0  0
    3.7059   -9.3448   -4.9058 C   0  0  0  0  0  0  0  0  0  0  0  0
    3.8523   -7.9560   -4.7926 C   0  0  0  0  0  0  0  0  0  0  0  0
    4.5512   -6.8222   -5.9203 S   0  0  0  0  0  0  0  0  0  0  0  0
    4.1867   -3.1581   -4.0204 C   0  0  0  0  0  0  0  0  0  0  0  0
    4.8149    0.7191   -2.9502 S   0  0  0  0  0  0  0  0  0  0  0  0
    4.7352    3.1162   -1.3248 H   0  0  0  0  0  0  0  0  0  0  0  0
    2.3486    0.1364   -0.3497 H   0  0  0  0  0  0  0  0  0  0  0  0
    2.5489   -1.9452   -1.9703 H   0  0  0  0  0  0  0  0  0  0  0  0
    5.2844   -0.2880   -5.4902 H   0  0  0  0  0  0  0  0  0  0  0  0
    5.9000   -1.9007   -7.2527 H   0  0  0  0  0  0  0  0  0  0  0  0
    5.8949   -4.0744   -7.8983 H   0  0  0  0  0  0  0  0  0  0  0  0
    2.4619   -7.4302   -1.7022 H   0  0  0  0  0  0  0  0  0  0  0  0
    2.1931   -9.9151   -1.8904 H   0  0  0  0  0  0  0  0  0  0  0  0
    2.9824  -11.1152   -3.9186 H   0  0  0  0  0  0  0  0  0  0  0  0
    4.0510   -9.8778   -5.7945 H   0  0  0  0  0  0  0  0  0  0  0  0
    3.7225   -3.5536   -3.1172 H   0  0  0  0  0  0  0  0  0  0  0  0
  1  2  2  0
  2  3  1  0
  2 24  1  0
  3  4  2  0
  3 23  1  0
  4  5  1  0
  4 25  1  0
  5  6  2  0
  5 26  1  0
  6  7  1  0
  6 23  1  0
  7  8  2  0
  7 22  1  0
  8  9  1  0
  8 27  1  0
  9 10  2  0
  9 28  1  0
 10 11  1  0
 10 12  1  0
 11 29  1  0
 12 13  1  0
 12 22  2  0
 13 14  2  0
 13 21  1  0
 14 15  1  0
 15 16  2  0
 15 20  1  0
 16 17  1  0
 16 30  1  0
 17 18  2  0
 17 31  1  0
 18 19  1  0
 18 32  1  0
 19 20  2  0
 19 33  1  0
 20 21  1  0
 22 34  1  0
M  END

