
     RDKit          3D

 47 50  0  0  0  0  0  0  0  0999 V2000
   -0.3330   -0.7761   -1.0110 C   0  0  0  0  0  0  0  0  0  0  0  0
    0.6399    0.2032   -1.2824 O   0  0  0  0  0  0  0  0  0  0  0  0
    1.8427   -0.1663   -1.7985 C   0  0  0  0  0  0  0  0  0  0  0  0
    2.7524    0.8759   -2.0422 C   0  0  0  0  0  0  0  0  0  0  0  0
    4.0028    0.5641   -2.5678 C   0  0  0  0  0  0  0  0  0  0  0  0
    4.3725   -0.7518   -2.8572 C   0  0  0  0  0  0  0  0  0  0  0  0
    3.4605   -1.8038   -2.6230 C   0  0  0  0  0  0  0  0  0  0  0  0
    3.7989   -3.1224   -2.8943 N   0  0  0  0  0  0  0  0  0  0  0  0
    2.8353   -4.2121   -2.8633 C   0  0  0  0  0  0  0  0  0  0  0  0
    3.6544   -5.3572   -3.4648 C   0  0  0  0  0  0  0  0  0  0  0  0
    4.5177   -4.7033   -4.3764 O   0  0  0  0  0  0  0  0  0  0  0  0
    4.9290   -3.4972   -3.7536 C   0  0  2  0  0  0  0  0  0  0  0  0
    5.0663   -2.7593   -4.5650 H   0  0  0  0  0  0  0  0  0  0  0  0
    6.2230   -3.6689   -2.9937 C   0  0  0  0  0  0  0  0  0  0  0  0
    7.4832   -4.0573   -3.5550 C   0  0  0  0  0  0  0  0  0  0  0  0
    8.3901   -4.1243   -2.5241 C   0  0  0  0  0  0  0  0  0  0  0  0
    7.7427   -3.7809   -1.3461 N   0  0  0  0  0  0  0  0  0  0  0  0
    8.3345   -3.7130   -0.0654 C   0  0  0  0  0  0  0  0  0  0  0  0
    9.3865   -4.5756    0.2789 C   0  0  0  0  0  0  0  0  0  0  0  0
    9.9738   -4.4995    1.5418 C   0  0  0  0  0  0  0  0  0  0  0  0
    9.5096   -3.5756    2.4821 C   0  0  0  0  0  0  0  0  0  0  0  0
   10.1218   -3.4802    3.8558 C   0  0  1  0  0  0  0  0  0  0  0  0
   11.1160   -4.3663    4.0325 F   0  0  0  0  0  0  0  0  0  0  0  0
   10.6306   -2.2545    4.0864 F   0  0  0  0  0  0  0  0  0  0  0  0
    9.2084   -3.7038    4.8205 F   0  0  0  0  0  0  0  0  0  0  0  0
    8.4536   -2.7184    2.1435 C   0  0  0  0  0  0  0  0  0  0  0  0
    7.8747   -2.7783    0.8795 C   0  0  0  0  0  0  0  0  0  0  0  0
    6.4186   -3.5055   -1.6387 C   0  0  0  0  0  0  0  0  0  0  0  0
    2.1877   -1.4936   -2.0853 C   0  0  0  0  0  0  0  0  0  0  0  0
   -1.2078   -0.2471   -0.6084 H   0  0  0  0  0  0  0  0  0  0  0  0
    0.0146   -1.5098   -0.2604 H   0  0  0  0  0  0  0  0  0  0  0  0
   -0.6373   -1.3223   -1.9229 H   0  0  0  0  0  0  0  0  0  0  0  0
    2.4571    1.9001   -1.8104 H   0  0  0  0  0  0  0  0  0  0  0  0
    4.7198    1.3679   -2.7566 H   0  0  0  0  0  0  0  0  0  0  0  0
    5.3711   -0.9590   -3.2407 H   0  0  0  0  0  0  0  0  0  0  0  0
    1.9442   -3.9859   -3.4817 H   0  0  0  0  0  0  0  0  0  0  0  0
    2.4909   -4.4368   -1.8393 H   0  0  0  0  0  0  0  0  0  0  0  0
    3.0472   -6.0876   -4.0178 H   0  0  0  0  0  0  0  0  0  0  0  0
    4.2280   -5.8880   -2.6805 H   0  0  0  0  0  0  0  0  0  0  0  0
    7.6897   -4.2643   -4.6034 H   0  0  0  0  0  0  0  0  0  0  0  0
    9.4542   -4.3449   -2.5326 H   0  0  0  0  0  0  0  0  0  0  0  0
    9.7324   -5.3245   -0.4347 H   0  0  0  0  0  0  0  0  0  0  0  0
   10.7897   -5.1752    1.8021 H   0  0  0  0  0  0  0  0  0  0  0  0
    8.0902   -1.9865    2.8683 H   0  0  0  0  0  0  0  0  0  0  0  0
    7.0775   -2.0830    0.6132 H   0  0  0  0  0  0  0  0  0  0  0  0
    5.7077   -3.2373   -0.8632 H   0  0  0  0  0  0  0  0  0  0  0  0
    1.4769   -2.2936   -1.8939 H   0  0  0  0  0  0  0  0  0  0  0  0
  1  2  1  0
  1 30  1  0
  1 31  1  0
  1 32  1  0
  2  3  1  0
  3  4  2  0
  3 29  1  0
  4  5  1  0
  4 33  1  0
  5  6  2  0
  5 34  1  0
  6  7  1  0
  6 35  1  0
  7  8  1  0
  7 29  2  0
  8  9  1  0
  8 12  1  0
  9 10  1  0
  9 36  1  0
  9 37  1  0
 10 11  1  0
 10 38  1  0
 10 39  1  0
 11 12  1  0
 12 13  1  6
 12 14  1  0
 14 15  1  0
 14 28  2  0
 15 16  2  0
 15 40  1  0
 16 17  1  0
 16 41  1  0
 17 18  1  0
 17 28  1  0
 18 19  2  0
 18 27  1  0
 19 20  1  0
 19 42  1  0
 20 21  2  0
 20 43  1  0
 21 22  1  0
 21 26  1  0
 22 23  1  6
 22 24  1  0
 22 25  1  0
 26 27  2  0
 26 44  1  0
 27 45  1  0
 28 46  1  0
 29 47  1  0
M  END

