
     RDKit          3D

 29 30  0  0  0  0  0  0  0  0999 V2000
    1.1942    0.7814   -0.3148 C   0  0  0  0  0  0  0  0  0  0  0  0
    2.3737   -0.1421    0.0264 C   0  0  0  0  0  0  0  0  0  0  0  0
    2.8618   -0.9568   -1.1551 C   0  0  0  0  0  0  0  0  0  0  0  0
    3.8035   -0.3995   -2.0549 C   0  0  0  0  0  0  0  0  0  0  0  0
    4.2658   -1.0818   -3.1835 C   0  0  0  0  0  0  0  0  0  0  0  0
    3.7431   -2.3546   -3.3791 C   0  0  0  0  0  0  0  0  0  0  0  0
    3.9976   -3.2530   -4.3760 O   0  0  0  0  0  0  0  0  0  0  0  0
    3.2234   -4.3372   -4.0656 C   0  0  0  0  0  0  0  0  0  0  0  0
    3.3176   -5.5177   -4.9857 C   0  0  1  0  0  0  0  0  0  0  0  0
    4.5829   -6.1173   -4.8454 O   0  0  0  0  0  0  0  0  0  0  0  0
    2.2169   -6.5503   -4.6872 C   0  0  0  0  0  0  0  0  0  0  0  0
    2.5489   -7.7798   -5.4060 N   0  0  0  0  0  0  0  0  0  0  0  0
    2.5087   -4.2148   -2.9947 N   0  0  0  0  0  0  0  0  0  0  0  0
    2.8098   -2.9439   -2.5116 C   0  0  0  0  0  0  0  0  0  0  0  0
    2.3593   -2.2441   -1.3862 C   0  0  0  0  0  0  0  0  0  0  0  0
    0.8725    1.3571    0.5683 H   0  0  0  0  0  0  0  0  0  0  0  0
    0.3292    0.2026   -0.6768 H   0  0  0  0  0  0  0  0  0  0  0  0
    1.4656    1.4987   -1.1061 H   0  0  0  0  0  0  0  0  0  0  0  0
    2.0775   -0.8241    0.8405 H   0  0  0  0  0  0  0  0  0  0  0  0
    3.2068    0.4644    0.4206 H   0  0  0  0  0  0  0  0  0  0  0  0
    4.1889    0.6041   -1.8535 H   0  0  0  0  0  0  0  0  0  0  0  0
    4.9968   -0.6452   -3.8659 H   0  0  0  0  0  0  0  0  0  0  0  0
    3.1832   -5.1339   -6.0227 H   0  0  0  0  0  0  0  0  0  0  0  0
    4.4163   -7.0449   -5.1093 H   0  0  0  0  0  0  0  0  0  0  0  0
    1.2224   -6.1267   -4.9215 H   0  0  0  0  0  0  0  0  0  0  0  0
    2.2317   -6.7569   -3.6073 H   0  0  0  0  0  0  0  0  0  0  0  0
    2.2350   -7.7460   -6.3762 H   0  0  0  0  0  0  0  0  0  0  0  0
    2.1147   -8.5946   -4.9779 H   0  0  0  0  0  0  0  0  0  0  0  0
    1.6376   -2.7018   -0.7056 H   0  0  0  0  0  0  0  0  0  0  0  0
  1  2  1  0
  1 16  1  0
  1 17  1  0
  1 18  1  0
  2  3  1  0
  2 19  1  0
  2 20  1  0
  3  4  2  0
  3 15  1  0
  4  5  1  0
  4 21  1  0
  5  6  2  0
  5 22  1  0
  6  7  1  0
  6 14  1  0
  7  8  1  0
  8  9  1  0
  8 13  2  0
  9 10  1  0
  9 11  1  0
  9 23  1  6
 10 24  1  0
 11 12  1  0
 11 25  1  0
 11 26  1  0
 12 27  1  0
 12 28  1  0
 13 14  1  0
 14 15  2  0
 15 29  1  0
M  END

