
     RDKit          3D

 39 40  0  0  0  0  0  0  0  0999 V2000
    5.4881    1.6136    5.2267 C   0  0  0  0  0  0  0  0  0  0  0  0
    5.7468    1.2869    3.7759 C   0  0  0  0  0  0  0  0  0  0  0  0
    7.0624    1.1679    3.2910 C   0  0  0  0  0  0  0  0  0  0  0  0
    7.3169    0.8762    1.9524 C   0  0  0  0  0  0  0  0  0  0  0  0
    6.2586    0.6884    1.0457 C   0  0  0  0  0  0  0  0  0  0  0  0
    6.5442    0.3504   -0.4053 C   0  0  0  0  0  0  0  0  0  0  0  0
    7.0309   -1.0091   -0.6057 N   0  0  0  0  0  0  0  0  0  0  0  0
    8.3441   -1.3003   -0.7638 C   0  0  0  0  0  0  0  0  0  0  0  0
    9.2374   -0.4652   -0.7772 O   0  0  0  0  0  0  0  0  0  0  0  0
    8.7160   -2.7930   -0.8735 C   0  0  1  0  0  0  0  0  0  0  0  0
    9.1315   -3.3248    0.5063 C   0  0  0  0  0  0  0  0  0  0  0  0
    7.4117   -3.9036   -1.5373 S   0  0  0  0  0  0  0  0  0  0  0  0
    7.2815   -3.4504   -3.2584 C   0  0  0  0  0  0  0  0  0  0  0  0
    6.4147   -4.2352   -4.0413 C   0  0  0  0  0  0  0  0  0  0  0  0
    6.2433   -3.9611   -5.3963 C   0  0  0  0  0  0  0  0  0  0  0  0
    6.9357   -2.9060   -5.9869 C   0  0  0  0  0  0  0  0  0  0  0  0
    6.7691   -2.6501   -7.2861 F   0  0  0  0  0  0  0  0  0  0  0  0
    7.8013   -2.1201   -5.2205 C   0  0  0  0  0  0  0  0  0  0  0  0
    8.6574   -0.8067   -5.9728 Cl  0  0  0  0  0  0  0  0  0  0  0  0
    7.9739   -2.3876   -3.8575 C   0  0  0  0  0  0  0  0  0  0  0  0
    4.9487    0.8066    1.5225 C   0  0  0  0  0  0  0  0  0  0  0  0
    4.6968    1.1019    2.8672 C   0  0  0  0  0  0  0  0  0  0  0  0
    5.9730    0.8831    5.8956 H   0  0  0  0  0  0  0  0  0  0  0  0
    4.4122    1.6180    5.4558 H   0  0  0  0  0  0  0  0  0  0  0  0
    5.8913    2.6059    5.4912 H   0  0  0  0  0  0  0  0  0  0  0  0
    7.9022    1.3136    3.9774 H   0  0  0  0  0  0  0  0  0  0  0  0
    8.3468    0.7952    1.5937 H   0  0  0  0  0  0  0  0  0  0  0  0
    7.3228    1.0173   -0.8032 H   0  0  0  0  0  0  0  0  0  0  0  0
    5.6347    0.4903   -1.0107 H   0  0  0  0  0  0  0  0  0  0  0  0
    6.3741   -1.7843   -0.5961 H   0  0  0  0  0  0  0  0  0  0  0  0
    9.5839   -2.8387   -1.5469 H   0  0  0  0  0  0  0  0  0  0  0  0
    8.2862   -3.3123    1.2122 H   0  0  0  0  0  0  0  0  0  0  0  0
    9.9257   -2.6799    0.9102 H   0  0  0  0  0  0  0  0  0  0  0  0
    9.5136   -4.3536    0.4337 H   0  0  0  0  0  0  0  0  0  0  0  0
    5.8741   -5.0691   -3.5874 H   0  0  0  0  0  0  0  0  0  0  0  0
    5.5754   -4.5619   -6.0171 H   0  0  0  0  0  0  0  0  0  0  0  0
    8.6533   -1.7444   -3.2995 H   0  0  0  0  0  0  0  0  0  0  0  0
    4.1076    0.6709    0.8353 H   0  0  0  0  0  0  0  0  0  0  0  0
    3.6631    1.1909    3.2136 H   0  0  0  0  0  0  0  0  0  0  0  0
  1  2  1  0
  1 23  1  0
  1 24  1  0
  1 25  1  0
  2  3  2  0
  2 22  1  0
  3  4  1  0
  3 26  1  0
  4  5  2  0
  4 27  1  0
  5  6  1  0
  5 21  1  0
  6  7  1  0
  6 28  1  0
  6 29  1  0
  7  8  1  0
  7 30  1  0
  8  9  2  0
  8 10  1  0
 10 11  1  0
 10 12  1  0
 10 31  1  6
 11 32  1  0
 11 33  1  0
 11 34  1  0
 12 13  1  0
 13 14  2  0
 13 20  1  0
 14 15  1  0
 14 35  1  0
 15 16  2  0
 15 36  1  0
 16 17  1  0
 16 18  1  0
 18 19  1  0
 18 20  2  0
 20 37  1  0
 21 22  2  0
 21 38  1  0
 22 39  1  0
M  END

