
     RDKit          3D

 40 41  0  0  0  0  0  0  0  0999 V2000
    1.4739   -3.9726   -3.7463 C   0  0  0  0  0  0  0  0  0  0  0  0
    1.3061   -2.4517   -3.6023 C   0  0  0  0  0  0  0  0  0  0  0  0
    2.5418   -1.7405   -3.0830 C   0  0  0  0  0  0  0  0  0  0  0  0
    3.3844   -1.0958   -4.0043 C   0  0  0  0  0  0  0  0  0  0  0  0
    4.5561   -0.4501   -3.6067 C   0  0  0  0  0  0  0  0  0  0  0  0
    4.9080   -0.4412   -2.2559 C   0  0  0  0  0  0  0  0  0  0  0  0
    4.0829   -1.0738   -1.3245 C   0  0  0  0  0  0  0  0  0  0  0  0
    2.9008   -1.7250   -1.7129 C   0  0  0  0  0  0  0  0  0  0  0  0
    2.0573   -2.4168   -0.6544 C   0  0  0  0  0  0  0  0  0  0  0  0
    2.1672   -1.7979    0.6575 N   0  0  0  0  0  0  0  0  0  0  0  0
    1.3778   -2.4630    1.6805 C   0  0  0  0  0  0  0  0  0  0  0  0
    1.5299   -1.8408    3.0529 C   0  0  0  0  0  0  0  0  0  0  0  0
    2.5821   -0.9771    3.3762 C   0  0  0  0  0  0  0  0  0  0  0  0
    2.6945   -0.4251    4.6556 C   0  0  0  0  0  0  0  0  0  0  0  0
    1.7485   -0.7412    5.6311 C   0  0  0  0  0  0  0  0  0  0  0  0
    0.6841   -1.6094    5.3516 C   0  0  0  0  0  0  0  0  0  0  0  0
   -0.3466   -1.9700    6.3944 C   0  0  0  0  0  0  0  0  0  0  0  0
    0.5919   -2.1546    4.0561 C   0  0  0  0  0  0  0  0  0  0  0  0
   -0.4102   -3.0186    3.7162 O   0  0  0  0  0  0  0  0  0  0  0  0
    0.5579   -4.4342   -4.1496 H   0  0  0  0  0  0  0  0  0  0  0  0
    1.6916   -4.4532   -2.7794 H   0  0  0  0  0  0  0  0  0  0  0  0
    2.3046   -4.2143   -4.4284 H   0  0  0  0  0  0  0  0  0  0  0  0
    0.4419   -2.2436   -2.9492 H   0  0  0  0  0  0  0  0  0  0  0  0
    1.0478   -2.0285   -4.5867 H   0  0  0  0  0  0  0  0  0  0  0  0
    3.1057   -1.0993   -5.0625 H   0  0  0  0  0  0  0  0  0  0  0  0
    5.1877    0.0449   -4.3491 H   0  0  0  0  0  0  0  0  0  0  0  0
    5.8229    0.0576   -1.9250 H   0  0  0  0  0  0  0  0  0  0  0  0
    4.3457   -1.0729   -0.2653 H   0  0  0  0  0  0  0  0  0  0  0  0
    2.3928   -3.4673   -0.5541 H   0  0  0  0  0  0  0  0  0  0  0  0
    1.0033   -2.4837   -0.9988 H   0  0  0  0  0  0  0  0  0  0  0  0
    1.8986   -0.8150    0.5960 H   0  0  0  0  0  0  0  0  0  0  0  0
    1.7017   -3.5207    1.7279 H   0  0  0  0  0  0  0  0  0  0  0  0
    0.2956   -2.5118    1.4313 H   0  0  0  0  0  0  0  0  0  0  0  0
    3.3189   -0.7468    2.6051 H   0  0  0  0  0  0  0  0  0  0  0  0
    3.5213    0.2491    4.8912 H   0  0  0  0  0  0  0  0  0  0  0  0
    1.8309   -0.3119    6.6337 H   0  0  0  0  0  0  0  0  0  0  0  0
   -0.1434   -1.4572    7.3451 H   0  0  0  0  0  0  0  0  0  0  0  0
   -0.3597   -3.0547    6.6089 H   0  0  0  0  0  0  0  0  0  0  0  0
   -1.3693   -1.6826    6.0866 H   0  0  0  0  0  0  0  0  0  0  0  0
   -1.0055   -3.1386    4.4664 H   0  0  0  0  0  0  0  0  0  0  0  0
  1  2  1  0
  1 20  1  0
  1 21  1  0
  1 22  1  0
  2  3  1  0
  2 23  1  0
  2 24  1  0
  3  4  2  0
  3  8  1  0
  4  5  1  0
  4 25  1  0
  5  6  2  0
  5 26  1  0
  6  7  1  0
  6 27  1  0
  7  8  2  0
  7 28  1  0
  8  9  1  0
  9 10  1  0
  9 29  1  0
  9 30  1  0
 10 11  1  0
 10 31  1  0
 11 12  1  0
 11 32  1  0
 11 33  1  0
 12 13  2  0
 12 18  1  0
 13 14  1  0
 13 34  1  0
 14 15  2  0
 14 35  1  0
 15 16  1  0
 15 36  1  0
 16 17  1  0
 16 18  2  0
 17 37  1  0
 17 38  1  0
 17 39  1  0
 18 19  1  0
 19 40  1  0
M  END

