
     RDKit          3D

 41 44  0  0  0  0  0  0  0  0999 V2000
    5.0963    2.6516   -0.0032 O   0  0  0  0  0  0  0  0  0  0  0  0
    4.5786    1.5628    0.1861 C   0  0  0  0  0  0  0  0  0  0  0  0
    3.5493    1.3417    1.0699 N   0  0  0  0  0  0  0  0  0  0  0  0
    2.8534    2.2645    1.8764 C   0  0  0  0  0  0  0  0  0  0  0  0
    3.1093    3.6470    1.8602 C   0  0  0  0  0  0  0  0  0  0  0  0
    2.3560    4.4940    2.6827 C   0  0  0  0  0  0  0  0  0  0  0  0
    1.3729    3.9763    3.5172 C   0  0  0  0  0  0  0  0  0  0  0  0
    1.1336    2.5916    3.5347 C   0  0  0  0  0  0  0  0  0  0  0  0
    1.8569    1.7256    2.7160 C   0  0  0  0  0  0  0  0  0  0  0  0
    0.1132    2.2885    4.4715 N   0  0  0  0  0  0  0  0  0  0  0  0
   -0.4606    1.0424    4.6096 C   0  0  0  0  0  0  0  0  0  0  0  0
   -0.1673    0.1134    3.8626 O   0  0  0  0  0  0  0  0  0  0  0  0
   -1.4777    0.8081    5.6734 C   0  0  0  0  0  0  0  0  0  0  0  0
   -1.8360    1.4337    6.8558 C   0  0  0  0  0  0  0  0  0  0  0  0
   -2.8514    0.7388    7.5700 C   0  0  0  0  0  0  0  0  0  0  0  0
   -3.2561   -0.4054    6.9235 C   0  0  0  0  0  0  0  0  0  0  0  0
   -2.3950   -0.6635    5.4573 S   0  0  0  0  0  0  0  0  0  0  0  0
   -0.2233    3.5083    5.2357 C   0  0  0  0  0  0  0  0  0  0  0  0
    0.4047    4.6734    4.4403 C   0  0  0  0  0  0  0  0  0  0  0  0
    5.0608    0.3336   -0.5494 C   0  0  0  0  0  0  0  0  0  0  0  0
    4.2842   -0.8190   -0.7493 C   0  0  0  0  0  0  0  0  0  0  0  0
    4.8058   -1.9025   -1.4608 C   0  0  0  0  0  0  0  0  0  0  0  0
    6.1007   -1.8529   -1.9805 C   0  0  0  0  0  0  0  0  0  0  0  0
    6.8650   -0.6962   -1.7897 C   0  0  0  0  0  0  0  0  0  0  0  0
    8.4841   -0.6197   -2.4451 Cl  0  0  0  0  0  0  0  0  0  0  0  0
    6.3543    0.3955   -1.0892 C   0  0  0  0  0  0  0  0  0  0  0  0
    3.2804    0.3762    1.2128 H   0  0  0  0  0  0  0  0  0  0  0  0
    3.8872    4.0385    1.2103 H   0  0  0  0  0  0  0  0  0  0  0  0
    2.5496    5.5699    2.6609 H   0  0  0  0  0  0  0  0  0  0  0  0
    1.6397    0.6597    2.7280 H   0  0  0  0  0  0  0  0  0  0  0  0
   -1.3789    2.3450    7.2334 H   0  0  0  0  0  0  0  0  0  0  0  0
   -3.2613    1.0746    8.5238 H   0  0  0  0  0  0  0  0  0  0  0  0
   -4.0194   -1.1149    7.2421 H   0  0  0  0  0  0  0  0  0  0  0  0
    0.2164    3.4491    6.2462 H   0  0  0  0  0  0  0  0  0  0  0  0
   -1.3115    3.6053    5.3415 H   0  0  0  0  0  0  0  0  0  0  0  0
    0.8867    5.4049    5.1068 H   0  0  0  0  0  0  0  0  0  0  0  0
   -0.3621    5.2200    3.8632 H   0  0  0  0  0  0  0  0  0  0  0  0
    3.2555   -0.8736   -0.3848 H   0  0  0  0  0  0  0  0  0  0  0  0
    4.1945   -2.7939   -1.6206 H   0  0  0  0  0  0  0  0  0  0  0  0
    6.5179   -2.6947   -2.5355 H   0  0  0  0  0  0  0  0  0  0  0  0
    6.9407    1.3046   -0.9537 H   0  0  0  0  0  0  0  0  0  0  0  0
  1  2  2  0
  2  3  1  0
  2 20  1  0
  3  4  1  0
  3 27  1  0
  4  5  2  0
  4  9  1  0
  5  6  1  0
  5 28  1  0
  6  7  2  0
  6 29  1  0
  7  8  1  0
  7 19  1  0
  8  9  2  0
  8 10  1  0
  9 30  1  0
 10 11  1  0
 10 18  1  0
 11 12  2  0
 11 13  1  0
 13 14  2  0
 13 17  1  0
 14 15  1  0
 14 31  1  0
 15 16  2  0
 15 32  1  0
 16 17  1  0
 16 33  1  0
 18 19  1  0
 18 34  1  0
 18 35  1  0
 19 36  1  0
 19 37  1  0
 20 21  2  0
 20 26  1  0
 21 22  1  0
 21 38  1  0
 22 23  2  0
 22 39  1  0
 23 24  1  0
 23 40  1  0
 24 25  1  0
 24 26  2  0
 26 41  1  0
M  END

