
     RDKit          3D

 48 50  0  0  0  0  0  0  0  0999 V2000
    4.2960   -4.7637    0.2637 C   0  0  0  0  0  0  0  0  0  0  0  0
    3.5959   -4.0649    1.4047 C   0  0  0  0  0  0  0  0  0  0  0  0
    4.1159   -4.1381    2.7045 C   0  0  0  0  0  0  0  0  0  0  0  0
    3.4973   -3.4895    3.7767 C   0  0  0  0  0  0  0  0  0  0  0  0
    2.3372   -2.7475    3.5558 C   0  0  0  0  0  0  0  0  0  0  0  0
    1.8038   -2.6637    2.2661 C   0  0  0  0  0  0  0  0  0  0  0  0
    2.4149   -3.3163    1.1886 C   0  0  0  0  0  0  0  0  0  0  0  0
    1.8575   -3.2158   -0.2242 C   0  0  0  0  0  0  0  0  0  0  0  0
    0.5646   -2.5545   -0.3428 N   0  0  0  0  0  0  0  0  0  0  0  0
   -0.6730   -3.1579   -0.1036 C   0  0  0  0  0  0  0  0  0  0  0  0
   -0.7290   -4.5927    0.3235 C   0  0  0  0  0  0  0  0  0  0  0  0
   -1.7247   -2.3072   -0.2666 C   0  0  0  0  0  0  0  0  0  0  0  0
   -3.1721   -2.5057    0.0647 C   0  0  0  0  0  0  0  0  0  0  0  0
   -3.7147   -1.7610    0.8709 O   0  0  0  0  0  0  0  0  0  0  0  0
   -3.8524   -3.5289   -0.5583 N   0  0  0  0  0  0  0  0  0  0  0  0
   -3.3626   -4.3193   -1.6727 C   0  0  0  0  0  0  0  0  0  0  0  0
   -5.2382   -3.7763   -0.1436 C   0  0  0  0  0  0  0  0  0  0  0  0
   -5.3830   -4.9576    0.7976 C   0  0  0  0  0  0  0  0  0  0  0  0
   -4.9449   -4.8518    2.1303 C   0  0  0  0  0  0  0  0  0  0  0  0
   -5.0515   -5.9302    3.0091 C   0  0  0  0  0  0  0  0  0  0  0  0
   -5.6065   -7.1242    2.5486 C   0  0  0  0  0  0  0  0  0  0  0  0
   -5.7132   -8.1629    3.3903 F   0  0  0  0  0  0  0  0  0  0  0  0
   -6.0557   -7.2615    1.2386 C   0  0  0  0  0  0  0  0  0  0  0  0
   -5.9382   -6.1716    0.3697 C   0  0  0  0  0  0  0  0  0  0  0  0
   -1.1857   -0.6758   -0.6769 S   0  0  0  0  0  0  0  0  0  0  0  0
    0.5289   -1.2067   -0.7019 C   0  0  0  0  0  0  0  0  0  0  0  0
    1.4853   -0.5239   -0.9824 O   0  0  0  0  0  0  0  0  0  0  0  0
    5.2083   -5.2705    0.6091 H   0  0  0  0  0  0  0  0  0  0  0  0
    4.5878   -4.0577   -0.5323 H   0  0  0  0  0  0  0  0  0  0  0  0
    3.6538   -5.5260   -0.2111 H   0  0  0  0  0  0  0  0  0  0  0  0
    5.0291   -4.7151    2.8766 H   0  0  0  0  0  0  0  0  0  0  0  0
    3.9251   -3.5627    4.7797 H   0  0  0  0  0  0  0  0  0  0  0  0
    1.8449   -2.2286    4.3818 H   0  0  0  0  0  0  0  0  0  0  0  0
    0.8992   -2.0754    2.0985 H   0  0  0  0  0  0  0  0  0  0  0  0
    1.7858   -4.2154   -0.6800 H   0  0  0  0  0  0  0  0  0  0  0  0
    2.5505   -2.6313   -0.8502 H   0  0  0  0  0  0  0  0  0  0  0  0
   -0.0612   -4.7751    1.1796 H   0  0  0  0  0  0  0  0  0  0  0  0
   -0.4182   -5.2717   -0.4893 H   0  0  0  0  0  0  0  0  0  0  0  0
   -1.7478   -4.8661    0.6233 H   0  0  0  0  0  0  0  0  0  0  0  0
   -2.3850   -3.9520   -2.0034 H   0  0  0  0  0  0  0  0  0  0  0  0
   -4.0623   -4.2448   -2.5237 H   0  0  0  0  0  0  0  0  0  0  0  0
   -3.2697   -5.3869   -1.4071 H   0  0  0  0  0  0  0  0  0  0  0  0
   -5.8441   -3.9412   -1.0491 H   0  0  0  0  0  0  0  0  0  0  0  0
   -5.5901   -2.8585    0.3450 H   0  0  0  0  0  0  0  0  0  0  0  0
   -4.5230   -3.9058    2.4798 H   0  0  0  0  0  0  0  0  0  0  0  0
   -4.7204   -5.8594    4.0472 H   0  0  0  0  0  0  0  0  0  0  0  0
   -6.4896   -8.2099    0.9160 H   0  0  0  0  0  0  0  0  0  0  0  0
   -6.2947   -6.2712   -0.6597 H   0  0  0  0  0  0  0  0  0  0  0  0
  1  2  1  0
  1 28  1  0
  1 29  1  0
  1 30  1  0
  2  3  2  0
  2  7  1  0
  3  4  1  0
  3 31  1  0
  4  5  2  0
  4 32  1  0
  5  6  1  0
  5 33  1  0
  6  7  2  0
  6 34  1  0
  7  8  1  0
  8  9  1  0
  8 35  1  0
  8 36  1  0
  9 10  1  0
  9 26  1  0
 10 11  1  0
 10 12  2  0
 11 37  1  0
 11 38  1  0
 11 39  1  0
 12 13  1  0
 12 25  1  0
 13 14  2  0
 13 15  1  0
 15 16  1  0
 15 17  1  0
 16 40  1  0
 16 41  1  0
 16 42  1  0
 17 18  1  0
 17 43  1  0
 17 44  1  0
 18 19  2  0
 18 24  1  0
 19 20  1  0
 19 45  1  0
 20 21  2  0
 20 46  1  0
 21 22  1  0
 21 23  1  0
 23 24  2  0
 23 47  1  0
 24 48  1  0
 25 26  2  0
 26 27  1  0
M  CHG  2  25   1  27  -1
M  END

