
     RDKit          3D

 50 51  0  0  0  0  0  0  0  0999 V2000
    0.6435    0.6199   -0.8957 C   0  0  0  0  0  0  0  0  0  0  0  0
    1.8960    0.4302   -0.2753 O   0  0  0  0  0  0  0  0  0  0  0  0
    2.6455    1.5138    0.0543 C   0  0  0  0  0  0  0  0  0  0  0  0
    2.2792    2.8422   -0.2045 C   0  0  0  0  0  0  0  0  0  0  0  0
    3.1031    3.8984    0.1963 C   0  0  0  0  0  0  0  0  0  0  0  0
    4.3098    3.6590    0.8637 C   0  0  0  0  0  0  0  0  0  0  0  0
    5.1838    4.8120    1.3126 C   0  0  0  0  0  0  0  0  0  0  0  0
    4.6036    5.5729    2.4221 N   0  0  0  0  0  0  0  0  0  0  0  0
    4.5010    4.8702    3.7095 C   0  0  0  0  0  0  0  0  0  0  0  0
    4.3291    6.0031    4.7213 C   0  0  0  0  0  0  0  0  0  0  0  0
    5.2911    7.0703    4.1797 C   0  0  0  0  0  0  0  0  0  0  0  0
    5.1595    6.9252    2.6450 C   0  0  2  0  0  0  0  0  0  0  0  0
    6.1390    7.0660    2.1569 H   0  0  0  0  0  0  0  0  0  0  0  0
    4.2140    7.9902    2.0413 C   0  0  0  0  0  0  0  0  0  0  0  0
    4.4891    9.1607    1.9987 O   0  0  0  0  0  0  0  0  0  0  0  0
    3.0644    7.4730    1.6015 O   0  0  0  0  0  0  0  0  0  0  0  0
    4.6770    2.3278    1.1075 C   0  0  0  0  0  0  0  0  0  0  0  0
    3.8728    1.2562    0.7141 C   0  0  0  0  0  0  0  0  0  0  0  0
    4.2614   -0.0098    1.0387 O   0  0  0  0  0  0  0  0  0  0  0  0
    4.5834   -0.9079   -0.0277 C   0  0  0  0  0  0  0  0  0  0  0  0
    5.0702   -2.2068    0.5960 C   0  0  0  0  0  0  0  0  0  0  0  0
    5.3478   -3.3418   -0.4056 C   0  0  1  0  0  0  0  0  0  0  0  0
    6.4721   -3.0007   -1.3943 C   0  0  0  0  0  0  0  0  0  0  0  0
    5.6573   -4.6469    0.3391 C   0  0  0  0  0  0  0  0  0  0  0  0
    0.2151   -0.3800   -1.0464 H   0  0  0  0  0  0  0  0  0  0  0  0
    0.7403    1.1192   -1.8767 H   0  0  0  0  0  0  0  0  0  0  0  0
   -0.0413    1.2112   -0.2620 H   0  0  0  0  0  0  0  0  0  0  0  0
    1.3436    3.0642   -0.7182 H   0  0  0  0  0  0  0  0  0  0  0  0
    2.7945    4.9247   -0.0225 H   0  0  0  0  0  0  0  0  0  0  0  0
    5.3210    5.5107    0.4714 H   0  0  0  0  0  0  0  0  0  0  0  0
    6.1919    4.4310    1.5805 H   0  0  0  0  0  0  0  0  0  0  0  0
    5.4286    4.2974    3.9253 H   0  0  0  0  0  0  0  0  0  0  0  0
    3.6674    4.1514    3.6998 H   0  0  0  0  0  0  0  0  0  0  0  0
    4.5590    5.6921    5.7511 H   0  0  0  0  0  0  0  0  0  0  0  0
    3.2900    6.3721    4.7067 H   0  0  0  0  0  0  0  0  0  0  0  0
    6.3234    6.8355    4.4843 H   0  0  0  0  0  0  0  0  0  0  0  0
    5.0725    8.0937    4.5151 H   0  0  0  0  0  0  0  0  0  0  0  0
    3.1624    6.5040    1.8064 H   0  0  0  0  0  0  0  0  0  0  0  0
    5.6099    2.0877    1.6238 H   0  0  0  0  0  0  0  0  0  0  0  0
    5.3605   -0.4456   -0.6637 H   0  0  0  0  0  0  0  0  0  0  0  0
    3.6940   -1.0883   -0.6546 H   0  0  0  0  0  0  0  0  0  0  0  0
    4.2995   -2.5340    1.3145 H   0  0  0  0  0  0  0  0  0  0  0  0
    5.9789   -2.0010    1.1902 H   0  0  0  0  0  0  0  0  0  0  0  0
    4.4221   -3.5031   -0.9912 H   0  0  0  0  0  0  0  0  0  0  0  0
    7.4154   -2.7914   -0.8603 H   0  0  0  0  0  0  0  0  0  0  0  0
    6.2356   -2.1196   -2.0112 H   0  0  0  0  0  0  0  0  0  0  0  0
    6.6606   -3.8406   -2.0826 H   0  0  0  0  0  0  0  0  0  0  0  0
    6.5738   -4.5468    0.9459 H   0  0  0  0  0  0  0  0  0  0  0  0
    5.8131   -5.4819   -0.3630 H   0  0  0  0  0  0  0  0  0  0  0  0
    4.8374   -4.9275    1.0200 H   0  0  0  0  0  0  0  0  0  0  0  0
  1  2  1  0
  1 25  1  0
  1 26  1  0
  1 27  1  0
  2  3  1  0
  3  4  2  0
  3 18  1  0
  4  5  1  0
  4 28  1  0
  5  6  2  0
  5 29  1  0
  6  7  1  0
  6 17  1  0
  7  8  1  0
  7 30  1  0
  7 31  1  0
  8  9  1  0
  8 12  1  0
  9 10  1  0
  9 32  1  0
  9 33  1  0
 10 11  1  0
 10 34  1  0
 10 35  1  0
 11 12  1  0
 11 36  1  0
 11 37  1  0
 12 13  1  6
 12 14  1  0
 14 15  2  0
 14 16  1  0
 16 38  1  0
 17 18  2  0
 17 39  1  0
 18 19  1  0
 19 20  1  0
 20 21  1  0
 20 40  1  0
 20 41  1  0
 21 22  1  0
 21 42  1  0
 21 43  1  0
 22 23  1  0
 22 24  1  0
 22 44  1  6
 23 45  1  0
 23 46  1  0
 23 47  1  0
 24 48  1  0
 24 49  1  0
 24 50  1  0
M  END

