
     RDKit          3D

 39 41  0  0  0  0  0  0  0  0999 V2000
    3.5504    0.6747   -1.0302 C   0  0  0  0  0  0  0  0  0  0  0  0
    3.4484   -0.0296    0.3260 C   0  0  1  0  0  0  0  0  0  0  0  0
    3.7817   -1.4427    0.1852 N   0  0  0  0  0  0  0  0  0  0  0  0
    3.0874   -2.4390    0.8288 C   0  0  0  0  0  0  0  0  0  0  0  0
    2.0873   -2.1804    1.5208 O   0  0  0  0  0  0  0  0  0  0  0  0
    3.5466   -3.8057    0.6620 C   0  0  0  0  0  0  0  0  0  0  0  0
    4.9169   -4.3621   -0.3196 S   0  0  0  0  0  0  0  0  0  0  0  0
    4.5345   -6.0144    0.1767 C   0  0  0  0  0  0  0  0  0  0  0  0
    5.2753   -7.0551   -0.2591 N   0  0  0  0  0  0  0  0  0  0  0  0
    6.4188   -6.9400   -1.1589 C   0  0  0  0  0  0  0  0  0  0  0  0
    6.7196   -8.3983   -1.5333 C   0  0  0  0  0  0  0  0  0  0  0  0
    6.2636   -9.1836   -0.2933 C   0  0  0  0  0  0  0  0  0  0  0  0
    5.0049   -8.4330    0.1603 C   0  0  0  0  0  0  0  0  0  0  0  0
    3.5055   -6.1403    0.9791 N   0  0  0  0  0  0  0  0  0  0  0  0
    2.9447   -4.9232    1.2584 C   0  0  0  0  0  0  0  0  0  0  0  0
    1.8718   -4.8562    2.0741 N   0  0  0  0  0  0  0  0  0  0  0  0
    4.2908    0.6631    1.3897 C   0  0  1  0  0  0  0  0  0  0  0  0
    3.6970    1.7843    2.2068 C   0  0  0  0  0  0  0  0  0  0  0  0
    3.9815    0.4482    2.8474 C   0  0  0  0  0  0  0  0  0  0  0  0
    2.8947    0.1963   -1.7739 H   0  0  0  0  0  0  0  0  0  0  0  0
    4.5843    0.6446   -1.4169 H   0  0  0  0  0  0  0  0  0  0  0  0
    3.2646    1.7339   -0.9397 H   0  0  0  0  0  0  0  0  0  0  0  0
    2.4017   -0.0183    0.6654 H   0  0  0  0  0  0  0  0  0  0  0  0
    4.6519   -1.6755   -0.2790 H   0  0  0  0  0  0  0  0  0  0  0  0
    7.2767   -6.4617   -0.6467 H   0  0  0  0  0  0  0  0  0  0  0  0
    6.1713   -6.3151   -2.0347 H   0  0  0  0  0  0  0  0  0  0  0  0
    7.7776   -8.5567   -1.7882 H   0  0  0  0  0  0  0  0  0  0  0  0
    6.1178   -8.6909   -2.4097 H   0  0  0  0  0  0  0  0  0  0  0  0
    7.0359   -9.1325    0.4923 H   0  0  0  0  0  0  0  0  0  0  0  0
    6.0692  -10.2463   -0.4998 H   0  0  0  0  0  0  0  0  0  0  0  0
    4.8252   -8.4765    1.2450 H   0  0  0  0  0  0  0  0  0  0  0  0
    4.0921   -8.8152   -0.3336 H   0  0  0  0  0  0  0  0  0  0  0  0
    1.4606   -5.7099    2.4213 H   0  0  0  0  0  0  0  0  0  0  0  0
    1.4645   -3.9331    2.2129 H   0  0  0  0  0  0  0  0  0  0  0  0
    5.3508    0.7667    1.1224 H   0  0  0  0  0  0  0  0  0  0  0  0
    2.6516    2.0521    2.0225 H   0  0  0  0  0  0  0  0  0  0  0  0
    4.3348    2.6350    2.4641 H   0  0  0  0  0  0  0  0  0  0  0  0
    3.1352   -0.2042    3.0793 H   0  0  0  0  0  0  0  0  0  0  0  0
    4.8167    0.3787    3.5502 H   0  0  0  0  0  0  0  0  0  0  0  0
  1  2  1  0
  1 20  1  0
  1 21  1  0
  1 22  1  0
  2  3  1  0
  2 17  1  0
  2 23  1  1
  3  4  1  0
  3 24  1  0
  4  5  2  0
  4  6  1  0
  6  7  1  0
  6 15  2  0
  7  8  1  0
  8  9  1  0
  8 14  2  0
  9 10  1  0
  9 13  1  0
 10 11  1  0
 10 25  1  0
 10 26  1  0
 11 12  1  0
 11 27  1  0
 11 28  1  0
 12 13  1  0
 12 29  1  0
 12 30  1  0
 13 31  1  0
 13 32  1  0
 14 15  1  0
 15 16  1  0
 16 33  1  0
 16 34  1  0
 17 18  1  0
 17 19  1  0
 17 35  1  1
 18 19  1  0
 18 36  1  0
 18 37  1  0
 19 38  1  0
 19 39  1  0
M  END

