
     RDKit          3D

 45 46  0  0  0  0  0  0  0  0999 V2000
    0.2268   -0.3821    3.0945 C   0  0  0  0  0  0  0  0  0  0  0  0
    1.5255    0.2623    3.6043 C   0  0  0  0  0  0  0  0  0  0  0  0
    2.3074    0.9853    2.5302 C   0  0  0  0  0  0  0  0  0  0  0  0
    2.2717    2.3767    2.4100 C   0  0  0  0  0  0  0  0  0  0  0  0
    2.9760    3.0782    1.4148 C   0  0  0  0  0  0  0  0  0  0  0  0
    2.8726    4.5818    1.2960 C   0  0  0  0  0  0  0  0  0  0  0  0
    1.6657    5.0399    0.4498 C   0  0  0  0  0  0  0  0  0  0  0  0
    1.5864    6.4904    0.3277 N   0  0  0  0  0  0  0  0  0  0  0  0
    1.1480    7.0115   -0.9650 C   0  0  0  0  0  0  0  0  0  0  0  0
   -0.3773    7.0728   -1.1140 C   0  0  0  0  0  0  0  0  0  0  0  0
   -0.9190    7.8375    0.0028 N   0  0  0  0  0  0  0  0  0  0  0  0
   -0.5895    7.2258    1.2849 C   0  0  0  0  0  0  0  0  0  0  0  0
    0.9442    7.1765    1.4639 C   0  0  2  0  0  0  0  0  0  0  0  0
    1.5421    8.5692    1.6959 C   0  0  0  0  0  0  0  0  0  0  0  0
    3.7404    2.3269    0.5164 C   0  0  0  0  0  0  0  0  0  0  0  0
    3.8048    0.9313    0.6042 C   0  0  0  0  0  0  0  0  0  0  0  0
    3.0896    0.2583    1.6022 C   0  0  0  0  0  0  0  0  0  0  0  0
    3.0963   -1.0967    1.7616 O   0  0  0  0  0  0  0  0  0  0  0  0
    3.8784   -1.8909    0.9017 C   0  0  0  0  0  0  0  0  0  0  0  0
   -0.3054   -0.8952    3.9121 H   0  0  0  0  0  0  0  0  0  0  0  0
    0.4403   -1.1242    2.3106 H   0  0  0  0  0  0  0  0  0  0  0  0
   -0.4529    0.3744    2.6700 H   0  0  0  0  0  0  0  0  0  0  0  0
    2.1612   -0.5212    4.0482 H   0  0  0  0  0  0  0  0  0  0  0  0
    1.2885    0.9759    4.4107 H   0  0  0  0  0  0  0  0  0  0  0  0
    1.6756    2.9415    3.1348 H   0  0  0  0  0  0  0  0  0  0  0  0
    3.7839    4.9973    0.8371 H   0  0  0  0  0  0  0  0  0  0  0  0
    2.7979    5.0283    2.3019 H   0  0  0  0  0  0  0  0  0  0  0  0
    0.7433    4.5842    0.8702 H   0  0  0  0  0  0  0  0  0  0  0  0
    1.7727    4.6101   -0.5592 H   0  0  0  0  0  0  0  0  0  0  0  0
    1.5889    6.3964   -1.7652 H   0  0  0  0  0  0  0  0  0  0  0  0
    1.5443    8.0342   -1.0920 H   0  0  0  0  0  0  0  0  0  0  0  0
   -0.7849    6.0353   -1.1641 H   0  0  0  0  0  0  0  0  0  0  0  0
   -0.6402    7.5721   -2.0618 H   0  0  0  0  0  0  0  0  0  0  0  0
   -1.9249    7.9583   -0.0908 H   0  0  0  0  0  0  0  0  0  0  0  0
   -0.9905    6.1897    1.3752 H   0  0  0  0  0  0  0  0  0  0  0  0
   -1.0433    7.8174    2.0972 H   0  0  0  0  0  0  0  0  0  0  0  0
    1.1522    6.5716    2.3614 H   0  0  0  0  0  0  0  0  0  0  0  0
    1.2619    9.2637    0.8905 H   0  0  0  0  0  0  0  0  0  0  0  0
    2.6395    8.5079    1.7449 H   0  0  0  0  0  0  0  0  0  0  0  0
    1.1711    8.9959    2.6419 H   0  0  0  0  0  0  0  0  0  0  0  0
    4.3095    2.8353   -0.2677 H   0  0  0  0  0  0  0  0  0  0  0  0
    4.4188    0.3812   -0.1092 H   0  0  0  0  0  0  0  0  0  0  0  0
    3.7386   -2.9326    1.2215 H   0  0  0  0  0  0  0  0  0  0  0  0
    4.9522   -1.6378    0.9690 H   0  0  0  0  0  0  0  0  0  0  0  0
    3.5596   -1.7961   -0.1525 H   0  0  0  0  0  0  0  0  0  0  0  0
  1  2  1  0
  1 20  1  0
  1 21  1  0
  1 22  1  0
  2  3  1  0
  2 23  1  0
  2 24  1  0
  3  4  2  0
  3 17  1  0
  4  5  1  0
  4 25  1  0
  5  6  1  0
  5 15  2  0
  6  7  1  0
  6 26  1  0
  6 27  1  0
  7  8  1  0
  7 28  1  0
  7 29  1  0
  8  9  1  0
  8 13  1  0
  9 10  1  0
  9 30  1  0
  9 31  1  0
 10 11  1  0
 10 32  1  0
 10 33  1  0
 11 12  1  0
 11 34  1  0
 12 13  1  0
 12 35  1  0
 12 36  1  0
 13 14  1  0
 13 37  1  1
 14 38  1  0
 14 39  1  0
 14 40  1  0
 15 16  1  0
 15 41  1  0
 16 17  2  0
 16 42  1  0
 17 18  1  0
 18 19  1  0
 19 43  1  0
 19 44  1  0
 19 45  1  0
M  END

