
     RDKit          3D

 30 33  0  0  0  0  0  0  0  0999 V2000
    1.0321    0.2361   -0.0343 O   0  0  0  0  0  0  0  0  0  0  0  0
    2.2362    0.0974   -0.0373 C   0  0  0  0  0  0  0  0  0  0  0  0
    3.0744    1.2257   -0.0360 N   0  0  0  0  0  0  0  0  0  0  0  0
    2.5774    2.1104   -0.0322 H   0  0  0  0  0  0  0  0  0  0  0  0
    4.4347    1.2344   -0.0392 C   0  0  0  0  0  0  0  0  0  0  0  0
    5.1037    0.0851   -0.0441 N   0  0  0  0  0  0  0  0  0  0  0  0
    4.4024   -1.1421   -0.0466 C   0  0  0  0  0  0  0  0  0  0  0  0
    5.0912   -2.3729   -0.0529 C   0  0  0  0  0  0  0  0  0  0  0  0
    4.3772   -3.5654   -0.0554 C   0  0  0  0  0  0  0  0  0  0  0  0
    2.9727   -3.5810   -0.0519 C   0  0  0  0  0  0  0  0  0  0  0  0
    2.2827   -2.3778   -0.0459 C   0  0  0  0  0  0  0  0  0  0  0  0
    2.9874   -1.1625   -0.0433 C   0  0  0  0  0  0  0  0  0  0  0  0
    6.7305    0.0485   -0.0483 B   0  0  2  0  0  0  0  0  0  0  0  0
    7.1219   -0.6016   -1.1972 F   0  0  0  0  0  0  0  0  0  0  0  0
    7.1277   -0.6093    1.0943 F   0  0  0  0  0  0  0  0  0  0  0  0
    7.2464    1.4127   -0.0447 O   0  0  0  0  0  0  0  0  0  0  0  0
    6.5441    2.5185   -0.0407 C   0  0  0  0  0  0  0  0  0  0  0  0
    7.2307    3.7552   -0.0390 C   0  0  0  0  0  0  0  0  0  0  0  0
    6.5306    4.9484   -0.0348 C   0  0  0  0  0  0  0  0  0  0  0  0
    5.1204    4.9574   -0.0321 C   0  0  0  0  0  0  0  0  0  0  0  0
    4.4353    3.7558   -0.0337 C   0  0  0  0  0  0  0  0  0  0  0  0
    5.1217    2.5158   -0.0378 C   0  0  0  0  0  0  0  0  0  0  0  0
    6.1770   -2.3878   -0.0556 H   0  0  0  0  0  0  0  0  0  0  0  0
    4.9302   -4.5080   -0.0602 H   0  0  0  0  0  0  0  0  0  0  0  0
    2.4319   -4.5298   -0.0540 H   0  0  0  0  0  0  0  0  0  0  0  0
    1.1920   -2.3334   -0.0432 H   0  0  0  0  0  0  0  0  0  0  0  0
    8.3214    3.7239   -0.0411 H   0  0  0  0  0  0  0  0  0  0  0  0
    7.0786    5.8943   -0.0335 H   0  0  0  0  0  0  0  0  0  0  0  0
    4.5722    5.9010   -0.0290 H   0  0  0  0  0  0  0  0  0  0  0  0
    3.3429    3.7919   -0.0318 H   0  0  0  0  0  0  0  0  0  0  0  0
  1  2  2  0
  2  3  1  0
  2 12  1  0
  3  4  1  0
  3  5  1  0
  5  6  1  0
  5 22  2  0
  6  7  1  0
  6 13  1  0
  7  8  1  0
  7 12  2  0
  8  9  2  0
  8 23  1  0
  9 10  1  0
  9 24  1  0
 10 11  2  0
 10 25  1  0
 11 12  1  0
 11 26  1  0
 13 14  1  6
 13 15  1  0
 13 16  1  0
 16 17  2  0
 17 18  1  0
 17 22  1  0
 18 19  2  0
 18 27  1  0
 19 20  1  0
 19 28  1  0
 20 21  2  0
 20 29  1  0
 21 22  1  0
 21 30  1  0
M  CHG  2  13  -1  16   1
M  END

