
     RDKit          3D

 38 38  0  0  0  0  0  0  0  0999 V2000
    0.9560    0.9067    0.8488 C   0  0  0  0  0  0  0  0  0  0  0  0
    2.4476    1.0899    0.9933 C   0  0  0  0  0  0  0  0  0  0  0  0
    2.9034    1.3995    2.3977 C   0  0  0  0  0  0  0  0  0  0  0  0
    3.2634    0.9723   -0.0708 C   0  0  0  0  0  0  0  0  0  0  0  0
    4.7591    1.1233   -0.1319 C   0  0  0  0  0  0  0  0  0  0  0  0
    5.2021    2.2922   -1.0325 C   0  0  0  0  0  0  0  0  0  0  0  0
    6.7302    2.4589   -1.1409 C   0  0  1  0  0  0  0  0  0  0  0  0
    7.1405    2.4243   -0.1174 H   0  0  0  0  0  0  0  0  0  0  0  0
    7.3953    1.3158   -1.9344 C   0  0  0  0  0  0  0  0  0  0  0  0
    7.1478    3.8053   -1.7203 C   0  0  0  0  0  0  0  0  0  0  0  0
    6.3563    4.5314   -2.6102 C   0  0  0  0  0  0  0  0  0  0  0  0
    6.7799    5.7513   -3.1492 C   0  0  0  0  0  0  0  0  0  0  0  0
    5.5717    6.6229   -4.3596 Br  0  0  0  0  0  0  0  0  0  0  0  0
    8.0223    6.3207   -2.8252 C   0  0  0  0  0  0  0  0  0  0  0  0
    8.5148    7.6322   -3.3761 C   0  0  0  0  0  0  0  0  0  0  0  0
    8.8065    5.5721   -1.9260 C   0  0  0  0  0  0  0  0  0  0  0  0
   10.5336    6.2315   -1.3877 Br  0  0  0  0  0  0  0  0  0  0  0  0
    8.4083    4.3427   -1.3759 C   0  0  0  0  0  0  0  0  0  0  0  0
    9.1825    3.6383   -0.5218 O   0  0  0  0  0  0  0  0  0  0  0  0
    0.4118    1.8131    1.1702 H   0  0  0  0  0  0  0  0  0  0  0  0
    0.5927    0.0843    1.4913 H   0  0  0  0  0  0  0  0  0  0  0  0
    0.6651    0.6834   -0.1884 H   0  0  0  0  0  0  0  0  0  0  0  0
    2.4096    2.3134    2.7732 H   0  0  0  0  0  0  0  0  0  0  0  0
    3.9885    1.5438    2.4843 H   0  0  0  0  0  0  0  0  0  0  0  0
    2.6145    0.5873    3.0886 H   0  0  0  0  0  0  0  0  0  0  0  0
    2.7903    0.7472   -1.0364 H   0  0  0  0  0  0  0  0  0  0  0  0
    5.1904    0.1826   -0.5199 H   0  0  0  0  0  0  0  0  0  0  0  0
    5.1876    1.2613    0.8735 H   0  0  0  0  0  0  0  0  0  0  0  0
    4.7619    3.2215   -0.6336 H   0  0  0  0  0  0  0  0  0  0  0  0
    4.7655    2.1534   -2.0383 H   0  0  0  0  0  0  0  0  0  0  0  0
    7.1825    0.3347   -1.4820 H   0  0  0  0  0  0  0  0  0  0  0  0
    8.4879    1.4397   -1.9571 H   0  0  0  0  0  0  0  0  0  0  0  0
    7.0303    1.2990   -2.9746 H   0  0  0  0  0  0  0  0  0  0  0  0
    5.3787    4.1474   -2.8994 H   0  0  0  0  0  0  0  0  0  0  0  0
    7.7837    8.0759   -4.0610 H   0  0  0  0  0  0  0  0  0  0  0  0
    9.4644    7.4967   -3.9184 H   0  0  0  0  0  0  0  0  0  0  0  0
    8.7114    8.3492   -2.5627 H   0  0  0  0  0  0  0  0  0  0  0  0
   10.0070    4.1287   -0.3645 H   0  0  0  0  0  0  0  0  0  0  0  0
  1  2  1  0
  1 20  1  0
  1 21  1  0
  1 22  1  0
  2  3  1  0
  2  4  2  0
  3 23  1  0
  3 24  1  0
  3 25  1  0
  4  5  1  0
  4 26  1  0
  5  6  1  0
  5 27  1  0
  5 28  1  0
  6  7  1  0
  6 29  1  0
  6 30  1  0
  7  8  1  1
  7  9  1  0
  7 10  1  0
  9 31  1  0
  9 32  1  0
  9 33  1  0
 10 11  2  0
 10 18  1  0
 11 12  1  0
 11 34  1  0
 12 13  1  0
 12 14  2  0
 14 15  1  0
 14 16  1  0
 15 35  1  0
 15 36  1  0
 15 37  1  0
 16 17  1  0
 16 18  2  0
 18 19  1  0
 19 38  1  0
M  END

