
     RDKit          3D

 34 38  0  0  0  0  0  0  0  0999 V2000
    5.9213    1.3322   -3.5393 N   0  0  0  0  0  0  0  0  0  0  0  0
    6.0270    1.2931   -2.3804 C   0  0  0  0  0  0  0  0  0  0  0  0
    6.1529    1.2478   -0.9647 C   0  0  0  0  0  0  0  0  0  0  0  0
    5.2292    1.9285   -0.1598 C   0  0  0  0  0  0  0  0  0  0  0  0
    4.1083    2.8076   -0.5411 C   0  0  0  0  0  0  0  0  0  0  0  0
    3.5205    3.2538   -1.7203 C   0  0  0  0  0  0  0  0  0  0  0  0
    2.4184    4.1425   -1.6128 C   0  0  0  0  0  0  0  0  0  0  0  0
    1.9138    4.5805   -0.3899 C   0  0  0  0  0  0  0  0  0  0  0  0
    2.4994    4.1428    0.8311 C   0  0  0  0  0  0  0  0  0  0  0  0
    2.1437    4.4697    2.1762 C   0  0  0  0  0  0  0  0  0  0  0  0
    2.8624    3.9234    3.2303 C   0  0  0  0  0  0  0  0  0  0  0  0
    3.9642    3.0327    3.0535 C   0  0  0  0  0  0  0  0  0  0  0  0
    4.3109    2.7078    1.7557 C   0  0  0  0  0  0  0  0  0  0  0  0
    3.5823    3.2627    0.6852 C   0  0  0  0  0  0  0  0  0  0  0  0
    5.3085    1.8869    1.2009 N   0  0  0  0  0  0  0  0  0  0  0  0
    6.1891    0.8896    1.9653 B   0  0  1  0  0  0  0  0  0  0  0  0
    6.7107    1.4566    3.1139 F   0  0  0  0  0  0  0  0  0  0  0  0
    5.5112   -0.2827    2.2439 F   0  0  0  0  0  0  0  0  0  0  0  0
    7.4011    0.5197    0.9802 N   0  0  0  0  0  0  0  0  0  0  0  0
    8.5041   -0.0021    1.5679 C   0  0  0  0  0  0  0  0  0  0  0  0
    9.5545   -0.5175    0.8382 C   0  0  0  0  0  0  0  0  0  0  0  0
    9.4608   -0.4943   -0.5671 C   0  0  0  0  0  0  0  0  0  0  0  0
    8.3466    0.0561   -1.1702 C   0  0  0  0  0  0  0  0  0  0  0  0
    7.2968    0.5908   -0.3817 C   0  0  0  0  0  0  0  0  0  0  0  0
    3.8766    2.9418   -2.7031 H   0  0  0  0  0  0  0  0  0  0  0  0
    1.9476    4.4953   -2.5336 H   0  0  0  0  0  0  0  0  0  0  0  0
    1.0613    5.2650   -0.3711 H   0  0  0  0  0  0  0  0  0  0  0  0
    1.3107    5.1488    2.3737 H   0  0  0  0  0  0  0  0  0  0  0  0
    2.5785    4.1862    4.2526 H   0  0  0  0  0  0  0  0  0  0  0  0
    4.5090    2.6369    3.9108 H   0  0  0  0  0  0  0  0  0  0  0  0
    8.4925    0.0122    2.6585 H   0  0  0  0  0  0  0  0  0  0  0  0
   10.4231   -0.9328    1.3500 H   0  0  0  0  0  0  0  0  0  0  0  0
   10.2674   -0.9017   -1.1814 H   0  0  0  0  0  0  0  0  0  0  0  0
    8.2582    0.1043   -2.2560 H   0  0  0  0  0  0  0  0  0  0  0  0
  1  2  3  0
  2  3  1  0
  3  4  2  0
  3 24  1  0
  4  5  1  0
  4 15  1  0
  5  6  2  0
  5 14  1  0
  6  7  1  0
  6 25  1  0
  7  8  2  0
  7 26  1  0
  8  9  1  0
  8 27  1  0
  9 10  1  0
  9 14  2  0
 10 11  2  0
 10 28  1  0
 11 12  1  0
 11 29  1  0
 12 13  2  0
 12 30  1  0
 13 14  1  0
 13 15  1  0
 15 16  1  0
 16 17  1  1
 16 18  1  0
 16 19  1  0
 19 20  1  0
 19 24  2  0
 20 21  2  0
 20 31  1  0
 21 22  1  0
 21 32  1  0
 22 23  2  0
 22 33  1  0
 23 24  1  0
 23 34  1  0
M  CHG  2  16  -1  19   1
M  END

