
     RDKit          3D

 54 57  0  0  0  0  0  0  0  0999 V2000
   -0.1526   -1.9811   -4.7647 O   0  0  0  0  0  0  0  0  0  0  0  0
    1.2594   -2.1783   -4.4442 S   0  0  1  0  0  0  0  0  0  0  0  0
    2.2565   -1.1096   -4.5149 O   0  0  0  0  0  0  0  0  0  0  0  0
    1.2863   -2.7488   -2.8834 N   0  0  0  0  0  0  0  0  0  0  0  0
    2.5054   -2.8823   -2.0881 C   0  0  1  0  0  0  0  0  0  0  0  0
    3.2353   -2.1815   -2.5125 H   0  0  0  0  0  0  0  0  0  0  0  0
    2.2057   -2.5679   -0.5889 C   0  0  0  0  0  0  0  0  0  0  0  0
    2.3860   -3.9137    0.1367 C   0  0  1  0  0  0  0  0  0  0  0  0
    3.4192   -3.9546    0.5582 H   0  0  0  0  0  0  0  0  0  0  0  0
    1.3964   -4.2631    1.2525 C   0  0  0  0  0  0  0  0  0  0  0  0
    1.5676   -5.6380    1.7231 N   0  0  0  0  0  0  0  0  0  0  0  0
    2.6062   -5.8301    2.7245 C   0  0  0  0  0  0  0  0  0  0  0  0
    2.2406   -5.2630    4.0884 C   0  0  0  0  0  0  0  0  0  0  0  0
    3.2195   -4.6882    4.9108 C   0  0  0  0  0  0  0  0  0  0  0  0
    2.8916   -4.2211    6.1872 C   0  0  0  0  0  0  0  0  0  0  0  0
    1.5814   -4.3121    6.6612 C   0  0  0  0  0  0  0  0  0  0  0  0
    0.6066   -4.8792    5.8339 C   0  0  0  0  0  0  0  0  0  0  0  0
   -1.0443   -4.9967    6.4087 Cl  0  0  0  0  0  0  0  0  0  0  0  0
    0.9228   -5.3526    4.5598 C   0  0  0  0  0  0  0  0  0  0  0  0
    1.5431   -6.5922    0.6194 C   0  0  0  0  0  0  0  0  0  0  0  0
    2.5192   -6.2528   -0.5211 C   0  0  0  0  0  0  0  0  0  0  0  0
    2.2635   -4.8913   -0.9469 N   0  0  0  0  0  0  0  0  0  0  0  0
    3.0330   -4.3341   -2.0423 C   0  0  0  0  0  0  0  0  0  0  0  0
    1.8465   -3.5044   -5.5238 C   0  0  0  0  0  0  0  0  0  0  0  0
    0.9337   -4.4491   -6.0045 C   0  0  0  0  0  0  0  0  0  0  0  0
    1.3929   -5.4829   -6.8231 C   0  0  0  0  0  0  0  0  0  0  0  0
    2.7470   -5.5671   -7.1591 C   0  0  0  0  0  0  0  0  0  0  0  0
    3.6469   -4.6066   -6.6822 C   0  0  0  0  0  0  0  0  0  0  0  0
    5.1179   -4.7178   -7.0080 C   0  0  1  0  0  0  0  0  0  0  0  0
    5.3243   -5.3469   -8.1769 F   0  0  0  0  0  0  0  0  0  0  0  0
    5.7048   -3.5132   -7.0815 F   0  0  0  0  0  0  0  0  0  0  0  0
    5.7739   -5.4189   -6.0621 F   0  0  0  0  0  0  0  0  0  0  0  0
    3.1979   -3.5613   -5.8676 C   0  0  0  0  0  0  0  0  0  0  0  0
    0.5308   -3.3983   -2.6713 H   0  0  0  0  0  0  0  0  0  0  0  0
    1.1766   -2.1900   -0.4954 H   0  0  0  0  0  0  0  0  0  0  0  0
    2.8782   -1.7941   -0.1925 H   0  0  0  0  0  0  0  0  0  0  0  0
    0.3717   -4.1486    0.8545 H   0  0  0  0  0  0  0  0  0  0  0  0
    1.4997   -3.5718    2.1028 H   0  0  0  0  0  0  0  0  0  0  0  0
    3.5979   -5.4225    2.4329 H   0  0  0  0  0  0  0  0  0  0  0  0
    2.7555   -6.9189    2.8345 H   0  0  0  0  0  0  0  0  0  0  0  0
    4.2483   -4.6041    4.5492 H   0  0  0  0  0  0  0  0  0  0  0  0
    3.6626   -3.7738    6.8198 H   0  0  0  0  0  0  0  0  0  0  0  0
    1.3105   -3.9464    7.6529 H   0  0  0  0  0  0  0  0  0  0  0  0
    0.1512   -5.7825    3.9198 H   0  0  0  0  0  0  0  0  0  0  0  0
    0.5233   -6.5993    0.1943 H   0  0  0  0  0  0  0  0  0  0  0  0
    1.7455   -7.6019    1.0093 H   0  0  0  0  0  0  0  0  0  0  0  0
    2.3598   -6.9427   -1.3672 H   0  0  0  0  0  0  0  0  0  0  0  0
    3.5743   -6.3882   -0.1839 H   0  0  0  0  0  0  0  0  0  0  0  0
    2.8677   -4.8807   -2.9836 H   0  0  0  0  0  0  0  0  0  0  0  0
    4.1293   -4.3379   -1.8352 H   0  0  0  0  0  0  0  0  0  0  0  0
   -0.1245   -4.3534   -5.7536 H   0  0  0  0  0  0  0  0  0  0  0  0
    0.6891   -6.2218   -7.2128 H   0  0  0  0  0  0  0  0  0  0  0  0
    3.1050   -6.3702   -7.8056 H   0  0  0  0  0  0  0  0  0  0  0  0
    3.8808   -2.7843   -5.5213 H   0  0  0  0  0  0  0  0  0  0  0  0
  1  2  2  0
  2  3  2  0
  2  4  1  1
  2 24  1  0
  4  5  1  0
  4 34  1  0
  5  6  1  6
  5  7  1  0
  5 23  1  0
  7  8  1  0
  7 35  1  0
  7 36  1  0
  8  9  1  1
  8 10  1  0
  8 22  1  0
 10 11  1  0
 10 37  1  0
 10 38  1  0
 11 12  1  0
 11 20  1  0
 12 13  1  0
 12 39  1  0
 12 40  1  0
 13 14  2  0
 13 19  1  0
 14 15  1  0
 14 41  1  0
 15 16  2  0
 15 42  1  0
 16 17  1  0
 16 43  1  0
 17 18  1  0
 17 19  2  0
 19 44  1  0
 20 21  1  0
 20 45  1  0
 20 46  1  0
 21 22  1  0
 21 47  1  0
 21 48  1  0
 22 23  1  0
 23 49  1  0
 23 50  1  0
 24 25  2  0
 24 33  1  0
 25 26  1  0
 25 51  1  0
 26 27  2  0
 26 52  1  0
 27 28  1  0
 27 53  1  0
 28 29  1  0
 28 33  2  0
 29 30  1  6
 29 31  1  0
 29 32  1  0
 33 54  1  0
M  END

