
     RDKit          3D

 37 38  0  0  0  0  0  0  0  0999 V2000
    1.5832   -2.0875    4.4825 C   0  0  0  0  0  0  0  0  0  0  0  0
    3.0483   -1.6668    4.3610 C   0  0  0  0  0  0  0  0  0  0  0  0
    3.2144   -0.2160    3.8943 C   0  0  0  0  0  0  0  0  0  0  0  0
    4.6793    0.1987    3.7742 C   0  0  0  0  0  0  0  0  0  0  0  0
    4.8346    1.9182    3.2244 S   0  0  1  0  0  0  0  0  0  0  0  0
    4.3046    1.9896    1.8551 O   0  0  0  0  0  0  0  0  0  0  0  0
    4.2813    2.7686    4.2882 O   0  0  0  0  0  0  0  0  0  0  0  0
    6.5068    2.1579    3.1623 N   0  0  0  0  0  0  0  0  0  0  0  0
    7.1364    2.2774    1.8388 C   0  0  0  0  0  0  0  0  0  0  0  0
    7.1619    3.7299    1.3504 C   0  0  0  0  0  0  0  0  0  0  0  0
    7.7882    4.6973    2.3870 C   0  0  2  0  0  0  0  0  0  0  0  0
    9.2816    4.5812    2.4331 C   0  0  0  0  0  0  0  0  0  0  0  0
   10.0339    3.5661    2.7608 N   0  0  0  0  0  0  0  0  0  0  0  0
   11.2979    4.0730    2.6063 C   0  0  0  0  0  0  0  0  0  0  0  0
   11.3467    5.3156    2.2105 N   0  0  0  0  0  0  0  0  0  0  0  0
   10.0051    5.6594    2.0935 O   0  0  0  0  0  0  0  0  0  0  0  0
    7.1444    4.4810    3.7802 C   0  0  0  0  0  0  0  0  0  0  0  0
    7.1185    3.0060    4.1962 C   0  0  0  0  0  0  0  0  0  0  0  0
    1.4917   -3.1322    4.8190 H   0  0  0  0  0  0  0  0  0  0  0  0
    1.0610   -2.0003    3.5154 H   0  0  0  0  0  0  0  0  0  0  0  0
    1.0445   -1.4542    5.2067 H   0  0  0  0  0  0  0  0  0  0  0  0
    3.5701   -2.3396    3.6566 H   0  0  0  0  0  0  0  0  0  0  0  0
    3.5537   -1.7977    5.3350 H   0  0  0  0  0  0  0  0  0  0  0  0
    2.7103    0.4669    4.5984 H   0  0  0  0  0  0  0  0  0  0  0  0
    2.7260   -0.0759    2.9156 H   0  0  0  0  0  0  0  0  0  0  0  0
    5.2270   -0.4032    3.0331 H   0  0  0  0  0  0  0  0  0  0  0  0
    5.2114    0.1430    4.7362 H   0  0  0  0  0  0  0  0  0  0  0  0
    6.5872    1.6518    1.1242 H   0  0  0  0  0  0  0  0  0  0  0  0
    8.1605    1.8810    1.9278 H   0  0  0  0  0  0  0  0  0  0  0  0
    6.1241    4.0499    1.1645 H   0  0  0  0  0  0  0  0  0  0  0  0
    7.6998    3.7963    0.3904 H   0  0  0  0  0  0  0  0  0  0  0  0
    7.5858    5.7301    2.0660 H   0  0  0  0  0  0  0  0  0  0  0  0
   12.2077    3.5022    2.7934 H   0  0  0  0  0  0  0  0  0  0  0  0
    6.1057    4.8463    3.7393 H   0  0  0  0  0  0  0  0  0  0  0  0
    7.6703    5.0790    4.5424 H   0  0  0  0  0  0  0  0  0  0  0  0
    6.5564    2.8912    5.1315 H   0  0  0  0  0  0  0  0  0  0  0  0
    8.1417    2.6324    4.3613 H   0  0  0  0  0  0  0  0  0  0  0  0
  1  2  1  0
  1 19  1  0
  1 20  1  0
  1 21  1  0
  2  3  1  0
  2 22  1  0
  2 23  1  0
  3  4  1  0
  3 24  1  0
  3 25  1  0
  5  4  1  1
  4 26  1  0
  4 27  1  0
  5  6  2  0
  5  7  2  0
  5  8  1  0
  8  9  1  0
  8 18  1  0
  9 10  1  0
  9 28  1  0
  9 29  1  0
 10 11  1  0
 10 30  1  0
 10 31  1  0
 11 12  1  0
 11 17  1  0
 11 32  1  6
 12 13  2  0
 12 16  1  0
 13 14  1  0
 14 15  2  0
 14 33  1  0
 15 16  1  0
 17 18  1  0
 17 34  1  0
 17 35  1  0
 18 36  1  0
 18 37  1  0
M  END

