
     RDKit          3D

 37 38  0  0  0  0  0  0  0  0999 V2000
    3.9759    2.9351    2.6416 C   0  0  0  0  0  0  0  0  0  0  0  0
    3.0140    1.9018    2.0645 C   0  0  1  0  0  0  0  0  0  0  0  0
    2.8058    0.8182    3.0393 N   0  0  0  0  0  0  0  0  0  0  0  0
    2.3087   -0.3899    2.7007 C   0  0  0  0  0  0  0  0  0  0  0  0
    1.9324   -0.6845    1.5689 O   0  0  0  0  0  0  0  0  0  0  0  0
    2.2665   -1.4398    3.8166 C   0  0  0  0  0  0  0  0  0  0  0  0
    2.3322   -0.8958    5.1669 N   0  0  0  0  0  0  0  0  0  0  0  0
    1.0670   -0.4273    5.7382 C   0  0  0  0  0  0  0  0  0  0  0  0
    3.4738   -1.5786    6.2285 S   0  0  1  0  0  0  0  0  0  0  0  0
    2.9998   -1.2950    7.5808 O   0  0  0  0  0  0  0  0  0  0  0  0
    3.7992   -2.9358    5.7858 O   0  0  0  0  0  0  0  0  0  0  0  0
    4.9345   -0.6133    5.9374 C   0  0  0  0  0  0  0  0  0  0  0  0
    6.0879   -1.0712    5.3462 C   0  0  0  0  0  0  0  0  0  0  0  0
    7.0923   -0.0611    5.2807 C   0  0  0  0  0  0  0  0  0  0  0  0
    6.6783    1.1306    5.8238 C   0  0  0  0  0  0  0  0  0  0  0  0
    5.0642    1.0473    6.4394 S   0  0  0  0  0  0  0  0  0  0  0  0
    1.7117    2.5316    1.6305 C   0  0  0  0  0  0  0  0  0  0  0  0
    1.3342    3.7784    1.8303 N   0  0  0  0  0  0  0  0  0  0  0  0
    0.0927    3.8847    1.2541 C   0  0  0  0  0  0  0  0  0  0  0  0
   -0.2838    2.6792    0.6993 C   0  0  0  0  0  0  0  0  0  0  0  0
    0.7655    1.8263    0.9422 N   0  0  0  0  0  0  0  0  0  0  0  0
    0.8574    0.8301    0.7389 H   0  0  0  0  0  0  0  0  0  0  0  0
    4.9240    2.4576    2.9317 H   0  0  0  0  0  0  0  0  0  0  0  0
    3.5325    3.4326    3.5172 H   0  0  0  0  0  0  0  0  0  0  0  0
    4.1798    3.7171    1.8983 H   0  0  0  0  0  0  0  0  0  0  0  0
    3.4681    1.4276    1.1767 H   0  0  0  0  0  0  0  0  0  0  0  0
    3.0543    0.9716    4.0123 H   0  0  0  0  0  0  0  0  0  0  0  0
    3.1066   -2.1309    3.6512 H   0  0  0  0  0  0  0  0  0  0  0  0
    1.3507   -2.0366    3.6637 H   0  0  0  0  0  0  0  0  0  0  0  0
    0.6507    0.3467    5.0752 H   0  0  0  0  0  0  0  0  0  0  0  0
    1.2425    0.0114    6.7268 H   0  0  0  0  0  0  0  0  0  0  0  0
    0.3282   -1.2428    5.8391 H   0  0  0  0  0  0  0  0  0  0  0  0
    6.1960   -2.0949    4.9874 H   0  0  0  0  0  0  0  0  0  0  0  0
    8.0838   -0.2142    4.8525 H   0  0  0  0  0  0  0  0  0  0  0  0
    7.2408    2.0596    5.9135 H   0  0  0  0  0  0  0  0  0  0  0  0
   -0.4665    4.8197    1.2634 H   0  0  0  0  0  0  0  0  0  0  0  0
   -1.1787    2.3673    0.1664 H   0  0  0  0  0  0  0  0  0  0  0  0
  1  2  1  0
  1 23  1  0
  1 24  1  0
  1 25  1  0
  2  3  1  0
  2 17  1  0
  2 26  1  6
  3  4  1  0
  3 27  1  0
  4  5  2  0
  4  6  1  0
  6  7  1  0
  6 28  1  0
  6 29  1  0
  7  8  1  0
  9  7  1  6
  8 30  1  0
  8 31  1  0
  8 32  1  0
  9 10  2  0
  9 11  2  0
  9 12  1  0
 12 13  2  0
 12 16  1  0
 13 14  1  0
 13 33  1  0
 14 15  2  0
 14 34  1  0
 15 16  1  0
 15 35  1  0
 17 18  2  0
 17 21  1  0
 18 19  1  0
 19 20  2  0
 19 36  1  0
 20 21  1  0
 20 37  1  0
 21 22  1  0
M  END

