
     RDKit          3D

 53 54  0  0  0  0  0  0  0  0999 V2000
   10.0509  -11.1591   -4.2633 C   0  0  0  0  0  0  0  0  0  0  0  0
   10.1861   -9.7370   -4.7168 C   0  0  0  0  0  0  0  0  0  0  0  0
   11.3821   -9.2058   -4.9602 N   0  0  0  0  0  0  0  0  0  0  0  0
   11.1647   -7.9312   -5.3279 N   0  0  0  0  0  0  0  0  0  0  0  0
   12.3305   -7.0823   -5.6794 C   0  0  1  0  0  0  0  0  0  0  0  0
   13.0593   -7.7339   -6.8677 C   0  0  0  0  0  0  0  0  0  0  0  0
   11.8500   -5.6775   -6.0617 C   0  0  0  0  0  0  0  0  0  0  0  0
   13.2580   -7.0087   -4.4538 C   0  0  0  0  0  0  0  0  0  0  0  0
    9.8366   -7.6311   -5.3250 C   0  0  0  0  0  0  0  0  0  0  0  0
    9.1538   -8.7758   -4.9351 C   0  0  0  0  0  0  0  0  0  0  0  0
    7.6647   -8.9802   -4.7819 C   0  0  2  0  0  0  0  0  0  0  0  0
    7.3578   -9.8401   -5.3978 H   0  0  0  0  0  0  0  0  0  0  0  0
    6.8398   -7.7628   -5.2142 C   0  0  0  0  0  0  0  0  0  0  0  0
    7.3248   -9.3841   -3.4146 N   0  0  0  0  0  0  0  0  0  0  0  0
    6.8208  -10.6364   -3.1287 C   0  0  0  0  0  0  0  0  0  0  0  0
    6.4837  -11.4324   -3.9982 O   0  0  0  0  0  0  0  0  0  0  0  0
    6.7288  -10.9139   -1.7801 N   0  0  0  0  0  0  0  0  0  0  0  0
    6.0605  -12.0969   -1.2904 C   0  0  0  0  0  0  0  0  0  0  0  0
    4.6154  -11.8844   -0.7782 C   0  0  2  0  0  0  0  0  0  0  0  0
    4.0772  -13.2266   -0.2704 C   0  0  0  0  0  0  0  0  0  0  0  0
    3.6797  -11.2575   -1.8478 C   0  0  0  0  0  0  0  0  0  0  0  0
    3.6156   -9.7350   -1.6782 C   0  0  0  0  0  0  0  0  0  0  0  0
    3.4949   -9.4635   -0.1785 C   0  0  0  0  0  0  0  0  0  0  0  0
    4.6563  -10.6358    0.6352 S   0  0  0  0  0  0  0  0  0  0  0  0
   10.9819  -11.7067   -4.4668 H   0  0  0  0  0  0  0  0  0  0  0  0
    9.2132  -11.6685   -4.7637 H   0  0  0  0  0  0  0  0  0  0  0  0
    9.8523  -11.2195   -3.1794 H   0  0  0  0  0  0  0  0  0  0  0  0
   12.4009   -7.7818   -7.7494 H   0  0  0  0  0  0  0  0  0  0  0  0
   13.3652   -8.7574   -6.6115 H   0  0  0  0  0  0  0  0  0  0  0  0
   13.9543   -7.1503   -7.1343 H   0  0  0  0  0  0  0  0  0  0  0  0
   11.1867   -5.6965   -6.9400 H   0  0  0  0  0  0  0  0  0  0  0  0
   12.7218   -5.0569   -6.3161 H   0  0  0  0  0  0  0  0  0  0  0  0
   11.3216   -5.1854   -5.2307 H   0  0  0  0  0  0  0  0  0  0  0  0
   13.5644   -8.0183   -4.1479 H   0  0  0  0  0  0  0  0  0  0  0  0
   12.7439   -6.5320   -3.6042 H   0  0  0  0  0  0  0  0  0  0  0  0
   14.1576   -6.4191   -4.6896 H   0  0  0  0  0  0  0  0  0  0  0  0
    9.4638   -6.6511   -5.6050 H   0  0  0  0  0  0  0  0  0  0  0  0
    5.7662   -7.9807   -5.1158 H   0  0  0  0  0  0  0  0  0  0  0  0
    7.0440   -7.5000   -6.2639 H   0  0  0  0  0  0  0  0  0  0  0  0
    7.0660   -6.8815   -4.5909 H   0  0  0  0  0  0  0  0  0  0  0  0
    7.7676   -8.8614   -2.6666 H   0  0  0  0  0  0  0  0  0  0  0  0
    6.8100  -10.1536   -1.1120 H   0  0  0  0  0  0  0  0  0  0  0  0
    6.6589  -12.5452   -0.4781 H   0  0  0  0  0  0  0  0  0  0  0  0
    6.0397  -12.8175   -2.1215 H   0  0  0  0  0  0  0  0  0  0  0  0
    3.0749  -13.1101    0.1669 H   0  0  0  0  0  0  0  0  0  0  0  0
    4.7337  -13.6598    0.5006 H   0  0  0  0  0  0  0  0  0  0  0  0
    4.0123  -13.9497   -1.1023 H   0  0  0  0  0  0  0  0  0  0  0  0
    2.6672  -11.6733   -1.7118 H   0  0  0  0  0  0  0  0  0  0  0  0
    4.0184  -11.5408   -2.8567 H   0  0  0  0  0  0  0  0  0  0  0  0
    2.7634   -9.3038   -2.2305 H   0  0  0  0  0  0  0  0  0  0  0  0
    4.5289   -9.2628   -2.0712 H   0  0  0  0  0  0  0  0  0  0  0  0
    2.4714   -9.6507    0.1847 H   0  0  0  0  0  0  0  0  0  0  0  0
    3.7739   -8.4368    0.1019 H   0  0  0  0  0  0  0  0  0  0  0  0
  1  2  1  0
  1 25  1  0
  1 26  1  0
  1 27  1  0
  2  3  2  0
  2 10  1  0
  3  4  1  0
  4  5  1  0
  4  9  1  0
  5  6  1  6
  5  7  1  0
  5  8  1  0
  6 28  1  0
  6 29  1  0
  6 30  1  0
  7 31  1  0
  7 32  1  0
  7 33  1  0
  8 34  1  0
  8 35  1  0
  8 36  1  0
  9 10  2  0
  9 37  1  0
 10 11  1  0
 11 12  1  6
 11 13  1  0
 11 14  1  0
 13 38  1  0
 13 39  1  0
 13 40  1  0
 14 15  1  0
 14 41  1  0
 15 16  2  0
 15 17  1  0
 17 18  1  0
 17 42  1  0
 19 18  1  6
 18 43  1  0
 18 44  1  0
 19 20  1  0
 19 21  1  0
 19 24  1  0
 20 45  1  0
 20 46  1  0
 20 47  1  0
 21 22  1  0
 21 48  1  0
 21 49  1  0
 22 23  1  0
 22 50  1  0
 22 51  1  0
 23 24  1  0
 23 52  1  0
 23 53  1  0
M  END

