
     RDKit          3D

 70 76  0  0  0  0  0  0  0  0999 V2000
    4.4796   -0.4586   -5.5761 C   0  0  0  0  0  0  0  0  0  0  0  0
    5.1535   -0.6037   -4.3031 N   0  0  0  0  0  0  0  0  0  0  0  0
    4.7641   -1.5084   -3.3617 C   0  0  0  0  0  0  0  0  0  0  0  0
    3.8780   -2.3298   -3.5694 O   0  0  0  0  0  0  0  0  0  0  0  0
    5.5145   -1.4312   -2.0658 C   0  0  0  0  0  0  0  0  0  0  0  0
    6.0073   -2.4897   -1.3167 C   0  0  0  0  0  0  0  0  0  0  0  0
    6.0395   -3.9510   -1.4443 C   0  0  0  0  0  0  0  0  0  0  0  0
    5.0930   -4.6716   -2.2017 C   0  0  0  0  0  0  0  0  0  0  0  0
    5.1647   -6.0613   -2.2881 C   0  0  0  0  0  0  0  0  0  0  0  0
    6.1771   -6.7375   -1.6115 C   0  0  0  0  0  0  0  0  0  0  0  0
    6.2441   -8.0720   -1.6934 F   0  0  0  0  0  0  0  0  0  0  0  0
    7.1213   -6.0564   -0.8443 C   0  0  0  0  0  0  0  0  0  0  0  0
    7.0473   -4.6688   -0.7619 C   0  0  0  0  0  0  0  0  0  0  0  0
    6.6781   -2.0178   -0.2143 O   0  0  0  0  0  0  0  0  0  0  0  0
    6.6147   -0.6660   -0.2167 C   0  0  0  0  0  0  0  0  0  0  0  0
    7.1458    0.1799    0.7529 C   0  0  0  0  0  0  0  0  0  0  0  0
    6.9458    1.5454    0.5675 C   0  0  0  0  0  0  0  0  0  0  0  0
    6.2341    2.0621   -0.5430 C   0  0  0  0  0  0  0  0  0  0  0  0
    6.0058    3.5313   -0.6957 C   0  0  0  0  0  0  0  0  0  0  0  0
    4.6848    4.0134   -0.7168 C   0  0  0  0  0  0  0  0  0  0  0  0
    4.4014    5.3792   -0.8310 C   0  0  0  0  0  0  0  0  0  0  0  0
    3.0084    5.9647   -0.8716 C   0  0  0  0  0  0  0  0  0  0  0  0
    2.8104    7.0926   -1.2886 O   0  0  0  0  0  0  0  0  0  0  0  0
    2.0011    5.1567   -0.4033 N   0  0  0  0  0  0  0  0  0  0  0  0
    0.6195    5.5453   -0.3587 C   0  0  1  0  0  0  0  0  0  0  0  0
   -0.2091    5.2554   -1.5833 C   0  0  0  0  0  0  0  0  0  0  0  0
    0.3782    4.6680   -2.7446 C   0  0  0  0  0  0  0  0  0  0  0  0
   -0.4159    4.4257   -3.8401 C   0  0  0  0  0  0  0  0  0  0  0  0
   -1.7945    4.7586   -3.7938 C   0  0  0  0  0  0  0  0  0  0  0  0
   -2.7018    4.5524   -4.8642 C   0  0  0  0  0  0  0  0  0  0  0  0
   -4.0200    4.9150   -4.6992 C   0  0  0  0  0  0  0  0  0  0  0  0
   -4.4142    5.4814   -3.4568 C   0  0  0  0  0  0  0  0  0  0  0  0
   -3.6037    5.6880   -2.4430 N   0  0  0  0  0  0  0  0  0  0  0  0
   -2.2965    5.3407   -2.5812 C   0  0  0  0  0  0  0  0  0  0  0  0
   -1.4879    5.5689   -1.5188 N   0  0  0  0  0  0  0  0  0  0  0  0
   -0.0707    5.4328    0.9960 C   0  0  0  0  0  0  0  0  0  0  0  0
    0.2613    6.7805    0.4510 C   0  0  0  0  0  0  0  0  0  0  0  0
    5.4658    6.2826   -0.9475 C   0  0  0  0  0  0  0  0  0  0  0  0
    6.7632    5.7980   -0.9238 C   0  0  0  0  0  0  0  0  0  0  0  0
    7.7766    6.6757   -1.0331 F   0  0  0  0  0  0  0  0  0  0  0  0
    7.0854    4.4364   -0.8078 C   0  0  0  0  0  0  0  0  0  0  0  0
    8.5358    4.0265   -0.8358 C   0  0  0  0  0  0  0  0  0  0  0  0
    5.7178    1.1598   -1.4777 C   0  0  0  0  0  0  0  0  0  0  0  0
    5.0387    1.6380   -2.5402 F   0  0  0  0  0  0  0  0  0  0  0  0
    5.9019   -0.2272   -1.3485 C   0  0  0  0  0  0  0  0  0  0  0  0
    5.1925   -0.5336   -6.4137 H   0  0  0  0  0  0  0  0  0  0  0  0
    3.9569    0.5111   -5.6470 H   0  0  0  0  0  0  0  0  0  0  0  0
    3.7424   -1.2666   -5.6625 H   0  0  0  0  0  0  0  0  0  0  0  0
    5.8542    0.0817   -4.0541 H   0  0  0  0  0  0  0  0  0  0  0  0
    4.2997   -4.1286   -2.7151 H   0  0  0  0  0  0  0  0  0  0  0  0
    4.4353   -6.6295   -2.8684 H   0  0  0  0  0  0  0  0  0  0  0  0
    7.8999   -6.6189   -0.3256 H   0  0  0  0  0  0  0  0  0  0  0  0
    7.7825   -4.1285   -0.1651 H   0  0  0  0  0  0  0  0  0  0  0  0
    7.6812   -0.2163    1.6165 H   0  0  0  0  0  0  0  0  0  0  0  0
    7.3322    2.2493    1.3070 H   0  0  0  0  0  0  0  0  0  0  0  0
    3.8780    3.2802   -0.6617 H   0  0  0  0  0  0  0  0  0  0  0  0
    2.2460    4.2615    0.0012 H   0  0  0  0  0  0  0  0  0  0  0  0
    1.4394    4.4221   -2.7548 H   0  0  0  0  0  0  0  0  0  0  0  0
    0.0016    3.9805   -4.7480 H   0  0  0  0  0  0  0  0  0  0  0  0
   -2.3441    4.1114   -5.7993 H   0  0  0  0  0  0  0  0  0  0  0  0
   -4.7558    4.7765   -5.4943 H   0  0  0  0  0  0  0  0  0  0  0  0
   -5.4631    5.7732   -3.3135 H   0  0  0  0  0  0  0  0  0  0  0  0
    0.5312    5.0379    1.8199 H   0  0  0  0  0  0  0  0  0  0  0  0
   -1.1154    5.1150    0.9673 H   0  0  0  0  0  0  0  0  0  0  0  0
    1.0977    7.3389    0.8751 H   0  0  0  0  0  0  0  0  0  0  0  0
   -0.5583    7.3795    0.0490 H   0  0  0  0  0  0  0  0  0  0  0  0
    5.2673    7.3490   -1.0602 H   0  0  0  0  0  0  0  0  0  0  0  0
    9.1065    4.6763   -1.5146 H   0  0  0  0  0  0  0  0  0  0  0  0
    8.6567    2.9837   -1.1564 H   0  0  0  0  0  0  0  0  0  0  0  0
    9.0017    4.1246    0.1601 H   0  0  0  0  0  0  0  0  0  0  0  0
  1  2  1  0
  1 46  1  0
  1 47  1  0
  1 48  1  0
  2  3  1  0
  2 49  1  0
  3  4  2  0
  3  5  1  0
  5  6  2  0
  5 45  1  0
  6  7  1  0
  6 14  1  0
  7  8  2  0
  7 13  1  0
  8  9  1  0
  8 50  1  0
  9 10  2  0
  9 51  1  0
 10 11  1  0
 10 12  1  0
 12 13  2  0
 12 52  1  0
 13 53  1  0
 14 15  1  0
 15 16  1  0
 15 45  2  0
 16 17  2  0
 16 54  1  0
 17 18  1  0
 17 55  1  0
 18 19  1  0
 18 43  2  0
 19 20  2  0
 19 41  1  0
 20 21  1  0
 20 56  1  0
 21 22  1  0
 21 38  2  0
 22 23  2  0
 22 24  1  0
 25 24  1  1
 24 57  1  0
 25 26  1  0
 25 36  1  0
 25 37  1  0
 26 27  2  0
 26 35  1  0
 27 28  1  0
 27 58  1  0
 28 29  2  0
 28 59  1  0
 29 30  1  0
 29 34  1  0
 30 31  2  0
 30 60  1  0
 31 32  1  0
 31 61  1  0
 32 33  2  0
 32 62  1  0
 33 34  1  0
 34 35  2  0
 36 37  1  0
 36 63  1  0
 36 64  1  0
 37 65  1  0
 37 66  1  0
 38 39  1  0
 38 67  1  0
 39 40  1  0
 39 41  2  0
 41 42  1  0
 42 68  1  0
 42 69  1  0
 42 70  1  0
 43 44  1  0
 43 45  1  0
M  END

