
     RDKit          3D

 57 58  0  0  0  0  0  0  0  0999 V2000
    1.0351    4.7813   -1.3923 C   0  0  0  0  0  0  0  0  0  0  0  0
    2.5116    4.4267   -1.5668 C   0  0  0  0  0  0  0  0  0  0  0  0
    2.7469    2.9533   -1.8983 C   0  0  0  0  0  0  0  0  0  0  0  0
    4.1572    2.6660   -2.1020 N   0  0  0  0  0  0  0  0  0  0  0  0
    4.4560    1.2813   -2.4305 C   0  0  0  0  0  0  0  0  0  0  0  0
    5.9333    1.0213   -2.8254 C   0  0  1  0  0  0  0  0  0  0  0  0
    6.8074    1.2285   -1.5491 C   0  0  0  0  0  0  0  0  0  0  0  0
    8.2363    0.9936   -1.7065 N   0  0  0  0  0  0  0  0  0  0  0  0
    9.1168    2.1458   -1.8113 C   0  0  0  0  0  0  0  0  0  0  0  0
    9.6481    2.6600   -0.4682 C   0  0  0  0  0  0  0  0  0  0  0  0
   10.6060    1.3765    0.4215 S   0  0  0  0  0  0  0  0  0  0  0  0
    9.3645   -0.0163    0.3722 C   0  0  2  0  0  0  0  0  0  0  0  0
    8.2419    0.2450    1.3849 C   0  0  0  0  0  0  0  0  0  0  0  0
   10.1405   -1.2797    0.7611 C   0  0  0  0  0  0  0  0  0  0  0  0
    8.8410   -0.1695   -1.0827 C   0  0  0  0  0  0  0  0  0  0  0  0
    6.0789   -0.4434   -3.3058 C   0  0  0  0  0  0  0  0  0  0  0  0
    5.4278   -0.7333   -4.6676 C   0  0  0  0  0  0  0  0  0  0  0  0
    5.8970    0.2266   -5.7801 C   0  0  2  0  0  0  0  0  0  0  0  0
    7.3294   -0.0709   -6.2487 C   0  0  0  0  0  0  0  0  0  0  0  0
    5.7170    1.6847   -5.3102 C   0  0  0  0  0  0  0  0  0  0  0  0
    6.3887    1.9688   -3.9590 C   0  0  0  0  0  0  0  0  0  0  0  0
    0.9040    5.8475   -1.1493 H   0  0  0  0  0  0  0  0  0  0  0  0
    0.5715    4.1965   -0.5802 H   0  0  0  0  0  0  0  0  0  0  0  0
    0.4625    4.5784   -2.3128 H   0  0  0  0  0  0  0  0  0  0  0  0
    3.0624    4.6793   -0.6410 H   0  0  0  0  0  0  0  0  0  0  0  0
    2.9635    5.0384   -2.3660 H   0  0  0  0  0  0  0  0  0  0  0  0
    2.2066    2.6985   -2.8288 H   0  0  0  0  0  0  0  0  0  0  0  0
    2.2865    2.3206   -1.1021 H   0  0  0  0  0  0  0  0  0  0  0  0
    4.6804    2.9576   -1.2777 H   0  0  0  0  0  0  0  0  0  0  0  0
    3.7998    1.0021   -3.2700 H   0  0  0  0  0  0  0  0  0  0  0  0
    4.1907    0.5774   -1.6059 H   0  0  0  0  0  0  0  0  0  0  0  0
    6.4043    0.5599   -0.7694 H   0  0  0  0  0  0  0  0  0  0  0  0
    6.6442    2.2566   -1.1752 H   0  0  0  0  0  0  0  0  0  0  0  0
    8.5810    2.9581   -2.3266 H   0  0  0  0  0  0  0  0  0  0  0  0
    9.9837    1.8824   -2.4458 H   0  0  0  0  0  0  0  0  0  0  0  0
    8.8276    3.0311    0.1690 H   0  0  0  0  0  0  0  0  0  0  0  0
   10.3503    3.4951   -0.6203 H   0  0  0  0  0  0  0  0  0  0  0  0
    8.6514    0.3164    2.4038 H   0  0  0  0  0  0  0  0  0  0  0  0
    7.5056   -0.5781    1.3675 H   0  0  0  0  0  0  0  0  0  0  0  0
    7.7017    1.1799    1.1774 H   0  0  0  0  0  0  0  0  0  0  0  0
   10.5773   -1.1849    1.7680 H   0  0  0  0  0  0  0  0  0  0  0  0
   10.9575   -1.4834    0.0520 H   0  0  0  0  0  0  0  0  0  0  0  0
    9.4643   -2.1517    0.7686 H   0  0  0  0  0  0  0  0  0  0  0  0
    8.1121   -0.9975   -1.0994 H   0  0  0  0  0  0  0  0  0  0  0  0
    9.6987   -0.4930   -1.7013 H   0  0  0  0  0  0  0  0  0  0  0  0
    5.6615   -1.1271   -2.5440 H   0  0  0  0  0  0  0  0  0  0  0  0
    7.1562   -0.6667   -3.3644 H   0  0  0  0  0  0  0  0  0  0  0  0
    4.3297   -0.6636   -4.5796 H   0  0  0  0  0  0  0  0  0  0  0  0
    5.6371   -1.7776   -4.9581 H   0  0  0  0  0  0  0  0  0  0  0  0
    5.2370    0.0717   -6.6527 H   0  0  0  0  0  0  0  0  0  0  0  0
    8.0707    0.0472   -5.4427 H   0  0  0  0  0  0  0  0  0  0  0  0
    7.6243    0.6061   -7.0673 H   0  0  0  0  0  0  0  0  0  0  0  0
    7.4144   -1.1040   -6.6240 H   0  0  0  0  0  0  0  0  0  0  0  0
    4.6389    1.9099   -5.2386 H   0  0  0  0  0  0  0  0  0  0  0  0
    6.1176    2.3755   -6.0724 H   0  0  0  0  0  0  0  0  0  0  0  0
    6.1863    3.0095   -3.6608 H   0  0  0  0  0  0  0  0  0  0  0  0
    7.4798    1.8638   -4.0700 H   0  0  0  0  0  0  0  0  0  0  0  0
  1  2  1  0
  1 22  1  0
  1 23  1  0
  1 24  1  0
  2  3  1  0
  2 25  1  0
  2 26  1  0
  3  4  1  0
  3 27  1  0
  3 28  1  0
  4  5  1  0
  4 29  1  0
  6  5  1  1
  5 30  1  0
  5 31  1  0
  6  7  1  0
  6 16  1  0
  6 21  1  0
  7  8  1  0
  7 32  1  0
  7 33  1  0
  8  9  1  0
  8 15  1  0
  9 10  1  0
  9 34  1  0
  9 35  1  0
 10 11  1  0
 10 36  1  0
 10 37  1  0
 11 12  1  0
 12 13  1  1
 12 14  1  0
 12 15  1  0
 13 38  1  0
 13 39  1  0
 13 40  1  0
 14 41  1  0
 14 42  1  0
 14 43  1  0
 15 44  1  0
 15 45  1  0
 16 17  1  0
 16 46  1  0
 16 47  1  0
 17 18  1  0
 17 48  1  0
 17 49  1  0
 18 19  1  0
 18 20  1  0
 18 50  1  6
 19 51  1  0
 19 52  1  0
 19 53  1  0
 20 21  1  0
 20 54  1  0
 20 55  1  0
 21 56  1  0
 21 57  1  0
M  END

