
     RDKit          3D

 47 50  0  0  0  0  0  0  0  0999 V2000
   -0.7824    2.9833   -3.6469 C   0  0  0  0  0  0  0  0  0  0  0  0
    0.2498    2.5892   -2.7017 N   0  0  0  0  0  0  0  0  0  0  0  0
   -0.1908    1.6722   -1.6471 C   0  0  0  0  0  0  0  0  0  0  0  0
    0.9425    1.1470   -0.7713 C   0  0  0  0  0  0  0  0  0  0  0  0
    1.9103    2.2674   -0.4033 C   0  0  0  0  0  0  0  0  0  0  0  0
    2.5081    2.8226   -1.7002 C   0  0  2  0  0  0  0  0  0  0  0  0
    3.4313    3.9223   -1.5200 N   0  0  0  0  0  0  0  0  0  0  0  0
    4.6883    3.7267   -1.0216 C   0  0  0  0  0  0  0  0  0  0  0  0
    5.0301    2.6529   -0.5434 O   0  0  0  0  0  0  0  0  0  0  0  0
    5.6342    4.9402   -1.0982 C   0  0  2  0  0  0  0  0  0  0  0  0
    5.0121    6.1887   -0.4157 C   0  0  0  0  0  0  0  0  0  0  0  0
    5.9874    7.3800   -0.4928 C   0  0  1  0  0  0  0  0  0  0  0  0
    7.3038    7.0172    0.2205 C   0  0  0  0  0  0  0  0  0  0  0  0
    7.9360    5.7905   -0.4650 C   0  0  2  0  0  0  0  0  0  0  0  0
    8.2300    6.1211   -1.9411 C   0  0  0  0  0  0  0  0  0  0  0  0
    6.9146    6.4836   -2.6567 C   0  0  2  0  0  0  0  0  0  0  0  0
    6.2773    7.7083   -1.9709 C   0  0  0  0  0  0  0  0  0  0  0  0
    5.9414    5.2905   -2.5816 C   0  0  0  0  0  0  0  0  0  0  0  0
    6.9633    4.5992   -0.3881 C   0  0  0  0  0  0  0  0  0  0  0  0
    1.4257    3.2880   -2.6886 C   0  0  0  0  0  0  0  0  0  0  0  0
    1.6496    4.2262   -3.4451 O   0  0  0  0  0  0  0  0  0  0  0  0
   -1.1822    2.0955   -4.1646 H   0  0  0  0  0  0  0  0  0  0  0  0
   -0.3505    3.6760   -4.3776 H   0  0  0  0  0  0  0  0  0  0  0  0
   -1.6214    3.4869   -3.1323 H   0  0  0  0  0  0  0  0  0  0  0  0
   -0.7283    0.8344   -2.1240 H   0  0  0  0  0  0  0  0  0  0  0  0
   -0.9366    2.1990   -1.0178 H   0  0  0  0  0  0  0  0  0  0  0  0
    1.4921    0.3524   -1.3050 H   0  0  0  0  0  0  0  0  0  0  0  0
    0.5071    0.6796    0.1259 H   0  0  0  0  0  0  0  0  0  0  0  0
    2.7275    1.9046    0.2348 H   0  0  0  0  0  0  0  0  0  0  0  0
    1.3902    3.0760    0.1404 H   0  0  0  0  0  0  0  0  0  0  0  0
    3.0419    1.9844   -2.1921 H   0  0  0  0  0  0  0  0  0  0  0  0
    3.2374    4.7221   -2.1177 H   0  0  0  0  0  0  0  0  0  0  0  0
    4.7765    5.9545    0.6367 H   0  0  0  0  0  0  0  0  0  0  0  0
    4.0586    6.4581   -0.8999 H   0  0  0  0  0  0  0  0  0  0  0  0
    5.5267    8.2548   -0.0024 H   0  0  0  0  0  0  0  0  0  0  0  0
    7.1112    6.7995    1.2854 H   0  0  0  0  0  0  0  0  0  0  0  0
    7.9997    7.8738    0.1906 H   0  0  0  0  0  0  0  0  0  0  0  0
    8.8755    5.5231    0.0482 H   0  0  0  0  0  0  0  0  0  0  0  0
    8.7055    5.2565   -2.4359 H   0  0  0  0  0  0  0  0  0  0  0  0
    8.9431    6.9610   -2.0107 H   0  0  0  0  0  0  0  0  0  0  0  0
    7.1181    6.7157   -3.7161 H   0  0  0  0  0  0  0  0  0  0  0  0
    5.3438    7.9912   -2.4883 H   0  0  0  0  0  0  0  0  0  0  0  0
    6.9550    8.5768   -2.0405 H   0  0  0  0  0  0  0  0  0  0  0  0
    6.3773    4.4099   -3.0839 H   0  0  0  0  0  0  0  0  0  0  0  0
    5.0112    5.5343   -3.1231 H   0  0  0  0  0  0  0  0  0  0  0  0
    6.7592    4.3304    0.6607 H   0  0  0  0  0  0  0  0  0  0  0  0
    7.4047    3.7029   -0.8508 H   0  0  0  0  0  0  0  0  0  0  0  0
  1  2  1  0
  1 22  1  0
  1 23  1  0
  1 24  1  0
  2  3  1  0
  2 20  1  0
  3  4  1  0
  3 25  1  0
  3 26  1  0
  4  5  1  0
  4 27  1  0
  4 28  1  0
  5  6  1  0
  5 29  1  0
  5 30  1  0
  6  7  1  0
  6 20  1  0
  6 31  1  6
  7  8  1  0
  7 32  1  0
  8  9  2  0
 10  8  1  6
 10 11  1  0
 10 18  1  0
 10 19  1  0
 11 12  1  0
 11 33  1  0
 11 34  1  0
 12 13  1  0
 12 17  1  0
 12 35  1  1
 13 14  1  0
 13 36  1  0
 13 37  1  0
 14 15  1  0
 14 19  1  0
 14 38  1  1
 15 16  1  0
 15 39  1  0
 15 40  1  0
 16 17  1  0
 16 18  1  0
 16 41  1  6
 17 42  1  0
 17 43  1  0
 18 44  1  0
 18 45  1  0
 19 46  1  0
 19 47  1  0
 20 21  2  0
M  END

