
     RDKit          3D

 48 50  0  0  0  0  0  0  0  0999 V2000
    4.7295    3.1754   -3.2152 C   0  0  0  0  0  0  0  0  0  0  0  0
    5.0032    3.0391   -1.7241 C   0  0  0  0  0  0  0  0  0  0  0  0
    4.6655    3.8960   -0.9301 O   0  0  0  0  0  0  0  0  0  0  0  0
    5.6828    1.8886   -1.3770 N   0  0  0  0  0  0  0  0  0  0  0  0
    6.1361    1.4719   -0.1108 C   0  0  0  0  0  0  0  0  0  0  0  0
    5.9470    2.2251    1.0642 C   0  0  0  0  0  0  0  0  0  0  0  0
    6.4428    1.7312    2.2696 C   0  0  0  0  0  0  0  0  0  0  0  0
    7.1196    0.5085    2.3394 C   0  0  0  0  0  0  0  0  0  0  0  0
    7.3095   -0.2515    1.1778 C   0  0  0  0  0  0  0  0  0  0  0  0
    8.0149   -1.6059    1.1730 C   0  0  1  0  0  0  0  0  0  0  0  0
    8.8236   -1.9294    2.4333 C   0  0  0  0  0  0  0  0  0  0  0  0
    7.0360   -2.6573    0.8818 N   0  0  0  0  0  0  0  0  0  0  0  0
    7.3432   -3.7521    0.1224 C   0  0  0  0  0  0  0  0  0  0  0  0
    8.4465   -3.9160   -0.3792 O   0  0  0  0  0  0  0  0  0  0  0  0
    6.2395   -4.7626   -0.0692 C   0  0  0  0  0  0  0  0  0  0  0  0
    6.6070   -6.0696   -0.4199 C   0  0  0  0  0  0  0  0  0  0  0  0
    5.6202   -7.0249   -0.6283 C   0  0  0  0  0  0  0  0  0  0  0  0
    4.2526   -6.7251   -0.4911 C   0  0  0  0  0  0  0  0  0  0  0  0
    3.8666   -5.4094   -0.1474 C   0  0  0  0  0  0  0  0  0  0  0  0
    4.8827   -4.4487    0.0404 C   0  0  0  0  0  0  0  0  0  0  0  0
    2.5553   -4.9510    0.0818 N   0  0  0  0  0  0  0  0  0  0  0  0
    1.2379   -5.2705   -0.2304 C   0  0  0  0  0  0  0  0  0  0  0  0
    0.3677   -4.5280    0.1875 O   0  0  0  0  0  0  0  0  0  0  0  0
    0.8347   -6.4777   -1.0628 C   0  0  0  0  0  0  0  0  0  0  0  0
    1.8858   -7.2813   -1.8074 C   0  0  0  0  0  0  0  0  0  0  0  0
    3.1119   -8.0689   -0.7017 S   0  0  0  0  0  0  0  0  0  0  0  0
    6.8123    0.2438   -0.0355 C   0  0  0  0  0  0  0  0  0  0  0  0
    3.7422    3.6389   -3.3454 H   0  0  0  0  0  0  0  0  0  0  0  0
    4.7625    2.2222   -3.7639 H   0  0  0  0  0  0  0  0  0  0  0  0
    5.4751    3.8583   -3.6544 H   0  0  0  0  0  0  0  0  0  0  0  0
    5.9027    1.2552   -2.1362 H   0  0  0  0  0  0  0  0  0  0  0  0
    5.4230    3.1760    1.0104 H   0  0  0  0  0  0  0  0  0  0  0  0
    6.2980    2.3188    3.1801 H   0  0  0  0  0  0  0  0  0  0  0  0
    7.4984    0.1587    3.3007 H   0  0  0  0  0  0  0  0  0  0  0  0
    8.7107   -1.6297    0.3203 H   0  0  0  0  0  0  0  0  0  0  0  0
    8.1787   -2.0262    3.3214 H   0  0  0  0  0  0  0  0  0  0  0  0
    9.5723   -1.1478    2.6344 H   0  0  0  0  0  0  0  0  0  0  0  0
    9.3523   -2.8828    2.2894 H   0  0  0  0  0  0  0  0  0  0  0  0
    6.1716   -2.6466    1.4097 H   0  0  0  0  0  0  0  0  0  0  0  0
    7.6651   -6.3069   -0.5377 H   0  0  0  0  0  0  0  0  0  0  0  0
    5.8947   -8.0431   -0.9131 H   0  0  0  0  0  0  0  0  0  0  0  0
    4.5755   -3.4228    0.2625 H   0  0  0  0  0  0  0  0  0  0  0  0
    2.5322   -4.0714    0.5935 H   0  0  0  0  0  0  0  0  0  0  0  0
    0.0797   -6.0892   -1.7670 H   0  0  0  0  0  0  0  0  0  0  0  0
    0.2828   -7.1373   -0.3729 H   0  0  0  0  0  0  0  0  0  0  0  0
    2.4271   -6.6846   -2.5574 H   0  0  0  0  0  0  0  0  0  0  0  0
    1.4021   -8.1123   -2.3429 H   0  0  0  0  0  0  0  0  0  0  0  0
    6.9587   -0.3452   -0.9471 H   0  0  0  0  0  0  0  0  0  0  0  0
  1  2  1  0
  1 28  1  0
  1 29  1  0
  1 30  1  0
  2  3  2  0
  2  4  1  0
  4  5  1  0
  4 31  1  0
  5  6  2  0
  5 27  1  0
  6  7  1  0
  6 32  1  0
  7  8  2  0
  7 33  1  0
  8  9  1  0
  8 34  1  0
  9 10  1  0
  9 27  2  0
 10 11  1  0
 10 12  1  0
 10 35  1  6
 11 36  1  0
 11 37  1  0
 11 38  1  0
 12 13  1  0
 12 39  1  0
 13 14  2  0
 13 15  1  0
 15 16  2  0
 15 20  1  0
 16 17  1  0
 16 40  1  0
 17 18  2  0
 17 41  1  0
 18 19  1  0
 18 26  1  0
 19 20  2  0
 19 21  1  0
 20 42  1  0
 21 22  1  0
 21 43  1  0
 22 23  2  0
 22 24  1  0
 24 25  1  0
 24 44  1  0
 24 45  1  0
 25 26  1  0
 25 46  1  0
 25 47  1  0
 27 48  1  0
M  END

