
     RDKit          3D

 32 32  0  0  0  0  0  0  0  0999 V2000
    1.2561    0.0566    0.1993 C   0  0  0  0  0  0  0  0  0  0  0  0
    2.7090    0.0762    0.0476 C   0  0  0  0  0  0  0  0  0  0  0  0
    3.9167    0.0709   -0.0760 C   0  0  0  0  0  0  0  0  0  0  0  0
    5.3707    0.0892   -0.2396 C   0  0  0  0  0  0  0  0  0  0  0  0
    5.9024    1.4605   -0.7523 C   0  0  1  0  0  0  0  0  0  0  0  0
    5.4869    2.6148    0.0361 N   0  0  0  0  0  0  0  0  0  0  0  0
    5.6845    2.5644    1.4753 C   0  0  0  0  0  0  0  0  0  0  0  0
    7.4394    1.4299   -0.9449 C   0  0  1  0  0  0  0  0  0  0  0  0
    7.7196    0.2241   -1.6421 O   0  0  0  0  0  0  0  0  0  0  0  0
    9.0636   -0.1779   -1.6990 C   0  0  0  0  0  0  0  0  0  0  0  0
    7.9549    2.6438   -1.6962 C   0  0  1  0  0  0  0  0  0  0  0  0
    8.2211    3.9485   -0.9981 C   0  0  0  0  0  0  0  0  0  0  0  0
    9.3755    3.1402   -1.5210 C   0  0  0  0  0  0  0  0  0  0  0  0
    0.9548   -0.5004    1.1023 H   0  0  0  0  0  0  0  0  0  0  0  0
    0.7672   -0.4238   -0.6648 H   0  0  0  0  0  0  0  0  0  0  0  0
    0.8440    1.0759    0.2877 H   0  0  0  0  0  0  0  0  0  0  0  0
    5.6819   -0.6884   -0.9519 H   0  0  0  0  0  0  0  0  0  0  0  0
    5.8566   -0.1658    0.7195 H   0  0  0  0  0  0  0  0  0  0  0  0
    5.4732    1.6083   -1.7578 H   0  0  0  0  0  0  0  0  0  0  0  0
    4.5110    2.8169   -0.1658 H   0  0  0  0  0  0  0  0  0  0  0  0
    6.7560    2.4806    1.7208 H   0  0  0  0  0  0  0  0  0  0  0  0
    5.1589    1.7381    1.9977 H   0  0  0  0  0  0  0  0  0  0  0  0
    5.3329    3.5099    1.9182 H   0  0  0  0  0  0  0  0  0  0  0  0
    7.9312    1.3929    0.0520 H   0  0  0  0  0  0  0  0  0  0  0  0
    9.6798    0.4746   -2.3438 H   0  0  0  0  0  0  0  0  0  0  0  0
    9.0828   -1.1963   -2.1158 H   0  0  0  0  0  0  0  0  0  0  0  0
    9.5298   -0.2037   -0.6928 H   0  0  0  0  0  0  0  0  0  0  0  0
    7.5443    2.7117   -2.7106 H   0  0  0  0  0  0  0  0  0  0  0  0
    8.0664    3.9864    0.0827 H   0  0  0  0  0  0  0  0  0  0  0  0
    7.9419    4.8705   -1.5150 H   0  0  0  0  0  0  0  0  0  0  0  0
   10.0122    2.6307   -0.7909 H   0  0  0  0  0  0  0  0  0  0  0  0
    9.9113    3.4921   -2.4075 H   0  0  0  0  0  0  0  0  0  0  0  0
  1  2  1  0
  1 14  1  0
  1 15  1  0
  1 16  1  0
  2  3  3  0
  3  4  1  0
  4  5  1  0
  4 17  1  0
  4 18  1  0
  5  6  1  0
  5  8  1  0
  5 19  1  6
  6  7  1  0
  6 20  1  0
  7 21  1  0
  7 22  1  0
  7 23  1  0
  8  9  1  0
  8 11  1  0
  8 24  1  1
  9 10  1  0
 10 25  1  0
 10 26  1  0
 10 27  1  0
 11 12  1  0
 11 13  1  0
 11 28  1  6
 12 13  1  0
 12 29  1  0
 12 30  1  0
 13 31  1  0
 13 32  1  0
M  END

