
     RDKit          3D

 45 46  0  0  0  0  0  0  0  0999 V2000
    1.2297    1.2728   -1.0611 C   0  0  0  0  0  0  0  0  0  0  0  0
    2.6940    1.0822   -1.4205 C   0  0  0  0  0  0  0  0  0  0  0  0
    2.9919   -0.2997   -1.3249 O   0  0  0  0  0  0  0  0  0  0  0  0
    4.3617   -0.7685   -1.3767 C   0  0  1  0  0  0  0  0  0  0  0  0
    4.9773   -0.4275    0.0296 C   0  0  1  0  0  0  0  0  0  0  0  0
    4.2391   -1.0151    1.1572 N   0  0  0  0  0  0  0  0  0  0  0  0
    4.5925   -2.3259    1.6769 C   0  0  0  0  0  0  0  0  0  0  0  0
    6.4858   -0.5466    0.2108 C   0  0  0  0  0  0  0  0  0  0  0  0
    7.2340   -1.6823   -0.1382 C   0  0  0  0  0  0  0  0  0  0  0  0
    8.6109   -1.7178    0.0619 C   0  0  0  0  0  0  0  0  0  0  0  0
    9.2869   -2.8247   -0.2889 F   0  0  0  0  0  0  0  0  0  0  0  0
    9.3012   -0.6424    0.6116 C   0  0  0  0  0  0  0  0  0  0  0  0
    8.5709    0.4887    0.9754 C   0  0  0  0  0  0  0  0  0  0  0  0
    7.1834    0.5413    0.7885 C   0  0  0  0  0  0  0  0  0  0  0  0
    6.5255    1.6949    1.1365 O   0  0  0  0  0  0  0  0  0  0  0  0
    5.9799    1.7233    2.4530 C   0  0  0  0  0  0  0  0  0  0  0  0
    4.1917   -2.2656   -1.6994 C   0  0  0  0  0  0  0  0  0  0  0  0
    3.6499   -2.4712   -3.1157 C   0  0  0  0  0  0  0  0  0  0  0  0
    4.4800   -1.8602   -4.0845 O   0  0  0  0  0  0  0  0  0  0  0  0
    4.5744   -0.4637   -3.8986 C   0  0  0  0  0  0  0  0  0  0  0  0
    5.1531   -0.1114   -2.5247 C   0  0  0  0  0  0  0  0  0  0  0  0
    0.9429    2.3313   -1.1639 H   0  0  0  0  0  0  0  0  0  0  0  0
    1.0344    0.9601   -0.0234 H   0  0  0  0  0  0  0  0  0  0  0  0
    0.5876    0.6729   -1.7245 H   0  0  0  0  0  0  0  0  0  0  0  0
    3.3295    1.6843   -0.7438 H   0  0  0  0  0  0  0  0  0  0  0  0
    2.8779    1.4547   -2.4461 H   0  0  0  0  0  0  0  0  0  0  0  0
    4.7996    0.6551    0.1043 H   0  0  0  0  0  0  0  0  0  0  0  0
    3.2455   -0.9589    0.9411 H   0  0  0  0  0  0  0  0  0  0  0  0
    5.5951   -2.3049    2.1316 H   0  0  0  0  0  0  0  0  0  0  0  0
    4.5808   -3.1618    0.9476 H   0  0  0  0  0  0  0  0  0  0  0  0
    3.8826   -2.5828    2.4794 H   0  0  0  0  0  0  0  0  0  0  0  0
    6.7669   -2.5647   -0.5727 H   0  0  0  0  0  0  0  0  0  0  0  0
   10.3829   -0.7006    0.7457 H   0  0  0  0  0  0  0  0  0  0  0  0
    9.0685    1.3607    1.4051 H   0  0  0  0  0  0  0  0  0  0  0  0
    6.7734    1.6057    3.2138 H   0  0  0  0  0  0  0  0  0  0  0  0
    5.2253    0.9292    2.5858 H   0  0  0  0  0  0  0  0  0  0  0  0
    5.5093    2.7086    2.5809 H   0  0  0  0  0  0  0  0  0  0  0  0
    3.5022   -2.7187   -0.9717 H   0  0  0  0  0  0  0  0  0  0  0  0
    5.1585   -2.7813   -1.6210 H   0  0  0  0  0  0  0  0  0  0  0  0
    2.6206   -2.0685   -3.1801 H   0  0  0  0  0  0  0  0  0  0  0  0
    3.6147   -3.5433   -3.3632 H   0  0  0  0  0  0  0  0  0  0  0  0
    3.5779    0.0051   -4.0310 H   0  0  0  0  0  0  0  0  0  0  0  0
    5.2286   -0.0824   -4.6979 H   0  0  0  0  0  0  0  0  0  0  0  0
    5.2036    0.9823   -2.3969 H   0  0  0  0  0  0  0  0  0  0  0  0
    6.1895   -0.4780   -2.4803 H   0  0  0  0  0  0  0  0  0  0  0  0
  1  2  1  0
  1 22  1  0
  1 23  1  0
  1 24  1  0
  2  3  1  0
  2 25  1  0
  2 26  1  0
  4  3  1  1
  4  5  1  0
  4 17  1  0
  4 21  1  0
  5  6  1  0
  5  8  1  0
  5 27  1  1
  6  7  1  0
  6 28  1  0
  7 29  1  0
  7 30  1  0
  7 31  1  0
  8  9  2  0
  8 14  1  0
  9 10  1  0
  9 32  1  0
 10 11  1  0
 10 12  2  0
 12 13  1  0
 12 33  1  0
 13 14  2  0
 13 34  1  0
 14 15  1  0
 15 16  1  0
 16 35  1  0
 16 36  1  0
 16 37  1  0
 17 18  1  0
 17 38  1  0
 17 39  1  0
 18 19  1  0
 18 40  1  0
 18 41  1  0
 19 20  1  0
 20 21  1  0
 20 42  1  0
 20 43  1  0
 21 44  1  0
 21 45  1  0
M  END

