
     RDKit          3D

 54 56  0  0  0  0  0  0  0  0999 V2000
    1.7642    2.5342    0.0593 C   0  0  0  0  0  0  0  0  0  0  0  0
    2.5588    1.3297   -0.4776 C   0  0  2  0  0  0  0  0  0  0  0  0
    1.5781    0.1641   -0.7402 C   0  0  0  0  0  0  0  0  0  0  0  0
    3.6286    0.9370    0.5287 C   0  0  0  0  0  0  0  0  0  0  0  0
    4.5574   -0.0351    0.3559 C   0  0  0  0  0  0  0  0  0  0  0  0
    4.8695   -0.7647   -0.8501 C   0  0  0  0  0  0  0  0  0  0  0  0
    4.6889   -0.3450   -2.1440 C   0  0  0  0  0  0  0  0  0  0  0  0
    5.2412   -1.1629   -3.3021 C   0  0  1  0  0  0  0  0  0  0  0  0
    6.7894   -1.2892   -3.3515 C   0  0  0  0  0  0  0  0  0  0  0  0
    7.0697   -2.4173   -4.2323 N   0  0  0  0  0  0  0  0  0  0  0  0
    7.1893   -2.0796   -5.6492 C   0  0  0  0  0  0  0  0  0  0  0  0
    8.4643   -1.3235   -5.9754 C   0  0  0  0  0  0  0  0  0  0  0  0
    9.6837   -1.6717   -5.3720 C   0  0  0  0  0  0  0  0  0  0  0  0
   10.8640   -1.0082   -5.7137 C   0  0  0  0  0  0  0  0  0  0  0  0
   10.8468    0.0175   -6.6658 C   0  0  0  0  0  0  0  0  0  0  0  0
    9.6386    0.3759   -7.2690 C   0  0  0  0  0  0  0  0  0  0  0  0
    8.4575   -0.2885   -6.9217 C   0  0  0  0  0  0  0  0  0  0  0  0
    6.0446   -3.4106   -3.9061 C   0  0  0  0  0  0  0  0  0  0  0  0
    4.7795   -2.6481   -3.3844 C   0  0  2  0  0  0  0  0  0  0  0  0
    3.5278   -2.8186   -4.2490 C   0  0  1  0  0  0  0  0  0  0  0  0
    3.8301   -2.4889   -5.5905 O   0  0  0  0  0  0  0  0  0  0  0  0
    2.9274   -4.2258   -4.2027 C   0  0  0  0  0  0  0  0  0  0  0  0
    1.8778   -4.3448   -5.1537 O   0  0  0  0  0  0  0  0  0  0  0  0
    4.1345    0.9576   -2.4733 C   0  0  0  0  0  0  0  0  0  0  0  0
    3.2944    1.7327   -1.7455 C   0  0  0  0  0  0  0  0  0  0  0  0
    1.2486    2.2765    0.9980 H   0  0  0  0  0  0  0  0  0  0  0  0
    1.0026    2.8579   -0.6678 H   0  0  0  0  0  0  0  0  0  0  0  0
    2.4277    3.3909    0.2605 H   0  0  0  0  0  0  0  0  0  0  0  0
    1.0614   -0.1175    0.1919 H   0  0  0  0  0  0  0  0  0  0  0  0
    2.0995   -0.7242   -1.1227 H   0  0  0  0  0  0  0  0  0  0  0  0
    0.8184    0.4634   -1.4812 H   0  0  0  0  0  0  0  0  0  0  0  0
    3.6187    1.4671    1.4885 H   0  0  0  0  0  0  0  0  0  0  0  0
    5.1737   -0.2907    1.2263 H   0  0  0  0  0  0  0  0  0  0  0  0
    5.4187   -1.7010   -0.6982 H   0  0  0  0  0  0  0  0  0  0  0  0
    4.9244   -0.6780   -4.2377 H   0  0  0  0  0  0  0  0  0  0  0  0
    7.1727   -1.5037   -2.3372 H   0  0  0  0  0  0  0  0  0  0  0  0
    7.2879   -0.3738   -3.7012 H   0  0  0  0  0  0  0  0  0  0  0  0
    6.3157   -1.5215   -6.0444 H   0  0  0  0  0  0  0  0  0  0  0  0
    7.2016   -3.0331   -6.2054 H   0  0  0  0  0  0  0  0  0  0  0  0
    9.6873   -2.4653   -4.6212 H   0  0  0  0  0  0  0  0  0  0  0  0
   11.8049   -1.2921   -5.2341 H   0  0  0  0  0  0  0  0  0  0  0  0
   11.7708    0.5378   -6.9317 H   0  0  0  0  0  0  0  0  0  0  0  0
    9.6123    1.1806   -8.0088 H   0  0  0  0  0  0  0  0  0  0  0  0
    7.5131    0.0012   -7.3926 H   0  0  0  0  0  0  0  0  0  0  0  0
    6.4205   -4.0762   -3.1089 H   0  0  0  0  0  0  0  0  0  0  0  0
    5.8281   -4.0345   -4.7842 H   0  0  0  0  0  0  0  0  0  0  0  0
    4.5251   -3.0081   -2.3745 H   0  0  0  0  0  0  0  0  0  0  0  0
    2.7529   -2.1209   -3.8546 H   0  0  0  0  0  0  0  0  0  0  0  0
    3.1259   -2.8901   -6.1251 H   0  0  0  0  0  0  0  0  0  0  0  0
    2.5889   -4.4716   -3.1783 H   0  0  0  0  0  0  0  0  0  0  0  0
    3.6836   -4.9712   -4.4955 H   0  0  0  0  0  0  0  0  0  0  0  0
    1.1145   -3.8491   -4.8263 H   0  0  0  0  0  0  0  0  0  0  0  0
    4.4735    1.3729   -3.4303 H   0  0  0  0  0  0  0  0  0  0  0  0
    3.0948    2.7432   -2.1221 H   0  0  0  0  0  0  0  0  0  0  0  0
  2  1  1  1
  1 26  1  0
  1 27  1  0
  1 28  1  0
  2  3  1  0
  2  4  1  0
  2 25  1  0
  3 29  1  0
  3 30  1  0
  3 31  1  0
  4  5  2  0
  4 32  1  0
  5  6  1  0
  5 33  1  0
  6  7  2  0
  6 34  1  0
  7  8  1  0
  7 24  1  0
  8  9  1  0
  8 19  1  0
  8 35  1  6
  9 10  1  0
  9 36  1  0
  9 37  1  0
 10 11  1  0
 10 18  1  0
 11 12  1  0
 11 38  1  0
 11 39  1  0
 12 13  2  0
 12 17  1  0
 13 14  1  0
 13 40  1  0
 14 15  2  0
 14 41  1  0
 15 16  1  0
 15 42  1  0
 16 17  2  0
 16 43  1  0
 17 44  1  0
 18 19  1  0
 18 45  1  0
 18 46  1  0
 19 20  1  0
 19 47  1  1
 20 21  1  0
 20 22  1  0
 20 48  1  1
 21 49  1  0
 22 23  1  0
 22 50  1  0
 22 51  1  0
 23 52  1  0
 24 25  2  0
 24 53  1  0
 25 54  1  0
M  END

