
     RDKit          3D

 40 39  0  0  0  0  0  0  0  0999 V2000
    0.8420   -1.1425    2.2953 C   0  0  0  0  0  0  0  0  0  0  0  0
    2.3693   -1.0260    2.3314 C   0  0  2  0  0  0  0  0  0  0  0  0
    2.7565   -1.8624    2.9476 H   0  0  0  0  0  0  0  0  0  0  0  0
    2.7390    0.2030    2.9631 O   0  0  0  0  0  0  0  0  0  0  0  0
    2.6007    0.2583    4.3676 C   0  0  0  0  0  0  0  0  0  0  0  0
    3.2078    1.5826    4.8606 C   0  0  1  0  0  0  0  0  0  0  0  0
    2.4155    2.7809    4.3141 C   0  0  0  0  0  0  0  0  0  0  0  0
    3.2496    1.5996    6.3879 C   0  0  0  0  0  0  0  0  0  0  0  0
    4.5600    1.6524    4.4214 O   0  0  0  0  0  0  0  0  0  0  0  0
    3.0655   -1.0548    0.9392 C   0  0  2  0  0  0  0  0  0  0  0  0
    3.0847    0.0036    0.6218 H   0  0  0  0  0  0  0  0  0  0  0  0
    2.2406   -1.8231   -0.1094 C   0  0  0  0  0  0  0  0  0  0  0  0
    4.5701   -1.5276    0.9789 C   0  0  1  0  0  0  0  0  0  0  0  0
    5.2219   -1.2915   -0.4023 C   0  0  0  0  0  0  0  0  0  0  0  0
    5.3925   -0.7174    2.0005 C   0  0  0  0  0  0  0  0  0  0  0  0
    4.6902   -3.0255    1.3270 C   0  0  0  0  0  0  0  0  0  0  0  0
    0.4265   -1.0581    3.3105 H   0  0  0  0  0  0  0  0  0  0  0  0
    0.5150   -2.1121    1.8941 H   0  0  0  0  0  0  0  0  0  0  0  0
    0.4004   -0.3411    1.6825 H   0  0  0  0  0  0  0  0  0  0  0  0
    3.1436   -0.5865    4.8377 H   0  0  0  0  0  0  0  0  0  0  0  0
    1.5405    0.1917    4.6783 H   0  0  0  0  0  0  0  0  0  0  0  0
    1.3819    2.7931    4.6967 H   0  0  0  0  0  0  0  0  0  0  0  0
    2.3705    2.7403    3.2154 H   0  0  0  0  0  0  0  0  0  0  0  0
    2.9107    3.7178    4.6105 H   0  0  0  0  0  0  0  0  0  0  0  0
    2.2388    1.5318    6.8195 H   0  0  0  0  0  0  0  0  0  0  0  0
    3.7143    2.5345    6.7358 H   0  0  0  0  0  0  0  0  0  0  0  0
    3.8556    0.7612    6.7643 H   0  0  0  0  0  0  0  0  0  0  0  0
    4.5473    1.4463    3.4753 H   0  0  0  0  0  0  0  0  0  0  0  0
    2.7481   -1.8371   -1.0832 H   0  0  0  0  0  0  0  0  0  0  0  0
    1.2610   -1.3530   -0.2724 H   0  0  0  0  0  0  0  0  0  0  0  0
    2.0590   -2.8699    0.1822 H   0  0  0  0  0  0  0  0  0  0  0  0
    5.1038   -0.2437   -0.7250 H   0  0  0  0  0  0  0  0  0  0  0  0
    4.8023   -1.9370   -1.1879 H   0  0  0  0  0  0  0  0  0  0  0  0
    6.3022   -1.5036   -0.3541 H   0  0  0  0  0  0  0  0  0  0  0  0
    5.3720    0.3577    1.7583 H   0  0  0  0  0  0  0  0  0  0  0  0
    6.4465   -1.0390    1.9699 H   0  0  0  0  0  0  0  0  0  0  0  0
    5.0417   -0.8377    3.0336 H   0  0  0  0  0  0  0  0  0  0  0  0
    4.1830   -3.6648    0.5880 H   0  0  0  0  0  0  0  0  0  0  0  0
    4.2698   -3.2564    2.3190 H   0  0  0  0  0  0  0  0  0  0  0  0
    5.7498   -3.3278    1.3474 H   0  0  0  0  0  0  0  0  0  0  0  0
  1  2  1  0
  1 17  1  0
  1 18  1  0
  1 19  1  0
  2  3  1  1
  2  4  1  0
  2 10  1  0
  4  5  1  0
  5  6  1  0
  5 20  1  0
  5 21  1  0
  6  7  1  0
  6  8  1  0
  6  9  1  6
  7 22  1  0
  7 23  1  0
  7 24  1  0
  8 25  1  0
  8 26  1  0
  8 27  1  0
  9 28  1  0
 10 11  1  6
 10 12  1  0
 10 13  1  0
 12 29  1  0
 12 30  1  0
 12 31  1  0
 13 14  1  6
 13 15  1  0
 13 16  1  0
 14 32  1  0
 14 33  1  0
 14 34  1  0
 15 35  1  0
 15 36  1  0
 15 37  1  0
 16 38  1  0
 16 39  1  0
 16 40  1  0
M  END

