
     RDKit          3D

 66 71  0  0  0  0  0  0  0  0999 V2000
    0.2080   -0.9831   -0.4029 C   0  0  0  0  0  0  0  0  0  0  0  0
    1.5016   -0.7889    0.1254 O   0  0  0  0  0  0  0  0  0  0  0  0
    2.3531   -1.8368    0.2072 C   0  0  0  0  0  0  0  0  0  0  0  0
    2.0512   -3.1426   -0.1984 C   0  0  0  0  0  0  0  0  0  0  0  0
    3.0006   -4.1792   -0.0776 C   0  0  0  0  0  0  0  0  0  0  0  0
    4.2546   -3.8981    0.4524 C   0  0  0  0  0  0  0  0  0  0  0  0
    4.5424   -2.5720    0.8566 C   0  0  0  0  0  0  0  0  0  0  0  0
    3.6316   -1.5477    0.7477 C   0  0  0  0  0  0  0  0  0  0  0  0
    5.9537   -2.5171    1.3912 C   0  0  0  0  0  0  0  0  0  0  0  0
    6.5163   -1.5271    1.8215 O   0  0  0  0  0  0  0  0  0  0  0  0
    6.4676   -3.8961    1.2716 C   0  0  0  0  0  0  0  0  0  0  0  0
    5.4790   -4.6978    0.7270 C   0  0  0  0  0  0  0  0  0  0  0  0
    5.6808   -6.0356    0.5027 N   0  0  0  0  0  0  0  0  0  0  0  0
    4.6568   -6.8800   -0.0602 C   0  0  0  0  0  0  0  0  0  0  0  0
    3.7588   -7.5439    0.7741 C   0  0  0  0  0  0  0  0  0  0  0  0
    2.7627   -8.3661    0.2384 C   0  0  0  0  0  0  0  0  0  0  0  0
    2.6731   -8.5357   -1.1529 C   0  0  0  0  0  0  0  0  0  0  0  0
    1.7520   -9.3115   -1.7709 O   0  0  0  0  0  0  0  0  0  0  0  0
    0.8129  -10.0485   -1.0055 C   0  0  0  0  0  0  0  0  0  0  0  0
   -0.0606  -10.8390   -1.9778 C   0  0  0  0  0  0  0  0  0  0  0  0
   -1.0242  -11.6545   -1.2530 N   0  0  0  0  0  0  0  0  0  0  0  0
   -2.3839  -11.7097   -1.7864 C   0  0  0  0  0  0  0  0  0  0  0  0
   -2.5382  -12.7525   -2.8973 C   0  0  0  0  0  0  0  0  0  0  0  0
   -2.1063  -14.0249   -2.4513 O   0  0  0  0  0  0  0  0  0  0  0  0
   -0.7598  -14.0086   -2.0137 C   0  0  0  0  0  0  0  0  0  0  0  0
   -0.5639  -12.9941   -0.8822 C   0  0  0  0  0  0  0  0  0  0  0  0
    3.5893   -7.8726   -1.9908 C   0  0  0  0  0  0  0  0  0  0  0  0
    4.5756   -7.0580   -1.4473 C   0  0  0  0  0  0  0  0  0  0  0  0
    6.9226   -6.6763    0.8150 C   0  0  0  0  0  0  0  0  0  0  0  0
    7.0526   -7.8651    0.5963 O   0  0  0  0  0  0  0  0  0  0  0  0
    7.9746   -5.8134    1.3956 C   0  0  0  0  0  0  0  0  0  0  0  0
    9.2034   -6.4039    1.7151 C   0  0  0  0  0  0  0  0  0  0  0  0
   10.2320   -5.6364    2.2663 C   0  0  0  0  0  0  0  0  0  0  0  0
   11.3899   -6.2877    2.5458 O   0  0  0  0  0  0  0  0  0  0  0  0
   12.4700   -5.5768    3.1056 C   0  0  0  0  0  0  0  0  0  0  0  0
   10.0204   -4.2592    2.4981 C   0  0  0  0  0  0  0  0  0  0  0  0
    8.8019   -3.6684    2.1826 C   0  0  0  0  0  0  0  0  0  0  0  0
    7.7535   -4.4296    1.6256 C   0  0  0  0  0  0  0  0  0  0  0  0
   -0.2923   -0.0062   -0.3713 H   0  0  0  0  0  0  0  0  0  0  0  0
   -0.3752   -1.7047    0.1970 H   0  0  0  0  0  0  0  0  0  0  0  0
    0.2418   -1.3356   -1.4494 H   0  0  0  0  0  0  0  0  0  0  0  0
    1.0734   -3.3811   -0.6166 H   0  0  0  0  0  0  0  0  0  0  0  0
    2.7254   -5.1800   -0.4057 H   0  0  0  0  0  0  0  0  0  0  0  0
    3.8754   -0.5322    1.0657 H   0  0  0  0  0  0  0  0  0  0  0  0
    3.8348   -7.4171    1.8560 H   0  0  0  0  0  0  0  0  0  0  0  0
    2.0705   -8.8709    0.9119 H   0  0  0  0  0  0  0  0  0  0  0  0
    0.1798   -9.3762   -0.3989 H   0  0  0  0  0  0  0  0  0  0  0  0
    1.3359  -10.7316   -0.3107 H   0  0  0  0  0  0  0  0  0  0  0  0
    0.6029  -11.4166   -2.6530 H   0  0  0  0  0  0  0  0  0  0  0  0
   -0.5937  -10.1199   -2.6194 H   0  0  0  0  0  0  0  0  0  0  0  0
   -2.6835  -10.7113   -2.1437 H   0  0  0  0  0  0  0  0  0  0  0  0
   -3.0685  -11.9814   -0.9618 H   0  0  0  0  0  0  0  0  0  0  0  0
   -1.9603  -12.4441   -3.7953 H   0  0  0  0  0  0  0  0  0  0  0  0
   -3.5932  -12.8590   -3.1963 H   0  0  0  0  0  0  0  0  0  0  0  0
   -0.0856  -13.7696   -2.8639 H   0  0  0  0  0  0  0  0  0  0  0  0
   -0.5203  -15.0286   -1.6738 H   0  0  0  0  0  0  0  0  0  0  0  0
    0.4946  -12.9570   -0.5780 H   0  0  0  0  0  0  0  0  0  0  0  0
   -1.1415  -13.3337   -0.0033 H   0  0  0  0  0  0  0  0  0  0  0  0
    3.5093   -8.0227   -3.0690 H   0  0  0  0  0  0  0  0  0  0  0  0
    5.2909   -6.5516   -2.0986 H   0  0  0  0  0  0  0  0  0  0  0  0
    9.3545   -7.4681    1.5313 H   0  0  0  0  0  0  0  0  0  0  0  0
   13.2834   -6.3021    3.2432 H   0  0  0  0  0  0  0  0  0  0  0  0
   12.2132   -5.1396    4.0877 H   0  0  0  0  0  0  0  0  0  0  0  0
   12.8233   -4.7686    2.4395 H   0  0  0  0  0  0  0  0  0  0  0  0
   10.8094   -3.6408    2.9273 H   0  0  0  0  0  0  0  0  0  0  0  0
    8.6387   -2.6051    2.3615 H   0  0  0  0  0  0  0  0  0  0  0  0
  1  2  1  0
  1 39  1  0
  1 40  1  0
  1 41  1  0
  2  3  1  0
  3  4  2  0
  3  8  1  0
  4  5  1  0
  4 42  1  0
  5  6  2  0
  5 43  1  0
  6  7  1  0
  6 12  1  0
  7  8  2  0
  7  9  1  0
  8 44  1  0
  9 10  2  0
  9 11  1  0
 11 12  2  0
 11 38  1  0
 12 13  1  0
 13 14  1  0
 13 29  1  0
 14 15  2  0
 14 28  1  0
 15 16  1  0
 15 45  1  0
 16 17  2  0
 16 46  1  0
 17 18  1  0
 17 27  1  0
 18 19  1  0
 19 20  1  0
 19 47  1  0
 19 48  1  0
 20 21  1  0
 20 49  1  0
 20 50  1  0
 21 22  1  0
 21 26  1  0
 22 23  1  0
 22 51  1  0
 22 52  1  0
 23 24  1  0
 23 53  1  0
 23 54  1  0
 24 25  1  0
 25 26  1  0
 25 55  1  0
 25 56  1  0
 26 57  1  0
 26 58  1  0
 27 28  2  0
 27 59  1  0
 28 60  1  0
 29 30  2  0
 29 31  1  0
 31 32  1  0
 31 38  2  0
 32 33  2  0
 32 61  1  0
 33 34  1  0
 33 36  1  0
 34 35  1  0
 35 62  1  0
 35 63  1  0
 35 64  1  0
 36 37  2  0
 36 65  1  0
 37 38  1  0
 37 66  1  0
M  END

