
     RDKit          3D

 40 42  0  0  0  0  0  0  0  0999 V2000
    5.8607    0.6196   -6.7081 C   0  0  0  0  0  0  0  0  0  0  0  0
    5.3507    0.3180   -5.3905 N   0  0  0  0  0  0  0  0  0  0  0  0
    4.2830    1.0871   -4.7659 C   0  0  0  0  0  0  0  0  0  0  0  0
    4.2512    0.5565   -3.3218 C   0  0  0  0  0  0  0  0  0  0  0  0
    4.7620   -0.8887   -3.4594 C   0  0  2  0  0  0  0  0  0  0  0  0
    5.3822   -1.4841   -2.2904 N   0  0  0  0  0  0  0  0  0  0  0  0
    6.0296   -0.6492   -1.2924 C   0  0  0  0  0  0  0  0  0  0  0  0
    5.3940   -2.8628   -2.0785 C   0  0  0  0  0  0  0  0  0  0  0  0
    5.6441   -3.3493   -0.9859 O   0  0  0  0  0  0  0  0  0  0  0  0
    5.0856   -3.6279   -3.1927 N   0  0  0  0  0  0  0  0  0  0  0  0
    5.0759   -5.0756   -3.0870 C   0  0  1  0  0  0  0  0  0  0  0  0
    3.6538   -5.6744   -3.1552 C   0  0  0  0  0  0  0  0  0  0  0  0
    3.8545   -7.4395   -3.6459 S   0  0  0  0  0  0  0  0  0  0  0  0
    5.3661   -7.0480   -4.5004 C   0  0  0  0  0  0  0  0  0  0  0  0
    6.0263   -7.8722   -5.4146 C   0  0  0  0  0  0  0  0  0  0  0  0
    7.2106   -7.4130   -6.0049 C   0  0  0  0  0  0  0  0  0  0  0  0
    7.7202   -6.1496   -5.6906 C   0  0  0  0  0  0  0  0  0  0  0  0
    7.0563   -5.3325   -4.7646 C   0  0  0  0  0  0  0  0  0  0  0  0
    5.8813   -5.7834   -4.1636 C   0  0  0  0  0  0  0  0  0  0  0  0
    5.6567   -0.8247   -4.7167 C   0  0  0  0  0  0  0  0  0  0  0  0
    6.4403   -1.6904   -5.0751 O   0  0  0  0  0  0  0  0  0  0  0  0
    6.3250    1.6200   -6.7326 H   0  0  0  0  0  0  0  0  0  0  0  0
    5.0568    0.5920   -7.4655 H   0  0  0  0  0  0  0  0  0  0  0  0
    6.6158   -0.1366   -6.9619 H   0  0  0  0  0  0  0  0  0  0  0  0
    3.3218    0.9181   -5.2904 H   0  0  0  0  0  0  0  0  0  0  0  0
    4.4962    2.1677   -4.8155 H   0  0  0  0  0  0  0  0  0  0  0  0
    3.2528    0.6222   -2.8675 H   0  0  0  0  0  0  0  0  0  0  0  0
    4.9412    1.1499   -2.7067 H   0  0  0  0  0  0  0  0  0  0  0  0
    3.9158   -1.5380   -3.7492 H   0  0  0  0  0  0  0  0  0  0  0  0
    5.3148   -0.0054   -0.7512 H   0  0  0  0  0  0  0  0  0  0  0  0
    6.8065   -0.0083   -1.7451 H   0  0  0  0  0  0  0  0  0  0  0  0
    6.4995   -1.3147   -0.5595 H   0  0  0  0  0  0  0  0  0  0  0  0
    5.3828   -3.2467   -4.0899 H   0  0  0  0  0  0  0  0  0  0  0  0
    5.5096   -5.3249   -2.1029 H   0  0  0  0  0  0  0  0  0  0  0  0
    3.0559   -5.1510   -3.9191 H   0  0  0  0  0  0  0  0  0  0  0  0
    3.1311   -5.6203   -2.1904 H   0  0  0  0  0  0  0  0  0  0  0  0
    5.6193   -8.8521   -5.6752 H   0  0  0  0  0  0  0  0  0  0  0  0
    7.7311   -8.0472   -6.7274 H   0  0  0  0  0  0  0  0  0  0  0  0
    8.6374   -5.7953   -6.1670 H   0  0  0  0  0  0  0  0  0  0  0  0
    7.4502   -4.3419   -4.5228 H   0  0  0  0  0  0  0  0  0  0  0  0
  1  2  1  0
  1 22  1  0
  1 23  1  0
  1 24  1  0
  2  3  1  0
  2 20  1  0
  3  4  1  0
  3 25  1  0
  3 26  1  0
  4  5  1  0
  4 27  1  0
  4 28  1  0
  5  6  1  0
  5 20  1  0
  5 29  1  6
  6  7  1  0
  6  8  1  0
  7 30  1  0
  7 31  1  0
  7 32  1  0
  8  9  2  0
  8 10  1  0
 10 11  1  0
 10 33  1  0
 11 12  1  0
 11 19  1  0
 11 34  1  1
 12 13  1  0
 12 35  1  0
 12 36  1  0
 13 14  1  0
 14 15  1  0
 14 19  2  0
 15 16  2  0
 15 37  1  0
 16 17  1  0
 16 38  1  0
 17 18  2  0
 17 39  1  0
 18 19  1  0
 18 40  1  0
 20 21  2  0
M  END

