
     RDKit          3D

 58 60  0  0  0  0  0  0  0  0999 V2000
    2.1373    0.8426    2.7601 C   0  0  0  0  0  0  0  0  0  0  0  0
    2.1900    0.1415    1.4018 C   0  0  0  0  0  0  0  0  0  0  0  0
    2.7549   -1.2006    1.4430 N   0  0  0  0  0  0  0  0  0  0  0  0
    4.1258   -1.3688    1.4477 C   0  0  0  0  0  0  0  0  0  0  0  0
    4.8955   -0.4225    1.3465 O   0  0  0  0  0  0  0  0  0  0  0  0
    4.5815   -2.6790    1.5431 N   0  0  0  0  0  0  0  0  0  0  0  0
    3.7600   -3.8794    1.5022 C   0  0  0  0  0  0  0  0  0  0  0  0
    4.3612   -4.9161    0.5444 C   0  0  0  0  0  0  0  0  0  0  0  0
    5.7679   -5.1515    0.8382 N   0  0  0  0  0  0  0  0  0  0  0  0
    6.2108   -6.4370    1.0606 C   0  0  0  0  0  0  0  0  0  0  0  0
    5.4427   -7.3889    1.0516 O   0  0  0  0  0  0  0  0  0  0  0  0
    7.7021   -6.6336    1.3245 C   0  0  0  0  0  0  0  0  0  0  0  0
    8.0617   -8.1120    1.5036 C   0  0  0  0  0  0  0  0  0  0  0  0
    9.4621   -8.2838    1.8809 N   0  0  0  0  0  0  0  0  0  0  0  0
    9.7631   -9.4306    2.7257 C   0  0  0  0  0  0  0  0  0  0  0  0
    9.8635  -10.7652    1.9702 C   0  0  0  0  0  0  0  0  0  0  0  0
   10.8160  -10.6562    0.8727 N   0  0  0  0  0  0  0  0  0  0  0  0
   11.3504  -11.8303    0.3142 C   0  0  0  0  0  0  0  0  0  0  0  0
   10.8906  -13.1139    0.6822 C   0  0  0  0  0  0  0  0  0  0  0  0
   11.4695  -14.2677    0.1454 C   0  0  0  0  0  0  0  0  0  0  0  0
   12.5087  -14.1865   -0.7820 C   0  0  0  0  0  0  0  0  0  0  0  0
   12.9682  -12.9202   -1.1619 C   0  0  0  0  0  0  0  0  0  0  0  0
   12.4062  -11.7642   -0.6252 C   0  0  0  0  0  0  0  0  0  0  0  0
   10.5359   -9.5226   -0.0106 C   0  0  0  0  0  0  0  0  0  0  0  0
   10.4254   -8.2167    0.7879 C   0  0  0  0  0  0  0  0  0  0  0  0
    6.5776   -3.9393    0.8341 C   0  0  0  0  0  0  0  0  0  0  0  0
    5.9951   -2.9063    1.8023 C   0  0  0  0  0  0  0  0  0  0  0  0
    1.6896    1.8451    2.6626 H   0  0  0  0  0  0  0  0  0  0  0  0
    3.1526    0.9585    3.1682 H   0  0  0  0  0  0  0  0  0  0  0  0
    1.5311    0.2735    3.4852 H   0  0  0  0  0  0  0  0  0  0  0  0
    2.8059    0.7286    0.7062 H   0  0  0  0  0  0  0  0  0  0  0  0
    1.1794    0.0679    0.9657 H   0  0  0  0  0  0  0  0  0  0  0  0
    2.1833   -1.9161    1.8746 H   0  0  0  0  0  0  0  0  0  0  0  0
    2.7528   -3.6323    1.1419 H   0  0  0  0  0  0  0  0  0  0  0  0
    3.6661   -4.3268    2.5123 H   0  0  0  0  0  0  0  0  0  0  0  0
    4.2619   -4.5426   -0.4925 H   0  0  0  0  0  0  0  0  0  0  0  0
    3.8361   -5.8760    0.6242 H   0  0  0  0  0  0  0  0  0  0  0  0
    8.0060   -6.0841    2.2316 H   0  0  0  0  0  0  0  0  0  0  0  0
    8.2812   -6.1910    0.4960 H   0  0  0  0  0  0  0  0  0  0  0  0
    7.7702   -8.6672    0.5899 H   0  0  0  0  0  0  0  0  0  0  0  0
    7.4297   -8.5237    2.3037 H   0  0  0  0  0  0  0  0  0  0  0  0
    9.0018   -9.5126    3.5175 H   0  0  0  0  0  0  0  0  0  0  0  0
   10.7345   -9.2476    3.2205 H   0  0  0  0  0  0  0  0  0  0  0  0
    8.8571  -11.0781    1.6123 H   0  0  0  0  0  0  0  0  0  0  0  0
   10.2109  -11.5372    2.6726 H   0  0  0  0  0  0  0  0  0  0  0  0
   10.0642  -13.2231    1.3840 H   0  0  0  0  0  0  0  0  0  0  0  0
   11.0863  -15.2445    0.4539 H   0  0  0  0  0  0  0  0  0  0  0  0
   12.9550  -15.0909   -1.2018 H   0  0  0  0  0  0  0  0  0  0  0  0
   13.7879  -12.8283   -1.8800 H   0  0  0  0  0  0  0  0  0  0  0  0
   12.8122  -10.7948   -0.9186 H   0  0  0  0  0  0  0  0  0  0  0  0
    9.5959   -9.7003   -0.5780 H   0  0  0  0  0  0  0  0  0  0  0  0
   11.3361   -9.4185   -0.7541 H   0  0  0  0  0  0  0  0  0  0  0  0
   10.1620   -7.3929    0.1056 H   0  0  0  0  0  0  0  0  0  0  0  0
   11.4187   -7.9816    1.2113 H   0  0  0  0  0  0  0  0  0  0  0  0
    6.5955   -3.5109   -0.1864 H   0  0  0  0  0  0  0  0  0  0  0  0
    7.6111   -4.1654    1.1198 H   0  0  0  0  0  0  0  0  0  0  0  0
    6.5106   -1.9433    1.7010 H   0  0  0  0  0  0  0  0  0  0  0  0
    6.1335   -3.2741    2.8392 H   0  0  0  0  0  0  0  0  0  0  0  0
  1  2  1  0
  1 28  1  0
  1 29  1  0
  1 30  1  0
  2  3  1  0
  2 31  1  0
  2 32  1  0
  3  4  1  0
  3 33  1  0
  4  5  2  0
  4  6  1  0
  6  7  1  0
  6 27  1  0
  7  8  1  0
  7 34  1  0
  7 35  1  0
  8  9  1  0
  8 36  1  0
  8 37  1  0
  9 10  1  0
  9 26  1  0
 10 11  2  0
 10 12  1  0
 12 13  1  0
 12 38  1  0
 12 39  1  0
 13 14  1  0
 13 40  1  0
 13 41  1  0
 14 15  1  0
 14 25  1  0
 15 16  1  0
 15 42  1  0
 15 43  1  0
 16 17  1  0
 16 44  1  0
 16 45  1  0
 17 18  1  0
 17 24  1  0
 18 19  2  0
 18 23  1  0
 19 20  1  0
 19 46  1  0
 20 21  2  0
 20 47  1  0
 21 22  1  0
 21 48  1  0
 22 23  2  0
 22 49  1  0
 23 50  1  0
 24 25  1  0
 24 51  1  0
 24 52  1  0
 25 53  1  0
 25 54  1  0
 26 27  1  0
 26 55  1  0
 26 56  1  0
 27 57  1  0
 27 58  1  0
M  END

