
     RDKit          3D

 30 32  0  0  0  0  0  0  0  0999 V2000
    0.9151   -0.0713    0.0442 O   0  0  0  0  0  0  0  0  0  0  0  0
    2.1212   -0.0394    0.0627 C   0  0  0  0  0  0  0  0  0  0  0  0
    3.0535    0.9204   -0.6805 C   0  0  1  0  0  0  0  0  0  0  0  0
    3.2147    0.4120   -1.6479 H   0  0  0  0  0  0  0  0  0  0  0  0
    2.4747    2.3160   -0.9598 C   0  0  0  0  0  0  0  0  0  0  0  0
    3.0706    3.4201   -0.1321 C   0  0  0  0  0  0  0  0  0  0  0  0
    3.9806    3.2392    0.8313 C   0  0  0  0  0  0  0  0  0  0  0  0
    4.5040    1.8880    1.2360 C   0  0  0  0  0  0  0  0  0  0  0  0
    4.3704    0.8217    0.1203 C   0  0  1  0  0  0  0  0  0  0  0  0
    5.2564    0.8659   -0.5288 H   0  0  0  0  0  0  0  0  0  0  0  0
    4.2818   -0.5561    0.7722 C   0  0  0  0  0  0  0  0  0  0  0  0
    5.1669   -1.1948    1.2909 O   0  0  0  0  0  0  0  0  0  0  0  0
    2.9378   -0.9344    0.7590 N   0  0  0  0  0  0  0  0  0  0  0  0
    2.4430   -2.1323    1.4379 C   0  0  0  0  0  0  0  0  0  0  0  0
    2.6419   -3.3906    0.6574 C   0  0  0  0  0  0  0  0  0  0  0  0
    3.6489   -4.3170    0.6231 C   0  0  0  0  0  0  0  0  0  0  0  0
    3.2716   -5.2857   -0.3647 C   0  0  0  0  0  0  0  0  0  0  0  0
    2.0667   -4.8702   -0.8562 C   0  0  0  0  0  0  0  0  0  0  0  0
    1.6773   -3.7241   -0.2459 O   0  0  0  0  0  0  0  0  0  0  0  0
    1.3811    2.2752   -0.8067 H   0  0  0  0  0  0  0  0  0  0  0  0
    2.6027    2.5679   -2.0270 H   0  0  0  0  0  0  0  0  0  0  0  0
    2.7185    4.4335   -0.3535 H   0  0  0  0  0  0  0  0  0  0  0  0
    4.3512    4.1031    1.3928 H   0  0  0  0  0  0  0  0  0  0  0  0
    3.9595    1.5546    2.1410 H   0  0  0  0  0  0  0  0  0  0  0  0
    5.5593    1.9495    1.5453 H   0  0  0  0  0  0  0  0  0  0  0  0
    1.3719   -1.9681    1.6222 H   0  0  0  0  0  0  0  0  0  0  0  0
    2.9732   -2.2162    2.3963 H   0  0  0  0  0  0  0  0  0  0  0  0
    4.5560   -4.2916    1.2227 H   0  0  0  0  0  0  0  0  0  0  0  0
    3.8240   -6.1732   -0.6664 H   0  0  0  0  0  0  0  0  0  0  0  0
    1.3874   -5.2687   -1.6055 H   0  0  0  0  0  0  0  0  0  0  0  0
  1  2  2  0
  2  3  1  0
  2 13  1  0
  3  4  1  6
  3  5  1  0
  3  9  1  0
  5  6  1  0
  5 20  1  0
  5 21  1  0
  6  7  2  0
  6 22  1  0
  7  8  1  0
  7 23  1  0
  8  9  1  0
  8 24  1  0
  8 25  1  0
  9 10  1  6
  9 11  1  0
 11 12  2  0
 11 13  1  0
 13 14  1  0
 14 15  1  0
 14 26  1  0
 14 27  1  0
 15 16  2  0
 15 19  1  0
 16 17  1  0
 16 28  1  0
 17 18  2  0
 17 29  1  0
 18 19  1  0
 18 30  1  0
M  END

