
     RDKit          3D

 41 41  0  0  0  0  0  0  0  0999 V2000
    2.2601    3.7690   -2.4513 C   0  0  0  0  0  0  0  0  0  0  0  0
    2.5052    2.2569   -2.4694 C   0  0  0  0  0  0  0  0  0  0  0  0
    3.7495    1.8293   -1.6779 C   0  0  1  0  0  0  0  0  0  0  0  0
    3.7433    2.1604   -0.1765 C   0  0  0  0  0  0  0  0  0  0  0  0
    2.6015    1.5516    0.6412 C   0  0  0  0  0  0  0  0  0  0  0  0
    4.0390   -0.0093   -1.8534 S   0  0  0  0  0  0  0  0  0  0  0  0
    4.8460   -0.0435   -3.4058 C   0  0  0  0  0  0  0  0  0  0  0  0
    5.1078    0.9681   -4.2172 N   0  0  0  0  0  0  0  0  0  0  0  0
    5.7494    0.4356   -5.2833 N   0  0  0  0  0  0  0  0  0  0  0  0
    5.8859   -0.8334   -5.1610 N   0  0  0  0  0  0  0  0  0  0  0  0
    5.3285   -1.1761   -3.9749 N   0  0  0  0  0  0  0  0  0  0  0  0
    5.2755   -2.5592   -3.5323 C   0  0  0  0  0  0  0  0  0  0  0  0
    4.0394   -3.3010   -4.0509 C   0  0  0  0  0  0  0  0  0  0  0  0
    4.0584   -4.6709   -3.5843 N   0  0  0  0  0  0  0  0  0  0  0  0
    3.0537   -5.5361   -4.1775 C   0  0  0  0  0  0  0  0  0  0  0  0
    3.1041   -6.9128   -3.5402 C   0  0  0  0  0  0  0  0  0  0  0  0
    2.8163   -6.7722   -2.1666 O   0  0  0  0  0  0  0  0  0  0  0  0
    2.8952   -7.9677   -1.4372 C   0  0  0  0  0  0  0  0  0  0  0  0
    1.4181    4.0290   -3.1118 H   0  0  0  0  0  0  0  0  0  0  0  0
    3.1440    4.3212   -2.8110 H   0  0  0  0  0  0  0  0  0  0  0  0
    2.0144    4.1443   -1.4449 H   0  0  0  0  0  0  0  0  0  0  0  0
    2.6455    1.9321   -3.5114 H   0  0  0  0  0  0  0  0  0  0  0  0
    1.6183    1.7224   -2.0893 H   0  0  0  0  0  0  0  0  0  0  0  0
    4.6363    2.2857   -2.1412 H   0  0  0  0  0  0  0  0  0  0  0  0
    3.7142    3.2598   -0.0861 H   0  0  0  0  0  0  0  0  0  0  0  0
    4.7116    1.8504    0.2498 H   0  0  0  0  0  0  0  0  0  0  0  0
    1.6147    1.8991    0.2971 H   0  0  0  0  0  0  0  0  0  0  0  0
    2.6962    1.8282    1.7029 H   0  0  0  0  0  0  0  0  0  0  0  0
    2.6024    0.4501    0.5891 H   0  0  0  0  0  0  0  0  0  0  0  0
    5.2961   -2.5588   -2.4306 H   0  0  0  0  0  0  0  0  0  0  0  0
    6.1871   -3.0582   -3.8874 H   0  0  0  0  0  0  0  0  0  0  0  0
    4.0734   -3.2956   -5.1537 H   0  0  0  0  0  0  0  0  0  0  0  0
    3.1248   -2.7354   -3.7619 H   0  0  0  0  0  0  0  0  0  0  0  0
    3.9452   -4.7084   -2.5707 H   0  0  0  0  0  0  0  0  0  0  0  0
    3.2498   -5.6387   -5.2594 H   0  0  0  0  0  0  0  0  0  0  0  0
    2.0190   -5.1379   -4.0755 H   0  0  0  0  0  0  0  0  0  0  0  0
    4.1130   -7.3524   -3.6810 H   0  0  0  0  0  0  0  0  0  0  0  0
    2.3699   -7.5859   -4.0296 H   0  0  0  0  0  0  0  0  0  0  0  0
    2.6578   -7.7401   -0.3876 H   0  0  0  0  0  0  0  0  0  0  0  0
    3.9087   -8.4157   -1.4816 H   0  0  0  0  0  0  0  0  0  0  0  0
    2.1731   -8.7251   -1.8046 H   0  0  0  0  0  0  0  0  0  0  0  0
  1  2  1  0
  1 19  1  0
  1 20  1  0
  1 21  1  0
  2  3  1  0
  2 22  1  0
  2 23  1  0
  3  4  1  0
  3  6  1  0
  3 24  1  6
  4  5  1  0
  4 25  1  0
  4 26  1  0
  5 27  1  0
  5 28  1  0
  5 29  1  0
  6  7  1  0
  7  8  2  0
  7 11  1  0
  8  9  1  0
  9 10  2  0
 10 11  1  0
 11 12  1  0
 12 13  1  0
 12 30  1  0
 12 31  1  0
 13 14  1  0
 13 32  1  0
 13 33  1  0
 14 15  1  0
 14 34  1  0
 15 16  1  0
 15 35  1  0
 15 36  1  0
 16 17  1  0
 16 37  1  0
 16 38  1  0
 17 18  1  0
 18 39  1  0
 18 40  1  0
 18 41  1  0
M  END

