
     RDKit          3D

 55 60  0  0  0  0  0  0  0  0999 V2000
    0.9852    2.0219   -2.1158 O   0  0  0  0  0  0  0  0  0  0  0  0
    1.7962    1.6402   -1.3284 C   0  0  0  0  0  0  0  0  0  0  0  0
    2.4882    0.4576   -1.5123 O   0  0  0  0  0  0  0  0  0  0  0  0
    3.4267    0.2432   -0.5169 C   0  0  0  0  0  0  0  0  0  0  0  0
    4.1508   -0.7030   -0.5289 O   0  0  0  0  0  0  0  0  0  0  0  0
    3.3442    1.3681    0.5029 C   0  0  2  0  0  0  0  0  0  0  0  0
    2.2492    2.2974   -0.0350 C   0  0  1  0  0  0  0  0  0  0  0  0
    2.8475    3.7127   -0.2498 C   0  0  2  0  0  0  0  0  0  0  0  0
    4.0378    3.6206   -1.1932 C   0  0  0  0  0  0  0  0  0  0  0  0
    4.1150    4.4025   -2.4470 C   0  0  0  0  0  0  0  0  0  0  0  0
    2.9589    4.6931   -3.1980 C   0  0  0  0  0  0  0  0  0  0  0  0
    3.0459    5.4116   -4.3927 C   0  0  0  0  0  0  0  0  0  0  0  0
    4.2841    5.8625   -4.8580 C   0  0  0  0  0  0  0  0  0  0  0  0
    5.4400    5.5863   -4.1197 C   0  0  0  0  0  0  0  0  0  0  0  0
    5.3561    4.8663   -2.9280 C   0  0  0  0  0  0  0  0  0  0  0  0
    4.9881    2.7835   -0.7222 C   0  0  0  0  0  0  0  0  0  0  0  0
    4.6592    2.1796    0.6279 C   0  0  1  0  0  0  0  0  0  0  0  0
    4.3898    3.2418    1.6274 N   0  0  0  0  0  0  0  0  0  0  0  0
    5.6157    3.8653    2.1366 C   0  0  0  0  0  0  0  0  0  0  0  0
    5.4304    4.6407    3.4266 C   0  0  0  0  0  0  0  0  0  0  0  0
    5.1184    3.9702    4.6206 C   0  0  0  0  0  0  0  0  0  0  0  0
    4.9702    4.6726    5.8169 C   0  0  0  0  0  0  0  0  0  0  0  0
    5.1309    6.0631    5.8399 C   0  0  0  0  0  0  0  0  0  0  0  0
    5.4432    6.7414    4.6602 C   0  0  0  0  0  0  0  0  0  0  0  0
    5.5925    6.0318    3.4631 C   0  0  0  0  0  0  0  0  0  0  0  0
    3.3876    4.2092    1.1388 C   0  0  2  0  0  0  0  0  0  0  0  0
    2.2475    4.4878    2.1146 C   0  0  0  0  0  0  0  0  0  0  0  0
    1.4974    5.6660    1.9665 C   0  0  0  0  0  0  0  0  0  0  0  0
    0.4086    5.9339    2.7988 C   0  0  0  0  0  0  0  0  0  0  0  0
    0.0515    5.0250    3.8002 C   0  0  0  0  0  0  0  0  0  0  0  0
    0.7966    3.8544    3.9632 C   0  0  0  0  0  0  0  0  0  0  0  0
    1.8873    3.5902    3.1284 C   0  0  0  0  0  0  0  0  0  0  0  0
    3.1041    0.9322    1.4841 H   0  0  0  0  0  0  0  0  0  0  0  0
    1.3778    2.3681    0.6335 H   0  0  0  0  0  0  0  0  0  0  0  0
    2.0772    4.4049   -0.6086 H   0  0  0  0  0  0  0  0  0  0  0  0
    1.9865    4.3203   -2.8691 H   0  0  0  0  0  0  0  0  0  0  0  0
    2.1379    5.6140   -4.9664 H   0  0  0  0  0  0  0  0  0  0  0  0
    4.3491    6.4289   -5.7905 H   0  0  0  0  0  0  0  0  0  0  0  0
    6.4122    5.9425   -4.4699 H   0  0  0  0  0  0  0  0  0  0  0  0
    6.2613    4.6771   -2.3464 H   0  0  0  0  0  0  0  0  0  0  0  0
    5.9158    2.5536   -1.2510 H   0  0  0  0  0  0  0  0  0  0  0  0
    5.4598    1.5309    1.0060 H   0  0  0  0  0  0  0  0  0  0  0  0
    6.0756    4.5356    1.3800 H   0  0  0  0  0  0  0  0  0  0  0  0
    6.3381    3.0522    2.3179 H   0  0  0  0  0  0  0  0  0  0  0  0
    4.9922    2.8841    4.6066 H   0  0  0  0  0  0  0  0  0  0  0  0
    4.7304    4.1349    6.7381 H   0  0  0  0  0  0  0  0  0  0  0  0
    5.0148    6.6139    6.7768 H   0  0  0  0  0  0  0  0  0  0  0  0
    5.5724    7.8268    4.6686 H   0  0  0  0  0  0  0  0  0  0  0  0
    5.8433    6.5685    2.5433 H   0  0  0  0  0  0  0  0  0  0  0  0
    3.8812    5.1777    0.9304 H   0  0  0  0  0  0  0  0  0  0  0  0
    1.7737    6.3885    1.1920 H   0  0  0  0  0  0  0  0  0  0  0  0
   -0.1597    6.8587    2.6693 H   0  0  0  0  0  0  0  0  0  0  0  0
   -0.7986    5.2333    4.4547 H   0  0  0  0  0  0  0  0  0  0  0  0
    0.5327    3.1433    4.7507 H   0  0  0  0  0  0  0  0  0  0  0  0
    2.4877    2.6903    3.2704 H   0  0  0  0  0  0  0  0  0  0  0  0
  1  2  2  0
  2  3  1  0
  2  7  1  0
  3  4  1  0
  4  5  2  0
  4  6  1  0
  6  7  1  0
  6 17  1  0
  6 33  1  1
  7  8  1  0
  7 34  1  1
  8  9  1  0
  8 26  1  0
  8 35  1  6
  9 10  1  0
  9 16  2  0
 10 11  2  0
 10 15  1  0
 11 12  1  0
 11 36  1  0
 12 13  2  0
 12 37  1  0
 13 14  1  0
 13 38  1  0
 14 15  2  0
 14 39  1  0
 15 40  1  0
 16 17  1  0
 16 41  1  0
 17 18  1  0
 17 42  1  1
 18 19  1  0
 18 26  1  0
 19 20  1  0
 19 43  1  0
 19 44  1  0
 20 21  2  0
 20 25  1  0
 21 22  1  0
 21 45  1  0
 22 23  2  0
 22 46  1  0
 23 24  1  0
 23 47  1  0
 24 25  2  0
 24 48  1  0
 25 49  1  0
 26 27  1  0
 26 50  1  6
 27 28  2  0
 27 32  1  0
 28 29  1  0
 28 51  1  0
 29 30  2  0
 29 52  1  0
 30 31  1  0
 30 53  1  0
 31 32  2  0
 31 54  1  0
 32 55  1  0
M  END

