
     RDKit          3D

 41 41  0  0  0  0  0  0  0  0999 V2000
    0.9237   -0.2052   -0.3756 C   0  0  0  0  0  0  0  0  0  0  0  0
    2.4487   -0.1809   -0.2371 C   0  0  0  0  0  0  0  0  0  0  0  0
    3.0272   -1.0846    0.8754 C   0  0  1  0  0  0  0  0  0  0  0  0
    2.5843   -2.5590    0.7124 C   0  0  0  0  0  0  0  0  0  0  0  0
    3.1143   -3.2970   -0.5220 C   0  0  0  0  0  0  0  0  0  0  0  0
    4.5688   -0.9072    0.9999 C   0  0  1  0  0  0  0  0  0  0  0  0
    4.9519    0.5179    1.4210 C   0  0  0  0  0  0  0  0  0  0  0  0
    5.1105   -1.8614    1.9717 N   0  0  0  0  0  0  0  0  0  0  0  0
    6.5695   -1.9515    2.0289 C   0  0  0  0  0  0  0  0  0  0  0  0
    7.0018   -3.1450    2.8497 C   0  0  0  0  0  0  0  0  0  0  0  0
    7.1639   -3.0308    4.2383 C   0  0  0  0  0  0  0  0  0  0  0  0
    7.5317   -4.1169    5.0333 C   0  0  0  0  0  0  0  0  0  0  0  0
    7.7492   -5.3811    4.4668 C   0  0  0  0  0  0  0  0  0  0  0  0
    8.1392   -6.5716    5.3088 C   0  0  0  0  0  0  0  0  0  0  0  0
    7.5819   -5.5168    3.0811 C   0  0  0  0  0  0  0  0  0  0  0  0
    7.2097   -4.4215    2.2992 C   0  0  0  0  0  0  0  0  0  0  0  0
    7.0070   -4.6882    0.5692 Cl  0  0  0  0  0  0  0  0  0  0  0  0
    0.5866    0.5535   -1.1001 H   0  0  0  0  0  0  0  0  0  0  0  0
    0.4298    0.0145    0.5862 H   0  0  0  0  0  0  0  0  0  0  0  0
    0.5451   -1.1779   -0.7266 H   0  0  0  0  0  0  0  0  0  0  0  0
    2.7533    0.8590   -0.0438 H   0  0  0  0  0  0  0  0  0  0  0  0
    2.9092   -0.4467   -1.2057 H   0  0  0  0  0  0  0  0  0  0  0  0
    2.5988   -0.7419    1.8364 H   0  0  0  0  0  0  0  0  0  0  0  0
    1.4826   -2.5844    0.7002 H   0  0  0  0  0  0  0  0  0  0  0  0
    2.8555   -3.1193    1.6231 H   0  0  0  0  0  0  0  0  0  0  0  0
    2.8371   -2.7878   -1.4590 H   0  0  0  0  0  0  0  0  0  0  0  0
    2.7007   -4.3172   -0.5711 H   0  0  0  0  0  0  0  0  0  0  0  0
    4.2117   -3.3945   -0.5096 H   0  0  0  0  0  0  0  0  0  0  0  0
    5.0101   -1.0834   -0.0102 H   0  0  0  0  0  0  0  0  0  0  0  0
    4.5311    0.7470    2.4139 H   0  0  0  0  0  0  0  0  0  0  0  0
    4.5931    1.2684    0.7035 H   0  0  0  0  0  0  0  0  0  0  0  0
    6.0438    0.6385    1.4808 H   0  0  0  0  0  0  0  0  0  0  0  0
    4.7494   -2.7899    1.7701 H   0  0  0  0  0  0  0  0  0  0  0  0
    6.9746   -1.0448    2.5051 H   0  0  0  0  0  0  0  0  0  0  0  0
    7.0304   -2.0131    1.0205 H   0  0  0  0  0  0  0  0  0  0  0  0
    6.9942   -2.0550    4.7012 H   0  0  0  0  0  0  0  0  0  0  0  0
    7.6526   -3.9801    6.1112 H   0  0  0  0  0  0  0  0  0  0  0  0
    8.3550   -6.2777    6.3464 H   0  0  0  0  0  0  0  0  0  0  0  0
    9.0332   -7.0743    4.9053 H   0  0  0  0  0  0  0  0  0  0  0  0
    7.3316   -7.3230    5.3351 H   0  0  0  0  0  0  0  0  0  0  0  0
    7.7393   -6.4830    2.5969 H   0  0  0  0  0  0  0  0  0  0  0  0
  1  2  1  0
  1 18  1  0
  1 19  1  0
  1 20  1  0
  2  3  1  0
  2 21  1  0
  2 22  1  0
  3  4  1  0
  3  6  1  0
  3 23  1  1
  4  5  1  0
  4 24  1  0
  4 25  1  0
  5 26  1  0
  5 27  1  0
  5 28  1  0
  6  7  1  0
  6  8  1  0
  6 29  1  6
  7 30  1  0
  7 31  1  0
  7 32  1  0
  8  9  1  0
  8 33  1  0
  9 10  1  0
  9 34  1  0
  9 35  1  0
 10 11  2  0
 10 16  1  0
 11 12  1  0
 11 36  1  0
 12 13  2  0
 12 37  1  0
 13 14  1  0
 13 15  1  0
 14 38  1  0
 14 39  1  0
 14 40  1  0
 15 16  2  0
 15 41  1  0
 16 17  1  0
M  END

