
     RDKit          3D

104113  0  0  0  0  0  0  0  0999 V2000
    3.1528   -1.0085    2.6436 C   0  0  0  0  0  0  0  0  0  0  0  0
    3.5845   -0.3844    1.3382 C   0  0  0  0  0  0  0  0  0  0  0  0
    4.3073    0.8188    1.3293 C   0  0  0  0  0  0  0  0  0  0  0  0
    4.7188    1.4171    0.1357 C   0  0  0  0  0  0  0  0  0  0  0  0
    4.4091    0.8127   -1.0840 C   0  0  0  0  0  0  0  0  0  0  0  0
    3.6896   -0.3849   -1.0945 C   0  0  0  0  0  0  0  0  0  0  0  0
    3.2725   -0.9946    0.0996 C   0  0  0  0  0  0  0  0  0  0  0  0
    2.4993   -2.2787    0.0404 C   0  0  0  0  0  0  0  0  0  0  0  0
    1.0692   -2.2374   -0.0372 C   0  0  0  0  0  0  0  0  0  0  0  0
    0.3624   -1.0056   -0.0320 C   0  0  0  0  0  0  0  0  0  0  0  0
   -1.0203   -0.9797   -0.0859 C   0  0  0  0  0  0  0  0  0  0  0  0
   -1.7573   -2.1704   -0.1711 C   0  0  0  0  0  0  0  0  0  0  0  0
   -1.1172   -3.4152   -0.2057 C   0  0  0  0  0  0  0  0  0  0  0  0
   -1.8561   -4.6709   -0.2994 C   0  0  0  0  0  0  0  0  0  0  0  0
   -3.3393   -4.6953   -0.4587 C   0  0  0  0  0  0  0  0  0  0  0  0
   -3.9823   -4.0629   -1.5348 C   0  0  0  0  0  0  0  0  0  0  0  0
   -5.3681   -4.1420   -1.7008 C   0  0  0  0  0  0  0  0  0  0  0  0
   -6.1792   -4.8516   -0.8005 C   0  0  0  0  0  0  0  0  0  0  0  0
   -7.7094   -4.9571   -0.9494 C   0  0  1  0  0  0  0  0  0  0  0  0
   -8.2276   -4.2004   -2.1858 C   0  0  0  0  0  0  0  0  0  0  0  0
   -8.1103   -6.4440   -1.0901 C   0  0  0  0  0  0  0  0  0  0  0  0
   -8.3902   -4.3583    0.3033 C   0  0  0  0  0  0  0  0  0  0  0  0
   -5.5283   -5.4841    0.2748 C   0  0  0  0  0  0  0  0  0  0  0  0
   -4.1460   -5.4117    0.4432 C   0  0  0  0  0  0  0  0  0  0  0  0
   -1.1787   -5.8577   -0.2388 C   0  0  0  0  0  0  0  0  0  0  0  0
    0.2556   -5.9431   -0.1241 C   0  0  0  0  0  0  0  0  0  0  0  0
    0.9198   -7.1741   -0.0689 C   0  0  0  0  0  0  0  0  0  0  0  0
    0.1430   -8.4574   -0.0841 C   0  0  0  0  0  0  0  0  0  0  0  0
   -0.2986   -9.0094    1.1292 C   0  0  0  0  0  0  0  0  0  0  0  0
   -1.0214  -10.2046    1.1613 C   0  0  0  0  0  0  0  0  0  0  0  0
   -1.3112  -10.8641   -0.0345 C   0  0  0  0  0  0  0  0  0  0  0  0
   -0.8764  -10.3227   -1.2468 C   0  0  0  0  0  0  0  0  0  0  0  0
   -0.1488   -9.1234   -1.2984 C   0  0  0  0  0  0  0  0  0  0  0  0
    0.3046   -8.5595   -2.6236 C   0  0  0  0  0  0  0  0  0  0  0  0
    2.3491   -7.2156    0.0213 C   0  0  0  0  0  0  0  0  0  0  0  0
    3.0507   -8.4477    0.1020 C   0  0  0  0  0  0  0  0  0  0  0  0
    4.4307   -8.4740    0.2056 C   0  0  0  0  0  0  0  0  0  0  0  0
    5.1720   -7.2830    0.2164 C   0  0  0  0  0  0  0  0  0  0  0  0
    4.5395   -6.0377    0.1187 C   0  0  0  0  0  0  0  0  0  0  0  0
    5.2838   -4.7819    0.1257 C   0  0  0  0  0  0  0  0  0  0  0  0
    6.7755   -4.7591    0.1475 C   0  0  0  0  0  0  0  0  0  0  0  0
    7.5423   -5.3692   -0.8580 C   0  0  0  0  0  0  0  0  0  0  0  0
    8.9382   -5.2927   -0.8539 C   0  0  0  0  0  0  0  0  0  0  0  0
    9.6361   -4.6085    0.1543 C   0  0  0  0  0  0  0  0  0  0  0  0
   11.1733   -4.5063    0.1931 C   0  0  1  0  0  0  0  0  0  0  0  0
   11.8355   -5.2354   -0.9899 C   0  0  0  0  0  0  0  0  0  0  0  0
   11.5903   -3.0181    0.1380 C   0  0  0  0  0  0  0  0  0  0  0  0
   11.6974   -5.1380    1.5037 C   0  0  0  0  0  0  0  0  0  0  0  0
    8.8616   -3.9990    1.1585 C   0  0  0  0  0  0  0  0  0  0  0  0
    7.4689   -4.0685    1.1571 C   0  0  0  0  0  0  0  0  0  0  0  0
    4.6042   -3.5949    0.1106 C   0  0  0  0  0  0  0  0  0  0  0  0
    3.1663   -3.5095    0.0524 C   0  0  0  0  0  0  0  0  0  0  0  0
    2.4191   -4.7420   -0.0010 C   0  0  0  0  0  0  0  0  0  0  0  0
    3.1032   -5.9908    0.0401 C   0  0  0  0  0  0  0  0  0  0  0  0
    1.0034   -4.7106   -0.0828 C   0  0  0  0  0  0  0  0  0  0  0  0
    0.3185   -3.4621   -0.1140 C   0  0  0  0  0  0  0  0  0  0  0  0
    3.4780   -0.4014    3.5012 H   0  0  0  0  0  0  0  0  0  0  0  0
    3.5707   -2.0211    2.7641 H   0  0  0  0  0  0  0  0  0  0  0  0
    2.0571   -1.1141    2.6966 H   0  0  0  0  0  0  0  0  0  0  0  0
    4.5521    1.2950    2.2832 H   0  0  0  0  0  0  0  0  0  0  0  0
    5.2811    2.3543    0.1609 H   0  0  0  0  0  0  0  0  0  0  0  0
    4.7254    1.2692   -2.0253 H   0  0  0  0  0  0  0  0  0  0  0  0
    3.4430   -0.8641   -2.0456 H   0  0  0  0  0  0  0  0  0  0  0  0
    0.9244   -0.0725    0.0227 H   0  0  0  0  0  0  0  0  0  0  0  0
   -1.5469   -0.0222   -0.0629 H   0  0  0  0  0  0  0  0  0  0  0  0
   -2.8458   -2.1250   -0.2035 H   0  0  0  0  0  0  0  0  0  0  0  0
   -3.3888   -3.5136   -2.2697 H   0  0  0  0  0  0  0  0  0  0  0  0
   -5.8103   -3.6390   -2.5611 H   0  0  0  0  0  0  0  0  0  0  0  0
   -7.8018   -4.5985   -3.1202 H   0  0  0  0  0  0  0  0  0  0  0  0
   -7.9978   -3.1245   -2.1359 H   0  0  0  0  0  0  0  0  0  0  0  0
   -9.3224   -4.3014   -2.2530 H   0  0  0  0  0  0  0  0  0  0  0  0
   -7.6426   -6.8966   -1.9790 H   0  0  0  0  0  0  0  0  0  0  0  0
   -9.2038   -6.5402   -1.1938 H   0  0  0  0  0  0  0  0  0  0  0  0
   -7.8056   -7.0364   -0.2140 H   0  0  0  0  0  0  0  0  0  0  0  0
   -8.1262   -3.2958    0.4265 H   0  0  0  0  0  0  0  0  0  0  0  0
   -8.0945   -4.8850    1.2233 H   0  0  0  0  0  0  0  0  0  0  0  0
   -9.4871   -4.4289    0.2166 H   0  0  0  0  0  0  0  0  0  0  0  0
   -6.1098   -6.0488    1.0075 H   0  0  0  0  0  0  0  0  0  0  0  0
   -3.6796   -5.9113    1.2960 H   0  0  0  0  0  0  0  0  0  0  0  0
   -1.7411   -6.7895   -0.3091 H   0  0  0  0  0  0  0  0  0  0  0  0
   -0.0665   -8.4875    2.0614 H   0  0  0  0  0  0  0  0  0  0  0  0
   -1.3553  -10.6167    2.1170 H   0  0  0  0  0  0  0  0  0  0  0  0
   -1.8760  -11.8000   -0.0266 H   0  0  0  0  0  0  0  0  0  0  0  0
   -1.1065  -10.8413   -2.1820 H   0  0  0  0  0  0  0  0  0  0  0  0
    0.0028   -9.2108   -3.4568 H   0  0  0  0  0  0  0  0  0  0  0  0
    1.4000   -8.4444   -2.6593 H   0  0  0  0  0  0  0  0  0  0  0  0
   -0.1219   -7.5589   -2.8018 H   0  0  0  0  0  0  0  0  0  0  0  0
    2.4859   -9.3806    0.0943 H   0  0  0  0  0  0  0  0  0  0  0  0
    4.9513   -9.4319    0.2836 H   0  0  0  0  0  0  0  0  0  0  0  0
    6.2569   -7.3284    0.3108 H   0  0  0  0  0  0  0  0  0  0  0  0
    7.0405   -5.8985   -1.6717 H   0  0  0  0  0  0  0  0  0  0  0  0
    9.4799   -5.7773   -1.6666 H   0  0  0  0  0  0  0  0  0  0  0  0
   11.5260   -4.8132   -1.9588 H   0  0  0  0  0  0  0  0  0  0  0  0
   11.5995   -6.3112   -0.9942 H   0  0  0  0  0  0  0  0  0  0  0  0
   12.9305   -5.1380   -0.9222 H   0  0  0  0  0  0  0  0  0  0  0  0
   11.2327   -2.5422   -0.7890 H   0  0  0  0  0  0  0  0  0  0  0  0
   12.6884   -2.9241    0.1680 H   0  0  0  0  0  0  0  0  0  0  0  0
   11.1838   -2.4459    0.9857 H   0  0  0  0  0  0  0  0  0  0  0  0
   11.4190   -6.2020    1.5683 H   0  0  0  0  0  0  0  0  0  0  0  0
   11.2938   -4.6322    2.3940 H   0  0  0  0  0  0  0  0  0  0  0  0
   12.7969   -5.0701    1.5515 H   0  0  0  0  0  0  0  0  0  0  0  0
    9.3517   -3.4552    1.9698 H   0  0  0  0  0  0  0  0  0  0  0  0
    6.9041   -3.5875    1.9596 H   0  0  0  0  0  0  0  0  0  0  0  0
    5.1711   -2.6632    0.1102 H   0  0  0  0  0  0  0  0  0  0  0  0
  1  2  1  0
  1 57  1  0
  1 58  1  0
  1 59  1  0
  2  3  2  0
  2  7  1  0
  3  4  1  0
  3 60  1  0
  4  5  2  0
  4 61  1  0
  5  6  1  0
  5 62  1  0
  6  7  2  0
  6 63  1  0
  7  8  1  0
  8  9  1  0
  8 52  2  0
  9 10  2  0
  9 56  1  0
 10 11  1  0
 10 64  1  0
 11 12  2  0
 11 65  1  0
 12 13  1  0
 12 66  1  0
 13 14  1  0
 13 56  2  0
 14 15  1  0
 14 25  2  0
 15 16  2  0
 15 24  1  0
 16 17  1  0
 16 67  1  0
 17 18  2  0
 17 68  1  0
 18 19  1  0
 18 23  1  0
 19 20  1  6
 19 21  1  0
 19 22  1  0
 20 69  1  0
 20 70  1  0
 20 71  1  0
 21 72  1  0
 21 73  1  0
 21 74  1  0
 22 75  1  0
 22 76  1  0
 22 77  1  0
 23 24  2  0
 23 78  1  0
 24 79  1  0
 25 26  1  0
 25 80  1  0
 26 27  1  0
 26 55  2  0
 27 28  1  0
 27 35  2  0
 28 29  2  0
 28 33  1  0
 29 30  1  0
 29 81  1  0
 30 31  2  0
 30 82  1  0
 31 32  1  0
 31 83  1  0
 32 33  2  0
 32 84  1  0
 33 34  1  0
 34 85  1  0
 34 86  1  0
 34 87  1  0
 35 36  1  0
 35 54  1  0
 36 37  2  0
 36 88  1  0
 37 38  1  0
 37 89  1  0
 38 39  2  0
 38 90  1  0
 39 40  1  0
 39 54  1  0
 40 41  1  0
 40 51  2  0
 41 42  2  0
 41 50  1  0
 42 43  1  0
 42 91  1  0
 43 44  2  0
 43 92  1  0
 44 45  1  0
 44 49  1  0
 45 46  1  6
 45 47  1  0
 45 48  1  0
 46 93  1  0
 46 94  1  0
 46 95  1  0
 47 96  1  0
 47 97  1  0
 47 98  1  0
 48 99  1  0
 48100  1  0
 48101  1  0
 49 50  2  0
 49102  1  0
 50103  1  0
 51 52  1  0
 51104  1  0
 52 53  1  0
 53 54  2  0
 53 55  1  0
 55 56  1  0
M  END

