
     RDKit          3D

 31 32  0  0  0  0  0  0  0  0999 V2000
    2.0849    1.4536    0.3328 O   0  0  0  0  0  0  0  0  0  0  0  0
    2.1638    0.2776    0.0874 C   0  0  0  0  0  0  0  0  0  0  0  0
    1.7638   -0.2006   -1.0983 O   0  0  0  0  0  0  0  0  0  0  0  0
    2.7632   -0.6947    1.0870 C   0  0  0  0  0  0  0  0  0  0  0  0
    3.4260   -0.1104    2.1778 C   0  0  0  0  0  0  0  0  0  0  0  0
    4.0337   -0.8987    3.1499 C   0  0  0  0  0  0  0  0  0  0  0  0
    4.0049   -2.2888    3.0350 C   0  0  0  0  0  0  0  0  0  0  0  0
    3.3602   -2.9238    1.9601 C   0  0  0  0  0  0  0  0  0  0  0  0
    3.3899   -4.4102    1.8542 C   0  0  0  0  0  0  0  0  0  0  0  0
    2.9686   -5.2041    2.9359 C   0  0  0  0  0  0  0  0  0  0  0  0
    3.0349   -6.5968    2.8651 C   0  0  0  0  0  0  0  0  0  0  0  0
    3.5234   -7.2197    1.7124 C   0  0  0  0  0  0  0  0  0  0  0  0
    3.9445   -6.4407    0.6312 C   0  0  0  0  0  0  0  0  0  0  0  0
    3.8787   -5.0468    0.7001 C   0  0  0  0  0  0  0  0  0  0  0  0
    2.7248   -2.0984    1.0148 C   0  0  0  0  0  0  0  0  0  0  0  0
    2.0394   -2.6871   -0.0679 O   0  0  0  0  0  0  0  0  0  0  0  0
    0.9164   -3.4142    0.1805 C   0  0  0  0  0  0  0  0  0  0  0  0
    0.4192   -3.5715    1.2488 O   0  0  0  0  0  0  0  0  0  0  0  0
    0.3321   -3.9751   -1.1498 C   0  0  1  0  0  0  0  0  0  0  0  0
   -0.3663   -2.5711   -2.0373 Cl  0  0  0  0  0  0  0  0  0  0  0  0
    1.6144   -4.7358   -2.1405 Cl  0  0  0  0  0  0  0  0  0  0  0  0
   -0.9369   -5.1553   -0.7852 Cl  0  0  0  0  0  0  0  0  0  0  0  0
    1.8655   -1.1654   -1.1451 H   0  0  0  0  0  0  0  0  0  0  0  0
    3.4405    0.9792    2.2287 H   0  0  0  0  0  0  0  0  0  0  0  0
    4.5459   -0.4309    3.9936 H   0  0  0  0  0  0  0  0  0  0  0  0
    4.5084   -2.9106    3.7786 H   0  0  0  0  0  0  0  0  0  0  0  0
    2.5677   -4.7225    3.8308 H   0  0  0  0  0  0  0  0  0  0  0  0
    2.6967   -7.1987    3.7124 H   0  0  0  0  0  0  0  0  0  0  0  0
    3.5745   -8.3099    1.6568 H   0  0  0  0  0  0  0  0  0  0  0  0
    4.3314   -6.9193   -0.2719 H   0  0  0  0  0  0  0  0  0  0  0  0
    4.2196   -4.4458   -0.1453 H   0  0  0  0  0  0  0  0  0  0  0  0
  1  2  2  0
  2  3  1  0
  2  4  1  0
  3 23  1  0
  4  5  2  0
  4 15  1  0
  5  6  1  0
  5 24  1  0
  6  7  2  0
  6 25  1  0
  7  8  1  0
  7 26  1  0
  8  9  1  0
  8 15  2  0
  9 10  2  0
  9 14  1  0
 10 11  1  0
 10 27  1  0
 11 12  2  0
 11 28  1  0
 12 13  1  0
 12 29  1  0
 13 14  2  0
 13 30  1  0
 14 31  1  0
 15 16  1  0
 16 17  1  0
 17 18  2  0
 17 19  1  0
 19 20  1  6
 19 21  1  0
 19 22  1  0
M  END

