
     RDKit          3D

 78 84  0  0  0  0  0  0  0  0999 V2000
   -2.6044   -0.0684   -4.8193 C   0  0  0  0  0  0  0  0  0  0  0  0
   -1.9104    1.0895   -5.3495 N   0  0  0  0  0  0  0  0  0  0  0  0
   -0.6166    1.3766   -4.7306 C   0  0  0  0  0  0  0  0  0  0  0  0
    0.5271    0.5064   -5.2849 C   0  0  0  0  0  0  0  0  0  0  0  0
    0.6277    0.5572   -6.7489 N   0  0  0  0  0  0  0  0  0  0  0  0
    1.2955    1.7449   -7.2856 C   0  0  0  0  0  0  0  0  0  0  0  0
    2.7529    1.8648   -6.8764 C   0  0  0  0  0  0  0  0  0  0  0  0
    3.1993    2.9891   -6.1714 C   0  0  0  0  0  0  0  0  0  0  0  0
    4.5535    3.1089   -5.8388 C   0  0  0  0  0  0  0  0  0  0  0  0
    5.4561    2.1121   -6.1899 C   0  0  0  0  0  0  0  0  0  0  0  0
    5.0286    0.9664   -6.8998 C   0  0  0  0  0  0  0  0  0  0  0  0
    6.0070    0.0405   -7.2662 N   0  0  0  0  0  0  0  0  0  0  0  0
    5.9438   -1.3078   -7.6149 C   0  0  0  0  0  0  0  0  0  0  0  0
    7.1068   -1.8627   -8.1908 C   0  0  0  0  0  0  0  0  0  0  0  0
    7.1323   -3.2232   -8.5143 C   0  0  0  0  0  0  0  0  0  0  0  0
    8.2465   -3.8693   -9.0855 N   0  0  0  0  0  0  0  0  0  0  0  0
    9.4880   -3.4264   -9.4549 C   0  0  0  0  0  0  0  0  0  0  0  0
   10.3861   -4.4106  -10.0227 C   0  0  0  0  0  0  0  0  0  0  0  0
   11.6350   -4.0176  -10.4047 C   0  0  0  0  0  0  0  0  0  0  0  0
   11.9815   -2.7150  -10.2356 N   0  0  0  0  0  0  0  0  0  0  0  0
   13.1772   -2.1591  -10.5605 N   0  0  0  0  0  0  0  0  0  0  0  0
   13.0545   -0.8851  -10.2220 C   0  0  0  0  0  0  0  0  0  0  0  0
   11.7741   -0.5663   -9.6652 C   0  0  0  0  0  0  0  0  0  0  0  0
   11.1815    0.6454   -9.1683 C   0  0  0  0  0  0  0  0  0  0  0  0
   11.6338    1.9223   -9.0449 C   0  0  0  0  0  0  0  0  0  0  0  0
   10.8138    3.0648   -8.4798 C   0  0  0  0  0  0  0  0  0  0  0  0
   11.7367    4.2792   -8.5420 C   0  0  0  0  0  0  0  0  0  0  0  0
   11.5033    5.4113   -8.1941 O   0  0  0  0  0  0  0  0  0  0  0  0
   12.9297    3.8300   -9.0874 N   0  0  0  0  0  0  0  0  0  0  0  0
   12.9638    2.4649   -9.4140 C   0  0  0  0  0  0  0  0  0  0  0  0
   13.9374    1.9238   -9.8997 O   0  0  0  0  0  0  0  0  0  0  0  0
   11.0846   -1.8013   -9.6866 C   0  0  0  0  0  0  0  0  0  0  0  0
    9.8504   -2.1617   -9.3006 N   0  0  0  0  0  0  0  0  0  0  0  0
    6.0038   -4.0290   -8.2868 C   0  0  0  0  0  0  0  0  0  0  0  0
    4.8422   -3.4780   -7.7182 C   0  0  0  0  0  0  0  0  0  0  0  0
    3.7309   -4.2852   -7.5196 N   0  0  0  0  0  0  0  0  0  0  0  0
    2.5668   -3.8402   -6.8255 C   0  0  1  0  0  0  0  0  0  0  0  0
    1.5505   -3.0125   -7.5768 C   0  0  0  0  0  0  0  0  0  0  0  0
    1.2402   -4.4396   -7.2100 C   0  0  0  0  0  0  0  0  0  0  0  0
    4.8198   -2.1127   -7.3707 C   0  0  0  0  0  0  0  0  0  0  0  0
    3.6666    0.8628   -7.2394 C   0  0  0  0  0  0  0  0  0  0  0  0
   -0.6720    0.2710   -7.3649 C   0  0  0  0  0  0  0  0  0  0  0  0
   -1.8129    1.1436   -6.8069 C   0  0  0  0  0  0  0  0  0  0  0  0
   -2.7313    0.0450   -3.7299 H   0  0  0  0  0  0  0  0  0  0  0  0
   -2.1108   -1.0514   -4.9904 H   0  0  0  0  0  0  0  0  0  0  0  0
   -3.6117   -0.1300   -5.2633 H   0  0  0  0  0  0  0  0  0  0  0  0
   -0.7007    1.2467   -3.6387 H   0  0  0  0  0  0  0  0  0  0  0  0
   -0.3821    2.4435   -4.9023 H   0  0  0  0  0  0  0  0  0  0  0  0
    0.3607   -0.5470   -4.9936 H   0  0  0  0  0  0  0  0  0  0  0  0
    1.4914    0.8062   -4.8458 H   0  0  0  0  0  0  0  0  0  0  0  0
    0.7876    2.6975   -7.0250 H   0  0  0  0  0  0  0  0  0  0  0  0
    1.2423    1.6667   -8.3854 H   0  0  0  0  0  0  0  0  0  0  0  0
    2.4917    3.7725   -5.8884 H   0  0  0  0  0  0  0  0  0  0  0  0
    4.9075    3.9863   -5.2914 H   0  0  0  0  0  0  0  0  0  0  0  0
    6.5109    2.2081   -5.9155 H   0  0  0  0  0  0  0  0  0  0  0  0
    6.9504    0.4058   -7.2311 H   0  0  0  0  0  0  0  0  0  0  0  0
    7.9795   -1.2466   -8.3863 H   0  0  0  0  0  0  0  0  0  0  0  0
    8.0928   -4.8545   -9.2588 H   0  0  0  0  0  0  0  0  0  0  0  0
   10.0793   -5.4499  -10.1464 H   0  0  0  0  0  0  0  0  0  0  0  0
   12.3946   -4.6670  -10.8419 H   0  0  0  0  0  0  0  0  0  0  0  0
   13.8751   -0.1872  -10.3722 H   0  0  0  0  0  0  0  0  0  0  0  0
   10.1526    0.4852   -8.8236 H   0  0  0  0  0  0  0  0  0  0  0  0
   10.5011    2.9140   -7.4323 H   0  0  0  0  0  0  0  0  0  0  0  0
    9.8995    3.2860   -9.0567 H   0  0  0  0  0  0  0  0  0  0  0  0
   13.7272    4.4392   -9.2445 H   0  0  0  0  0  0  0  0  0  0  0  0
    6.0197   -5.0877   -8.5635 H   0  0  0  0  0  0  0  0  0  0  0  0
    3.9123   -5.2820   -7.4922 H   0  0  0  0  0  0  0  0  0  0  0  0
    2.6990   -3.5912   -5.7609 H   0  0  0  0  0  0  0  0  0  0  0  0
    1.7804   -2.8065   -8.6254 H   0  0  0  0  0  0  0  0  0  0  0  0
    1.0637   -2.1871   -7.0514 H   0  0  0  0  0  0  0  0  0  0  0  0
    1.2405   -5.1794   -8.0158 H   0  0  0  0  0  0  0  0  0  0  0  0
    0.5204   -4.6379   -6.4112 H   0  0  0  0  0  0  0  0  0  0  0  0
    3.9426   -1.7003   -6.8831 H   0  0  0  0  0  0  0  0  0  0  0  0
    3.3042    0.0138   -7.8168 H   0  0  0  0  0  0  0  0  0  0  0  0
   -0.9079   -0.7941   -7.1853 H   0  0  0  0  0  0  0  0  0  0  0  0
   -0.5882    0.3953   -8.4575 H   0  0  0  0  0  0  0  0  0  0  0  0
   -2.7777    0.8396   -7.2467 H   0  0  0  0  0  0  0  0  0  0  0  0
   -1.6493    2.1964   -7.1035 H   0  0  0  0  0  0  0  0  0  0  0  0
  1  2  1  0
  1 44  1  0
  1 45  1  0
  1 46  1  0
  2  3  1  0
  2 43  1  0
  3  4  1  0
  3 47  1  0
  3 48  1  0
  4  5  1  0
  4 49  1  0
  4 50  1  0
  5  6  1  0
  5 42  1  0
  6  7  1  0
  6 51  1  0
  6 52  1  0
  7  8  2  0
  7 41  1  0
  8  9  1  0
  8 53  1  0
  9 10  2  0
  9 54  1  0
 10 11  1  0
 10 55  1  0
 11 12  1  0
 11 41  2  0
 12 13  1  0
 12 56  1  0
 13 14  2  0
 13 40  1  0
 14 15  1  0
 14 57  1  0
 15 16  1  0
 15 34  2  0
 16 17  1  0
 16 58  1  0
 17 18  1  0
 17 33  2  0
 18 19  2  0
 18 59  1  0
 19 20  1  0
 19 60  1  0
 20 21  1  0
 20 32  1  0
 21 22  2  0
 22 23  1  0
 22 61  1  0
 23 24  1  0
 23 32  2  0
 24 25  2  0
 24 62  1  0
 25 26  1  0
 25 30  1  0
 26 27  1  0
 26 63  1  0
 26 64  1  0
 27 28  2  0
 27 29  1  0
 29 30  1  0
 29 65  1  0
 30 31  2  0
 32 33  1  0
 34 35  1  0
 34 66  1  0
 35 36  1  0
 35 40  2  0
 36 37  1  0
 36 67  1  0
 37 38  1  0
 37 39  1  0
 37 68  1  1
 38 39  1  0
 38 69  1  0
 38 70  1  0
 39 71  1  0
 39 72  1  0
 40 73  1  0
 41 74  1  0
 42 43  1  0
 42 75  1  0
 42 76  1  0
 43 77  1  0
 43 78  1  0
M  END

