
     RDKit          3D

 53 56  0  0  0  0  0  0  0  0999 V2000
    0.6236   -0.3057    1.0023 C   0  0  0  0  0  0  0  0  0  0  0  0
    1.9851   -0.6939    0.4386 C   0  0  0  0  0  0  0  0  0  0  0  0
    3.2137   -0.8180    1.7650 S   0  0  1  0  0  0  0  0  0  0  0  0
    3.4359    0.5356    2.2867 O   0  0  0  0  0  0  0  0  0  0  0  0
    2.8126   -1.9192    2.6500 O   0  0  0  0  0  0  0  0  0  0  0  0
    4.6363   -1.2513    0.9478 N   0  0  0  0  0  0  0  0  0  0  0  0
    5.2344   -2.5857    1.1860 C   0  0  1  0  0  0  0  0  0  0  0  0
    4.4782   -3.6826    0.4196 C   0  0  0  0  0  0  0  0  0  0  0  0
    4.6674   -3.5786   -1.0956 C   0  0  0  0  0  0  0  0  0  0  0  0
    6.0910   -3.5658   -1.4380 N   0  0  0  0  0  0  0  0  0  0  0  0
    6.5325   -4.4359   -2.4047 C   0  0  0  0  0  0  0  0  0  0  0  0
    5.7584   -5.1636   -3.0183 O   0  0  0  0  0  0  0  0  0  0  0  0
    7.9995   -4.5387   -2.7422 C   0  0  0  0  0  0  0  0  0  0  0  0
    8.3672   -5.1772   -3.9061 C   0  0  0  0  0  0  0  0  0  0  0  0
   10.0796   -5.2412   -4.0382 S   0  0  0  0  0  0  0  0  0  0  0  0
   10.2071   -4.4014   -2.4926 C   0  0  0  0  0  0  0  0  0  0  0  0
   11.4965   -4.0887   -1.9000 C   0  0  0  0  0  0  0  0  0  0  0  0
   12.8087   -4.2880   -2.4207 C   0  0  0  0  0  0  0  0  0  0  0  0
   13.7369   -3.8790   -1.5744 N   0  0  0  0  0  0  0  0  0  0  0  0
   13.0677   -3.4100   -0.4982 N   0  0  0  0  0  0  0  0  0  0  0  0
   13.7835   -2.8938    0.6180 C   0  0  0  0  0  0  0  0  0  0  0  0
   15.1461   -3.1928    0.7570 C   0  0  0  0  0  0  0  0  0  0  0  0
   15.8510   -2.6962    1.8539 C   0  0  0  0  0  0  0  0  0  0  0  0
   15.2108   -1.9088    2.8164 C   0  0  0  0  0  0  0  0  0  0  0  0
   13.8533   -1.6116    2.6684 C   0  0  0  0  0  0  0  0  0  0  0  0
   13.1371   -2.0943    1.5709 C   0  0  0  0  0  0  0  0  0  0  0  0
   11.7186   -3.5208   -0.6514 C   0  0  0  0  0  0  0  0  0  0  0  0
    9.0472   -4.1131   -1.9630 N   0  0  0  0  0  0  0  0  0  0  0  0
    6.8368   -2.4799   -0.8061 C   0  0  0  0  0  0  0  0  0  0  0  0
    6.6985   -2.5494    0.7198 C   0  0  0  0  0  0  0  0  0  0  0  0
   -0.1096   -0.2221    0.1855 H   0  0  0  0  0  0  0  0  0  0  0  0
    0.6797    0.6627    1.5208 H   0  0  0  0  0  0  0  0  0  0  0  0
    0.2672   -1.0634    1.7154 H   0  0  0  0  0  0  0  0  0  0  0  0
    2.3881    0.0556   -0.2582 H   0  0  0  0  0  0  0  0  0  0  0  0
    1.9723   -1.6734   -0.0617 H   0  0  0  0  0  0  0  0  0  0  0  0
    5.2881   -0.4808    1.0980 H   0  0  0  0  0  0  0  0  0  0  0  0
    5.2016   -2.8207    2.2629 H   0  0  0  0  0  0  0  0  0  0  0  0
    3.4093   -3.6517    0.6808 H   0  0  0  0  0  0  0  0  0  0  0  0
    4.8540   -4.6599    0.7657 H   0  0  0  0  0  0  0  0  0  0  0  0
    4.1981   -2.6511   -1.4732 H   0  0  0  0  0  0  0  0  0  0  0  0
    4.2054   -4.4237   -1.6182 H   0  0  0  0  0  0  0  0  0  0  0  0
    7.6998   -5.6094   -4.6474 H   0  0  0  0  0  0  0  0  0  0  0  0
   13.0986   -4.7093   -3.3836 H   0  0  0  0  0  0  0  0  0  0  0  0
   15.6299   -3.8079   -0.0009 H   0  0  0  0  0  0  0  0  0  0  0  0
   16.9129   -2.9326    1.9578 H   0  0  0  0  0  0  0  0  0  0  0  0
   15.7674   -1.5255    3.6745 H   0  0  0  0  0  0  0  0  0  0  0  0
   13.3437   -0.9885    3.4073 H   0  0  0  0  0  0  0  0  0  0  0  0
   12.0849   -1.8309    1.4557 H   0  0  0  0  0  0  0  0  0  0  0  0
   11.0088   -3.2288    0.1158 H   0  0  0  0  0  0  0  0  0  0  0  0
    6.4351   -1.5161   -1.1728 H   0  0  0  0  0  0  0  0  0  0  0  0
    7.8907   -2.5444   -1.0873 H   0  0  0  0  0  0  0  0  0  0  0  0
    7.2262   -1.6968    1.1829 H   0  0  0  0  0  0  0  0  0  0  0  0
    7.1956   -3.4654    1.0788 H   0  0  0  0  0  0  0  0  0  0  0  0
  1  2  1  0
  1 31  1  0
  1 32  1  0
  1 33  1  0
  2  3  1  0
  2 34  1  0
  2 35  1  0
  3  4  2  0
  3  5  2  0
  3  6  1  6
  6  7  1  0
  6 36  1  0
  7  8  1  0
  7 30  1  0
  7 37  1  1
  8  9  1  0
  8 38  1  0
  8 39  1  0
  9 10  1  0
  9 40  1  0
  9 41  1  0
 10 11  1  0
 10 29  1  0
 11 12  2  0
 11 13  1  0
 13 14  2  0
 13 28  1  0
 14 15  1  0
 14 42  1  0
 15 16  1  0
 16 17  1  0
 16 28  2  0
 17 18  1  0
 17 27  2  0
 18 19  2  0
 18 43  1  0
 19 20  1  0
 20 21  1  0
 20 27  1  0
 21 22  2  0
 21 26  1  0
 22 23  1  0
 22 44  1  0
 23 24  2  0
 23 45  1  0
 24 25  1  0
 24 46  1  0
 25 26  2  0
 25 47  1  0
 26 48  1  0
 27 49  1  0
 29 30  1  0
 29 50  1  0
 29 51  1  0
 30 52  1  0
 30 53  1  0
M  END

