
     RDKit          3D

 76 76  0  0  0  0  0  0  0  0999 V2000
    0.5987    0.0819    0.9213 C   0  0  0  0  0  0  0  0  0  0  0  0
    2.1254    0.1587    0.9694 C   0  0  0  0  0  0  0  0  0  0  0  0
    2.7031    1.3690    0.2288 C   0  0  0  0  0  0  0  0  0  0  0  0
    4.2315    1.4535    0.2720 C   0  0  0  0  0  0  0  0  0  0  0  0
    4.8085    2.6636   -0.4687 C   0  0  0  0  0  0  0  0  0  0  0  0
    6.3372    2.7477   -0.4255 C   0  0  0  0  0  0  0  0  0  0  0  0
    6.9140    3.9579   -1.1662 C   0  0  0  0  0  0  0  0  0  0  0  0
    8.4426    4.0423   -1.1233 C   0  0  0  0  0  0  0  0  0  0  0  0
    9.0191    5.2528   -1.8636 C   0  0  0  0  0  0  0  0  0  0  0  0
   10.5478    5.3373   -1.8207 C   0  0  0  0  0  0  0  0  0  0  0  0
   11.1240    6.5485   -2.5603 C   0  0  0  0  0  0  0  0  0  0  0  0
   12.6525    6.6327   -2.5169 C   0  0  0  0  0  0  0  0  0  0  0  0
   13.2294    7.8444   -3.2549 C   0  0  0  0  0  0  0  0  0  0  0  0
   14.7577    7.9194   -3.2079 C   0  0  0  0  0  0  0  0  0  0  0  0
   15.3214    9.1314   -3.9480 C   0  0  0  0  0  0  0  0  0  0  0  0
   16.8514    9.1805   -3.9170 C   0  0  0  0  0  0  0  0  0  0  0  0
   17.4971    8.3029   -3.3744 O   0  0  0  0  0  0  0  0  0  0  0  0
   17.4754   10.2677   -4.5120 N   0  0  0  0  0  0  0  0  0  0  0  0
   16.7969   11.3195   -5.2624 C   0  0  0  0  0  0  0  0  0  0  0  0
   16.9065   11.1735   -6.7855 C   0  0  1  0  0  0  0  0  0  0  0  0
   16.3557    9.9472   -7.2620 O   0  0  0  0  0  0  0  0  0  0  0  0
   16.2725   12.3402   -7.5445 C   0  0  0  0  0  0  0  0  0  0  0  0
   16.3981   12.1656   -8.9311 O   0  0  0  0  0  0  0  0  0  0  0  0
   18.9128   10.2962   -4.5205 C   0  0  0  0  0  0  0  0  0  0  0  0
   19.6420    9.4459   -5.3677 C   0  0  0  0  0  0  0  0  0  0  0  0
   21.0304    9.4885   -5.3851 C   0  0  0  0  0  0  0  0  0  0  0  0
   21.7256   10.3890   -4.5571 C   0  0  0  0  0  0  0  0  0  0  0  0
   23.0788   10.3599   -4.6475 O   0  0  0  0  0  0  0  0  0  0  0  0
   23.8444   11.2211   -3.8363 C   0  0  0  0  0  0  0  0  0  0  0  0
   21.0036   11.2421   -3.7090 C   0  0  0  0  0  0  0  0  0  0  0  0
   19.6052   11.1827   -3.6943 C   0  0  0  0  0  0  0  0  0  0  0  0
    0.2191   -0.7992    1.4631 H   0  0  0  0  0  0  0  0  0  0  0  0
    0.2329    0.0164   -0.1173 H   0  0  0  0  0  0  0  0  0  0  0  0
    0.1377    0.9753    1.3754 H   0  0  0  0  0  0  0  0  0  0  0  0
    2.5549   -0.7662    0.5425 H   0  0  0  0  0  0  0  0  0  0  0  0
    2.4605    0.1845    2.0225 H   0  0  0  0  0  0  0  0  0  0  0  0
    2.2740    2.2952    0.6554 H   0  0  0  0  0  0  0  0  0  0  0  0
    2.3684    1.3441   -0.8254 H   0  0  0  0  0  0  0  0  0  0  0  0
    4.6600    0.5271   -0.1543 H   0  0  0  0  0  0  0  0  0  0  0  0
    4.5656    1.4782    1.3262 H   0  0  0  0  0  0  0  0  0  0  0  0
    4.3803    3.5901   -0.0424 H   0  0  0  0  0  0  0  0  0  0  0  0
    4.4745    2.6390   -1.5228 H   0  0  0  0  0  0  0  0  0  0  0  0
    6.7655    1.8214   -0.8518 H   0  0  0  0  0  0  0  0  0  0  0  0
    6.6714    2.7723    0.6286 H   0  0  0  0  0  0  0  0  0  0  0  0
    6.4857    4.8843   -0.7398 H   0  0  0  0  0  0  0  0  0  0  0  0
    6.5797    3.9333   -2.2203 H   0  0  0  0  0  0  0  0  0  0  0  0
    8.8711    3.1162   -1.5500 H   0  0  0  0  0  0  0  0  0  0  0  0
    8.7770    4.0666   -0.0692 H   0  0  0  0  0  0  0  0  0  0  0  0
    8.5906    6.1790   -1.4368 H   0  0  0  0  0  0  0  0  0  0  0  0
    8.6847    5.2284   -2.9177 H   0  0  0  0  0  0  0  0  0  0  0  0
   10.9765    4.4117   -2.2481 H   0  0  0  0  0  0  0  0  0  0  0  0
   10.8823    5.3611   -0.7668 H   0  0  0  0  0  0  0  0  0  0  0  0
   10.6951    7.4742   -2.1327 H   0  0  0  0  0  0  0  0  0  0  0  0
   10.7895    6.5246   -3.6144 H   0  0  0  0  0  0  0  0  0  0  0  0
   13.0825    5.7085   -2.9453 H   0  0  0  0  0  0  0  0  0  0  0  0
   12.9879    6.6562   -1.4636 H   0  0  0  0  0  0  0  0  0  0  0  0
   12.7992    8.7695   -2.8262 H   0  0  0  0  0  0  0  0  0  0  0  0
   12.8934    7.8213   -4.3092 H   0  0  0  0  0  0  0  0  0  0  0  0
   15.1972    7.0034   -3.6351 H   0  0  0  0  0  0  0  0  0  0  0  0
   15.1044    7.9452   -2.1615 H   0  0  0  0  0  0  0  0  0  0  0  0
   14.9115   10.0628   -3.5181 H   0  0  0  0  0  0  0  0  0  0  0  0
   14.9930    9.1152   -5.0016 H   0  0  0  0  0  0  0  0  0  0  0  0
   17.2307   12.2940   -4.9790 H   0  0  0  0  0  0  0  0  0  0  0  0
   15.7380   11.3585   -4.9691 H   0  0  0  0  0  0  0  0  0  0  0  0
   17.9710   11.1253   -7.0657 H   0  0  0  0  0  0  0  0  0  0  0  0
   15.4162    9.9226   -7.0272 H   0  0  0  0  0  0  0  0  0  0  0  0
   16.7648   13.2893   -7.2734 H   0  0  0  0  0  0  0  0  0  0  0  0
   15.2050   12.4326   -7.2343 H   0  0  0  0  0  0  0  0  0  0  0  0
   16.2505   11.2211   -9.0957 H   0  0  0  0  0  0  0  0  0  0  0  0
   19.1040    8.7455   -6.0096 H   0  0  0  0  0  0  0  0  0  0  0  0
   21.6099    8.8302   -6.0353 H   0  0  0  0  0  0  0  0  0  0  0  0
   24.8980   11.0200   -4.0727 H   0  0  0  0  0  0  0  0  0  0  0  0
   23.6772   11.0307   -2.7606 H   0  0  0  0  0  0  0  0  0  0  0  0
   23.6287   12.2848   -4.0456 H   0  0  0  0  0  0  0  0  0  0  0  0
   21.5131   11.9456   -3.0505 H   0  0  0  0  0  0  0  0  0  0  0  0
   19.0457   11.8348   -3.0187 H   0  0  0  0  0  0  0  0  0  0  0  0
  1  2  1  0
  1 32  1  0
  1 33  1  0
  1 34  1  0
  2  3  1  0
  2 35  1  0
  2 36  1  0
  3  4  1  0
  3 37  1  0
  3 38  1  0
  4  5  1  0
  4 39  1  0
  4 40  1  0
  5  6  1  0
  5 41  1  0
  5 42  1  0
  6  7  1  0
  6 43  1  0
  6 44  1  0
  7  8  1  0
  7 45  1  0
  7 46  1  0
  8  9  1  0
  8 47  1  0
  8 48  1  0
  9 10  1  0
  9 49  1  0
  9 50  1  0
 10 11  1  0
 10 51  1  0
 10 52  1  0
 11 12  1  0
 11 53  1  0
 11 54  1  0
 12 13  1  0
 12 55  1  0
 12 56  1  0
 13 14  1  0
 13 57  1  0
 13 58  1  0
 14 15  1  0
 14 59  1  0
 14 60  1  0
 15 16  1  0
 15 61  1  0
 15 62  1  0
 16 17  2  0
 16 18  1  0
 18 19  1  0
 18 24  1  0
 19 20  1  0
 19 63  1  0
 19 64  1  0
 20 21  1  0
 20 22  1  0
 20 65  1  1
 21 66  1  0
 22 23  1  0
 22 67  1  0
 22 68  1  0
 23 69  1  0
 24 25  2  0
 24 31  1  0
 25 26  1  0
 25 70  1  0
 26 27  2  0
 26 71  1  0
 27 28  1  0
 27 30  1  0
 28 29  1  0
 29 72  1  0
 29 73  1  0
 29 74  1  0
 30 31  2  0
 30 75  1  0
 31 76  1  0
M  END

