
     RDKit          3D

 71 74  0  0  0  0  0  0  0  0999 V2000
    1.9073    3.1176    0.2360 C   0  0  0  0  0  0  0  0  0  0  0  0
    3.4011    3.1143    0.6284 C   0  0  1  0  0  0  0  0  0  0  0  0
    3.7006    2.5656    1.9401 N   0  0  0  0  0  0  0  0  0  0  0  0
    4.1749    2.3104   -0.4100 C   0  0  0  0  0  0  0  0  0  0  0  0
    4.5124    1.1631   -0.2745 O   0  0  0  0  0  0  0  0  0  0  0  0
    4.3835    3.0327   -1.5336 O   0  0  0  0  0  0  0  0  0  0  0  0
    5.0129    2.3903   -2.6572 C   0  0  0  0  0  0  0  0  0  0  0  0
    6.4283    2.1809   -2.4871 N   0  0  0  0  0  0  0  0  0  0  0  0
    6.8751    0.8456   -2.4334 C   0  0  0  0  0  0  0  0  0  0  0  0
    6.1384   -0.0858   -2.6723 O   0  0  0  0  0  0  0  0  0  0  0  0
    8.3320    0.6739   -2.0565 C   0  0  0  0  0  0  0  0  0  0  0  0
    9.2190    1.6668   -2.8062 C   0  0  0  0  0  0  0  0  0  0  0  0
    8.7128    3.0719   -2.5970 C   0  0  0  0  0  0  0  0  0  0  0  0
    9.5604    4.1780   -2.5775 C   0  0  0  0  0  0  0  0  0  0  0  0
    9.0884    5.4864   -2.4255 C   0  0  0  0  0  0  0  0  0  0  0  0
    7.7104    5.6894   -2.2787 C   0  0  0  0  0  0  0  0  0  0  0  0
    7.1222    6.9012   -2.1152 O   0  0  0  0  0  0  0  0  0  0  0  0
    7.9190    8.0734   -2.0805 C   0  0  0  0  0  0  0  0  0  0  0  0
    7.0002    9.2670   -1.8757 C   0  0  0  0  0  0  0  0  0  0  0  0
    7.7508   10.5990   -1.8343 C   0  0  0  0  0  0  0  0  0  0  0  0
    6.8431   11.8011   -1.5337 C   0  0  0  0  0  0  0  0  0  0  0  0
    6.2054   11.7205   -0.2222 N   0  0  0  0  0  0  0  0  0  0  0  0
    7.0400   12.1172    0.9094 C   0  0  0  0  0  0  0  0  0  0  0  0
    7.0583   13.6418    1.1251 C   0  0  0  0  0  0  0  0  0  0  0  0
    5.7176   14.2120    1.2087 N   0  0  0  0  0  0  0  0  0  0  0  0
    5.1858   14.6430    2.4251 C   0  0  0  0  0  0  0  0  0  0  0  0
    5.5502   14.0348    3.6469 C   0  0  0  0  0  0  0  0  0  0  0  0
    5.0462   14.4787    4.8672 C   0  0  0  0  0  0  0  0  0  0  0  0
    4.1360   15.5330    4.9210 C   0  0  0  0  0  0  0  0  0  0  0  0
    3.7643   16.1642    3.7305 C   0  0  0  0  0  0  0  0  0  0  0  0
    2.6562   17.5091    3.8159 Cl  0  0  0  0  0  0  0  0  0  0  0  0
    4.2944   15.7515    2.4969 C   0  0  0  0  0  0  0  0  0  0  0  0
    3.9223   16.6705    1.0589 Cl  0  0  0  0  0  0  0  0  0  0  0  0
    4.8685   13.8299    0.0781 C   0  0  0  0  0  0  0  0  0  0  0  0
    4.8720   12.3014   -0.1060 C   0  0  0  0  0  0  0  0  0  0  0  0
    6.8352    4.5905   -2.2802 C   0  0  0  0  0  0  0  0  0  0  0  0
    7.3211    3.2883   -2.4423 C   0  0  0  0  0  0  0  0  0  0  0  0
    1.3296    3.7063    0.9668 H   0  0  0  0  0  0  0  0  0  0  0  0
    1.5091    2.0898    0.2296 H   0  0  0  0  0  0  0  0  0  0  0  0
    1.7500    3.5621   -0.7593 H   0  0  0  0  0  0  0  0  0  0  0  0
    3.7692    4.1536    0.5723 H   0  0  0  0  0  0  0  0  0  0  0  0
    3.6578    1.5463    1.8989 H   0  0  0  0  0  0  0  0  0  0  0  0
    3.0141    2.8781    2.6248 H   0  0  0  0  0  0  0  0  0  0  0  0
    4.8198    3.0763   -3.4923 H   0  0  0  0  0  0  0  0  0  0  0  0
    4.5642    1.4053   -2.8313 H   0  0  0  0  0  0  0  0  0  0  0  0
    8.5968   -0.3720   -2.2589 H   0  0  0  0  0  0  0  0  0  0  0  0
    8.4149    0.8418   -0.9675 H   0  0  0  0  0  0  0  0  0  0  0  0
    9.2129    1.4176   -3.8848 H   0  0  0  0  0  0  0  0  0  0  0  0
   10.2653    1.5805   -2.4749 H   0  0  0  0  0  0  0  0  0  0  0  0
   10.6359    4.0146   -2.6927 H   0  0  0  0  0  0  0  0  0  0  0  0
    9.7926    6.3174   -2.4179 H   0  0  0  0  0  0  0  0  0  0  0  0
    8.4885    8.1733   -3.0252 H   0  0  0  0  0  0  0  0  0  0  0  0
    8.6577    8.0072   -1.2582 H   0  0  0  0  0  0  0  0  0  0  0  0
    6.4399    9.1351   -0.9368 H   0  0  0  0  0  0  0  0  0  0  0  0
    6.2534    9.2785   -2.6889 H   0  0  0  0  0  0  0  0  0  0  0  0
    8.2559   10.7842   -2.7994 H   0  0  0  0  0  0  0  0  0  0  0  0
    8.5578   10.5496   -1.0805 H   0  0  0  0  0  0  0  0  0  0  0  0
    6.0437   11.8317   -2.2927 H   0  0  0  0  0  0  0  0  0  0  0  0
    7.4303   12.7336   -1.6764 H   0  0  0  0  0  0  0  0  0  0  0  0
    8.0668   11.7468    0.7611 H   0  0  0  0  0  0  0  0  0  0  0  0
    6.6519   11.6234    1.8190 H   0  0  0  0  0  0  0  0  0  0  0  0
    7.5774   14.1192    0.2708 H   0  0  0  0  0  0  0  0  0  0  0  0
    7.6313   13.9073    2.0247 H   0  0  0  0  0  0  0  0  0  0  0  0
    6.2232   13.1771    3.6296 H   0  0  0  0  0  0  0  0  0  0  0  0
    5.3470   13.9764    5.7899 H   0  0  0  0  0  0  0  0  0  0  0  0
    3.7137   15.8787    5.8648 H   0  0  0  0  0  0  0  0  0  0  0  0
    5.2335   14.3262   -0.8415 H   0  0  0  0  0  0  0  0  0  0  0  0
    3.8436   14.1825    0.2441 H   0  0  0  0  0  0  0  0  0  0  0  0
    4.2782   12.0289   -0.9937 H   0  0  0  0  0  0  0  0  0  0  0  0
    4.3723   11.8464    0.7696 H   0  0  0  0  0  0  0  0  0  0  0  0
    5.7788    4.7922   -2.1179 H   0  0  0  0  0  0  0  0  0  0  0  0
  1  2  1  0
  1 38  1  0
  1 39  1  0
  1 40  1  0
  2  3  1  0
  2  4  1  0
  2 41  1  1
  3 42  1  0
  3 43  1  0
  4  5  2  0
  4  6  1  0
  6  7  1  0
  7  8  1  0
  7 44  1  0
  7 45  1  0
  8  9  1  0
  8 37  1  0
  9 10  2  0
  9 11  1  0
 11 12  1  0
 11 46  1  0
 11 47  1  0
 12 13  1  0
 12 48  1  0
 12 49  1  0
 13 14  1  0
 13 37  2  0
 14 15  2  0
 14 50  1  0
 15 16  1  0
 15 51  1  0
 16 17  1  0
 16 36  2  0
 17 18  1  0
 18 19  1  0
 18 52  1  0
 18 53  1  0
 19 20  1  0
 19 54  1  0
 19 55  1  0
 20 21  1  0
 20 56  1  0
 20 57  1  0
 21 22  1  0
 21 58  1  0
 21 59  1  0
 22 23  1  0
 22 35  1  0
 23 24  1  0
 23 60  1  0
 23 61  1  0
 24 25  1  0
 24 62  1  0
 24 63  1  0
 25 26  1  0
 25 34  1  0
 26 27  2  0
 26 32  1  0
 27 28  1  0
 27 64  1  0
 28 29  2  0
 28 65  1  0
 29 30  1  0
 29 66  1  0
 30 31  1  0
 30 32  2  0
 32 33  1  0
 34 35  1  0
 34 67  1  0
 34 68  1  0
 35 69  1  0
 35 70  1  0
 36 37  1  0
 36 71  1  0
M  END

