
     RDKit          3D

 66 73  0  0  0  0  0  0  0  0999 V2000
    0.5037    1.6653    0.7080 C   0  0  0  0  0  0  0  0  0  0  0  0
    1.9770    1.3480    0.6221 C   0  0  0  0  0  0  0  0  0  0  0  0
    2.7356    1.0887    1.7683 C   0  0  0  0  0  0  0  0  0  0  0  0
    4.1059    0.7951    1.7044 C   0  0  0  0  0  0  0  0  0  0  0  0
    4.8804    0.5208    2.9724 C   0  0  0  0  0  0  0  0  0  0  0  0
    4.7342    0.7598    0.4406 C   0  0  0  0  0  0  0  0  0  0  0  0
    6.1955    0.4481    0.3438 C   0  0  0  0  0  0  0  0  0  0  0  0
    6.6190   -0.8771    0.1643 C   0  0  0  0  0  0  0  0  0  0  0  0
    5.8445   -2.0659    0.1136 C   0  0  0  0  0  0  0  0  0  0  0  0
    6.7336   -3.1206    0.0020 C   0  0  0  0  0  0  0  0  0  0  0  0
    8.0501   -2.5743   -0.0276 C   0  0  0  0  0  0  0  0  0  0  0  0
    9.2796   -3.3601   -0.1551 C   0  0  0  0  0  0  0  0  0  0  0  0
   10.3533   -3.0240   -0.9453 C   0  0  0  0  0  0  0  0  0  0  0  0
   11.6071   -4.2152   -0.9767 S   0  0  0  0  0  0  0  0  0  0  0  0
   10.7136   -5.2460    0.1222 C   0  0  0  0  0  0  0  0  0  0  0  0
   11.1274   -6.4855    0.6277 C   0  0  0  0  0  0  0  0  0  0  0  0
   10.2951   -7.1483    1.5247 C   0  0  0  0  0  0  0  0  0  0  0  0
    9.0737   -6.5724    1.9226 C   0  0  0  0  0  0  0  0  0  0  0  0
    8.6656   -5.3416    1.4192 C   0  0  0  0  0  0  0  0  0  0  0  0
    9.4754   -4.6562    0.4891 C   0  0  0  0  0  0  0  0  0  0  0  0
    7.9657   -1.2187    0.0590 N   0  0  0  0  0  0  0  0  0  0  0  0
    9.1424   -0.1791    0.1438 B   0  0  1  0  0  0  0  0  0  0  0  0
    9.9472   -0.5276    1.2244 F   0  0  0  0  0  0  0  0  0  0  0  0
    9.8653   -0.1560   -1.0455 F   0  0  0  0  0  0  0  0  0  0  0  0
    8.5106    1.2449    0.3560 N   0  0  0  0  0  0  0  0  0  0  0  0
    7.1397    1.4817    0.4324 C   0  0  0  0  0  0  0  0  0  0  0  0
    6.9272    2.8806    0.5491 C   0  0  0  0  0  0  0  0  0  0  0  0
    8.1738    3.4808    0.5176 C   0  0  0  0  0  0  0  0  0  0  0  0
    9.1477    2.4471    0.3938 C   0  0  0  0  0  0  0  0  0  0  0  0
   10.5954    2.6634    0.3413 C   0  0  0  0  0  0  0  0  0  0  0  0
   11.5325    1.9004    0.9970 C   0  0  0  0  0  0  0  0  0  0  0  0
   13.1541    2.4800    0.8344 S   0  0  0  0  0  0  0  0  0  0  0  0
   12.6220    3.8127   -0.1700 C   0  0  0  0  0  0  0  0  0  0  0  0
   13.4341    4.7908   -0.7591 C   0  0  0  0  0  0  0  0  0  0  0  0
   12.8344    5.7573   -1.5609 C   0  0  0  0  0  0  0  0  0  0  0  0
   11.4444    5.7366   -1.7830 C   0  0  0  0  0  0  0  0  0  0  0  0
   10.6407    4.7643   -1.1970 C   0  0  0  0  0  0  0  0  0  0  0  0
   11.2152    3.7854   -0.3590 C   0  0  0  0  0  0  0  0  0  0  0  0
    3.9910    1.0171   -0.7356 C   0  0  0  0  0  0  0  0  0  0  0  0
    4.6467    0.9855   -2.0964 C   0  0  0  0  0  0  0  0  0  0  0  0
    2.6265    1.3068   -0.6195 C   0  0  0  0  0  0  0  0  0  0  0  0
    0.1431    1.6403    1.7468 H   0  0  0  0  0  0  0  0  0  0  0  0
   -0.0952    0.9457    0.1252 H   0  0  0  0  0  0  0  0  0  0  0  0
    0.2861    2.6666    0.3000 H   0  0  0  0  0  0  0  0  0  0  0  0
    2.2498    1.1141    2.7482 H   0  0  0  0  0  0  0  0  0  0  0  0
    4.2275    0.5801    3.8550 H   0  0  0  0  0  0  0  0  0  0  0  0
    5.7021    1.2420    3.1088 H   0  0  0  0  0  0  0  0  0  0  0  0
    5.3407   -0.4801    2.9567 H   0  0  0  0  0  0  0  0  0  0  0  0
    4.7583   -2.1067    0.1568 H   0  0  0  0  0  0  0  0  0  0  0  0
    6.4964   -4.1769   -0.0928 H   0  0  0  0  0  0  0  0  0  0  0  0
   10.4625   -2.1093   -1.5230 H   0  0  0  0  0  0  0  0  0  0  0  0
   12.0852   -6.9175    0.3285 H   0  0  0  0  0  0  0  0  0  0  0  0
   10.5986   -8.1163    1.9309 H   0  0  0  0  0  0  0  0  0  0  0  0
    8.4408   -7.0956    2.6435 H   0  0  0  0  0  0  0  0  0  0  0  0
    7.7278   -4.8988    1.7580 H   0  0  0  0  0  0  0  0  0  0  0  0
    5.9550    3.3595    0.6441 H   0  0  0  0  0  0  0  0  0  0  0  0
    8.3995    4.5395    0.6141 H   0  0  0  0  0  0  0  0  0  0  0  0
   11.3350    1.0051    1.5814 H   0  0  0  0  0  0  0  0  0  0  0  0
   14.5145    4.7894   -0.5970 H   0  0  0  0  0  0  0  0  0  0  0  0
   13.4493    6.5295   -2.0297 H   0  0  0  0  0  0  0  0  0  0  0  0
   10.9910    6.4902   -2.4316 H   0  0  0  0  0  0  0  0  0  0  0  0
    9.5690    4.7489   -1.4005 H   0  0  0  0  0  0  0  0  0  0  0  0
    5.0794   -0.0041   -2.3141 H   0  0  0  0  0  0  0  0  0  0  0  0
    5.4733    1.7108   -2.1639 H   0  0  0  0  0  0  0  0  0  0  0  0
    3.9228    1.2211   -2.8896 H   0  0  0  0  0  0  0  0  0  0  0  0
    2.0533    1.5067   -1.5301 H   0  0  0  0  0  0  0  0  0  0  0  0
  1  2  1  0
  1 42  1  0
  1 43  1  0
  1 44  1  0
  2  3  2  0
  2 41  1  0
  3  4  1  0
  3 45  1  0
  4  5  1  0
  4  6  2  0
  5 46  1  0
  5 47  1  0
  5 48  1  0
  6  7  1  0
  6 39  1  0
  7  8  2  0
  7 26  1  0
  8  9  1  0
  8 21  1  0
  9 10  2  0
  9 49  1  0
 10 11  1  0
 10 50  1  0
 11 12  2  0
 11 21  1  0
 12 13  1  0
 12 20  1  0
 13 14  2  0
 13 51  1  0
 14 15  1  0
 15 16  1  0
 15 20  2  0
 16 17  2  0
 16 52  1  0
 17 18  1  0
 17 53  1  0
 18 19  2  0
 18 54  1  0
 19 20  1  0
 19 55  1  0
 21 22  1  0
 22 23  1  1
 22 24  1  0
 22 25  1  0
 25 26  1  0
 25 29  1  0
 26 27  2  0
 27 28  1  0
 27 56  1  0
 28 29  2  0
 28 57  1  0
 29 30  1  0
 30 31  2  0
 30 38  1  0
 31 32  1  0
 31 58  1  0
 32 33  1  0
 33 34  1  0
 33 38  2  0
 34 35  2  0
 34 59  1  0
 35 36  1  0
 35 60  1  0
 36 37  2  0
 36 61  1  0
 37 38  1  0
 37 62  1  0
 39 40  1  0
 39 41  2  0
 40 63  1  0
 40 64  1  0
 40 65  1  0
 41 66  1  0
M  CHG  2  14   1  22  -1
M  END

