
     RDKit          3D

 54 57  0  0  0  0  0  0  0  0999 V2000
    2.1000   -1.1449    0.4434 O   0  0  0  0  0  0  0  0  0  0  0  0
    2.4693    0.0179    0.1705 C   0  0  0  0  0  0  0  0  0  0  0  0
    2.7895    0.3586   -1.2048 C   0  0  0  0  0  0  0  0  0  0  0  0
    2.8006   -0.6449   -2.1425 C   0  0  0  0  0  0  0  0  0  0  0  0
    2.5017   -1.9045   -1.9681 O   0  0  0  0  0  0  0  0  0  0  0  0
    3.2539   -0.1085   -3.4733 C   0  0  0  0  0  0  0  0  0  0  0  0
    3.3930   -0.7168   -4.5146 O   0  0  0  0  0  0  0  0  0  0  0  0
    3.4805    1.2279   -3.2482 N   0  0  0  0  0  0  0  0  0  0  0  0
    3.9020    2.1341   -4.2997 C   0  0  0  0  0  0  0  0  0  0  0  0
    5.3651    2.5824   -4.1947 C   0  0  0  0  0  0  0  0  0  0  0  0
    5.7067    3.6866   -5.2061 C   0  0  0  0  0  0  0  0  0  0  0  0
    4.9266    4.9028   -4.9912 N   0  0  0  0  0  0  0  0  0  0  0  0
    5.3890    5.7756   -3.9113 C   0  0  0  0  0  0  0  0  0  0  0  0
    6.4791    6.7495   -4.3721 C   0  0  0  0  0  0  0  0  0  0  0  0
    6.0540    7.4966   -5.4972 O   0  0  0  0  0  0  0  0  0  0  0  0
    5.6963    6.6608   -6.5830 C   0  0  0  0  0  0  0  0  0  0  0  0
    4.5846    5.6907   -6.1728 C   0  0  0  0  0  0  0  0  0  0  0  0
    3.1925    1.6618   -1.8717 C   0  0  1  0  0  0  0  0  0  0  0  0
    4.1131    2.0604   -1.4110 H   0  0  0  0  0  0  0  0  0  0  0  0
    2.1461    2.7771   -1.8562 C   0  0  0  0  0  0  0  0  0  0  0  0
    0.7994    2.5133   -2.1530 C   0  0  0  0  0  0  0  0  0  0  0  0
   -0.1169    3.5641   -2.2071 C   0  0  0  0  0  0  0  0  0  0  0  0
    0.2896    4.8824   -1.9762 C   0  0  0  0  0  0  0  0  0  0  0  0
    1.6331    5.1487   -1.6856 C   0  0  0  0  0  0  0  0  0  0  0  0
    2.1082    6.4044   -1.4652 O   0  0  0  0  0  0  0  0  0  0  0  0
    2.5524    4.0920   -1.6207 C   0  0  0  0  0  0  0  0  0  0  0  0
    2.5913    0.9741    1.2726 C   0  0  0  0  0  0  0  0  0  0  0  0
    2.2752    0.8352    2.6050 C   0  0  0  0  0  0  0  0  0  0  0  0
    2.6090    2.0725    3.2275 C   0  0  0  0  0  0  0  0  0  0  0  0
    3.1078    2.8723    2.2314 C   0  0  0  0  0  0  0  0  0  0  0  0
    3.1034    2.2202    1.0513 O   0  0  0  0  0  0  0  0  0  0  0  0
    2.2438   -1.9635   -0.9981 H   0  0  0  0  0  0  0  0  0  0  0  0
    3.2564    3.0261   -4.2956 H   0  0  0  0  0  0  0  0  0  0  0  0
    3.7406    1.5996   -5.2483 H   0  0  0  0  0  0  0  0  0  0  0  0
    6.0349    1.7215   -4.3589 H   0  0  0  0  0  0  0  0  0  0  0  0
    5.5733    2.9433   -3.1724 H   0  0  0  0  0  0  0  0  0  0  0  0
    5.4780    3.3164   -6.2195 H   0  0  0  0  0  0  0  0  0  0  0  0
    6.8043    3.8584   -5.1887 H   0  0  0  0  0  0  0  0  0  0  0  0
    5.7571    5.1669   -3.0701 H   0  0  0  0  0  0  0  0  0  0  0  0
    4.5288    6.3567   -3.5321 H   0  0  0  0  0  0  0  0  0  0  0  0
    7.4119    6.1965   -4.6145 H   0  0  0  0  0  0  0  0  0  0  0  0
    6.7178    7.4743   -3.5775 H   0  0  0  0  0  0  0  0  0  0  0  0
    6.5849    6.0986   -6.9428 H   0  0  0  0  0  0  0  0  0  0  0  0
    5.3630    7.3213   -7.3995 H   0  0  0  0  0  0  0  0  0  0  0  0
    4.3294    5.0167   -7.0065 H   0  0  0  0  0  0  0  0  0  0  0  0
    3.6809    6.2854   -5.9428 H   0  0  0  0  0  0  0  0  0  0  0  0
    0.4706    1.4894   -2.3425 H   0  0  0  0  0  0  0  0  0  0  0  0
   -1.1663    3.3599   -2.4343 H   0  0  0  0  0  0  0  0  0  0  0  0
   -0.4341    5.7023   -2.0242 H   0  0  0  0  0  0  0  0  0  0  0  0
    1.3923    7.0449   -1.5706 H   0  0  0  0  0  0  0  0  0  0  0  0
    3.5941    4.3250   -1.3904 H   0  0  0  0  0  0  0  0  0  0  0  0
    1.8534   -0.0588    3.0569 H   0  0  0  0  0  0  0  0  0  0  0  0
    2.4962    2.3405    4.2757 H   0  0  0  0  0  0  0  0  0  0  0  0
    3.4880    3.8908    2.2155 H   0  0  0  0  0  0  0  0  0  0  0  0
  1  2  2  0
  2  3  1  0
  2 27  1  0
  3  4  2  0
  3 18  1  0
  4  5  1  0
  4  6  1  0
  5 32  1  0
  6  7  2  0
  6  8  1  0
  8  9  1  0
  8 18  1  0
  9 10  1  0
  9 33  1  0
  9 34  1  0
 10 11  1  0
 10 35  1  0
 10 36  1  0
 11 12  1  0
 11 37  1  0
 11 38  1  0
 12 13  1  0
 12 17  1  0
 13 14  1  0
 13 39  1  0
 13 40  1  0
 14 15  1  0
 14 41  1  0
 14 42  1  0
 15 16  1  0
 16 17  1  0
 16 43  1  0
 16 44  1  0
 17 45  1  0
 17 46  1  0
 18 19  1  1
 18 20  1  0
 20 21  2  0
 20 26  1  0
 21 22  1  0
 21 47  1  0
 22 23  2  0
 22 48  1  0
 23 24  1  0
 23 49  1  0
 24 25  1  0
 24 26  2  0
 25 50  1  0
 26 51  1  0
 27 28  2  0
 27 31  1  0
 28 29  1  0
 28 52  1  0
 29 30  2  0
 29 53  1  0
 30 31  1  0
 30 54  1  0
M  END

