
     RDKit          3D

 54 58  0  0  0  0  0  0  0  0999 V2000
    3.1459    2.1390    0.1063 C   0  0  0  0  0  0  0  0  0  0  0  0
    2.7450    0.8688   -0.3588 O   0  0  0  0  0  0  0  0  0  0  0  0
    3.1797    0.4326   -1.5646 C   0  0  0  0  0  0  0  0  0  0  0  0
    2.7369   -0.8435   -1.9593 C   0  0  0  0  0  0  0  0  0  0  0  0
    3.1288   -1.3747   -3.1801 C   0  0  0  0  0  0  0  0  0  0  0  0
    3.9765   -0.6571   -4.0485 C   0  0  0  0  0  0  0  0  0  0  0  0
    4.4100   -1.1905   -5.3467 C   0  0  0  0  0  0  0  0  0  0  0  0
    5.1427   -0.5325   -6.2019 N   0  0  0  0  0  0  0  0  0  0  0  0
    5.4722   -1.2559   -7.3218 C   0  0  0  0  0  0  0  0  0  0  0  0
    6.3220   -0.6097   -8.3490 C   0  0  0  0  0  0  0  0  0  0  0  0
    7.0739   -1.3416   -9.2878 C   0  0  0  0  0  0  0  0  0  0  0  0
    7.8788   -0.6875  -10.2223 C   0  0  0  0  0  0  0  0  0  0  0  0
    7.9481    0.7084  -10.2440 C   0  0  0  0  0  0  0  0  0  0  0  0
    7.2102    1.4466   -9.3132 C   0  0  0  0  0  0  0  0  0  0  0  0
    6.4103    0.7962   -8.3736 C   0  0  0  0  0  0  0  0  0  0  0  0
    4.9402   -2.5387   -7.3471 C   0  0  0  0  0  0  0  0  0  0  0  0
    4.9727   -3.5082   -8.3571 N   0  0  0  0  0  0  0  0  0  0  0  0
    5.5430   -4.7798   -8.0632 C   0  0  0  0  0  0  0  0  0  0  0  0
    4.9518   -5.9704   -8.5241 C   0  0  0  0  0  0  0  0  0  0  0  0
    5.5209   -7.2054   -8.2095 C   0  0  0  0  0  0  0  0  0  0  0  0
    6.6734   -7.2813   -7.4210 C   0  0  0  0  0  0  0  0  0  0  0  0
    7.2546   -6.1004   -6.9498 C   0  0  0  0  0  0  0  0  0  0  0  0
    6.7013   -4.8594   -7.2690 C   0  0  0  0  0  0  0  0  0  0  0  0
    4.2696   -3.2677   -9.5731 C   0  0  0  0  0  0  0  0  0  0  0  0
    4.7579   -3.7754  -10.7911 C   0  0  0  0  0  0  0  0  0  0  0  0
    4.0761   -3.5258  -11.9824 C   0  0  0  0  0  0  0  0  0  0  0  0
    2.9094   -2.7545  -11.9880 C   0  0  0  0  0  0  0  0  0  0  0  0
    2.4293   -2.2384  -10.7813 C   0  0  0  0  0  0  0  0  0  0  0  0
    3.0966   -2.4941   -9.5815 C   0  0  0  0  0  0  0  0  0  0  0  0
    4.0076   -2.8181   -5.8735 S   0  0  0  0  0  0  0  0  0  0  0  0
    4.4129    0.6155   -3.6431 C   0  0  0  0  0  0  0  0  0  0  0  0
    4.0240    1.1612   -2.4198 C   0  0  0  0  0  0  0  0  0  0  0  0
    2.6767    2.2737    1.0900 H   0  0  0  0  0  0  0  0  0  0  0  0
    2.8072    2.9482   -0.5655 H   0  0  0  0  0  0  0  0  0  0  0  0
    4.2427    2.2073    0.2205 H   0  0  0  0  0  0  0  0  0  0  0  0
    2.0804   -1.3963   -1.2847 H   0  0  0  0  0  0  0  0  0  0  0  0
    2.7662   -2.3661   -3.4647 H   0  0  0  0  0  0  0  0  0  0  0  0
    7.0444   -2.4305   -9.2786 H   0  0  0  0  0  0  0  0  0  0  0  0
    8.4588   -1.2760  -10.9380 H   0  0  0  0  0  0  0  0  0  0  0  0
    8.5764    1.2177  -10.9793 H   0  0  0  0  0  0  0  0  0  0  0  0
    7.2590    2.5388   -9.3178 H   0  0  0  0  0  0  0  0  0  0  0  0
    5.8410    1.3673   -7.6395 H   0  0  0  0  0  0  0  0  0  0  0  0
    4.0432   -5.9262   -9.1263 H   0  0  0  0  0  0  0  0  0  0  0  0
    5.0468   -8.1200   -8.5757 H   0  0  0  0  0  0  0  0  0  0  0  0
    7.1116   -8.2510   -7.1736 H   0  0  0  0  0  0  0  0  0  0  0  0
    8.1558   -6.1409   -6.3324 H   0  0  0  0  0  0  0  0  0  0  0  0
    7.1645   -3.9414   -6.9025 H   0  0  0  0  0  0  0  0  0  0  0  0
    5.6751   -4.3668  -10.8015 H   0  0  0  0  0  0  0  0  0  0  0  0
    4.4719   -3.9276  -12.9189 H   0  0  0  0  0  0  0  0  0  0  0  0
    2.3827   -2.5549  -12.9241 H   0  0  0  0  0  0  0  0  0  0  0  0
    1.5183   -1.6345  -10.7671 H   0  0  0  0  0  0  0  0  0  0  0  0
    2.7074   -2.0942   -8.6442 H   0  0  0  0  0  0  0  0  0  0  0  0
    5.0719    1.1752   -4.3085 H   0  0  0  0  0  0  0  0  0  0  0  0
    4.3858    2.1512   -2.1416 H   0  0  0  0  0  0  0  0  0  0  0  0
  1  2  1  0
  1 33  1  0
  1 34  1  0
  1 35  1  0
  2  3  1  0
  3  4  2  0
  3 32  1  0
  4  5  1  0
  4 36  1  0
  5  6  2  0
  5 37  1  0
  6  7  1  0
  6 31  1  0
  7  8  2  0
  7 30  1  0
  8  9  1  0
  9 10  1  0
  9 16  2  0
 10 11  2  0
 10 15  1  0
 11 12  1  0
 11 38  1  0
 12 13  2  0
 12 39  1  0
 13 14  1  0
 13 40  1  0
 14 15  2  0
 14 41  1  0
 15 42  1  0
 16 17  1  0
 16 30  1  0
 17 18  1  0
 17 24  1  0
 18 19  2  0
 18 23  1  0
 19 20  1  0
 19 43  1  0
 20 21  2  0
 20 44  1  0
 21 22  1  0
 21 45  1  0
 22 23  2  0
 22 46  1  0
 23 47  1  0
 24 25  2  0
 24 29  1  0
 25 26  1  0
 25 48  1  0
 26 27  2  0
 26 49  1  0
 27 28  1  0
 27 50  1  0
 28 29  2  0
 28 51  1  0
 29 52  1  0
 31 32  2  0
 31 53  1  0
 32 54  1  0
M  END

