
     RDKit          3D

 78 80  0  0  0  0  0  0  0  0999 V2000
    9.6835   -0.4061   -6.4695 C   0  0  0  0  0  0  0  0  0  0  0  0
    9.8670   -0.6808   -4.9762 C   0  0  0  0  0  0  0  0  0  0  0  0
   10.3191    0.5457   -4.1775 C   0  0  0  0  0  0  0  0  0  0  0  0
   10.5054    0.2794   -2.6809 C   0  0  0  0  0  0  0  0  0  0  0  0
   10.9585    1.5058   -1.8832 C   0  0  0  0  0  0  0  0  0  0  0  0
   11.1451    1.2390   -0.3867 C   0  0  0  0  0  0  0  0  0  0  0  0
   11.6007    2.4653    0.4095 C   0  0  0  0  0  0  0  0  0  0  0  0
   11.7880    2.1989    1.9060 C   0  0  0  0  0  0  0  0  0  0  0  0
   12.2471    3.4289    2.6935 C   0  0  0  0  0  0  0  0  0  0  0  0
   12.4310    3.1511    4.1834 C   0  0  0  0  0  0  0  0  0  0  0  0
   12.8907    4.3587    4.9737 C   0  0  0  0  0  0  0  0  0  0  0  0
   13.1038    5.4512    4.5172 O   0  0  0  0  0  0  0  0  0  0  0  0
   13.0270    4.0177    6.2839 O   0  0  0  0  0  0  0  0  0  0  0  0
   13.4304    4.8474    7.3182 C   0  0  0  0  0  0  0  0  0  0  0  0
   13.7830    6.1984    7.1965 C   0  0  0  0  0  0  0  0  0  0  0  0
   14.1711    6.8975    8.3414 C   0  0  0  0  0  0  0  0  0  0  0  0
   14.2154    6.2817    9.6020 C   0  0  0  0  0  0  0  0  0  0  0  0
   14.6323    7.0449   10.8063 C   0  0  0  0  0  0  0  0  0  0  0  0
   14.9626    8.3379   10.6452 N   0  0  0  0  0  0  0  0  0  0  0  0
   15.3388    9.0035   11.7303 C   0  0  0  0  0  0  0  0  0  0  0  0
   15.4072    8.4291   13.0065 C   0  0  0  0  0  0  0  0  0  0  0  0
   15.0341    7.0738   13.0710 C   0  0  0  0  0  0  0  0  0  0  0  0
   14.6535    6.4022   11.9806 N   0  0  0  0  0  0  0  0  0  0  0  0
   15.0163    6.3328   14.3877 C   0  0  0  0  0  0  0  0  0  0  0  0
   15.7920    7.0497   15.4961 C   0  0  0  0  0  0  0  0  0  0  0  0
   15.4598    8.5501   15.5533 C   0  0  1  0  0  0  0  0  0  0  0  0
   16.1069    9.2286   16.7710 C   0  0  0  0  0  0  0  0  0  0  0  0
   15.7276   10.6972   16.9909 C   0  0  0  0  0  0  0  0  0  0  0  0
   16.3191   11.2939   18.2719 C   0  0  0  0  0  0  0  0  0  0  0  0
   15.9518   12.7635   18.4999 C   0  0  0  0  0  0  0  0  0  0  0  0
   16.5447   13.3509   19.7815 C   0  0  0  0  0  0  0  0  0  0  0  0
   15.8640    9.2058   14.2207 C   0  0  0  0  0  0  0  0  0  0  0  0
   13.8564    4.9251    9.6993 C   0  0  0  0  0  0  0  0  0  0  0  0
   13.4680    4.2149    8.5693 C   0  0  0  0  0  0  0  0  0  0  0  0
    9.3586   -1.3088   -7.0115 H   0  0  0  0  0  0  0  0  0  0  0  0
   10.6234   -0.0608   -6.9323 H   0  0  0  0  0  0  0  0  0  0  0  0
    8.9258    0.3766   -6.6432 H   0  0  0  0  0  0  0  0  0  0  0  0
   10.6026   -1.4943   -4.8384 H   0  0  0  0  0  0  0  0  0  0  0  0
    8.9196   -1.0606   -4.5518 H   0  0  0  0  0  0  0  0  0  0  0  0
    9.5835    1.3606   -4.3145 H   0  0  0  0  0  0  0  0  0  0  0  0
   11.2673    0.9266   -4.6013 H   0  0  0  0  0  0  0  0  0  0  0  0
   11.2403   -0.5359   -2.5445 H   0  0  0  0  0  0  0  0  0  0  0  0
    9.5569   -0.1008   -2.2575 H   0  0  0  0  0  0  0  0  0  0  0  0
   10.2239    2.3213   -2.0191 H   0  0  0  0  0  0  0  0  0  0  0  0
   11.9069    1.8861   -2.3064 H   0  0  0  0  0  0  0  0  0  0  0  0
   11.8789    0.4226   -0.2506 H   0  0  0  0  0  0  0  0  0  0  0  0
   10.1963    0.8603    0.0374 H   0  0  0  0  0  0  0  0  0  0  0  0
   10.8675    3.2820    0.2746 H   0  0  0  0  0  0  0  0  0  0  0  0
   12.5495    2.8441   -0.0137 H   0  0  0  0  0  0  0  0  0  0  0  0
   12.5200    1.3809    2.0420 H   0  0  0  0  0  0  0  0  0  0  0  0
   10.8387    1.8226    2.3313 H   0  0  0  0  0  0  0  0  0  0  0  0
   11.5211    4.2498    2.5660 H   0  0  0  0  0  0  0  0  0  0  0  0
   13.1954    3.8093    2.2774 H   0  0  0  0  0  0  0  0  0  0  0  0
   13.1647    2.3438    4.3564 H   0  0  0  0  0  0  0  0  0  0  0  0
   11.4956    2.7891    4.6458 H   0  0  0  0  0  0  0  0  0  0  0  0
   13.7533    6.6886    6.2279 H   0  0  0  0  0  0  0  0  0  0  0  0
   14.4493    7.9496    8.2671 H   0  0  0  0  0  0  0  0  0  0  0  0
   15.6018   10.0613   11.5917 H   0  0  0  0  0  0  0  0  0  0  0  0
   15.3924    5.3117   14.2172 H   0  0  0  0  0  0  0  0  0  0  0  0
   13.9575    6.2117   14.6832 H   0  0  0  0  0  0  0  0  0  0  0  0
   16.8788    6.9316   15.3294 H   0  0  0  0  0  0  0  0  0  0  0  0
   15.5764    6.5752   16.4673 H   0  0  0  0  0  0  0  0  0  0  0  0
   14.3610    8.6450   15.6570 H   0  0  0  0  0  0  0  0  0  0  0  0
   17.2069    9.1421   16.6872 H   0  0  0  0  0  0  0  0  0  0  0  0
   15.8308    8.6537   17.6734 H   0  0  0  0  0  0  0  0  0  0  0  0
   14.6256   10.7880   17.0217 H   0  0  0  0  0  0  0  0  0  0  0  0
   16.0556   11.3070   16.1302 H   0  0  0  0  0  0  0  0  0  0  0  0
   17.4204   11.1935   18.2463 H   0  0  0  0  0  0  0  0  0  0  0  0
   15.9860   10.6960   19.1410 H   0  0  0  0  0  0  0  0  0  0  0  0
   14.8512   12.8626   18.5232 H   0  0  0  0  0  0  0  0  0  0  0  0
   16.2867   13.3599   17.6315 H   0  0  0  0  0  0  0  0  0  0  0  0
   16.1984   12.8006   20.6725 H   0  0  0  0  0  0  0  0  0  0  0  0
   16.2606   14.4072   19.9125 H   0  0  0  0  0  0  0  0  0  0  0  0
   17.6466   13.3015   19.7731 H   0  0  0  0  0  0  0  0  0  0  0  0
   16.9677    9.2970   14.1944 H   0  0  0  0  0  0  0  0  0  0  0  0
   15.4789   10.2366   14.1567 H   0  0  0  0  0  0  0  0  0  0  0  0
   13.8889    4.4425   10.6767 H   0  0  0  0  0  0  0  0  0  0  0  0
   13.1872    3.1616    8.6306 H   0  0  0  0  0  0  0  0  0  0  0  0
  1  2  1  0
  1 35  1  0
  1 36  1  0
  1 37  1  0
  2  3  1  0
  2 38  1  0
  2 39  1  0
  3  4  1  0
  3 40  1  0
  3 41  1  0
  4  5  1  0
  4 42  1  0
  4 43  1  0
  5  6  1  0
  5 44  1  0
  5 45  1  0
  6  7  1  0
  6 46  1  0
  6 47  1  0
  7  8  1  0
  7 48  1  0
  7 49  1  0
  8  9  1  0
  8 50  1  0
  8 51  1  0
  9 10  1  0
  9 52  1  0
  9 53  1  0
 10 11  1  0
 10 54  1  0
 10 55  1  0
 11 12  2  0
 11 13  1  0
 13 14  1  0
 14 15  2  0
 14 34  1  0
 15 16  1  0
 15 56  1  0
 16 17  2  0
 16 57  1  0
 17 18  1  0
 17 33  1  0
 18 19  2  0
 18 23  1  0
 19 20  1  0
 20 21  2  0
 20 58  1  0
 21 22  1  0
 21 32  1  0
 22 23  2  0
 22 24  1  0
 24 25  1  0
 24 59  1  0
 24 60  1  0
 25 26  1  0
 25 61  1  0
 25 62  1  0
 26 27  1  0
 26 32  1  0
 26 63  1  1
 27 28  1  0
 27 64  1  0
 27 65  1  0
 28 29  1  0
 28 66  1  0
 28 67  1  0
 29 30  1  0
 29 68  1  0
 29 69  1  0
 30 31  1  0
 30 70  1  0
 30 71  1  0
 31 72  1  0
 31 73  1  0
 31 74  1  0
 32 75  1  0
 32 76  1  0
 33 34  2  0
 33 77  1  0
 34 78  1  0
M  END

