
     RDKit          3D

 34 35  0  0  0  0  0  0  0  0999 V2000
    0.3345    1.0323   -3.8309 C   0  0  0  0  0  0  0  0  0  0  0  0
    1.5595    1.9582   -3.8053 C   0  0  1  0  0  0  0  0  0  0  0  0
    2.5212    1.5745   -2.7738 N   0  0  0  0  0  0  0  0  0  0  0  0
    2.5428    2.2683   -1.2659 S   0  0  1  0  0  0  0  0  0  0  0  0
    1.1457    2.4564   -0.8708 O   0  0  0  0  0  0  0  0  0  0  0  0
    3.4992    1.4839   -0.4892 O   0  0  0  0  0  0  0  0  0  0  0  0
    3.2468    3.9176   -1.4606 C   0  0  0  0  0  0  0  0  0  0  0  0
    2.4021    5.0261   -1.5418 C   0  0  0  0  0  0  0  0  0  0  0  0
    2.9604    6.2976   -1.7100 C   0  0  0  0  0  0  0  0  0  0  0  0
    4.3523    6.4741   -1.7874 C   0  0  0  0  0  0  0  0  0  0  0  0
    4.9527    7.8529   -1.9218 C   0  0  0  0  0  0  0  0  0  0  0  0
    5.3769    8.5281   -0.6044 C   0  0  0  0  0  0  0  0  0  0  0  0
    6.2410    9.3572   -0.5557 O   0  0  0  0  0  0  0  0  0  0  0  0
    4.6877    8.1719    0.4966 O   0  0  0  0  0  0  0  0  0  0  0  0
    5.1804    5.3402   -1.6842 C   0  0  0  0  0  0  0  0  0  0  0  0
    4.6379    4.0677   -1.5188 C   0  0  0  0  0  0  0  0  0  0  0  0
    2.2580    1.9985   -5.1373 C   0  0  0  0  0  0  0  0  0  0  0  0
    1.6544    2.3755   -6.2951 N   0  0  0  0  0  0  0  0  0  0  0  0
    2.5487    2.2684   -7.2340 N   0  0  0  0  0  0  0  0  0  0  0  0
    3.6461    1.8359   -6.6394 N   0  0  0  0  0  0  0  0  0  0  0  0
    4.5086    1.6616   -7.1487 H   0  0  0  0  0  0  0  0  0  0  0  0
    3.5242    1.6504   -5.3344 N   0  0  0  0  0  0  0  0  0  0  0  0
   -0.1615    1.0724   -2.8515 H   0  0  0  0  0  0  0  0  0  0  0  0
    0.6423   -0.0056   -4.0301 H   0  0  0  0  0  0  0  0  0  0  0  0
   -0.3705    1.3514   -4.6129 H   0  0  0  0  0  0  0  0  0  0  0  0
    1.2028    2.9837   -3.6020 H   0  0  0  0  0  0  0  0  0  0  0  0
    3.4119    1.1829   -3.0720 H   0  0  0  0  0  0  0  0  0  0  0  0
    1.3225    4.8897   -1.4595 H   0  0  0  0  0  0  0  0  0  0  0  0
    2.2987    7.1653   -1.7898 H   0  0  0  0  0  0  0  0  0  0  0  0
    4.2311    8.5399   -2.3959 H   0  0  0  0  0  0  0  0  0  0  0  0
    5.8468    7.8474   -2.5605 H   0  0  0  0  0  0  0  0  0  0  0  0
    4.0645    7.4562    0.2938 H   0  0  0  0  0  0  0  0  0  0  0  0
    6.2663    5.4607   -1.7272 H   0  0  0  0  0  0  0  0  0  0  0  0
    5.2835    3.1932   -1.4166 H   0  0  0  0  0  0  0  0  0  0  0  0
  1  2  1  0
  1 23  1  0
  1 24  1  0
  1 25  1  0
  2  3  1  0
  2 17  1  0
  2 26  1  1
  4  3  1  6
  3 27  1  0
  4  5  2  0
  4  6  2  0
  4  7  1  0
  7  8  2  0
  7 16  1  0
  8  9  1  0
  8 28  1  0
  9 10  2  0
  9 29  1  0
 10 11  1  0
 10 15  1  0
 11 12  1  0
 11 30  1  0
 11 31  1  0
 12 13  2  0
 12 14  1  0
 14 32  1  0
 15 16  2  0
 15 33  1  0
 16 34  1  0
 17 18  1  0
 17 22  2  0
 18 19  2  0
 19 20  1  0
 20 21  1  0
 20 22  1  0
M  END

