
     RDKit          3D

 46 47  0  0  0  0  0  0  0  0999 V2000
    5.2703   -1.8626    1.9152 C   0  0  0  0  0  0  0  0  0  0  0  0
    5.1758   -0.6174    1.0337 C   0  0  0  0  0  0  0  0  0  0  0  0
    5.6021   -0.8838   -0.4019 C   0  0  0  0  0  0  0  0  0  0  0  0
    5.4802    0.3263   -1.1342 O   0  0  0  0  0  0  0  0  0  0  0  0
    5.7972    0.3620   -2.4482 C   0  0  0  0  0  0  0  0  0  0  0  0
    6.2603   -0.7413   -3.1890 C   0  0  0  0  0  0  0  0  0  0  0  0
    6.5595   -0.5958   -4.5423 C   0  0  0  0  0  0  0  0  0  0  0  0
    6.4132    0.6375   -5.2094 C   0  0  0  0  0  0  0  0  0  0  0  0
    6.7148    0.8338   -6.6222 C   0  0  0  0  0  0  0  0  0  0  0  0
    7.1705   -0.0835   -7.5174 C   0  0  0  0  0  0  0  0  0  0  0  0
    7.4379    0.2169   -8.8972 C   0  0  0  0  0  0  0  0  0  0  0  0
    7.8952   -0.6812   -9.8168 C   0  0  0  0  0  0  0  0  0  0  0  0
    8.1572   -0.3616  -11.1929 C   0  0  0  0  0  0  0  0  0  0  0  0
    8.6132   -1.2537  -12.1134 C   0  0  0  0  0  0  0  0  0  0  0  0
    8.8999   -1.0018  -13.5205 C   0  0  0  0  0  0  0  0  0  0  0  0
    8.7325    0.2624  -14.1365 C   0  0  0  0  0  0  0  0  0  0  0  0
    9.0191    0.4536  -15.4815 C   0  0  0  0  0  0  0  0  0  0  0  0
    9.4824   -0.6266  -16.2407 C   0  0  0  0  0  0  0  0  0  0  0  0
    9.7866   -0.4270  -17.6651 N   0  0  0  0  0  0  0  0  0  0  0  0
    9.6187    0.6912  -18.1299 O   0  0  0  0  0  0  0  0  0  0  0  0
   10.1890   -1.3910  -18.3001 O   0  0  0  0  0  0  0  0  0  0  0  0
    9.6615   -1.8897  -15.6729 C   0  0  0  0  0  0  0  0  0  0  0  0
    9.3705   -2.0663  -14.3247 C   0  0  0  0  0  0  0  0  0  0  0  0
    5.9463    1.7305   -4.4423 C   0  0  0  0  0  0  0  0  0  0  0  0
    5.6439    1.6024   -3.0943 C   0  0  0  0  0  0  0  0  0  0  0  0
    4.9563   -1.6406    2.9464 H   0  0  0  0  0  0  0  0  0  0  0  0
    6.3015   -2.2511    1.9602 H   0  0  0  0  0  0  0  0  0  0  0  0
    4.6253   -2.6751    1.5409 H   0  0  0  0  0  0  0  0  0  0  0  0
    5.8070    0.1911    1.4395 H   0  0  0  0  0  0  0  0  0  0  0  0
    4.1432   -0.2297    1.0236 H   0  0  0  0  0  0  0  0  0  0  0  0
    4.9670   -1.6682   -0.8567 H   0  0  0  0  0  0  0  0  0  0  0  0
    6.6483   -1.2443   -0.4360 H   0  0  0  0  0  0  0  0  0  0  0  0
    6.3903   -1.7159   -2.7186 H   0  0  0  0  0  0  0  0  0  0  0  0
    6.9168   -1.4710   -5.0895 H   0  0  0  0  0  0  0  0  0  0  0  0
    6.5482    1.8528   -6.9922 H   0  0  0  0  0  0  0  0  0  0  0  0
    7.3529   -1.1155   -7.1974 H   0  0  0  0  0  0  0  0  0  0  0  0
    7.2567    1.2492   -9.2228 H   0  0  0  0  0  0  0  0  0  0  0  0
    8.0785   -1.7149   -9.4988 H   0  0  0  0  0  0  0  0  0  0  0  0
    7.9682    0.6759  -11.4916 H   0  0  0  0  0  0  0  0  0  0  0  0
    8.7906   -2.2818  -11.7780 H   0  0  0  0  0  0  0  0  0  0  0  0
    8.3718    1.1107  -13.5521 H   0  0  0  0  0  0  0  0  0  0  0  0
    8.8928    1.4235  -15.9618 H   0  0  0  0  0  0  0  0  0  0  0  0
   10.0242   -2.7072  -16.2954 H   0  0  0  0  0  0  0  0  0  0  0  0
    9.5081   -3.0518  -13.8726 H   0  0  0  0  0  0  0  0  0  0  0  0
    5.8204    2.7032   -4.9262 H   0  0  0  0  0  0  0  0  0  0  0  0
    5.2840    2.4507   -2.5089 H   0  0  0  0  0  0  0  0  0  0  0  0
  1  2  1  0
  1 26  1  0
  1 27  1  0
  1 28  1  0
  2  3  1  0
  2 29  1  0
  2 30  1  0
  3  4  1  0
  3 31  1  0
  3 32  1  0
  4  5  1  0
  5  6  2  0
  5 25  1  0
  6  7  1  0
  6 33  1  0
  7  8  2  0
  7 34  1  0
  8  9  1  0
  8 24  1  0
  9 10  2  0
  9 35  1  0
 10 11  1  0
 10 36  1  0
 11 12  2  0
 11 37  1  0
 12 13  1  0
 12 38  1  0
 13 14  2  0
 13 39  1  0
 14 15  1  0
 14 40  1  0
 15 16  2  0
 15 23  1  0
 16 17  1  0
 16 41  1  0
 17 18  2  0
 17 42  1  0
 18 19  1  0
 18 22  1  0
 19 20  2  0
 19 21  1  0
 22 23  2  0
 22 43  1  0
 23 44  1  0
 24 25  2  0
 24 45  1  0
 25 46  1  0
M  CHG  2  19   1  21  -1
M  END

