
     RDKit          3D

 24 24  0  0  0  0  0  0  0  0999 V2000
    0.9162    0.0555    0.0919 C   0  0  0  0  0  0  0  0  0  0  0  0
    2.4454   -0.0399    0.0361 C   0  0  1  0  0  0  0  0  0  0  0  0
    2.9997   -0.8346    1.2233 C   0  0  0  0  0  0  0  0  0  0  0  0
    2.9269   -0.6315   -1.3086 C   0  0  1  0  0  0  0  0  0  0  0  0
    2.4982    0.2133   -2.4982 C   0  0  0  0  0  0  0  0  0  0  0  0
    1.7616   -0.2509   -3.5073 C   0  0  0  0  0  0  0  0  0  0  0  0
    1.3044    0.7127   -4.8849 Cl  0  0  0  0  0  0  0  0  0  0  0  0
    4.3465   -0.7040   -1.2908 O   0  0  0  0  0  0  0  0  0  0  0  0
    4.7062   -1.8381   -2.0582 C   0  0  0  0  0  0  0  0  0  0  0  0
    3.5778   -2.8225   -1.7371 C   0  0  0  0  0  0  0  0  0  0  0  0
    2.4697   -1.9745   -1.4605 O   0  0  0  0  0  0  0  0  0  0  0  0
    0.5946    0.4882    1.0521 H   0  0  0  0  0  0  0  0  0  0  0  0
    0.4650   -0.9453    0.0009 H   0  0  0  0  0  0  0  0  0  0  0  0
    0.5085    0.6835   -0.7145 H   0  0  0  0  0  0  0  0  0  0  0  0
    2.8669    0.9808    0.0745 H   0  0  0  0  0  0  0  0  0  0  0  0
    2.6105   -1.8653    1.2139 H   0  0  0  0  0  0  0  0  0  0  0  0
    2.6941   -0.3676    2.1727 H   0  0  0  0  0  0  0  0  0  0  0  0
    4.0972   -0.8778    1.1982 H   0  0  0  0  0  0  0  0  0  0  0  0
    2.8513    1.2487   -2.4958 H   0  0  0  0  0  0  0  0  0  0  0  0
    1.3777   -1.2720   -3.5344 H   0  0  0  0  0  0  0  0  0  0  0  0
    5.7008   -2.1802   -1.7382 H   0  0  0  0  0  0  0  0  0  0  0  0
    4.7369   -1.5975   -3.1376 H   0  0  0  0  0  0  0  0  0  0  0  0
    3.8121   -3.4366   -0.8489 H   0  0  0  0  0  0  0  0  0  0  0  0
    3.3355   -3.4934   -2.5772 H   0  0  0  0  0  0  0  0  0  0  0  0
  1  2  1  0
  1 12  1  0
  1 13  1  0
  1 14  1  0
  2  3  1  0
  2  4  1  0
  2 15  1  1
  3 16  1  0
  3 17  1  0
  3 18  1  0
  4  5  1  6
  4  8  1  0
  4 11  1  0
  5  6  2  0
  5 19  1  0
  6  7  1  0
  6 20  1  0
  8  9  1  0
  9 10  1  0
  9 21  1  0
  9 22  1  0
 10 11  1  0
 10 23  1  0
 10 24  1  0
M  END

