
     RDKit          3D

 50 53  0  0  0  0  0  0  0  0999 V2000
    1.3845    0.5329   -1.6678 N   0  0  0  0  0  0  0  0  0  0  0  0
    2.4739    0.5259   -1.2652 C   0  0  0  0  0  0  0  0  0  0  0  0
    3.8185    0.4312   -0.7856 C   0  0  0  0  0  0  0  0  0  0  0  0
    4.4043   -0.8070   -0.6471 C   0  0  0  0  0  0  0  0  0  0  0  0
    5.7540   -0.9607   -0.2193 C   0  0  0  0  0  0  0  0  0  0  0  0
    6.2576   -2.3757   -0.0876 C   0  0  0  0  0  0  0  0  0  0  0  0
    5.4730   -3.3101   -0.0552 O   0  0  0  0  0  0  0  0  0  0  0  0
    7.6151   -2.5333   -0.0138 N   0  0  0  0  0  0  0  0  0  0  0  0
    8.2414   -3.8195    0.1339 C   0  0  1  0  0  0  0  0  0  0  0  0
    9.3208   -4.2533   -0.8865 C   0  0  0  0  0  0  0  0  0  0  0  0
   10.2449   -4.5502    0.1680 O   0  0  0  0  0  0  0  0  0  0  0  0
    9.3875   -3.9731    1.1609 C   0  0  0  0  0  0  0  0  0  0  0  0
    6.4822    0.1723    0.0803 C   0  0  0  0  0  0  0  0  0  0  0  0
    5.8971    1.4500   -0.0492 C   0  0  0  0  0  0  0  0  0  0  0  0
    6.4395    2.6344    0.1758 N   0  0  0  0  0  0  0  0  0  0  0  0
    5.4698    3.5307   -0.1016 C   0  0  0  0  0  0  0  0  0  0  0  0
    5.7571    4.9979    0.0930 C   0  0  1  0  0  0  0  0  0  0  0  0
    7.0424    5.2745   -0.1150 F   0  0  0  0  0  0  0  0  0  0  0  0
    5.0304    5.7681   -0.7469 F   0  0  0  0  0  0  0  0  0  0  0  0
    5.4519    5.3987    1.3446 F   0  0  0  0  0  0  0  0  0  0  0  0
    4.2675    2.9329   -0.5001 C   0  0  0  0  0  0  0  0  0  0  0  0
    2.9352    3.5267   -0.8435 C   0  0  0  0  0  0  0  0  0  0  0  0
    1.8711    3.4609    0.2915 C   0  0  1  0  0  0  0  0  0  0  0  0
    2.1966    4.3732    1.4934 C   0  0  0  0  0  0  0  0  0  0  0  0
    1.9972    5.8662    1.1914 C   0  0  0  0  0  0  0  0  0  0  0  0
    0.6150    6.1364    0.6221 C   0  0  2  0  0  0  0  0  0  0  0  0
    0.5041    7.4576    0.2829 F   0  0  0  0  0  0  0  0  0  0  0  0
   -0.3214    5.9159    1.6095 F   0  0  0  0  0  0  0  0  0  0  0  0
    0.2692    5.2668   -0.5757 C   0  0  0  0  0  0  0  0  0  0  0  0
    0.4608    3.7800   -0.2470 C   0  0  0  0  0  0  0  0  0  0  0  0
    4.5534    1.5777   -0.4739 N   0  0  0  0  0  0  0  0  0  0  0  0
    3.8258   -1.7034   -0.8708 H   0  0  0  0  0  0  0  0  0  0  0  0
    8.2128   -1.7293   -0.1638 H   0  0  0  0  0  0  0  0  0  0  0  0
    7.4357   -4.5538    0.2557 H   0  0  0  0  0  0  0  0  0  0  0  0
    9.6714   -3.4315   -1.5423 H   0  0  0  0  0  0  0  0  0  0  0  0
    9.0903   -5.1323   -1.5126 H   0  0  0  0  0  0  0  0  0  0  0  0
    9.7712   -3.0079    1.5473 H   0  0  0  0  0  0  0  0  0  0  0  0
    9.2059   -4.6491    2.0139 H   0  0  0  0  0  0  0  0  0  0  0  0
    7.5108    0.1538    0.4433 H   0  0  0  0  0  0  0  0  0  0  0  0
    2.5300    3.0253   -1.7349 H   0  0  0  0  0  0  0  0  0  0  0  0
    3.1134    4.5671   -1.1413 H   0  0  0  0  0  0  0  0  0  0  0  0
    1.8481    2.4225    0.6605 H   0  0  0  0  0  0  0  0  0  0  0  0
    3.2242    4.2051    1.8504 H   0  0  0  0  0  0  0  0  0  0  0  0
    1.5287    4.0943    2.3247 H   0  0  0  0  0  0  0  0  0  0  0  0
    2.7378    6.2347    0.4655 H   0  0  0  0  0  0  0  0  0  0  0  0
    2.1160    6.4717    2.1032 H   0  0  0  0  0  0  0  0  0  0  0  0
    0.9086    5.5831   -1.4158 H   0  0  0  0  0  0  0  0  0  0  0  0
   -0.7720    5.4801   -0.8639 H   0  0  0  0  0  0  0  0  0  0  0  0
    0.2397    3.1590   -1.1292 H   0  0  0  0  0  0  0  0  0  0  0  0
   -0.2754    3.4990    0.5235 H   0  0  0  0  0  0  0  0  0  0  0  0
  1  2  3  0
  2  3  1  0
  3  4  2  0
  3 31  1  0
  4  5  1  0
  4 32  1  0
  5  6  1  0
  5 13  2  0
  6  7  2  0
  6  8  1  0
  8  9  1  0
  8 33  1  0
  9 10  1  0
  9 12  1  0
  9 34  1  1
 10 11  1  0
 10 35  1  0
 10 36  1  0
 11 12  1  0
 12 37  1  0
 12 38  1  0
 13 14  1  0
 13 39  1  0
 14 15  2  0
 14 31  1  0
 15 16  1  0
 16 17  1  0
 16 21  2  0
 17 18  1  6
 17 19  1  0
 17 20  1  0
 21 22  1  0
 21 31  1  0
 22 23  1  0
 22 40  1  0
 22 41  1  0
 23 24  1  0
 23 30  1  0
 23 42  1  1
 24 25  1  0
 24 43  1  0
 24 44  1  0
 25 26  1  0
 25 45  1  0
 25 46  1  0
 26 27  1  6
 26 28  1  0
 26 29  1  0
 29 30  1  0
 29 47  1  0
 29 48  1  0
 30 49  1  0
 30 50  1  0
M  END

