
     RDKit          3D

 34 35  0  0  0  0  0  0  0  0999 V2000
    0.8734   -0.1568    0.3717 O   0  0  0  0  0  0  0  0  0  0  0  0
    2.0549   -0.0285    0.1725 C   0  0  0  0  0  0  0  0  0  0  0  0
    2.7052    1.3705    0.1383 C   0  0  0  0  0  0  0  0  0  0  0  0
    3.1823    1.7479   -1.1655 O   0  0  0  0  0  0  0  0  0  0  0  0
    4.4138    1.3729   -1.5402 C   0  0  0  0  0  0  0  0  0  0  0  0
    5.1236    0.6555   -0.8596 O   0  0  0  0  0  0  0  0  0  0  0  0
    4.7884    1.9017   -2.8971 C   0  0  1  0  0  0  0  0  0  0  0  0
    6.2818    2.2488   -3.1441 C   0  0  0  0  0  0  0  0  0  0  0  0
    6.1917    1.5556   -4.5261 C   0  0  0  0  0  0  0  0  0  0  0  0
    4.9009    0.8467   -4.0476 C   0  0  0  0  0  0  0  0  0  0  0  0
    2.9687   -1.0607   -0.0206 N   0  0  0  0  0  0  0  0  0  0  0  0
    2.6903   -2.4362   -0.0672 C   0  0  0  0  0  0  0  0  0  0  0  0
    1.5794   -2.8880    0.0868 O   0  0  0  0  0  0  0  0  0  0  0  0
    3.8860   -3.3241   -0.3154 C   0  0  0  0  0  0  0  0  0  0  0  0
    3.6665   -4.7073   -0.1988 C   0  0  0  0  0  0  0  0  0  0  0  0
    4.7051   -5.6120   -0.4127 C   0  0  0  0  0  0  0  0  0  0  0  0
    5.9799   -5.1465   -0.7540 C   0  0  0  0  0  0  0  0  0  0  0  0
    6.2069   -3.7734   -0.8808 C   0  0  0  0  0  0  0  0  0  0  0  0
    5.1680   -2.8637   -0.6638 C   0  0  0  0  0  0  0  0  0  0  0  0
    3.5315    1.4351    0.8641 H   0  0  0  0  0  0  0  0  0  0  0  0
    1.9184    2.0907    0.3858 H   0  0  0  0  0  0  0  0  0  0  0  0
    4.1088    2.7197   -3.1716 H   0  0  0  0  0  0  0  0  0  0  0  0
    6.9243    1.6949   -2.4442 H   0  0  0  0  0  0  0  0  0  0  0  0
    6.5523    3.3149   -3.1152 H   0  0  0  0  0  0  0  0  0  0  0  0
    7.0349    0.9167   -4.8280 H   0  0  0  0  0  0  0  0  0  0  0  0
    5.9901    2.2721   -5.3373 H   0  0  0  0  0  0  0  0  0  0  0  0
    5.1060   -0.1575   -3.6469 H   0  0  0  0  0  0  0  0  0  0  0  0
    4.0501    0.7867   -4.7420 H   0  0  0  0  0  0  0  0  0  0  0  0
    3.9364   -0.7587   -0.1241 H   0  0  0  0  0  0  0  0  0  0  0  0
    2.6626   -5.0464    0.0627 H   0  0  0  0  0  0  0  0  0  0  0  0
    4.5214   -6.6849   -0.3142 H   0  0  0  0  0  0  0  0  0  0  0  0
    6.7958   -5.8540   -0.9226 H   0  0  0  0  0  0  0  0  0  0  0  0
    7.1990   -3.4040   -1.1523 H   0  0  0  0  0  0  0  0  0  0  0  0
    5.3832   -1.7994   -0.7834 H   0  0  0  0  0  0  0  0  0  0  0  0
  1  2  2  0
  2  3  1  0
  2 11  1  0
  3  4  1  0
  3 20  1  0
  3 21  1  0
  4  5  1  0
  5  6  2  0
  5  7  1  0
  7  8  1  0
  7 10  1  0
  7 22  1  6
  8  9  1  0
  8 23  1  0
  8 24  1  0
  9 10  1  0
  9 25  1  0
  9 26  1  0
 10 27  1  0
 10 28  1  0
 11 12  1  0
 11 29  1  0
 12 13  2  0
 12 14  1  0
 14 15  2  0
 14 19  1  0
 15 16  1  0
 15 30  1  0
 16 17  2  0
 16 31  1  0
 17 18  1  0
 17 32  1  0
 18 19  2  0
 18 33  1  0
 19 34  1  0
M  END

