
     RDKit          3D

 51 54  0  0  0  0  0  0  0  0999 V2000
    3.0531   -1.1377    1.2015 O   0  0  0  0  0  0  0  0  0  0  0  0
    2.6326   -0.3273    0.3865 C   0  0  0  0  0  0  0  0  0  0  0  0
    3.1771   -0.2832   -1.0510 C   0  0  0  0  0  0  0  0  0  0  0  0
    2.2236   -0.7482   -2.0625 N   0  0  0  0  0  0  0  0  0  0  0  0
    1.4363    0.2256   -2.6577 C   0  0  0  0  0  0  0  0  0  0  0  0
    1.4330    1.3799   -2.2425 O   0  0  0  0  0  0  0  0  0  0  0  0
    0.6630   -0.1613   -3.7460 N   0  0  0  0  0  0  0  0  0  0  0  0
   -0.1317    0.8900   -4.4202 C   0  0  0  0  0  0  0  0  0  0  0  0
    0.6275    1.6234   -5.5084 C   0  0  0  0  0  0  0  0  0  0  0  0
    0.6452    1.1288   -6.8233 C   0  0  0  0  0  0  0  0  0  0  0  0
    1.3405    1.7991   -7.8317 C   0  0  0  0  0  0  0  0  0  0  0  0
    2.0219    2.9723   -7.5144 C   0  0  0  0  0  0  0  0  0  0  0  0
    2.6893    3.6225   -8.4794 F   0  0  0  0  0  0  0  0  0  0  0  0
    2.0260    3.4877   -6.2202 C   0  0  0  0  0  0  0  0  0  0  0  0
    1.3269    2.8067   -5.2210 C   0  0  0  0  0  0  0  0  0  0  0  0
    0.6011   -1.4652   -4.2690 C   0  0  0  0  0  0  0  0  0  0  0  0
   -0.0605   -1.7093   -5.2618 O   0  0  0  0  0  0  0  0  0  0  0  0
    1.3464   -2.4802   -3.5046 C   0  0  0  0  0  0  0  0  0  0  0  0
    1.2556   -3.8295   -3.8820 C   0  0  0  0  0  0  0  0  0  0  0  0
    1.9175   -4.8099   -3.1531 C   0  0  0  0  0  0  0  0  0  0  0  0
    2.6633   -4.4378   -2.0246 C   0  0  0  0  0  0  0  0  0  0  0  0
    2.7690   -3.1049   -1.6337 C   0  0  0  0  0  0  0  0  0  0  0  0
    2.1222   -2.1069   -2.3884 C   0  0  0  0  0  0  0  0  0  0  0  0
    1.6632    0.5862    0.6406 N   0  0  0  0  0  0  0  0  0  0  0  0
    1.0040    0.6895    1.9371 C   0  0  0  0  0  0  0  0  0  0  0  0
    1.6079    1.7370    2.8548 C   0  0  0  0  0  0  0  0  0  0  0  0
    0.9463    2.9459    3.1100 C   0  0  0  0  0  0  0  0  0  0  0  0
    1.5088    3.9169    3.9444 C   0  0  0  0  0  0  0  0  0  0  0  0
    2.7493    3.6644    4.5226 C   0  0  0  0  0  0  0  0  0  0  0  0
    3.2986    4.5885    5.3250 F   0  0  0  0  0  0  0  0  0  0  0  0
    3.4344    2.4718    4.2909 C   0  0  0  0  0  0  0  0  0  0  0  0
    2.8580    1.5123    3.4581 C   0  0  0  0  0  0  0  0  0  0  0  0
    4.0753   -0.9089   -1.0892 H   0  0  0  0  0  0  0  0  0  0  0  0
    3.4481    0.7482   -1.3112 H   0  0  0  0  0  0  0  0  0  0  0  0
   -0.4554    1.5898   -3.6418 H   0  0  0  0  0  0  0  0  0  0  0  0
   -1.0059    0.3824   -4.8434 H   0  0  0  0  0  0  0  0  0  0  0  0
    0.1140    0.2023   -7.0521 H   0  0  0  0  0  0  0  0  0  0  0  0
    1.3607    1.4282   -8.8584 H   0  0  0  0  0  0  0  0  0  0  0  0
    2.5712    4.4105   -6.0122 H   0  0  0  0  0  0  0  0  0  0  0  0
    1.3301    3.1915   -4.1990 H   0  0  0  0  0  0  0  0  0  0  0  0
    0.6480   -4.0710   -4.7560 H   0  0  0  0  0  0  0  0  0  0  0  0
    1.8464   -5.8595   -3.4457 H   0  0  0  0  0  0  0  0  0  0  0  0
    3.1656   -5.2028   -1.4271 H   0  0  0  0  0  0  0  0  0  0  0  0
    3.3107   -2.8479   -0.7234 H   0  0  0  0  0  0  0  0  0  0  0  0
    1.4325    1.2460   -0.1012 H   0  0  0  0  0  0  0  0  0  0  0  0
    1.0744   -0.3030    2.4055 H   0  0  0  0  0  0  0  0  0  0  0  0
   -0.0614    0.9098    1.7678 H   0  0  0  0  0  0  0  0  0  0  0  0
   -0.0295    3.1369    2.6539 H   0  0  0  0  0  0  0  0  0  0  0  0
    1.0013    4.8610    4.1518 H   0  0  0  0  0  0  0  0  0  0  0  0
    4.4028    2.3098    4.7685 H   0  0  0  0  0  0  0  0  0  0  0  0
    3.3798    0.5708    3.2681 H   0  0  0  0  0  0  0  0  0  0  0  0
  1  2  2  0
  2  3  1  0
  2 24  1  0
  3  4  1  0
  3 33  1  0
  3 34  1  0
  4  5  1  0
  4 23  1  0
  5  6  2  0
  5  7  1  0
  7  8  1  0
  7 16  1  0
  8  9  1  0
  8 35  1  0
  8 36  1  0
  9 10  2  0
  9 15  1  0
 10 11  1  0
 10 37  1  0
 11 12  2  0
 11 38  1  0
 12 13  1  0
 12 14  1  0
 14 15  2  0
 14 39  1  0
 15 40  1  0
 16 17  2  0
 16 18  1  0
 18 19  1  0
 18 23  2  0
 19 20  2  0
 19 41  1  0
 20 21  1  0
 20 42  1  0
 21 22  2  0
 21 43  1  0
 22 23  1  0
 22 44  1  0
 24 25  1  0
 24 45  1  0
 25 26  1  0
 25 46  1  0
 25 47  1  0
 26 27  2  0
 26 32  1  0
 27 28  1  0
 27 48  1  0
 28 29  2  0
 28 49  1  0
 29 30  1  0
 29 31  1  0
 31 32  2  0
 31 50  1  0
 32 51  1  0
M  END

