
     RDKit          3D

 54 57  0  0  0  0  0  0  0  0999 V2000
   10.4510   -4.9098   -6.1342 C   0  0  0  0  0  0  0  0  0  0  0  0
    9.3548   -5.2456   -5.1548 C   0  0  0  0  0  0  0  0  0  0  0  0
    9.4663   -6.3421   -4.2846 C   0  0  0  0  0  0  0  0  0  0  0  0
    8.4453   -6.6623   -3.3877 C   0  0  0  0  0  0  0  0  0  0  0  0
    7.2995   -5.8650   -3.3583 C   0  0  0  0  0  0  0  0  0  0  0  0
    5.9919   -6.2590   -2.2131 S   0  0  1  0  0  0  0  0  0  0  0  0
    4.7457   -5.6372   -2.6529 O   0  0  0  0  0  0  0  0  0  0  0  0
    6.0786   -7.6703   -1.8700 O   0  0  0  0  0  0  0  0  0  0  0  0
    6.5367   -5.4004   -0.8914 O   0  0  0  0  0  0  0  0  0  0  0  0
    5.5986   -4.6060   -0.1467 C   0  0  2  0  0  0  0  0  0  0  0  0
    5.0799   -3.9160   -0.8266 H   0  0  0  0  0  0  0  0  0  0  0  0
    6.3744   -3.8408    0.9910 C   0  0  2  0  0  0  0  0  0  0  0  0
    5.8283   -2.9058    1.1998 H   0  0  0  0  0  0  0  0  0  0  0  0
    7.8067   -3.4229    0.6447 C   0  0  2  0  0  0  0  0  0  0  0  0
    7.7879   -3.0157   -0.3818 H   0  0  0  0  0  0  0  0  0  0  0  0
    8.8967   -4.5019    0.7948 C   0  0  0  0  0  0  0  0  0  0  0  0
    9.4628   -4.2459    2.0588 O   0  0  0  0  0  0  0  0  0  0  0  0
    9.2927   -2.8747    2.3756 C   0  0  2  0  0  0  0  0  0  0  0  0
   10.5601   -2.0817    2.0531 C   0  0  0  0  0  0  0  0  0  0  0  0
    8.8704   -2.7676    3.8346 C   0  0  0  0  0  0  0  0  0  0  0  0
    8.2333   -2.4025    1.5305 O   0  0  0  0  0  0  0  0  0  0  0  0
    6.3152   -4.6547    2.1975 O   0  0  0  0  0  0  0  0  0  0  0  0
    5.6976   -5.8503    1.8034 C   0  0  1  0  0  0  0  0  0  0  0  0
    6.4577   -6.5367    1.3781 H   0  0  0  0  0  0  0  0  0  0  0  0
    4.8805   -6.5573    2.6910 O   0  0  0  0  0  0  0  0  0  0  0  0
    3.9279   -7.2419    1.8237 C   0  0  1  0  0  0  0  0  0  0  0  0
    4.3342   -8.6919    1.6185 C   0  0  0  0  0  0  0  0  0  0  0  0
    2.5446   -7.0712    2.4281 C   0  0  0  0  0  0  0  0  0  0  0  0
    3.9873   -6.5799    0.5162 O   0  0  0  0  0  0  0  0  0  0  0  0
    4.7006   -5.4108    0.7716 C   0  0  2  0  0  0  0  0  0  0  0  0
    4.0507   -4.6568    1.2617 H   0  0  0  0  0  0  0  0  0  0  0  0
    7.1523   -4.7705   -4.2166 C   0  0  0  0  0  0  0  0  0  0  0  0
    8.1817   -4.4700   -5.1064 C   0  0  0  0  0  0  0  0  0  0  0  0
   11.3457   -5.5275   -5.9708 H   0  0  0  0  0  0  0  0  0  0  0  0
   10.7466   -3.8512   -6.0545 H   0  0  0  0  0  0  0  0  0  0  0  0
   10.1149   -5.0723   -7.1723 H   0  0  0  0  0  0  0  0  0  0  0  0
   10.3664   -6.9618   -4.3121 H   0  0  0  0  0  0  0  0  0  0  0  0
    8.5261   -7.5248   -2.7240 H   0  0  0  0  0  0  0  0  0  0  0  0
    9.6431   -4.4044   -0.0175 H   0  0  0  0  0  0  0  0  0  0  0  0
    8.5043   -5.5260    0.7796 H   0  0  0  0  0  0  0  0  0  0  0  0
   11.3955   -2.4226    2.6829 H   0  0  0  0  0  0  0  0  0  0  0  0
   10.3960   -1.0080    2.2288 H   0  0  0  0  0  0  0  0  0  0  0  0
   10.8369   -2.2202    0.9968 H   0  0  0  0  0  0  0  0  0  0  0  0
    9.6583   -3.1703    4.4885 H   0  0  0  0  0  0  0  0  0  0  0  0
    7.9504   -3.3497    3.9814 H   0  0  0  0  0  0  0  0  0  0  0  0
    8.6869   -1.7170    4.1045 H   0  0  0  0  0  0  0  0  0  0  0  0
    4.3207   -9.2299    2.5778 H   0  0  0  0  0  0  0  0  0  0  0  0
    5.3408   -8.7497    1.1820 H   0  0  0  0  0  0  0  0  0  0  0  0
    3.6356   -9.1790    0.9225 H   0  0  0  0  0  0  0  0  0  0  0  0
    2.5238   -7.4936    3.4437 H   0  0  0  0  0  0  0  0  0  0  0  0
    1.7945   -7.5859    1.8102 H   0  0  0  0  0  0  0  0  0  0  0  0
    2.2843   -6.0049    2.4920 H   0  0  0  0  0  0  0  0  0  0  0  0
    6.2363   -4.1777   -4.1912 H   0  0  0  0  0  0  0  0  0  0  0  0
    8.0714   -3.6178   -5.7828 H   0  0  0  0  0  0  0  0  0  0  0  0
  1  2  1  0
  1 34  1  0
  1 35  1  0
  1 36  1  0
  2  3  2  0
  2 33  1  0
  3  4  1  0
  3 37  1  0
  4  5  2  0
  4 38  1  0
  5  6  1  0
  5 32  1  0
  6  7  2  0
  6  8  2  0
  6  9  1  1
  9 10  1  0
 10 11  1  6
 10 12  1  0
 10 30  1  0
 12 13  1  1
 12 14  1  0
 12 22  1  0
 14 15  1  6
 14 16  1  0
 14 21  1  0
 16 17  1  0
 16 39  1  0
 16 40  1  0
 17 18  1  0
 18 19  1  1
 18 20  1  0
 18 21  1  0
 19 41  1  0
 19 42  1  0
 19 43  1  0
 20 44  1  0
 20 45  1  0
 20 46  1  0
 22 23  1  0
 23 24  1  6
 23 25  1  0
 23 30  1  0
 25 26  1  0
 26 27  1  6
 26 28  1  0
 26 29  1  0
 27 47  1  0
 27 48  1  0
 27 49  1  0
 28 50  1  0
 28 51  1  0
 28 52  1  0
 29 30  1  0
 30 31  1  1
 32 33  2  0
 32 53  1  0
 33 54  1  0
M  END

