
     RDKit          3D

 48 51  0  0  0  0  0  0  0  0999 V2000
    1.2455   -0.2113    0.9957 C   0  0  0  0  0  0  0  0  0  0  0  0
    2.5472   -0.1696    0.3829 N   0  0  0  0  0  0  0  0  0  0  0  0
    2.9399   -1.1550   -0.3407 C   0  0  0  0  0  0  0  0  0  0  0  0
    2.1664   -2.2571   -0.7004 N   0  0  0  0  0  0  0  0  0  0  0  0
    2.7124   -3.5676   -1.0116 C   0  0  0  0  0  0  0  0  0  0  0  0
    2.8584   -3.8372   -2.4839 C   0  0  0  0  0  0  0  0  0  0  0  0
    2.4941   -3.0698   -3.5532 C   0  0  0  0  0  0  0  0  0  0  0  0
    2.8240   -3.7583   -4.6873 O   0  0  0  0  0  0  0  0  0  0  0  0
    3.3749   -4.9175   -4.2493 C   0  0  0  0  0  0  0  0  0  0  0  0
    3.8236   -5.8865   -5.2257 C   0  0  0  0  0  0  0  0  0  0  0  0
    4.3918   -7.1184   -4.9650 C   0  0  0  0  0  0  0  0  0  0  0  0
    4.7212   -7.8320   -6.1497 C   0  0  0  0  0  0  0  0  0  0  0  0
    4.4010   -7.1367   -7.2921 C   0  0  0  0  0  0  0  0  0  0  0  0
    3.6949   -5.6005   -6.9404 S   0  0  0  0  0  0  0  0  0  0  0  0
    3.4187   -5.0116   -2.9491 N   0  0  0  0  0  0  0  0  0  0  0  0
    4.2401   -1.1945   -0.8259 N   0  0  0  0  0  0  0  0  0  0  0  0
    5.1237   -0.0697   -0.5690 C   0  0  0  0  0  0  0  0  0  0  0  0
    6.5527   -0.3683   -1.0125 C   0  0  1  0  0  0  0  0  0  0  0  0
    6.7186   -0.5409   -2.5028 C   0  0  0  0  0  0  0  0  0  0  0  0
    6.7881    0.5817   -3.3459 C   0  0  0  0  0  0  0  0  0  0  0  0
    6.8840    0.4290   -4.7302 C   0  0  0  0  0  0  0  0  0  0  0  0
    6.9070   -0.8446   -5.3070 C   0  0  0  0  0  0  0  0  0  0  0  0
    6.8340   -1.9600   -4.4703 C   0  0  0  0  0  0  0  0  0  0  0  0
    6.8551   -3.5659   -5.1683 Cl  0  0  0  0  0  0  0  0  0  0  0  0
    6.7427   -1.8193   -3.0817 C   0  0  0  0  0  0  0  0  0  0  0  0
    7.6593    0.3069   -0.2331 C   0  0  0  0  0  0  0  0  0  0  0  0
    7.4179   -1.1738   -0.0737 C   0  0  0  0  0  0  0  0  0  0  0  0
    1.1681    0.5679    1.7710 H   0  0  0  0  0  0  0  0  0  0  0  0
    1.0079   -1.1789    1.4925 H   0  0  0  0  0  0  0  0  0  0  0  0
    0.4248   -0.0142    0.2734 H   0  0  0  0  0  0  0  0  0  0  0  0
    1.2259   -2.2464   -0.3306 H   0  0  0  0  0  0  0  0  0  0  0  0
    2.0590   -4.3440   -0.5780 H   0  0  0  0  0  0  0  0  0  0  0  0
    3.6965   -3.6969   -0.5305 H   0  0  0  0  0  0  0  0  0  0  0  0
    2.0250   -2.0992   -3.6740 H   0  0  0  0  0  0  0  0  0  0  0  0
    4.5576   -7.4766   -3.9488 H   0  0  0  0  0  0  0  0  0  0  0  0
    5.1782   -8.8226   -6.1583 H   0  0  0  0  0  0  0  0  0  0  0  0
    4.5428   -7.4430   -8.3277 H   0  0  0  0  0  0  0  0  0  0  0  0
    4.3377   -1.6082   -1.7497 H   0  0  0  0  0  0  0  0  0  0  0  0
    5.0950    0.1394    0.5099 H   0  0  0  0  0  0  0  0  0  0  0  0
    4.7617    0.8533   -1.0633 H   0  0  0  0  0  0  0  0  0  0  0  0
    6.7730    1.5824   -2.9067 H   0  0  0  0  0  0  0  0  0  0  0  0
    6.9437    1.3105   -5.3739 H   0  0  0  0  0  0  0  0  0  0  0  0
    6.9815   -0.9762   -6.3875 H   0  0  0  0  0  0  0  0  0  0  0  0
    6.6947   -2.7107   -2.4535 H   0  0  0  0  0  0  0  0  0  0  0  0
    7.3756    0.9745    0.5859 H   0  0  0  0  0  0  0  0  0  0  0  0
    8.5507    0.6221   -0.7828 H   0  0  0  0  0  0  0  0  0  0  0  0
    6.9588   -1.5317    0.8520 H   0  0  0  0  0  0  0  0  0  0  0  0
    8.1546   -1.8580   -0.5038 H   0  0  0  0  0  0  0  0  0  0  0  0
  1  2  1  0
  1 28  1  0
  1 29  1  0
  1 30  1  0
  2  3  2  0
  3  4  1  0
  3 16  1  0
  4  5  1  0
  4 31  1  0
  5  6  1  0
  5 32  1  0
  5 33  1  0
  6  7  2  0
  6 15  1  0
  7  8  1  0
  7 34  1  0
  8  9  1  0
  9 10  1  0
  9 15  2  0
 10 11  2  0
 10 14  1  0
 11 12  1  0
 11 35  1  0
 12 13  2  0
 12 36  1  0
 13 14  1  0
 13 37  1  0
 16 17  1  0
 16 38  1  0
 18 17  1  1
 17 39  1  0
 17 40  1  0
 18 19  1  0
 18 26  1  0
 18 27  1  0
 19 20  2  0
 19 25  1  0
 20 21  1  0
 20 41  1  0
 21 22  2  0
 21 42  1  0
 22 23  1  0
 22 43  1  0
 23 24  1  0
 23 25  2  0
 25 44  1  0
 26 27  1  0
 26 45  1  0
 26 46  1  0
 27 47  1  0
 27 48  1  0
M  END

