
     RDKit          3D

 35 36  0  0  0  0  0  0  0  0999 V2000
    0.6656    0.1125   -1.2445 C   0  0  0  0  0  0  0  0  0  0  0  0
    2.1460   -0.2141   -1.2919 C   0  0  0  0  0  0  0  0  0  0  0  0
    2.8301    0.9168   -1.8080 O   0  0  0  0  0  0  0  0  0  0  0  0
    4.1783    0.8826   -1.9538 C   0  0  0  0  0  0  0  0  0  0  0  0
    4.7776    2.0470   -2.4660 C   0  0  0  0  0  0  0  0  0  0  0  0
    6.1568    2.1052   -2.6451 C   0  0  0  0  0  0  0  0  0  0  0  0
    6.9804    1.0115   -2.3311 C   0  0  0  0  0  0  0  0  0  0  0  0
    8.4835    1.0632   -2.5597 C   0  0  1  0  0  0  0  0  0  0  0  0
    9.2121    0.3817   -1.4922 N   0  0  0  0  0  0  0  0  0  0  0  0
    9.2287    1.0411   -0.2459 N   0  0  0  0  0  0  0  0  0  0  0  0
    8.9374    0.4726   -3.8984 C   0  0  0  0  0  0  0  0  0  0  0  0
    8.0549    0.1175   -4.9281 C   0  0  0  0  0  0  0  0  0  0  0  0
    8.5693   -0.3839   -6.1245 C   0  0  0  0  0  0  0  0  0  0  0  0
    9.9521   -0.5198   -6.2470 C   0  0  0  0  0  0  0  0  0  0  0  0
   10.6677   -1.1407   -7.7106 Cl  0  0  0  0  0  0  0  0  0  0  0  0
   10.7655   -0.1487   -5.1692 C   0  0  0  0  0  0  0  0  0  0  0  0
   10.2634    0.3349   -4.0369 N   0  0  0  0  0  0  0  0  0  0  0  0
    6.3739   -0.1400   -1.8159 C   0  0  0  0  0  0  0  0  0  0  0  0
    4.9898   -0.2156   -1.6249 C   0  0  0  0  0  0  0  0  0  0  0  0
    0.0990   -0.7436   -0.8467 H   0  0  0  0  0  0  0  0  0  0  0  0
    0.2861    0.3446   -2.2514 H   0  0  0  0  0  0  0  0  0  0  0  0
    0.4806    0.9841   -0.5983 H   0  0  0  0  0  0  0  0  0  0  0  0
    2.3324   -1.0954   -1.9348 H   0  0  0  0  0  0  0  0  0  0  0  0
    2.5259   -0.4580   -0.2815 H   0  0  0  0  0  0  0  0  0  0  0  0
    4.1357    2.8967   -2.7075 H   0  0  0  0  0  0  0  0  0  0  0  0
    6.6051    3.0234   -3.0373 H   0  0  0  0  0  0  0  0  0  0  0  0
    8.7730    2.1419   -2.6023 H   0  0  0  0  0  0  0  0  0  0  0  0
   10.1707    0.2281   -1.8008 H   0  0  0  0  0  0  0  0  0  0  0  0
    8.3445    0.8598    0.2298 H   0  0  0  0  0  0  0  0  0  0  0  0
    9.2902    2.0616   -0.3622 H   0  0  0  0  0  0  0  0  0  0  0  0
    6.9786    0.2305   -4.7959 H   0  0  0  0  0  0  0  0  0  0  0  0
    7.9119   -0.6690   -6.9482 H   0  0  0  0  0  0  0  0  0  0  0  0
   11.8536   -0.2508   -5.2428 H   0  0  0  0  0  0  0  0  0  0  0  0
    7.0086   -0.9893   -1.5516 H   0  0  0  0  0  0  0  0  0  0  0  0
    4.5585   -1.1301   -1.2173 H   0  0  0  0  0  0  0  0  0  0  0  0
  1  2  1  0
  1 20  1  0
  1 21  1  0
  1 22  1  0
  2  3  1  0
  2 23  1  0
  2 24  1  0
  3  4  1  0
  4  5  2  0
  4 19  1  0
  5  6  1  0
  5 25  1  0
  6  7  2  0
  6 26  1  0
  7  8  1  0
  7 18  1  0
  8  9  1  0
  8 11  1  0
  8 27  1  6
  9 10  1  0
  9 28  1  0
 10 29  1  0
 10 30  1  0
 11 12  2  0
 11 17  1  0
 12 13  1  0
 12 31  1  0
 13 14  2  0
 13 32  1  0
 14 15  1  0
 14 16  1  0
 16 17  2  0
 16 33  1  0
 18 19  2  0
 18 34  1  0
 19 35  1  0
M  END

