
     RDKit          3D

 66 68  0  0  0  0  0  0  0  0999 V2000
    2.0398   -7.2600    0.7304 C   0  0  0  0  0  0  0  0  0  0  0  0
    2.2973   -5.9675    0.5069 C   0  0  0  0  0  0  0  0  0  0  0  0
    3.3779   -5.4261   -0.3842 C   0  0  0  0  0  0  0  0  0  0  0  0
    4.3895   -4.5374    0.3567 C   0  0  0  0  0  0  0  0  0  0  0  0
    5.4093   -3.8831   -0.5751 C   0  0  1  0  0  0  0  0  0  0  0  0
    5.9657   -4.6696   -1.1193 H   0  0  0  0  0  0  0  0  0  0  0  0
    4.6980   -3.0606   -1.4848 O   0  0  0  0  0  0  0  0  0  0  0  0
    6.4570   -3.0815    0.2150 C   0  0  0  0  0  0  0  0  0  0  0  0
    7.4834   -2.4837   -0.6342 N   0  0  0  0  0  0  0  0  0  0  0  0
    7.1563   -1.2206   -1.2753 C   0  0  0  0  0  0  0  0  0  0  0  0
    7.4158   -1.2211   -2.7798 C   0  0  0  0  0  0  0  0  0  0  0  0
    6.5218   -2.1138   -3.4094 O   0  0  0  0  0  0  0  0  0  0  0  0
    6.7315   -2.2866   -4.7886 C   0  0  0  0  0  0  0  0  0  0  0  0
    8.8434   -2.6163   -0.1877 C   0  0  0  0  0  0  0  0  0  0  0  0
    9.3929   -4.0531   -0.3270 C   0  0  0  0  0  0  0  0  0  0  0  0
    8.6612   -4.9745   -0.6442 O   0  0  0  0  0  0  0  0  0  0  0  0
   10.7460   -4.2191   -0.1051 N   0  0  0  0  0  0  0  0  0  0  0  0
   11.5443   -3.2440    0.6410 C   0  0  0  0  0  0  0  0  0  0  0  0
   11.5077   -3.5350    2.1538 C   0  0  0  0  0  0  0  0  0  0  0  0
   11.6623   -5.0149    2.3719 C   0  0  0  0  0  0  0  0  0  0  0  0
   11.9348   -5.7388    3.9280 S   0  0  0  0  0  0  0  0  0  0  0  0
   11.9706   -7.3283    3.2388 C   0  0  0  0  0  0  0  0  0  0  0  0
   11.7826   -7.2994    1.8824 C   0  0  0  0  0  0  0  0  0  0  0  0
   11.5923   -5.9699    1.3802 C   0  0  0  0  0  0  0  0  0  0  0  0
   11.3807   -5.5545   -0.0705 C   0  0  1  0  0  0  0  0  0  0  0  0
   12.3790   -5.4138   -0.5250 H   0  0  0  0  0  0  0  0  0  0  0  0
   10.7272   -6.6168   -0.9628 C   0  0  0  0  0  0  0  0  0  0  0  0
   11.7447   -7.5881   -1.2000 O   0  0  0  0  0  0  0  0  0  0  0  0
   11.4735   -8.6500   -2.0001 C   0  0  0  0  0  0  0  0  0  0  0  0
   12.5257   -9.5626   -2.2031 C   0  0  0  0  0  0  0  0  0  0  0  0
   12.3299  -10.6782   -3.0126 C   0  0  0  0  0  0  0  0  0  0  0  0
   11.0974  -10.9140   -3.6354 C   0  0  0  0  0  0  0  0  0  0  0  0
   10.0755   -9.9971   -3.4181 C   0  0  0  0  0  0  0  0  0  0  0  0
    8.8835  -10.1963   -4.0015 F   0  0  0  0  0  0  0  0  0  0  0  0
   10.2303   -8.8671   -2.6134 C   0  0  0  0  0  0  0  0  0  0  0  0
    1.2319   -7.5782    1.3957 H   0  0  0  0  0  0  0  0  0  0  0  0
    2.6264   -8.0514    0.2507 H   0  0  0  0  0  0  0  0  0  0  0  0
    1.6804   -5.2134    1.0159 H   0  0  0  0  0  0  0  0  0  0  0  0
    2.9277   -4.8131   -1.1841 H   0  0  0  0  0  0  0  0  0  0  0  0
    3.9071   -6.2582   -0.8807 H   0  0  0  0  0  0  0  0  0  0  0  0
    4.9194   -5.1332    1.1197 H   0  0  0  0  0  0  0  0  0  0  0  0
    3.8490   -3.7375    0.8956 H   0  0  0  0  0  0  0  0  0  0  0  0
    5.2762   -2.8601   -2.2426 H   0  0  0  0  0  0  0  0  0  0  0  0
    6.9472   -3.7699    0.9181 H   0  0  0  0  0  0  0  0  0  0  0  0
    5.9364   -2.3089    0.8216 H   0  0  0  0  0  0  0  0  0  0  0  0
    7.7127   -0.3654   -0.8332 H   0  0  0  0  0  0  0  0  0  0  0  0
    6.0875   -1.0153   -1.1205 H   0  0  0  0  0  0  0  0  0  0  0  0
    8.4630   -1.5207   -2.9930 H   0  0  0  0  0  0  0  0  0  0  0  0
    7.2816   -0.1949   -3.1824 H   0  0  0  0  0  0  0  0  0  0  0  0
    5.9790   -2.9992   -5.1551 H   0  0  0  0  0  0  0  0  0  0  0  0
    7.7395   -2.6942   -5.0000 H   0  0  0  0  0  0  0  0  0  0  0  0
    6.6190   -1.3343   -5.3436 H   0  0  0  0  0  0  0  0  0  0  0  0
    8.9828   -2.2879    0.8694 H   0  0  0  0  0  0  0  0  0  0  0  0
    9.4848   -1.9538   -0.7912 H   0  0  0  0  0  0  0  0  0  0  0  0
   11.2098   -2.2217    0.4322 H   0  0  0  0  0  0  0  0  0  0  0  0
   12.5827   -3.3165    0.2780 H   0  0  0  0  0  0  0  0  0  0  0  0
   10.5542   -3.1773    2.5838 H   0  0  0  0  0  0  0  0  0  0  0  0
   12.3078   -2.9671    2.6587 H   0  0  0  0  0  0  0  0  0  0  0  0
   12.1302   -8.1961    3.8769 H   0  0  0  0  0  0  0  0  0  0  0  0
   11.7830   -8.1893    1.2544 H   0  0  0  0  0  0  0  0  0  0  0  0
    9.8494   -7.0773   -0.4903 H   0  0  0  0  0  0  0  0  0  0  0  0
   10.4070   -6.1662   -1.9141 H   0  0  0  0  0  0  0  0  0  0  0  0
   13.4835   -9.3700   -1.7169 H   0  0  0  0  0  0  0  0  0  0  0  0
   13.1521  -11.3817   -3.1655 H   0  0  0  0  0  0  0  0  0  0  0  0
   10.9224  -11.7812   -4.2735 H   0  0  0  0  0  0  0  0  0  0  0  0
    9.3823   -8.1955   -2.4872 H   0  0  0  0  0  0  0  0  0  0  0  0
  1  2  2  0
  1 36  1  0
  1 37  1  0
  2  3  1  0
  2 38  1  0
  3  4  1  0
  3 39  1  0
  3 40  1  0
  4  5  1  0
  4 41  1  0
  4 42  1  0
  5  6  1  6
  5  7  1  0
  5  8  1  0
  7 43  1  0
  8  9  1  0
  8 44  1  0
  8 45  1  0
  9 10  1  0
  9 14  1  0
 10 11  1  0
 10 46  1  0
 10 47  1  0
 11 12  1  0
 11 48  1  0
 11 49  1  0
 12 13  1  0
 13 50  1  0
 13 51  1  0
 13 52  1  0
 14 15  1  0
 14 53  1  0
 14 54  1  0
 15 16  2  0
 15 17  1  0
 17 18  1  0
 17 25  1  0
 18 19  1  0
 18 55  1  0
 18 56  1  0
 19 20  1  0
 19 57  1  0
 19 58  1  0
 20 21  1  0
 20 24  2  0
 21 22  1  0
 22 23  2  0
 22 59  1  0
 23 24  1  0
 23 60  1  0
 24 25  1  0
 25 26  1  6
 25 27  1  0
 27 28  1  0
 27 61  1  0
 27 62  1  0
 28 29  1  0
 29 30  2  0
 29 35  1  0
 30 31  1  0
 30 63  1  0
 31 32  2  0
 31 64  1  0
 32 33  1  0
 32 65  1  0
 33 34  1  0
 33 35  2  0
 35 66  1  0
M  END

