
     RDKit          3D

 64 66  0  0  0  0  0  0  0  0999 V2000
    1.8934   -0.0766   -0.2982 C   0  0  0  0  0  0  0  0  0  0  0  0
    3.3038    0.5143   -0.3455 C   0  0  1  0  0  0  0  0  0  0  0  0
    3.3121    1.8091   -1.1550 C   0  0  0  0  0  0  0  0  0  0  0  0
    4.6050    2.3829   -1.1020 O   0  0  0  0  0  0  0  0  0  0  0  0
    4.7435    3.6328   -1.7361 C   0  0  1  0  0  0  0  0  0  0  0  0
    6.0979    4.2613   -1.4006 C   0  0  0  0  0  0  0  0  0  0  0  0
    6.3483    5.2002   -2.5904 C   0  0  0  0  0  0  0  0  0  0  0  0
    5.4923    4.7624   -3.6487 O   0  0  0  0  0  0  0  0  0  0  0  0
    4.8215    3.5785   -3.2731 C   0  0  0  0  0  0  0  0  0  0  0  0
    3.8230    0.8205    0.9868 N   0  0  0  0  0  0  0  0  0  0  0  0
    4.1834   -0.2190    1.8318 C   0  0  0  0  0  0  0  0  0  0  0  0
    3.9456   -1.3909    1.5658 O   0  0  0  0  0  0  0  0  0  0  0  0
    4.8276    0.1547    3.0021 N   0  0  0  0  0  0  0  0  0  0  0  0
    5.2405   -0.8924    3.9263 C   0  0  0  0  0  0  0  0  0  0  0  0
    6.6384   -0.5985    4.4847 C   0  0  0  0  0  0  0  0  0  0  0  0
    6.7502    0.8045    5.1017 C   0  0  2  0  0  0  0  0  0  0  0  0
    5.9967    0.8571    6.3581 N   0  0  0  0  0  0  0  0  0  0  0  0
    6.2513    1.8592    7.2800 C   0  0  0  0  0  0  0  0  0  0  0  0
    6.9847    2.8070    7.0342 O   0  0  0  0  0  0  0  0  0  0  0  0
    5.6122    1.6971    8.4915 N   0  0  0  0  0  0  0  0  0  0  0  0
    5.6930    2.7237    9.5296 C   0  0  1  0  0  0  0  0  0  0  0  0
    4.6809    3.8700    9.3175 C   0  0  0  0  0  0  0  0  0  0  0  0
    3.2340    3.4278    9.5717 C   0  0  0  0  0  0  0  0  0  0  0  0
    3.0721    2.8088   10.9675 C   0  0  0  0  0  0  0  0  0  0  0  0
    4.0618    1.6566   11.1917 C   0  0  0  0  0  0  0  0  0  0  0  0
    5.5106    2.0926   10.9211 C   0  0  0  0  0  0  0  0  0  0  0  0
    6.2365    1.8544    4.0970 C   0  0  0  0  0  0  0  0  0  0  0  0
    4.8441    1.4994    3.5727 C   0  0  0  0  0  0  0  0  0  0  0  0
    1.5221   -0.2737   -1.3171 H   0  0  0  0  0  0  0  0  0  0  0  0
    1.1970    0.6163    0.2018 H   0  0  0  0  0  0  0  0  0  0  0  0
    1.9071   -1.0233    0.2560 H   0  0  0  0  0  0  0  0  0  0  0  0
    3.9714   -0.2120   -0.8468 H   0  0  0  0  0  0  0  0  0  0  0  0
    2.5671    2.5192   -0.7399 H   0  0  0  0  0  0  0  0  0  0  0  0
    3.0147    1.5834   -2.1962 H   0  0  0  0  0  0  0  0  0  0  0  0
    3.9155    4.3055   -1.4323 H   0  0  0  0  0  0  0  0  0  0  0  0
    6.8415    3.4492   -1.3619 H   0  0  0  0  0  0  0  0  0  0  0  0
    6.1075    4.7781   -0.4299 H   0  0  0  0  0  0  0  0  0  0  0  0
    7.4021    5.1786   -2.9211 H   0  0  0  0  0  0  0  0  0  0  0  0
    6.0973    6.2491   -2.3521 H   0  0  0  0  0  0  0  0  0  0  0  0
    5.3805    2.6643   -3.5655 H   0  0  0  0  0  0  0  0  0  0  0  0
    3.8414    3.5608   -3.7755 H   0  0  0  0  0  0  0  0  0  0  0  0
    4.4569    1.6141    0.9729 H   0  0  0  0  0  0  0  0  0  0  0  0
    5.2170   -1.8462    3.3858 H   0  0  0  0  0  0  0  0  0  0  0  0
    4.5054   -0.9761    4.7538 H   0  0  0  0  0  0  0  0  0  0  0  0
    7.3699   -0.6712    3.6637 H   0  0  0  0  0  0  0  0  0  0  0  0
    6.9168   -1.3664    5.2278 H   0  0  0  0  0  0  0  0  0  0  0  0
    7.8078    1.0301    5.3203 H   0  0  0  0  0  0  0  0  0  0  0  0
    5.6583   -0.0270    6.7211 H   0  0  0  0  0  0  0  0  0  0  0  0
    4.8489    1.0331    8.5417 H   0  0  0  0  0  0  0  0  0  0  0  0
    6.7064    3.1411    9.4448 H   0  0  0  0  0  0  0  0  0  0  0  0
    4.8057    4.2728    8.3002 H   0  0  0  0  0  0  0  0  0  0  0  0
    4.9387    4.6888   10.0135 H   0  0  0  0  0  0  0  0  0  0  0  0
    2.9349    2.6878    8.8059 H   0  0  0  0  0  0  0  0  0  0  0  0
    2.5480    4.2822    9.4483 H   0  0  0  0  0  0  0  0  0  0  0  0
    2.0368    2.4598   11.1188 H   0  0  0  0  0  0  0  0  0  0  0  0
    3.2510    3.5890   11.7307 H   0  0  0  0  0  0  0  0  0  0  0  0
    3.7915    0.8096   10.5317 H   0  0  0  0  0  0  0  0  0  0  0  0
    3.9737    1.2664   12.2194 H   0  0  0  0  0  0  0  0  0  0  0  0
    6.2042    1.2435   11.0354 H   0  0  0  0  0  0  0  0  0  0  0  0
    5.8016    2.8446   11.6751 H   0  0  0  0  0  0  0  0  0  0  0  0
    6.9443    1.9033    3.2516 H   0  0  0  0  0  0  0  0  0  0  0  0
    6.2310    2.8410    4.5824 H   0  0  0  0  0  0  0  0  0  0  0  0
    4.5078    2.2327    2.8305 H   0  0  0  0  0  0  0  0  0  0  0  0
    4.1184    1.5507    4.4089 H   0  0  0  0  0  0  0  0  0  0  0  0
  1  2  1  0
  1 29  1  0
  1 30  1  0
  1 31  1  0
  2  3  1  0
  2 10  1  0
  2 32  1  6
  3  4  1  0
  3 33  1  0
  3 34  1  0
  4  5  1  0
  5  6  1  0
  5  9  1  0
  5 35  1  6
  6  7  1  0
  6 36  1  0
  6 37  1  0
  7  8  1  0
  7 38  1  0
  7 39  1  0
  8  9  1  0
  9 40  1  0
  9 41  1  0
 10 11  1  0
 10 42  1  0
 11 12  2  0
 11 13  1  0
 13 14  1  0
 13 28  1  0
 14 15  1  0
 14 43  1  0
 14 44  1  0
 15 16  1  0
 15 45  1  0
 15 46  1  0
 16 17  1  0
 16 27  1  0
 16 47  1  1
 17 18  1  0
 17 48  1  0
 18 19  2  0
 18 20  1  0
 20 21  1  0
 20 49  1  0
 21 22  1  0
 21 26  1  0
 21 50  1  1
 22 23  1  0
 22 51  1  0
 22 52  1  0
 23 24  1  0
 23 53  1  0
 23 54  1  0
 24 25  1  0
 24 55  1  0
 24 56  1  0
 25 26  1  0
 25 57  1  0
 25 58  1  0
 26 59  1  0
 26 60  1  0
 27 28  1  0
 27 61  1  0
 27 62  1  0
 28 63  1  0
 28 64  1  0
M  END

