
     RDKit          3D

 55 60  0  0  0  0  0  0  0  0999 V2000
    3.8739    3.6564   -2.1742 C   0  0  0  0  0  0  0  0  0  0  0  0
    3.6069    3.7927   -0.8082 C   0  0  0  0  0  0  0  0  0  0  0  0
    3.2667    2.6804   -0.0365 C   0  0  0  0  0  0  0  0  0  0  0  0
    3.1711    1.4068   -0.6266 C   0  0  0  0  0  0  0  0  0  0  0  0
    2.8130    0.2748    0.1545 N   0  0  0  0  0  0  0  0  0  0  0  0
    1.7615    0.3820    1.1051 C   0  0  0  0  0  0  0  0  0  0  0  0
    0.5685    1.0518    0.7778 C   0  0  0  0  0  0  0  0  0  0  0  0
   -0.4580    1.1656    1.7167 C   0  0  0  0  0  0  0  0  0  0  0  0
   -0.3235    0.6019    2.9896 C   0  0  0  0  0  0  0  0  0  0  0  0
    0.8578   -0.0716    3.3169 C   0  0  0  0  0  0  0  0  0  0  0  0
    1.8962   -0.1752    2.3899 C   0  0  0  0  0  0  0  0  0  0  0  0
    3.5005   -0.9521   -0.0105 C   0  0  0  0  0  0  0  0  0  0  0  0
    4.8902   -0.9795   -0.2304 C   0  0  0  0  0  0  0  0  0  0  0  0
    5.5599   -2.1899   -0.4001 C   0  0  0  0  0  0  0  0  0  0  0  0
    4.8821   -3.4217   -0.3475 C   0  0  0  0  0  0  0  0  0  0  0  0
    5.6265   -4.7057   -0.4749 C   0  0  0  0  0  0  0  0  0  0  0  0
    6.7042   -4.9544    0.3535 C   0  0  0  0  0  0  0  0  0  0  0  0
    7.4344   -6.1756    0.2950 C   0  0  0  0  0  0  0  0  0  0  0  0
    7.0843   -7.1594   -0.5928 C   0  0  0  0  0  0  0  0  0  0  0  0
    5.9907   -6.9629   -1.4958 C   0  0  0  0  0  0  0  0  0  0  0  0
    5.7039   -7.9457   -2.3610 N   0  0  0  0  0  0  0  0  0  0  0  0
    4.7107   -7.7775   -3.2429 C   0  0  0  0  0  0  0  0  0  0  0  0
    4.4065   -8.8346   -4.1619 C   0  0  0  0  0  0  0  0  0  0  0  0
    3.4074   -8.6875   -5.0912 C   0  0  0  0  0  0  0  0  0  0  0  0
    2.6498   -7.4787   -5.1650 C   0  0  0  0  0  0  0  0  0  0  0  0
    2.9082   -6.4430   -4.3018 C   0  0  0  0  0  0  0  0  0  0  0  0
    3.9370   -6.5585   -3.3143 C   0  0  0  0  0  0  0  0  0  0  0  0
    4.2395   -5.5405   -2.4000 C   0  0  0  0  0  0  0  0  0  0  0  0
    5.2561   -5.7112   -1.4499 C   0  0  0  0  0  0  0  0  0  0  0  0
    3.4937   -3.3851   -0.1161 C   0  0  0  0  0  0  0  0  0  0  0  0
    2.8130   -2.1797    0.0427 C   0  0  0  0  0  0  0  0  0  0  0  0
    3.4312    1.2761   -2.0032 C   0  0  0  0  0  0  0  0  0  0  0  0
    3.7873    2.3910   -2.7637 C   0  0  0  0  0  0  0  0  0  0  0  0
    4.1464    4.5280   -2.7739 H   0  0  0  0  0  0  0  0  0  0  0  0
    3.6763    4.7742   -0.3318 H   0  0  0  0  0  0  0  0  0  0  0  0
    3.0722    2.7924    1.0318 H   0  0  0  0  0  0  0  0  0  0  0  0
    0.4519    1.4832   -0.2183 H   0  0  0  0  0  0  0  0  0  0  0  0
   -1.3779    1.6898    1.4443 H   0  0  0  0  0  0  0  0  0  0  0  0
   -1.1316    0.6870    3.7199 H   0  0  0  0  0  0  0  0  0  0  0  0
    0.9806   -0.5108    4.3104 H   0  0  0  0  0  0  0  0  0  0  0  0
    2.8210   -0.6900    2.6574 H   0  0  0  0  0  0  0  0  0  0  0  0
    5.4473   -0.0420   -0.2718 H   0  0  0  0  0  0  0  0  0  0  0  0
    6.6379   -2.1812   -0.5793 H   0  0  0  0  0  0  0  0  0  0  0  0
    6.9864   -4.2037    1.0956 H   0  0  0  0  0  0  0  0  0  0  0  0
    8.2721   -6.3262    0.9809 H   0  0  0  0  0  0  0  0  0  0  0  0
    7.6160   -8.1106   -0.6524 H   0  0  0  0  0  0  0  0  0  0  0  0
    5.0016   -9.7470   -4.0889 H   0  0  0  0  0  0  0  0  0  0  0  0
    3.1845   -9.5002   -5.7876 H   0  0  0  0  0  0  0  0  0  0  0  0
    1.8609   -7.3846   -5.9154 H   0  0  0  0  0  0  0  0  0  0  0  0
    2.3304   -5.5158   -4.3527 H   0  0  0  0  0  0  0  0  0  0  0  0
    3.6789   -4.6047   -2.4409 H   0  0  0  0  0  0  0  0  0  0  0  0
    2.9341   -4.3211   -0.0472 H   0  0  0  0  0  0  0  0  0  0  0  0
    1.7358   -2.1859    0.2179 H   0  0  0  0  0  0  0  0  0  0  0  0
    3.3519    0.2942   -2.4736 H   0  0  0  0  0  0  0  0  0  0  0  0
    3.9858    2.2696   -3.8319 H   0  0  0  0  0  0  0  0  0  0  0  0
  1  2  2  0
  1 33  1  0
  1 34  1  0
  2  3  1  0
  2 35  1  0
  3  4  2  0
  3 36  1  0
  4  5  1  0
  4 32  1  0
  5  6  1  0
  5 12  1  0
  6  7  2  0
  6 11  1  0
  7  8  1  0
  7 37  1  0
  8  9  2  0
  8 38  1  0
  9 10  1  0
  9 39  1  0
 10 11  2  0
 10 40  1  0
 11 41  1  0
 12 13  2  0
 12 31  1  0
 13 14  1  0
 13 42  1  0
 14 15  2  0
 14 43  1  0
 15 16  1  0
 15 30  1  0
 16 17  2  0
 16 29  1  0
 17 18  1  0
 17 44  1  0
 18 19  2  0
 18 45  1  0
 19 20  1  0
 19 46  1  0
 20 21  1  0
 20 29  2  0
 21 22  2  0
 22 23  1  0
 22 27  1  0
 23 24  2  0
 23 47  1  0
 24 25  1  0
 24 48  1  0
 25 26  2  0
 25 49  1  0
 26 27  1  0
 26 50  1  0
 27 28  2  0
 28 29  1  0
 28 51  1  0
 30 31  2  0
 30 52  1  0
 31 53  1  0
 32 33  2  0
 32 54  1  0
 33 55  1  0
M  END

