
     RDKit          3D

 71 70  0  0  0  0  0  0  0  0999 V2000
    8.5851   -3.9302   -7.6861 C   0  0  0  0  0  0  0  0  0  0  0  0
    8.2744   -4.7268   -6.4182 C   0  0  0  0  0  0  0  0  0  0  0  0
    8.5327   -3.9472   -5.1250 C   0  0  0  0  0  0  0  0  0  0  0  0
    8.2241   -4.7387   -3.8510 C   0  0  0  0  0  0  0  0  0  0  0  0
    8.4833   -3.9591   -2.5585 C   0  0  0  0  0  0  0  0  0  0  0  0
    8.1771   -4.7561   -1.2870 C   0  0  0  0  0  0  0  0  0  0  0  0
    8.4393   -3.9604   -0.0018 C   0  0  0  0  0  0  0  0  0  0  0  0
    8.0467   -4.6515    1.3143 C   0  0  0  0  0  0  0  0  0  0  0  0
    8.8701   -5.8577    1.7747 C   0  0  1  0  0  0  0  0  0  0  0  0
    8.6957   -6.9649    0.8515 O   0  0  0  0  0  0  0  0  0  0  0  0
    8.0058   -8.0342    1.2442 C   0  0  0  0  0  0  0  0  0  0  0  0
    7.4021   -8.1788    2.2678 O   0  0  0  0  0  0  0  0  0  0  0  0
    8.1005   -9.1184    0.1435 C   0  0  1  0  0  0  0  0  0  0  0  0
    9.3797   -9.4759   -0.0411 F   0  0  0  0  0  0  0  0  0  0  0  0
    7.4029  -10.1926    0.4876 F   0  0  0  0  0  0  0  0  0  0  0  0
    7.6254   -8.6494   -1.0174 F   0  0  0  0  0  0  0  0  0  0  0  0
   10.3859   -5.6431    1.8744 C   0  0  1  0  0  0  0  0  0  0  0  0
   10.7907   -4.5880    2.9027 C   0  0  0  0  0  0  0  0  0  0  0  0
   12.3051   -4.4596    3.1327 C   0  0  0  0  0  0  0  0  0  0  0  0
   13.1432   -4.0164    1.9208 C   0  0  0  0  0  0  0  0  0  0  0  0
   12.7943   -2.6481    1.3151 C   0  0  0  0  0  0  0  0  0  0  0  0
   12.9866   -1.4522    2.2543 C   0  0  0  0  0  0  0  0  0  0  0  0
   12.6995   -0.1058    1.5839 C   0  0  0  0  0  0  0  0  0  0  0  0
   12.9048    1.0866    2.5149 C   0  0  0  0  0  0  0  0  0  0  0  0
   12.5685    2.4179    1.8746 C   0  0  0  0  0  0  0  0  0  0  0  0
   12.0604    2.5690    0.7906 O   0  0  0  0  0  0  0  0  0  0  0  0
   12.9016    3.4432    2.6835 O   0  0  0  0  0  0  0  0  0  0  0  0
   12.6135    4.7534    2.1961 C   0  0  0  0  0  0  0  0  0  0  0  0
   10.9300   -6.9219    2.2943 O   0  0  0  0  0  0  0  0  0  0  0  0
   11.7180   -7.6007    1.4628 C   0  0  0  0  0  0  0  0  0  0  0  0
   12.1379   -7.2480    0.3978 O   0  0  0  0  0  0  0  0  0  0  0  0
   12.0597   -8.9657    2.1063 C   0  0  1  0  0  0  0  0  0  0  0  0
   10.9420   -9.6283    2.4274 F   0  0  0  0  0  0  0  0  0  0  0  0
   12.7736   -9.7088    1.2712 F   0  0  0  0  0  0  0  0  0  0  0  0
   12.7716   -8.7743    3.2268 F   0  0  0  0  0  0  0  0  0  0  0  0
    8.3881   -4.5210   -8.5950 H   0  0  0  0  0  0  0  0  0  0  0  0
    9.6430   -3.6188   -7.7150 H   0  0  0  0  0  0  0  0  0  0  0  0
    7.9722   -3.0149   -7.7452 H   0  0  0  0  0  0  0  0  0  0  0  0
    8.8758   -5.6541   -6.4082 H   0  0  0  0  0  0  0  0  0  0  0  0
    7.2194   -5.0560   -6.4383 H   0  0  0  0  0  0  0  0  0  0  0  0
    7.9312   -3.0186   -5.1335 H   0  0  0  0  0  0  0  0  0  0  0  0
    9.5886   -3.6179   -5.1035 H   0  0  0  0  0  0  0  0  0  0  0  0
    8.8252   -5.6667   -3.8424 H   0  0  0  0  0  0  0  0  0  0  0  0
    7.1684   -5.0676   -3.8724 H   0  0  0  0  0  0  0  0  0  0  0  0
    7.8825   -3.0303   -2.5644 H   0  0  0  0  0  0  0  0  0  0  0  0
    9.5394   -3.6309   -2.5375 H   0  0  0  0  0  0  0  0  0  0  0  0
    8.7660   -5.6874   -1.2866 H   0  0  0  0  0  0  0  0  0  0  0  0
    7.1190   -5.0772   -1.3017 H   0  0  0  0  0  0  0  0  0  0  0  0
    7.8709   -3.0150   -0.0540 H   0  0  0  0  0  0  0  0  0  0  0  0
    9.5005   -3.6539    0.0312 H   0  0  0  0  0  0  0  0  0  0  0  0
    6.9954   -4.9819    1.2611 H   0  0  0  0  0  0  0  0  0  0  0  0
    8.0792   -3.9150    2.1346 H   0  0  0  0  0  0  0  0  0  0  0  0
    8.4974   -6.1929    2.7537 H   0  0  0  0  0  0  0  0  0  0  0  0
   10.7984   -5.4195    0.8816 H   0  0  0  0  0  0  0  0  0  0  0  0
   10.3018   -4.8325    3.8614 H   0  0  0  0  0  0  0  0  0  0  0  0
   10.3728   -3.6215    2.5789 H   0  0  0  0  0  0  0  0  0  0  0  0
   12.6881   -5.4284    3.4943 H   0  0  0  0  0  0  0  0  0  0  0  0
   12.4564   -3.7553    3.9677 H   0  0  0  0  0  0  0  0  0  0  0  0
   13.0824   -4.7817    1.1285 H   0  0  0  0  0  0  0  0  0  0  0  0
   14.2029   -4.0042    2.2322 H   0  0  0  0  0  0  0  0  0  0  0  0
   11.7543   -2.6492    0.9393 H   0  0  0  0  0  0  0  0  0  0  0  0
   13.4224   -2.4984    0.4194 H   0  0  0  0  0  0  0  0  0  0  0  0
   14.0228   -1.4593    2.6413 H   0  0  0  0  0  0  0  0  0  0  0  0
   12.3368   -1.5573    3.1422 H   0  0  0  0  0  0  0  0  0  0  0  0
   11.6655   -0.0874    1.2002 H   0  0  0  0  0  0  0  0  0  0  0  0
   13.3422    0.0144    0.6949 H   0  0  0  0  0  0  0  0  0  0  0  0
   13.9427    1.1415    2.8856 H   0  0  0  0  0  0  0  0  0  0  0  0
   12.2812    0.9961    3.4230 H   0  0  0  0  0  0  0  0  0  0  0  0
   12.9461    5.4508    2.9750 H   0  0  0  0  0  0  0  0  0  0  0  0
   11.5354    4.8759    2.0104 H   0  0  0  0  0  0  0  0  0  0  0  0
   13.1502    4.9493    1.2552 H   0  0  0  0  0  0  0  0  0  0  0  0
  1  2  1  0
  1 36  1  0
  1 37  1  0
  1 38  1  0
  2  3  1  0
  2 39  1  0
  2 40  1  0
  3  4  1  0
  3 41  1  0
  3 42  1  0
  4  5  1  0
  4 43  1  0
  4 44  1  0
  5  6  1  0
  5 45  1  0
  5 46  1  0
  6  7  1  0
  6 47  1  0
  6 48  1  0
  7  8  1  0
  7 49  1  0
  7 50  1  0
  8  9  1  0
  8 51  1  0
  8 52  1  0
  9 10  1  0
  9 17  1  0
  9 53  1  1
 10 11  1  0
 11 12  2  0
 11 13  1  0
 13 14  1  6
 13 15  1  0
 13 16  1  0
 17 18  1  0
 17 29  1  0
 17 54  1  6
 18 19  1  0
 18 55  1  0
 18 56  1  0
 19 20  1  0
 19 57  1  0
 19 58  1  0
 20 21  1  0
 20 59  1  0
 20 60  1  0
 21 22  1  0
 21 61  1  0
 21 62  1  0
 22 23  1  0
 22 63  1  0
 22 64  1  0
 23 24  1  0
 23 65  1  0
 23 66  1  0
 24 25  1  0
 24 67  1  0
 24 68  1  0
 25 26  2  0
 25 27  1  0
 27 28  1  0
 28 69  1  0
 28 70  1  0
 28 71  1  0
 29 30  1  0
 30 31  2  0
 30 32  1  0
 32 33  1  1
 32 34  1  0
 32 35  1  0
M  END

