
     RDKit          3D

 66 71  0  0  0  0  0  0  0  0999 V2000
    0.9617    0.7408    1.1104 C   0  0  0  0  0  0  0  0  0  0  0  0
    2.3392    0.4853    0.5958 C   0  0  0  0  0  0  0  0  0  0  0  0
    3.0890   -0.6564    0.6310 C   0  0  0  0  0  0  0  0  0  0  0  0
    2.7299   -2.0164    1.1650 C   0  0  0  0  0  0  0  0  0  0  0  0
    1.5015   -2.5027    0.5890 O   0  0  0  0  0  0  0  0  0  0  0  0
    1.5439   -2.9975   -0.6624 C   0  0  0  0  0  0  0  0  0  0  0  0
    2.5552   -3.0605   -1.3231 O   0  0  0  0  0  0  0  0  0  0  0  0
    0.1625   -3.4259   -1.1304 C   0  0  0  0  0  0  0  0  0  0  0  0
   -0.4702   -2.3761   -2.0071 C   0  0  0  0  0  0  0  0  0  0  0  0
   -1.2312   -1.3067   -1.5865 C   0  0  0  0  0  0  0  0  0  0  0  0
   -1.6071   -0.5434   -2.6702 N   0  0  0  0  0  0  0  0  0  0  0  0
   -2.1726    0.2934   -2.6256 H   0  0  0  0  0  0  0  0  0  0  0  0
   -1.0984   -1.1020   -3.8228 C   0  0  0  0  0  0  0  0  0  0  0  0
   -1.2187   -0.6993   -5.1605 C   0  0  0  0  0  0  0  0  0  0  0  0
   -0.5950   -1.4816   -6.1276 C   0  0  0  0  0  0  0  0  0  0  0  0
    0.1331   -2.6397   -5.7737 C   0  0  0  0  0  0  0  0  0  0  0  0
    0.2554   -3.0345   -4.4451 C   0  0  0  0  0  0  0  0  0  0  0  0
   -0.3665   -2.2644   -3.4427 C   0  0  0  0  0  0  0  0  0  0  0  0
    4.3471   -0.3873    0.1015 N   0  0  0  0  0  0  0  0  0  0  0  0
    5.3520   -1.0919   -0.5511 C   0  0  0  0  0  0  0  0  0  0  0  0
    5.5078   -2.3676   -0.1968 O   0  0  0  0  0  0  0  0  0  0  0  0
    5.6720   -3.3410   -1.2187 C   0  0  0  0  0  0  0  0  0  0  0  0
    5.1031   -4.6677   -0.7328 C   0  0  0  0  0  0  0  0  0  0  0  0
    4.6800   -4.8090    0.3896 O   0  0  0  0  0  0  0  0  0  0  0  0
    5.0622   -5.8228   -1.7391 C   0  0  0  0  0  0  0  0  0  0  0  0
    5.8044   -5.6774   -3.0354 C   0  0  0  0  0  0  0  0  0  0  0  0
    7.0075   -6.2658   -3.3634 C   0  0  0  0  0  0  0  0  0  0  0  0
    7.3639   -5.9288   -4.6516 N   0  0  0  0  0  0  0  0  0  0  0  0
    8.1976   -6.2454   -5.1278 H   0  0  0  0  0  0  0  0  0  0  0  0
    6.3950   -5.1128   -5.1956 C   0  0  0  0  0  0  0  0  0  0  0  0
    6.3087   -4.5195   -6.4633 C   0  0  0  0  0  0  0  0  0  0  0  0
    5.1936   -3.7305   -6.7307 C   0  0  0  0  0  0  0  0  0  0  0  0
    4.1860   -3.5327   -5.7604 C   0  0  0  0  0  0  0  0  0  0  0  0
    4.2712   -4.1236   -4.5032 C   0  0  0  0  0  0  0  0  0  0  0  0
    5.3891   -4.9303   -4.2030 C   0  0  0  0  0  0  0  0  0  0  0  0
    6.0477   -0.2680   -1.3920 C   0  0  0  0  0  0  0  0  0  0  0  0
    7.2724   -0.5374   -2.2086 C   0  0  0  0  0  0  0  0  0  0  0  0
    5.4266    1.0655   -1.3129 C   0  0  0  0  0  0  0  0  0  0  0  0
    5.7028    2.0927   -1.8839 O   0  0  0  0  0  0  0  0  0  0  0  0
    4.3848    0.9194   -0.3340 N   0  0  0  0  0  0  0  0  0  0  0  0
    3.1287    1.5429   -0.0703 C   0  0  0  0  0  0  0  0  0  0  0  0
    2.8294    2.6815   -0.3430 O   0  0  0  0  0  0  0  0  0  0  0  0
    0.5164   -0.1585    1.5572 H   0  0  0  0  0  0  0  0  0  0  0  0
    0.3047    1.0828    0.2936 H   0  0  0  0  0  0  0  0  0  0  0  0
    0.9692    1.5473    1.8627 H   0  0  0  0  0  0  0  0  0  0  0  0
    2.5126   -1.9509    2.2403 H   0  0  0  0  0  0  0  0  0  0  0  0
    3.5384   -2.7406    1.0061 H   0  0  0  0  0  0  0  0  0  0  0  0
   -0.4621   -3.6269   -0.2491 H   0  0  0  0  0  0  0  0  0  0  0  0
    0.2838   -4.3643   -1.6918 H   0  0  0  0  0  0  0  0  0  0  0  0
   -1.5384   -1.0321   -0.5788 H   0  0  0  0  0  0  0  0  0  0  0  0
   -1.7816    0.1963   -5.4353 H   0  0  0  0  0  0  0  0  0  0  0  0
   -0.6699   -1.1952   -7.1795 H   0  0  0  0  0  0  0  0  0  0  0  0
    0.6072   -3.2339   -6.5588 H   0  0  0  0  0  0  0  0  0  0  0  0
    0.8282   -3.9283   -4.1862 H   0  0  0  0  0  0  0  0  0  0  0  0
    6.7388   -3.4812   -1.4678 H   0  0  0  0  0  0  0  0  0  0  0  0
    5.1522   -3.0341   -2.1379 H   0  0  0  0  0  0  0  0  0  0  0  0
    3.9844   -5.9749   -1.9320 H   0  0  0  0  0  0  0  0  0  0  0  0
    5.3897   -6.7177   -1.1864 H   0  0  0  0  0  0  0  0  0  0  0  0
    7.6383   -6.9230   -2.7662 H   0  0  0  0  0  0  0  0  0  0  0  0
    7.0885   -4.6686   -7.2145 H   0  0  0  0  0  0  0  0  0  0  0  0
    5.0982   -3.2512   -7.7081 H   0  0  0  0  0  0  0  0  0  0  0  0
    3.3275   -2.9004   -5.9981 H   0  0  0  0  0  0  0  0  0  0  0  0
    3.4900   -3.9470   -3.7586 H   0  0  0  0  0  0  0  0  0  0  0  0
    8.0522   -1.0560   -1.6274 H   0  0  0  0  0  0  0  0  0  0  0  0
    7.6822    0.4235   -2.5532 H   0  0  0  0  0  0  0  0  0  0  0  0
    7.0597   -1.1434   -3.1056 H   0  0  0  0  0  0  0  0  0  0  0  0
  1  2  1  0
  1 43  1  0
  1 44  1  0
  1 45  1  0
  2  3  2  0
  2 41  1  0
  3  4  1  0
  3 19  1  0
  4  5  1  0
  4 46  1  0
  4 47  1  0
  5  6  1  0
  6  7  2  0
  6  8  1  0
  8  9  1  0
  8 48  1  0
  8 49  1  0
  9 10  2  0
  9 18  1  0
 10 11  1  0
 10 50  1  0
 11 12  1  0
 11 13  1  0
 13 14  1  0
 13 18  2  0
 14 15  2  0
 14 51  1  0
 15 16  1  0
 15 52  1  0
 16 17  2  0
 16 53  1  0
 17 18  1  0
 17 54  1  0
 19 20  1  0
 19 40  1  0
 20 21  1  0
 20 36  2  0
 21 22  1  0
 22 23  1  0
 22 55  1  0
 22 56  1  0
 23 24  2  0
 23 25  1  0
 25 26  1  0
 25 57  1  0
 25 58  1  0
 26 27  2  0
 26 35  1  0
 27 28  1  0
 27 59  1  0
 28 29  1  0
 28 30  1  0
 30 31  1  0
 30 35  2  0
 31 32  2  0
 31 60  1  0
 32 33  1  0
 32 61  1  0
 33 34  2  0
 33 62  1  0
 34 35  1  0
 34 63  1  0
 36 37  1  0
 36 38  1  0
 37 64  1  0
 37 65  1  0
 37 66  1  0
 38 39  2  0
 38 40  1  0
 40 41  1  0
 41 42  2  0
M  END

