
     RDKit          3D

 35 36  0  0  0  0  0  0  0  0999 V2000
    1.7169   -0.3572   -1.7148 C   0  0  0  0  0  0  0  0  0  0  0  0
    2.8932   -0.2967   -0.7408 C   0  0  0  0  0  0  0  0  0  0  0  0
    3.3191   -1.6714   -0.2461 C   0  0  0  0  0  0  0  0  0  0  0  0
    4.4051   -1.5086    0.6423 O   0  0  0  0  0  0  0  0  0  0  0  0
    4.9645   -2.6052    1.2300 C   0  0  0  0  0  0  0  0  0  0  0  0
    6.0455   -2.3273    2.1072 C   0  0  0  0  0  0  0  0  0  0  0  0
    6.7155   -3.3399    2.7782 C   0  0  0  0  0  0  0  0  0  0  0  0
    6.2889   -4.6628    2.5698 C   0  0  0  0  0  0  0  0  0  0  0  0
    5.2134   -4.9627    1.6882 C   0  0  0  0  0  0  0  0  0  0  0  0
    5.0501   -6.3892    1.7066 C   0  0  0  0  0  0  0  0  0  0  0  0
    5.9949   -6.8870    2.5732 C   0  0  0  0  0  0  0  0  0  0  0  0
    6.7514   -5.8594    3.1038 N   0  0  0  0  0  0  0  0  0  0  0  0
    7.8244   -6.0283    4.0671 C   0  0  0  0  0  0  0  0  0  0  0  0
    9.2120   -6.2739    3.4544 C   0  0  0  0  0  0  0  0  0  0  0  0
    9.7776   -5.0872    2.6957 C   0  0  0  0  0  0  0  0  0  0  0  0
    9.8725   -3.9898    3.5458 F   0  0  0  0  0  0  0  0  0  0  0  0
    4.5455   -3.9171    1.0123 C   0  0  0  0  0  0  0  0  0  0  0  0
    1.4314    0.6501   -2.0551 H   0  0  0  0  0  0  0  0  0  0  0  0
    0.8272   -0.8130   -1.2487 H   0  0  0  0  0  0  0  0  0  0  0  0
    1.9622   -0.9516   -2.6110 H   0  0  0  0  0  0  0  0  0  0  0  0
    2.6367    0.3234    0.1349 H   0  0  0  0  0  0  0  0  0  0  0  0
    3.7633    0.1861   -1.2172 H   0  0  0  0  0  0  0  0  0  0  0  0
    3.6125   -2.3150   -1.0995 H   0  0  0  0  0  0  0  0  0  0  0  0
    2.4755   -2.1763    0.2656 H   0  0  0  0  0  0  0  0  0  0  0  0
    6.3392   -1.2833    2.2327 H   0  0  0  0  0  0  0  0  0  0  0  0
    7.5635   -3.1058    3.4239 H   0  0  0  0  0  0  0  0  0  0  0  0
    4.3162   -6.9741    1.1558 H   0  0  0  0  0  0  0  0  0  0  0  0
    6.1882   -7.9164    2.8728 H   0  0  0  0  0  0  0  0  0  0  0  0
    7.5637   -6.8750    4.7213 H   0  0  0  0  0  0  0  0  0  0  0  0
    7.8628   -5.1344    4.7075 H   0  0  0  0  0  0  0  0  0  0  0  0
    9.1734   -7.1412    2.7730 H   0  0  0  0  0  0  0  0  0  0  0  0
    9.9068   -6.5372    4.2707 H   0  0  0  0  0  0  0  0  0  0  0  0
    9.1343   -4.8036    1.8462 H   0  0  0  0  0  0  0  0  0  0  0  0
   10.7886   -5.3096    2.3139 H   0  0  0  0  0  0  0  0  0  0  0  0
    3.7212   -4.1502    0.3383 H   0  0  0  0  0  0  0  0  0  0  0  0
  1  2  1  0
  1 18  1  0
  1 19  1  0
  1 20  1  0
  2  3  1  0
  2 21  1  0
  2 22  1  0
  3  4  1  0
  3 23  1  0
  3 24  1  0
  4  5  1  0
  5  6  2  0
  5 17  1  0
  6  7  1  0
  6 25  1  0
  7  8  2  0
  7 26  1  0
  8  9  1  0
  8 12  1  0
  9 10  1  0
  9 17  2  0
 10 11  2  0
 10 27  1  0
 11 12  1  0
 11 28  1  0
 12 13  1  0
 13 14  1  0
 13 29  1  0
 13 30  1  0
 14 15  1  0
 14 31  1  0
 14 32  1  0
 15 16  1  0
 15 33  1  0
 15 34  1  0
 17 35  1  0
M  END

