
     RDKit          3D

 64 68  0  0  0  0  0  0  0  0999 V2000
   14.8901   -3.5139   -3.8711 C   0  0  0  0  0  0  0  0  0  0  0  0
   13.7606   -2.8209   -3.1492 C   0  0  0  0  0  0  0  0  0  0  0  0
   14.0209   -1.9115   -2.1081 C   0  0  0  0  0  0  0  0  0  0  0  0
   12.9909   -1.2874   -1.4096 C   0  0  0  0  0  0  0  0  0  0  0  0
   11.6544   -1.5511   -1.7472 C   0  0  0  0  0  0  0  0  0  0  0  0
   10.6178   -0.8981   -1.0321 N   0  0  0  0  0  0  0  0  0  0  0  0
   10.7663    0.4101   -0.6848 N   0  0  0  0  0  0  0  0  0  0  0  0
    9.6703    0.7326   -0.0121 C   0  0  0  0  0  0  0  0  0  0  0  0
    9.4785    2.1217    0.5145 C   0  0  0  0  0  0  0  0  0  0  0  0
    8.7836   -0.3737    0.1044 C   0  0  0  0  0  0  0  0  0  0  0  0
    9.4307   -1.4069   -0.5523 C   0  0  0  0  0  0  0  0  0  0  0  0
    9.0865   -2.7424   -0.7126 N   0  0  0  0  0  0  0  0  0  0  0  0
    7.9342   -3.3316   -0.2587 C   0  0  0  0  0  0  0  0  0  0  0  0
    7.0292   -2.7576    0.3156 O   0  0  0  0  0  0  0  0  0  0  0  0
    7.8548   -4.8305   -0.5960 C   0  0  0  0  0  0  0  0  0  0  0  0
    9.1384   -5.4278   -0.9302 N   0  0  0  0  0  0  0  0  0  0  0  0
    9.9181   -5.8789    0.2297 C   0  0  0  0  0  0  0  0  0  0  0  0
    9.4155   -7.2097    0.8129 C   0  0  0  0  0  0  0  0  0  0  0  0
    9.3463   -8.3313   -0.2571 C   0  0  2  0  0  0  0  0  0  0  0  0
   10.7501   -8.8591   -0.5754 C   0  0  0  0  0  0  0  0  0  0  0  0
   11.5302   -8.2549   -1.2976 O   0  0  0  0  0  0  0  0  0  0  0  0
   11.0559  -10.0429    0.0520 N   0  0  0  0  0  0  0  0  0  0  0  0
   12.2599  -10.7833    0.0381 C   0  0  0  0  0  0  0  0  0  0  0  0
   13.3994  -10.3818   -0.6767 C   0  0  0  0  0  0  0  0  0  0  0  0
   14.5743  -11.1596   -0.6557 C   0  0  0  0  0  0  0  0  0  0  0  0
   14.5680  -12.3265    0.0836 C   0  0  0  0  0  0  0  0  0  0  0  0
   13.4336  -12.7260    0.7941 C   0  0  0  0  0  0  0  0  0  0  0  0
   12.2701  -11.9834    0.7948 C   0  0  0  0  0  0  0  0  0  0  0  0
   13.6992  -13.8902    1.4567 O   0  0  0  0  0  0  0  0  0  0  0  0
   14.9837  -14.3166    1.0022 C   0  0  0  0  0  0  0  0  0  0  0  0
   15.5731  -13.2345    0.2919 O   0  0  0  0  0  0  0  0  0  0  0  0
    8.6158   -7.8151   -1.5183 C   0  0  0  0  0  0  0  0  0  0  0  0
    9.1306   -6.4432   -1.9882 C   0  0  0  0  0  0  0  0  0  0  0  0
   11.3750   -2.4278   -2.8038 C   0  0  0  0  0  0  0  0  0  0  0  0
   12.4211   -3.0614   -3.4820 C   0  0  0  0  0  0  0  0  0  0  0  0
   15.6747   -2.8006   -4.1709 H   0  0  0  0  0  0  0  0  0  0  0  0
   14.5362   -4.0299   -4.7759 H   0  0  0  0  0  0  0  0  0  0  0  0
   15.3712   -4.2694   -3.2258 H   0  0  0  0  0  0  0  0  0  0  0  0
   15.0569   -1.6917   -1.8338 H   0  0  0  0  0  0  0  0  0  0  0  0
   13.1985   -0.5795   -0.6066 H   0  0  0  0  0  0  0  0  0  0  0  0
   10.3588    2.7355    0.2782 H   0  0  0  0  0  0  0  0  0  0  0  0
    9.3343    2.1202    1.6076 H   0  0  0  0  0  0  0  0  0  0  0  0
    8.5900    2.6001    0.0700 H   0  0  0  0  0  0  0  0  0  0  0  0
    7.8208   -0.4400    0.5985 H   0  0  0  0  0  0  0  0  0  0  0  0
    9.7420   -3.4025   -1.1358 H   0  0  0  0  0  0  0  0  0  0  0  0
    7.1773   -4.9096   -1.4630 H   0  0  0  0  0  0  0  0  0  0  0  0
    7.3189   -5.3024    0.2496 H   0  0  0  0  0  0  0  0  0  0  0  0
    9.8952   -5.0951    1.0036 H   0  0  0  0  0  0  0  0  0  0  0  0
   10.9670   -5.9904   -0.0875 H   0  0  0  0  0  0  0  0  0  0  0  0
    8.4042   -7.0738    1.2330 H   0  0  0  0  0  0  0  0  0  0  0  0
   10.0607   -7.5182    1.6527 H   0  0  0  0  0  0  0  0  0  0  0  0
    8.7556   -9.1636    0.1627 H   0  0  0  0  0  0  0  0  0  0  0  0
   10.3163  -10.4474    0.6129 H   0  0  0  0  0  0  0  0  0  0  0  0
   13.3611   -9.4601   -1.2508 H   0  0  0  0  0  0  0  0  0  0  0  0
   15.4619  -10.8456   -1.2070 H   0  0  0  0  0  0  0  0  0  0  0  0
   11.3971  -12.3146    1.3613 H   0  0  0  0  0  0  0  0  0  0  0  0
   14.8660  -15.1893    0.3289 H   0  0  0  0  0  0  0  0  0  0  0  0
   15.6123  -14.5829    1.8673 H   0  0  0  0  0  0  0  0  0  0  0  0
    7.5402   -7.7410   -1.2790 H   0  0  0  0  0  0  0  0  0  0  0  0
    8.7052   -8.5462   -2.3387 H   0  0  0  0  0  0  0  0  0  0  0  0
    8.5156   -6.0765   -2.8256 H   0  0  0  0  0  0  0  0  0  0  0  0
   10.1600   -6.5574   -2.3565 H   0  0  0  0  0  0  0  0  0  0  0  0
   10.3442   -2.5953   -3.1214 H   0  0  0  0  0  0  0  0  0  0  0  0
   12.1838   -3.7438   -4.3029 H   0  0  0  0  0  0  0  0  0  0  0  0
  1  2  1  0
  1 36  1  0
  1 37  1  0
  1 38  1  0
  2  3  2  0
  2 35  1  0
  3  4  1  0
  3 39  1  0
  4  5  2  0
  4 40  1  0
  5  6  1  0
  5 34  1  0
  6  7  1  0
  6 11  1  0
  7  8  2  0
  8  9  1  0
  8 10  1  0
  9 41  1  0
  9 42  1  0
  9 43  1  0
 10 11  2  0
 10 44  1  0
 11 12  1  0
 12 13  1  0
 12 45  1  0
 13 14  2  0
 13 15  1  0
 15 16  1  0
 15 46  1  0
 15 47  1  0
 16 17  1  0
 16 33  1  0
 17 18  1  0
 17 48  1  0
 17 49  1  0
 18 19  1  0
 18 50  1  0
 18 51  1  0
 19 20  1  0
 19 32  1  0
 19 52  1  1
 20 21  2  0
 20 22  1  0
 22 23  1  0
 22 53  1  0
 23 24  2  0
 23 28  1  0
 24 25  1  0
 24 54  1  0
 25 26  2  0
 25 55  1  0
 26 27  1  0
 26 31  1  0
 27 28  2  0
 27 29  1  0
 28 56  1  0
 29 30  1  0
 30 31  1  0
 30 57  1  0
 30 58  1  0
 32 33  1  0
 32 59  1  0
 32 60  1  0
 33 61  1  0
 33 62  1  0
 34 35  2  0
 34 63  1  0
 35 64  1  0
M  END

