
     RDKit          3D

 38 39  0  0  0  0  0  0  0  0999 V2000
    0.5795   -0.3570    0.5197 C   0  0  0  0  0  0  0  0  0  0  0  0
    2.0167   -0.2909    0.0150 C   0  0  0  0  0  0  0  0  0  0  0  0
    2.9267   -0.9547    0.9363 N   0  0  0  0  0  0  0  0  0  0  0  0
    4.3394   -0.9692    0.5765 C   0  0  1  0  0  0  0  0  0  0  0  0
    4.9511    0.4211    0.9002 C   0  0  0  0  0  0  0  0  0  0  0  0
    4.7811    0.8241    2.3248 C   0  0  0  0  0  0  0  0  0  0  0  0
    5.3759    0.3698    3.3865 N   0  0  0  0  0  0  0  0  0  0  0  0
    4.7962    1.1005    4.3951 C   0  0  0  0  0  0  0  0  0  0  0  0
    5.1460    0.9416    5.8280 C   0  0  0  0  0  0  0  0  0  0  0  0
    6.0639    0.0162    6.1279 N   0  0  0  0  0  0  0  0  0  0  0  0
    6.3746   -0.1230    7.4161 C   0  0  0  0  0  0  0  0  0  0  0  0
    5.7795    0.6510    8.4141 C   0  0  0  0  0  0  0  0  0  0  0  0
    4.8336    1.5866    7.9854 C   0  0  0  0  0  0  0  0  0  0  0  0
    4.5147    1.7359    6.7024 N   0  0  0  0  0  0  0  0  0  0  0  0
    3.8973    1.9665    3.9826 N   0  0  0  0  0  0  0  0  0  0  0  0
    3.8862    1.7863    2.6148 O   0  0  0  0  0  0  0  0  0  0  0  0
    5.0543   -2.1620    1.2634 C   0  0  1  0  0  0  0  0  0  0  0  0
    4.5778   -3.4987    0.6705 C   0  0  0  0  0  0  0  0  0  0  0  0
    6.5841   -2.0746    1.1865 C   0  0  0  0  0  0  0  0  0  0  0  0
   -0.1050    0.1642   -0.1675 H   0  0  0  0  0  0  0  0  0  0  0  0
    0.4987    0.1061    1.5151 H   0  0  0  0  0  0  0  0  0  0  0  0
    0.2338   -1.4019    0.6028 H   0  0  0  0  0  0  0  0  0  0  0  0
    2.3122    0.7681   -0.0775 H   0  0  0  0  0  0  0  0  0  0  0  0
    2.0736   -0.7131   -1.0152 H   0  0  0  0  0  0  0  0  0  0  0  0
    2.5960   -1.8973    1.1251 H   0  0  0  0  0  0  0  0  0  0  0  0
    4.4795   -1.1023   -0.5222 H   0  0  0  0  0  0  0  0  0  0  0  0
    4.4628    1.1829    0.2765 H   0  0  0  0  0  0  0  0  0  0  0  0
    6.0200    0.4353    0.6460 H   0  0  0  0  0  0  0  0  0  0  0  0
    7.1275   -0.8814    7.6628 H   0  0  0  0  0  0  0  0  0  0  0  0
    6.0377    0.5325    9.4681 H   0  0  0  0  0  0  0  0  0  0  0  0
    4.3168    2.2368    8.7017 H   0  0  0  0  0  0  0  0  0  0  0  0
    4.7728   -2.1314    2.3304 H   0  0  0  0  0  0  0  0  0  0  0  0
    4.8759   -3.5882   -0.3884 H   0  0  0  0  0  0  0  0  0  0  0  0
    3.4848   -3.6303    0.7158 H   0  0  0  0  0  0  0  0  0  0  0  0
    5.0246   -4.3456    1.2144 H   0  0  0  0  0  0  0  0  0  0  0  0
    6.9317   -1.9505    0.1457 H   0  0  0  0  0  0  0  0  0  0  0  0
    7.0369   -3.0011    1.5735 H   0  0  0  0  0  0  0  0  0  0  0  0
    6.9763   -1.2468    1.7936 H   0  0  0  0  0  0  0  0  0  0  0  0
  1  2  1  0
  1 20  1  0
  1 21  1  0
  1 22  1  0
  2  3  1  0
  2 23  1  0
  2 24  1  0
  3  4  1  0
  3 25  1  0
  4  5  1  0
  4 17  1  0
  4 26  1  6
  5  6  1  0
  5 27  1  0
  5 28  1  0
  6  7  2  0
  6 16  1  0
  7  8  1  0
  8  9  1  0
  8 15  2  0
  9 10  2  0
  9 14  1  0
 10 11  1  0
 11 12  2  0
 11 29  1  0
 12 13  1  0
 12 30  1  0
 13 14  2  0
 13 31  1  0
 15 16  1  0
 17 18  1  0
 17 19  1  0
 17 32  1  1
 18 33  1  0
 18 34  1  0
 18 35  1  0
 19 36  1  0
 19 37  1  0
 19 38  1  0
M  END

