
     RDKit          3D

 31 32  0  0  0  0  0  0  0  0999 V2000
    4.3799    3.2893   -0.9993 O   0  0  0  0  0  0  0  0  0  0  0  0
    4.5558    2.1555   -0.6497 C   0  0  0  0  0  0  0  0  0  0  0  0
    4.0209    1.6388    0.4640 O   0  0  0  0  0  0  0  0  0  0  0  0
    5.4455    1.1934   -1.4383 C   0  0  0  0  0  0  0  0  0  0  0  0
    5.2933   -0.1229   -0.9279 O   0  0  0  0  0  0  0  0  0  0  0  0
    6.4577   -0.8709   -1.0835 N   0  0  0  0  0  0  0  0  0  0  0  0
    6.2757   -2.0976   -0.7643 C   0  0  0  0  0  0  0  0  0  0  0  0
    7.3598   -3.0817   -0.8187 C   0  0  0  0  0  0  0  0  0  0  0  0
    8.6704   -2.7395   -1.2066 C   0  0  0  0  0  0  0  0  0  0  0  0
    9.6572   -3.7152   -1.2442 C   0  0  0  0  0  0  0  0  0  0  0  0
    9.3876   -5.0492   -0.8924 C   0  0  0  0  0  0  0  0  0  0  0  0
    8.0762   -5.4018   -0.4988 C   0  0  0  0  0  0  0  0  0  0  0  0
    7.0852   -4.4139   -0.4755 C   0  0  0  0  0  0  0  0  0  0  0  0
    7.7275   -6.6429   -0.0482 O   0  0  0  0  0  0  0  0  0  0  0  0
    7.9941   -7.7816   -0.8588 C   0  0  0  0  0  0  0  0  0  0  0  0
    9.4642   -8.1747   -0.8811 C   0  0  0  0  0  0  0  0  0  0  0  0
   10.3545   -7.1503   -1.5696 C   0  0  0  0  0  0  0  0  0  0  0  0
   10.4422   -5.9115   -0.8729 O   0  0  0  0  0  0  0  0  0  0  0  0
    4.2894    0.7022    0.5127 H   0  0  0  0  0  0  0  0  0  0  0  0
    6.4936    1.5194   -1.3361 H   0  0  0  0  0  0  0  0  0  0  0  0
    5.1703    1.2488   -2.5049 H   0  0  0  0  0  0  0  0  0  0  0  0
    5.2815   -2.4389   -0.4373 H   0  0  0  0  0  0  0  0  0  0  0  0
    8.8977   -1.7071   -1.4761 H   0  0  0  0  0  0  0  0  0  0  0  0
   10.6819   -3.4722   -1.5331 H   0  0  0  0  0  0  0  0  0  0  0  0
    6.0851   -4.7177   -0.1573 H   0  0  0  0  0  0  0  0  0  0  0  0
    7.6265   -7.6021   -1.8882 H   0  0  0  0  0  0  0  0  0  0  0  0
    7.3896   -8.5907   -0.4227 H   0  0  0  0  0  0  0  0  0  0  0  0
    9.5632   -9.1379   -1.4126 H   0  0  0  0  0  0  0  0  0  0  0  0
    9.8168   -8.3321    0.1521 H   0  0  0  0  0  0  0  0  0  0  0  0
   10.0051   -6.9694   -2.6049 H   0  0  0  0  0  0  0  0  0  0  0  0
   11.3893   -7.5192   -1.6240 H   0  0  0  0  0  0  0  0  0  0  0  0
  1  2  2  0
  2  3  1  0
  2  4  1  0
  3 19  1  0
  4  5  1  0
  4 20  1  0
  4 21  1  0
  5  6  1  0
  6  7  2  0
  7  8  1  0
  7 22  1  0
  8  9  2  0
  8 13  1  0
  9 10  1  0
  9 23  1  0
 10 11  2  0
 10 24  1  0
 11 12  1  0
 11 18  1  0
 12 13  2  0
 12 14  1  0
 13 25  1  0
 14 15  1  0
 15 16  1  0
 15 26  1  0
 15 27  1  0
 16 17  1  0
 16 28  1  0
 16 29  1  0
 17 18  1  0
 17 30  1  0
 17 31  1  0
M  END

