
     RDKit          3D

 38 39  0  0  0  0  0  0  0  0999 V2000
    6.7002    0.8148    2.6487 C   0  0  0  0  0  0  0  0  0  0  0  0
    5.7342   -0.3635    2.8204 C   0  0  1  0  0  0  0  0  0  0  0  0
    5.8782   -1.0056    4.2152 C   0  0  0  0  0  0  0  0  0  0  0  0
    4.3111    0.0739    2.5705 C   0  0  0  0  0  0  0  0  0  0  0  0
    3.8587    1.2987    2.7454 N   0  0  0  0  0  0  0  0  0  0  0  0
    2.5127    1.2553    2.4886 C   0  0  0  0  0  0  0  0  0  0  0  0
    2.1320   -0.0210    2.1510 C   0  0  0  0  0  0  0  0  0  0  0  0
    3.2901   -0.7789    2.1974 N   0  0  0  0  0  0  0  0  0  0  0  0
    3.3536   -2.2065    1.9260 C   0  0  0  0  0  0  0  0  0  0  0  0
    2.5377   -2.6193    0.6884 C   0  0  0  0  0  0  0  0  0  0  0  0
    1.5652   -3.3433    0.8086 O   0  0  0  0  0  0  0  0  0  0  0  0
    2.9485   -2.1553   -0.5294 N   0  0  0  0  0  0  0  0  0  0  0  0
    4.0034   -1.2046   -0.8462 C   0  0  0  0  0  0  0  0  0  0  0  0
    4.6014   -1.4510   -2.2188 C   0  0  0  0  0  0  0  0  0  0  0  0
    4.8675   -0.3733   -3.0754 C   0  0  0  0  0  0  0  0  0  0  0  0
    5.4545   -0.5835   -4.3269 C   0  0  0  0  0  0  0  0  0  0  0  0
    5.7765   -1.8785   -4.7413 C   0  0  0  0  0  0  0  0  0  0  0  0
    5.5093   -2.9610   -3.8967 C   0  0  0  0  0  0  0  0  0  0  0  0
    4.9273   -2.7486   -2.6448 C   0  0  0  0  0  0  0  0  0  0  0  0
    7.7363    0.4943    2.8407 H   0  0  0  0  0  0  0  0  0  0  0  0
    6.4432    1.6243    3.3471 H   0  0  0  0  0  0  0  0  0  0  0  0
    6.6471    1.2326    1.6320 H   0  0  0  0  0  0  0  0  0  0  0  0
    6.0009   -1.1321    2.0708 H   0  0  0  0  0  0  0  0  0  0  0  0
    5.6321   -0.2716    4.9988 H   0  0  0  0  0  0  0  0  0  0  0  0
    6.9108   -1.3531    4.3811 H   0  0  0  0  0  0  0  0  0  0  0  0
    5.2066   -1.8695    4.3440 H   0  0  0  0  0  0  0  0  0  0  0  0
    1.8847    2.1429    2.5592 H   0  0  0  0  0  0  0  0  0  0  0  0
    1.1722   -0.4605    1.8897 H   0  0  0  0  0  0  0  0  0  0  0  0
    2.9322   -2.7848    2.7615 H   0  0  0  0  0  0  0  0  0  0  0  0
    4.4070   -2.4973    1.8064 H   0  0  0  0  0  0  0  0  0  0  0  0
    2.3175   -2.4089   -1.2858 H   0  0  0  0  0  0  0  0  0  0  0  0
    4.7972   -1.2926   -0.0880 H   0  0  0  0  0  0  0  0  0  0  0  0
    3.6371   -0.1639   -0.7866 H   0  0  0  0  0  0  0  0  0  0  0  0
    4.6106    0.6422   -2.7601 H   0  0  0  0  0  0  0  0  0  0  0  0
    5.6539    0.2680   -4.9825 H   0  0  0  0  0  0  0  0  0  0  0  0
    6.2309   -2.0452   -5.7212 H   0  0  0  0  0  0  0  0  0  0  0  0
    5.7565   -3.9773   -4.2144 H   0  0  0  0  0  0  0  0  0  0  0  0
    4.7180   -3.5990   -1.9906 H   0  0  0  0  0  0  0  0  0  0  0  0
  1  2  1  0
  1 20  1  0
  1 21  1  0
  1 22  1  0
  2  3  1  0
  2  4  1  0
  2 23  1  6
  3 24  1  0
  3 25  1  0
  3 26  1  0
  4  5  2  0
  4  8  1  0
  5  6  1  0
  6  7  2  0
  6 27  1  0
  7  8  1  0
  7 28  1  0
  8  9  1  0
  9 10  1  0
  9 29  1  0
  9 30  1  0
 10 11  2  0
 10 12  1  0
 12 13  1  0
 12 31  1  0
 13 14  1  0
 13 32  1  0
 13 33  1  0
 14 15  2  0
 14 19  1  0
 15 16  1  0
 15 34  1  0
 16 17  2  0
 16 35  1  0
 17 18  1  0
 17 36  1  0
 18 19  2  0
 18 37  1  0
 19 38  1  0
M  END

