
     RDKit          3D

 58 61  0  0  0  0  0  0  0  0999 V2000
    3.4182    1.9942   -1.4202 C   0  0  0  0  0  0  0  0  0  0  0  0
    3.0442    0.7612   -1.0467 C   0  0  0  0  0  0  0  0  0  0  0  0
    3.6298   -0.0748    0.0157 C   0  0  0  0  0  0  0  0  0  0  0  0
    3.0840   -1.3474    0.2672 C   0  0  0  0  0  0  0  0  0  0  0  0
    3.5994   -2.1734    1.2661 C   0  0  0  0  0  0  0  0  0  0  0  0
    4.6878   -1.7603    2.0452 C   0  0  0  0  0  0  0  0  0  0  0  0
    5.2680   -2.6927    3.0820 C   0  0  0  0  0  0  0  0  0  0  0  0
    5.9412   -1.9477    4.0771 O   0  0  0  0  0  0  0  0  0  0  0  0
    6.5665   -2.5954    5.0932 C   0  0  0  0  0  0  0  0  0  0  0  0
    7.2322   -1.7808    6.0301 C   0  0  0  0  0  0  0  0  0  0  0  0
    7.8893   -2.3681    7.0995 C   0  0  0  0  0  0  0  0  0  0  0  0
    7.9184   -3.7668    7.2885 C   0  0  0  0  0  0  0  0  0  0  0  0
    8.6002   -4.3778    8.4341 C   0  0  0  0  0  0  0  0  0  0  0  0
    8.7242   -5.7107    8.5266 N   0  0  0  0  0  0  0  0  0  0  0  0
    9.3872   -5.9599    9.6665 N   0  0  0  0  0  0  0  0  0  0  0  0
    9.6045   -6.9163    9.9180 H   0  0  0  0  0  0  0  0  0  0  0  0
    9.7236   -4.8333   10.3467 C   0  0  0  0  0  0  0  0  0  0  0  0
   10.4691   -4.8183   11.6385 C   0  0  0  0  0  0  0  0  0  0  0  0
    9.2199   -3.7893    9.5816 C   0  0  0  0  0  0  0  0  0  0  0  0
    9.3782   -2.4602    9.8769 O   0  0  0  0  0  0  0  0  0  0  0  0
    8.4752   -1.8104   10.6811 C   0  0  0  0  0  0  0  0  0  0  0  0
    7.2880   -2.3919   11.1440 C   0  0  0  0  0  0  0  0  0  0  0  0
    6.4310   -1.6448   11.9529 C   0  0  0  0  0  0  0  0  0  0  0  0
    6.7452   -0.3240   12.3059 C   0  0  0  0  0  0  0  0  0  0  0  0
    5.8631    0.5109   13.1670 C   0  0  0  0  0  0  0  0  0  0  0  0
    6.1012    1.6520   13.4932 O   0  0  0  0  0  0  0  0  0  0  0  0
    4.7489   -0.1435   13.5569 O   0  0  0  0  0  0  0  0  0  0  0  0
    3.8459    0.5896   14.3809 C   0  0  0  0  0  0  0  0  0  0  0  0
    7.9393    0.2449   11.8288 C   0  0  0  0  0  0  0  0  0  0  0  0
    8.8001   -0.4883   11.0218 C   0  0  0  0  0  0  0  0  0  0  0  0
    7.2557   -4.5773    6.3257 C   0  0  0  0  0  0  0  0  0  0  0  0
    7.2356   -5.9171    6.3922 O   0  0  0  0  0  0  0  0  0  0  0  0
    6.5817   -3.9837    5.2430 C   0  0  0  0  0  0  0  0  0  0  0  0
    5.2396   -0.4926    1.8039 C   0  0  0  0  0  0  0  0  0  0  0  0
    4.7189    0.3336    0.8108 C   0  0  0  0  0  0  0  0  0  0  0  0
    2.9012    2.5147   -2.2300 H   0  0  0  0  0  0  0  0  0  0  0  0
    4.2426    2.5312   -0.9427 H   0  0  0  0  0  0  0  0  0  0  0  0
    2.2055    0.2964   -1.5788 H   0  0  0  0  0  0  0  0  0  0  0  0
    2.2331   -1.6899   -0.3285 H   0  0  0  0  0  0  0  0  0  0  0  0
    3.1443   -3.1528    1.4424 H   0  0  0  0  0  0  0  0  0  0  0  0
    5.9753   -3.3977    2.6004 H   0  0  0  0  0  0  0  0  0  0  0  0
    4.4641   -3.3039    3.5332 H   0  0  0  0  0  0  0  0  0  0  0  0
    7.2170   -0.6986    5.8947 H   0  0  0  0  0  0  0  0  0  0  0  0
    8.4132   -1.7309    7.8118 H   0  0  0  0  0  0  0  0  0  0  0  0
   11.3243   -5.5129   11.6203 H   0  0  0  0  0  0  0  0  0  0  0  0
    9.8249   -5.0971   12.4896 H   0  0  0  0  0  0  0  0  0  0  0  0
   10.8555   -3.8076   11.8291 H   0  0  0  0  0  0  0  0  0  0  0  0
    7.0334   -3.4150   10.8655 H   0  0  0  0  0  0  0  0  0  0  0  0
    5.5021   -2.0882   12.3138 H   0  0  0  0  0  0  0  0  0  0  0  0
    3.0087   -0.0863   14.5956 H   0  0  0  0  0  0  0  0  0  0  0  0
    3.4848    1.4911   13.8628 H   0  0  0  0  0  0  0  0  0  0  0  0
    4.3335    0.9022   15.3171 H   0  0  0  0  0  0  0  0  0  0  0  0
    8.1738    1.2741   12.1073 H   0  0  0  0  0  0  0  0  0  0  0  0
    9.7314   -0.0622   10.6436 H   0  0  0  0  0  0  0  0  0  0  0  0
    7.7746   -6.2029    7.1688 H   0  0  0  0  0  0  0  0  0  0  0  0
    6.0892   -4.6567    4.5430 H   0  0  0  0  0  0  0  0  0  0  0  0
    6.0794   -0.1546    2.4127 H   0  0  0  0  0  0  0  0  0  0  0  0
    5.1698    1.3157    0.6518 H   0  0  0  0  0  0  0  0  0  0  0  0
  1  2  2  0
  1 36  1  0
  1 37  1  0
  2  3  1  0
  2 38  1  0
  3  4  2  0
  3 35  1  0
  4  5  1  0
  4 39  1  0
  5  6  2  0
  5 40  1  0
  6  7  1  0
  6 34  1  0
  7  8  1  0
  7 41  1  0
  7 42  1  0
  8  9  1  0
  9 10  2  0
  9 33  1  0
 10 11  1  0
 10 43  1  0
 11 12  2  0
 11 44  1  0
 12 13  1  0
 12 31  1  0
 13 14  2  0
 13 19  1  0
 14 15  1  0
 15 16  1  0
 15 17  1  0
 17 18  1  0
 17 19  2  0
 18 45  1  0
 18 46  1  0
 18 47  1  0
 19 20  1  0
 20 21  1  0
 21 22  2  0
 21 30  1  0
 22 23  1  0
 22 48  1  0
 23 24  2  0
 23 49  1  0
 24 25  1  0
 24 29  1  0
 25 26  2  0
 25 27  1  0
 27 28  1  0
 28 50  1  0
 28 51  1  0
 28 52  1  0
 29 30  2  0
 29 53  1  0
 30 54  1  0
 31 32  1  0
 31 33  2  0
 32 55  1  0
 33 56  1  0
 34 35  2  0
 34 57  1  0
 35 58  1  0
M  END

