
     RDKit          3D

 54 60  0  0  0  0  0  0  0  0999 V2000
    1.4155    0.8875   -0.0383 C   0  0  0  0  0  0  0  0  0  0  0  0
    2.8331    0.3711   -0.0356 C   0  0  0  0  0  0  0  0  0  0  0  0
    3.9033    1.2696   -0.0296 C   0  0  0  0  0  0  0  0  0  0  0  0
    5.2187    0.7947   -0.0275 C   0  0  0  0  0  0  0  0  0  0  0  0
    6.6872    1.7688   -0.0235 S   0  0  0  0  0  0  0  0  0  0  0  0
    7.6781    0.3146   -0.0226 C   0  0  0  0  0  0  0  0  0  0  0  0
    6.9048   -0.8322   -0.0282 C   0  0  0  0  0  0  0  0  0  0  0  0
    7.8689   -2.2921   -0.0293 S   0  0  0  0  0  0  0  0  0  0  0  0
    9.3599   -1.3321   -0.0206 C   0  0  0  0  0  0  0  0  0  0  0  0
   10.6480   -1.8730   -0.0169 C   0  0  0  0  0  0  0  0  0  0  0  0
   10.9009   -3.3584   -0.0199 C   0  0  0  0  0  0  0  0  0  0  0  0
   11.7146   -0.9473   -0.0111 C   0  0  0  0  0  0  0  0  0  0  0  0
   11.4532    0.4615   -0.0089 C   0  0  0  0  0  0  0  0  0  0  0  0
   12.9442    1.4214   -0.0004 S   0  0  0  0  0  0  0  0  0  0  0  0
   13.9080   -0.0385   -0.0019 C   0  0  0  0  0  0  0  0  0  0  0  0
   15.3245   -0.2722    0.0014 C   0  0  0  0  0  0  0  0  0  0  0  0
   16.4088    0.6219    0.0072 C   0  0  0  0  0  0  0  0  0  0  0  0
   17.7282    0.1635    0.0096 C   0  0  0  0  0  0  0  0  0  0  0  0
   18.8576    1.1689    0.0157 C   0  0  0  0  0  0  0  0  0  0  0  0
   17.9833   -1.2385    0.0060 C   0  0  0  0  0  0  0  0  0  0  0  0
   19.3871   -1.8040    0.0079 C   0  0  0  0  0  0  0  0  0  0  0  0
   16.9092   -2.1362    0.0003 C   0  0  0  0  0  0  0  0  0  0  0  0
   15.5949   -1.6658   -0.0020 C   0  0  0  0  0  0  0  0  0  0  0  0
   14.1258   -2.6406   -0.0091 S   0  0  0  0  0  0  0  0  0  0  0  0
   13.1349   -1.1852   -0.0073 C   0  0  0  0  0  0  0  0  0  0  0  0
   10.1650    1.0023   -0.0126 C   0  0  0  0  0  0  0  0  0  0  0  0
    9.9121    2.4876   -0.0097 C   0  0  0  0  0  0  0  0  0  0  0  0
    9.0985    0.0766   -0.0183 C   0  0  0  0  0  0  0  0  0  0  0  0
    5.4883   -0.5982   -0.0318 C   0  0  0  0  0  0  0  0  0  0  0  0
    4.4033   -1.4948   -0.0376 C   0  0  0  0  0  0  0  0  0  0  0  0
    3.0885   -1.0326   -0.0394 C   0  0  0  0  0  0  0  0  0  0  0  0
    1.9408   -2.0126   -0.0457 C   0  0  0  0  0  0  0  0  0  0  0  0
    1.3894    1.9867   -0.0364 H   0  0  0  0  0  0  0  0  0  0  0  0
    0.8520    0.5370    0.8434 H   0  0  0  0  0  0  0  0  0  0  0  0
    0.8564    0.5401   -0.9239 H   0  0  0  0  0  0  0  0  0  0  0  0
    3.7071    2.3449   -0.0272 H   0  0  0  0  0  0  0  0  0  0  0  0
    9.9647   -3.9341   -0.0146 H   0  0  0  0  0  0  0  0  0  0  0  0
   11.4848   -3.6667    0.8632 H   0  0  0  0  0  0  0  0  0  0  0  0
   11.4743   -3.6652   -0.9104 H   0  0  0  0  0  0  0  0  0  0  0  0
   16.2142    1.6978    0.0100 H   0  0  0  0  0  0  0  0  0  0  0  0
   18.4669    2.1966    0.0194 H   0  0  0  0  0  0  0  0  0  0  0  0
   19.5071    1.0651   -0.8697 H   0  0  0  0  0  0  0  0  0  0  0  0
   19.5041    1.0577    0.9023 H   0  0  0  0  0  0  0  0  0  0  0  0
   20.1618   -1.0274    0.0125 H   0  0  0  0  0  0  0  0  0  0  0  0
   19.5596   -2.4366   -0.8790 H   0  0  0  0  0  0  0  0  0  0  0  0
   19.5548   -2.4424    0.8916 H   0  0  0  0  0  0  0  0  0  0  0  0
   17.1067   -3.2119   -0.0024 H   0  0  0  0  0  0  0  0  0  0  0  0
   10.8484    3.0632   -0.0132 H   0  0  0  0  0  0  0  0  0  0  0  0
    9.3374    2.7943    0.8801 H   0  0  0  0  0  0  0  0  0  0  0  0
    9.3296    2.7962   -0.8936 H   0  0  0  0  0  0  0  0  0  0  0  0
    4.5968   -2.5710   -0.0404 H   0  0  0  0  0  0  0  0  0  0  0  0
    2.3020   -3.0510   -0.0463 H   0  0  0  0  0  0  0  0  0  0  0  0
    1.2967   -1.8810   -0.9319 H   0  0  0  0  0  0  0  0  0  0  0  0
    1.2896   -1.8844    0.8357 H   0  0  0  0  0  0  0  0  0  0  0  0
  1  2  1  0
  1 33  1  0
  1 34  1  0
  1 35  1  0
  2  3  2  0
  2 31  1  0
  3  4  1  0
  3 36  1  0
  4  5  1  0
  4 29  2  0
  5  6  1  0
  6  7  2  0
  6 28  1  0
  7  8  1  0
  7 29  1  0
  8  9  1  0
  9 10  1  0
  9 28  2  0
 10 11  1  0
 10 12  2  0
 11 37  1  0
 11 38  1  0
 11 39  1  0
 12 13  1  0
 12 25  1  0
 13 14  1  0
 13 26  2  0
 14 15  1  0
 15 16  1  0
 15 25  2  0
 16 17  2  0
 16 23  1  0
 17 18  1  0
 17 40  1  0
 18 19  1  0
 18 20  2  0
 19 41  1  0
 19 42  1  0
 19 43  1  0
 20 21  1  0
 20 22  1  0
 21 44  1  0
 21 45  1  0
 21 46  1  0
 22 23  2  0
 22 47  1  0
 23 24  1  0
 24 25  1  0
 26 27  1  0
 26 28  1  0
 27 48  1  0
 27 49  1  0
 27 50  1  0
 29 30  1  0
 30 31  2  0
 30 51  1  0
 31 32  1  0
 32 52  1  0
 32 53  1  0
 32 54  1  0
M  END

