
     RDKit          3D

148158  0  0  0  0  0  0  0  0999 V2000
   -0.8982    4.8532  -10.3240 C   0  0  0  0  0  0  0  0  0  0  0  0
    0.3790    4.8155   -9.7258 O   0  0  0  0  0  0  0  0  0  0  0  0
    0.4869    5.0075   -8.3859 C   0  0  0  0  0  0  0  0  0  0  0  0
   -0.5755    5.3854   -7.5553 C   0  0  0  0  0  0  0  0  0  0  0  0
   -0.3678    5.5555   -6.1729 C   0  0  0  0  0  0  0  0  0  0  0  0
   -1.4623    6.0240   -5.3016 C   0  0  0  0  0  0  0  0  0  0  0  0
   -2.7973    5.6107   -5.1372 C   0  0  0  0  0  0  0  0  0  0  0  0
   -3.4211    6.5426   -4.2371 C   0  0  0  0  0  0  0  0  0  0  0  0
   -4.8374    6.4731   -3.9753 C   0  0  0  0  0  0  0  0  0  0  0  0
   -5.5364    7.5052   -3.3125 C   0  0  0  0  0  0  0  0  0  0  0  0
   -6.9120    7.4689   -3.1490 C   0  0  0  0  0  0  0  0  0  0  0  0
   -7.6699    6.4034   -3.6646 C   0  0  0  0  0  0  0  0  0  0  0  0
   -9.2045    6.3325   -3.5444 C   0  0  1  0  0  0  0  0  0  0  0  0
   -9.7847    7.5444   -2.7928 C   0  0  0  0  0  0  0  0  0  0  0  0
   -9.8302    6.2945   -4.9583 C   0  0  0  0  0  0  0  0  0  0  0  0
   -9.6002    5.0516   -2.7734 C   0  0  0  0  0  0  0  0  0  0  0  0
   -6.9809    5.3796   -4.3262 C   0  0  0  0  0  0  0  0  0  0  0  0
   -5.5801    5.3565   -4.4921 C   0  0  0  0  0  0  0  0  0  0  0  0
   -4.8866    4.2583   -5.2010 C   0  0  0  0  0  0  0  0  0  0  0  0
   -5.4979    3.0139   -5.5353 C   0  0  0  0  0  0  0  0  0  0  0  0
   -6.7958    2.7231   -5.1939 O   0  0  0  0  0  0  0  0  0  0  0  0
   -6.9614    1.8092   -4.1122 C   0  0  0  0  0  0  0  0  0  0  0  0
   -4.8176    2.0216   -6.2590 C   0  0  0  0  0  0  0  0  0  0  0  0
   -5.4499    0.8459   -6.5711 O   0  0  0  0  0  0  0  0  0  0  0  0
   -6.2860    0.8941   -7.7227 C   0  0  0  0  0  0  0  0  0  0  0  0
   -3.4785    2.2209   -6.6426 C   0  0  0  0  0  0  0  0  0  0  0  0
   -2.8045    1.3079   -7.4004 O   0  0  0  0  0  0  0  0  0  0  0  0
   -2.5269    0.0441   -6.8081 C   0  0  0  0  0  0  0  0  0  0  0  0
   -2.8455    3.4011   -6.2796 C   0  0  0  0  0  0  0  0  0  0  0  0
   -3.5156    4.4224   -5.5800 C   0  0  0  0  0  0  0  0  0  0  0  0
   -2.5010    7.4488   -3.7903 N   0  0  0  0  0  0  0  0  0  0  0  0
   -1.3012    7.1496   -4.4246 C   0  0  0  0  0  0  0  0  0  0  0  0
   -0.1757    7.8091   -4.2376 N   0  0  0  0  0  0  0  0  0  0  0  0
   -0.0858    8.7560   -3.3236 C   0  0  0  0  0  0  0  0  0  0  0  0
    1.0899    9.5347   -3.0583 C   0  0  0  0  0  0  0  0  0  0  0  0
    2.3509    9.3879   -3.7824 C   0  0  0  0  0  0  0  0  0  0  0  0
    2.3347    9.2076   -5.1794 C   0  0  0  0  0  0  0  0  0  0  0  0
    3.5230    9.0167   -5.8885 C   0  0  0  0  0  0  0  0  0  0  0  0
    3.5821    8.8990   -7.2443 O   0  0  0  0  0  0  0  0  0  0  0  0
    2.3877    8.9890   -7.9925 C   0  0  0  0  0  0  0  0  0  0  0  0
    4.7585    8.9492   -5.2047 C   0  0  0  0  0  0  0  0  0  0  0  0
    5.9491    8.7600   -5.8176 O   0  0  0  0  0  0  0  0  0  0  0  0
    6.1007    7.7256   -6.7806 C   0  0  0  0  0  0  0  0  0  0  0  0
    4.7743    9.1361   -3.7989 C   0  0  0  0  0  0  0  0  0  0  0  0
    5.9970    9.0558   -3.2228 O   0  0  0  0  0  0  0  0  0  0  0  0
    6.1008    9.1292   -1.8175 C   0  0  0  0  0  0  0  0  0  0  0  0
    3.5854    9.3722   -3.0993 C   0  0  0  0  0  0  0  0  0  0  0  0
    0.7277   10.3856   -1.9901 C   0  0  0  0  0  0  0  0  0  0  0  0
    1.3995   11.4808   -1.3856 C   0  0  0  0  0  0  0  0  0  0  0  0
    2.7006   12.1219   -1.7335 C   0  0  0  0  0  0  0  0  0  0  0  0
    3.4909   12.3286   -0.6255 C   0  0  0  0  0  0  0  0  0  0  0  0
    4.0185   11.2489    0.0275 O   0  0  0  0  0  0  0  0  0  0  0  0
    4.1355   11.2748    1.4434 C   0  0  0  0  0  0  0  0  0  0  0  0
    2.9767   13.4969    0.0713 C   0  0  0  0  0  0  0  0  0  0  0  0
    3.6837   14.2998    0.9400 O   0  0  0  0  0  0  0  0  0  0  0  0
    4.8289   14.9292    0.3896 C   0  0  0  0  0  0  0  0  0  0  0  0
    1.5778   13.4671    0.0921 C   0  0  0  0  0  0  0  0  0  0  0  0
    0.8350   14.4384    0.6564 O   0  0  0  0  0  0  0  0  0  0  0  0
    1.3172   15.7709    0.7716 C   0  0  0  0  0  0  0  0  0  0  0  0
    0.7755   12.2716   -0.4204 C   0  0  0  0  0  0  0  0  0  0  0  0
   -0.5586   11.9066    0.0596 C   0  0  0  0  0  0  0  0  0  0  0  0
   -1.1899   12.5578    1.1450 C   0  0  0  0  0  0  0  0  0  0  0  0
   -2.4496   12.2081    1.6344 C   0  0  0  0  0  0  0  0  0  0  0  0
   -3.0466   12.9870    2.8231 C   0  0  1  0  0  0  0  0  0  0  0  0
   -3.1864   14.4786    2.4388 C   0  0  0  0  0  0  0  0  0  0  0  0
   -4.4371   12.4614    3.2237 C   0  0  0  0  0  0  0  0  0  0  0  0
   -2.1102   12.8573    4.0470 C   0  0  0  0  0  0  0  0  0  0  0  0
   -3.1177   11.1352    1.0105 C   0  0  0  0  0  0  0  0  0  0  0  0
   -2.5376   10.4532   -0.0441 C   0  0  0  0  0  0  0  0  0  0  0  0
   -1.2666   10.8055   -0.5560 C   0  0  0  0  0  0  0  0  0  0  0  0
   -0.6325   10.0869   -1.6286 C   0  0  0  0  0  0  0  0  0  0  0  0
   -1.1134    9.0960   -2.4455 N   0  0  0  0  0  0  0  0  0  0  0  0
   -2.5648    8.5204   -2.6328 B   0  0  1  0  0  0  0  0  0  0  0  0
   -3.4030    9.5825   -2.9657 F   0  0  0  0  0  0  0  0  0  0  0  0
   -3.0116    7.8706   -1.4861 F   0  0  0  0  0  0  0  0  0  0  0  0
    0.9149    5.3531   -5.6358 C   0  0  0  0  0  0  0  0  0  0  0  0
    1.9856    4.9917   -6.4660 C   0  0  0  0  0  0  0  0  0  0  0  0
    3.2543    4.7986   -6.0288 O   0  0  0  0  0  0  0  0  0  0  0  0
    3.5257    4.9084   -4.6462 C   0  0  0  0  0  0  0  0  0  0  0  0
    1.7762    4.7981   -7.8470 C   0  0  0  0  0  0  0  0  0  0  0  0
    2.8045    4.3748   -8.6312 O   0  0  0  0  0  0  0  0  0  0  0  0
    3.4263    5.3621   -9.4387 C   0  0  0  0  0  0  0  0  0  0  0  0
   -0.7535    4.6010  -11.3832 H   0  0  0  0  0  0  0  0  0  0  0  0
   -1.3578    5.8560  -10.2569 H   0  0  0  0  0  0  0  0  0  0  0  0
   -1.5829    4.1163   -9.8683 H   0  0  0  0  0  0  0  0  0  0  0  0
   -1.5654    5.5659   -7.9705 H   0  0  0  0  0  0  0  0  0  0  0  0
   -4.9940    8.3772   -2.9629 H   0  0  0  0  0  0  0  0  0  0  0  0
   -7.3908    8.3014   -2.6340 H   0  0  0  0  0  0  0  0  0  0  0  0
   -9.5635    8.4923   -3.3077 H   0  0  0  0  0  0  0  0  0  0  0  0
   -9.3965    7.6153   -1.7648 H   0  0  0  0  0  0  0  0  0  0  0  0
  -10.8803    7.4522   -2.7269 H   0  0  0  0  0  0  0  0  0  0  0  0
   -9.5665    7.1980   -5.5308 H   0  0  0  0  0  0  0  0  0  0  0  0
  -10.9295    6.2435   -4.8900 H   0  0  0  0  0  0  0  0  0  0  0  0
   -9.4899    5.4211   -5.5346 H   0  0  0  0  0  0  0  0  0  0  0  0
   -9.1700    5.0523   -1.7591 H   0  0  0  0  0  0  0  0  0  0  0  0
   -9.2512    4.1426   -3.2859 H   0  0  0  0  0  0  0  0  0  0  0  0
  -10.6966    4.9832   -2.6785 H   0  0  0  0  0  0  0  0  0  0  0  0
   -7.5479    4.5597   -4.7515 H   0  0  0  0  0  0  0  0  0  0  0  0
   -6.5108    2.2067   -3.1864 H   0  0  0  0  0  0  0  0  0  0  0  0
   -6.5184    0.8296   -4.3502 H   0  0  0  0  0  0  0  0  0  0  0  0
   -8.0439    1.6904   -3.9622 H   0  0  0  0  0  0  0  0  0  0  0  0
   -6.7091   -0.1122   -7.8521 H   0  0  0  0  0  0  0  0  0  0  0  0
   -5.7044    1.1592   -8.6224 H   0  0  0  0  0  0  0  0  0  0  0  0
   -7.1062    1.6183   -7.5873 H   0  0  0  0  0  0  0  0  0  0  0  0
   -1.9747   -0.5391   -7.5582 H   0  0  0  0  0  0  0  0  0  0  0  0
   -3.4507   -0.4890   -6.5350 H   0  0  0  0  0  0  0  0  0  0  0  0
   -1.8927    0.1607   -5.9109 H   0  0  0  0  0  0  0  0  0  0  0  0
   -1.7999    3.5077   -6.5544 H   0  0  0  0  0  0  0  0  0  0  0  0
    1.3837    9.2348   -5.7022 H   0  0  0  0  0  0  0  0  0  0  0  0
    2.6739    8.8773   -9.0471 H   0  0  0  0  0  0  0  0  0  0  0  0
    1.8963    9.9689   -7.8568 H   0  0  0  0  0  0  0  0  0  0  0  0
    1.6743    8.1896   -7.7279 H   0  0  0  0  0  0  0  0  0  0  0  0
    7.1610    7.4324   -6.7578 H   0  0  0  0  0  0  0  0  0  0  0  0
    5.8383    8.0719   -7.7915 H   0  0  0  0  0  0  0  0  0  0  0  0
    5.4783    6.8483   -6.5360 H   0  0  0  0  0  0  0  0  0  0  0  0
    7.1712    9.0452   -1.5836 H   0  0  0  0  0  0  0  0  0  0  0  0
    5.5621    8.2972   -1.3264 H   0  0  0  0  0  0  0  0  0  0  0  0
    5.7104   10.0782   -1.4147 H   0  0  0  0  0  0  0  0  0  0  0  0
    3.6002    9.4999   -2.0198 H   0  0  0  0  0  0  0  0  0  0  0  0
    2.5269   13.0489   -2.2928 H   0  0  0  0  0  0  0  0  0  0  0  0
    4.6111   10.3287    1.7349 H   0  0  0  0  0  0  0  0  0  0  0  0
    3.1444   11.3449    1.9221 H   0  0  0  0  0  0  0  0  0  0  0  0
    4.7500   12.1208    1.7895 H   0  0  0  0  0  0  0  0  0  0  0  0
    5.3653   15.4117    1.2186 H   0  0  0  0  0  0  0  0  0  0  0  0
    4.5475   15.6941   -0.3577 H   0  0  0  0  0  0  0  0  0  0  0  0
    5.4955   14.1970   -0.0992 H   0  0  0  0  0  0  0  0  0  0  0  0
    0.4283   16.4014    0.9138 H   0  0  0  0  0  0  0  0  0  0  0  0
    1.8383   16.0763   -0.1514 H   0  0  0  0  0  0  0  0  0  0  0  0
    2.0012   15.8829    1.6233 H   0  0  0  0  0  0  0  0  0  0  0  0
   -0.6556   13.3715    1.6220 H   0  0  0  0  0  0  0  0  0  0  0  0
   -3.8560   14.6016    1.5728 H   0  0  0  0  0  0  0  0  0  0  0  0
   -2.2157   14.9258    2.1764 H   0  0  0  0  0  0  0  0  0  0  0  0
   -3.6069   15.0549    3.2797 H   0  0  0  0  0  0  0  0  0  0  0  0
   -5.1624   12.5480    2.3996 H   0  0  0  0  0  0  0  0  0  0  0  0
   -4.8273   13.0476    4.0707 H   0  0  0  0  0  0  0  0  0  0  0  0
   -4.4033   11.4070    3.5394 H   0  0  0  0  0  0  0  0  0  0  0  0
   -1.1075   13.2612    3.8409 H   0  0  0  0  0  0  0  0  0  0  0  0
   -1.9926   11.8030    4.3441 H   0  0  0  0  0  0  0  0  0  0  0  0
   -2.5234   13.4095    4.9074 H   0  0  0  0  0  0  0  0  0  0  0  0
   -4.0971   10.8078    1.3581 H   0  0  0  0  0  0  0  0  0  0  0  0
   -3.0583    9.5976   -0.4606 H   0  0  0  0  0  0  0  0  0  0  0  0
    1.0702    5.5035   -4.5715 H   0  0  0  0  0  0  0  0  0  0  0  0
    4.5951    4.6908   -4.5230 H   0  0  0  0  0  0  0  0  0  0  0  0
    2.9420    4.1779   -4.0580 H   0  0  0  0  0  0  0  0  0  0  0  0
    3.3203    5.9239   -4.2658 H   0  0  0  0  0  0  0  0  0  0  0  0
    4.2606    4.8697   -9.9585 H   0  0  0  0  0  0  0  0  0  0  0  0
    3.8250    6.1893   -8.8248 H   0  0  0  0  0  0  0  0  0  0  0  0
    2.7271    5.7686  -10.1893 H   0  0  0  0  0  0  0  0  0  0  0  0
  1  2  1  0
  1 83  1  0
  1 84  1  0
  1 85  1  0
  2  3  1  0
  3  4  2  0
  3 80  1  0
  4  5  1  0
  4 86  1  0
  5  6  2  0
  5 76  1  0
  6  7  1  0
  6 32  1  0
  7  8  2  0
  7 30  1  0
  8  9  1  0
  8 31  1  0
  9 10  2  0
  9 18  1  0
 10 11  1  0
 10 87  1  0
 11 12  2  0
 11 88  1  0
 12 13  1  0
 12 17  1  0
 13 14  1  1
 13 15  1  0
 13 16  1  0
 14 89  1  0
 14 90  1  0
 14 91  1  0
 15 92  1  0
 15 93  1  0
 15 94  1  0
 16 95  1  0
 16 96  1  0
 16 97  1  0
 17 18  2  0
 17 98  1  0
 18 19  1  0
 19 20  2  0
 19 30  1  0
 20 21  1  0
 20 23  1  0
 21 22  1  0
 22 99  1  0
 22100  1  0
 22101  1  0
 23 24  1  0
 23 26  2  0
 24 25  1  0
 25102  1  0
 25103  1  0
 25104  1  0
 26 27  1  0
 26 29  1  0
 27 28  1  0
 28105  1  0
 28106  1  0
 28107  1  0
 29 30  2  0
 29108  1  0
 31 32  1  0
 31 73  1  0
 32 33  2  0
 33 34  1  0
 34 35  2  0
 34 72  1  0
 35 36  1  0
 35 48  1  0
 36 37  2  0
 36 47  1  0
 37 38  1  0
 37109  1  0
 38 39  1  0
 38 41  2  0
 39 40  1  0
 40110  1  0
 40111  1  0
 40112  1  0
 41 42  1  0
 41 44  1  0
 42 43  1  0
 43113  1  0
 43114  1  0
 43115  1  0
 44 45  1  0
 44 47  2  0
 45 46  1  0
 46116  1  0
 46117  1  0
 46118  1  0
 47119  1  0
 48 49  2  0
 48 71  1  0
 49 50  1  0
 49 60  1  0
 50 51  2  0
 50120  1  0
 51 52  1  0
 51 54  1  0
 52 53  1  0
 53121  1  0
 53122  1  0
 53123  1  0
 54 55  1  0
 54 57  2  0
 55 56  1  0
 56124  1  0
 56125  1  0
 56126  1  0
 57 58  1  0
 57 60  1  0
 58 59  1  0
 59127  1  0
 59128  1  0
 59129  1  0
 60 61  2  0
 61 62  1  0
 61 70  1  0
 62 63  2  0
 62130  1  0
 63 64  1  0
 63 68  1  0
 64 65  1  6
 64 66  1  0
 64 67  1  0
 65131  1  0
 65132  1  0
 65133  1  0
 66134  1  0
 66135  1  0
 66136  1  0
 67137  1  0
 67138  1  0
 67139  1  0
 68 69  2  0
 68140  1  0
 69 70  1  0
 69141  1  0
 70 71  2  0
 71 72  1  0
 72 73  1  0
 73 74  1  6
 73 75  1  0
 76 77  2  0
 76142  1  0
 77 78  1  0
 77 80  1  0
 78 79  1  0
 79143  1  0
 79144  1  0
 79145  1  0
 80 81  2  0
 81 82  1  0
 82146  1  0
 82147  1  0
 82148  1  0
M  CHG  2  73  -1  81   1
M  END

