
     RDKit          3D

 30 32  0  0  0  0  0  0  0  0999 V2000
    1.3190    0.3252    0.0396 C   0  0  0  0  0  0  0  0  0  0  0  0
    2.5274    0.2245    0.0467 C   0  0  0  0  0  0  0  0  0  0  0  0
    3.9520    0.0844    0.0546 C   0  0  0  0  0  0  0  0  0  0  0  0
    4.6615    1.1900    0.0515 N   0  0  0  0  0  0  0  0  0  0  0  0
    5.9861    1.1097    0.0586 N   0  0  0  0  0  0  0  0  0  0  0  0
    6.6735    2.3622    0.0550 C   0  0  0  0  0  0  0  0  0  0  0  0
    5.9431    3.5730    0.0527 C   0  0  0  0  0  0  0  0  0  0  0  0
    6.5751    4.8146    0.0491 C   0  0  0  0  0  0  0  0  0  0  0  0
    7.9753    4.9389    0.0476 C   0  0  0  0  0  0  0  0  0  0  0  0
    8.6744    3.7492    0.0499 C   0  0  0  0  0  0  0  0  0  0  0  0
    8.0633    2.4969    0.0534 C   0  0  0  0  0  0  0  0  0  0  0  0
    9.0576    1.5389    0.0540 O   0  0  0  0  0  0  0  0  0  0  0  0
   10.2795    2.2078    0.0549 C   0  0  2  0  0  0  0  0  0  0  0  0
   10.9931    1.8527   -1.0148 F   0  0  0  0  0  0  0  0  0  0  0  0
   10.9863    1.8618    1.1327 F   0  0  0  0  0  0  0  0  0  0  0  0
   10.0390    3.5672    0.0484 O   0  0  0  0  0  0  0  0  0  0  0  0
    6.6455   -0.1005    0.0694 C   0  0  0  0  0  0  0  0  0  0  0  0
    5.9721   -1.2967    0.0732 C   0  0  0  0  0  0  0  0  0  0  0  0
    6.7359   -2.3996    0.0843 O   0  0  0  0  0  0  0  0  0  0  0  0
    6.1942   -3.7223    0.0879 C   0  0  0  0  0  0  0  0  0  0  0  0
    4.5055   -1.2944    0.0658 C   0  0  0  0  0  0  0  0  0  0  0  0
    3.7934   -2.2932    0.0686 O   0  0  0  0  0  0  0  0  0  0  0  0
    0.2486    0.4113    0.0319 H   0  0  0  0  0  0  0  0  0  0  0  0
    4.8577    3.5020    0.0537 H   0  0  0  0  0  0  0  0  0  0  0  0
    5.9593    5.7163    0.0475 H   0  0  0  0  0  0  0  0  0  0  0  0
    8.4839    5.9030    0.0448 H   0  0  0  0  0  0  0  0  0  0  0  0
    7.7311   -0.0838    0.0749 H   0  0  0  0  0  0  0  0  0  0  0  0
    7.0708   -4.3846    0.0964 H   0  0  0  0  0  0  0  0  0  0  0  0
    5.5872   -3.9153   -0.8070 H   0  0  0  0  0  0  0  0  0  0  0  0
    5.5769   -3.9061    0.9777 H   0  0  0  0  0  0  0  0  0  0  0  0
  1  2  3  0
  1 23  1  0
  2  3  1  0
  3  4  2  0
  3 21  1  0
  4  5  1  0
  5  6  1  0
  5 17  1  0
  6  7  2  0
  6 11  1  0
  7  8  1  0
  7 24  1  0
  8  9  2  0
  8 25  1  0
  9 10  1  0
  9 26  1  0
 10 11  2  0
 10 16  1  0
 11 12  1  0
 12 13  1  0
 13 14  1  6
 13 15  1  0
 13 16  1  0
 17 18  2  0
 17 27  1  0
 18 19  1  0
 18 21  1  0
 19 20  1  0
 20 28  1  0
 20 29  1  0
 20 30  1  0
 21 22  2  0
M  END

