
     RDKit          3D

 41 43  0  0  0  0  0  0  0  0999 V2000
    0.8717   -0.8482    0.3691 N   0  0  0  0  0  0  0  0  0  0  0  0
    2.1616   -0.9547   -0.0104 C   0  0  0  0  0  0  0  0  0  0  0  0
    2.4877   -1.4621   -1.3012 C   0  0  0  0  0  0  0  0  0  0  0  0
    3.7912   -1.5867   -1.7289 C   0  0  0  0  0  0  0  0  0  0  0  0
    4.8796   -1.2272   -0.8977 C   0  0  0  0  0  0  0  0  0  0  0  0
    6.2621   -1.3872   -1.4624 C   0  0  0  0  0  0  0  0  0  0  0  0
    6.4343   -1.6036   -2.6557 O   0  0  0  0  0  0  0  0  0  0  0  0
    7.3070   -1.2870   -0.5858 N   0  0  0  0  0  0  0  0  0  0  0  0
    8.6932   -1.3326   -1.0247 C   0  0  0  0  0  0  0  0  0  0  0  0
    9.3732   -2.7118   -0.9528 C   0  0  2  0  0  0  0  0  0  0  0  0
    8.7359   -3.7493   -1.8788 C   0  0  0  0  0  0  0  0  0  0  0  0
    9.4956   -4.9531   -1.9176 O   0  0  0  0  0  0  0  0  0  0  0  0
    9.9306   -5.4652   -0.7343 C   0  0  0  0  0  0  0  0  0  0  0  0
   10.4182   -6.7818   -0.7546 C   0  0  0  0  0  0  0  0  0  0  0  0
   10.8966   -7.3688    0.4142 C   0  0  0  0  0  0  0  0  0  0  0  0
   10.8946   -6.6483    1.6153 C   0  0  0  0  0  0  0  0  0  0  0  0
   10.4171   -5.3375    1.6251 C   0  0  0  0  0  0  0  0  0  0  0  0
    9.9303   -4.7216    0.4624 C   0  0  0  0  0  0  0  0  0  0  0  0
    9.4290   -3.2922    0.4661 C   0  0  0  0  0  0  0  0  0  0  0  0
    4.5913   -0.7176    0.3613 C   0  0  0  0  0  0  0  0  0  0  0  0
    3.2687   -0.5808    0.8110 C   0  0  0  0  0  0  0  0  0  0  0  0
    3.0815   -0.0325    2.1467 N   0  0  0  0  0  0  0  0  0  0  0  0
    1.9302    0.1026    2.5726 O   0  0  0  0  0  0  0  0  0  0  0  0
    4.0697    0.2711    2.7976 O   0  0  0  0  0  0  0  0  0  0  0  0
    0.1371   -1.1266   -0.2660 H   0  0  0  0  0  0  0  0  0  0  0  0
    0.6696   -0.4789    1.2925 H   0  0  0  0  0  0  0  0  0  0  0  0
    1.6654   -1.7531   -1.9603 H   0  0  0  0  0  0  0  0  0  0  0  0
    4.0185   -1.9662   -2.7269 H   0  0  0  0  0  0  0  0  0  0  0  0
    7.1164   -1.1780    0.4009 H   0  0  0  0  0  0  0  0  0  0  0  0
    9.2696   -0.6219   -0.4093 H   0  0  0  0  0  0  0  0  0  0  0  0
    8.7148   -0.9699   -2.0626 H   0  0  0  0  0  0  0  0  0  0  0  0
   10.4089   -2.5608   -1.3087 H   0  0  0  0  0  0  0  0  0  0  0  0
    8.6779   -3.3895   -2.9144 H   0  0  0  0  0  0  0  0  0  0  0  0
    7.7053   -3.9778   -1.5491 H   0  0  0  0  0  0  0  0  0  0  0  0
   10.4074   -7.3206   -1.7044 H   0  0  0  0  0  0  0  0  0  0  0  0
   11.2720   -8.3952    0.3887 H   0  0  0  0  0  0  0  0  0  0  0  0
   11.2685   -7.1040    2.5351 H   0  0  0  0  0  0  0  0  0  0  0  0
   10.4249   -4.7642    2.5576 H   0  0  0  0  0  0  0  0  0  0  0  0
   10.0713   -2.6711    1.1138 H   0  0  0  0  0  0  0  0  0  0  0  0
    8.4155   -3.2587    0.9094 H   0  0  0  0  0  0  0  0  0  0  0  0
    5.3628   -0.3831    1.0542 H   0  0  0  0  0  0  0  0  0  0  0  0
  1  2  1  0
  1 25  1  0
  1 26  1  0
  2  3  2  0
  2 21  1  0
  3  4  1  0
  3 27  1  0
  4  5  2  0
  4 28  1  0
  5  6  1  0
  5 20  1  0
  6  7  2  0
  6  8  1  0
  8  9  1  0
  8 29  1  0
  9 10  1  0
  9 30  1  0
  9 31  1  0
 10 11  1  0
 10 19  1  0
 10 32  1  6
 11 12  1  0
 11 33  1  0
 11 34  1  0
 12 13  1  0
 13 14  2  0
 13 18  1  0
 14 15  1  0
 14 35  1  0
 15 16  2  0
 15 36  1  0
 16 17  1  0
 16 37  1  0
 17 18  2  0
 17 38  1  0
 18 19  1  0
 19 39  1  0
 19 40  1  0
 20 21  2  0
 20 41  1  0
 21 22  1  0
 22 23  2  0
 22 24  1  0
M  CHG  2  22   1  24  -1
M  END

