
     RDKit          3D

 49 51  0  0  0  0  0  0  0  0999 V2000
    2.2329    1.9298    2.9086 C   0  0  0  0  0  0  0  0  0  0  0  0
    3.5832    2.0385    2.5443 O   0  0  0  0  0  0  0  0  0  0  0  0
    3.7872    2.2998    1.1817 C   0  0  0  0  0  0  0  0  0  0  0  0
    5.2862    2.3951    0.9526 C   0  0  0  0  0  0  0  0  0  0  0  0
    5.4859    2.6556   -0.4224 O   0  0  0  0  0  0  0  0  0  0  0  0
    6.7460    2.7893   -0.9071 C   0  0  0  0  0  0  0  0  0  0  0  0
    7.9103    2.6912   -0.1319 C   0  0  0  0  0  0  0  0  0  0  0  0
    9.1621    2.8506   -0.7393 C   0  0  0  0  0  0  0  0  0  0  0  0
    9.2929    3.1064   -2.1110 C   0  0  0  0  0  0  0  0  0  0  0  0
   10.6478    3.2497   -2.7614 C   0  0  0  0  0  0  0  0  0  0  0  0
   11.2634    2.0088   -3.4405 C   0  0  0  0  0  0  0  0  0  0  0  0
   12.2253    2.1312   -4.1770 O   0  0  0  0  0  0  0  0  0  0  0  0
   10.6707    0.8148   -3.1195 N   0  0  0  0  0  0  0  0  0  0  0  0
   11.0112   -0.4875   -3.5356 C   0  0  0  0  0  0  0  0  0  0  0  0
   12.0890   -0.7671   -4.3946 C   0  0  0  0  0  0  0  0  0  0  0  0
   12.3497   -2.0940   -4.7505 C   0  0  0  0  0  0  0  0  0  0  0  0
   11.5673   -3.1446   -4.2741 C   0  0  0  0  0  0  0  0  0  0  0  0
   10.4895   -2.8680   -3.4155 C   0  0  0  0  0  0  0  0  0  0  0  0
    9.6391   -3.9493   -2.8905 C   0  0  0  0  0  0  0  0  0  0  0  0
    9.8290   -5.2307   -3.1912 N   0  0  0  0  0  0  0  0  0  0  0  0
    8.8445   -5.8403   -2.5059 N   0  0  0  0  0  0  0  0  0  0  0  0
    8.7423   -6.8480   -2.5478 H   0  0  0  0  0  0  0  0  0  0  0  0
    8.0979   -4.9363   -1.8215 C   0  0  0  0  0  0  0  0  0  0  0  0
    6.9258   -5.2904   -0.9675 C   0  0  0  0  0  0  0  0  0  0  0  0
    8.5815   -3.7301   -2.0487 N   0  0  0  0  0  0  0  0  0  0  0  0
   10.2199   -1.5431   -3.0534 C   0  0  0  0  0  0  0  0  0  0  0  0
    8.1098    3.2004   -2.8706 C   0  0  0  0  0  0  0  0  0  0  0  0
    6.8584    3.0463   -2.2855 C   0  0  0  0  0  0  0  0  0  0  0  0
    2.1912    1.7268    3.9886 H   0  0  0  0  0  0  0  0  0  0  0  0
    1.7239    1.1023    2.3736 H   0  0  0  0  0  0  0  0  0  0  0  0
    1.6710    2.8636    2.7028 H   0  0  0  0  0  0  0  0  0  0  0  0
    3.3039    3.2491    0.8702 H   0  0  0  0  0  0  0  0  0  0  0  0
    3.3653    1.4960    0.5431 H   0  0  0  0  0  0  0  0  0  0  0  0
    5.7692    1.4478    1.2544 H   0  0  0  0  0  0  0  0  0  0  0  0
    5.7068    3.2035    1.5783 H   0  0  0  0  0  0  0  0  0  0  0  0
    7.8580    2.4983    0.9397 H   0  0  0  0  0  0  0  0  0  0  0  0
   10.0597    2.7789   -0.1178 H   0  0  0  0  0  0  0  0  0  0  0  0
   11.3974    3.5827   -2.0238 H   0  0  0  0  0  0  0  0  0  0  0  0
   10.6350    4.0238   -3.5439 H   0  0  0  0  0  0  0  0  0  0  0  0
    9.8651    0.8761   -2.5051 H   0  0  0  0  0  0  0  0  0  0  0  0
   12.6996    0.0518   -4.7673 H   0  0  0  0  0  0  0  0  0  0  0  0
   13.1887   -2.3054   -5.4186 H   0  0  0  0  0  0  0  0  0  0  0  0
   11.7765   -4.1776   -4.5558 H   0  0  0  0  0  0  0  0  0  0  0  0
    6.7780   -6.3789   -0.9130 H   0  0  0  0  0  0  0  0  0  0  0  0
    6.0063   -4.8340   -1.3663 H   0  0  0  0  0  0  0  0  0  0  0  0
    7.0667   -4.9051    0.0538 H   0  0  0  0  0  0  0  0  0  0  0  0
    9.3777   -1.3470   -2.3853 H   0  0  0  0  0  0  0  0  0  0  0  0
    8.1745    3.4020   -3.9438 H   0  0  0  0  0  0  0  0  0  0  0  0
    5.9425    3.1236   -2.8750 H   0  0  0  0  0  0  0  0  0  0  0  0
  1  2  1  0
  1 29  1  0
  1 30  1  0
  1 31  1  0
  2  3  1  0
  3  4  1  0
  3 32  1  0
  3 33  1  0
  4  5  1  0
  4 34  1  0
  4 35  1  0
  5  6  1  0
  6  7  2  0
  6 28  1  0
  7  8  1  0
  7 36  1  0
  8  9  2  0
  8 37  1  0
  9 10  1  0
  9 27  1  0
 10 11  1  0
 10 38  1  0
 10 39  1  0
 11 12  2  0
 11 13  1  0
 13 14  1  0
 13 40  1  0
 14 15  2  0
 14 26  1  0
 15 16  1  0
 15 41  1  0
 16 17  2  0
 16 42  1  0
 17 18  1  0
 17 43  1  0
 18 19  1  0
 18 26  2  0
 19 20  2  0
 19 25  1  0
 20 21  1  0
 21 22  1  0
 21 23  1  0
 23 24  1  0
 23 25  2  0
 24 44  1  0
 24 45  1  0
 24 46  1  0
 26 47  1  0
 27 28  2  0
 27 48  1  0
 28 49  1  0
M  END

