
     RDKit          3D

 42 42  0  0  0  0  0  0  0  0999 V2000
    2.8422   -1.6362    3.2241 C   0  0  0  0  0  0  0  0  0  0  0  0
    2.8737   -1.8088    1.7777 N   0  0  0  0  0  0  0  0  0  0  0  0
    3.1972   -0.6041    1.0298 C   0  0  0  0  0  0  0  0  0  0  0  0
    4.7083   -0.3715    0.8381 C   0  0  0  0  0  0  0  0  0  0  0  0
    5.1328    0.7307    0.5391 O   0  0  0  0  0  0  0  0  0  0  0  0
    5.4395   -1.5170    0.9930 N   0  0  0  0  0  0  0  0  0  0  0  0
    6.8266   -1.7271    0.8636 C   0  0  0  0  0  0  0  0  0  0  0  0
    7.6959   -0.6740    0.5347 C   0  0  0  0  0  0  0  0  0  0  0  0
    9.0657   -0.9043    0.4082 C   0  0  0  0  0  0  0  0  0  0  0  0
    9.6150   -2.1759    0.6044 C   0  0  0  0  0  0  0  0  0  0  0  0
   11.1128   -2.4179    0.4648 C   0  0  1  0  0  0  0  0  0  0  0  0
   11.7522   -2.8778    1.7866 C   0  0  0  0  0  0  0  0  0  0  0  0
   11.4389   -3.3935   -0.6795 C   0  0  0  0  0  0  0  0  0  0  0  0
    8.7311   -3.2149    0.9366 C   0  0  0  0  0  0  0  0  0  0  0  0
    7.3497   -3.0321    1.0729 C   0  0  0  0  0  0  0  0  0  0  0  0
    6.4270   -4.2090    1.3926 C   0  0  1  0  0  0  0  0  0  0  0  0
    5.7638   -4.7566    0.1116 C   0  0  0  0  0  0  0  0  0  0  0  0
    7.1025   -5.3449    2.1735 C   0  0  0  0  0  0  0  0  0  0  0  0
    2.5766   -2.5878    3.7097 H   0  0  0  0  0  0  0  0  0  0  0  0
    2.1273   -0.8589    3.5659 H   0  0  0  0  0  0  0  0  0  0  0  0
    3.8414   -1.3471    3.5883 H   0  0  0  0  0  0  0  0  0  0  0  0
    2.0008   -2.2134    1.4484 H   0  0  0  0  0  0  0  0  0  0  0  0
    2.7943    0.3274    1.4736 H   0  0  0  0  0  0  0  0  0  0  0  0
    2.7687   -0.6780    0.0160 H   0  0  0  0  0  0  0  0  0  0  0  0
    4.8483   -2.3055    1.2531 H   0  0  0  0  0  0  0  0  0  0  0  0
    7.2781    0.3183    0.3802 H   0  0  0  0  0  0  0  0  0  0  0  0
    9.7201   -0.0662    0.1502 H   0  0  0  0  0  0  0  0  0  0  0  0
   11.5654   -1.4452    0.2039 H   0  0  0  0  0  0  0  0  0  0  0  0
   11.3582   -3.8573    2.1049 H   0  0  0  0  0  0  0  0  0  0  0  0
   11.5541   -2.1595    2.5976 H   0  0  0  0  0  0  0  0  0  0  0  0
   12.8450   -2.9798    1.6799 H   0  0  0  0  0  0  0  0  0  0  0  0
   11.0292   -4.3978   -0.4807 H   0  0  0  0  0  0  0  0  0  0  0  0
   12.5290   -3.5001   -0.8063 H   0  0  0  0  0  0  0  0  0  0  0  0
   11.0166   -3.0444   -1.6348 H   0  0  0  0  0  0  0  0  0  0  0  0
    9.1391   -4.2147    1.0966 H   0  0  0  0  0  0  0  0  0  0  0  0
    5.6212   -3.8340    2.0500 H   0  0  0  0  0  0  0  0  0  0  0  0
    6.5265   -5.1734   -0.5658 H   0  0  0  0  0  0  0  0  0  0  0  0
    5.2271   -3.9707   -0.4419 H   0  0  0  0  0  0  0  0  0  0  0  0
    5.0443   -5.5575    0.3495 H   0  0  0  0  0  0  0  0  0  0  0  0
    7.8471   -5.8794    1.5622 H   0  0  0  0  0  0  0  0  0  0  0  0
    6.3510   -6.0876    2.4857 H   0  0  0  0  0  0  0  0  0  0  0  0
    7.6098   -4.9726    3.0769 H   0  0  0  0  0  0  0  0  0  0  0  0
  1  2  1  0
  1 19  1  0
  1 20  1  0
  1 21  1  0
  2  3  1  0
  2 22  1  0
  3  4  1  0
  3 23  1  0
  3 24  1  0
  4  5  2  0
  4  6  1  0
  6  7  1  0
  6 25  1  0
  7  8  2  0
  7 15  1  0
  8  9  1  0
  8 26  1  0
  9 10  2  0
  9 27  1  0
 10 11  1  0
 10 14  1  0
 11 12  1  0
 11 13  1  0
 11 28  1  6
 12 29  1  0
 12 30  1  0
 12 31  1  0
 13 32  1  0
 13 33  1  0
 13 34  1  0
 14 15  2  0
 14 35  1  0
 15 16  1  0
 16 17  1  0
 16 18  1  0
 16 36  1  1
 17 37  1  0
 17 38  1  0
 17 39  1  0
 18 40  1  0
 18 41  1  0
 18 42  1  0
M  END

