
     RDKit          3D

 62 64  0  0  0  0  0  0  0  0999 V2000
    5.7969   -2.3298   -1.5418 C   0  0  0  0  0  0  0  0  0  0  0  0
    5.7075   -0.8280   -1.7975 C   0  0  0  0  0  0  0  0  0  0  0  0
    4.5035   -0.1956   -1.0897 C   0  0  0  0  0  0  0  0  0  0  0  0
    3.7146   -0.9022   -0.4748 O   0  0  0  0  0  0  0  0  0  0  0  0
    4.3247    1.1704   -1.1684 N   0  0  0  0  0  0  0  0  0  0  0  0
    3.1348    1.7479   -0.5114 C   0  0  1  0  0  0  0  0  0  0  0  0
    1.7793    1.3150   -1.1338 C   0  0  0  0  0  0  0  0  0  0  0  0
    0.7858    1.3952    0.0325 C   0  0  0  0  0  0  0  0  0  0  0  0
    1.6008    0.8614    1.2214 C   0  0  0  0  0  0  0  0  0  0  0  0
    2.9995    1.4750    1.0248 C   0  0  0  0  0  0  0  0  0  0  0  0
    5.2806    2.0372   -1.8739 C   0  0  1  0  0  0  0  0  0  0  0  0
    4.6373    3.1616   -2.7109 C   0  0  0  0  0  0  0  0  0  0  0  0
    4.4882    4.4893   -2.0091 C   0  0  0  0  0  0  0  0  0  0  0  0
    3.7090    5.5263   -2.7780 C   0  0  0  0  0  0  0  0  0  0  0  0
    3.6423    5.4738   -3.9988 O   0  0  0  0  0  0  0  0  0  0  0  0
    3.1044    6.5026   -2.0385 N   0  0  0  0  0  0  0  0  0  0  0  0
    2.3100    7.5606   -2.6275 C   0  0  0  0  0  0  0  0  0  0  0  0
    0.8972    7.5669   -2.0657 C   0  0  0  0  0  0  0  0  0  0  0  0
    1.0031    7.7107   -0.6593 O   0  0  0  0  0  0  0  0  0  0  0  0
    5.1053    4.7714   -0.8480 C   0  0  0  0  0  0  0  0  0  0  0  0
    5.9134    3.7616   -0.0820 C   0  0  2  0  0  0  0  0  0  0  0  0
    7.1307    4.3392    0.4549 O   0  0  0  0  0  0  0  0  0  0  0  0
    7.0529    5.2122    1.5052 C   0  0  0  0  0  0  0  0  0  0  0  0
    7.1082    6.5916    1.2511 C   0  0  0  0  0  0  0  0  0  0  0  0
    7.0838    7.5147    2.2971 C   0  0  0  0  0  0  0  0  0  0  0  0
    7.0059    7.0678    3.6187 C   0  0  0  0  0  0  0  0  0  0  0  0
    6.9694    5.6975    3.8904 C   0  0  0  0  0  0  0  0  0  0  0  0
    6.9987    4.7725    2.8413 C   0  0  0  0  0  0  0  0  0  0  0  0
    7.0366    2.6978    3.3003 I   0  0  0  0  0  0  0  0  0  0  0  0
    6.3921    2.5974   -0.9612 C   0  0  2  0  0  0  0  0  0  0  0  0
    7.4216    3.0286   -1.8222 O   0  0  0  0  0  0  0  0  0  0  0  0
    6.6616   -2.7595   -2.0708 H   0  0  0  0  0  0  0  0  0  0  0  0
    4.8859   -2.8432   -1.8811 H   0  0  0  0  0  0  0  0  0  0  0  0
    5.9036   -2.5425   -0.4679 H   0  0  0  0  0  0  0  0  0  0  0  0
    5.6243   -0.6318   -2.8815 H   0  0  0  0  0  0  0  0  0  0  0  0
    6.6378   -0.3291   -1.4787 H   0  0  0  0  0  0  0  0  0  0  0  0
    3.2271    2.8303   -0.6444 H   0  0  0  0  0  0  0  0  0  0  0  0
    1.8512    0.2763   -1.4836 H   0  0  0  0  0  0  0  0  0  0  0  0
    1.4996    1.9462   -1.9926 H   0  0  0  0  0  0  0  0  0  0  0  0
   -0.1393    0.8263   -0.1525 H   0  0  0  0  0  0  0  0  0  0  0  0
    0.4897    2.4452    0.2144 H   0  0  0  0  0  0  0  0  0  0  0  0
    1.6750   -0.2340    1.1487 H   0  0  0  0  0  0  0  0  0  0  0  0
    1.1561    1.1095    2.1982 H   0  0  0  0  0  0  0  0  0  0  0  0
    3.7961    0.8191    1.3974 H   0  0  0  0  0  0  0  0  0  0  0  0
    3.0795    2.4304    1.5708 H   0  0  0  0  0  0  0  0  0  0  0  0
    5.8182    1.4040   -2.5866 H   0  0  0  0  0  0  0  0  0  0  0  0
    3.6687    2.8311   -3.1163 H   0  0  0  0  0  0  0  0  0  0  0  0
    5.2662    3.3477   -3.5960 H   0  0  0  0  0  0  0  0  0  0  0  0
    3.0566    6.4143   -1.0303 H   0  0  0  0  0  0  0  0  0  0  0  0
    2.2968    7.4008   -3.7148 H   0  0  0  0  0  0  0  0  0  0  0  0
    2.7761    8.5434   -2.4302 H   0  0  0  0  0  0  0  0  0  0  0  0
    0.3886    6.6215   -2.3389 H   0  0  0  0  0  0  0  0  0  0  0  0
    0.3285    8.4013   -2.5227 H   0  0  0  0  0  0  0  0  0  0  0  0
    0.1328    7.5817   -0.2633 H   0  0  0  0  0  0  0  0  0  0  0  0
    5.0246    5.7697   -0.4083 H   0  0  0  0  0  0  0  0  0  0  0  0
    5.3209    3.3623    0.7610 H   0  0  0  0  0  0  0  0  0  0  0  0
    7.1862    6.9176    0.2118 H   0  0  0  0  0  0  0  0  0  0  0  0
    7.1292    8.5841    2.0779 H   0  0  0  0  0  0  0  0  0  0  0  0
    6.9856    7.7818    4.4453 H   0  0  0  0  0  0  0  0  0  0  0  0
    6.9293    5.3447    4.9225 H   0  0  0  0  0  0  0  0  0  0  0  0
    6.7468    1.7921   -0.2899 H   0  0  0  0  0  0  0  0  0  0  0  0
    8.0102    3.5908   -1.2966 H   0  0  0  0  0  0  0  0  0  0  0  0
  1  2  1  0
  1 32  1  0
  1 33  1  0
  1 34  1  0
  2  3  1  0
  2 35  1  0
  2 36  1  0
  3  4  2  0
  3  5  1  0
  5  6  1  0
  5 11  1  0
  6  7  1  0
  6 10  1  0
  6 37  1  1
  7  8  1  0
  7 38  1  0
  7 39  1  0
  8  9  1  0
  8 40  1  0
  8 41  1  0
  9 10  1  0
  9 42  1  0
  9 43  1  0
 10 44  1  0
 10 45  1  0
 11 12  1  0
 11 30  1  0
 11 46  1  6
 12 13  1  0
 12 47  1  0
 12 48  1  0
 13 14  1  0
 13 20  2  0
 14 15  2  0
 14 16  1  0
 16 17  1  0
 16 49  1  0
 17 18  1  0
 17 50  1  0
 17 51  1  0
 18 19  1  0
 18 52  1  0
 18 53  1  0
 19 54  1  0
 20 21  1  0
 20 55  1  0
 21 22  1  0
 21 30  1  0
 21 56  1  1
 22 23  1  0
 23 24  2  0
 23 28  1  0
 24 25  1  0
 24 57  1  0
 25 26  2  0
 25 58  1  0
 26 27  1  0
 26 59  1  0
 27 28  2  0
 27 60  1  0
 28 29  1  0
 30 31  1  0
 30 61  1  1
 31 62  1  0
M  END

