
     RDKit          3D

 55 58  0  0  0  0  0  0  0  0999 V2000
    2.9815   -1.5418   -0.2274 C   0  0  0  0  0  0  0  0  0  0  0  0
    1.9937   -0.4774    0.2802 C   0  0  1  0  0  0  0  0  0  0  0  0
    0.9690   -1.0484    1.2798 C   0  0  0  0  0  0  0  0  0  0  0  0
    2.6474    0.7871    0.7916 C   0  0  0  0  0  0  0  0  0  0  0  0
    2.4307    2.1065    0.3637 C   0  0  0  0  0  0  0  0  0  0  0  0
    1.4868    2.5499   -0.6948 C   0  0  0  0  0  0  0  0  0  0  0  0
    0.5558    1.8583   -1.0893 O   0  0  0  0  0  0  0  0  0  0  0  0
    1.7545    3.8096   -1.1886 N   0  0  0  0  0  0  0  0  0  0  0  0
    1.0435    4.5627   -2.1430 C   0  0  0  0  0  0  0  0  0  0  0  0
   -0.1252    4.1159   -2.7869 C   0  0  0  0  0  0  0  0  0  0  0  0
   -0.7800    4.9237   -3.7138 C   0  0  0  0  0  0  0  0  0  0  0  0
   -0.2918    6.2049   -4.0406 C   0  0  0  0  0  0  0  0  0  0  0  0
   -0.9476    7.0470   -4.9616 N   0  0  0  0  0  0  0  0  0  0  0  0
   -0.4871    8.4020   -5.2415 C   0  0  0  0  0  0  0  0  0  0  0  0
   -1.5956    8.9630   -6.1493 C   0  0  0  0  0  0  0  0  0  0  0  0
   -2.1356    7.7469   -6.7215 N   0  0  0  0  0  0  0  0  0  0  0  0
   -1.9096    6.6520   -5.9018 C   0  0  0  0  0  0  0  0  0  0  0  0
   -2.4487    5.5703   -6.0032 O   0  0  0  0  0  0  0  0  0  0  0  0
    0.8811    6.6457   -3.3993 C   0  0  0  0  0  0  0  0  0  0  0  0
    1.5303    5.8386   -2.4668 C   0  0  0  0  0  0  0  0  0  0  0  0
    3.2666    2.8961    1.1977 C   0  0  0  0  0  0  0  0  0  0  0  0
    3.9359    2.1523    2.0606 N   0  0  0  0  0  0  0  0  0  0  0  0
    3.5609    0.8785    1.8051 N   0  0  0  0  0  0  0  0  0  0  0  0
    4.1642   -0.1666    2.6259 C   0  0  0  0  0  0  0  0  0  0  0  0
    5.5304   -0.6540    2.1691 C   0  0  0  0  0  0  0  0  0  0  0  0
    6.4915    0.2271    1.6510 C   0  0  0  0  0  0  0  0  0  0  0  0
    7.7555   -0.2424    1.2839 C   0  0  0  0  0  0  0  0  0  0  0  0
    8.0813   -1.5936    1.4378 C   0  0  0  0  0  0  0  0  0  0  0  0
    7.1326   -2.4760    1.9613 C   0  0  0  0  0  0  0  0  0  0  0  0
    5.8656   -2.0076    2.3209 C   0  0  0  0  0  0  0  0  0  0  0  0
    2.4266   -2.3416   -0.7434 H   0  0  0  0  0  0  0  0  0  0  0  0
    3.5631   -2.0140    0.5780 H   0  0  0  0  0  0  0  0  0  0  0  0
    3.6976   -1.1134   -0.9454 H   0  0  0  0  0  0  0  0  0  0  0  0
    1.4094   -0.1325   -0.5829 H   0  0  0  0  0  0  0  0  0  0  0  0
    1.4353   -1.4167    2.2085 H   0  0  0  0  0  0  0  0  0  0  0  0
    0.4325   -1.8958    0.8239 H   0  0  0  0  0  0  0  0  0  0  0  0
    0.2245   -0.2851    1.5511 H   0  0  0  0  0  0  0  0  0  0  0  0
    2.6028    4.2466   -0.8505 H   0  0  0  0  0  0  0  0  0  0  0  0
   -0.5143    3.1282   -2.5523 H   0  0  0  0  0  0  0  0  0  0  0  0
   -1.6781    4.5588   -4.2066 H   0  0  0  0  0  0  0  0  0  0  0  0
    0.4901    8.3893   -5.7608 H   0  0  0  0  0  0  0  0  0  0  0  0
   -0.3718    8.9890   -4.3180 H   0  0  0  0  0  0  0  0  0  0  0  0
   -1.1938    9.6459   -6.9136 H   0  0  0  0  0  0  0  0  0  0  0  0
   -2.3478    9.5181   -5.5557 H   0  0  0  0  0  0  0  0  0  0  0  0
   -2.9959    7.7410   -7.2569 H   0  0  0  0  0  0  0  0  0  0  0  0
    1.3073    7.6244   -3.6203 H   0  0  0  0  0  0  0  0  0  0  0  0
    2.4382    6.2131   -1.9837 H   0  0  0  0  0  0  0  0  0  0  0  0
    3.3786    3.9810    1.2291 H   0  0  0  0  0  0  0  0  0  0  0  0
    3.4657   -1.0096    2.6883 H   0  0  0  0  0  0  0  0  0  0  0  0
    4.2448    0.2651    3.6359 H   0  0  0  0  0  0  0  0  0  0  0  0
    6.2448    1.2854    1.5446 H   0  0  0  0  0  0  0  0  0  0  0  0
    8.4933    0.4549    0.8784 H   0  0  0  0  0  0  0  0  0  0  0  0
    9.0710   -1.9575    1.1503 H   0  0  0  0  0  0  0  0  0  0  0  0
    7.3753   -3.5346    2.0845 H   0  0  0  0  0  0  0  0  0  0  0  0
    5.1272   -2.7070    2.7249 H   0  0  0  0  0  0  0  0  0  0  0  0
  1  2  1  0
  1 31  1  0
  1 32  1  0
  1 33  1  0
  2  3  1  0
  2  4  1  0
  2 34  1  6
  3 35  1  0
  3 36  1  0
  3 37  1  0
  4  5  2  0
  4 23  1  0
  5  6  1  0
  5 21  1  0
  6  7  2  0
  6  8  1  0
  8  9  1  0
  8 38  1  0
  9 10  2  0
  9 20  1  0
 10 11  1  0
 10 39  1  0
 11 12  2  0
 11 40  1  0
 12 13  1  0
 12 19  1  0
 13 14  1  0
 13 17  1  0
 14 15  1  0
 14 41  1  0
 14 42  1  0
 15 16  1  0
 15 43  1  0
 15 44  1  0
 16 17  1  0
 16 45  1  0
 17 18  2  0
 19 20  2  0
 19 46  1  0
 20 47  1  0
 21 22  2  0
 21 48  1  0
 22 23  1  0
 23 24  1  0
 24 25  1  0
 24 49  1  0
 24 50  1  0
 25 26  2  0
 25 30  1  0
 26 27  1  0
 26 51  1  0
 27 28  2  0
 27 52  1  0
 28 29  1  0
 28 53  1  0
 29 30  2  0
 29 54  1  0
 30 55  1  0
M  END

