
     RDKit          3D

 50 51  0  0  0  0  0  0  0  0999 V2000
   -0.9497   -1.3632   -0.2815 C   0  0  0  0  0  0  0  0  0  0  0  0
    0.4592   -1.6649   -0.5012 N   0  0  0  0  0  0  0  0  0  0  0  0
    0.8402   -1.4869   -1.8937 C   0  0  0  0  0  0  0  0  0  0  0  0
    0.4446   -2.6598   -2.8056 C   0  0  0  0  0  0  0  0  0  0  0  0
    0.3075   -2.5281   -4.0071 O   0  0  0  0  0  0  0  0  0  0  0  0
    0.3281   -3.8586   -2.1572 N   0  0  0  0  0  0  0  0  0  0  0  0
   -0.1757   -5.0425   -2.8311 C   0  0  2  0  0  0  0  0  0  0  0  0
   -1.1177   -4.8153   -3.3549 H   0  0  0  0  0  0  0  0  0  0  0  0
   -0.3977   -6.1947   -1.8175 C   0  0  0  0  0  0  0  0  0  0  0  0
    0.8603   -6.8917   -1.2351 C   0  0  0  0  0  0  0  0  0  0  0  0
    1.7063   -7.7424   -2.2155 C   0  0  0  0  0  0  0  0  0  0  0  0
    2.6740   -6.9315   -3.1150 C   0  0  0  0  0  0  0  0  0  0  0  0
    2.1235   -5.6124   -3.4475 N   0  0  0  0  0  0  0  0  0  0  0  0
    0.7959   -5.6465   -3.8561 C   0  0  0  0  0  0  0  0  0  0  0  0
    0.3945   -6.3271   -4.7738 O   0  0  0  0  0  0  0  0  0  0  0  0
    1.4099   -1.1086    0.4873 C   0  0  1  0  0  0  0  0  0  0  0  0
    1.4328    0.4335    0.5075 C   0  0  0  0  0  0  0  0  0  0  0  0
    2.4423    1.0985    1.4575 C   0  0  0  0  0  0  0  0  0  0  0  0
    2.0943    0.9630    2.9493 C   0  0  0  0  0  0  0  0  0  0  0  0
    2.5271   -0.3453    3.6377 C   0  0  0  0  0  0  0  0  0  0  0  0
    2.4280   -1.6341    2.8004 C   0  0  0  0  0  0  0  0  0  0  0  0
    1.2099   -1.7638    1.8688 C   0  0  0  0  0  0  0  0  0  0  0  0
   -1.5696   -1.9949   -0.9379 H   0  0  0  0  0  0  0  0  0  0  0  0
   -1.2194   -0.3082   -0.4964 H   0  0  0  0  0  0  0  0  0  0  0  0
   -1.2393   -1.5867    0.7552 H   0  0  0  0  0  0  0  0  0  0  0  0
    1.9378   -1.4025   -1.9647 H   0  0  0  0  0  0  0  0  0  0  0  0
    0.4264   -0.5755   -2.3688 H   0  0  0  0  0  0  0  0  0  0  0  0
    0.3286   -3.7936   -1.1403 H   0  0  0  0  0  0  0  0  0  0  0  0
   -1.0156   -6.9530   -2.3236 H   0  0  0  0  0  0  0  0  0  0  0  0
   -1.0063   -5.8026   -0.9835 H   0  0  0  0  0  0  0  0  0  0  0  0
    0.5003   -7.5607   -0.4362 H   0  0  0  0  0  0  0  0  0  0  0  0
    1.5047   -6.1526   -0.7230 H   0  0  0  0  0  0  0  0  0  0  0  0
    1.0194   -8.3232   -2.8528 H   0  0  0  0  0  0  0  0  0  0  0  0
    2.2909   -8.4812   -1.6421 H   0  0  0  0  0  0  0  0  0  0  0  0
    2.8930   -7.4878   -4.0383 H   0  0  0  0  0  0  0  0  0  0  0  0
    3.6346   -6.7637   -2.6030 H   0  0  0  0  0  0  0  0  0  0  0  0
    2.2466   -4.9508   -2.6854 H   0  0  0  0  0  0  0  0  0  0  0  0
    2.4032   -1.4451    0.1386 H   0  0  0  0  0  0  0  0  0  0  0  0
    0.4256    0.8074    0.7645 H   0  0  0  0  0  0  0  0  0  0  0  0
    1.6327    0.7834   -0.5198 H   0  0  0  0  0  0  0  0  0  0  0  0
    2.4735    2.1714    1.2041 H   0  0  0  0  0  0  0  0  0  0  0  0
    3.4625    0.7196    1.2623 H   0  0  0  0  0  0  0  0  0  0  0  0
    1.0026    1.0942    3.0555 H   0  0  0  0  0  0  0  0  0  0  0  0
    2.5412    1.8035    3.5062 H   0  0  0  0  0  0  0  0  0  0  0  0
    1.9266   -0.4614    4.5569 H   0  0  0  0  0  0  0  0  0  0  0  0
    3.5716   -0.2475    3.9816 H   0  0  0  0  0  0  0  0  0  0  0  0
    2.4371   -2.4897    3.4959 H   0  0  0  0  0  0  0  0  0  0  0  0
    3.3413   -1.7502    2.1905 H   0  0  0  0  0  0  0  0  0  0  0  0
    0.3087   -1.3678    2.3693 H   0  0  0  0  0  0  0  0  0  0  0  0
    1.0139   -2.8326    1.6833 H   0  0  0  0  0  0  0  0  0  0  0  0
  1  2  1  0
  1 23  1  0
  1 24  1  0
  1 25  1  0
  2  3  1  0
  2 16  1  0
  3  4  1  0
  3 26  1  0
  3 27  1  0
  4  5  2  0
  4  6  1  0
  6  7  1  0
  6 28  1  0
  7  8  1  6
  7  9  1  0
  7 14  1  0
  9 10  1  0
  9 29  1  0
  9 30  1  0
 10 11  1  0
 10 31  1  0
 10 32  1  0
 11 12  1  0
 11 33  1  0
 11 34  1  0
 12 13  1  0
 12 35  1  0
 12 36  1  0
 13 14  1  0
 13 37  1  0
 14 15  2  0
 16 17  1  0
 16 22  1  0
 16 38  1  6
 17 18  1  0
 17 39  1  0
 17 40  1  0
 18 19  1  0
 18 41  1  0
 18 42  1  0
 19 20  1  0
 19 43  1  0
 19 44  1  0
 20 21  1  0
 20 45  1  0
 20 46  1  0
 21 22  1  0
 21 47  1  0
 21 48  1  0
 22 49  1  0
 22 50  1  0
M  END

