
     RDKit          3D

 44 45  0  0  0  0  0  0  0  0999 V2000
    2.9744    0.0149   -0.1316 C   0  0  0  0  0  0  0  0  0  0  0  0
    2.5339    0.1228    1.3327 C   0  0  1  0  0  0  0  0  0  0  0  0
    2.8721   -1.1496    2.1207 C   0  0  0  0  0  0  0  0  0  0  0  0
    3.0627    1.4183    2.0106 C   0  0  1  0  0  0  0  0  0  0  0  0
    2.8635    2.2485    1.3061 H   0  0  0  0  0  0  0  0  0  0  0  0
    2.4197    1.6094    3.3145 N   0  0  0  0  0  0  0  0  0  0  0  0
    4.5970    1.3993    2.1600 C   0  0  0  0  0  0  0  0  0  0  0  0
    5.3329    1.6059    1.2021 O   0  0  0  0  0  0  0  0  0  0  0  0
    5.0403    1.1130    3.4098 N   0  0  0  0  0  0  0  0  0  0  0  0
    6.4522    1.0757    3.7590 C   0  0  0  0  0  0  0  0  0  0  0  0
    6.9758    2.3732    4.3459 C   0  0  0  0  0  0  0  0  0  0  0  0
    7.2664    2.5002    5.7102 C   0  0  0  0  0  0  0  0  0  0  0  0
    7.7327    3.6955    6.2591 C   0  0  0  0  0  0  0  0  0  0  0  0
    7.9232    4.8215    5.4342 C   0  0  0  0  0  0  0  0  0  0  0  0
    8.4067    6.0492    5.9434 N   0  0  0  0  0  0  0  0  0  0  0  0
    8.7833    7.1509    5.0534 C   0  0  0  0  0  0  0  0  0  0  0  0
    9.5240    8.1364    5.9702 C   0  0  0  0  0  0  0  0  0  0  0  0
    8.8997    7.8800    7.3414 C   0  0  0  0  0  0  0  0  0  0  0  0
    8.4561    6.4202    7.2845 C   0  0  0  0  0  0  0  0  0  0  0  0
    8.1755    5.7280    8.2404 O   0  0  0  0  0  0  0  0  0  0  0  0
    7.6294    4.7019    4.0600 C   0  0  0  0  0  0  0  0  0  0  0  0
    7.1669    3.4981    3.5300 C   0  0  0  0  0  0  0  0  0  0  0  0
    2.5328   -0.8800   -0.5989 H   0  0  0  0  0  0  0  0  0  0  0  0
    4.0691   -0.0498   -0.2139 H   0  0  0  0  0  0  0  0  0  0  0  0
    2.6546    0.8938   -0.7140 H   0  0  0  0  0  0  0  0  0  0  0  0
    1.4313    0.2352    1.3367 H   0  0  0  0  0  0  0  0  0  0  0  0
    3.9548   -1.3543    2.1029 H   0  0  0  0  0  0  0  0  0  0  0  0
    2.3627   -2.0214    1.6798 H   0  0  0  0  0  0  0  0  0  0  0  0
    2.5615   -1.0713    3.1736 H   0  0  0  0  0  0  0  0  0  0  0  0
    1.4299    1.3688    3.2658 H   0  0  0  0  0  0  0  0  0  0  0  0
    2.4680    2.5876    3.6001 H   0  0  0  0  0  0  0  0  0  0  0  0
    4.3184    1.0422    4.1237 H   0  0  0  0  0  0  0  0  0  0  0  0
    6.9958    0.8381    2.8327 H   0  0  0  0  0  0  0  0  0  0  0  0
    6.6170    0.2512    4.4708 H   0  0  0  0  0  0  0  0  0  0  0  0
    7.1322    1.6391    6.3724 H   0  0  0  0  0  0  0  0  0  0  0  0
    7.9431    3.7715    7.3226 H   0  0  0  0  0  0  0  0  0  0  0  0
    7.8847    7.6104    4.6000 H   0  0  0  0  0  0  0  0  0  0  0  0
    9.4163    6.7853    4.2308 H   0  0  0  0  0  0  0  0  0  0  0  0
    9.4299    9.1748    5.6219 H   0  0  0  0  0  0  0  0  0  0  0  0
   10.5970    7.8877    5.9909 H   0  0  0  0  0  0  0  0  0  0  0  0
    7.9983    8.4955    7.5114 H   0  0  0  0  0  0  0  0  0  0  0  0
    9.5682    8.0391    8.1987 H   0  0  0  0  0  0  0  0  0  0  0  0
    7.7570    5.5508    3.3883 H   0  0  0  0  0  0  0  0  0  0  0  0
    6.9457    3.4258    2.4618 H   0  0  0  0  0  0  0  0  0  0  0  0
  1  2  1  0
  1 23  1  0
  1 24  1  0
  1 25  1  0
  2  3  1  0
  2  4  1  0
  2 26  1  6
  3 27  1  0
  3 28  1  0
  3 29  1  0
  4  5  1  6
  4  6  1  0
  4  7  1  0
  6 30  1  0
  6 31  1  0
  7  8  2  0
  7  9  1  0
  9 10  1  0
  9 32  1  0
 10 11  1  0
 10 33  1  0
 10 34  1  0
 11 12  2  0
 11 22  1  0
 12 13  1  0
 12 35  1  0
 13 14  2  0
 13 36  1  0
 14 15  1  0
 14 21  1  0
 15 16  1  0
 15 19  1  0
 16 17  1  0
 16 37  1  0
 16 38  1  0
 17 18  1  0
 17 39  1  0
 17 40  1  0
 18 19  1  0
 18 41  1  0
 18 42  1  0
 19 20  2  0
 21 22  2  0
 21 43  1  0
 22 44  1  0
M  END

