
     RDKit          3D

 43 43  0  0  0  0  0  0  0  0999 V2000
    1.5645   -0.3559    1.5526 C   0  0  0  0  0  0  0  0  0  0  0  0
    3.0596   -0.1944    1.5390 C   0  0  0  0  0  0  0  0  0  0  0  0
    3.8547   -0.8789    2.1196 O   0  0  0  0  0  0  0  0  0  0  0  0
    3.4213    0.8605    0.7366 O   0  0  0  0  0  0  0  0  0  0  0  0
    4.8086    0.9988    0.4394 C   0  0  1  0  0  0  0  0  0  0  0  0
    5.1612    0.2195   -0.6642 O   0  0  0  0  0  0  0  0  0  0  0  0
    4.6563    0.5872   -1.9399 C   0  0  1  0  0  0  0  0  0  0  0  0
    5.1828   -0.0643   -2.6524 H   0  0  0  0  0  0  0  0  0  0  0  0
    3.1625    0.2603   -2.1136 C   0  0  2  0  0  0  0  0  0  0  0  0
    2.9102   -0.9758   -1.6054 F   0  0  0  0  0  0  0  0  0  0  0  0
    2.8924    0.2136   -3.4519 F   0  0  0  0  0  0  0  0  0  0  0  0
    5.0415    2.0516   -2.2427 C   0  0  1  0  0  0  0  0  0  0  0  0
    6.1384    2.0693   -2.3221 H   0  0  0  0  0  0  0  0  0  0  0  0
    4.4615    2.5296   -3.4526 O   0  0  0  0  0  0  0  0  0  0  0  0
    5.0575    2.1688   -4.6214 C   0  0  0  0  0  0  0  0  0  0  0  0
    4.2818    2.6957   -5.7975 C   0  0  0  0  0  0  0  0  0  0  0  0
    6.0602    1.5047   -4.6649 O   0  0  0  0  0  0  0  0  0  0  0  0
    4.6378    3.0202   -1.1294 C   0  0  1  0  0  0  0  0  0  0  0  0
    5.1000    3.9998   -1.3108 H   0  0  0  0  0  0  0  0  0  0  0  0
    3.2167    3.1859   -1.1120 O   0  0  0  0  0  0  0  0  0  0  0  0
    2.7083    4.4003   -1.4704 C   0  0  0  0  0  0  0  0  0  0  0  0
    1.2039    4.3471   -1.5105 C   0  0  0  0  0  0  0  0  0  0  0  0
    3.3882    5.3604   -1.7149 O   0  0  0  0  0  0  0  0  0  0  0  0
    5.0984    2.4940    0.2350 C   0  0  2  0  0  0  0  0  0  0  0  0
    4.6260    3.0619    1.0478 H   0  0  0  0  0  0  0  0  0  0  0  0
    6.5174    2.6927    0.2594 O   0  0  0  0  0  0  0  0  0  0  0  0
    7.1040    2.8589    1.4776 C   0  0  0  0  0  0  0  0  0  0  0  0
    8.5917    3.0377    1.3347 C   0  0  0  0  0  0  0  0  0  0  0  0
    6.4815    2.8505    2.5069 O   0  0  0  0  0  0  0  0  0  0  0  0
    1.2737   -1.0456    2.3539 H   0  0  0  0  0  0  0  0  0  0  0  0
    1.2572   -0.7731    0.5801 H   0  0  0  0  0  0  0  0  0  0  0  0
    1.0667    0.6168    1.6745 H   0  0  0  0  0  0  0  0  0  0  0  0
    5.3926    0.6042    1.2800 H   0  0  0  0  0  0  0  0  0  0  0  0
    2.4793    0.9789   -1.6433 H   0  0  0  0  0  0  0  0  0  0  0  0
    3.3078    2.1827   -5.8354 H   0  0  0  0  0  0  0  0  0  0  0  0
    4.8381    2.5056   -6.7226 H   0  0  0  0  0  0  0  0  0  0  0  0
    4.0845    3.7711   -5.6766 H   0  0  0  0  0  0  0  0  0  0  0  0
    0.8111    3.9268   -0.5729 H   0  0  0  0  0  0  0  0  0  0  0  0
    0.8849    3.6822   -2.3288 H   0  0  0  0  0  0  0  0  0  0  0  0
    0.8041    5.3543   -1.6765 H   0  0  0  0  0  0  0  0  0  0  0  0
    9.0333    2.1194    0.9169 H   0  0  0  0  0  0  0  0  0  0  0  0
    9.0317    3.2491    2.3162 H   0  0  0  0  0  0  0  0  0  0  0  0
    8.8112    3.8542    0.6307 H   0  0  0  0  0  0  0  0  0  0  0  0
  1  2  1  0
  1 30  1  0
  1 31  1  0
  1 32  1  0
  2  3  2  0
  2  4  1  0
  4  5  1  0
  5  6  1  0
  5 24  1  0
  5 33  1  1
  6  7  1  0
  7  8  1  6
  7  9  1  0
  7 12  1  0
  9 10  1  0
  9 11  1  0
  9 34  1  1
 12 13  1  6
 12 14  1  0
 12 18  1  0
 14 15  1  0
 15 16  1  0
 15 17  2  0
 16 35  1  0
 16 36  1  0
 16 37  1  0
 18 19  1  6
 18 20  1  0
 18 24  1  0
 20 21  1  0
 21 22  1  0
 21 23  2  0
 22 38  1  0
 22 39  1  0
 22 40  1  0
 24 25  1  1
 24 26  1  0
 26 27  1  0
 27 28  1  0
 27 29  2  0
 28 41  1  0
 28 42  1  0
 28 43  1  0
M  END

