
     RDKit          3D

 54 57  0  0  0  0  0  0  0  0999 V2000
    1.6185    0.6706    1.0552 C   0  0  0  0  0  0  0  0  0  0  0  0
    2.6583    0.2216    0.1521 N   0  0  0  0  0  0  0  0  0  0  0  0
    3.3613   -1.0160    0.4226 C   0  0  0  0  0  0  0  0  0  0  0  0
    2.9781    0.9721   -0.9611 C   0  0  0  0  0  0  0  0  0  0  0  0
    2.3068    2.1853   -1.2587 C   0  0  0  0  0  0  0  0  0  0  0  0
    2.6409    2.9291   -2.3839 C   0  0  0  0  0  0  0  0  0  0  0  0
    3.6511    2.5300   -3.2839 C   0  0  0  0  0  0  0  0  0  0  0  0
    3.9521    3.3558   -4.4450 C   0  0  0  0  0  0  0  0  0  0  0  0
    4.8830    3.1384   -5.4122 C   0  0  0  0  0  0  0  0  0  0  0  0
    5.0992    4.0261   -6.5260 C   0  0  0  0  0  0  0  0  0  0  0  0
    6.0240    3.8246   -7.5012 C   0  0  0  0  0  0  0  0  0  0  0  0
    6.2983    4.6761   -8.6544 C   0  0  0  0  0  0  0  0  0  0  0  0
    5.5884    5.8897   -8.9120 C   0  0  0  0  0  0  0  0  0  0  0  0
    5.8723    6.6687  -10.0082 C   0  0  0  0  0  0  0  0  0  0  0  0
    6.8875    6.2964  -10.9327 C   0  0  0  0  0  0  0  0  0  0  0  0
    7.1382    7.0971  -12.0069 N   0  0  0  0  0  0  0  0  0  0  0  0
    8.0869    6.6934  -12.8173 C   0  0  0  0  0  0  0  0  0  0  0  0
    8.8426    5.5795  -12.7124 N   0  0  0  0  0  0  0  0  0  0  0  0
    8.6286    4.7758  -11.6826 C   0  0  0  0  0  0  0  0  0  0  0  0
    9.3684    3.6333  -11.5322 N   0  0  0  0  0  0  0  0  0  0  0  0
   10.4042    3.0727  -12.3005 C   0  0  0  0  0  0  0  0  0  0  0  0
   10.9201    3.6408  -13.4802 C   0  0  0  0  0  0  0  0  0  0  0  0
   11.9533    2.9927  -14.1622 C   0  0  0  0  0  0  0  0  0  0  0  0
   12.4899    1.7885  -13.6997 C   0  0  0  0  0  0  0  0  0  0  0  0
   11.9770    1.2241  -12.5272 C   0  0  0  0  0  0  0  0  0  0  0  0
   10.9471    1.8573  -11.8353 C   0  0  0  0  0  0  0  0  0  0  0  0
    7.6094    5.0882  -10.6958 C   0  0  0  0  0  0  0  0  0  0  0  0
    7.2960    4.3072   -9.5602 C   0  0  0  0  0  0  0  0  0  0  0  0
    4.3157    1.3209   -2.9817 C   0  0  0  0  0  0  0  0  0  0  0  0
    3.9974    0.5637   -1.8637 C   0  0  0  0  0  0  0  0  0  0  0  0
    1.5159   -0.0468    1.8793 H   0  0  0  0  0  0  0  0  0  0  0  0
    0.6356    0.7509    0.5544 H   0  0  0  0  0  0  0  0  0  0  0  0
    1.8473    1.6584    1.4965 H   0  0  0  0  0  0  0  0  0  0  0  0
    2.9630   -1.4684    1.3396 H   0  0  0  0  0  0  0  0  0  0  0  0
    4.4460   -0.8580    0.5695 H   0  0  0  0  0  0  0  0  0  0  0  0
    3.2408   -1.7519   -0.3940 H   0  0  0  0  0  0  0  0  0  0  0  0
    1.5154    2.5531   -0.6070 H   0  0  0  0  0  0  0  0  0  0  0  0
    2.0983    3.8593   -2.5771 H   0  0  0  0  0  0  0  0  0  0  0  0
    3.3419    4.2632   -4.5349 H   0  0  0  0  0  0  0  0  0  0  0  0
    5.5183    2.2465   -5.3676 H   0  0  0  0  0  0  0  0  0  0  0  0
    4.4597    4.9155   -6.5624 H   0  0  0  0  0  0  0  0  0  0  0  0
    6.6448    2.9234   -7.4297 H   0  0  0  0  0  0  0  0  0  0  0  0
    4.8022    6.2077   -8.2244 H   0  0  0  0  0  0  0  0  0  0  0  0
    5.3316    7.5960  -10.2072 H   0  0  0  0  0  0  0  0  0  0  0  0
    8.3036    7.3257  -13.6879 H   0  0  0  0  0  0  0  0  0  0  0  0
    9.1326    3.0829  -10.7177 H   0  0  0  0  0  0  0  0  0  0  0  0
   10.5030    4.5771  -13.8405 H   0  0  0  0  0  0  0  0  0  0  0  0
   12.3436    3.4464  -15.0772 H   0  0  0  0  0  0  0  0  0  0  0  0
   13.2975    1.2943  -14.2447 H   0  0  0  0  0  0  0  0  0  0  0  0
   12.3805    0.2826  -12.1455 H   0  0  0  0  0  0  0  0  0  0  0  0
   10.5535    1.4065  -10.9184 H   0  0  0  0  0  0  0  0  0  0  0  0
    7.8351    3.3774   -9.3561 H   0  0  0  0  0  0  0  0  0  0  0  0
    5.1080    0.9581   -3.6407 H   0  0  0  0  0  0  0  0  0  0  0  0
    4.5489   -0.3591   -1.6881 H   0  0  0  0  0  0  0  0  0  0  0  0
  1  2  1  0
  1 31  1  0
  1 32  1  0
  1 33  1  0
  2  3  1  0
  2  4  1  0
  3 34  1  0
  3 35  1  0
  3 36  1  0
  4  5  2  0
  4 30  1  0
  5  6  1  0
  5 37  1  0
  6  7  2  0
  6 38  1  0
  7  8  1  0
  7 29  1  0
  8  9  2  0
  8 39  1  0
  9 10  1  0
  9 40  1  0
 10 11  2  0
 10 41  1  0
 11 12  1  0
 11 42  1  0
 12 13  2  0
 12 28  1  0
 13 14  1  0
 13 43  1  0
 14 15  2  0
 14 44  1  0
 15 16  1  0
 15 27  1  0
 16 17  2  0
 17 18  1  0
 17 45  1  0
 18 19  2  0
 19 20  1  0
 19 27  1  0
 20 21  1  0
 20 46  1  0
 21 22  2  0
 21 26  1  0
 22 23  1  0
 22 47  1  0
 23 24  2  0
 23 48  1  0
 24 25  1  0
 24 49  1  0
 25 26  2  0
 25 50  1  0
 26 51  1  0
 27 28  2  0
 28 52  1  0
 29 30  2  0
 29 53  1  0
 30 54  1  0
M  END

