
     RDKit          3D

 65 67  0  0  0  0  0  0  0  0999 V2000
    1.1482    3.4511    0.4289 C   0  0  0  0  0  0  0  0  0  0  0  0
    2.2739    4.4876    0.3785 C   0  0  1  0  0  0  0  0  0  0  0  0
    3.3661    4.0359   -0.6165 C   0  0  0  0  0  0  0  0  0  0  0  0
    2.8845    4.1076   -1.9788 N   0  0  0  0  0  0  0  0  0  0  0  0
    3.1589    3.1731   -2.9324 C   0  0  0  0  0  0  0  0  0  0  0  0
    3.8341    2.1776   -2.6997 O   0  0  0  0  0  0  0  0  0  0  0  0
    2.5875    3.4955   -4.3194 C   0  0  1  0  0  0  0  0  0  0  0  0
    3.5715    4.3863   -5.1210 C   0  0  0  0  0  0  0  0  0  0  0  0
    4.8033    3.6153   -5.6056 C   0  0  0  0  0  0  0  0  0  0  0  0
    4.4176    2.3869   -6.4533 C   0  0  2  0  0  0  0  0  0  0  0  0
    3.8302    2.7698   -7.7405 N   0  0  0  0  0  0  0  0  0  0  0  0
    4.5842    3.1737   -8.8026 C   0  0  0  0  0  0  0  0  0  0  0  0
    5.8016    3.2780   -8.7421 O   0  0  0  0  0  0  0  0  0  0  0  0
    3.8146    3.5013  -10.0816 C   0  0  1  0  0  0  0  0  0  0  0  0
    4.0016    4.9657  -10.5263 C   0  0  0  0  0  0  0  0  0  0  0  0
    3.5467    4.9586  -11.9929 C   0  0  0  0  0  0  0  0  0  0  0  0
    3.9993    3.5818  -12.5472 C   0  0  0  0  0  0  0  0  0  0  0  0
    4.3322    2.7110  -11.3055 C   0  0  0  0  0  0  0  0  0  0  0  0
    3.4580    1.4776   -5.6729 C   0  0  0  0  0  0  0  0  0  0  0  0
    2.2321    2.2248   -5.1190 C   0  0  0  0  0  0  0  0  0  0  0  0
    1.8132    5.8403   -0.0090 N   0  0  0  0  0  0  0  0  0  0  0  0
    0.4487    6.2598    0.3350 C   0  0  0  0  0  0  0  0  0  0  0  0
    0.3055    6.7179    1.7979 C   0  0  0  0  0  0  0  0  0  0  0  0
    1.2572    7.7648    2.1632 N   0  0  0  0  0  0  0  0  0  0  0  0
    0.8761    9.1083    1.7706 C   0  0  0  0  0  0  0  0  0  0  0  0
    2.6185    7.3751    1.8043 C   0  0  0  0  0  0  0  0  0  0  0  0
    2.7545    6.9161    0.3397 C   0  0  0  0  0  0  0  0  0  0  0  0
    1.5781    2.4610    0.6414 H   0  0  0  0  0  0  0  0  0  0  0  0
    0.6185    3.3835   -0.5339 H   0  0  0  0  0  0  0  0  0  0  0  0
    0.4126    3.6655    1.2174 H   0  0  0  0  0  0  0  0  0  0  0  0
    2.7530    4.4969    1.3804 H   0  0  0  0  0  0  0  0  0  0  0  0
    3.6698    2.9986   -0.4173 H   0  0  0  0  0  0  0  0  0  0  0  0
    4.2733    4.6555   -0.4927 H   0  0  0  0  0  0  0  0  0  0  0  0
    2.3021    4.9130   -2.1872 H   0  0  0  0  0  0  0  0  0  0  0  0
    1.6605    4.0741   -4.1620 H   0  0  0  0  0  0  0  0  0  0  0  0
    3.8748    5.2535   -4.5114 H   0  0  0  0  0  0  0  0  0  0  0  0
    3.0330    4.7947   -5.9942 H   0  0  0  0  0  0  0  0  0  0  0  0
    5.3900    3.2621   -4.7416 H   0  0  0  0  0  0  0  0  0  0  0  0
    5.4619    4.2667   -6.2000 H   0  0  0  0  0  0  0  0  0  0  0  0
    5.3408    1.8348   -6.6892 H   0  0  0  0  0  0  0  0  0  0  0  0
    2.8297    2.6834   -7.8676 H   0  0  0  0  0  0  0  0  0  0  0  0
    2.7363    3.3049   -9.9388 H   0  0  0  0  0  0  0  0  0  0  0  0
    5.0740    5.2103  -10.4470 H   0  0  0  0  0  0  0  0  0  0  0  0
    3.4481    5.6824   -9.8983 H   0  0  0  0  0  0  0  0  0  0  0  0
    3.9528    5.8065  -12.5664 H   0  0  0  0  0  0  0  0  0  0  0  0
    2.4476    5.0426  -12.0388 H   0  0  0  0  0  0  0  0  0  0  0  0
    4.8841    3.6836  -13.1949 H   0  0  0  0  0  0  0  0  0  0  0  0
    3.2118    3.1262  -13.1678 H   0  0  0  0  0  0  0  0  0  0  0  0
    5.4211    2.5973  -11.1916 H   0  0  0  0  0  0  0  0  0  0  0  0
    3.9007    1.6994  -11.3598 H   0  0  0  0  0  0  0  0  0  0  0  0
    4.0099    1.0498   -4.8252 H   0  0  0  0  0  0  0  0  0  0  0  0
    3.1327    0.6403   -6.3143 H   0  0  0  0  0  0  0  0  0  0  0  0
    1.6387    1.5397   -4.4926 H   0  0  0  0  0  0  0  0  0  0  0  0
    1.5643    2.5292   -5.9468 H   0  0  0  0  0  0  0  0  0  0  0  0
   -0.2680    5.4603    0.1042 H   0  0  0  0  0  0  0  0  0  0  0  0
    0.1897    7.1018   -0.3327 H   0  0  0  0  0  0  0  0  0  0  0  0
    0.4679    5.8525    2.4680 H   0  0  0  0  0  0  0  0  0  0  0  0
   -0.7194    7.0786    1.9885 H   0  0  0  0  0  0  0  0  0  0  0  0
   -0.1153    9.3477    2.1891 H   0  0  0  0  0  0  0  0  0  0  0  0
    0.8232    9.2970    0.6747 H   0  0  0  0  0  0  0  0  0  0  0  0
    1.5937    9.8324    2.1900 H   0  0  0  0  0  0  0  0  0  0  0  0
    2.9289    6.5513    2.4738 H   0  0  0  0  0  0  0  0  0  0  0  0
    3.3021    8.2168    2.0051 H   0  0  0  0  0  0  0  0  0  0  0  0
    3.7863    6.5906    0.1382 H   0  0  0  0  0  0  0  0  0  0  0  0
    2.5621    7.7709   -0.3337 H   0  0  0  0  0  0  0  0  0  0  0  0
  1  2  1  0
  1 28  1  0
  1 29  1  0
  1 30  1  0
  2  3  1  0
  2 21  1  0
  2 31  1  1
  3  4  1  0
  3 32  1  0
  3 33  1  0
  4  5  1  0
  4 34  1  0
  5  6  2  0
  5  7  1  0
  7  8  1  0
  7 20  1  0
  7 35  1  1
  8  9  1  0
  8 36  1  0
  8 37  1  0
  9 10  1  0
  9 38  1  0
  9 39  1  0
 10 11  1  0
 10 19  1  0
 10 40  1  6
 11 12  1  0
 11 41  1  0
 12 13  2  0
 12 14  1  0
 14 15  1  0
 14 18  1  0
 14 42  1  1
 15 16  1  0
 15 43  1  0
 15 44  1  0
 16 17  1  0
 16 45  1  0
 16 46  1  0
 17 18  1  0
 17 47  1  0
 17 48  1  0
 18 49  1  0
 18 50  1  0
 19 20  1  0
 19 51  1  0
 19 52  1  0
 20 53  1  0
 20 54  1  0
 21 22  1  0
 21 27  1  0
 22 23  1  0
 22 55  1  0
 22 56  1  0
 23 24  1  0
 23 57  1  0
 23 58  1  0
 24 25  1  0
 24 26  1  0
 25 59  1  0
 25 60  1  0
 25 61  1  0
 26 27  1  0
 26 62  1  0
 26 63  1  0
 27 64  1  0
 27 65  1  0
M  END

