
     RDKit          3D

 54 58  0  0  0  0  0  0  0  0999 V2000
    9.6080   -0.5076   -4.5202 C   0  0  0  0  0  0  0  0  0  0  0  0
    9.5645   -1.0938   -3.1355 C   0  0  0  0  0  0  0  0  0  0  0  0
   10.6954   -1.5894   -2.5117 C   0  0  0  0  0  0  0  0  0  0  0  0
   10.6421   -2.1417   -1.2089 C   0  0  0  0  0  0  0  0  0  0  0  0
    9.4527   -2.2020   -0.5155 C   0  0  0  0  0  0  0  0  0  0  0  0
    8.2578   -1.7001   -1.1044 C   0  0  0  0  0  0  0  0  0  0  0  0
    6.9873   -1.7029   -0.4398 C   0  0  0  0  0  0  0  0  0  0  0  0
    6.8170   -2.2154    0.9793 C   0  0  0  0  0  0  0  0  0  0  0  0
    7.1348   -3.6223    1.1280 N   0  0  0  0  0  0  0  0  0  0  0  0
    6.2958   -4.5348    0.3657 C   0  0  0  0  0  0  0  0  0  0  0  0
    6.5717   -5.8284    0.9649 N   0  0  0  0  0  0  0  0  0  0  0  0
    6.2276   -7.0252    0.3959 C   0  0  0  0  0  0  0  0  0  0  0  0
    5.4306   -7.0746   -0.7786 C   0  0  0  0  0  0  0  0  0  0  0  0
    5.0796   -8.2921   -1.3493 C   0  0  0  0  0  0  0  0  0  0  0  0
    5.5168   -9.4897   -0.7720 C   0  0  0  0  0  0  0  0  0  0  0  0
    5.0495  -11.0540   -1.5013 S   0  0  1  0  0  0  0  0  0  0  0  0
    6.3678  -11.4280   -2.6838 C   0  0  0  0  0  0  0  0  0  0  0  0
    5.1169  -12.0858   -0.4546 O   0  0  0  0  0  0  0  0  0  0  0  0
    3.8241  -10.8455   -2.2883 O   0  0  0  0  0  0  0  0  0  0  0  0
    6.2874   -9.4674    0.3958 C   0  0  0  0  0  0  0  0  0  0  0  0
    6.6443   -8.2540    0.9720 C   0  0  0  0  0  0  0  0  0  0  0  0
    7.3482   -5.6829    2.1861 C   0  0  0  0  0  0  0  0  0  0  0  0
    7.2459   -4.1907    2.4589 C   0  0  1  0  0  0  0  0  0  0  0  0
    7.9959   -3.5495    3.5793 C   0  0  0  0  0  0  0  0  0  0  0  0
    6.4845   -3.6805    3.6689 C   0  0  0  0  0  0  0  0  0  0  0  0
    5.9013   -1.1820   -1.1172 C   0  0  0  0  0  0  0  0  0  0  0  0
    6.0661   -0.6666   -2.4268 C   0  0  0  0  0  0  0  0  0  0  0  0
    7.2162   -0.6435   -3.0584 N   0  0  0  0  0  0  0  0  0  0  0  0
    8.3153   -1.1432   -2.4288 C   0  0  0  0  0  0  0  0  0  0  0  0
   10.6275   -0.5377   -4.9315 H   0  0  0  0  0  0  0  0  0  0  0  0
    9.2557    0.5359   -4.5190 H   0  0  0  0  0  0  0  0  0  0  0  0
    8.9340   -1.0512   -5.2009 H   0  0  0  0  0  0  0  0  0  0  0  0
   11.6536   -1.5567   -3.0379 H   0  0  0  0  0  0  0  0  0  0  0  0
   11.5576   -2.5290   -0.7541 H   0  0  0  0  0  0  0  0  0  0  0  0
    9.4116   -2.6596    0.4723 H   0  0  0  0  0  0  0  0  0  0  0  0
    5.7783   -1.9877    1.3027 H   0  0  0  0  0  0  0  0  0  0  0  0
    7.4883   -1.6454    1.6426 H   0  0  0  0  0  0  0  0  0  0  0  0
    6.5664   -4.5113   -0.7050 H   0  0  0  0  0  0  0  0  0  0  0  0
    5.2098   -4.2808    0.4419 H   0  0  0  0  0  0  0  0  0  0  0  0
    5.0659   -6.1535   -1.2341 H   0  0  0  0  0  0  0  0  0  0  0  0
    4.4436   -8.3242   -2.2365 H   0  0  0  0  0  0  0  0  0  0  0  0
    7.3212  -11.5188   -2.1477 H   0  0  0  0  0  0  0  0  0  0  0  0
    6.4061  -10.6395   -3.4463 H   0  0  0  0  0  0  0  0  0  0  0  0
    6.0838  -12.3894   -3.1348 H   0  0  0  0  0  0  0  0  0  0  0  0
    6.5919  -10.4099    0.8559 H   0  0  0  0  0  0  0  0  0  0  0  0
    7.2484   -8.2567    1.8795 H   0  0  0  0  0  0  0  0  0  0  0  0
    8.4022   -5.9917    2.0385 H   0  0  0  0  0  0  0  0  0  0  0  0
    6.9301   -6.2810    3.0125 H   0  0  0  0  0  0  0  0  0  0  0  0
    8.4138   -2.5491    3.4341 H   0  0  0  0  0  0  0  0  0  0  0  0
    8.6164   -4.1951    4.2088 H   0  0  0  0  0  0  0  0  0  0  0  0
    5.8974   -2.7637    3.5697 H   0  0  0  0  0  0  0  0  0  0  0  0
    6.0605   -4.4077    4.3679 H   0  0  0  0  0  0  0  0  0  0  0  0
    4.9134   -1.1591   -0.6494 H   0  0  0  0  0  0  0  0  0  0  0  0
    5.1970   -0.2578   -2.9584 H   0  0  0  0  0  0  0  0  0  0  0  0
  1  2  1  0
  1 30  1  0
  1 31  1  0
  1 32  1  0
  2  3  2  0
  2 29  1  0
  3  4  1  0
  3 33  1  0
  4  5  2  0
  4 34  1  0
  5  6  1  0
  5 35  1  0
  6  7  1  0
  6 29  2  0
  7  8  1  0
  7 26  2  0
  8  9  1  0
  8 36  1  0
  8 37  1  0
  9 10  1  0
 23  9  1  6
 10 11  1  0
 10 38  1  0
 10 39  1  0
 11 12  1  0
 11 22  1  0
 12 13  2  0
 12 21  1  0
 13 14  1  0
 13 40  1  0
 14 15  2  0
 14 41  1  0
 15 16  1  0
 15 20  1  0
 16 17  1  6
 16 18  2  0
 16 19  2  0
 17 42  1  0
 17 43  1  0
 17 44  1  0
 20 21  2  0
 20 45  1  0
 21 46  1  0
 22 23  1  0
 22 47  1  0
 22 48  1  0
 23 24  1  0
 23 25  1  0
 24 25  1  0
 24 49  1  0
 24 50  1  0
 25 51  1  0
 25 52  1  0
 26 27  1  0
 26 53  1  0
 27 28  2  0
 27 54  1  0
 28 29  1  0
M  END

