
     RDKit          3D

 31 33  0  0  0  0  0  0  0  0999 V2000
    1.8250   -1.6834    0.6579 O   0  0  0  0  0  0  0  0  0  0  0  0
    2.0421   -0.5807    0.1923 C   0  0  0  0  0  0  0  0  0  0  0  0
    2.7246   -0.3383   -1.0721 C   0  0  0  0  0  0  0  0  0  0  0  0
    2.9961    0.8950   -1.6470 C   0  0  0  0  0  0  0  0  0  0  0  0
    2.6269    2.4468   -0.9971 Cl  0  0  0  0  0  0  0  0  0  0  0  0
    3.6590    0.7580   -2.8441 N   0  0  0  0  0  0  0  0  0  0  0  0
    4.1126    1.8416   -3.7114 C   0  0  0  0  0  0  0  0  0  0  0  0
    3.6074    1.7873   -5.1451 C   0  0  0  0  0  0  0  0  0  0  0  0
    2.2372    1.8898   -5.4636 C   0  0  0  0  0  0  0  0  0  0  0  0
    1.0540    2.0899   -4.1925 Cl  0  0  0  0  0  0  0  0  0  0  0  0
    1.7668    1.8628   -6.7784 C   0  0  0  0  0  0  0  0  0  0  0  0
    2.6749    1.7468   -7.8296 C   0  0  0  0  0  0  0  0  0  0  0  0
    4.0408    1.6655   -7.5666 C   0  0  0  0  0  0  0  0  0  0  0  0
    4.4876    1.6870   -6.2426 C   0  0  0  0  0  0  0  0  0  0  0  0
    6.2247    1.5781   -5.9962 Cl  0  0  0  0  0  0  0  0  0  0  0  0
    3.8597   -0.6110   -3.0611 C   0  0  0  0  0  0  0  0  0  0  0  0
    4.5248   -1.2710   -4.1027 C   0  0  0  0  0  0  0  0  0  0  0  0
    4.5735   -2.6638   -4.0506 C   0  0  0  0  0  0  0  0  0  0  0  0
    3.9810   -3.3819   -2.9927 C   0  0  0  0  0  0  0  0  0  0  0  0
    3.3334   -2.7233   -1.9506 C   0  0  0  0  0  0  0  0  0  0  0  0
    3.2745   -1.3198   -1.9807 C   0  0  0  0  0  0  0  0  0  0  0  0
    1.7153    0.3428    0.7336 H   0  0  0  0  0  0  0  0  0  0  0  0
    5.2105    1.8535   -3.7218 H   0  0  0  0  0  0  0  0  0  0  0  0
    3.7773    2.7787   -3.2468 H   0  0  0  0  0  0  0  0  0  0  0  0
    0.6947    1.9404   -6.9626 H   0  0  0  0  0  0  0  0  0  0  0  0
    2.3161    1.7259   -8.8611 H   0  0  0  0  0  0  0  0  0  0  0  0
    4.7679    1.5823   -8.3750 H   0  0  0  0  0  0  0  0  0  0  0  0
    5.0058   -0.7296   -4.9161 H   0  0  0  0  0  0  0  0  0  0  0  0
    5.0874   -3.2066   -4.8479 H   0  0  0  0  0  0  0  0  0  0  0  0
    4.0394   -4.4731   -2.9886 H   0  0  0  0  0  0  0  0  0  0  0  0
    2.8803   -3.2605   -1.1171 H   0  0  0  0  0  0  0  0  0  0  0  0
  1  2  2  0
  2  3  1  0
  2 22  1  0
  3  4  2  0
  3 21  1  0
  4  5  1  0
  4  6  1  0
  6  7  1  0
  6 16  1  0
  7  8  1  0
  7 23  1  0
  7 24  1  0
  8  9  2  0
  8 14  1  0
  9 10  1  0
  9 11  1  0
 11 12  2  0
 11 25  1  0
 12 13  1  0
 12 26  1  0
 13 14  2  0
 13 27  1  0
 14 15  1  0
 16 17  1  0
 16 21  2  0
 17 18  2  0
 17 28  1  0
 18 19  1  0
 18 29  1  0
 19 20  2  0
 19 30  1  0
 20 21  1  0
 20 31  1  0
M  END

