
     RDKit          3D

 36 39  0  0  0  0  0  0  0  0999 V2000
    2.1958   -2.5378   -0.0487 O   0  0  0  0  0  0  0  0  0  0  0  0
    2.7822   -1.9403    0.7876 C   0  0  0  0  0  0  0  0  0  0  0  0
    2.9150   -0.5501    1.2941 C   0  0  0  0  0  0  0  0  0  0  0  0
    4.2182   -0.0955    1.1940 C   0  0  0  0  0  0  0  0  0  0  0  0
    4.9003    0.1129   -0.1337 C   0  0  1  0  0  0  0  0  0  0  0  0
    5.3844   -1.0420   -0.6482 F   0  0  0  0  0  0  0  0  0  0  0  0
    4.0695    0.6310   -1.0450 F   0  0  0  0  0  0  0  0  0  0  0  0
    5.9505    0.9483   -0.0029 F   0  0  0  0  0  0  0  0  0  0  0  0
    4.9772   -0.6693    2.2980 C   0  0  0  0  0  0  0  0  0  0  0  0
    6.0856   -0.1860    3.0111 C   0  0  0  0  0  0  0  0  0  0  0  0
    6.8040   -0.9839    3.8863 C   0  0  0  0  0  0  0  0  0  0  0  0
    6.4230   -2.3540    4.0602 C   0  0  0  0  0  0  0  0  0  0  0  0
    5.3399   -2.8982    3.3044 C   0  0  0  0  0  0  0  0  0  0  0  0
    4.6224   -2.0569    2.4556 C   0  0  0  0  0  0  0  0  0  0  0  0
    3.6382   -2.6679    1.6927 O   0  0  0  0  0  0  0  0  0  0  0  0
    4.9957   -4.3663    3.4187 C   0  0  0  0  0  0  0  0  0  0  0  0
    6.2267   -5.1717    3.8247 C   0  0  0  0  0  0  0  0  0  0  0  0
    6.8494   -4.5798    5.0809 C   0  0  0  0  0  0  0  0  0  0  0  0
    7.1103   -3.1498    4.9478 N   0  0  0  0  0  0  0  0  0  0  0  0
    8.1355   -2.6307    5.8498 C   0  0  0  0  0  0  0  0  0  0  0  0
    8.0581   -1.1206    6.0304 C   0  0  0  0  0  0  0  0  0  0  0  0
    7.9811   -0.4433    4.6633 C   0  0  0  0  0  0  0  0  0  0  0  0
    2.5807   -0.5627    2.3414 H   0  0  0  0  0  0  0  0  0  0  0  0
    6.3758    0.8586    2.8756 H   0  0  0  0  0  0  0  0  0  0  0  0
    4.5851   -4.7226    2.4642 H   0  0  0  0  0  0  0  0  0  0  0  0
    4.1936   -4.5091    4.1674 H   0  0  0  0  0  0  0  0  0  0  0  0
    6.9672   -5.1588    3.0068 H   0  0  0  0  0  0  0  0  0  0  0  0
    5.9669   -6.2255    4.0100 H   0  0  0  0  0  0  0  0  0  0  0  0
    7.8087   -5.0789    5.3019 H   0  0  0  0  0  0  0  0  0  0  0  0
    6.1924   -4.7641    5.9554 H   0  0  0  0  0  0  0  0  0  0  0  0
    9.1392   -2.9157    5.4740 H   0  0  0  0  0  0  0  0  0  0  0  0
    8.0161   -3.1333    6.8256 H   0  0  0  0  0  0  0  0  0  0  0  0
    8.9372   -0.7814    6.6004 H   0  0  0  0  0  0  0  0  0  0  0  0
    7.1647   -0.8613    6.6238 H   0  0  0  0  0  0  0  0  0  0  0  0
    8.9221   -0.6323    4.1123 H   0  0  0  0  0  0  0  0  0  0  0  0
    7.8963    0.6495    4.7652 H   0  0  0  0  0  0  0  0  0  0  0  0
  1  2  2  0
  2  3  1  0
  2 15  1  0
  3  4  2  0
  3 23  1  0
  4  5  1  0
  4  9  1  0
  5  6  1  6
  5  7  1  0
  5  8  1  0
  9 10  1  0
  9 14  2  0
 10 11  2  0
 10 24  1  0
 11 12  1  0
 11 22  1  0
 12 13  2  0
 12 19  1  0
 13 14  1  0
 13 16  1  0
 14 15  1  0
 16 17  1  0
 16 25  1  0
 16 26  1  0
 17 18  1  0
 17 27  1  0
 17 28  1  0
 18 19  1  0
 18 29  1  0
 18 30  1  0
 19 20  1  0
 20 21  1  0
 20 31  1  0
 20 32  1  0
 21 22  1  0
 21 33  1  0
 21 34  1  0
 22 35  1  0
 22 36  1  0
M  END

