
     RDKit          3D

 54 58  0  0  0  0  0  0  0  0999 V2000
    2.6565   -1.0667   -0.6168 O   0  0  0  0  0  0  0  0  0  0  0  0
    3.0726   -0.1402    0.0646 C   0  0  0  0  0  0  0  0  0  0  0  0
    2.6245   -0.0380    1.5057 C   0  0  0  0  0  0  0  0  0  0  0  0
    3.5067    0.1799    2.5739 C   0  0  0  0  0  0  0  0  0  0  0  0
    3.0367    0.1459    3.8906 C   0  0  0  0  0  0  0  0  0  0  0  0
    1.6922   -0.1057    4.1604 C   0  0  0  0  0  0  0  0  0  0  0  0
    0.8167   -0.3387    3.0909 C   0  0  0  0  0  0  0  0  0  0  0  0
   -0.5524   -0.6165    3.3598 N   0  0  0  0  0  0  0  0  0  0  0  0
   -1.4815   -1.2860    2.6331 C   0  0  0  0  0  0  0  0  0  0  0  0
   -2.6118   -1.2924    3.3005 N   0  0  0  0  0  0  0  0  0  0  0  0
   -2.3692   -0.6177    4.4498 N   0  0  0  0  0  0  0  0  0  0  0  0
   -1.1525   -0.2108    4.5026 N   0  0  0  0  0  0  0  0  0  0  0  0
    1.2764   -0.3120    1.7728 C   0  0  0  0  0  0  0  0  0  0  0  0
    3.9608    0.7918   -0.4177 N   0  0  0  0  0  0  0  0  0  0  0  0
    4.5281    0.6085   -1.7540 C   0  0  0  0  0  0  0  0  0  0  0  0
    4.0984    1.7186   -2.7088 C   0  0  0  0  0  0  0  0  0  0  0  0
    4.3967    3.0290   -2.1337 N   0  0  0  0  0  0  0  0  0  0  0  0
    4.5667    4.1114   -3.0014 C   0  0  0  0  0  0  0  0  0  0  0  0
    4.7854    5.4386   -2.5483 C   0  0  0  0  0  0  0  0  0  0  0  0
    4.9860    6.4258   -3.4852 C   0  0  0  0  0  0  0  0  0  0  0  0
    4.9609    6.0672   -4.8609 C   0  0  0  0  0  0  0  0  0  0  0  0
    5.0953    6.9886   -5.8910 N   0  0  0  0  0  0  0  0  0  0  0  0
    5.3689    6.4996   -7.2428 C   0  0  0  0  0  0  0  0  0  0  0  0
    4.9158    7.5232   -8.2751 C   0  0  0  0  0  0  0  0  0  0  0  0
    5.4869    8.7956   -8.0339 O   0  0  0  0  0  0  0  0  0  0  0  0
    5.1241    9.2775   -6.7620 C   0  0  0  0  0  0  0  0  0  0  0  0
    5.5768    8.3390   -5.6419 C   0  0  0  0  0  0  0  0  0  0  0  0
    4.7840    4.7881   -5.2100 N   0  0  0  0  0  0  0  0  0  0  0  0
    4.5726    3.8460   -4.3091 N   0  0  0  0  0  0  0  0  0  0  0  0
    3.8037    3.2202   -0.8207 C   0  0  0  0  0  0  0  0  0  0  0  0
    4.2284    2.1080    0.1468 C   0  0  0  0  0  0  0  0  0  0  0  0
    4.5673    0.3539    2.3813 H   0  0  0  0  0  0  0  0  0  0  0  0
    3.7294    0.3064    4.7200 H   0  0  0  0  0  0  0  0  0  0  0  0
    1.3105   -0.1325    5.1810 H   0  0  0  0  0  0  0  0  0  0  0  0
   -1.2957   -1.7538    1.6691 H   0  0  0  0  0  0  0  0  0  0  0  0
    0.6075   -0.5060    0.9335 H   0  0  0  0  0  0  0  0  0  0  0  0
    4.1967   -0.3668   -2.1291 H   0  0  0  0  0  0  0  0  0  0  0  0
    5.6299    0.6064   -1.6676 H   0  0  0  0  0  0  0  0  0  0  0  0
    3.0147    1.6245   -2.9283 H   0  0  0  0  0  0  0  0  0  0  0  0
    4.6252    1.6277   -3.6654 H   0  0  0  0  0  0  0  0  0  0  0  0
    4.8207    5.6888   -1.4877 H   0  0  0  0  0  0  0  0  0  0  0  0
    5.1684    7.4488   -3.1578 H   0  0  0  0  0  0  0  0  0  0  0  0
    4.8485    5.5448   -7.3819 H   0  0  0  0  0  0  0  0  0  0  0  0
    6.4546    6.3059   -7.3680 H   0  0  0  0  0  0  0  0  0  0  0  0
    3.8085    7.5957   -8.2673 H   0  0  0  0  0  0  0  0  0  0  0  0
    5.2346    7.2122   -9.2813 H   0  0  0  0  0  0  0  0  0  0  0  0
    4.0232    9.4083   -6.6992 H   0  0  0  0  0  0  0  0  0  0  0  0
    5.5968   10.2639   -6.6378 H   0  0  0  0  0  0  0  0  0  0  0  0
    5.1710    8.7236   -4.6958 H   0  0  0  0  0  0  0  0  0  0  0  0
    6.6853    8.3623   -5.5667 H   0  0  0  0  0  0  0  0  0  0  0  0
    2.6935    3.2367   -0.8841 H   0  0  0  0  0  0  0  0  0  0  0  0
    4.1191    4.1787   -0.3887 H   0  0  0  0  0  0  0  0  0  0  0  0
    3.6864    2.2341    1.0910 H   0  0  0  0  0  0  0  0  0  0  0  0
    5.3103    2.2071    0.3538 H   0  0  0  0  0  0  0  0  0  0  0  0
  1  2  2  0
  2  3  1  0
  2 14  1  0
  3  4  2  0
  3 13  1  0
  4  5  1  0
  4 32  1  0
  5  6  2  0
  5 33  1  0
  6  7  1  0
  6 34  1  0
  7  8  1  0
  7 13  2  0
  8  9  1  0
  8 12  1  0
  9 10  2  0
  9 35  1  0
 10 11  1  0
 11 12  2  0
 13 36  1  0
 14 15  1  0
 14 31  1  0
 15 16  1  0
 15 37  1  0
 15 38  1  0
 16 17  1  0
 16 39  1  0
 16 40  1  0
 17 18  1  0
 17 30  1  0
 18 19  2  0
 18 29  1  0
 19 20  1  0
 19 41  1  0
 20 21  2  0
 20 42  1  0
 21 22  1  0
 21 28  1  0
 22 23  1  0
 22 27  1  0
 23 24  1  0
 23 43  1  0
 23 44  1  0
 24 25  1  0
 24 45  1  0
 24 46  1  0
 25 26  1  0
 26 27  1  0
 26 47  1  0
 26 48  1  0
 27 49  1  0
 27 50  1  0
 28 29  2  0
 30 31  1  0
 30 51  1  0
 30 52  1  0
 31 53  1  0
 31 54  1  0
M  END

