
     RDKit          3D

 52 54  0  0  0  0  0  0  0  0999 V2000
    6.4125    2.3228   -0.0341 N   0  0  0  0  0  0  0  0  0  0  0  0
    6.2162    1.1812    0.0018 C   0  0  0  0  0  0  0  0  0  0  0  0
    5.9510   -0.2626    0.0151 C   0  0  0  0  0  0  0  0  0  0  0  0
    4.7335   -0.6746   -0.8170 C   0  0  1  0  0  0  0  0  0  0  0  0
    4.8635   -0.5753   -2.3380 C   0  0  0  0  0  0  0  0  0  0  0  0
    5.8912   -1.4257   -2.9635 N   0  0  0  0  0  0  0  0  0  0  0  0
    5.5346   -2.7509   -3.1927 C   0  0  0  0  0  0  0  0  0  0  0  0
    4.4270   -3.1760   -2.9118 O   0  0  0  0  0  0  0  0  0  0  0  0
    6.6112   -3.6356   -3.7924 C   0  0  0  0  0  0  0  0  0  0  0  0
    7.3692   -2.9173   -4.9035 C   0  0  0  0  0  0  0  0  0  0  0  0
    7.8859   -1.5928   -4.3998 C   0  0  0  0  0  0  0  0  0  0  0  0
    9.0864   -1.0675   -4.8831 C   0  0  0  0  0  0  0  0  0  0  0  0
    9.5538    0.1868   -4.4566 C   0  0  0  0  0  0  0  0  0  0  0  0
   10.7511    0.7738   -4.9078 N   0  0  0  0  0  0  0  0  0  0  0  0
   11.6624    0.2709   -5.8214 C   0  0  0  0  0  0  0  0  0  0  0  0
   11.5579   -0.8153   -6.3726 O   0  0  0  0  0  0  0  0  0  0  0  0
   12.7264    1.1115   -6.0717 N   0  0  0  0  0  0  0  0  0  0  0  0
   13.7995    0.7035   -6.9649 C   0  0  0  0  0  0  0  0  0  0  0  0
   13.4365    0.7582   -8.4560 C   0  0  0  0  0  0  0  0  0  0  0  0
   13.0618    2.1613   -8.9456 C   0  0  0  0  0  0  0  0  0  0  0  0
   12.7039    2.2659  -10.4238 C   0  0  0  0  0  0  0  0  0  0  0  0
   13.1058    3.1322  -11.1499 O   0  0  0  0  0  0  0  0  0  0  0  0
   11.8606    1.3164  -10.8941 O   0  0  0  0  0  0  0  0  0  0  0  0
    8.7813    0.8975   -3.5271 C   0  0  0  0  0  0  0  0  0  0  0  0
    7.5895    0.3734   -3.0304 C   0  0  0  0  0  0  0  0  0  0  0  0
    7.1182   -0.8808   -3.4491 C   0  0  0  0  0  0  0  0  0  0  0  0
    3.8589   -1.7625   -0.2314 C   0  0  0  0  0  0  0  0  0  0  0  0
    3.3750   -0.3383   -0.2399 C   0  0  0  0  0  0  0  0  0  0  0  0
    5.8022   -0.5619    1.0650 H   0  0  0  0  0  0  0  0  0  0  0  0
    6.8568   -0.7874   -0.3338 H   0  0  0  0  0  0  0  0  0  0  0  0
    5.0535    0.4659   -2.6332 H   0  0  0  0  0  0  0  0  0  0  0  0
    3.8994   -0.8683   -2.7759 H   0  0  0  0  0  0  0  0  0  0  0  0
    6.1163   -4.5534   -4.1357 H   0  0  0  0  0  0  0  0  0  0  0  0
    7.3080   -3.9150   -2.9808 H   0  0  0  0  0  0  0  0  0  0  0  0
    6.6895   -2.7456   -5.7600 H   0  0  0  0  0  0  0  0  0  0  0  0
    8.1966   -3.5352   -5.2828 H   0  0  0  0  0  0  0  0  0  0  0  0
    9.6715   -1.6316   -5.6065 H   0  0  0  0  0  0  0  0  0  0  0  0
   10.9639    1.6688   -4.4842 H   0  0  0  0  0  0  0  0  0  0  0  0
   12.7789    2.0213   -5.6327 H   0  0  0  0  0  0  0  0  0  0  0  0
   14.0943   -0.3271   -6.7127 H   0  0  0  0  0  0  0  0  0  0  0  0
   14.6646    1.3545   -6.7611 H   0  0  0  0  0  0  0  0  0  0  0  0
   12.6076    0.0450   -8.6068 H   0  0  0  0  0  0  0  0  0  0  0  0
   14.2935    0.3736   -9.0348 H   0  0  0  0  0  0  0  0  0  0  0  0
   13.8833    2.8736   -8.7783 H   0  0  0  0  0  0  0  0  0  0  0  0
   12.1933    2.5309   -8.3697 H   0  0  0  0  0  0  0  0  0  0  0  0
   11.6341    0.6836  -10.1971 H   0  0  0  0  0  0  0  0  0  0  0  0
    9.1098    1.8786   -3.1717 H   0  0  0  0  0  0  0  0  0  0  0  0
    7.0405    0.9768   -2.3116 H   0  0  0  0  0  0  0  0  0  0  0  0
    4.1629   -2.1975    0.7257 H   0  0  0  0  0  0  0  0  0  0  0  0
    3.4205   -2.4722   -0.9339 H   0  0  0  0  0  0  0  0  0  0  0  0
    3.3445    0.2156    0.7031 H   0  0  0  0  0  0  0  0  0  0  0  0
    2.5779   -0.0646   -0.9371 H   0  0  0  0  0  0  0  0  0  0  0  0
  1  2  3  0
  2  3  1  0
  4  3  1  1
  3 29  1  0
  3 30  1  0
  4  5  1  0
  4 27  1  0
  4 28  1  0
  5  6  1  0
  5 31  1  0
  5 32  1  0
  6  7  1  0
  6 26  1  0
  7  8  2  0
  7  9  1  0
  9 10  1  0
  9 33  1  0
  9 34  1  0
 10 11  1  0
 10 35  1  0
 10 36  1  0
 11 12  2  0
 11 26  1  0
 12 13  1  0
 12 37  1  0
 13 14  1  0
 13 24  2  0
 14 15  1  0
 14 38  1  0
 15 16  2  0
 15 17  1  0
 17 18  1  0
 17 39  1  0
 18 19  1  0
 18 40  1  0
 18 41  1  0
 19 20  1  0
 19 42  1  0
 19 43  1  0
 20 21  1  0
 20 44  1  0
 20 45  1  0
 21 22  2  0
 21 23  1  0
 23 46  1  0
 24 25  1  0
 24 47  1  0
 25 26  2  0
 25 48  1  0
 27 28  1  0
 27 49  1  0
 27 50  1  0
 28 51  1  0
 28 52  1  0
M  END

