
     RDKit          3D

 31 32  0  0  0  0  0  0  0  0999 V2000
    1.2386    0.3783    1.3241 C   0  0  0  0  0  0  0  0  0  0  0  0
    2.5422    0.2275    0.5774 C   0  0  0  0  0  0  0  0  0  0  0  0
    3.1796    1.3265   -0.0154 C   0  0  0  0  0  0  0  0  0  0  0  0
    4.3965    1.1781   -0.6927 C   0  0  0  0  0  0  0  0  0  0  0  0
    4.9959   -0.0737   -0.7897 C   0  0  0  0  0  0  0  0  0  0  0  0
    4.3644   -1.1987   -0.2272 C   0  0  0  0  0  0  0  0  0  0  0  0
    5.0794   -2.5129   -0.3205 C   0  0  0  0  0  0  0  0  0  0  0  0
    6.2937   -2.5512   -0.4237 O   0  0  0  0  0  0  0  0  0  0  0  0
    4.3123   -3.8141   -0.2949 C   0  0  0  0  0  0  0  0  0  0  0  0
    5.0023   -4.9638    0.1363 C   0  0  0  0  0  0  0  0  0  0  0  0
    4.3866   -6.2179    0.1347 C   0  0  0  0  0  0  0  0  0  0  0  0
    5.1239   -7.4198    0.6111 C   0  0  0  0  0  0  0  0  0  0  0  0
    4.6570   -8.5341    0.6415 O   0  0  0  0  0  0  0  0  0  0  0  0
    3.0655   -6.3426   -0.3288 C   0  0  0  0  0  0  0  0  0  0  0  0
    2.3780   -5.2173   -0.7846 C   0  0  0  0  0  0  0  0  0  0  0  0
    0.9843   -5.3404   -1.2915 C   0  0  0  0  0  0  0  0  0  0  0  0
    0.3212   -4.4120   -1.6910 O   0  0  0  0  0  0  0  0  0  0  0  0
    3.0026   -3.9545   -0.7638 C   0  0  0  0  0  0  0  0  0  0  0  0
    3.1492   -1.0332    0.4561 C   0  0  0  0  0  0  0  0  0  0  0  0
    0.9221    1.4300    1.3769 H   0  0  0  0  0  0  0  0  0  0  0  0
    1.3220   -0.0014    2.3557 H   0  0  0  0  0  0  0  0  0  0  0  0
    0.4306   -0.1916    0.8354 H   0  0  0  0  0  0  0  0  0  0  0  0
    2.7204    2.3163    0.0592 H   0  0  0  0  0  0  0  0  0  0  0  0
    4.8779    2.0509   -1.1409 H   0  0  0  0  0  0  0  0  0  0  0  0
    5.9538   -0.2075   -1.2953 H   0  0  0  0  0  0  0  0  0  0  0  0
    6.0385   -4.8528    0.4672 H   0  0  0  0  0  0  0  0  0  0  0  0
    6.1723   -7.2196    0.9510 H   0  0  0  0  0  0  0  0  0  0  0  0
    2.6003   -7.3326   -0.3281 H   0  0  0  0  0  0  0  0  0  0  0  0
    0.5732   -6.3824   -1.2743 H   0  0  0  0  0  0  0  0  0  0  0  0
    2.4365   -3.1028   -1.1446 H   0  0  0  0  0  0  0  0  0  0  0  0
    2.6716   -1.8922    0.9328 H   0  0  0  0  0  0  0  0  0  0  0  0
  1  2  1  0
  1 20  1  0
  1 21  1  0
  1 22  1  0
  2  3  2  0
  2 19  1  0
  3  4  1  0
  3 23  1  0
  4  5  2  0
  4 24  1  0
  5  6  1  0
  5 25  1  0
  6  7  1  0
  6 19  2  0
  7  8  2  0
  7  9  1  0
  9 10  2  0
  9 18  1  0
 10 11  1  0
 10 26  1  0
 11 12  1  0
 11 14  2  0
 12 13  2  0
 12 27  1  0
 14 15  1  0
 14 28  1  0
 15 16  1  0
 15 18  2  0
 16 17  2  0
 16 29  1  0
 18 30  1  0
 19 31  1  0
M  END

