
     RDKit          3D

 52 54  0  0  0  0  0  0  0  0999 V2000
    1.9922   -0.2426   -3.0313 C   0  0  0  0  0  0  0  0  0  0  0  0
    2.5627    0.7880   -2.0543 C   0  0  0  0  0  0  0  0  0  0  0  0
    1.7545    2.1001   -1.9550 C   0  0  1  0  0  0  0  0  0  0  0  0
    0.3320    1.9207   -1.3800 C   0  0  0  0  0  0  0  0  0  0  0  0
    0.3300    1.6435    0.1299 C   0  0  0  0  0  0  0  0  0  0  0  0
    1.0886    2.7309    0.9035 C   0  0  0  0  0  0  0  0  0  0  0  0
    2.5052    2.9017    0.3540 C   0  0  2  0  0  0  0  0  0  0  0  0
    3.1620    4.0232    0.9891 O   0  0  0  0  0  0  0  0  0  0  0  0
    3.8258    3.8003    2.1304 C   0  0  0  0  0  0  0  0  0  0  0  0
    3.8918    2.7205    2.6724 O   0  0  0  0  0  0  0  0  0  0  0  0
    4.5621    5.0493    2.6495 C   0  0  2  0  0  0  0  0  0  0  0  0
    4.8099    4.9437    4.1688 C   0  0  0  0  0  0  0  0  0  0  0  0
    3.5368    5.2607    4.9628 C   0  0  0  0  0  0  0  0  0  0  0  0
    2.9232    6.6009    4.5334 C   0  0  2  0  0  0  0  0  0  0  0  0
    1.6191    6.9384    5.2694 C   0  0  0  0  0  0  0  0  0  0  0  0
    1.0297    8.2755    4.8018 C   0  0  0  0  0  0  0  0  0  0  0  0
    0.8343    8.3034    3.2797 C   0  0  0  0  0  0  0  0  0  0  0  0
    2.1279    7.9548    2.5331 C   0  0  0  0  0  0  0  0  0  0  0  0
    2.7113    6.6185    3.0011 C   0  0  1  0  0  0  0  0  0  0  0  0
    3.9179    6.2911    2.2425 N   0  0  0  0  0  0  0  0  0  0  0  0
    2.5007    3.1839   -1.1474 C   0  0  0  0  0  0  0  0  0  0  0  0
    2.6555   -1.1183   -3.1140 H   0  0  0  0  0  0  0  0  0  0  0  0
    1.8786    0.1841   -4.0423 H   0  0  0  0  0  0  0  0  0  0  0  0
    1.0034   -0.6131   -2.7167 H   0  0  0  0  0  0  0  0  0  0  0  0
    3.5892    1.0464   -2.3694 H   0  0  0  0  0  0  0  0  0  0  0  0
    2.6700    0.3236   -1.0587 H   0  0  0  0  0  0  0  0  0  0  0  0
    1.6504    2.4815   -2.9872 H   0  0  0  0  0  0  0  0  0  0  0  0
   -0.2043    1.1211   -1.9162 H   0  0  0  0  0  0  0  0  0  0  0  0
   -0.2382    2.8481   -1.5697 H   0  0  0  0  0  0  0  0  0  0  0  0
    0.7875    0.6597    0.3354 H   0  0  0  0  0  0  0  0  0  0  0  0
   -0.7064    1.5773    0.5003 H   0  0  0  0  0  0  0  0  0  0  0  0
    1.1357    2.4885    1.9766 H   0  0  0  0  0  0  0  0  0  0  0  0
    0.5609    3.6967    0.8053 H   0  0  0  0  0  0  0  0  0  0  0  0
    3.0918    1.9994    0.5850 H   0  0  0  0  0  0  0  0  0  0  0  0
    5.5367    5.0035    2.1289 H   0  0  0  0  0  0  0  0  0  0  0  0
    5.5987    5.6697    4.4335 H   0  0  0  0  0  0  0  0  0  0  0  0
    5.1876    3.9410    4.4158 H   0  0  0  0  0  0  0  0  0  0  0  0
    3.7552    5.2699    6.0445 H   0  0  0  0  0  0  0  0  0  0  0  0
    2.7975    4.4544    4.8050 H   0  0  0  0  0  0  0  0  0  0  0  0
    3.6577    7.4008    4.7613 H   0  0  0  0  0  0  0  0  0  0  0  0
    1.7953    6.9539    6.3591 H   0  0  0  0  0  0  0  0  0  0  0  0
    0.8854    6.1301    5.0884 H   0  0  0  0  0  0  0  0  0  0  0  0
    1.7123    9.0944    5.0952 H   0  0  0  0  0  0  0  0  0  0  0  0
    0.0725    8.4727    5.3134 H   0  0  0  0  0  0  0  0  0  0  0  0
    0.4643    9.2914    2.9580 H   0  0  0  0  0  0  0  0  0  0  0  0
    0.0505    7.5748    3.0018 H   0  0  0  0  0  0  0  0  0  0  0  0
    2.8781    8.7505    2.7079 H   0  0  0  0  0  0  0  0  0  0  0  0
    1.9618    7.9136    1.4445 H   0  0  0  0  0  0  0  0  0  0  0  0
    1.9679    5.8310    2.7656 H   0  0  0  0  0  0  0  0  0  0  0  0
    4.5863    7.0580    2.3061 H   0  0  0  0  0  0  0  0  0  0  0  0
    3.5392    3.2875   -1.5029 H   0  0  0  0  0  0  0  0  0  0  0  0
    2.0143    4.1620   -1.3051 H   0  0  0  0  0  0  0  0  0  0  0  0
  1  2  1  0
  1 22  1  0
  1 23  1  0
  1 24  1  0
  2  3  1  0
  2 25  1  0
  2 26  1  0
  3  4  1  0
  3 21  1  0
  3 27  1  6
  4  5  1  0
  4 28  1  0
  4 29  1  0
  5  6  1  0
  5 30  1  0
  5 31  1  0
  6  7  1  0
  6 32  1  0
  6 33  1  0
  7  8  1  0
  7 21  1  0
  7 34  1  6
  8  9  1  0
  9 10  2  0
  9 11  1  0
 11 12  1  0
 11 20  1  0
 11 35  1  6
 12 13  1  0
 12 36  1  0
 12 37  1  0
 13 14  1  0
 13 38  1  0
 13 39  1  0
 14 15  1  0
 14 19  1  0
 14 40  1  6
 15 16  1  0
 15 41  1  0
 15 42  1  0
 16 17  1  0
 16 43  1  0
 16 44  1  0
 17 18  1  0
 17 45  1  0
 17 46  1  0
 18 19  1  0
 18 47  1  0
 18 48  1  0
 19 20  1  0
 19 49  1  1
 20 50  1  0
 21 51  1  0
 21 52  1  0
M  END

