
     RDKit          3D

 47 52  0  0  0  0  0  0  0  0999 V2000
    1.0468   -0.3101    0.0205 O   0  0  0  0  0  0  0  0  0  0  0  0
    2.3742   -0.1273    0.0271 C   0  0  0  0  0  0  0  0  0  0  0  0
    3.1756   -1.2277    0.0666 N   0  0  0  0  0  0  0  0  0  0  0  0
    2.8395   -2.1824    0.0751 H   0  0  0  0  0  0  0  0  0  0  0  0
    4.4955   -0.8100    0.0951 C   0  0  0  0  0  0  0  0  0  0  0  0
    5.6810   -1.5711    0.1333 C   0  0  0  0  0  0  0  0  0  0  0  0
    6.8640   -1.0033    0.1476 N   0  0  0  0  0  0  0  0  0  0  0  0
    6.9428    0.3617    0.1022 C   0  0  0  0  0  0  0  0  0  0  0  0
    8.2374    0.9469    0.0953 C   0  0  0  0  0  0  0  0  0  0  0  0
    8.4096    2.3119    0.0242 C   0  0  0  0  0  0  0  0  0  0  0  0
    7.2881    3.1862   -0.0553 C   0  0  0  0  0  0  0  0  0  0  0  0
    7.4806    4.6541   -0.1540 C   0  0  0  0  0  0  0  0  0  0  0  0
    8.5432    5.3033    0.5558 C   0  0  0  0  0  0  0  0  0  0  0  0
    8.7841    6.5920    0.5321 N   0  0  0  0  0  0  0  0  0  0  0  0
    7.9780    7.3939   -0.2181 C   0  0  0  0  0  0  0  0  0  0  0  0
    8.2344    8.7920   -0.2560 C   0  0  0  0  0  0  0  0  0  0  0  0
    7.4358    9.6291   -1.0073 C   0  0  0  0  0  0  0  0  0  0  0  0
    6.3468    9.1073   -1.7534 C   0  0  0  0  0  0  0  0  0  0  0  0
    6.0733    7.7555   -1.7370 C   0  0  0  0  0  0  0  0  0  0  0  0
    6.8777    6.8663   -0.9706 C   0  0  0  0  0  0  0  0  0  0  0  0
    6.6561    5.4668   -0.9160 C   0  0  0  0  0  0  0  0  0  0  0  0
    6.0112    2.6316   -0.0400 C   0  0  0  0  0  0  0  0  0  0  0  0
    5.7989    1.2339    0.0481 C   0  0  0  0  0  0  0  0  0  0  0  0
    4.5097    0.6013    0.0741 C   0  0  0  0  0  0  0  0  0  0  0  0
    3.1342    1.0415    0.0353 C   0  0  0  0  0  0  0  0  0  0  0  0
    2.5173    2.3854    0.0708 C   0  0  0  0  0  0  0  0  0  0  0  0
    1.5504    2.7544   -0.8869 C   0  0  0  0  0  0  0  0  0  0  0  0
    0.9007    3.9912   -0.8321 C   0  0  0  0  0  0  0  0  0  0  0  0
    1.2259    4.8907    0.1849 C   0  0  0  0  0  0  0  0  0  0  0  0
    0.4295    6.4446    0.2578 Cl  0  0  0  0  0  0  0  0  0  0  0  0
    2.1866    4.5566    1.1465 C   0  0  0  0  0  0  0  0  0  0  0  0
    2.8141    3.3129    1.0904 C   0  0  0  0  0  0  0  0  0  0  0  0
    0.6125    0.5561    0.0596 H   0  0  0  0  0  0  0  0  0  0  0  0
    5.6392   -2.6687    0.1560 H   0  0  0  0  0  0  0  0  0  0  0  0
    9.0902    0.2663    0.1337 H   0  0  0  0  0  0  0  0  0  0  0  0
    9.4196    2.7262   -0.0054 H   0  0  0  0  0  0  0  0  0  0  0  0
    9.2021    4.6963    1.1891 H   0  0  0  0  0  0  0  0  0  0  0  0
    9.0782    9.1662    0.3270 H   0  0  0  0  0  0  0  0  0  0  0  0
    7.6391   10.7028   -1.0317 H   0  0  0  0  0  0  0  0  0  0  0  0
    5.7236    9.7842   -2.3433 H   0  0  0  0  0  0  0  0  0  0  0  0
    5.2352    7.3501   -2.3108 H   0  0  0  0  0  0  0  0  0  0  0  0
    5.8398    5.0356   -1.5019 H   0  0  0  0  0  0  0  0  0  0  0  0
    5.1461    3.2926   -0.0812 H   0  0  0  0  0  0  0  0  0  0  0  0
    1.3232    2.0728   -1.7116 H   0  0  0  0  0  0  0  0  0  0  0  0
    0.1585    4.2655   -1.5837 H   0  0  0  0  0  0  0  0  0  0  0  0
    2.4280    5.2663    1.9398 H   0  0  0  0  0  0  0  0  0  0  0  0
    3.5445    3.0487    1.8583 H   0  0  0  0  0  0  0  0  0  0  0  0
  1  2  1  0
  1 33  1  0
  2  3  1  0
  2 25  2  0
  3  4  1  0
  3  5  1  0
  5  6  2  0
  5 24  1  0
  6  7  1  0
  6 34  1  0
  7  8  2  0
  8  9  1  0
  8 23  1  0
  9 10  2  0
  9 35  1  0
 10 11  1  0
 10 36  1  0
 11 12  1  0
 11 22  2  0
 12 13  2  0
 12 21  1  0
 13 14  1  0
 13 37  1  0
 14 15  2  0
 15 16  1  0
 15 20  1  0
 16 17  2  0
 16 38  1  0
 17 18  1  0
 17 39  1  0
 18 19  2  0
 18 40  1  0
 19 20  1  0
 19 41  1  0
 20 21  2  0
 21 42  1  0
 22 23  1  0
 22 43  1  0
 23 24  2  0
 24 25  1  0
 25 26  1  0
 26 27  2  0
 26 32  1  0
 27 28  1  0
 27 44  1  0
 28 29  2  0
 28 45  1  0
 29 30  1  0
 29 31  1  0
 31 32  2  0
 31 46  1  0
 32 47  1  0
M  END

