
     RDKit          3D

 25 26  0  0  0  0  0  0  0  0999 V2000
    1.5808    0.3695   -0.4725 C   0  0  0  0  0  0  0  0  0  0  0  0
    2.8315    0.1802   -0.0361 C   0  0  0  0  0  0  0  0  0  0  0  0
    3.3506   -1.2071    0.3691 C   0  0  1  0  0  0  0  0  0  0  0  0
    3.7855   -2.0220   -0.8772 C   0  0  0  0  0  0  0  0  0  0  0  0
    4.4789   -1.1228    1.4093 C   0  0  0  0  0  0  0  0  0  0  0  0
    4.7035   -2.0706    2.3278 C   0  0  0  0  0  0  0  0  0  0  0  0
    5.2681    0.0842    1.3952 N   0  0  0  0  0  0  0  0  0  0  0  0
    4.7459    1.1337    2.3060 C   0  0  0  0  0  0  0  0  0  0  0  0
    3.7934    2.0288    1.4455 C   0  0  0  0  0  0  0  0  0  0  0  0
    3.8240    1.3523    0.0541 C   0  0  1  0  0  0  0  0  0  0  0  0
    5.1918    0.6860    0.0792 C   0  0  0  0  0  0  0  0  0  0  0  0
    6.0142    0.5823   -0.7853 O   0  0  0  0  0  0  0  0  0  0  0  0
    0.8584   -0.4514   -0.5131 H   0  0  0  0  0  0  0  0  0  0  0  0
    1.2336    1.3515   -0.8077 H   0  0  0  0  0  0  0  0  0  0  0  0
    2.5185   -1.7578    0.8344 H   0  0  0  0  0  0  0  0  0  0  0  0
    4.6104   -1.5369   -1.4184 H   0  0  0  0  0  0  0  0  0  0  0  0
    2.9386   -2.1331   -1.5715 H   0  0  0  0  0  0  0  0  0  0  0  0
    4.1240   -3.0236   -0.5710 H   0  0  0  0  0  0  0  0  0  0  0  0
    4.0501   -2.9425    2.4084 H   0  0  0  0  0  0  0  0  0  0  0  0
    5.5445   -1.9878    3.0194 H   0  0  0  0  0  0  0  0  0  0  0  0
    5.5894    1.7198    2.7018 H   0  0  0  0  0  0  0  0  0  0  0  0
    4.2384    0.6589    3.1554 H   0  0  0  0  0  0  0  0  0  0  0  0
    4.1710    3.0603    1.3738 H   0  0  0  0  0  0  0  0  0  0  0  0
    2.7748    2.0710    1.8549 H   0  0  0  0  0  0  0  0  0  0  0  0
    3.6875    2.0513   -0.7812 H   0  0  0  0  0  0  0  0  0  0  0  0
  1  2  2  0
  1 13  1  0
  1 14  1  0
  2  3  1  0
  2 10  1  0
  3  4  1  0
  3  5  1  0
  3 15  1  1
  4 16  1  0
  4 17  1  0
  4 18  1  0
  5  6  2  0
  5  7  1  0
  6 19  1  0
  6 20  1  0
  7  8  1  0
  7 11  1  0
  8  9  1  0
  8 21  1  0
  8 22  1  0
  9 10  1  0
  9 23  1  0
  9 24  1  0
 10 11  1  0
 10 25  1  6
 11 12  2  0
M  END

