
     RDKit          3D

 49 53  0  0  0  0  0  0  0  0999 V2000
    1.3095    0.1061    1.0801 C   0  0  0  0  0  0  0  0  0  0  0  0
    2.4939   -0.0134    0.1082 C   0  0  2  0  0  0  0  0  0  0  0  0
    3.8079    0.2001    0.8859 C   0  0  0  0  0  0  0  0  0  0  0  0
    2.3588    1.0390   -1.0137 C   0  0  0  0  0  0  0  0  0  0  0  0
    3.3742    0.8961   -2.1423 C   0  0  0  0  0  0  0  0  0  0  0  0
    3.7618    1.8688   -2.7743 O   0  0  0  0  0  0  0  0  0  0  0  0
    3.8264   -0.4633   -2.4694 C   0  0  0  0  0  0  0  0  0  0  0  0
    3.3884   -1.5179   -1.7373 C   0  0  0  0  0  0  0  0  0  0  0  0
    2.4827   -1.4132   -0.5465 C   0  0  0  0  0  0  0  0  0  0  0  0
    3.6966   -2.7936   -2.0448 O   0  0  0  0  0  0  0  0  0  0  0  0
    4.2966   -3.0687   -3.2591 C   0  0  0  0  0  0  0  0  0  0  0  0
    4.3084   -4.4363   -3.6199 C   0  0  0  0  0  0  0  0  0  0  0  0
    4.8429   -4.8175   -4.8267 C   0  0  0  0  0  0  0  0  0  0  0  0
    5.3798   -3.8494   -5.7223 C   0  0  0  0  0  0  0  0  0  0  0  0
    5.9247   -4.2268   -6.9792 C   0  0  0  0  0  0  0  0  0  0  0  0
    6.4486   -3.2811   -7.8412 C   0  0  0  0  0  0  0  0  0  0  0  0
    6.9819   -3.5815   -9.0534 O   0  0  0  0  0  0  0  0  0  0  0  0
    6.4446   -1.9121   -7.4665 C   0  0  0  0  0  0  0  0  0  0  0  0
    5.9238   -1.5231   -6.2530 C   0  0  0  0  0  0  0  0  0  0  0  0
    5.3697   -2.4651   -5.3373 C   0  0  0  0  0  0  0  0  0  0  0  0
    4.8186   -2.0800   -4.0719 C   0  0  0  0  0  0  0  0  0  0  0  0
    4.8376   -0.6421   -3.5823 C   0  0  2  0  0  0  0  0  0  0  0  0
    6.2315   -0.2333   -3.0833 C   0  0  0  0  0  0  0  0  0  0  0  0
    6.8335    0.9651   -3.4944 C   0  0  0  0  0  0  0  0  0  0  0  0
    8.0967    1.2877   -2.9969 C   0  0  0  0  0  0  0  0  0  0  0  0
    8.7146    0.4096   -2.1039 C   0  0  0  0  0  0  0  0  0  0  0  0
    8.0256   -0.7523   -1.7425 C   0  0  0  0  0  0  0  0  0  0  0  0
    6.8181   -1.0647   -2.2153 N   0  0  0  0  0  0  0  0  0  0  0  0
    1.2976    1.0957    1.5643 H   0  0  0  0  0  0  0  0  0  0  0  0
    1.3712   -0.6555    1.8749 H   0  0  0  0  0  0  0  0  0  0  0  0
    0.3462   -0.0256    0.5607 H   0  0  0  0  0  0  0  0  0  0  0  0
    3.8401    1.2112    1.3225 H   0  0  0  0  0  0  0  0  0  0  0  0
    4.6941    0.0809    0.2442 H   0  0  0  0  0  0  0  0  0  0  0  0
    3.8930   -0.5249    1.7116 H   0  0  0  0  0  0  0  0  0  0  0  0
    2.4371    2.0650   -0.6224 H   0  0  0  0  0  0  0  0  0  0  0  0
    1.3568    0.9550   -1.4760 H   0  0  0  0  0  0  0  0  0  0  0  0
    2.7732   -2.1932    0.1770 H   0  0  0  0  0  0  0  0  0  0  0  0
    1.4566   -1.6704   -0.8715 H   0  0  0  0  0  0  0  0  0  0  0  0
    3.8815   -5.1602   -2.9233 H   0  0  0  0  0  0  0  0  0  0  0  0
    4.8554   -5.8723   -5.1130 H   0  0  0  0  0  0  0  0  0  0  0  0
    5.9246   -5.2855   -7.2587 H   0  0  0  0  0  0  0  0  0  0  0  0
    6.9332   -4.5356   -9.1996 H   0  0  0  0  0  0  0  0  0  0  0  0
    6.8653   -1.1836   -8.1627 H   0  0  0  0  0  0  0  0  0  0  0  0
    5.9420   -0.4649   -5.9917 H   0  0  0  0  0  0  0  0  0  0  0  0
    4.5636    0.0470   -4.3948 H   0  0  0  0  0  0  0  0  0  0  0  0
    6.3035    1.6367   -4.1720 H   0  0  0  0  0  0  0  0  0  0  0  0
    8.5904    2.2150   -3.2997 H   0  0  0  0  0  0  0  0  0  0  0  0
    9.7035    0.6194   -1.6899 H   0  0  0  0  0  0  0  0  0  0  0  0
    8.4722   -1.4620   -1.0354 H   0  0  0  0  0  0  0  0  0  0  0  0
  2  1  1  1
  1 29  1  0
  1 30  1  0
  1 31  1  0
  2  3  1  0
  2  4  1  0
  2  9  1  0
  3 32  1  0
  3 33  1  0
  3 34  1  0
  4  5  1  0
  4 35  1  0
  4 36  1  0
  5  6  2  0
  5  7  1  0
  7  8  2  0
  7 22  1  0
  8  9  1  0
  8 10  1  0
  9 37  1  0
  9 38  1  0
 10 11  1  0
 11 12  2  0
 11 21  1  0
 12 13  1  0
 12 39  1  0
 13 14  2  0
 13 40  1  0
 14 15  1  0
 14 20  1  0
 15 16  2  0
 15 41  1  0
 16 17  1  0
 16 18  1  0
 17 42  1  0
 18 19  2  0
 18 43  1  0
 19 20  1  0
 19 44  1  0
 20 21  2  0
 21 22  1  0
 22 23  1  0
 22 45  1  6
 23 24  2  0
 23 28  1  0
 24 25  1  0
 24 46  1  0
 25 26  2  0
 25 47  1  0
 26 27  1  0
 26 48  1  0
 27 28  2  0
 27 49  1  0
M  END

