
     RDKit          3D

 31 33  0  0  0  0  0  0  0  0999 V2000
    1.3184    0.2621   -0.9873 C   0  0  0  0  0  0  0  0  0  0  0  0
    2.7061    0.0250   -0.4877 C   0  0  0  0  0  0  0  0  0  0  0  0
    3.6997    0.9873   -0.5695 N   0  0  0  0  0  0  0  0  0  0  0  0
    3.5847    1.9270   -0.9297 H   0  0  0  0  0  0  0  0  0  0  0  0
    4.8811    0.4955   -0.0906 C   0  0  0  0  0  0  0  0  0  0  0  0
    6.0324    1.2091   -0.0209 N   0  0  0  0  0  0  0  0  0  0  0  0
    7.0479    0.5394    0.4554 C   0  0  0  0  0  0  0  0  0  0  0  0
    8.2888    1.1262    0.5253 N   0  0  0  0  0  0  0  0  0  0  0  0
    6.9541   -0.7706    0.8573 N   0  0  0  0  0  0  0  0  0  0  0  0
    7.7839   -1.2745    1.1573 H   0  0  0  0  0  0  0  0  0  0  0  0
    5.7802   -1.5815    0.8140 C   0  0  0  0  0  0  0  0  0  0  0  0
    5.8601   -2.7488    1.1665 O   0  0  0  0  0  0  0  0  0  0  0  0
    4.6582   -0.8316    0.3114 C   0  0  0  0  0  0  0  0  0  0  0  0
    3.2691   -1.1168    0.0579 C   0  0  0  0  0  0  0  0  0  0  0  0
    2.3575   -2.5998    0.4041 S   0  0  0  0  0  0  0  0  0  0  0  0
    2.4407   -3.4438   -1.1556 C   0  0  0  0  0  0  0  0  0  0  0  0
    1.7691   -3.1242   -2.2473 N   0  0  0  0  0  0  0  0  0  0  0  0
    2.1270   -4.0501   -3.1856 C   0  0  0  0  0  0  0  0  0  0  0  0
    3.0217   -4.9534   -2.6486 C   0  0  0  0  0  0  0  0  0  0  0  0
    3.2269   -4.5565   -1.3486 N   0  0  0  0  0  0  0  0  0  0  0  0
    4.0932   -5.2058   -0.3746 C   0  0  0  0  0  0  0  0  0  0  0  0
    1.1361    1.3296   -1.1860 H   0  0  0  0  0  0  0  0  0  0  0  0
    0.5789   -0.0881   -0.2514 H   0  0  0  0  0  0  0  0  0  0  0  0
    1.1365   -0.3137   -1.9094 H   0  0  0  0  0  0  0  0  0  0  0  0
    8.2776    2.1269    0.3618 H   0  0  0  0  0  0  0  0  0  0  0  0
    8.9274    0.8193    1.2501 H   0  0  0  0  0  0  0  0  0  0  0  0
    1.7253   -4.0291   -4.1984 H   0  0  0  0  0  0  0  0  0  0  0  0
    3.5187   -5.8253   -3.0681 H   0  0  0  0  0  0  0  0  0  0  0  0
    4.8821   -5.7513   -0.9108 H   0  0  0  0  0  0  0  0  0  0  0  0
    3.5272   -5.9208    0.2444 H   0  0  0  0  0  0  0  0  0  0  0  0
    4.5575   -4.4509    0.2755 H   0  0  0  0  0  0  0  0  0  0  0  0
  1  2  1  0
  1 22  1  0
  1 23  1  0
  1 24  1  0
  2  3  1  0
  2 14  2  0
  3  4  1  0
  3  5  1  0
  5  6  1  0
  5 13  2  0
  6  7  2  0
  7  8  1  0
  7  9  1  0
  8 25  1  0
  8 26  1  0
  9 10  1  0
  9 11  1  0
 11 12  2  0
 11 13  1  0
 13 14  1  0
 14 15  1  0
 15 16  1  0
 16 17  2  0
 16 20  1  0
 17 18  1  0
 18 19  2  0
 18 27  1  0
 19 20  1  0
 19 28  1  0
 20 21  1  0
 21 29  1  0
 21 30  1  0
 21 31  1  0
M  END

