
     RDKit          3D

 71 75  0  0  0  0  0  0  0  0999 V2000
   -2.6728   -1.5021    2.8400 C   0  0  0  0  0  0  0  0  0  0  0  0
   -2.3290   -2.9906    2.6752 C   0  0  0  0  0  0  0  0  0  0  0  0
   -1.0462   -3.2260    1.9057 C   0  0  0  0  0  0  0  0  0  0  0  0
    0.1952   -3.2784    2.5604 C   0  0  0  0  0  0  0  0  0  0  0  0
    1.3700   -3.4682    1.8303 C   0  0  0  0  0  0  0  0  0  0  0  0
    1.3475   -3.6061    0.4403 C   0  0  0  0  0  0  0  0  0  0  0  0
    0.1117   -3.5512   -0.2244 C   0  0  0  0  0  0  0  0  0  0  0  0
   -0.0185   -3.6798   -1.6253 N   0  0  0  0  0  0  0  0  0  0  0  0
    0.9227   -4.0336   -2.5444 C   0  0  0  0  0  0  0  0  0  0  0  0
    2.0969   -4.2566   -2.3163 O   0  0  0  0  0  0  0  0  0  0  0  0
    0.4493   -4.1525   -4.0072 C   0  0  0  0  0  0  0  0  0  0  0  0
   -1.3109   -3.8781   -4.4015 S   0  0  0  0  0  0  0  0  0  0  0  0
   -2.0225   -5.4089   -3.8796 C   0  0  0  0  0  0  0  0  0  0  0  0
   -1.3267   -6.4134   -3.5266 N   0  0  0  0  0  0  0  0  0  0  0  0
   -1.9407   -7.6071   -3.0875 C   0  0  0  0  0  0  0  0  0  0  0  0
   -0.9990   -8.4710   -2.3015 C   0  0  0  0  0  0  0  0  0  0  0  0
   -3.2341   -7.8914   -3.4143 C   0  0  0  0  0  0  0  0  0  0  0  0
   -3.8984   -9.1854   -3.0260 C   0  0  0  0  0  0  0  0  0  0  0  0
   -3.5944   -9.8139   -2.0235 O   0  0  0  0  0  0  0  0  0  0  0  0
   -4.8919   -9.5873   -3.8958 N   0  0  0  0  0  0  0  0  0  0  0  0
   -5.7442  -10.7068   -3.8158 C   0  0  0  0  0  0  0  0  0  0  0  0
   -5.7253  -11.6291   -2.7535 C   0  0  0  0  0  0  0  0  0  0  0  0
   -6.6173  -12.7047   -2.7622 C   0  0  0  0  0  0  0  0  0  0  0  0
   -7.5277  -12.8860   -3.8065 C   0  0  0  0  0  0  0  0  0  0  0  0
   -7.5443  -11.9681   -4.8616 C   0  0  0  0  0  0  0  0  0  0  0  0
   -6.6635  -10.8881   -4.8675 C   0  0  0  0  0  0  0  0  0  0  0  0
   -4.0463   -6.8584   -4.1912 C   0  0  2  0  0  0  0  0  0  0  0  0
   -4.0351   -7.0919   -5.6905 C   0  0  0  0  0  0  0  0  0  0  0  0
   -3.0458   -7.6505   -6.4713 C   0  0  0  0  0  0  0  0  0  0  0  0
   -3.3672   -7.6589   -7.8567 C   0  0  0  0  0  0  0  0  0  0  0  0
   -4.6020   -7.1079   -8.1339 C   0  0  0  0  0  0  0  0  0  0  0  0
   -5.3076   -6.9334   -9.4087 C   0  0  0  0  0  0  0  0  0  0  0  0
   -4.7507   -7.3383  -10.6372 C   0  0  0  0  0  0  0  0  0  0  0  0
   -5.4846   -7.1368  -11.8041 C   0  0  0  0  0  0  0  0  0  0  0  0
   -6.7462   -6.5417  -11.7207 C   0  0  0  0  0  0  0  0  0  0  0  0
   -7.2153   -6.1734  -10.4552 C   0  0  0  0  0  0  0  0  0  0  0  0
   -6.5216   -6.3613   -9.3348 N   0  0  0  0  0  0  0  0  0  0  0  0
   -5.3859   -6.5724   -6.6693 S   0  0  0  0  0  0  0  0  0  0  0  0
   -3.5508   -5.4207   -3.8408 C   0  0  1  0  0  0  0  0  0  0  0  0
   -3.9914   -4.9648   -2.5138 C   0  0  0  0  0  0  0  0  0  0  0  0
   -4.3076   -4.5727   -1.4701 N   0  0  0  0  0  0  0  0  0  0  0  0
   -1.0706   -3.3657    0.5134 C   0  0  0  0  0  0  0  0  0  0  0  0
   -3.6089   -1.3729    3.4071 H   0  0  0  0  0  0  0  0  0  0  0  0
   -2.8004   -1.0136    1.8606 H   0  0  0  0  0  0  0  0  0  0  0  0
   -1.8737   -0.9652    3.3761 H   0  0  0  0  0  0  0  0  0  0  0  0
   -3.1608   -3.5013    2.1624 H   0  0  0  0  0  0  0  0  0  0  0  0
   -2.2438   -3.4558    3.6718 H   0  0  0  0  0  0  0  0  0  0  0  0
    0.2378   -3.1788    3.6487 H   0  0  0  0  0  0  0  0  0  0  0  0
    2.3302   -3.5150    2.3511 H   0  0  0  0  0  0  0  0  0  0  0  0
    2.2599   -3.7641   -0.1297 H   0  0  0  0  0  0  0  0  0  0  0  0
   -0.9521   -3.5133   -1.9891 H   0  0  0  0  0  0  0  0  0  0  0  0
    0.7280   -5.1573   -4.3521 H   0  0  0  0  0  0  0  0  0  0  0  0
    1.0072   -3.4170   -4.6054 H   0  0  0  0  0  0  0  0  0  0  0  0
   -0.0389   -8.5327   -2.8371 H   0  0  0  0  0  0  0  0  0  0  0  0
   -1.4058   -9.4642   -2.0946 H   0  0  0  0  0  0  0  0  0  0  0  0
   -0.7865   -7.9804   -1.3356 H   0  0  0  0  0  0  0  0  0  0  0  0
   -4.9753   -9.0611   -4.7595 H   0  0  0  0  0  0  0  0  0  0  0  0
   -5.0145  -11.4933   -1.9426 H   0  0  0  0  0  0  0  0  0  0  0  0
   -6.5936  -13.4146   -1.9310 H   0  0  0  0  0  0  0  0  0  0  0  0
   -8.2180  -13.7327   -3.7994 H   0  0  0  0  0  0  0  0  0  0  0  0
   -8.2497  -12.0899   -5.6877 H   0  0  0  0  0  0  0  0  0  0  0  0
   -6.6874  -10.1694   -5.6924 H   0  0  0  0  0  0  0  0  0  0  0  0
   -5.0908   -6.9119   -3.8472 H   0  0  0  0  0  0  0  0  0  0  0  0
   -2.1166   -8.0472   -6.0604 H   0  0  0  0  0  0  0  0  0  0  0  0
   -2.7044   -8.0654   -8.6215 H   0  0  0  0  0  0  0  0  0  0  0  0
   -3.7634   -7.8011  -10.6767 H   0  0  0  0  0  0  0  0  0  0  0  0
   -5.0748   -7.4419  -12.7703 H   0  0  0  0  0  0  0  0  0  0  0  0
   -7.3538   -6.3658  -12.6107 H   0  0  0  0  0  0  0  0  0  0  0  0
   -8.1998   -5.7038  -10.3451 H   0  0  0  0  0  0  0  0  0  0  0  0
   -3.9533   -4.7100   -4.5803 H   0  0  0  0  0  0  0  0  0  0  0  0
   -2.0335   -3.3523   -0.0081 H   0  0  0  0  0  0  0  0  0  0  0  0
  1  2  1  0
  1 43  1  0
  1 44  1  0
  1 45  1  0
  2  3  1  0
  2 46  1  0
  2 47  1  0
  3  4  2  0
  3 42  1  0
  4  5  1  0
  4 48  1  0
  5  6  2  0
  5 49  1  0
  6  7  1  0
  6 50  1  0
  7  8  1  0
  7 42  2  0
  8  9  1  0
  8 51  1  0
  9 10  2  0
  9 11  1  0
 11 12  1  0
 11 52  1  0
 11 53  1  0
 12 13  2  0
 13 14  1  0
 13 39  1  0
 14 15  2  0
 15 16  1  0
 15 17  1  0
 16 54  1  0
 16 55  1  0
 16 56  1  0
 17 18  2  0
 17 27  1  0
 18 19  1  0
 18 20  1  0
 20 21  1  0
 20 57  1  0
 21 22  2  0
 21 26  1  0
 22 23  1  0
 22 58  1  0
 23 24  2  0
 23 59  1  0
 24 25  1  0
 24 60  1  0
 25 26  2  0
 25 61  1  0
 26 62  1  0
 27 28  1  0
 27 39  1  0
 27 63  1  1
 28 29  2  0
 28 38  1  0
 29 30  1  0
 29 64  1  0
 30 31  2  0
 30 65  1  0
 31 32  1  0
 31 38  1  0
 32 33  2  0
 32 37  1  0
 33 34  1  0
 33 66  1  0
 34 35  2  0
 34 67  1  0
 35 36  1  0
 35 68  1  0
 36 37  2  0
 36 69  1  0
 39 40  1  0
 39 70  1  6
 40 41  3  0
 42 71  1  0
M  CHG  2  12   1  19  -1
M  END

