
     RDKit          3D

 46 49  0  0  0  0  0  0  0  0999 V2000
    1.3881   -0.0273    1.5923 C   0  0  0  0  0  0  0  0  0  0  0  0
    2.5604   -0.0418    0.6418 C   0  0  0  0  0  0  0  0  0  0  0  0
    3.3715   -1.2040    0.5009 C   0  0  0  0  0  0  0  0  0  0  0  0
    4.4556   -1.2072   -0.3596 C   0  0  0  0  0  0  0  0  0  0  0  0
    5.3289   -2.4344   -0.4800 C   0  0  0  0  0  0  0  0  0  0  0  0
    6.5456   -2.3725   -0.5558 O   0  0  0  0  0  0  0  0  0  0  0  0
    4.6267   -3.6173   -0.4992 N   0  0  0  0  0  0  0  0  0  0  0  0
    5.1244   -4.9287   -0.5061 C   0  0  0  0  0  0  0  0  0  0  0  0
    6.4524   -5.2731   -0.2329 C   0  0  0  0  0  0  0  0  0  0  0  0
    6.7868   -6.6269   -0.1288 C   0  0  0  0  0  0  0  0  0  0  0  0
    5.7826   -7.5803   -0.2809 C   0  0  0  0  0  0  0  0  0  0  0  0
    4.5232   -7.2593   -0.5949 N   0  0  0  0  0  0  0  0  0  0  0  0
    4.1899   -5.9805   -0.7444 C   0  0  0  0  0  0  0  0  0  0  0  0
    2.8570   -5.6418   -1.0700 N   0  0  0  0  0  0  0  0  0  0  0  0
    2.6111   -5.0389   -2.3957 C   0  0  0  0  0  0  0  0  0  0  0  0
    2.3387   -6.1066   -3.4572 C   0  0  0  0  0  0  0  0  0  0  0  0
    1.2684   -6.9425   -3.0731 O   0  0  0  0  0  0  0  0  0  0  0  0
    1.5394   -7.6117   -1.8519 C   0  0  0  0  0  0  0  0  0  0  0  0
    1.8075   -6.6104   -0.7263 C   0  0  0  0  0  0  0  0  0  0  0  0
    4.7449   -0.0139   -1.0979 C   0  0  0  0  0  0  0  0  0  0  0  0
    5.8294    0.1313   -2.0101 C   0  0  0  0  0  0  0  0  0  0  0  0
    6.0109    1.3132   -2.6981 C   0  0  0  0  0  0  0  0  0  0  0  0
    5.1277    2.4061   -2.5087 C   0  0  0  0  0  0  0  0  0  0  0  0
    4.0734    2.3004   -1.6288 C   0  0  0  0  0  0  0  0  0  0  0  0
    3.8533    1.0968   -0.9007 C   0  0  0  0  0  0  0  0  0  0  0  0
    2.7979    1.0569   -0.0444 N   0  0  0  0  0  0  0  0  0  0  0  0
    1.2707   -0.9821    2.1245 H   0  0  0  0  0  0  0  0  0  0  0  0
    0.4577    0.1884    1.0432 H   0  0  0  0  0  0  0  0  0  0  0  0
    1.5126    0.7774    2.3342 H   0  0  0  0  0  0  0  0  0  0  0  0
    3.1420   -2.0835    1.1073 H   0  0  0  0  0  0  0  0  0  0  0  0
    3.6115   -3.5746   -0.4742 H   0  0  0  0  0  0  0  0  0  0  0  0
    7.1883   -4.4856   -0.0831 H   0  0  0  0  0  0  0  0  0  0  0  0
    7.8129   -6.9294    0.0907 H   0  0  0  0  0  0  0  0  0  0  0  0
    5.9991   -8.6478   -0.1614 H   0  0  0  0  0  0  0  0  0  0  0  0
    3.4695   -4.4185   -2.6914 H   0  0  0  0  0  0  0  0  0  0  0  0
    1.7267   -4.3807   -2.3206 H   0  0  0  0  0  0  0  0  0  0  0  0
    3.2578   -6.7043   -3.6308 H   0  0  0  0  0  0  0  0  0  0  0  0
    2.0549   -5.6321   -4.4103 H   0  0  0  0  0  0  0  0  0  0  0  0
    2.4126   -8.2812   -1.9617 H   0  0  0  0  0  0  0  0  0  0  0  0
    0.6525   -8.2220   -1.6201 H   0  0  0  0  0  0  0  0  0  0  0  0
    2.0946   -7.1392    0.1925 H   0  0  0  0  0  0  0  0  0  0  0  0
    0.8823   -6.0398   -0.5281 H   0  0  0  0  0  0  0  0  0  0  0  0
    6.5240   -0.6973   -2.1406 H   0  0  0  0  0  0  0  0  0  0  0  0
    6.8484    1.4105   -3.3936 H   0  0  0  0  0  0  0  0  0  0  0  0
    5.2890    3.3346   -3.0625 H   0  0  0  0  0  0  0  0  0  0  0  0
    3.3758    3.1221   -1.4564 H   0  0  0  0  0  0  0  0  0  0  0  0
  1  2  1  0
  1 27  1  0
  1 28  1  0
  1 29  1  0
  2  3  2  0
  2 26  1  0
  3  4  1  0
  3 30  1  0
  4  5  1  0
  4 20  2  0
  5  6  2  0
  5  7  1  0
  7  8  1  0
  7 31  1  0
  8  9  2  0
  8 13  1  0
  9 10  1  0
  9 32  1  0
 10 11  2  0
 10 33  1  0
 11 12  1  0
 11 34  1  0
 12 13  2  0
 13 14  1  0
 14 15  1  0
 14 19  1  0
 15 16  1  0
 15 35  1  0
 15 36  1  0
 16 17  1  0
 16 37  1  0
 16 38  1  0
 17 18  1  0
 18 19  1  0
 18 39  1  0
 18 40  1  0
 19 41  1  0
 19 42  1  0
 20 21  1  0
 20 25  1  0
 21 22  2  0
 21 43  1  0
 22 23  1  0
 22 44  1  0
 23 24  2  0
 23 45  1  0
 24 25  1  0
 24 46  1  0
 25 26  2  0
M  END

