
     RDKit          3D

 42 44  0  0  0  0  0  0  0  0999 V2000
    1.4878    0.3990    0.0222 C   0  0  0  0  0  0  0  0  0  0  0  0
    2.9036    0.7489    0.3391 C   0  0  0  0  0  0  0  0  0  0  0  0
    3.9368    0.7042   -0.4843 N   0  0  0  0  0  0  0  0  0  0  0  0
    4.9783    1.1772    0.2619 C   0  0  0  0  0  0  0  0  0  0  0  0
    6.3970    1.3171   -0.2397 C   0  0  1  0  0  0  0  0  0  0  0  0
    6.5670    0.8898   -1.7080 C   0  0  0  0  0  0  0  0  0  0  0  0
    5.9946    1.9339   -2.6729 C   0  0  0  0  0  0  0  0  0  0  0  0
    6.5184    3.3354   -2.3576 C   0  0  0  0  0  0  0  0  0  0  0  0
    6.2719    3.6808   -0.9636 N   0  0  0  0  0  0  0  0  0  0  0  0
    6.5292    5.0805   -0.6568 C   0  0  0  0  0  0  0  0  0  0  0  0
    5.8580    5.5404    0.6088 C   0  0  0  0  0  0  0  0  0  0  0  0
    6.4713    5.9967    1.7987 C   0  0  0  0  0  0  0  0  0  0  0  0
    5.5803    6.2926    2.7412 N   0  0  0  0  0  0  0  0  0  0  0  0
    4.3865    6.0387    2.1996 N   0  0  0  0  0  0  0  0  0  0  0  0
    3.1825    6.2773    2.9770 C   0  0  0  0  0  0  0  0  0  0  0  0
    4.4984    5.5919    0.9112 C   0  0  0  0  0  0  0  0  0  0  0  0
    3.3013    5.2326    0.0913 C   0  0  1  0  0  0  0  0  0  0  0  0
    3.6022    5.0948   -1.2009 F   0  0  0  0  0  0  0  0  0  0  0  0
    2.7192    4.0820    0.5041 F   0  0  0  0  0  0  0  0  0  0  0  0
    2.3405    6.1833    0.1812 F   0  0  0  0  0  0  0  0  0  0  0  0
    6.9138    2.7551   -0.0421 C   0  0  0  0  0  0  0  0  0  0  0  0
    4.6450    1.4987    1.5047 N   0  0  0  0  0  0  0  0  0  0  0  0
    3.3261    1.2186    1.5371 N   0  0  0  0  0  0  0  0  0  0  0  0
    2.7887    1.3880    2.3791 H   0  0  0  0  0  0  0  0  0  0  0  0
    1.4676   -0.3320   -0.7969 H   0  0  0  0  0  0  0  0  0  0  0  0
    0.9292    1.2913   -0.3073 H   0  0  0  0  0  0  0  0  0  0  0  0
    0.9661   -0.0268    0.8932 H   0  0  0  0  0  0  0  0  0  0  0  0
    7.0244    0.6646    0.3926 H   0  0  0  0  0  0  0  0  0  0  0  0
    6.0904   -0.0875   -1.8770 H   0  0  0  0  0  0  0  0  0  0  0  0
    7.6473    0.7646   -1.9018 H   0  0  0  0  0  0  0  0  0  0  0  0
    4.8971    1.9360   -2.5915 H   0  0  0  0  0  0  0  0  0  0  0  0
    6.2501    1.6724   -3.7137 H   0  0  0  0  0  0  0  0  0  0  0  0
    6.0111    4.0774   -2.9957 H   0  0  0  0  0  0  0  0  0  0  0  0
    7.6080    3.3945   -2.6024 H   0  0  0  0  0  0  0  0  0  0  0  0
    6.1596    5.6786   -1.5046 H   0  0  0  0  0  0  0  0  0  0  0  0
    7.6184    5.3013   -0.5725 H   0  0  0  0  0  0  0  0  0  0  0  0
    7.5371    6.1118    1.9970 H   0  0  0  0  0  0  0  0  0  0  0  0
    3.4967    6.4051    4.0193 H   0  0  0  0  0  0  0  0  0  0  0  0
    2.5002    5.4195    2.8976 H   0  0  0  0  0  0  0  0  0  0  0  0
    2.6591    7.1824    2.6342 H   0  0  0  0  0  0  0  0  0  0  0  0
    6.7059    3.0730    0.9897 H   0  0  0  0  0  0  0  0  0  0  0  0
    8.0232    2.7590   -0.1733 H   0  0  0  0  0  0  0  0  0  0  0  0
  1  2  1  0
  1 25  1  0
  1 26  1  0
  1 27  1  0
  2  3  2  0
  2 23  1  0
  3  4  1  0
  4  5  1  0
  4 22  2  0
  5  6  1  0
  5 21  1  0
  5 28  1  1
  6  7  1  0
  6 29  1  0
  6 30  1  0
  7  8  1  0
  7 31  1  0
  7 32  1  0
  8  9  1  0
  8 33  1  0
  8 34  1  0
  9 10  1  0
  9 21  1  0
 10 11  1  0
 10 35  1  0
 10 36  1  0
 11 12  1  0
 11 16  2  0
 12 13  2  0
 12 37  1  0
 13 14  1  0
 14 15  1  0
 14 16  1  0
 15 38  1  0
 15 39  1  0
 15 40  1  0
 16 17  1  0
 17 18  1  6
 17 19  1  0
 17 20  1  0
 21 41  1  0
 21 42  1  0
 22 23  1  0
 23 24  1  0
M  END

