
     RDKit          3D

 37 37  0  0  0  0  0  0  0  0999 V2000
    2.0046   -0.4817    1.7934 C   0  0  0  0  0  0  0  0  0  0  0  0
    2.8775   -0.2567    0.5574 C   0  0  0  0  0  0  0  0  0  0  0  0
    3.3781    1.1875    0.4394 C   0  0  0  0  0  0  0  0  0  0  0  0
    4.3249    1.4425   -0.7493 C   0  0  1  0  0  0  0  0  0  0  0  0
    3.6467    1.2802   -2.1193 C   0  0  0  0  0  0  0  0  0  0  0  0
    4.9939    2.7565   -0.6390 N   0  0  0  0  0  0  0  0  0  0  0  0
    4.2061    3.9372   -0.9840 C   0  0  0  0  0  0  0  0  0  0  0  0
    6.3570    2.8983   -0.5922 C   0  0  0  0  0  0  0  0  0  0  0  0
    6.8386    4.0541   -1.0970 N   0  0  0  0  0  0  0  0  0  0  0  0
    8.1231    4.3031   -1.1489 N   0  0  0  0  0  0  0  0  0  0  0  0
    9.0367    3.4220   -0.7248 C   0  0  0  0  0  0  0  0  0  0  0  0
   10.4747    3.8294   -0.9210 C   0  0  0  0  0  0  0  0  0  0  0  0
    8.6483    2.2164   -0.0996 C   0  0  0  0  0  0  0  0  0  0  0  0
    9.6447    1.2533    0.4886 C   0  0  0  0  0  0  0  0  0  0  0  0
    7.2696    1.9588   -0.0057 C   0  0  0  0  0  0  0  0  0  0  0  0
    6.8482    0.8280    0.7645 C   0  0  0  0  0  0  0  0  0  0  0  0
    6.5575   -0.0842    1.4247 N   0  0  0  0  0  0  0  0  0  0  0  0
    1.6590   -1.5257    1.8568 H   0  0  0  0  0  0  0  0  0  0  0  0
    1.1107    0.1647    1.7785 H   0  0  0  0  0  0  0  0  0  0  0  0
    2.5599   -0.2581    2.7192 H   0  0  0  0  0  0  0  0  0  0  0  0
    2.3067   -0.5370   -0.3449 H   0  0  0  0  0  0  0  0  0  0  0  0
    3.7494   -0.9331    0.5977 H   0  0  0  0  0  0  0  0  0  0  0  0
    3.9191    1.4516    1.3627 H   0  0  0  0  0  0  0  0  0  0  0  0
    2.5126    1.8727    0.3787 H   0  0  0  0  0  0  0  0  0  0  0  0
    5.1153    0.6835   -0.7039 H   0  0  0  0  0  0  0  0  0  0  0  0
    2.7712    1.9384   -2.2314 H   0  0  0  0  0  0  0  0  0  0  0  0
    3.3007    0.2444   -2.2517 H   0  0  0  0  0  0  0  0  0  0  0  0
    4.3516    1.5048   -2.9348 H   0  0  0  0  0  0  0  0  0  0  0  0
    3.1599    3.7597   -0.7008 H   0  0  0  0  0  0  0  0  0  0  0  0
    4.2514    4.1822   -2.0586 H   0  0  0  0  0  0  0  0  0  0  0  0
    4.5802    4.8116   -0.4379 H   0  0  0  0  0  0  0  0  0  0  0  0
   10.4905    4.7961   -1.4411 H   0  0  0  0  0  0  0  0  0  0  0  0
   11.0346    3.0964   -1.5249 H   0  0  0  0  0  0  0  0  0  0  0  0
   11.0088    3.9436    0.0371 H   0  0  0  0  0  0  0  0  0  0  0  0
   10.6755    1.6119    0.3886 H   0  0  0  0  0  0  0  0  0  0  0  0
    9.5743    0.2695   -0.0039 H   0  0  0  0  0  0  0  0  0  0  0  0
    9.4407    1.0795    1.5573 H   0  0  0  0  0  0  0  0  0  0  0  0
  1  2  1  0
  1 18  1  0
  1 19  1  0
  1 20  1  0
  2  3  1  0
  2 21  1  0
  2 22  1  0
  3  4  1  0
  3 23  1  0
  3 24  1  0
  4  5  1  0
  4  6  1  0
  4 25  1  6
  5 26  1  0
  5 27  1  0
  5 28  1  0
  6  7  1  0
  6  8  1  0
  7 29  1  0
  7 30  1  0
  7 31  1  0
  8  9  2  0
  8 15  1  0
  9 10  1  0
 10 11  2  0
 11 12  1  0
 11 13  1  0
 12 32  1  0
 12 33  1  0
 12 34  1  0
 13 14  1  0
 13 15  2  0
 14 35  1  0
 14 36  1  0
 14 37  1  0
 15 16  1  0
 16 17  3  0
M  END

