
     RDKit          3D

 57 61  0  0  0  0  0  0  0  0999 V2000
    0.5189   -0.7805   -0.1843 C   0  0  0  0  0  0  0  0  0  0  0  0
    1.9959   -0.3500   -0.2928 C   0  0  1  0  0  0  0  0  0  0  0  0
    2.3370   -0.0215   -1.7600 C   0  0  0  0  0  0  0  0  0  0  0  0
    3.8087    0.3506   -1.9731 C   0  0  0  0  0  0  0  0  0  0  0  0
    4.0966    0.9101   -3.2859 N   0  0  0  0  0  0  0  0  0  0  0  0
    4.2168    0.2299   -4.4860 C   0  0  0  0  0  0  0  0  0  0  0  0
    4.2946   -1.1314   -4.7298 C   0  0  0  0  0  0  0  0  0  0  0  0
    4.4599   -1.5769   -6.0725 C   0  0  0  0  0  0  0  0  0  0  0  0
    4.5442   -0.7144   -7.1502 C   0  0  0  0  0  0  0  0  0  0  0  0
    4.4593    0.6923   -6.9307 C   0  0  0  0  0  0  0  0  0  0  0  0
    4.5248    1.7168   -7.9168 C   0  0  0  0  0  0  0  0  0  0  0  0
    4.4278    3.0576   -7.5703 C   0  0  0  0  0  0  0  0  0  0  0  0
    4.2552    3.4745   -6.2245 C   0  0  0  0  0  0  0  0  0  0  0  0
    4.1907    2.4859   -5.2661 C   0  0  0  0  0  0  0  0  0  0  0  0
    4.2911    1.1263   -5.5943 C   0  0  0  0  0  0  0  0  0  0  0  0
    3.9606    2.6281   -3.4956 S   0  0  1  0  0  0  0  0  0  0  0  0
    2.5990    3.0518   -3.1528 O   0  0  0  0  0  0  0  0  0  0  0  0
    5.0809    3.2909   -2.8338 O   0  0  0  0  0  0  0  0  0  0  0  0
    2.4297    0.7239    0.6021 N   0  0  0  0  0  0  0  0  0  0  0  0
    1.8499    2.0548    0.5082 C   0  0  0  0  0  0  0  0  0  0  0  0
    0.7123    2.3197    1.5083 C   0  0  0  0  0  0  0  0  0  0  0  0
    1.1358    1.9980    2.8652 N   0  0  0  0  0  0  0  0  0  0  0  0
    0.4023    2.5253    3.9447 C   0  0  0  0  0  0  0  0  0  0  0  0
   -0.8219    3.2042    3.7640 C   0  0  0  0  0  0  0  0  0  0  0  0
   -1.5127    3.7602    4.8454 C   0  0  0  0  0  0  0  0  0  0  0  0
   -0.9987    3.6293    6.1290 C   0  0  0  0  0  0  0  0  0  0  0  0
   -1.6640    4.1564    7.1730 F   0  0  0  0  0  0  0  0  0  0  0  0
    0.2031    2.9582    6.3480 C   0  0  0  0  0  0  0  0  0  0  0  0
    0.8951    2.4191    5.2662 C   0  0  0  0  0  0  0  0  0  0  0  0
    1.6725    0.6422    2.9884 C   0  0  0  0  0  0  0  0  0  0  0  0
    2.7964    0.4069    1.9695 C   0  0  0  0  0  0  0  0  0  0  0  0
    0.3162   -1.6424   -0.8414 H   0  0  0  0  0  0  0  0  0  0  0  0
   -0.1581    0.0335   -0.4900 H   0  0  0  0  0  0  0  0  0  0  0  0
    0.2567   -1.0736    0.8431 H   0  0  0  0  0  0  0  0  0  0  0  0
    2.6107   -1.2225   -0.0040 H   0  0  0  0  0  0  0  0  0  0  0  0
    1.7155    0.8152   -2.1162 H   0  0  0  0  0  0  0  0  0  0  0  0
    2.0706   -0.8885   -2.3869 H   0  0  0  0  0  0  0  0  0  0  0  0
    4.4703   -0.5194   -1.8203 H   0  0  0  0  0  0  0  0  0  0  0  0
    4.1122    1.0944   -1.2214 H   0  0  0  0  0  0  0  0  0  0  0  0
    4.2364   -1.8586   -3.9187 H   0  0  0  0  0  0  0  0  0  0  0  0
    4.5230   -2.6541   -6.2481 H   0  0  0  0  0  0  0  0  0  0  0  0
    4.6733   -1.1005   -8.1637 H   0  0  0  0  0  0  0  0  0  0  0  0
    4.6546    1.4373   -8.9657 H   0  0  0  0  0  0  0  0  0  0  0  0
    4.4831    3.8186   -8.3525 H   0  0  0  0  0  0  0  0  0  0  0  0
    4.1771    4.5333   -5.9703 H   0  0  0  0  0  0  0  0  0  0  0  0
    1.4996    2.2523   -0.5150 H   0  0  0  0  0  0  0  0  0  0  0  0
    2.6459    2.7963    0.7122 H   0  0  0  0  0  0  0  0  0  0  0  0
   -0.1977    1.7508    1.2175 H   0  0  0  0  0  0  0  0  0  0  0  0
    0.4563    3.3888    1.4599 H   0  0  0  0  0  0  0  0  0  0  0  0
   -1.2590    3.2995    2.7707 H   0  0  0  0  0  0  0  0  0  0  0  0
   -2.4588    4.2851    4.6972 H   0  0  0  0  0  0  0  0  0  0  0  0
    0.5950    2.8778    7.3642 H   0  0  0  0  0  0  0  0  0  0  0  0
    1.8521    1.9289    5.4509 H   0  0  0  0  0  0  0  0  0  0  0  0
    0.8652   -0.1097    2.8483 H   0  0  0  0  0  0  0  0  0  0  0  0
    2.0745    0.4905    3.9988 H   0  0  0  0  0  0  0  0  0  0  0  0
    3.1334   -0.6403    2.0296 H   0  0  0  0  0  0  0  0  0  0  0  0
    3.6518    1.0456    2.2661 H   0  0  0  0  0  0  0  0  0  0  0  0
  1  2  1  0
  1 32  1  0
  1 33  1  0
  1 34  1  0
  2  3  1  0
  2 19  1  0
  2 35  1  1
  3  4  1  0
  3 36  1  0
  3 37  1  0
  4  5  1  0
  4 38  1  0
  4 39  1  0
  5  6  1  0
 16  5  1  1
  6  7  2  0
  6 15  1  0
  7  8  1  0
  7 40  1  0
  8  9  2  0
  8 41  1  0
  9 10  1  0
  9 42  1  0
 10 11  1  0
 10 15  2  0
 11 12  2  0
 11 43  1  0
 12 13  1  0
 12 44  1  0
 13 14  2  0
 13 45  1  0
 14 15  1  0
 14 16  1  0
 16 17  2  0
 16 18  2  0
 19 20  1  0
 19 31  1  0
 20 21  1  0
 20 46  1  0
 20 47  1  0
 21 22  1  0
 21 48  1  0
 21 49  1  0
 22 23  1  0
 22 30  1  0
 23 24  2  0
 23 29  1  0
 24 25  1  0
 24 50  1  0
 25 26  2  0
 25 51  1  0
 26 27  1  0
 26 28  1  0
 28 29  2  0
 28 52  1  0
 29 53  1  0
 30 31  1  0
 30 54  1  0
 30 55  1  0
 31 56  1  0
 31 57  1  0
M  END

