
     RDKit          3D

 51 54  0  0  0  0  0  0  0  0999 V2000
    5.7209   -6.3545    1.1415 C   0  0  0  0  0  0  0  0  0  0  0  0
    5.4023   -5.2920    0.2660 O   0  0  0  0  0  0  0  0  0  0  0  0
    4.3533   -5.4131   -0.5774 C   0  0  0  0  0  0  0  0  0  0  0  0
    3.5760   -6.5713   -0.7247 C   0  0  0  0  0  0  0  0  0  0  0  0
    2.5102   -6.5907   -1.6308 C   0  0  0  0  0  0  0  0  0  0  0  0
    2.2046   -5.4684   -2.4011 C   0  0  0  0  0  0  0  0  0  0  0  0
    2.9791   -4.3132   -2.2628 C   0  0  0  0  0  0  0  0  0  0  0  0
    4.0451   -4.2754   -1.3615 C   0  0  0  0  0  0  0  0  0  0  0  0
    4.8151   -3.0878   -1.2024 N   0  0  0  0  0  0  0  0  0  0  0  0
    6.1160   -2.8405   -1.6172 C   0  0  0  0  0  0  0  0  0  0  0  0
    6.9525   -3.8153   -2.3707 C   0  0  0  0  0  0  0  0  0  0  0  0
    6.4761   -1.6389   -1.2508 N   0  0  0  0  0  0  0  0  0  0  0  0
    5.4267   -1.0606   -0.5738 N   0  0  0  0  0  0  0  0  0  0  0  0
    4.4465   -1.9296   -0.5477 C   0  0  0  0  0  0  0  0  0  0  0  0
    2.8560   -1.7353    0.1871 S   0  0  0  0  0  0  0  0  0  0  0  0
    3.1473   -0.0615    0.8583 C   0  0  0  0  0  0  0  0  0  0  0  0
    1.8611    0.4203    1.5177 C   0  0  0  0  0  0  0  0  0  0  0  0
    0.8639   -0.2833    1.5919 O   0  0  0  0  0  0  0  0  0  0  0  0
    1.8939    1.6874    2.0186 N   0  0  0  0  0  0  0  0  0  0  0  0
    0.6967    2.2693    2.6374 C   0  0  0  0  0  0  0  0  0  0  0  0
    1.0696    3.7468    2.8123 C   0  0  0  0  0  0  0  0  0  0  0  0
    2.6007    3.7370    2.9566 C   0  0  1  0  0  0  0  0  0  0  0  0
    3.3258    5.0802    2.7398 C   0  0  0  0  0  0  0  0  0  0  0  0
    4.5928    4.9704    3.6230 C   0  0  0  0  0  0  0  0  0  0  0  0
    4.4647    3.7650    4.3720 O   0  0  0  0  0  0  0  0  0  0  0  0
    3.1062    3.3858    4.3716 C   0  0  0  0  0  0  0  0  0  0  0  0
    3.0097    2.6316    1.9594 C   0  0  0  0  0  0  0  0  0  0  0  0
    4.8758   -6.5969    1.8093 H   0  0  0  0  0  0  0  0  0  0  0  0
    6.5697   -6.0117    1.7472 H   0  0  0  0  0  0  0  0  0  0  0  0
    6.0168   -7.2647    0.5902 H   0  0  0  0  0  0  0  0  0  0  0  0
    3.7932   -7.4597   -0.1319 H   0  0  0  0  0  0  0  0  0  0  0  0
    1.9135   -7.5010   -1.7287 H   0  0  0  0  0  0  0  0  0  0  0  0
    1.3700   -5.4874   -3.1047 H   0  0  0  0  0  0  0  0  0  0  0  0
    2.7599   -3.4181   -2.8483 H   0  0  0  0  0  0  0  0  0  0  0  0
    7.1563   -4.7144   -1.7676 H   0  0  0  0  0  0  0  0  0  0  0  0
    7.9053   -3.3300   -2.6190 H   0  0  0  0  0  0  0  0  0  0  0  0
    6.4632   -4.1393   -3.3037 H   0  0  0  0  0  0  0  0  0  0  0  0
    3.4713    0.6070    0.0465 H   0  0  0  0  0  0  0  0  0  0  0  0
    3.9824   -0.0940    1.5751 H   0  0  0  0  0  0  0  0  0  0  0  0
    0.4847    1.7738    3.6014 H   0  0  0  0  0  0  0  0  0  0  0  0
   -0.1852    2.1065    1.9994 H   0  0  0  0  0  0  0  0  0  0  0  0
    0.5652    4.2143    3.6720 H   0  0  0  0  0  0  0  0  0  0  0  0
    0.7884    4.3196    1.9129 H   0  0  0  0  0  0  0  0  0  0  0  0
    2.6822    5.9061    3.0817 H   0  0  0  0  0  0  0  0  0  0  0  0
    3.5580    5.2644    1.6798 H   0  0  0  0  0  0  0  0  0  0  0  0
    4.6835    5.8385    4.3029 H   0  0  0  0  0  0  0  0  0  0  0  0
    5.5233    4.9074    3.0362 H   0  0  0  0  0  0  0  0  0  0  0  0
    2.5232    3.9480    5.1327 H   0  0  0  0  0  0  0  0  0  0  0  0
    3.0455    2.3140    4.6155 H   0  0  0  0  0  0  0  0  0  0  0  0
    3.9646    2.1630    2.2431 H   0  0  0  0  0  0  0  0  0  0  0  0
    3.1308    3.0485    0.9413 H   0  0  0  0  0  0  0  0  0  0  0  0
  1  2  1  0
  1 28  1  0
  1 29  1  0
  1 30  1  0
  2  3  1  0
  3  4  2  0
  3  8  1  0
  4  5  1  0
  4 31  1  0
  5  6  2  0
  5 32  1  0
  6  7  1  0
  6 33  1  0
  7  8  2  0
  7 34  1  0
  8  9  1  0
  9 10  1  0
  9 14  1  0
 10 11  1  0
 10 12  2  0
 11 35  1  0
 11 36  1  0
 11 37  1  0
 12 13  1  0
 13 14  2  0
 14 15  1  0
 15 16  1  0
 16 17  1  0
 16 38  1  0
 16 39  1  0
 17 18  2  0
 17 19  1  0
 19 20  1  0
 19 27  1  0
 20 21  1  0
 20 40  1  0
 20 41  1  0
 22 21  1  1
 21 42  1  0
 21 43  1  0
 22 23  1  0
 22 26  1  0
 22 27  1  0
 23 24  1  0
 23 44  1  0
 23 45  1  0
 24 25  1  0
 24 46  1  0
 24 47  1  0
 25 26  1  0
 26 48  1  0
 26 49  1  0
 27 50  1  0
 27 51  1  0
M  END

