
     RDKit          3D

 36 37  0  0  0  0  0  0  0  0999 V2000
    0.7550   -0.0840   -0.8138 C   0  0  0  0  0  0  0  0  0  0  0  0
    2.1138   -0.1652   -0.0954 C   0  0  2  0  0  0  0  0  0  0  0  0
    2.9362    1.1266   -0.2090 C   0  0  0  0  0  0  0  0  0  0  0  0
    3.4938    1.2399   -1.6144 C   0  0  0  0  0  0  0  0  0  0  0  0
    3.6732    2.5543   -2.2781 C   0  0  0  0  0  0  0  0  0  0  0  0
    3.3948    3.7718   -1.6338 C   0  0  0  0  0  0  0  0  0  0  0  0
    3.5905    4.9941   -2.2844 C   0  0  0  0  0  0  0  0  0  0  0  0
    4.0654    5.0548   -3.6003 C   0  0  0  0  0  0  0  0  0  0  0  0
    4.2707    6.3916   -4.2996 C   0  0  1  0  0  0  0  0  0  0  0  0
    5.7470    6.6302   -4.6629 C   0  0  0  0  0  0  0  0  0  0  0  0
    3.3623    6.5424   -5.5324 C   0  0  0  0  0  0  0  0  0  0  0  0
    4.3458    3.8332   -4.2438 C   0  0  0  0  0  0  0  0  0  0  0  0
    4.1603    2.6147   -3.6018 C   0  0  0  0  0  0  0  0  0  0  0  0
    3.8253    0.1776   -2.2733 N   0  0  0  0  0  0  0  0  0  0  0  0
    3.7696   -1.0716   -1.6875 N   0  0  0  0  0  0  0  0  0  0  0  0
    2.9776   -1.2646   -0.6810 C   0  0  0  0  0  0  0  0  0  0  0  0
    2.9256   -2.5009   -0.1040 N   0  0  0  0  0  0  0  0  0  0  0  0
    0.1307    0.7095   -0.3727 H   0  0  0  0  0  0  0  0  0  0  0  0
    0.2041   -1.0343   -0.7309 H   0  0  0  0  0  0  0  0  0  0  0  0
    0.8850    0.1373   -1.8842 H   0  0  0  0  0  0  0  0  0  0  0  0
    1.9385   -0.3869    0.9700 H   0  0  0  0  0  0  0  0  0  0  0  0
    3.7744    1.1028    0.5129 H   0  0  0  0  0  0  0  0  0  0  0  0
    2.3153    1.9934    0.0538 H   0  0  0  0  0  0  0  0  0  0  0  0
    3.0249    3.7846   -0.6068 H   0  0  0  0  0  0  0  0  0  0  0  0
    3.3660    5.9232   -1.7518 H   0  0  0  0  0  0  0  0  0  0  0  0
    3.9791    7.1754   -3.5787 H   0  0  0  0  0  0  0  0  0  0  0  0
    6.1059    5.8882   -5.3950 H   0  0  0  0  0  0  0  0  0  0  0  0
    6.3940    6.5616   -3.7745 H   0  0  0  0  0  0  0  0  0  0  0  0
    5.8832    7.6293   -5.1087 H   0  0  0  0  0  0  0  0  0  0  0  0
    3.6069    5.7959   -6.3059 H   0  0  0  0  0  0  0  0  0  0  0  0
    3.4805    7.5406   -5.9854 H   0  0  0  0  0  0  0  0  0  0  0  0
    2.3016    6.4116   -5.2666 H   0  0  0  0  0  0  0  0  0  0  0  0
    4.7217    3.8345   -5.2709 H   0  0  0  0  0  0  0  0  0  0  0  0
    4.3889    1.6743   -4.1050 H   0  0  0  0  0  0  0  0  0  0  0  0
    3.3879   -3.2552   -0.6003 H   0  0  0  0  0  0  0  0  0  0  0  0
    2.1475   -2.7435    0.4941 H   0  0  0  0  0  0  0  0  0  0  0  0
  1  2  1  0
  1 18  1  0
  1 19  1  0
  1 20  1  0
  2  3  1  0
  2 16  1  0
  2 21  1  1
  3  4  1  0
  3 22  1  0
  3 23  1  0
  4  5  1  0
  4 14  2  0
  5  6  2  0
  5 13  1  0
  6  7  1  0
  6 24  1  0
  7  8  2  0
  7 25  1  0
  8  9  1  0
  8 12  1  0
  9 10  1  0
  9 11  1  0
  9 26  1  1
 10 27  1  0
 10 28  1  0
 10 29  1  0
 11 30  1  0
 11 31  1  0
 11 32  1  0
 12 13  2  0
 12 33  1  0
 13 34  1  0
 14 15  1  0
 15 16  2  0
 16 17  1  0
 17 35  1  0
 17 36  1  0
M  END

