
     RDKit          3D

 49 49  0  0  0  0  0  0  0  0999 V2000
    0.8114    1.2412    0.8140 C   0  0  0  0  0  0  0  0  0  0  0  0
    2.3406    1.1753    0.8229 C   0  0  0  0  0  0  0  0  0  0  0  0
    2.8980    0.5401    2.1031 C   0  0  0  0  0  0  0  0  0  0  0  0
    4.4368    0.3922    2.2182 C   0  0  1  0  0  0  0  0  0  0  0  0
    4.9846   -0.5323    1.1188 C   0  0  0  0  0  0  0  0  0  0  0  0
    5.1557    1.7566    2.1013 C   0  0  0  0  0  0  0  0  0  0  0  0
    4.7217    2.7246    3.1075 N   0  0  0  0  0  0  0  0  0  0  0  0
    4.7271   -0.2281    3.6139 C   0  0  0  0  0  0  0  0  0  0  0  0
    6.1392   -0.4133    3.9206 N   0  0  0  0  0  0  0  0  0  0  0  0
    6.6600    0.3068    5.0744 C   0  0  0  0  0  0  0  0  0  0  0  0
    8.1086   -0.1834    5.1647 C   0  0  0  0  0  0  0  0  0  0  0  0
    8.0888   -1.6403    4.5817 C   0  0  2  0  0  0  0  0  0  0  0  0
    8.4017   -2.6716    5.6909 C   0  0  0  0  0  0  0  0  0  0  0  0
    8.3268   -4.1447    5.2809 C   0  0  0  0  0  0  0  0  0  0  0  0
    9.0535   -1.7630    3.3753 C   0  0  0  0  0  0  0  0  0  0  0  0
   10.5424   -1.5782    3.6769 C   0  0  0  0  0  0  0  0  0  0  0  0
    6.6194   -1.7778    4.0817 C   0  0  0  0  0  0  0  0  0  0  0  0
    0.4302    1.7039   -0.1105 H   0  0  0  0  0  0  0  0  0  0  0  0
    0.4290    1.8314    1.6640 H   0  0  0  0  0  0  0  0  0  0  0  0
    0.3669    0.2346    0.8899 H   0  0  0  0  0  0  0  0  0  0  0  0
    2.7453    2.1956    0.6981 H   0  0  0  0  0  0  0  0  0  0  0  0
    2.6829    0.6091   -0.0600 H   0  0  0  0  0  0  0  0  0  0  0  0
    2.4486   -0.4636    2.2200 H   0  0  0  0  0  0  0  0  0  0  0  0
    2.5362    1.1209    2.9715 H   0  0  0  0  0  0  0  0  0  0  0  0
    4.8572   -0.0999    0.1137 H   0  0  0  0  0  0  0  0  0  0  0  0
    4.4737   -1.5097    1.1303 H   0  0  0  0  0  0  0  0  0  0  0  0
    6.0606   -0.7086    1.2700 H   0  0  0  0  0  0  0  0  0  0  0  0
    5.0539    2.1225    1.0577 H   0  0  0  0  0  0  0  0  0  0  0  0
    6.2290    1.5656    2.2594 H   0  0  0  0  0  0  0  0  0  0  0  0
    3.7953    3.0915    2.8883 H   0  0  0  0  0  0  0  0  0  0  0  0
    5.3477    3.5291    3.1153 H   0  0  0  0  0  0  0  0  0  0  0  0
    4.1936   -1.1961    3.6797 H   0  0  0  0  0  0  0  0  0  0  0  0
    4.2745    0.4325    4.3716 H   0  0  0  0  0  0  0  0  0  0  0  0
    6.1016    0.0464    6.0053 H   0  0  0  0  0  0  0  0  0  0  0  0
    6.5624    1.3945    4.9370 H   0  0  0  0  0  0  0  0  0  0  0  0
    8.4942   -0.1497    6.1953 H   0  0  0  0  0  0  0  0  0  0  0  0
    8.7576    0.4634    4.5547 H   0  0  0  0  0  0  0  0  0  0  0  0
    7.6982   -2.4950    6.5240 H   0  0  0  0  0  0  0  0  0  0  0  0
    9.4037   -2.4609    6.1032 H   0  0  0  0  0  0  0  0  0  0  0  0
    7.3375   -4.4072    4.8713 H   0  0  0  0  0  0  0  0  0  0  0  0
    8.5051   -4.8008    6.1482 H   0  0  0  0  0  0  0  0  0  0  0  0
    9.0790   -4.4021    4.5182 H   0  0  0  0  0  0  0  0  0  0  0  0
    8.7360   -1.0158    2.6275 H   0  0  0  0  0  0  0  0  0  0  0  0
    8.9057   -2.7458    2.8950 H   0  0  0  0  0  0  0  0  0  0  0  0
   10.7484   -0.6127    4.1673 H   0  0  0  0  0  0  0  0  0  0  0  0
   11.1340   -1.6046    2.7475 H   0  0  0  0  0  0  0  0  0  0  0  0
   10.9344   -2.3713    4.3338 H   0  0  0  0  0  0  0  0  0  0  0  0
    6.0114   -2.3306    4.8366 H   0  0  0  0  0  0  0  0  0  0  0  0
    6.5432   -2.3395    3.1369 H   0  0  0  0  0  0  0  0  0  0  0  0
  1  2  1  0
  1 18  1  0
  1 19  1  0
  1 20  1  0
  2  3  1  0
  2 21  1  0
  2 22  1  0
  4  3  1  6
  3 23  1  0
  3 24  1  0
  4  5  1  0
  4  6  1  0
  4  8  1  0
  5 25  1  0
  5 26  1  0
  5 27  1  0
  6  7  1  0
  6 28  1  0
  6 29  1  0
  7 30  1  0
  7 31  1  0
  8  9  1  0
  8 32  1  0
  8 33  1  0
  9 10  1  0
  9 17  1  0
 10 11  1  0
 10 34  1  0
 10 35  1  0
 11 12  1  0
 11 36  1  0
 11 37  1  0
 12 13  1  1
 12 15  1  0
 12 17  1  0
 13 14  1  0
 13 38  1  0
 13 39  1  0
 14 40  1  0
 14 41  1  0
 14 42  1  0
 15 16  1  0
 15 43  1  0
 15 44  1  0
 16 45  1  0
 16 46  1  0
 16 47  1  0
 17 48  1  0
 17 49  1  0
M  END

