
     RDKit          3D

 28 28  0  0  0  0  0  0  0  0999 V2000
    1.0391   -0.1926   -0.0177 C   0  0  0  0  0  0  0  0  0  0  0  0
    2.5532    0.0072    0.1549 C   0  0  1  0  0  0  0  0  0  0  0  0
    3.1065    0.1867   -1.1820 N   0  0  0  0  0  0  0  0  0  0  0  0
    4.2740   -0.1699   -1.6459 C   0  0  0  0  0  0  0  0  0  0  0  0
    5.2730   -0.8133   -0.9570 N   0  0  0  0  0  0  0  0  0  0  0  0
    4.6593    0.0429   -2.9624 N   0  0  0  0  0  0  0  0  0  0  0  0
    3.8587    0.5549   -3.8595 C   0  0  0  0  0  0  0  0  0  0  0  0
    2.6297    1.0705   -3.6194 N   0  0  0  0  0  0  0  0  0  0  0  0
    4.2965    0.5710   -5.1692 N   0  0  0  0  0  0  0  0  0  0  0  0
    2.8751    1.2299    1.0621 C   0  0  0  0  0  0  0  0  0  0  0  0
    4.2270    0.8728    1.6869 C   0  0  0  0  0  0  0  0  0  0  0  0
    4.3276   -0.5609    1.6456 O   0  0  0  0  0  0  0  0  0  0  0  0
    3.1572   -1.1095    1.0372 C   0  0  0  0  0  0  0  0  0  0  0  0
    0.6045    0.6655   -0.5533 H   0  0  0  0  0  0  0  0  0  0  0  0
    0.5223   -0.2941    0.9502 H   0  0  0  0  0  0  0  0  0  0  0  0
    0.8414   -1.0948   -0.6180 H   0  0  0  0  0  0  0  0  0  0  0  0
    5.2784   -0.8338    0.0610 H   0  0  0  0  0  0  0  0  0  0  0  0
    6.1431   -0.9079   -1.4627 H   0  0  0  0  0  0  0  0  0  0  0  0
    2.3380    0.8866   -2.6386 H   0  0  0  0  0  0  0  0  0  0  0  0
    1.9644    1.1443   -4.3785 H   0  0  0  0  0  0  0  0  0  0  0  0
    5.2778    0.3346   -5.2651 H   0  0  0  0  0  0  0  0  0  0  0  0
    3.9851    1.3404   -5.7520 H   0  0  0  0  0  0  0  0  0  0  0  0
    2.1035    1.3300    1.8432 H   0  0  0  0  0  0  0  0  0  0  0  0
    2.9004    2.1606    0.4784 H   0  0  0  0  0  0  0  0  0  0  0  0
    4.3219    1.2123    2.7322 H   0  0  0  0  0  0  0  0  0  0  0  0
    5.0708    1.2969    1.1143 H   0  0  0  0  0  0  0  0  0  0  0  0
    2.4327   -1.4084    1.8179 H   0  0  0  0  0  0  0  0  0  0  0  0
    3.4450   -2.0065    0.4694 H   0  0  0  0  0  0  0  0  0  0  0  0
  1  2  1  0
  1 14  1  0
  1 15  1  0
  1 16  1  0
  2  3  1  6
  2 10  1  0
  2 13  1  0
  3  4  2  0
  4  5  1  0
  4  6  1  0
  5 17  1  0
  5 18  1  0
  6  7  2  0
  7  8  1  0
  7  9  1  0
  8 19  1  0
  8 20  1  0
  9 21  1  0
  9 22  1  0
 10 11  1  0
 10 23  1  0
 10 24  1  0
 11 12  1  0
 11 25  1  0
 11 26  1  0
 12 13  1  0
 13 27  1  0
 13 28  1  0
M  END

