
     RDKit          3D

 45 46  0  0  0  0  0  0  0  0999 V2000
    3.6004    5.0304    0.9057 C   0  0  0  0  0  0  0  0  0  0  0  0
    3.6446    3.6964    0.9261 C   0  0  0  0  0  0  0  0  0  0  0  0
    4.2774    2.8893    2.0166 C   0  0  0  0  0  0  0  0  0  0  0  0
    5.2056    1.9799    1.4141 O   0  0  0  0  0  0  0  0  0  0  0  0
    5.6460    1.0744    2.3335 N   0  0  0  0  0  0  0  0  0  0  0  0
    6.4910    0.2079    1.8876 C   0  0  0  0  0  0  0  0  0  0  0  0
    7.0691    0.0881    0.5305 C   0  0  0  0  0  0  0  0  0  0  0  0
    7.3952    1.2229   -0.2443 C   0  0  0  0  0  0  0  0  0  0  0  0
    7.9707    1.0886   -1.4983 C   0  0  0  0  0  0  0  0  0  0  0  0
    8.2384   -0.1818   -2.0507 C   0  0  0  0  0  0  0  0  0  0  0  0
    8.7916   -0.1520   -3.2833 O   0  0  0  0  0  0  0  0  0  0  0  0
    9.2067   -1.2807   -4.0970 C   0  0  1  0  0  0  0  0  0  0  0  0
    8.0039   -2.1514   -4.4871 C   0  0  0  0  0  0  0  0  0  0  0  0
    9.7684   -0.5934   -5.3474 C   0  0  0  0  0  0  0  0  0  0  0  0
   10.3204   -2.0802   -3.4063 C   0  0  0  0  0  0  0  0  0  0  0  0
    7.9118   -1.3180   -1.2904 C   0  0  0  0  0  0  0  0  0  0  0  0
    7.3442   -1.1745   -0.0223 C   0  0  0  0  0  0  0  0  0  0  0  0
    6.8788   -0.7609    2.9889 C   0  0  1  0  0  0  0  0  0  0  0  0
    6.4225   -2.0394    2.7332 F   0  0  0  0  0  0  0  0  0  0  0  0
    8.3215   -0.8764    3.1675 N   0  0  0  0  0  0  0  0  0  0  0  0
    9.1036   -1.9846    3.2345 C   0  0  0  0  0  0  0  0  0  0  0  0
   10.3562   -1.6318    3.4506 N   0  0  0  0  0  0  0  0  0  0  0  0
   10.2848   -0.2758    3.5143 C   0  0  0  0  0  0  0  0  0  0  0  0
    9.0708    0.2269    3.3509 N   0  0  0  0  0  0  0  0  0  0  0  0
    3.0919    5.5730    0.1042 H   0  0  0  0  0  0  0  0  0  0  0  0
    4.0651    5.6323    1.6939 H   0  0  0  0  0  0  0  0  0  0  0  0
    3.1800    3.1161    0.1200 H   0  0  0  0  0  0  0  0  0  0  0  0
    3.5178    2.2995    2.5617 H   0  0  0  0  0  0  0  0  0  0  0  0
    4.7990    3.5319    2.7469 H   0  0  0  0  0  0  0  0  0  0  0  0
    7.2008    2.2187    0.1500 H   0  0  0  0  0  0  0  0  0  0  0  0
    8.2321    1.9669   -2.0919 H   0  0  0  0  0  0  0  0  0  0  0  0
    7.2158   -1.5285   -4.9370 H   0  0  0  0  0  0  0  0  0  0  0  0
    7.5680   -2.6898   -3.6353 H   0  0  0  0  0  0  0  0  0  0  0  0
    8.3148   -2.9008   -5.2314 H   0  0  0  0  0  0  0  0  0  0  0  0
    8.9908    0.0189   -5.8279 H   0  0  0  0  0  0  0  0  0  0  0  0
   10.1283   -1.3391   -6.0721 H   0  0  0  0  0  0  0  0  0  0  0  0
   10.6052    0.0671   -5.0759 H   0  0  0  0  0  0  0  0  0  0  0  0
    9.9759   -2.6126   -2.5100 H   0  0  0  0  0  0  0  0  0  0  0  0
   11.1407   -1.4090   -3.1098 H   0  0  0  0  0  0  0  0  0  0  0  0
   10.7260   -2.8290   -4.1041 H   0  0  0  0  0  0  0  0  0  0  0  0
    8.0895   -2.3225   -1.6660 H   0  0  0  0  0  0  0  0  0  0  0  0
    7.0945   -2.0759    0.5374 H   0  0  0  0  0  0  0  0  0  0  0  0
    6.4160   -0.4126    3.9240 H   0  0  0  0  0  0  0  0  0  0  0  0
    8.7141   -2.9940    3.1208 H   0  0  0  0  0  0  0  0  0  0  0  0
   11.1498    0.3649    3.6854 H   0  0  0  0  0  0  0  0  0  0  0  0
  1  2  2  0
  1 25  1  0
  1 26  1  0
  2  3  1  0
  2 27  1  0
  3  4  1  0
  3 28  1  0
  3 29  1  0
  4  5  1  0
  5  6  2  0
  6  7  1  0
  6 18  1  0
  7  8  2  0
  7 17  1  0
  8  9  1  0
  8 30  1  0
  9 10  2  0
  9 31  1  0
 10 11  1  0
 10 16  1  0
 12 11  1  1
 12 13  1  0
 12 14  1  0
 12 15  1  0
 13 32  1  0
 13 33  1  0
 13 34  1  0
 14 35  1  0
 14 36  1  0
 14 37  1  0
 15 38  1  0
 15 39  1  0
 15 40  1  0
 16 17  2  0
 16 41  1  0
 17 42  1  0
 18 19  1  0
 18 20  1  0
 18 43  1  1
 20 21  1  0
 20 24  1  0
 21 22  2  0
 21 44  1  0
 22 23  1  0
 23 24  2  0
 23 45  1  0
M  END

