
     RDKit          3D

 34 35  0  0  0  0  0  0  0  0999 V2000
    6.6045   -1.9228    2.6855 C   0  0  0  0  0  0  0  0  0  0  0  0
    5.2981   -2.0006    2.1583 O   0  0  0  0  0  0  0  0  0  0  0  0
    4.5022   -0.8973    2.1617 C   0  0  0  0  0  0  0  0  0  0  0  0
    4.8854    0.3386    2.7014 C   0  0  0  0  0  0  0  0  0  0  0  0
    3.9951    1.4181    2.6800 C   0  0  0  0  0  0  0  0  0  0  0  0
    2.7249    1.2735    2.1257 C   0  0  0  0  0  0  0  0  0  0  0  0
    2.3493    0.0383    1.5846 C   0  0  0  0  0  0  0  0  0  0  0  0
    3.2206   -1.0553    1.5815 C   0  0  0  0  0  0  0  0  0  0  0  0
    2.8184   -2.4008    1.0130 C   0  0  0  0  0  0  0  0  0  0  0  0
    1.8765   -2.2663   -0.0816 N   0  0  0  0  0  0  0  0  0  0  0  0
    1.2519   -3.3359   -0.6864 C   0  0  0  0  0  0  0  0  0  0  0  0
    1.3037   -4.6411   -0.1482 C   0  0  0  0  0  0  0  0  0  0  0  0
    0.6196   -5.6803   -0.7788 C   0  0  0  0  0  0  0  0  0  0  0  0
    0.7003   -7.2829   -0.0814 Cl  0  0  0  0  0  0  0  0  0  0  0  0
   -0.1152   -5.4864   -1.9493 C   0  0  0  0  0  0  0  0  0  0  0  0
   -0.1511   -4.1943   -2.4856 C   0  0  0  0  0  0  0  0  0  0  0  0
   -0.9226   -3.9165   -3.7541 C   0  0  1  0  0  0  0  0  0  0  0  0
   -1.5206   -5.0151   -4.2412 F   0  0  0  0  0  0  0  0  0  0  0  0
   -1.8826   -2.9924   -3.5558 F   0  0  0  0  0  0  0  0  0  0  0  0
   -0.1205   -3.4342   -4.7233 F   0  0  0  0  0  0  0  0  0  0  0  0
    0.5143   -3.1339   -1.8740 C   0  0  0  0  0  0  0  0  0  0  0  0
    7.0511   -2.9181    2.5596 H   0  0  0  0  0  0  0  0  0  0  0  0
    6.5981   -1.6669    3.7601 H   0  0  0  0  0  0  0  0  0  0  0  0
    7.2213   -1.1819    2.1461 H   0  0  0  0  0  0  0  0  0  0  0  0
    5.8735    0.4683    3.1427 H   0  0  0  0  0  0  0  0  0  0  0  0
    4.3062    2.3755    3.1059 H   0  0  0  0  0  0  0  0  0  0  0  0
    2.0249    2.1120    2.1144 H   0  0  0  0  0  0  0  0  0  0  0  0
    1.3521   -0.0853    1.1556 H   0  0  0  0  0  0  0  0  0  0  0  0
    2.3464   -2.9978    1.8152 H   0  0  0  0  0  0  0  0  0  0  0  0
    3.7261   -2.9576    0.7169 H   0  0  0  0  0  0  0  0  0  0  0  0
    2.0167   -1.4543   -0.6720 H   0  0  0  0  0  0  0  0  0  0  0  0
    1.8728   -4.8570    0.7541 H   0  0  0  0  0  0  0  0  0  0  0  0
   -0.6365   -6.3137   -2.4270 H   0  0  0  0  0  0  0  0  0  0  0  0
    0.4611   -2.1336   -2.3103 H   0  0  0  0  0  0  0  0  0  0  0  0
  1  2  1  0
  1 22  1  0
  1 23  1  0
  1 24  1  0
  2  3  1  0
  3  4  2  0
  3  8  1  0
  4  5  1  0
  4 25  1  0
  5  6  2  0
  5 26  1  0
  6  7  1  0
  6 27  1  0
  7  8  2  0
  7 28  1  0
  8  9  1  0
  9 10  1  0
  9 29  1  0
  9 30  1  0
 10 11  1  0
 10 31  1  0
 11 12  2  0
 11 21  1  0
 12 13  1  0
 12 32  1  0
 13 14  1  0
 13 15  2  0
 15 16  1  0
 15 33  1  0
 16 17  1  0
 16 21  2  0
 17 18  1  6
 17 19  1  0
 17 20  1  0
 21 34  1  0
M  END

