
     RDKit          3D

 35 36  0  0  0  0  0  0  0  0999 V2000
    4.2070   -1.7052   -1.1292 C   0  0  0  0  0  0  0  0  0  0  0  0
    5.1267   -1.0503   -0.0821 C   0  0  1  0  0  0  0  0  0  0  0  0
    4.4481   -1.0378    1.2999 C   0  0  0  0  0  0  0  0  0  0  0  0
    6.4611   -1.8063   -0.0073 C   0  0  0  0  0  0  0  0  0  0  0  0
    5.4531    0.3356   -0.4944 N   0  0  0  0  0  0  0  0  0  0  0  0
    4.5602    1.3354   -0.6872 C   0  0  0  0  0  0  0  0  0  0  0  0
    3.3523    1.2507   -0.5329 O   0  0  0  0  0  0  0  0  0  0  0  0
    5.1480    2.6936   -1.1312 C   0  0  0  0  0  0  0  0  0  0  0  0
    6.5770    2.7700   -1.3393 N   0  0  0  0  0  0  0  0  0  0  0  0
    7.5085    3.1915   -0.4002 C   0  0  0  0  0  0  0  0  0  0  0  0
    8.7764    3.1177   -0.9198 C   0  0  0  0  0  0  0  0  0  0  0  0
    8.6478    2.6241   -2.2638 C   0  0  0  0  0  0  0  0  0  0  0  0
    9.5559    2.3380   -3.3007 C   0  0  0  0  0  0  0  0  0  0  0  0
    9.0805    1.8588   -4.5163 C   0  0  0  0  0  0  0  0  0  0  0  0
    7.6962    1.6599   -4.7076 C   0  0  0  0  0  0  0  0  0  0  0  0
    7.0884    0.9944   -6.3928 Br  0  0  0  0  0  0  0  0  0  0  0  0
    6.7608    1.9286   -3.7130 C   0  0  0  0  0  0  0  0  0  0  0  0
    7.2560    2.4158   -2.4938 C   0  0  0  0  0  0  0  0  0  0  0  0
    3.9768   -2.7421   -0.8377 H   0  0  0  0  0  0  0  0  0  0  0  0
    4.6958   -1.7261   -2.1162 H   0  0  0  0  0  0  0  0  0  0  0  0
    3.2647   -1.1477   -1.2165 H   0  0  0  0  0  0  0  0  0  0  0  0
    4.2200   -2.0664    1.6207 H   0  0  0  0  0  0  0  0  0  0  0  0
    3.5117   -0.4648    1.2639 H   0  0  0  0  0  0  0  0  0  0  0  0
    5.1101   -0.5818    2.0534 H   0  0  0  0  0  0  0  0  0  0  0  0
    6.2905   -2.8500    0.2953 H   0  0  0  0  0  0  0  0  0  0  0  0
    7.1385   -1.3472    0.7316 H   0  0  0  0  0  0  0  0  0  0  0  0
    6.9684   -1.8174   -0.9860 H   0  0  0  0  0  0  0  0  0  0  0  0
    6.4282    0.5469   -0.6741 H   0  0  0  0  0  0  0  0  0  0  0  0
    4.8531    3.4270   -0.3660 H   0  0  0  0  0  0  0  0  0  0  0  0
    4.6163    2.9800   -2.0516 H   0  0  0  0  0  0  0  0  0  0  0  0
    7.1747    3.5223    0.5822 H   0  0  0  0  0  0  0  0  0  0  0  0
    9.6954    3.3933   -0.4070 H   0  0  0  0  0  0  0  0  0  0  0  0
   10.6285    2.4903   -3.1565 H   0  0  0  0  0  0  0  0  0  0  0  0
    9.7713    1.6320   -5.3296 H   0  0  0  0  0  0  0  0  0  0  0  0
    5.6973    1.7596   -3.8839 H   0  0  0  0  0  0  0  0  0  0  0  0
  1  2  1  0
  1 19  1  0
  1 20  1  0
  1 21  1  0
  2  3  1  0
  2  4  1  0
  2  5  1  6
  3 22  1  0
  3 23  1  0
  3 24  1  0
  4 25  1  0
  4 26  1  0
  4 27  1  0
  5  6  1  0
  5 28  1  0
  6  7  2  0
  6  8  1  0
  8  9  1  0
  8 29  1  0
  8 30  1  0
  9 10  1  0
  9 18  1  0
 10 11  2  0
 10 31  1  0
 11 12  1  0
 11 32  1  0
 12 13  1  0
 12 18  2  0
 13 14  2  0
 13 33  1  0
 14 15  1  0
 14 34  1  0
 15 16  1  0
 15 17  2  0
 17 18  1  0
 17 35  1  0
M  END

