
     RDKit          3D

 35 36  0  0  0  0  0  0  0  0999 V2000
    4.6145    1.0084   -3.4674 C   0  0  0  0  0  0  0  0  0  0  0  0
    5.3638   -0.1471   -2.8536 C   0  0  0  0  0  0  0  0  0  0  0  0
    6.6814   -0.4574   -3.2241 C   0  0  0  0  0  0  0  0  0  0  0  0
    7.3198   -1.5402   -2.6158 C   0  0  0  0  0  0  0  0  0  0  0  0
    6.6324   -2.2793   -1.6543 C   0  0  0  0  0  0  0  0  0  0  0  0
    5.3201   -1.8953   -1.3361 C   0  0  0  0  0  0  0  0  0  0  0  0
    4.4965   -2.6757   -0.3265 C   0  0  0  0  0  0  0  0  0  0  0  0
    3.7542   -3.7783   -0.9255 N   0  0  0  0  0  0  0  0  0  0  0  0
    4.3379   -5.0152   -1.0676 C   0  0  0  0  0  0  0  0  0  0  0  0
    5.4227   -5.3073   -0.5857 O   0  0  0  0  0  0  0  0  0  0  0  0
    3.5866   -5.9135   -1.8192 N   0  0  0  0  0  0  0  0  0  0  0  0
    3.9698   -7.3024   -1.8442 C   0  0  0  0  0  0  0  0  0  0  0  0
    3.1550   -8.1621   -0.9032 C   0  0  0  0  0  0  0  0  0  0  0  0
    1.9658   -7.8611   -0.4700 N   0  0  0  0  0  0  0  0  0  0  0  0
    1.4425   -8.8530    0.3291 C   0  0  0  0  0  0  0  0  0  0  0  0
    0.0823   -8.6777    0.9282 C   0  0  0  0  0  0  0  0  0  0  0  0
   -0.4533   -9.5017    1.6219 O   0  0  0  0  0  0  0  0  0  0  0  0
   -0.4876   -7.5033    0.6141 O   0  0  0  0  0  0  0  0  0  0  0  0
    2.2454   -9.9485    0.5103 C   0  0  0  0  0  0  0  0  0  0  0  0
    3.7250   -9.7269   -0.3454 S   0  0  0  0  0  0  0  0  0  0  0  0
    4.7090   -0.8622   -1.9263 N   0  0  0  0  0  0  0  0  0  0  0  0
    5.1981    1.5095   -4.2529 H   0  0  0  0  0  0  0  0  0  0  0  0
    4.3577    1.7501   -2.6935 H   0  0  0  0  0  0  0  0  0  0  0  0
    3.6629    0.6598   -3.8993 H   0  0  0  0  0  0  0  0  0  0  0  0
    7.1954    0.1429   -3.9785 H   0  0  0  0  0  0  0  0  0  0  0  0
    8.3449   -1.8035   -2.8904 H   0  0  0  0  0  0  0  0  0  0  0  0
    7.0797   -3.1456   -1.1632 H   0  0  0  0  0  0  0  0  0  0  0  0
    3.7797   -1.9862    0.1426 H   0  0  0  0  0  0  0  0  0  0  0  0
    5.1415   -3.1073    0.4494 H   0  0  0  0  0  0  0  0  0  0  0  0
    3.0188   -3.5203   -1.5751 H   0  0  0  0  0  0  0  0  0  0  0  0
    2.5908   -5.7344   -1.8950 H   0  0  0  0  0  0  0  0  0  0  0  0
    5.0342   -7.3517   -1.5734 H   0  0  0  0  0  0  0  0  0  0  0  0
    3.8676   -7.7102   -2.8670 H   0  0  0  0  0  0  0  0  0  0  0  0
    0.1421   -7.0155    0.0503 H   0  0  0  0  0  0  0  0  0  0  0  0
    2.0277  -10.8355    1.1019 H   0  0  0  0  0  0  0  0  0  0  0  0
  1  2  1  0
  1 22  1  0
  1 23  1  0
  1 24  1  0
  2  3  2  0
  2 21  1  0
  3  4  1  0
  3 25  1  0
  4  5  2  0
  4 26  1  0
  5  6  1  0
  5 27  1  0
  6  7  1  0
  6 21  2  0
  7  8  1  0
  7 28  1  0
  7 29  1  0
  8  9  1  0
  8 30  1  0
  9 10  2  0
  9 11  1  0
 11 12  1  0
 11 31  1  0
 12 13  1  0
 12 32  1  0
 12 33  1  0
 13 14  2  0
 13 20  1  0
 14 15  1  0
 15 16  1  0
 15 19  2  0
 16 17  2  0
 16 18  1  0
 18 34  1  0
 19 20  1  0
 19 35  1  0
M  END

