
     RDKit          3D

 50 52  0  0  0  0  0  0  0  0999 V2000
    0.8708    1.7423   -2.9626 C   0  0  0  0  0  0  0  0  0  0  0  0
    2.2806    1.3292   -3.3345 C   0  0  0  0  0  0  0  0  0  0  0  0
    3.1177    1.5671   -2.1978 O   0  0  0  0  0  0  0  0  0  0  0  0
    4.4248    1.2771   -2.2908 C   0  0  0  0  0  0  0  0  0  0  0  0
    5.2278    1.5407   -1.1586 C   0  0  0  0  0  0  0  0  0  0  0  0
    6.5762    1.2440   -1.2381 C   0  0  0  0  0  0  0  0  0  0  0  0
    7.0995    0.6661   -2.4143 C   0  0  0  0  0  0  0  0  0  0  0  0
    8.5873    0.4698   -2.5152 C   0  0  0  0  0  0  0  0  0  0  0  0
    9.3360    1.3592   -2.1317 O   0  0  0  0  0  0  0  0  0  0  0  0
    9.0858   -0.6900   -3.0689 N   0  0  0  0  0  0  0  0  0  0  0  0
    8.3581   -1.9468   -3.2457 C   0  0  0  0  0  0  0  0  0  0  0  0
    8.6314   -3.0078   -2.1696 C   0  0  0  0  0  0  0  0  0  0  0  0
   10.1105   -3.3033   -1.8870 C   0  0  0  0  0  0  0  0  0  0  0  0
   10.7828   -2.1833   -1.2315 N   0  0  0  0  0  0  0  0  0  0  0  0
   11.1412   -2.3136    0.3912 S   0  0  1  0  0  0  0  0  0  0  0  0
   11.4150   -0.9686    0.8885 O   0  0  0  0  0  0  0  0  0  0  0  0
   10.1204   -3.1680    1.0099 O   0  0  0  0  0  0  0  0  0  0  0  0
   12.6483   -3.2574    0.4746 C   0  0  0  0  0  0  0  0  0  0  0  0
   12.8471   -4.3885    1.2385 C   0  0  0  0  0  0  0  0  0  0  0  0
   14.1601   -4.7322    1.0251 N   0  0  0  0  0  0  0  0  0  0  0  0
   14.8683   -5.8531    1.6175 C   0  0  0  0  0  0  0  0  0  0  0  0
   14.6725   -3.8051    0.1530 C   0  0  0  0  0  0  0  0  0  0  0  0
   13.7847   -2.9036   -0.1947 N   0  0  0  0  0  0  0  0  0  0  0  0
   11.3520   -1.0726   -2.0004 C   0  0  0  0  0  0  0  0  0  0  0  0
   10.5320   -0.7533   -3.2589 C   0  0  0  0  0  0  0  0  0  0  0  0
    6.2111    0.4764   -3.4759 C   0  0  0  0  0  0  0  0  0  0  0  0
    4.9075    0.7744   -3.4199 N   0  0  0  0  0  0  0  0  0  0  0  0
    0.1921    1.5748   -3.8135 H   0  0  0  0  0  0  0  0  0  0  0  0
    0.8316    2.8091   -2.6931 H   0  0  0  0  0  0  0  0  0  0  0  0
    0.5024    1.1581   -2.1051 H   0  0  0  0  0  0  0  0  0  0  0  0
    2.6629    1.9012   -4.1963 H   0  0  0  0  0  0  0  0  0  0  0  0
    2.3364    0.2637   -3.6135 H   0  0  0  0  0  0  0  0  0  0  0  0
    4.7752    1.9763   -0.2667 H   0  0  0  0  0  0  0  0  0  0  0  0
    7.2486    1.4563   -0.4039 H   0  0  0  0  0  0  0  0  0  0  0  0
    8.6248   -2.3529   -4.2390 H   0  0  0  0  0  0  0  0  0  0  0  0
    7.2824   -1.7424   -3.2695 H   0  0  0  0  0  0  0  0  0  0  0  0
    8.1322   -3.9411   -2.4862 H   0  0  0  0  0  0  0  0  0  0  0  0
    8.1732   -2.7035   -1.2150 H   0  0  0  0  0  0  0  0  0  0  0  0
   10.6534   -3.5709   -2.8120 H   0  0  0  0  0  0  0  0  0  0  0  0
   10.1711   -4.1772   -1.2242 H   0  0  0  0  0  0  0  0  0  0  0  0
   12.1774   -4.9430    1.8897 H   0  0  0  0  0  0  0  0  0  0  0  0
   14.8995   -5.7609    2.7140 H   0  0  0  0  0  0  0  0  0  0  0  0
   15.8987   -5.8676    1.2380 H   0  0  0  0  0  0  0  0  0  0  0  0
   14.3835   -6.8055    1.3535 H   0  0  0  0  0  0  0  0  0  0  0  0
   15.7073   -3.8498   -0.1891 H   0  0  0  0  0  0  0  0  0  0  0  0
   12.3921   -1.2899   -2.3097 H   0  0  0  0  0  0  0  0  0  0  0  0
   11.3660   -0.1914   -1.3490 H   0  0  0  0  0  0  0  0  0  0  0  0
   10.7241   -1.4991   -4.0461 H   0  0  0  0  0  0  0  0  0  0  0  0
   10.8812    0.2209   -3.6303 H   0  0  0  0  0  0  0  0  0  0  0  0
    6.5706    0.0882   -4.4359 H   0  0  0  0  0  0  0  0  0  0  0  0
  1  2  1  0
  1 28  1  0
  1 29  1  0
  1 30  1  0
  2  3  1  0
  2 31  1  0
  2 32  1  0
  3  4  1  0
  4  5  2  0
  4 27  1  0
  5  6  1  0
  5 33  1  0
  6  7  2  0
  6 34  1  0
  7  8  1  0
  7 26  1  0
  8  9  2  0
  8 10  1  0
 10 11  1  0
 10 25  1  0
 11 12  1  0
 11 35  1  0
 11 36  1  0
 12 13  1  0
 12 37  1  0
 12 38  1  0
 13 14  1  0
 13 39  1  0
 13 40  1  0
 14 15  1  0
 14 24  1  0
 15 16  2  0
 15 17  2  0
 15 18  1  6
 18 19  2  0
 18 23  1  0
 19 20  1  0
 19 41  1  0
 20 21  1  0
 20 22  1  0
 21 42  1  0
 21 43  1  0
 21 44  1  0
 22 23  2  0
 22 45  1  0
 24 25  1  0
 24 46  1  0
 24 47  1  0
 25 48  1  0
 25 49  1  0
 26 27  2  0
 26 50  1  0
M  END

