
     RDKit          3D

 25 26  0  0  0  0  0  0  0  0999 V2000
    2.9434   -1.7885    2.3112 O   0  0  0  0  0  0  0  0  0  0  0  0
    3.3760   -0.9255    1.3652 C   0  0  0  0  0  0  0  0  0  0  0  0
    4.1300    0.2143    1.6945 C   0  0  0  0  0  0  0  0  0  0  0  0
    4.5371    0.5343    3.5396 Br  0  0  0  0  0  0  0  0  0  0  0  0
    4.5834    1.0957    0.7156 C   0  0  0  0  0  0  0  0  0  0  0  0
    4.2839    0.8379   -0.6181 C   0  0  0  0  0  0  0  0  0  0  0  0
    3.5309   -0.2950   -0.9497 C   0  0  0  0  0  0  0  0  0  0  0  0
    3.2226   -0.5506   -2.6597 Cl  0  0  0  0  0  0  0  0  0  0  0  0
    3.0490   -1.2006    0.0129 C   0  0  0  0  0  0  0  0  0  0  0  0
    2.2306   -2.4298   -0.3581 C   0  0  1  0  0  0  0  0  0  0  0  0
    2.9872   -3.7733   -0.1739 C   0  0  0  0  0  0  0  0  0  0  0  0
    1.8630   -4.7593    0.1685 C   0  0  0  0  0  0  0  0  0  0  0  0
    0.9402   -3.9079    1.0464 C   0  0  0  0  0  0  0  0  0  0  0  0
    0.9701   -2.5996    0.3942 N   0  0  0  0  0  0  0  0  0  0  0  0
    3.2567   -1.4837    3.1801 H   0  0  0  0  0  0  0  0  0  0  0  0
    5.1664    1.9744    0.9951 H   0  0  0  0  0  0  0  0  0  0  0  0
    4.6294    1.5068   -1.4066 H   0  0  0  0  0  0  0  0  0  0  0  0
    1.9853   -2.3178   -1.4247 H   0  0  0  0  0  0  0  0  0  0  0  0
    3.6901   -3.7019    0.6702 H   0  0  0  0  0  0  0  0  0  0  0  0
    3.5628   -4.0455   -1.0713 H   0  0  0  0  0  0  0  0  0  0  0  0
    2.2217   -5.6673    0.6768 H   0  0  0  0  0  0  0  0  0  0  0  0
    1.3324   -5.0707   -0.7469 H   0  0  0  0  0  0  0  0  0  0  0  0
    1.3297   -3.8837    2.0845 H   0  0  0  0  0  0  0  0  0  0  0  0
   -0.0879   -4.3083    1.0854 H   0  0  0  0  0  0  0  0  0  0  0  0
    0.7769   -1.8341    1.0308 H   0  0  0  0  0  0  0  0  0  0  0  0
  1  2  1  0
  1 15  1  0
  2  3  2  0
  2  9  1  0
  3  4  1  0
  3  5  1  0
  5  6  2  0
  5 16  1  0
  6  7  1  0
  6 17  1  0
  7  8  1  0
  7  9  2  0
  9 10  1  0
 10 11  1  0
 10 14  1  0
 10 18  1  6
 11 12  1  0
 11 19  1  0
 11 20  1  0
 12 13  1  0
 12 21  1  0
 12 22  1  0
 13 14  1  0
 13 23  1  0
 13 24  1  0
 14 25  1  0
M  END

