
     RDKit          3D

 55 57  0  0  0  0  0  0  0  0999 V2000
    5.1847   -1.4079    3.4509 C   0  0  0  0  0  0  0  0  0  0  0  0
    4.6086   -0.2764    2.6192 C   0  0  0  0  0  0  0  0  0  0  0  0
    5.6171    0.2354    1.7798 O   0  0  0  0  0  0  0  0  0  0  0  0
    5.2027    1.2946    0.9534 C   0  0  0  0  0  0  0  0  0  0  0  0
    6.3735    1.7360    0.0874 C   0  0  0  0  0  0  0  0  0  0  0  0
    6.0212    2.9160   -0.8245 C   0  0  0  0  0  0  0  0  0  0  0  0
    7.1322    3.3450   -1.6558 N   0  0  0  0  0  0  0  0  0  0  0  0
    7.1509    3.1261   -3.0004 C   0  0  0  0  0  0  0  0  0  0  0  0
    6.2425    2.5601   -3.5931 O   0  0  0  0  0  0  0  0  0  0  0  0
    8.4075    3.5738   -3.7779 C   0  0  1  0  0  0  0  0  0  0  0  0
    8.9464    2.6311   -3.9825 H   0  0  0  0  0  0  0  0  0  0  0  0
    8.0091    4.2002   -5.1292 C   0  0  0  0  0  0  0  0  0  0  0  0
    7.4990    5.6368   -4.9563 C   0  0  0  0  0  0  0  0  0  0  0  0
    8.4890    6.5037   -4.1670 C   0  0  0  0  0  0  0  0  0  0  0  0
    8.8338    5.8559   -2.9033 N   0  0  0  0  0  0  0  0  0  0  0  0
    8.6353    6.4499   -1.6918 C   0  0  0  0  0  0  0  0  0  0  0  0
    8.2715    7.7493   -1.6695 N   0  0  0  0  0  0  0  0  0  0  0  0
    8.1185    8.3189   -0.4852 C   0  0  0  0  0  0  0  0  0  0  0  0
    8.3147    7.6502    0.7399 C   0  0  0  0  0  0  0  0  0  0  0  0
    8.1566    8.3067    2.0565 C   0  0  0  0  0  0  0  0  0  0  0  0
    7.1684    9.2889    2.2675 C   0  0  0  0  0  0  0  0  0  0  0  0
    7.0172    9.9136    3.5058 C   0  0  0  0  0  0  0  0  0  0  0  0
    7.8580    9.5479    4.5545 C   0  0  0  0  0  0  0  0  0  0  0  0
    7.7153   10.1411    5.7482 F   0  0  0  0  0  0  0  0  0  0  0  0
    8.8444    8.5785    4.3879 C   0  0  0  0  0  0  0  0  0  0  0  0
    8.9902    7.9690    3.1412 C   0  0  0  0  0  0  0  0  0  0  0  0
    8.6555    6.2954    0.5947 C   0  0  0  0  0  0  0  0  0  0  0  0
    8.8066    5.6956   -0.5807 N   0  0  0  0  0  0  0  0  0  0  0  0
    9.3785    4.5093   -3.0419 C   0  0  0  0  0  0  0  0  0  0  0  0
    4.4168   -1.8292    4.1185 H   0  0  0  0  0  0  0  0  0  0  0  0
    6.0231   -1.0468    4.0666 H   0  0  0  0  0  0  0  0  0  0  0  0
    5.5613   -2.2121    2.8000 H   0  0  0  0  0  0  0  0  0  0  0  0
    4.2113    0.5255    3.2785 H   0  0  0  0  0  0  0  0  0  0  0  0
    3.7501   -0.6389    2.0139 H   0  0  0  0  0  0  0  0  0  0  0  0
    4.8349    2.1461    1.5679 H   0  0  0  0  0  0  0  0  0  0  0  0
    4.3501    0.9808    0.3128 H   0  0  0  0  0  0  0  0  0  0  0  0
    6.7069    0.8832   -0.5262 H   0  0  0  0  0  0  0  0  0  0  0  0
    7.2173    2.0019    0.7476 H   0  0  0  0  0  0  0  0  0  0  0  0
    5.6766    3.7717   -0.2160 H   0  0  0  0  0  0  0  0  0  0  0  0
    5.2027    2.6404   -1.5056 H   0  0  0  0  0  0  0  0  0  0  0  0
    7.8614    3.9005   -1.2093 H   0  0  0  0  0  0  0  0  0  0  0  0
    7.2438    3.5684   -5.6011 H   0  0  0  0  0  0  0  0  0  0  0  0
    8.8937    4.2017   -5.7908 H   0  0  0  0  0  0  0  0  0  0  0  0
    6.5300    5.6257   -4.4283 H   0  0  0  0  0  0  0  0  0  0  0  0
    7.3181    6.0997   -5.9407 H   0  0  0  0  0  0  0  0  0  0  0  0
    8.0808    7.4956   -3.9448 H   0  0  0  0  0  0  0  0  0  0  0  0
    9.4159    6.6456   -4.7568 H   0  0  0  0  0  0  0  0  0  0  0  0
    7.8410    9.3805   -0.4925 H   0  0  0  0  0  0  0  0  0  0  0  0
    6.4878    9.5562    1.4560 H   0  0  0  0  0  0  0  0  0  0  0  0
    6.2487   10.6707    3.6736 H   0  0  0  0  0  0  0  0  0  0  0  0
    9.4927    8.3227    5.2282 H   0  0  0  0  0  0  0  0  0  0  0  0
    9.7847    7.2318    3.0044 H   0  0  0  0  0  0  0  0  0  0  0  0
    8.7806    5.6602    1.4801 H   0  0  0  0  0  0  0  0  0  0  0  0
    9.6641    4.1331   -2.0540 H   0  0  0  0  0  0  0  0  0  0  0  0
   10.3077    4.5756   -3.6395 H   0  0  0  0  0  0  0  0  0  0  0  0
  1  2  1  0
  1 30  1  0
  1 31  1  0
  1 32  1  0
  2  3  1  0
  2 33  1  0
  2 34  1  0
  3  4  1  0
  4  5  1  0
  4 35  1  0
  4 36  1  0
  5  6  1  0
  5 37  1  0
  5 38  1  0
  6  7  1  0
  6 39  1  0
  6 40  1  0
  7  8  1  0
  7 41  1  0
  8  9  2  0
  8 10  1  0
 10 11  1  6
 10 12  1  0
 10 29  1  0
 12 13  1  0
 12 42  1  0
 12 43  1  0
 13 14  1  0
 13 44  1  0
 13 45  1  0
 14 15  1  0
 14 46  1  0
 14 47  1  0
 15 16  1  0
 15 29  1  0
 16 17  2  0
 16 28  1  0
 17 18  1  0
 18 19  2  0
 18 48  1  0
 19 20  1  0
 19 27  1  0
 20 21  2  0
 20 26  1  0
 21 22  1  0
 21 49  1  0
 22 23  2  0
 22 50  1  0
 23 24  1  0
 23 25  1  0
 25 26  2  0
 25 51  1  0
 26 52  1  0
 27 28  2  0
 27 53  1  0
 29 54  1  0
 29 55  1  0
M  END

