
     RDKit          3D

 51 51  0  0  0  0  0  0  0  0999 V2000
   11.0171   10.4410   -6.6421 O   0  0  0  0  0  0  0  0  0  0  0  0
   10.1619    9.6407   -6.4629 C   0  0  0  0  0  0  0  0  0  0  0  0
    8.6028   10.0877   -5.6693 Cl  0  0  0  0  0  0  0  0  0  0  0  0
   10.2135    8.1801   -6.9326 C   0  0  0  0  0  0  0  0  0  0  0  0
    9.3797    7.2834   -6.2921 O   0  0  0  0  0  0  0  0  0  0  0  0
    9.7996    6.8906   -4.9913 C   0  0  0  0  0  0  0  0  0  0  0  0
    8.7858    5.9009   -4.4380 C   0  0  0  0  0  0  0  0  0  0  0  0
    9.1588    5.3017   -3.0758 C   0  0  0  0  0  0  0  0  0  0  0  0
    9.1642    6.3065   -1.9174 C   0  0  0  0  0  0  0  0  0  0  0  0
    9.4256    5.6950   -0.5232 C   0  0  0  0  0  0  0  0  0  0  0  0
   10.8092    5.0912   -0.3578 C   0  0  0  0  0  0  0  0  0  0  0  0
   11.8895    5.9827   -0.2266 C   0  0  0  0  0  0  0  0  0  0  0  0
   13.2036    5.5449   -0.0734 C   0  0  0  0  0  0  0  0  0  0  0  0
   13.4779    4.1749   -0.0312 C   0  0  0  0  0  0  0  0  0  0  0  0
   12.4279    3.2686   -0.1367 C   0  0  0  0  0  0  0  0  0  0  0  0
   11.0968    3.7026   -0.3082 C   0  0  0  0  0  0  0  0  0  0  0  0
   10.0251    2.6635   -0.4304 C   0  0  0  0  0  0  0  0  0  0  0  0
    8.9187    2.8226   -0.8977 O   0  0  0  0  0  0  0  0  0  0  0  0
   10.4250    1.4619    0.0449 O   0  0  0  0  0  0  0  0  0  0  0  0
    9.4857    0.3826   -0.0585 C   0  0  0  0  0  0  0  0  0  0  0  0
   10.0858   -0.8396    0.6157 C   0  0  0  0  0  0  0  0  0  0  0  0
   10.3151   -0.6585    2.1198 C   0  0  0  0  0  0  0  0  0  0  0  0
   10.9463   -1.8896    2.7498 C   0  0  0  0  0  0  0  0  0  0  0  0
   11.1029   -1.5948    4.1471 O   0  0  0  0  0  0  0  0  0  0  0  0
   11.6853   -2.6293    4.9054 N   0  0  0  0  0  0  0  0  0  0  0  0
   11.9892   -3.6388    4.3191 O   0  0  0  0  0  0  0  0  0  0  0  0
   11.8001   -2.3509    6.0632 O   0  0  0  0  0  0  0  0  0  0  0  0
   11.2833    7.8926   -6.8931 H   0  0  0  0  0  0  0  0  0  0  0  0
    9.9200    8.2134   -7.9974 H   0  0  0  0  0  0  0  0  0  0  0  0
    9.8840    7.7791   -4.3375 H   0  0  0  0  0  0  0  0  0  0  0  0
   10.8056    6.4255   -5.0494 H   0  0  0  0  0  0  0  0  0  0  0  0
    8.6733    5.0919   -5.1792 H   0  0  0  0  0  0  0  0  0  0  0  0
    7.8060    6.4063   -4.3803 H   0  0  0  0  0  0  0  0  0  0  0  0
   10.1486    4.8151   -3.1485 H   0  0  0  0  0  0  0  0  0  0  0  0
    8.4524    4.4917   -2.8381 H   0  0  0  0  0  0  0  0  0  0  0  0
    8.1862    6.8191   -1.8823 H   0  0  0  0  0  0  0  0  0  0  0  0
    9.9114    7.0985   -2.1037 H   0  0  0  0  0  0  0  0  0  0  0  0
    8.6492    4.9544   -0.3032 H   0  0  0  0  0  0  0  0  0  0  0  0
    9.3290    6.5048    0.2198 H   0  0  0  0  0  0  0  0  0  0  0  0
   11.6832    7.0568   -0.2390 H   0  0  0  0  0  0  0  0  0  0  0  0
   14.0132    6.2734    0.0211 H   0  0  0  0  0  0  0  0  0  0  0  0
   14.5026    3.8160    0.0905 H   0  0  0  0  0  0  0  0  0  0  0  0
   12.6267    2.1980   -0.0955 H   0  0  0  0  0  0  0  0  0  0  0  0
    9.2716    0.1904   -1.1224 H   0  0  0  0  0  0  0  0  0  0  0  0
    8.5362    0.6850    0.4125 H   0  0  0  0  0  0  0  0  0  0  0  0
   11.0363   -1.0927    0.1140 H   0  0  0  0  0  0  0  0  0  0  0  0
    9.4026   -1.6879    0.4350 H   0  0  0  0  0  0  0  0  0  0  0  0
    9.3573   -0.4469    2.6249 H   0  0  0  0  0  0  0  0  0  0  0  0
   10.9656    0.2125    2.2952 H   0  0  0  0  0  0  0  0  0  0  0  0
   11.9305   -2.1152    2.3077 H   0  0  0  0  0  0  0  0  0  0  0  0
   10.3123   -2.7837    2.6307 H   0  0  0  0  0  0  0  0  0  0  0  0
  1  2  2  0
  2  3  1  0
  2  4  1  0
  4  5  1  0
  4 28  1  0
  4 29  1  0
  5  6  1  0
  6  7  1  0
  6 30  1  0
  6 31  1  0
  7  8  1  0
  7 32  1  0
  7 33  1  0
  8  9  1  0
  8 34  1  0
  8 35  1  0
  9 10  1  0
  9 36  1  0
  9 37  1  0
 10 11  1  0
 10 38  1  0
 10 39  1  0
 11 12  2  0
 11 16  1  0
 12 13  1  0
 12 40  1  0
 13 14  2  0
 13 41  1  0
 14 15  1  0
 14 42  1  0
 15 16  2  0
 15 43  1  0
 16 17  1  0
 17 18  2  0
 17 19  1  0
 19 20  1  0
 20 21  1  0
 20 44  1  0
 20 45  1  0
 21 22  1  0
 21 46  1  0
 21 47  1  0
 22 23  1  0
 22 48  1  0
 22 49  1  0
 23 24  1  0
 23 50  1  0
 23 51  1  0
 24 25  1  0
 25 26  2  0
 25 27  1  0
M  CHG  2  25   1  27  -1
M  END

