
     RDKit          3D

 31 33  0  0  0  0  0  0  0  0999 V2000
    1.0666    0.1447    0.3771 N   0  0  0  0  0  0  0  0  0  0  0  0
    2.4924    0.0451    0.1470 C   0  0  1  0  0  0  0  0  0  0  0  0
    2.9531   -0.8869   -1.0270 C   0  0  0  0  0  0  0  0  0  0  0  0
    2.4293   -0.4847   -2.3854 C   0  0  0  0  0  0  0  0  0  0  0  0
    3.1671    0.3757   -3.2164 C   0  0  0  0  0  0  0  0  0  0  0  0
    2.6655    0.7813   -4.4559 C   0  0  0  0  0  0  0  0  0  0  0  0
    1.4130    0.3344   -4.8878 C   0  0  0  0  0  0  0  0  0  0  0  0
    0.6687   -0.5241   -4.0737 C   0  0  0  0  0  0  0  0  0  0  0  0
    1.1745   -0.9295   -2.8349 C   0  0  0  0  0  0  0  0  0  0  0  0
    3.0566    1.4253   -0.0322 C   0  0  0  0  0  0  0  0  0  0  0  0
    2.4402    2.5432   -0.2655 N   0  0  0  0  0  0  0  0  0  0  0  0
    3.4823    3.4360   -0.3959 C   0  0  0  0  0  0  0  0  0  0  0  0
    3.2242    4.8447   -0.6657 C   0  0  0  0  0  0  0  0  0  0  0  0
    4.0773    5.8398   -0.8445 N   0  0  0  0  0  0  0  0  0  0  0  0
    3.2598    6.9014   -1.0563 C   0  0  0  0  0  0  0  0  0  0  0  0
    1.9604    6.6259   -1.0197 N   0  0  0  0  0  0  0  0  0  0  0  0
    1.9532    5.3113   -0.7702 N   0  0  0  0  0  0  0  0  0  0  0  0
    1.0923    4.7812   -0.6789 H   0  0  0  0  0  0  0  0  0  0  0  0
    4.6737    2.9076   -0.2552 N   0  0  0  0  0  0  0  0  0  0  0  0
    4.3901    1.5676   -0.0143 O   0  0  0  0  0  0  0  0  0  0  0  0
    0.6581   -0.7804    0.4969 H   0  0  0  0  0  0  0  0  0  0  0  0
    0.5997    0.5935   -0.4108 H   0  0  0  0  0  0  0  0  0  0  0  0
    2.9620   -0.3633    1.0600 H   0  0  0  0  0  0  0  0  0  0  0  0
    2.6104   -1.9036   -0.7731 H   0  0  0  0  0  0  0  0  0  0  0  0
    4.0544   -0.9154   -1.0349 H   0  0  0  0  0  0  0  0  0  0  0  0
    4.1503    0.7276   -2.8909 H   0  0  0  0  0  0  0  0  0  0  0  0
    3.2583    1.4469   -5.0887 H   0  0  0  0  0  0  0  0  0  0  0  0
    1.0215    0.6486   -5.8586 H   0  0  0  0  0  0  0  0  0  0  0  0
   -0.3072   -0.8866   -4.4072 H   0  0  0  0  0  0  0  0  0  0  0  0
    0.5908   -1.6143   -2.2129 H   0  0  0  0  0  0  0  0  0  0  0  0
    3.6249    7.9106   -1.2435 H   0  0  0  0  0  0  0  0  0  0  0  0
  1  2  1  0
  1 21  1  0
  1 22  1  0
  2  3  1  0
  2 10  1  0
  2 23  1  1
  3  4  1  0
  3 24  1  0
  3 25  1  0
  4  5  2  0
  4  9  1  0
  5  6  1  0
  5 26  1  0
  6  7  2  0
  6 27  1  0
  7  8  1  0
  7 28  1  0
  8  9  2  0
  8 29  1  0
  9 30  1  0
 10 11  2  0
 10 20  1  0
 11 12  1  0
 12 13  1  0
 12 19  2  0
 13 14  2  0
 13 17  1  0
 14 15  1  0
 15 16  2  0
 15 31  1  0
 16 17  1  0
 17 18  1  0
 19 20  1  0
M  END

