
     RDKit          3D

 58 60  0  0  0  0  0  0  0  0999 V2000
    1.0460   -1.0711   -0.6180 C   0  0  0  0  0  0  0  0  0  0  0  0
    2.3707   -0.2900   -0.4216 C   0  0  1  0  0  0  0  0  0  0  0  0
    2.0433    1.2117   -0.5324 C   0  0  0  0  0  0  0  0  0  0  0  0
    2.9614   -0.6471    0.9539 C   0  0  0  0  0  0  0  0  0  0  0  0
    3.1567    0.2997    1.9766 C   0  0  0  0  0  0  0  0  0  0  0  0
    3.6553   -0.0338    3.2317 C   0  0  0  0  0  0  0  0  0  0  0  0
    3.9976   -1.3650    3.5419 C   0  0  0  0  0  0  0  0  0  0  0  0
    4.4977   -1.6390    4.8089 N   0  0  0  0  0  0  0  0  0  0  0  0
    4.8729   -2.8259    5.3768 C   0  0  0  0  0  0  0  0  0  0  0  0
    4.7781   -4.0262    4.8086 N   0  0  0  0  0  0  0  0  0  0  0  0
    5.2405   -4.9078    5.7372 N   0  0  0  0  0  0  0  0  0  0  0  0
    5.3609   -6.3200    5.3507 C   0  0  1  0  0  0  0  0  0  0  0  0
    5.7167   -7.2382    6.5292 C   0  0  0  0  0  0  0  0  0  0  0  0
    4.5690   -7.4460    7.5313 C   0  0  0  0  0  0  0  0  0  0  0  0
    3.2792   -7.8989    6.8342 C   0  0  0  0  0  0  0  0  0  0  0  0
    2.8938   -6.9469    5.6968 C   0  0  0  0  0  0  0  0  0  0  0  0
    4.0371   -6.7816    4.6693 C   0  0  2  0  0  0  0  0  0  0  0  0
    4.2763   -8.0248    3.9244 C   0  0  0  0  0  0  0  0  0  0  0  0
    4.4662   -9.0176    3.3572 N   0  0  0  0  0  0  0  0  0  0  0  0
    5.6427   -4.2895    6.8678 C   0  0  0  0  0  0  0  0  0  0  0  0
    5.4260   -2.9251    6.7016 C   0  0  0  0  0  0  0  0  0  0  0  0
    5.6543   -1.7774    7.5958 C   0  0  0  0  0  0  0  0  0  0  0  0
    6.2362   -2.0210    8.8063 N   0  0  0  0  0  0  0  0  0  0  0  0
    5.3196   -0.6379    7.2685 O   0  0  0  0  0  0  0  0  0  0  0  0
    3.8185   -2.3382    2.5448 C   0  0  0  0  0  0  0  0  0  0  0  0
    3.3143   -1.9580    1.3068 C   0  0  0  0  0  0  0  0  0  0  0  0
    3.1729   -2.9541    0.3968 F   0  0  0  0  0  0  0  0  0  0  0  0
    3.3352   -0.7255   -1.5853 C   0  0  1  0  0  0  0  0  0  0  0  0
    2.7496   -0.5965   -2.8600 O   0  0  0  0  0  0  0  0  0  0  0  0
    4.7047   -0.0302   -1.6348 C   0  0  1  0  0  0  0  0  0  0  0  0
    5.3213    0.0366   -0.4487 F   0  0  0  0  0  0  0  0  0  0  0  0
    5.5249   -0.6715   -2.4792 F   0  0  0  0  0  0  0  0  0  0  0  0
    4.5854    1.2402   -2.0988 F   0  0  0  0  0  0  0  0  0  0  0  0
    0.3295   -0.7879    0.1681 H   0  0  0  0  0  0  0  0  0  0  0  0
    1.2044   -2.1561   -0.5632 H   0  0  0  0  0  0  0  0  0  0  0  0
    0.6062   -0.8411   -1.5985 H   0  0  0  0  0  0  0  0  0  0  0  0
    1.2735    1.4940    0.2010 H   0  0  0  0  0  0  0  0  0  0  0  0
    1.6267    1.4353   -1.5269 H   0  0  0  0  0  0  0  0  0  0  0  0
    2.9172    1.8596   -0.3797 H   0  0  0  0  0  0  0  0  0  0  0  0
    2.9149    1.3460    1.7915 H   0  0  0  0  0  0  0  0  0  0  0  0
    3.7859    0.7460    3.9863 H   0  0  0  0  0  0  0  0  0  0  0  0
    4.6321   -0.8568    5.4539 H   0  0  0  0  0  0  0  0  0  0  0  0
    6.1652   -6.3714    4.5977 H   0  0  0  0  0  0  0  0  0  0  0  0
    6.6296   -6.8783    7.0307 H   0  0  0  0  0  0  0  0  0  0  0  0
    5.9892   -8.2108    6.0875 H   0  0  0  0  0  0  0  0  0  0  0  0
    4.3695   -6.5123    8.0849 H   0  0  0  0  0  0  0  0  0  0  0  0
    4.8777   -8.1896    8.2840 H   0  0  0  0  0  0  0  0  0  0  0  0
    2.4560   -7.9631    7.5640 H   0  0  0  0  0  0  0  0  0  0  0  0
    3.4158   -8.9168    6.4283 H   0  0  0  0  0  0  0  0  0  0  0  0
    2.6636   -5.9458    6.0975 H   0  0  0  0  0  0  0  0  0  0  0  0
    1.9870   -7.2971    5.1799 H   0  0  0  0  0  0  0  0  0  0  0  0
    3.7622   -6.0092    3.9352 H   0  0  0  0  0  0  0  0  0  0  0  0
    6.0443   -4.8433    7.7114 H   0  0  0  0  0  0  0  0  0  0  0  0
    6.6537   -2.9100    9.0418 H   0  0  0  0  0  0  0  0  0  0  0  0
    6.4499   -1.2189    9.3873 H   0  0  0  0  0  0  0  0  0  0  0  0
    4.0694   -3.3811    2.7183 H   0  0  0  0  0  0  0  0  0  0  0  0
    3.5538   -1.7939   -1.4595 H   0  0  0  0  0  0  0  0  0  0  0  0
    2.6941    0.3446   -3.0770 H   0  0  0  0  0  0  0  0  0  0  0  0
  2  1  1  6
  1 34  1  0
  1 35  1  0
  1 36  1  0
  2  3  1  0
  2  4  1  0
  2 28  1  0
  3 37  1  0
  3 38  1  0
  3 39  1  0
  4  5  2  0
  4 26  1  0
  5  6  1  0
  5 40  1  0
  6  7  2  0
  6 41  1  0
  7  8  1  0
  7 25  1  0
  8  9  1  0
  8 42  1  0
  9 10  2  0
  9 21  1  0
 10 11  1  0
 11 12  1  0
 11 20  1  0
 12 13  1  0
 12 17  1  0
 12 43  1  6
 13 14  1  0
 13 44  1  0
 13 45  1  0
 14 15  1  0
 14 46  1  0
 14 47  1  0
 15 16  1  0
 15 48  1  0
 15 49  1  0
 16 17  1  0
 16 50  1  0
 16 51  1  0
 17 18  1  0
 17 52  1  6
 18 19  3  0
 20 21  2  0
 20 53  1  0
 21 22  1  0
 22 23  1  0
 22 24  2  0
 23 54  1  0
 23 55  1  0
 25 26  2  0
 25 56  1  0
 26 27  1  0
 28 29  1  0
 28 30  1  0
 28 57  1  1
 29 58  1  0
 30 31  1  1
 30 32  1  0
 30 33  1  0
M  END

