
     RDKit          3D

 44 47  0  0  0  0  0  0  0  0999 V2000
    5.7758    2.5291   -3.2973 N   0  0  0  0  0  0  0  0  0  0  0  0
    5.3888    1.6493   -2.6456 C   0  0  0  0  0  0  0  0  0  0  0  0
    4.9124    0.5583   -1.8399 C   0  0  0  0  0  0  0  0  0  0  0  0
    3.6658    0.6430   -1.1946 C   0  0  0  0  0  0  0  0  0  0  0  0
    3.2383   -0.4360   -0.4221 C   0  0  0  0  0  0  0  0  0  0  0  0
    4.0143   -1.5879   -0.2764 C   0  0  0  0  0  0  0  0  0  0  0  0
    5.2633   -1.6775   -0.9230 C   0  0  0  0  0  0  0  0  0  0  0  0
    6.1061   -2.7965   -0.8493 N   0  0  0  0  0  0  0  0  0  0  0  0
    5.9309   -3.9490   -0.0881 C   0  0  0  0  0  0  0  0  0  0  0  0
    5.0181   -4.0795    0.7122 O   0  0  0  0  0  0  0  0  0  0  0  0
    6.8688   -4.9452   -0.3036 N   0  0  0  0  0  0  0  0  0  0  0  0
    6.9304   -6.0527    0.6451 C   0  0  0  0  0  0  0  0  0  0  0  0
    7.0371   -7.3974   -0.0701 C   0  0  0  0  0  0  0  0  0  0  0  0
    8.1609   -7.3901   -0.9942 N   0  0  0  0  0  0  0  0  0  0  0  0
    8.6755   -8.6285   -1.4499 C   0  0  0  0  0  0  0  0  0  0  0  0
    7.9853   -9.8396   -1.2684 C   0  0  0  0  0  0  0  0  0  0  0  0
    8.5252  -11.0762   -1.6829 C   0  0  0  0  0  0  0  0  0  0  0  0
    9.7585  -11.0602   -2.3001 C   0  0  0  0  0  0  0  0  0  0  0  0
   10.4499   -9.8603   -2.4951 C   0  0  0  0  0  0  0  0  0  0  0  0
    9.9511   -8.6435   -2.0796 C   0  0  0  0  0  0  0  0  0  0  0  0
   11.6304  -10.1196   -3.1336 O   0  0  0  0  0  0  0  0  0  0  0  0
   11.7547  -11.5406   -3.1663 C   0  0  0  0  0  0  0  0  0  0  0  0
   10.4897  -12.0939   -2.8274 O   0  0  0  0  0  0  0  0  0  0  0  0
    8.0419   -6.3148   -1.9713 C   0  0  0  0  0  0  0  0  0  0  0  0
    7.9399   -4.9474   -1.2884 C   0  0  0  0  0  0  0  0  0  0  0  0
    5.7015   -0.5942   -1.7036 C   0  0  0  0  0  0  0  0  0  0  0  0
    3.0543    1.5400   -1.3020 H   0  0  0  0  0  0  0  0  0  0  0  0
    2.2729   -0.3843    0.0871 H   0  0  0  0  0  0  0  0  0  0  0  0
    3.6774   -2.4192    0.3376 H   0  0  0  0  0  0  0  0  0  0  0  0
    6.9814   -2.6930   -1.3438 H   0  0  0  0  0  0  0  0  0  0  0  0
    6.0272   -6.0138    1.2650 H   0  0  0  0  0  0  0  0  0  0  0  0
    7.8138   -5.9266    1.3005 H   0  0  0  0  0  0  0  0  0  0  0  0
    6.0762   -7.6155   -0.5863 H   0  0  0  0  0  0  0  0  0  0  0  0
    7.1964   -8.1815    0.6842 H   0  0  0  0  0  0  0  0  0  0  0  0
    6.9994   -9.8419   -0.8050 H   0  0  0  0  0  0  0  0  0  0  0  0
    7.9778  -12.0084   -1.5345 H   0  0  0  0  0  0  0  0  0  0  0  0
   10.5363   -7.7326   -2.2069 H   0  0  0  0  0  0  0  0  0  0  0  0
   12.5168  -11.8612   -2.4273 H   0  0  0  0  0  0  0  0  0  0  0  0
   12.0446  -11.8639   -4.1790 H   0  0  0  0  0  0  0  0  0  0  0  0
    7.1416   -6.4593   -2.6094 H   0  0  0  0  0  0  0  0  0  0  0  0
    8.9154   -6.3120   -2.6365 H   0  0  0  0  0  0  0  0  0  0  0  0
    7.7462   -4.2055   -2.0751 H   0  0  0  0  0  0  0  0  0  0  0  0
    8.9099   -4.7041   -0.8110 H   0  0  0  0  0  0  0  0  0  0  0  0
    6.6661   -0.6403   -2.2155 H   0  0  0  0  0  0  0  0  0  0  0  0
  1  2  3  0
  2  3  1  0
  3  4  2  0
  3 26  1  0
  4  5  1  0
  4 27  1  0
  5  6  2  0
  5 28  1  0
  6  7  1  0
  6 29  1  0
  7  8  1  0
  7 26  2  0
  8  9  1  0
  8 30  1  0
  9 10  2  0
  9 11  1  0
 11 12  1  0
 11 25  1  0
 12 13  1  0
 12 31  1  0
 12 32  1  0
 13 14  1  0
 13 33  1  0
 13 34  1  0
 14 15  1  0
 14 24  1  0
 15 16  2  0
 15 20  1  0
 16 17  1  0
 16 35  1  0
 17 18  2  0
 17 36  1  0
 18 19  1  0
 18 23  1  0
 19 20  2  0
 19 21  1  0
 20 37  1  0
 21 22  1  0
 22 23  1  0
 22 38  1  0
 22 39  1  0
 24 25  1  0
 24 40  1  0
 24 41  1  0
 25 42  1  0
 25 43  1  0
 26 44  1  0
M  END

