
     RDKit          3D

109114  0  0  0  0  0  0  0  0999 V2000
    8.0857    0.3956   -0.1858 C   0  0  0  0  0  0  0  0  0  0  0  0
    7.4869    0.8493    1.1483 C   0  0  0  0  0  0  0  0  0  0  0  0
    5.9512    0.9388    1.1580 C   0  0  0  0  0  0  0  0  0  0  0  0
    5.2002   -0.4005    1.0910 C   0  0  0  0  0  0  0  0  0  0  0  0
    5.1676   -1.2223    2.3532 C   0  0  0  0  0  0  0  0  0  0  0  0
    5.6712   -0.8854    3.5706 C   0  0  0  0  0  0  0  0  0  0  0  0
    5.3185   -1.8920    4.5676 C   0  0  0  0  0  0  0  0  0  0  0  0
    5.5893   -1.9687    5.9525 C   0  0  0  0  0  0  0  0  0  0  0  0
    6.3741   -0.9332    6.6789 C   0  0  0  0  0  0  0  0  0  0  0  0
    6.0882    0.4377    6.5542 C   0  0  0  0  0  0  0  0  0  0  0  0
    6.8194    1.3942    7.2628 C   0  0  0  0  0  0  0  0  0  0  0  0
    7.8640    1.0297    8.1252 C   0  0  0  0  0  0  0  0  0  0  0  0
    8.6453    2.0814    8.9029 C   0  0  1  0  0  0  0  0  0  0  0  0
    8.4173    1.9452   10.4188 C   0  0  0  0  0  0  0  0  0  0  0  0
   10.1533    2.0805    8.5685 C   0  0  0  0  0  0  0  0  0  0  0  0
   10.4807    2.3725    7.1041 C   0  0  0  0  0  0  0  0  0  0  0  0
    8.1457   -0.3410    8.2535 C   0  0  0  0  0  0  0  0  0  0  0  0
    7.4183   -1.3004    7.5488 C   0  0  0  0  0  0  0  0  0  0  0  0
    5.0746   -3.0788    6.6479 C   0  0  0  0  0  0  0  0  0  0  0  0
    4.3055   -4.0565    6.0090 C   0  0  0  0  0  0  0  0  0  0  0  0
    4.0445   -3.9752    4.6356 C   0  0  0  0  0  0  0  0  0  0  0  0
    4.5663   -2.9015    3.9144 C   0  0  0  0  0  0  0  0  0  0  0  0
    4.4808   -2.5739    2.4417 C   0  0  2  0  0  0  0  0  0  0  0  0
    5.3627   -3.9331    1.3533 Si  0  0  1  0  0  4  0  0  0  0  0  0
    7.2216   -3.6789    1.5520 C   0  0  0  0  0  0  0  0  0  0  0  0
    4.9317   -5.6874    1.8971 C   0  0  0  0  0  0  0  0  0  0  0  0
    4.7777   -3.7575   -0.5018 C   0  0  2  0  0  0  0  0  0  0  0  0
    3.4237   -4.4041   -0.7267 C   0  0  0  0  0  0  0  0  0  0  0  0
    2.1308   -3.9403   -0.1135 C   0  0  0  0  0  0  0  0  0  0  0  0
    1.6777   -2.5276   -0.5364 C   0  0  0  0  0  0  0  0  0  0  0  0
    1.3611   -2.3852   -2.0280 C   0  0  0  0  0  0  0  0  0  0  0  0
    0.8979   -0.9807   -2.4175 C   0  0  0  0  0  0  0  0  0  0  0  0
    3.5580   -5.4674   -1.5633 C   0  0  0  0  0  0  0  0  0  0  0  0
    4.9347   -5.5813   -2.0332 C   0  0  0  0  0  0  0  0  0  0  0  0
    5.5484   -6.4927   -2.9221 C   0  0  0  0  0  0  0  0  0  0  0  0
    4.8055   -7.6066   -3.5725 C   0  0  0  0  0  0  0  0  0  0  0  0
    3.5784   -7.3976   -4.2259 C   0  0  0  0  0  0  0  0  0  0  0  0
    2.9064   -8.4503   -4.8520 C   0  0  0  0  0  0  0  0  0  0  0  0
    3.4248   -9.7537   -4.8559 C   0  0  0  0  0  0  0  0  0  0  0  0
    2.6882  -10.8910   -5.5526 C   0  0  1  0  0  0  0  0  0  0  0  0
    3.4915  -11.4340   -6.7476 C   0  0  0  0  0  0  0  0  0  0  0  0
    2.2927  -12.0313   -4.5885 C   0  0  0  0  0  0  0  0  0  0  0  0
    1.3553  -11.6114   -3.4563 C   0  0  0  0  0  0  0  0  0  0  0  0
    4.6538   -9.9609   -4.2070 C   0  0  0  0  0  0  0  0  0  0  0  0
    5.3297   -8.9132   -3.5812 C   0  0  0  0  0  0  0  0  0  0  0  0
    6.9176   -6.3075   -3.1891 C   0  0  0  0  0  0  0  0  0  0  0  0
    7.6430   -5.2542   -2.6228 C   0  0  0  0  0  0  0  0  0  0  0  0
    7.0291   -4.3573   -1.7400 C   0  0  0  0  0  0  0  0  0  0  0  0
    5.6796   -4.5328   -1.4337 C   0  0  0  0  0  0  0  0  0  0  0  0
    9.1865    0.3818   -0.1440 H   0  0  0  0  0  0  0  0  0  0  0  0
    7.7927    1.0712   -1.0071 H   0  0  0  0  0  0  0  0  0  0  0  0
    7.7606   -0.6201   -0.4655 H   0  0  0  0  0  0  0  0  0  0  0  0
    7.8929    1.8450    1.3980 H   0  0  0  0  0  0  0  0  0  0  0  0
    7.8284    0.1760    1.9526 H   0  0  0  0  0  0  0  0  0  0  0  0
    5.6341    1.5548    0.2979 H   0  0  0  0  0  0  0  0  0  0  0  0
    5.6198    1.4890    2.0548 H   0  0  0  0  0  0  0  0  0  0  0  0
    5.6090   -1.0031    0.2605 H   0  0  0  0  0  0  0  0  0  0  0  0
    4.1521   -0.2041    0.7942 H   0  0  0  0  0  0  0  0  0  0  0  0
    6.2409    0.0156    3.7904 H   0  0  0  0  0  0  0  0  0  0  0  0
    5.2640    0.7593    5.9136 H   0  0  0  0  0  0  0  0  0  0  0  0
    6.5651    2.4524    7.1490 H   0  0  0  0  0  0  0  0  0  0  0  0
    8.2470    3.0656    8.5967 H   0  0  0  0  0  0  0  0  0  0  0  0
    8.8115    0.9885   10.7993 H   0  0  0  0  0  0  0  0  0  0  0  0
    7.3452    1.9852   10.6668 H   0  0  0  0  0  0  0  0  0  0  0  0
    8.9255    2.7557   10.9666 H   0  0  0  0  0  0  0  0  0  0  0  0
   10.5891    1.1081    8.8609 H   0  0  0  0  0  0  0  0  0  0  0  0
   10.6457    2.8320    9.2112 H   0  0  0  0  0  0  0  0  0  0  0  0
   10.0437    1.6165    6.4327 H   0  0  0  0  0  0  0  0  0  0  0  0
   11.5693    2.3819    6.9344 H   0  0  0  0  0  0  0  0  0  0  0  0
   10.0882    3.3561    6.7949 H   0  0  0  0  0  0  0  0  0  0  0  0
    8.9531   -0.6718    8.9128 H   0  0  0  0  0  0  0  0  0  0  0  0
    7.6733   -2.3574    7.6598 H   0  0  0  0  0  0  0  0  0  0  0  0
    5.2538   -3.1563    7.7232 H   0  0  0  0  0  0  0  0  0  0  0  0
    3.8976   -4.8867    6.5912 H   0  0  0  0  0  0  0  0  0  0  0  0
    3.4367   -4.7402    4.1484 H   0  0  0  0  0  0  0  0  0  0  0  0
    3.4336   -2.5223    2.0949 H   0  0  0  0  0  0  0  0  0  0  0  0
    7.4569   -3.6369    2.6283 H   0  0  0  0  0  0  0  0  0  0  0  0
    7.5808   -2.7422    1.0997 H   0  0  0  0  0  0  0  0  0  0  0  0
    7.7853   -4.5148    1.1108 H   0  0  0  0  0  0  0  0  0  0  0  0
    5.3784   -5.9207    2.8754 H   0  0  0  0  0  0  0  0  0  0  0  0
    5.3400   -6.3944    1.1562 H   0  0  0  0  0  0  0  0  0  0  0  0
    3.8475   -5.8660    1.9591 H   0  0  0  0  0  0  0  0  0  0  0  0
    4.7751   -2.6792   -0.7358 H   0  0  0  0  0  0  0  0  0  0  0  0
    2.2008   -3.9653    0.9891 H   0  0  0  0  0  0  0  0  0  0  0  0
    1.3406   -4.6631   -0.3778 H   0  0  0  0  0  0  0  0  0  0  0  0
    2.4512   -1.7898   -0.2553 H   0  0  0  0  0  0  0  0  0  0  0  0
    0.7825   -2.2588    0.0526 H   0  0  0  0  0  0  0  0  0  0  0  0
    0.5825   -3.1208   -2.3014 H   0  0  0  0  0  0  0  0  0  0  0  0
    2.2510   -2.6605   -2.6202 H   0  0  0  0  0  0  0  0  0  0  0  0
   -0.0142   -0.6899   -1.8694 H   0  0  0  0  0  0  0  0  0  0  0  0
    0.6740   -0.9132   -3.4941 H   0  0  0  0  0  0  0  0  0  0  0  0
    1.6706   -0.2262   -2.1922 H   0  0  0  0  0  0  0  0  0  0  0  0
    2.7450   -6.1337   -1.8526 H   0  0  0  0  0  0  0  0  0  0  0  0
    3.1555   -6.3914   -4.2676 H   0  0  0  0  0  0  0  0  0  0  0  0
    1.9573   -8.2512   -5.3589 H   0  0  0  0  0  0  0  0  0  0  0  0
    1.7499  -10.4655   -5.9520 H   0  0  0  0  0  0  0  0  0  0  0  0
    4.4371  -11.8956   -6.4189 H   0  0  0  0  0  0  0  0  0  0  0  0
    3.7427  -10.6312   -7.4581 H   0  0  0  0  0  0  0  0  0  0  0  0
    2.9170  -12.2030   -7.2898 H   0  0  0  0  0  0  0  0  0  0  0  0
    3.2084  -12.4829   -4.1658 H   0  0  0  0  0  0  0  0  0  0  0  0
    1.8146  -12.8302   -5.1830 H   0  0  0  0  0  0  0  0  0  0  0  0
    1.8156  -10.8460   -2.8116 H   0  0  0  0  0  0  0  0  0  0  0  0
    1.0913  -12.4709   -2.8195 H   0  0  0  0  0  0  0  0  0  0  0  0
    0.4153  -11.1898   -3.8509 H   0  0  0  0  0  0  0  0  0  0  0  0
    5.0949  -10.9613   -4.1822 H   0  0  0  0  0  0  0  0  0  0  0  0
    6.2763   -9.1117   -3.0722 H   0  0  0  0  0  0  0  0  0  0  0  0
    7.4152   -6.9866   -3.8859 H   0  0  0  0  0  0  0  0  0  0  0  0
    8.6976   -5.1269   -2.8801 H   0  0  0  0  0  0  0  0  0  0  0  0
    7.6033   -3.5349   -1.3083 H   0  0  0  0  0  0  0  0  0  0  0  0
  1  2  1  0
  1 50  1  0
  1 51  1  0
  1 52  1  0
  2  3  1  0
  2 53  1  0
  2 54  1  0
  3  4  1  0
  3 55  1  0
  3 56  1  0
  4  5  1  0
  4 57  1  0
  4 58  1  0
  5  6  2  0
  5 23  1  0
  6  7  1  0
  6 59  1  0
  7  8  2  0
  7 22  1  0
  8  9  1  0
  8 19  1  0
  9 10  2  0
  9 18  1  0
 10 11  1  0
 10 60  1  0
 11 12  2  0
 11 61  1  0
 12 13  1  0
 12 17  1  0
 13 14  1  0
 13 15  1  0
 13 62  1  6
 14 63  1  0
 14 64  1  0
 14 65  1  0
 15 16  1  0
 15 66  1  0
 15 67  1  0
 16 68  1  0
 16 69  1  0
 16 70  1  0
 17 18  2  0
 17 71  1  0
 18 72  1  0
 19 20  2  0
 19 73  1  0
 20 21  1  0
 20 74  1  0
 21 22  2  0
 21 75  1  0
 22 23  1  0
 23 24  1  0
 23 76  1  6
 24 25  1  6
 24 26  1  0
 24 27  1  0
 25 77  1  0
 25 78  1  0
 25 79  1  0
 26 80  1  0
 26 81  1  0
 26 82  1  0
 27 28  1  0
 27 49  1  0
 27 83  1  6
 28 29  1  0
 28 33  2  0
 29 30  1  0
 29 84  1  0
 29 85  1  0
 30 31  1  0
 30 86  1  0
 30 87  1  0
 31 32  1  0
 31 88  1  0
 31 89  1  0
 32 90  1  0
 32 91  1  0
 32 92  1  0
 33 34  1  0
 33 93  1  0
 34 35  1  0
 34 49  2  0
 35 36  1  0
 35 46  2  0
 36 37  2  0
 36 45  1  0
 37 38  1  0
 37 94  1  0
 38 39  2  0
 38 95  1  0
 39 40  1  0
 39 44  1  0
 40 41  1  0
 40 42  1  0
 40 96  1  6
 41 97  1  0
 41 98  1  0
 41 99  1  0
 42 43  1  0
 42100  1  0
 42101  1  0
 43102  1  0
 43103  1  0
 43104  1  0
 44 45  2  0
 44105  1  0
 45106  1  0
 46 47  1  0
 46107  1  0
 47 48  2  0
 47108  1  0
 48 49  1  0
 48109  1  0
M  END

