
     RDKit          3D

 21 21  0  0  0  0  0  0  0  0999 V2000
    2.8183    0.5816   -2.7004 C   0  0  0  0  0  0  0  0  0  0  0  0
    3.6389    0.6038   -1.6309 C   0  0  0  0  0  0  0  0  0  0  0  0
    3.2149    0.2434   -0.3492 N   0  0  0  0  0  0  0  0  0  0  0  0
    3.6185   -0.8157    0.2522 C   0  0  0  0  0  0  0  0  0  0  0  0
    4.4794   -1.7794   -0.1944 N   0  0  0  0  0  0  0  0  0  0  0  0
    5.6445   -1.4988   -0.6784 C   0  0  0  0  0  0  0  0  0  0  0  0
    6.3767   -2.4688   -1.2433 O   0  0  0  0  0  0  0  0  0  0  0  0
    5.7878   -3.7593   -1.3528 C   0  0  0  0  0  0  0  0  0  0  0  0
    6.3575   -0.3396   -0.5607 N   0  0  0  0  0  0  0  0  0  0  0  0
    6.0694    0.8144   -1.0606 C   0  0  0  0  0  0  0  0  0  0  0  0
    7.0129    1.8136   -1.0005 N   0  0  0  0  0  0  0  0  0  0  0  0
    4.9296    1.1819   -1.7431 N   0  0  0  0  0  0  0  0  0  0  0  0
    1.7794    0.2764   -2.5798 H   0  0  0  0  0  0  0  0  0  0  0  0
    3.1729    0.8693   -3.6916 H   0  0  0  0  0  0  0  0  0  0  0  0
    3.1621   -1.0278    1.2327 H   0  0  0  0  0  0  0  0  0  0  0  0
    4.8727   -3.7278   -1.9643 H   0  0  0  0  0  0  0  0  0  0  0  0
    5.5237   -4.1558   -0.3604 H   0  0  0  0  0  0  0  0  0  0  0  0
    6.5434   -4.3956   -1.8319 H   0  0  0  0  0  0  0  0  0  0  0  0
    6.6848    2.7633   -0.8644 H   0  0  0  0  0  0  0  0  0  0  0  0
    7.8558    1.5630   -0.4959 H   0  0  0  0  0  0  0  0  0  0  0  0
    5.0441    1.9013   -2.4482 H   0  0  0  0  0  0  0  0  0  0  0  0
  1  2  2  0
  1 13  1  0
  1 14  1  0
  2  3  1  0
  2 12  1  0
  3  4  2  0
  4  5  1  0
  4 15  1  0
  5  6  2  0
  6  7  1  0
  6  9  1  0
  7  8  1  0
  8 16  1  0
  8 17  1  0
  8 18  1  0
  9 10  2  0
 10 11  1  0
 10 12  1  0
 11 19  1  0
 11 20  1  0
 12 21  1  0
M  END

