
     RDKit          3D

 20 20  0  0  0  0  0  0  0  0999 V2000
    0.8600   -0.0034   -1.6945 C   0  0  0  0  0  0  0  0  0  0  0  0
    2.2935   -0.1941   -2.1751 C   0  0  0  0  0  0  0  0  0  0  0  0
    2.5609   -0.4912   -3.3254 O   0  0  0  0  0  0  0  0  0  0  0  0
    3.2367   -0.0023   -1.1900 N   0  0  0  0  0  0  0  0  0  0  0  0
    4.6431   -0.1000   -1.2719 C   0  0  0  0  0  0  0  0  0  0  0  0
    5.3303   -0.4229   -2.4537 C   0  0  0  0  0  0  0  0  0  0  0  0
    6.7252   -0.4988   -2.4504 C   0  0  0  0  0  0  0  0  0  0  0  0
    7.4629   -0.2583   -1.2849 C   0  0  0  0  0  0  0  0  0  0  0  0
    8.8213   -0.3220   -1.2393 O   0  0  0  0  0  0  0  0  0  0  0  0
    6.7791    0.0640   -0.1045 C   0  0  0  0  0  0  0  0  0  0  0  0
    5.3894    0.1405   -0.1035 C   0  0  0  0  0  0  0  0  0  0  0  0
    0.1867   -0.1498   -2.5472 H   0  0  0  0  0  0  0  0  0  0  0  0
    0.7082    1.0077   -1.2825 H   0  0  0  0  0  0  0  0  0  0  0  0
    0.6069   -0.7315   -0.9063 H   0  0  0  0  0  0  0  0  0  0  0  0
    2.8814    0.2422   -0.2733 H   0  0  0  0  0  0  0  0  0  0  0  0
    4.7647   -0.6112   -3.3631 H   0  0  0  0  0  0  0  0  0  0  0  0
    7.2468   -0.7517   -3.3794 H   0  0  0  0  0  0  0  0  0  0  0  0
    9.1604   -0.5532   -2.1139 H   0  0  0  0  0  0  0  0  0  0  0  0
    7.3531    0.2517    0.8050 H   0  0  0  0  0  0  0  0  0  0  0  0
    4.8714    0.3933    0.8271 H   0  0  0  0  0  0  0  0  0  0  0  0
  1  2  1  0
  1 12  1  0
  1 13  1  0
  1 14  1  0
  2  3  2  0
  2  4  1  0
  4  5  1  0
  4 15  1  0
  5  6  2  0
  5 11  1  0
  6  7  1  0
  6 16  1  0
  7  8  2  0
  7 17  1  0
  8  9  1  0
  8 10  1  0
  9 18  1  0
 10 11  2  0
 10 19  1  0
 11 20  1  0
M  END

