
     RDKit          3D

 34 36  0  0  0  0  0  0  0  0999 V2000
    0.9282   -0.2513   -0.0897 C   0  0  0  0  0  0  0  0  0  0  0  0
    2.4082   -0.0217   -0.0496 C   0  0  0  0  0  0  0  0  0  0  0  0
    3.1144    1.2085   -0.1480 C   0  0  0  0  0  0  0  0  0  0  0  0
    4.4515    0.8611   -0.0465 C   0  0  0  0  0  0  0  0  0  0  0  0
    5.7038    1.6961   -0.0958 C   0  0  0  0  0  0  0  0  0  0  0  0
    5.4461    3.1218   -0.1199 N   0  0  0  0  0  0  0  0  0  0  0  0
    5.3123    3.8951   -1.2559 C   0  0  0  0  0  0  0  0  0  0  0  0
    5.0299    5.1989   -0.9207 C   0  0  0  0  0  0  0  0  0  0  0  0
    4.9767    5.2552    0.5100 C   0  0  0  0  0  0  0  0  0  0  0  0
    4.7416    6.2827    1.4474 C   0  0  0  0  0  0  0  0  0  0  0  0
    4.7647    5.9877    2.8025 C   0  0  0  0  0  0  0  0  0  0  0  0
    5.0216    4.6670    3.2254 C   0  0  0  0  0  0  0  0  0  0  0  0
    5.0414    4.3755    4.6688 N   0  0  0  0  0  0  0  0  0  0  0  0
    4.8211    5.2981    5.4387 O   0  0  0  0  0  0  0  0  0  0  0  0
    5.2794    3.2266    5.0148 O   0  0  0  0  0  0  0  0  0  0  0  0
    5.2577    3.6167    2.3427 C   0  0  0  0  0  0  0  0  0  0  0  0
    5.2363    3.9309    0.9829 C   0  0  0  0  0  0  0  0  0  0  0  0
    4.4879   -0.4961    0.0990 N   0  0  0  0  0  0  0  0  0  0  0  0
    5.6490   -1.3464    0.2523 C   0  0  0  0  0  0  0  0  0  0  0  0
    3.2541   -1.0381    0.0976 N   0  0  0  0  0  0  0  0  0  0  0  0
    0.4162    0.2749    0.7327 H   0  0  0  0  0  0  0  0  0  0  0  0
    0.7163   -1.3256    0.0023 H   0  0  0  0  0  0  0  0  0  0  0  0
    0.4880    0.1106   -1.0335 H   0  0  0  0  0  0  0  0  0  0  0  0
    2.7068    2.2094   -0.2691 H   0  0  0  0  0  0  0  0  0  0  0  0
    6.3010    1.4470   -0.9902 H   0  0  0  0  0  0  0  0  0  0  0  0
    6.3532    1.4747    0.7684 H   0  0  0  0  0  0  0  0  0  0  0  0
    5.4346    3.4417   -2.2385 H   0  0  0  0  0  0  0  0  0  0  0  0
    4.8847    6.0216   -1.6172 H   0  0  0  0  0  0  0  0  0  0  0  0
    4.5426    7.3028    1.1108 H   0  0  0  0  0  0  0  0  0  0  0  0
    4.5875    6.7507    3.5592 H   0  0  0  0  0  0  0  0  0  0  0  0
    5.4372    2.6160    2.7327 H   0  0  0  0  0  0  0  0  0  0  0  0
    6.2167   -1.0947    1.1635 H   0  0  0  0  0  0  0  0  0  0  0  0
    6.3222   -1.2722   -0.6177 H   0  0  0  0  0  0  0  0  0  0  0  0
    5.2856   -2.3775    0.3343 H   0  0  0  0  0  0  0  0  0  0  0  0
  1  2  1  0
  1 21  1  0
  1 22  1  0
  1 23  1  0
  2  3  1  0
  2 20  2  0
  3  4  2  0
  3 24  1  0
  4  5  1  0
  4 18  1  0
  5  6  1  0
  5 25  1  0
  5 26  1  0
  6  7  1  0
  6 17  1  0
  7  8  2  0
  7 27  1  0
  8  9  1  0
  8 28  1  0
  9 10  1  0
  9 17  2  0
 10 11  2  0
 10 29  1  0
 11 12  1  0
 11 30  1  0
 12 13  1  0
 12 16  2  0
 13 14  2  0
 13 15  1  0
 16 17  1  0
 16 31  1  0
 18 19  1  0
 18 20  1  0
 19 32  1  0
 19 33  1  0
 19 34  1  0
M  CHG  2  13   1  15  -1
M  END

