
     RDKit          3D

 47 48  0  0  0  0  0  0  0  0999 V2000
    2.9571    1.6513   -3.2901 C   0  0  0  0  0  0  0  0  0  0  0  0
    2.2727    0.9218   -2.1306 C   0  0  0  0  0  0  0  0  0  0  0  0
    2.7158    1.2824   -0.6802 C   0  0  1  0  0  0  0  0  0  0  0  0
    2.3277    2.7532   -0.4049 C   0  0  0  0  0  0  0  0  0  0  0  0
    1.8864    0.3962    0.2715 C   0  0  0  0  0  0  0  0  0  0  0  0
    4.2766    1.1291   -0.5168 C   0  0  1  0  0  0  0  0  0  0  0  0
    4.8642    1.5071    0.8700 C   0  0  0  0  0  0  0  0  0  0  0  0
    4.9167    0.3689    1.9010 C   0  0  0  0  0  0  0  0  0  0  0  0
    5.6419   -0.8898    1.3827 C   0  0  2  0  0  0  0  0  0  0  0  0
    7.1640   -0.7002    1.2421 C   0  0  0  0  0  0  0  0  0  0  0  0
    7.7770   -0.3495    2.5225 N   0  0  0  0  0  0  0  0  0  0  0  0
    4.9302   -1.3229    0.0848 C   0  0  2  0  0  0  0  0  0  0  0  0
    5.6442   -2.8482   -0.6876 S   0  0  0  0  0  0  0  0  0  0  0  0
    4.8144   -4.1428    0.1947 C   0  0  0  0  0  0  0  0  0  0  0  0
    5.1576   -5.4834   -0.1141 C   0  0  0  0  0  0  0  0  0  0  0  0
    4.5701   -6.5073    0.4849 N   0  0  0  0  0  0  0  0  0  0  0  0
    3.6340   -6.2286    1.4038 C   0  0  0  0  0  0  0  0  0  0  0  0
    3.2968   -4.9115    1.7114 C   0  0  0  0  0  0  0  0  0  0  0  0
    3.8857   -3.8732    1.1084 N   0  0  0  0  0  0  0  0  0  0  0  0
    4.8893   -0.2199   -0.9876 C   0  0  0  0  0  0  0  0  0  0  0  0
    2.4930    1.3643   -4.2474 H   0  0  0  0  0  0  0  0  0  0  0  0
    4.0289    1.4096   -3.3677 H   0  0  0  0  0  0  0  0  0  0  0  0
    2.8690    2.7459   -3.2031 H   0  0  0  0  0  0  0  0  0  0  0  0
    2.3777   -0.1661   -2.2803 H   0  0  0  0  0  0  0  0  0  0  0  0
    1.1867    1.1128   -2.1894 H   0  0  0  0  0  0  0  0  0  0  0  0
    1.2666    2.9226   -0.6505 H   0  0  0  0  0  0  0  0  0  0  0  0
    2.9258    3.4602   -1.0013 H   0  0  0  0  0  0  0  0  0  0  0  0
    2.4587    3.0225    0.6539 H   0  0  0  0  0  0  0  0  0  0  0  0
    0.8105    0.5596    0.0936 H   0  0  0  0  0  0  0  0  0  0  0  0
    2.0776    0.6314    1.3287 H   0  0  0  0  0  0  0  0  0  0  0  0
    2.0785   -0.6765    0.1202 H   0  0  0  0  0  0  0  0  0  0  0  0
    4.6766    1.8817   -1.2158 H   0  0  0  0  0  0  0  0  0  0  0  0
    4.3268    2.3674    1.2963 H   0  0  0  0  0  0  0  0  0  0  0  0
    5.8941    1.8688    0.7012 H   0  0  0  0  0  0  0  0  0  0  0  0
    3.8992    0.0815    2.2075 H   0  0  0  0  0  0  0  0  0  0  0  0
    5.4120    0.7184    2.8220 H   0  0  0  0  0  0  0  0  0  0  0  0
    5.5012   -1.6870    2.1299 H   0  0  0  0  0  0  0  0  0  0  0  0
    7.3914    0.0235    0.4309 H   0  0  0  0  0  0  0  0  0  0  0  0
    7.5908   -1.6607    0.9142 H   0  0  0  0  0  0  0  0  0  0  0  0
    7.6556    0.6430    2.7238 H   0  0  0  0  0  0  0  0  0  0  0  0
    8.7842   -0.5019    2.4832 H   0  0  0  0  0  0  0  0  0  0  0  0
    3.9122   -1.6276    0.3579 H   0  0  0  0  0  0  0  0  0  0  0  0
    5.9263   -5.7002   -0.8653 H   0  0  0  0  0  0  0  0  0  0  0  0
    3.1461   -7.0710    1.9051 H   0  0  0  0  0  0  0  0  0  0  0  0
    2.5335   -4.6848    2.4643 H   0  0  0  0  0  0  0  0  0  0  0  0
    4.3623   -0.6016   -1.8727 H   0  0  0  0  0  0  0  0  0  0  0  0
    5.9206   -0.0161   -1.3234 H   0  0  0  0  0  0  0  0  0  0  0  0
  1  2  1  0
  1 21  1  0
  1 22  1  0
  1 23  1  0
  3  2  1  6
  2 24  1  0
  2 25  1  0
  3  4  1  0
  3  5  1  0
  3  6  1  0
  4 26  1  0
  4 27  1  0
  4 28  1  0
  5 29  1  0
  5 30  1  0
  5 31  1  0
  6  7  1  0
  6 20  1  0
  6 32  1  6
  7  8  1  0
  7 33  1  0
  7 34  1  0
  8  9  1  0
  8 35  1  0
  8 36  1  0
  9 10  1  0
  9 12  1  0
  9 37  1  1
 10 11  1  0
 10 38  1  0
 10 39  1  0
 11 40  1  0
 11 41  1  0
 12 13  1  0
 12 20  1  0
 12 42  1  1
 13 14  1  0
 14 15  2  0
 14 19  1  0
 15 16  1  0
 15 43  1  0
 16 17  2  0
 17 18  1  0
 17 44  1  0
 18 19  2  0
 18 45  1  0
 20 46  1  0
 20 47  1  0
M  END

