
     RDKit          3D

 27 29  0  0  0  0  0  0  0  0999 V2000
    1.1928    0.0161    0.1580 N   0  0  0  0  0  0  0  0  0  0  0  0
    2.5386    0.0274    0.1249 C   0  0  0  0  0  0  0  0  0  0  0  0
    3.1603    1.2172    0.0751 N   0  0  0  0  0  0  0  0  0  0  0  0
    4.4960    1.1733    0.0465 C   0  0  0  0  0  0  0  0  0  0  0  0
    5.2145    2.4727   -0.0051 C   0  0  0  0  0  0  0  0  0  0  0  0
    4.4672    3.6685   -0.0060 C   0  0  0  0  0  0  0  0  0  0  0  0
    5.0639    4.9227   -0.0510 C   0  0  0  0  0  0  0  0  0  0  0  0
    6.4607    5.0049   -0.0978 C   0  0  0  0  0  0  0  0  0  0  0  0
    7.2360    6.5647   -0.1544 Cl  0  0  0  0  0  0  0  0  0  0  0  0
    7.2424    3.8509   -0.0997 C   0  0  0  0  0  0  0  0  0  0  0  0
    6.6175    2.6043   -0.0539 C   0  0  0  0  0  0  0  0  0  0  0  0
    7.4226    1.5428   -0.0603 F   0  0  0  0  0  0  0  0  0  0  0  0
    5.2060    0.0387    0.0639 N   0  0  0  0  0  0  0  0  0  0  0  0
    4.4776   -1.0773    0.1097 C   0  0  0  0  0  0  0  0  0  0  0  0
    5.2288   -2.2700    0.1280 N   0  0  0  0  0  0  0  0  0  0  0  0
    6.5973   -2.3836    0.0978 C   0  0  0  0  0  0  0  0  0  0  0  0
    6.9372   -3.6474    0.1277 N   0  0  0  0  0  0  0  0  0  0  0  0
    5.7270   -4.2904    0.1777 C   0  0  0  0  0  0  0  0  0  0  0  0
    4.6722   -3.5047    0.1806 N   0  0  0  0  0  0  0  0  0  0  0  0
    3.1639   -1.1680    0.1425 N   0  0  0  0  0  0  0  0  0  0  0  0
    0.6845    0.8891    0.1406 H   0  0  0  0  0  0  0  0  0  0  0  0
    0.7076   -0.8704    0.1896 H   0  0  0  0  0  0  0  0  0  0  0  0
    3.3816    3.5750    0.0308 H   0  0  0  0  0  0  0  0  0  0  0  0
    4.4630    5.8327   -0.0504 H   0  0  0  0  0  0  0  0  0  0  0  0
    8.3307    3.8974   -0.1367 H   0  0  0  0  0  0  0  0  0  0  0  0
    7.2442   -1.5101    0.0545 H   0  0  0  0  0  0  0  0  0  0  0  0
    5.6322   -5.3757    0.2135 H   0  0  0  0  0  0  0  0  0  0  0  0
  1  2  1  0
  1 21  1  0
  1 22  1  0
  2  3  2  0
  2 20  1  0
  3  4  1  0
  4  5  1  0
  4 13  2  0
  5  6  2  0
  5 11  1  0
  6  7  1  0
  6 23  1  0
  7  8  2  0
  7 24  1  0
  8  9  1  0
  8 10  1  0
 10 11  2  0
 10 25  1  0
 11 12  1  0
 13 14  1  0
 14 15  1  0
 14 20  2  0
 15 16  1  0
 15 19  1  0
 16 17  2  0
 16 26  1  0
 17 18  1  0
 18 19  2  0
 18 27  1  0
M  END

