
     RDKit          3D

 31 32  0  0  0  0  0  0  0  0999 V2000
    0.7862    0.2013    0.0416 N   0  0  0  0  0  0  0  0  0  0  0  0
    2.1313    0.2482   -0.1562 C   0  0  0  0  0  0  0  0  0  0  0  0
    2.6583    0.4177   -1.2396 O   0  0  0  0  0  0  0  0  0  0  0  0
    3.0051    0.1967    1.1078 C   0  0  1  0  0  0  0  0  0  0  0  0
    3.3130    1.6362    1.5915 C   0  0  0  0  0  0  0  0  0  0  0  0
    3.5180    1.4852    3.1017 C   0  0  0  0  0  0  0  0  0  0  0  0
    2.4724    0.4368    3.4828 C   0  0  0  0  0  0  0  0  0  0  0  0
    2.4331   -0.4524    2.3050 N   0  0  0  0  0  0  0  0  0  0  0  0
    2.2481   -1.7944    2.4974 C   0  0  0  0  0  0  0  0  0  0  0  0
    2.0022   -2.2751    3.5917 O   0  0  0  0  0  0  0  0  0  0  0  0
    2.2755   -2.7064    1.2547 C   0  0  1  0  0  0  0  0  0  0  0  0
    2.6045   -4.1662    1.5956 C   0  0  0  0  0  0  0  0  0  0  0  0
    1.3190   -4.8302    1.1993 C   0  0  0  0  0  0  0  0  0  0  0  0
    1.0303   -6.2947    1.2858 C   0  0  0  0  0  0  0  0  0  0  0  0
    1.8539   -7.0876    1.6586 O   0  0  0  0  0  0  0  0  0  0  0  0
   -0.2077   -6.6472    0.9115 O   0  0  0  0  0  0  0  0  0  0  0  0
    0.4202   -4.0225    0.7745 N   0  0  0  0  0  0  0  0  0  0  0  0
    0.8850   -2.7420    0.7589 O   0  0  0  0  0  0  0  0  0  0  0  0
    0.2062    0.1446   -0.7889 H   0  0  0  0  0  0  0  0  0  0  0  0
    0.4138   -0.2060    0.8909 H   0  0  0  0  0  0  0  0  0  0  0  0
    3.9414   -0.2976    0.8014 H   0  0  0  0  0  0  0  0  0  0  0  0
    2.4418    2.2811    1.3917 H   0  0  0  0  0  0  0  0  0  0  0  0
    4.1714    2.0620    1.0548 H   0  0  0  0  0  0  0  0  0  0  0  0
    3.3916    2.4304    3.6497 H   0  0  0  0  0  0  0  0  0  0  0  0
    4.5297    1.1034    3.3173 H   0  0  0  0  0  0  0  0  0  0  0  0
    1.4806    0.8943    3.6483 H   0  0  0  0  0  0  0  0  0  0  0  0
    2.7161   -0.1537    4.3754 H   0  0  0  0  0  0  0  0  0  0  0  0
    2.8860   -2.3076    0.4333 H   0  0  0  0  0  0  0  0  0  0  0  0
    2.7867   -4.2968    2.6735 H   0  0  0  0  0  0  0  0  0  0  0  0
    3.4627   -4.5714    1.0400 H   0  0  0  0  0  0  0  0  0  0  0  0
   -0.6976   -5.8464    0.6502 H   0  0  0  0  0  0  0  0  0  0  0  0
  1  2  1  0
  1 19  1  0
  1 20  1  0
  2  3  2  0
  2  4  1  0
  4  5  1  0
  4  8  1  0
  4 21  1  6
  5  6  1  0
  5 22  1  0
  5 23  1  0
  6  7  1  0
  6 24  1  0
  6 25  1  0
  7  8  1  0
  7 26  1  0
  7 27  1  0
  8  9  1  0
  9 10  2  0
  9 11  1  0
 11 12  1  0
 11 18  1  0
 11 28  1  6
 12 13  1  0
 12 29  1  0
 12 30  1  0
 13 14  1  0
 13 17  2  0
 14 15  2  0
 14 16  1  0
 16 31  1  0
 17 18  1  0
M  END

