
     RDKit          3D

 45 47  0  0  0  0  0  0  0  0999 V2000
    0.4393   -0.5038    2.5167 C   0  0  0  0  0  0  0  0  0  0  0  0
    0.7735   -0.8606    1.0596 C   0  0  1  0  0  0  0  0  0  0  0  0
    1.4283   -2.1663    0.9601 N   0  0  0  0  0  0  0  0  0  0  0  0
    2.7640   -2.3250    1.1347 C   0  0  0  0  0  0  0  0  0  0  0  0
    3.5330   -1.4135    1.4102 O   0  0  0  0  0  0  0  0  0  0  0  0
    3.2696   -3.7357    0.9633 C   0  0  0  0  0  0  0  0  0  0  0  0
    4.6602   -4.0146    1.1547 C   0  0  0  0  0  0  0  0  0  0  0  0
    5.0990   -5.2922    0.9949 C   0  0  0  0  0  0  0  0  0  0  0  0
    4.1771   -6.3609    0.6382 C   0  0  0  0  0  0  0  0  0  0  0  0
    4.4485   -7.5375    0.4780 O   0  0  0  0  0  0  0  0  0  0  0  0
    2.8338   -5.9147    0.4735 N   0  0  0  0  0  0  0  0  0  0  0  0
    1.8470   -6.9360    0.1054 C   0  0  0  0  0  0  0  0  0  0  0  0
    0.4781   -6.3520   -0.2080 C   0  0  0  0  0  0  0  0  0  0  0  0
   -0.3219   -7.4459   -0.6009 O   0  0  0  0  0  0  0  0  0  0  0  0
   -1.6167   -7.2283   -0.9673 C   0  0  0  0  0  0  0  0  0  0  0  0
   -2.3469   -8.3655   -1.3530 C   0  0  0  0  0  0  0  0  0  0  0  0
   -3.6767   -8.2393   -1.7467 C   0  0  0  0  0  0  0  0  0  0  0  0
   -4.2991   -6.9835   -1.7639 C   0  0  0  0  0  0  0  0  0  0  0  0
   -3.5711   -5.8574   -1.3799 C   0  0  0  0  0  0  0  0  0  0  0  0
   -2.2329   -5.9684   -0.9795 C   0  0  0  0  0  0  0  0  0  0  0  0
    2.4124   -4.6705    0.6358 N   0  0  0  0  0  0  0  0  0  0  0  0
   -0.4155   -0.8093    0.1337 C   0  0  0  0  0  0  0  0  0  0  0  0
   -0.5393   -0.1322   -1.0534 C   0  0  0  0  0  0  0  0  0  0  0  0
   -1.7937   -0.3307   -1.7094 C   0  0  0  0  0  0  0  0  0  0  0  0
   -2.6120   -1.1724   -1.0038 C   0  0  0  0  0  0  0  0  0  0  0  0
   -4.2080   -1.6773   -1.4270 Cl  0  0  0  0  0  0  0  0  0  0  0  0
   -1.8765   -1.7184    0.4787 S   0  0  0  0  0  0  0  0  0  0  0  0
    1.3609   -0.5088    3.1167 H   0  0  0  0  0  0  0  0  0  0  0  0
   -0.2662   -1.2292    2.9534 H   0  0  0  0  0  0  0  0  0  0  0  0
   -0.0133    0.4978    2.5760 H   0  0  0  0  0  0  0  0  0  0  0  0
    1.5032   -0.1221    0.6905 H   0  0  0  0  0  0  0  0  0  0  0  0
    0.8836   -2.9873    0.7186 H   0  0  0  0  0  0  0  0  0  0  0  0
    5.3189   -3.1868    1.4228 H   0  0  0  0  0  0  0  0  0  0  0  0
    6.1435   -5.5809    1.1257 H   0  0  0  0  0  0  0  0  0  0  0  0
    1.7740   -7.6721    0.9221 H   0  0  0  0  0  0  0  0  0  0  0  0
    2.2340   -7.4884   -0.7637 H   0  0  0  0  0  0  0  0  0  0  0  0
    0.5508   -5.6007   -1.0148 H   0  0  0  0  0  0  0  0  0  0  0  0
    0.0506   -5.8470    0.6759 H   0  0  0  0  0  0  0  0  0  0  0  0
   -1.8453   -9.3353   -1.3350 H   0  0  0  0  0  0  0  0  0  0  0  0
   -4.2343   -9.1311   -2.0447 H   0  0  0  0  0  0  0  0  0  0  0  0
   -5.3418   -6.8878   -2.0752 H   0  0  0  0  0  0  0  0  0  0  0  0
   -4.0367   -4.8686   -1.3897 H   0  0  0  0  0  0  0  0  0  0  0  0
   -1.6918   -5.0700   -0.6823 H   0  0  0  0  0  0  0  0  0  0  0  0
    0.2575    0.4959   -1.4564 H   0  0  0  0  0  0  0  0  0  0  0  0
   -2.0794    0.1236   -2.6580 H   0  0  0  0  0  0  0  0  0  0  0  0
  1  2  1  0
  1 28  1  0
  1 29  1  0
  1 30  1  0
  2  3  1  0
  2 22  1  0
  2 31  1  6
  3  4  1  0
  3 32  1  0
  4  5  2  0
  4  6  1  0
  6  7  1  0
  6 21  2  0
  7  8  2  0
  7 33  1  0
  8  9  1  0
  8 34  1  0
  9 10  2  0
  9 11  1  0
 11 12  1  0
 11 21  1  0
 12 13  1  0
 12 35  1  0
 12 36  1  0
 13 14  1  0
 13 37  1  0
 13 38  1  0
 14 15  1  0
 15 16  2  0
 15 20  1  0
 16 17  1  0
 16 39  1  0
 17 18  2  0
 17 40  1  0
 18 19  1  0
 18 41  1  0
 19 20  2  0
 19 42  1  0
 20 43  1  0
 22 23  2  0
 22 27  1  0
 23 24  1  0
 23 44  1  0
 24 25  2  0
 24 45  1  0
 25 26  1  0
 25 27  1  0
M  END

