
     RDKit          3D

 29 32  0  0  0  0  0  0  0  0999 V2000
    0.7803    1.9416   -0.1965 O   0  0  0  0  0  0  0  0  0  0  0  0
    1.7781    1.3415   -0.5163 C   0  0  0  0  0  0  0  0  0  0  0  0
    1.7932    0.4283   -1.4961 O   0  0  0  0  0  0  0  0  0  0  0  0
    3.1049    1.5297    0.1265 C   0  0  0  0  0  0  0  0  0  0  0  0
    4.1900    0.7870   -0.2760 N   0  0  0  0  0  0  0  0  0  0  0  0
    5.1873    1.1760    0.4722 C   0  0  0  0  0  0  0  0  0  0  0  0
    4.8055    2.1528    1.3736 N   0  0  0  0  0  0  0  0  0  0  0  0
    3.4602    2.3914    1.1449 C   0  0  0  0  0  0  0  0  0  0  0  0
    2.6636    3.4028    1.8967 C   0  0  0  0  0  0  0  0  0  0  0  0
    3.2852    4.7182    1.8127 N   0  0  0  0  0  0  0  0  0  0  0  0
    2.5920    5.8107    1.4532 N   0  0  0  0  0  0  0  0  0  0  0  0
    3.4864    6.7808    1.5866 C   0  0  0  0  0  0  0  0  0  0  0  0
    4.7065    6.3760    2.0126 N   0  0  0  0  0  0  0  0  0  0  0  0
    4.5602    5.0631    2.1448 C   0  0  0  0  0  0  0  0  0  0  0  0
    5.5809    4.1386    2.6587 C   0  0  0  0  0  0  0  0  0  0  0  0
    6.5458    4.6860    3.5256 C   0  0  0  0  0  0  0  0  0  0  0  0
    7.5466    3.8904    4.0744 C   0  0  0  0  0  0  0  0  0  0  0  0
    8.8337    4.6636    5.2401 Br  0  0  0  0  0  0  0  0  0  0  0  0
    7.6048    2.5227    3.7867 C   0  0  0  0  0  0  0  0  0  0  0  0
    6.6621    1.9717    2.9236 C   0  0  0  0  0  0  0  0  0  0  0  0
    5.6643    2.7639    2.3340 C   0  0  0  0  0  0  0  0  0  0  0  0
    2.7054    0.0841   -1.5635 H   0  0  0  0  0  0  0  0  0  0  0  0
    6.2168    0.8283    0.4042 H   0  0  0  0  0  0  0  0  0  0  0  0
    2.5506    3.1213    2.9589 H   0  0  0  0  0  0  0  0  0  0  0  0
    1.6674    3.4692    1.4440 H   0  0  0  0  0  0  0  0  0  0  0  0
    3.2416    7.8183    1.3610 H   0  0  0  0  0  0  0  0  0  0  0  0
    6.4864    5.7516    3.7474 H   0  0  0  0  0  0  0  0  0  0  0  0
    8.3727    1.8926    4.2374 H   0  0  0  0  0  0  0  0  0  0  0  0
    6.6956    0.9027    2.7087 H   0  0  0  0  0  0  0  0  0  0  0  0
  1  2  2  0
  2  3  1  0
  2  4  1  0
  3 22  1  0
  4  5  1  0
  4  8  2  0
  5  6  2  0
  6  7  1  0
  6 23  1  0
  7  8  1  0
  7 21  1  0
  8  9  1  0
  9 10  1  0
  9 24  1  0
  9 25  1  0
 10 11  1  0
 10 14  1  0
 11 12  2  0
 12 13  1  0
 12 26  1  0
 13 14  2  0
 14 15  1  0
 15 16  1  0
 15 21  2  0
 16 17  2  0
 16 27  1  0
 17 18  1  0
 17 19  1  0
 19 20  2  0
 19 28  1  0
 20 21  1  0
 20 29  1  0
M  END

