
     RDKit          3D

 53 56  0  0  0  0  0  0  0  0999 V2000
   11.2784   -5.1711    3.3097 C   0  0  0  0  0  0  0  0  0  0  0  0
    9.9956   -4.4031    3.2005 C   0  0  0  0  0  0  0  0  0  0  0  0
    8.9292   -4.3988    4.0742 C   0  0  0  0  0  0  0  0  0  0  0  0
    7.8680   -3.5349    3.6810 C   0  0  0  0  0  0  0  0  0  0  0  0
    8.1499   -2.8850    2.5007 C   0  0  0  0  0  0  0  0  0  0  0  0
    7.0894   -1.7619    1.6361 S   0  0  1  0  0  0  0  0  0  0  0  0
    6.2970   -1.0569    2.6430 O   0  0  0  0  0  0  0  0  0  0  0  0
    7.9046   -1.0567    0.6487 O   0  0  0  0  0  0  0  0  0  0  0  0
    5.9989   -2.6981    0.7457 N   0  0  0  0  0  0  0  0  0  0  0  0
    6.4779   -3.3230   -0.4975 C   0  0  0  0  0  0  0  0  0  0  0  0
    5.2192   -4.0368   -1.0010 C   0  0  0  0  0  0  0  0  0  0  0  0
    4.4610   -4.4549    0.2833 C   0  0  0  0  0  0  0  0  0  0  0  0
    5.1464   -3.6796    1.4464 C   0  0  2  0  0  0  0  0  0  0  0  0
    4.2145   -3.1420    2.5582 C   0  0  0  0  0  0  0  0  0  0  0  0
    4.3414   -3.6512    3.6673 O   0  0  0  0  0  0  0  0  0  0  0  0
    3.2581   -2.2037    2.2867 N   0  0  0  0  0  0  0  0  0  0  0  0
    2.4294   -1.7255    3.4004 C   0  0  0  0  0  0  0  0  0  0  0  0
    2.6284   -0.2255    3.5888 C   0  0  2  0  0  0  0  0  0  0  0  0
    1.6754    0.4881    4.5573 C   0  0  0  0  0  0  0  0  0  0  0  0
    1.5781    1.9331    3.9906 C   0  0  0  0  0  0  0  0  0  0  0  0
    2.3517    1.8833    2.6524 C   0  0  0  0  0  0  0  0  0  0  0  0
    2.3782    0.4671    2.3265 N   0  0  0  0  0  0  0  0  0  0  0  0
    3.2698    0.0370    1.2689 C   0  0  0  0  0  0  0  0  0  0  0  0
    3.0891   -1.4751    1.0153 C   0  0  2  0  0  0  0  0  0  0  0  0
    1.7384   -1.7809    0.3519 C   0  0  0  0  0  0  0  0  0  0  0  0
    9.7079   -3.3273    1.8609 S   0  0  0  0  0  0  0  0  0  0  0  0
   11.2555   -5.8109    4.2039 H   0  0  0  0  0  0  0  0  0  0  0  0
   12.1501   -4.5012    3.3951 H   0  0  0  0  0  0  0  0  0  0  0  0
   11.4463   -5.8185    2.4333 H   0  0  0  0  0  0  0  0  0  0  0  0
    8.9112   -5.0007    4.9846 H   0  0  0  0  0  0  0  0  0  0  0  0
    6.9301   -3.4021    4.2234 H   0  0  0  0  0  0  0  0  0  0  0  0
    7.2899   -4.0507   -0.2949 H   0  0  0  0  0  0  0  0  0  0  0  0
    6.8653   -2.5572   -1.1803 H   0  0  0  0  0  0  0  0  0  0  0  0
    5.4657   -4.8927   -1.6462 H   0  0  0  0  0  0  0  0  0  0  0  0
    4.6116   -3.3399   -1.5984 H   0  0  0  0  0  0  0  0  0  0  0  0
    4.5380   -5.5346    0.4748 H   0  0  0  0  0  0  0  0  0  0  0  0
    3.3907   -4.2212    0.2116 H   0  0  0  0  0  0  0  0  0  0  0  0
    5.7840   -4.3876    2.0032 H   0  0  0  0  0  0  0  0  0  0  0  0
    2.7240   -2.2888    4.2930 H   0  0  0  0  0  0  0  0  0  0  0  0
    1.3661   -1.9324    3.1872 H   0  0  0  0  0  0  0  0  0  0  0  0
    3.6819   -0.0636    3.9155 H   0  0  0  0  0  0  0  0  0  0  0  0
    2.0429    0.4571    5.5937 H   0  0  0  0  0  0  0  0  0  0  0  0
    0.6882   -0.0008    4.5397 H   0  0  0  0  0  0  0  0  0  0  0  0
    2.0138    2.6783    4.6726 H   0  0  0  0  0  0  0  0  0  0  0  0
    0.5281    2.2177    3.8276 H   0  0  0  0  0  0  0  0  0  0  0  0
    3.3801    2.2906    2.7868 H   0  0  0  0  0  0  0  0  0  0  0  0
    1.8721    2.4664    1.8486 H   0  0  0  0  0  0  0  0  0  0  0  0
    4.3340    0.2295    1.5212 H   0  0  0  0  0  0  0  0  0  0  0  0
    3.0349    0.5883    0.3428 H   0  0  0  0  0  0  0  0  0  0  0  0
    3.9032   -1.7820    0.3518 H   0  0  0  0  0  0  0  0  0  0  0  0
    0.9097   -1.3284    0.9150 H   0  0  0  0  0  0  0  0  0  0  0  0
    1.5608   -2.8650    0.2768 H   0  0  0  0  0  0  0  0  0  0  0  0
    1.7162   -1.3588   -0.6655 H   0  0  0  0  0  0  0  0  0  0  0  0
  1  2  1  0
  1 27  1  0
  1 28  1  0
  1 29  1  0
  2  3  2  0
  2 26  1  0
  3  4  1  0
  3 30  1  0
  4  5  2  0
  4 31  1  0
  6  5  1  1
  5 26  1  0
  6  7  2  0
  6  8  2  0
  6  9  1  0
  9 10  1  0
  9 13  1  0
 10 11  1  0
 10 32  1  0
 10 33  1  0
 11 12  1  0
 11 34  1  0
 11 35  1  0
 12 13  1  0
 12 36  1  0
 12 37  1  0
 13 14  1  0
 13 38  1  1
 14 15  2  0
 14 16  1  0
 16 17  1  0
 16 24  1  0
 17 18  1  0
 17 39  1  0
 17 40  1  0
 18 19  1  0
 18 22  1  0
 18 41  1  1
 19 20  1  0
 19 42  1  0
 19 43  1  0
 20 21  1  0
 20 44  1  0
 20 45  1  0
 21 22  1  0
 21 46  1  0
 21 47  1  0
 22 23  1  0
 23 24  1  0
 23 48  1  0
 23 49  1  0
 24 25  1  0
 24 50  1  6
 25 51  1  0
 25 52  1  0
 25 53  1  0
M  END

