
     RDKit          3D

 61 64  0  0  0  0  0  0  0  0999 V2000
    0.9769    5.2403    4.4755 C   0  0  0  0  0  0  0  0  0  0  0  0
    2.4459    5.2285    4.0969 C   0  0  0  0  0  0  0  0  0  0  0  0
    2.8116    3.9182    3.7163 O   0  0  0  0  0  0  0  0  0  0  0  0
    4.1542    3.7749    3.3381 C   0  0  0  0  0  0  0  0  0  0  0  0
    4.3612    2.3095    2.9539 C   0  0  0  0  0  0  0  0  0  0  0  0
    5.7255    2.0200    2.5501 N   0  0  0  0  0  0  0  0  0  0  0  0
    6.2948    2.2273    1.3013 C   0  0  0  0  0  0  0  0  0  0  0  0
    5.5186    2.5666    0.1995 N   0  0  0  0  0  0  0  0  0  0  0  0
    4.6434    1.5464   -0.4188 C   0  0  1  0  0  0  0  0  0  0  0  0
    4.1929    0.9869    0.4143 H   0  0  0  0  0  0  0  0  0  0  0  0
    3.5237    2.2190   -1.2212 C   0  0  0  0  0  0  0  0  0  0  0  0
    4.0449    2.7905   -2.5357 C   0  0  0  0  0  0  0  0  0  0  0  0
    4.6801    1.7487   -3.3459 N   0  0  0  0  0  0  0  0  0  0  0  0
    4.4795    1.8237   -4.7182 C   0  0  0  0  0  0  0  0  0  0  0  0
    3.7503    2.6268   -5.2471 O   0  0  0  0  0  0  0  0  0  0  0  0
    5.1545    0.9208   -5.4729 O   0  0  0  0  0  0  0  0  0  0  0  0
    5.7686    0.9794   -2.7278 C   0  0  1  0  0  0  0  0  0  0  0  0
    5.8838    0.0371   -3.2903 H   0  0  0  0  0  0  0  0  0  0  0  0
    7.1462    1.7046   -2.8336 C   0  0  0  0  0  0  0  0  0  0  0  0
    8.3299    0.7657   -2.7313 C   0  0  0  0  0  0  0  0  0  0  0  0
    8.7284    0.0247   -3.8580 C   0  0  0  0  0  0  0  0  0  0  0  0
    9.7964   -0.8727   -3.7870 C   0  0  0  0  0  0  0  0  0  0  0  0
   10.4875   -1.0418   -2.5827 C   0  0  0  0  0  0  0  0  0  0  0  0
   10.1043   -0.3054   -1.4585 C   0  0  0  0  0  0  0  0  0  0  0  0
    9.0341    0.5935   -1.5289 C   0  0  0  0  0  0  0  0  0  0  0  0
    5.3691    0.5112   -1.3079 C   0  0  0  0  0  0  0  0  0  0  0  0
    7.6040    2.1346    1.3029 N   0  0  0  0  0  0  0  0  0  0  0  0
    7.9545    1.8671    2.6152 C   0  0  0  0  0  0  0  0  0  0  0  0
    9.2155    1.6675    3.1941 C   0  0  0  0  0  0  0  0  0  0  0  0
    9.2764    1.3900    4.5602 C   0  0  0  0  0  0  0  0  0  0  0  0
    8.1087    1.3112    5.3448 C   0  0  0  0  0  0  0  0  0  0  0  0
    6.8424    1.5047    4.7865 C   0  0  0  0  0  0  0  0  0  0  0  0
    6.7883    1.7818    3.4177 C   0  0  0  0  0  0  0  0  0  0  0  0
    0.6643    6.2518    4.7780 H   0  0  0  0  0  0  0  0  0  0  0  0
    0.7874    4.5515    5.3133 H   0  0  0  0  0  0  0  0  0  0  0  0
    0.3549    4.9231    3.6242 H   0  0  0  0  0  0  0  0  0  0  0  0
    3.0708    5.5661    4.9504 H   0  0  0  0  0  0  0  0  0  0  0  0
    2.6392    5.9357    3.2631 H   0  0  0  0  0  0  0  0  0  0  0  0
    4.8403    4.0530    4.1649 H   0  0  0  0  0  0  0  0  0  0  0  0
    4.4030    4.4215    2.4716 H   0  0  0  0  0  0  0  0  0  0  0  0
    3.6680    2.0575    2.1414 H   0  0  0  0  0  0  0  0  0  0  0  0
    4.0994    1.6666    3.8077 H   0  0  0  0  0  0  0  0  0  0  0  0
    6.1079    3.0370   -0.4808 H   0  0  0  0  0  0  0  0  0  0  0  0
    3.0642    3.0183   -0.6199 H   0  0  0  0  0  0  0  0  0  0  0  0
    2.7434    1.4726   -1.4445 H   0  0  0  0  0  0  0  0  0  0  0  0
    4.7555    3.6191   -2.3428 H   0  0  0  0  0  0  0  0  0  0  0  0
    3.2339    3.2164   -3.1372 H   0  0  0  0  0  0  0  0  0  0  0  0
    5.6014    0.2592   -4.9286 H   0  0  0  0  0  0  0  0  0  0  0  0
    7.1719    2.2076   -3.8132 H   0  0  0  0  0  0  0  0  0  0  0  0
    7.2306    2.4943   -2.0725 H   0  0  0  0  0  0  0  0  0  0  0  0
    8.2060    0.1663   -4.8104 H   0  0  0  0  0  0  0  0  0  0  0  0
   10.0955   -1.4342   -4.6760 H   0  0  0  0  0  0  0  0  0  0  0  0
   11.3260   -1.7406   -2.5244 H   0  0  0  0  0  0  0  0  0  0  0  0
   10.6436   -0.4270   -0.5153 H   0  0  0  0  0  0  0  0  0  0  0  0
    8.7449    1.1685   -0.6433 H   0  0  0  0  0  0  0  0  0  0  0  0
    6.2610    0.1225   -0.7933 H   0  0  0  0  0  0  0  0  0  0  0  0
    4.6777   -0.3395   -1.4266 H   0  0  0  0  0  0  0  0  0  0  0  0
   10.1183    1.7320    2.5832 H   0  0  0  0  0  0  0  0  0  0  0  0
   10.2481    1.2315    5.0347 H   0  0  0  0  0  0  0  0  0  0  0  0
    8.1938    1.0958    6.4128 H   0  0  0  0  0  0  0  0  0  0  0  0
    5.9419    1.4443    5.4017 H   0  0  0  0  0  0  0  0  0  0  0  0
  1  2  1  0
  1 34  1  0
  1 35  1  0
  1 36  1  0
  2  3  1  0
  2 37  1  0
  2 38  1  0
  3  4  1  0
  4  5  1  0
  4 39  1  0
  4 40  1  0
  5  6  1  0
  5 41  1  0
  5 42  1  0
  6  7  1  0
  6 33  1  0
  7  8  1  0
  7 27  2  0
  8  9  1  0
  8 43  1  0
  9 10  1  1
  9 11  1  0
  9 26  1  0
 11 12  1  0
 11 44  1  0
 11 45  1  0
 12 13  1  0
 12 46  1  0
 12 47  1  0
 13 14  1  0
 13 17  1  0
 14 15  2  0
 14 16  1  0
 16 48  1  0
 17 18  1  6
 17 19  1  0
 17 26  1  0
 19 20  1  0
 19 49  1  0
 19 50  1  0
 20 21  2  0
 20 25  1  0
 21 22  1  0
 21 51  1  0
 22 23  2  0
 22 52  1  0
 23 24  1  0
 23 53  1  0
 24 25  2  0
 24 54  1  0
 25 55  1  0
 26 56  1  0
 26 57  1  0
 27 28  1  0
 28 29  1  0
 28 33  2  0
 29 30  2  0
 29 58  1  0
 30 31  1  0
 30 59  1  0
 31 32  2  0
 31 60  1  0
 32 33  1  0
 32 61  1  0
M  END

