
     RDKit          3D

 48 49  0  0  0  0  0  0  0  0999 V2000
   -0.8259   -1.3239    2.4267 C   0  0  0  0  0  0  0  0  0  0  0  0
    0.4912   -1.2415    1.9374 O   0  0  0  0  0  0  0  0  0  0  0  0
    1.2115   -2.3840    1.7777 C   0  0  0  0  0  0  0  0  0  0  0  0
    2.5177   -2.2355    1.2825 C   0  0  0  0  0  0  0  0  0  0  0  0
    3.3437   -3.3361    1.0803 C   0  0  0  0  0  0  0  0  0  0  0  0
    2.8734   -4.6315    1.3740 C   0  0  0  0  0  0  0  0  0  0  0  0
    3.6501   -5.7966    1.1982 N   0  0  0  0  0  0  0  0  0  0  0  0
    4.9177   -5.9201    0.7110 C   0  0  0  0  0  0  0  0  0  0  0  0
    5.6204   -5.0022    0.3198 O   0  0  0  0  0  0  0  0  0  0  0  0
    5.5065   -7.3489    0.7273 C   0  0  1  0  0  0  0  0  0  0  0  0
    6.4673   -7.4991    1.9147 C   0  0  0  0  0  0  0  0  0  0  0  0
    4.2902   -8.7310    0.7678 S   0  0  0  0  0  0  0  0  0  0  0  0
    3.5962   -8.6018   -0.9267 C   0  0  0  0  0  0  0  0  0  0  0  0
    2.6208   -9.7576   -1.1687 C   0  0  0  0  0  0  0  0  0  0  0  0
    2.0055   -9.6842   -2.4813 N   0  0  0  0  0  0  0  0  0  0  0  0
    2.6545  -10.1202   -3.6642 C   0  0  0  0  0  0  0  0  0  0  0  0
    3.7666  -10.5932   -3.7109 O   0  0  0  0  0  0  0  0  0  0  0  0
    1.7726   -9.8917   -4.6816 N   0  0  0  0  0  0  0  0  0  0  0  0
    0.5109   -9.2943   -4.2558 C   0  0  2  0  0  0  0  0  0  0  0  0
   -0.6925  -10.2098   -4.5272 C   0  0  0  0  0  0  0  0  0  0  0  0
    0.2961   -7.8942   -4.8506 C   0  0  0  0  0  0  0  0  0  0  0  0
    0.7459   -9.1819   -2.7329 C   0  0  0  0  0  0  0  0  0  0  0  0
   -0.0321   -8.7412   -1.9185 O   0  0  0  0  0  0  0  0  0  0  0  0
    1.5694   -4.7784    1.8666 C   0  0  0  0  0  0  0  0  0  0  0  0
    0.7402   -3.6718    2.0705 C   0  0  0  0  0  0  0  0  0  0  0  0
   -1.2103   -0.2958    2.4715 H   0  0  0  0  0  0  0  0  0  0  0  0
   -0.8641   -1.7624    3.4411 H   0  0  0  0  0  0  0  0  0  0  0  0
   -1.4784   -1.9190    1.7612 H   0  0  0  0  0  0  0  0  0  0  0  0
    2.8726   -1.2274    1.0580 H   0  0  0  0  0  0  0  0  0  0  0  0
    4.3531   -3.2125    0.6943 H   0  0  0  0  0  0  0  0  0  0  0  0
    3.2141   -6.6784    1.4655 H   0  0  0  0  0  0  0  0  0  0  0  0
    6.0790   -7.4348   -0.2088 H   0  0  0  0  0  0  0  0  0  0  0  0
    5.9273   -7.4495    2.8738 H   0  0  0  0  0  0  0  0  0  0  0  0
    7.1997   -6.6787    1.8891 H   0  0  0  0  0  0  0  0  0  0  0  0
    7.0044   -8.4576    1.8658 H   0  0  0  0  0  0  0  0  0  0  0  0
    4.4213   -8.6545   -1.6533 H   0  0  0  0  0  0  0  0  0  0  0  0
    3.0774   -7.6373   -1.0421 H   0  0  0  0  0  0  0  0  0  0  0  0
    1.8042   -9.7366   -0.4322 H   0  0  0  0  0  0  0  0  0  0  0  0
    3.1507  -10.7184   -1.0893 H   0  0  0  0  0  0  0  0  0  0  0  0
    2.0168  -10.1108   -5.6392 H   0  0  0  0  0  0  0  0  0  0  0  0
   -0.8664  -10.3053   -5.6109 H   0  0  0  0  0  0  0  0  0  0  0  0
   -1.5960   -9.7873   -4.0636 H   0  0  0  0  0  0  0  0  0  0  0  0
   -0.5232  -11.2149   -4.1123 H   0  0  0  0  0  0  0  0  0  0  0  0
    0.1404   -7.9588   -5.9394 H   0  0  0  0  0  0  0  0  0  0  0  0
    1.1667   -7.2482   -4.6617 H   0  0  0  0  0  0  0  0  0  0  0  0
   -0.5906   -7.4268   -4.3978 H   0  0  0  0  0  0  0  0  0  0  0  0
    1.1868   -5.7772    2.0968 H   0  0  0  0  0  0  0  0  0  0  0  0
   -0.2670   -3.8320    2.4552 H   0  0  0  0  0  0  0  0  0  0  0  0
  1  2  1  0
  1 26  1  0
  1 27  1  0
  1 28  1  0
  2  3  1  0
  3  4  2  0
  3 25  1  0
  4  5  1  0
  4 29  1  0
  5  6  2  0
  5 30  1  0
  6  7  1  0
  6 24  1  0
  7  8  1  0
  7 31  1  0
  8  9  2  0
  8 10  1  0
 10 11  1  0
 10 12  1  0
 10 32  1  6
 11 33  1  0
 11 34  1  0
 11 35  1  0
 12 13  1  0
 13 14  1  0
 13 36  1  0
 13 37  1  0
 14 15  1  0
 14 38  1  0
 14 39  1  0
 15 16  1  0
 15 22  1  0
 16 17  2  0
 16 18  1  0
 18 19  1  0
 18 40  1  0
 19 20  1  1
 19 21  1  0
 19 22  1  0
 20 41  1  0
 20 42  1  0
 20 43  1  0
 21 44  1  0
 21 45  1  0
 21 46  1  0
 22 23  2  0
 24 25  2  0
 24 47  1  0
 25 48  1  0
M  END

