
     RDKit          3D

 35 35  0  0  0  0  0  0  0  0999 V2000
    0.8928    0.3586    0.3410 C   0  0  0  0  0  0  0  0  0  0  0  0
    2.3423    0.3235    0.3143 N   0  0  0  0  0  0  0  0  0  0  0  0
    2.9160    1.6316    0.5757 C   0  0  0  0  0  0  0  0  0  0  0  0
    2.9016   -0.7349    1.1413 C   0  0  0  0  0  0  0  0  0  0  0  0
    4.3105   -1.1465    0.6922 C   0  0  0  0  0  0  0  0  0  0  0  0
    4.8550   -2.2375    1.5052 N   0  0  0  0  0  0  0  0  0  0  0  0
    4.3247   -3.5369    1.1141 C   0  0  0  0  0  0  0  0  0  0  0  0
    6.3166   -2.2682    1.6007 C   0  0  1  0  0  0  0  0  0  0  0  0
    6.8616   -0.9356    1.9407 C   0  0  0  0  0  0  0  0  0  0  0  0
    7.3229    0.0933    2.2072 N   0  0  0  0  0  0  0  0  0  0  0  0
    6.8132   -3.2649    2.6542 C   0  0  0  0  0  0  0  0  0  0  0  0
    6.2765   -3.2442    3.9493 C   0  0  0  0  0  0  0  0  0  0  0  0
    6.7509   -4.1331    4.9142 C   0  0  0  0  0  0  0  0  0  0  0  0
    7.7633   -5.0487    4.6058 C   0  0  0  0  0  0  0  0  0  0  0  0
    8.2916   -5.0606    3.3138 C   0  0  0  0  0  0  0  0  0  0  0  0
    9.6675   -6.3039    2.8677 Br  0  0  0  0  0  0  0  0  0  0  0  0
    7.8253   -4.1763    2.3356 C   0  0  0  0  0  0  0  0  0  0  0  0
    0.5213    1.1105   -0.3737 H   0  0  0  0  0  0  0  0  0  0  0  0
    0.4721    0.6141    1.3420 H   0  0  0  0  0  0  0  0  0  0  0  0
    0.4800   -0.6184    0.0432 H   0  0  0  0  0  0  0  0  0  0  0  0
    2.5296    2.3633   -0.1515 H   0  0  0  0  0  0  0  0  0  0  0  0
    4.0108    1.6137    0.4699 H   0  0  0  0  0  0  0  0  0  0  0  0
    2.6836    2.0131    1.5974 H   0  0  0  0  0  0  0  0  0  0  0  0
    2.2313   -1.6056    1.0666 H   0  0  0  0  0  0  0  0  0  0  0  0
    2.9397   -0.4626    2.2209 H   0  0  0  0  0  0  0  0  0  0  0  0
    4.9766   -0.2784    0.7858 H   0  0  0  0  0  0  0  0  0  0  0  0
    4.2801   -1.4083   -0.3869 H   0  0  0  0  0  0  0  0  0  0  0  0
    3.2265   -3.5081    1.1165 H   0  0  0  0  0  0  0  0  0  0  0  0
    4.6354   -4.3165    1.8232 H   0  0  0  0  0  0  0  0  0  0  0  0
    4.6540   -3.8440    0.0961 H   0  0  0  0  0  0  0  0  0  0  0  0
    6.7868   -2.5452    0.6278 H   0  0  0  0  0  0  0  0  0  0  0  0
    5.4813   -2.5343    4.1852 H   0  0  0  0  0  0  0  0  0  0  0  0
    6.3326   -4.1167    5.9237 H   0  0  0  0  0  0  0  0  0  0  0  0
    8.1359   -5.7445    5.3592 H   0  0  0  0  0  0  0  0  0  0  0  0
    8.2506   -4.2021    1.3303 H   0  0  0  0  0  0  0  0  0  0  0  0
  1  2  1  0
  1 18  1  0
  1 19  1  0
  1 20  1  0
  2  3  1  0
  2  4  1  0
  3 21  1  0
  3 22  1  0
  3 23  1  0
  4  5  1  0
  4 24  1  0
  4 25  1  0
  5  6  1  0
  5 26  1  0
  5 27  1  0
  6  7  1  0
  6  8  1  0
  7 28  1  0
  7 29  1  0
  7 30  1  0
  8  9  1  0
  8 11  1  0
  8 31  1  6
  9 10  3  0
 11 12  2  0
 11 17  1  0
 12 13  1  0
 12 32  1  0
 13 14  2  0
 13 33  1  0
 14 15  1  0
 14 34  1  0
 15 16  1  0
 15 17  2  0
 17 35  1  0
M  END

