
     RDKit          3D

 27 28  0  0  0  0  0  0  0  0999 V2000
    1.1545    0.1952   -0.5786 C   0  0  0  0  0  0  0  0  0  0  0  0
    2.5634    0.1109   -0.2367 N   0  0  0  0  0  0  0  0  0  0  0  0
    3.2011    1.2704    0.1421 C   0  0  0  0  0  0  0  0  0  0  0  0
    2.6819    2.4738    0.1076 N   0  0  0  0  0  0  0  0  0  0  0  0
    3.7004    3.3480    0.4476 C   0  0  0  0  0  0  0  0  0  0  0  0
    3.4611    4.8214    0.5323 C   0  0  0  0  0  0  0  0  0  0  0  0
    4.8549    2.6545    0.6936 C   0  0  0  0  0  0  0  0  0  0  0  0
    4.5393    1.2961    0.5127 N   0  0  0  0  0  0  0  0  0  0  0  0
    5.4840    0.2453    0.4558 C   0  0  0  0  0  0  0  0  0  0  0  0
    6.5059    0.3090   -0.5063 C   0  0  0  0  0  0  0  0  0  0  0  0
    7.4708   -0.6940   -0.5844 C   0  0  0  0  0  0  0  0  0  0  0  0
    8.7294   -0.5858   -1.7884 Cl  0  0  0  0  0  0  0  0  0  0  0  0
    7.4322   -1.7908    0.2822 C   0  0  0  0  0  0  0  0  0  0  0  0
    6.4217   -1.8646    1.2398 C   0  0  0  0  0  0  0  0  0  0  0  0
    5.4605   -0.8533    1.3373 C   0  0  0  0  0  0  0  0  0  0  0  0
    4.1502   -0.9753    2.7166 Br  0  0  0  0  0  0  0  0  0  0  0  0
    0.8219   -0.7793   -0.9654 H   0  0  0  0  0  0  0  0  0  0  0  0
    1.0120    0.9537   -1.3608 H   0  0  0  0  0  0  0  0  0  0  0  0
    0.5122    0.4831    0.2751 H   0  0  0  0  0  0  0  0  0  0  0  0
    2.8177   -0.7071    0.3081 H   0  0  0  0  0  0  0  0  0  0  0  0
    3.1012    5.2141   -0.4334 H   0  0  0  0  0  0  0  0  0  0  0  0
    4.3781    5.3633    0.8067 H   0  0  0  0  0  0  0  0  0  0  0  0
    2.6841    5.0525    1.2799 H   0  0  0  0  0  0  0  0  0  0  0  0
    5.8403    2.9634    1.0319 H   0  0  0  0  0  0  0  0  0  0  0  0
    6.5275    1.1529   -1.1965 H   0  0  0  0  0  0  0  0  0  0  0  0
    8.1880   -2.5741    0.2106 H   0  0  0  0  0  0  0  0  0  0  0  0
    6.3862   -2.7083    1.9307 H   0  0  0  0  0  0  0  0  0  0  0  0
  1  2  1  0
  1 17  1  0
  1 18  1  0
  1 19  1  0
  2  3  1  0
  2 20  1  0
  3  4  2  0
  3  8  1  0
  4  5  1  0
  5  6  1  0
  5  7  2  0
  6 21  1  0
  6 22  1  0
  6 23  1  0
  7  8  1  0
  7 24  1  0
  8  9  1  0
  9 10  2  0
  9 15  1  0
 10 11  1  0
 10 25  1  0
 11 12  1  0
 11 13  2  0
 13 14  1  0
 13 26  1  0
 14 15  2  0
 14 27  1  0
 15 16  1  0
M  END

