
     RDKit          3D

 33 33  0  0  0  0  0  0  0  0999 V2000
    2.6703    0.0523   -1.1965 C   0  0  0  0  0  0  0  0  0  0  0  0
    2.0661   -0.2861    0.1711 C   0  0  0  0  0  0  0  0  0  0  0  0
    2.5788   -1.5756    0.8528 C   0  0  1  0  0  0  0  0  0  0  0  0
    2.2482   -2.8232    0.0178 C   0  0  0  0  0  0  0  0  0  0  0  0
    4.0950   -1.5260    1.1778 C   0  0  1  0  0  0  0  0  0  0  0  0
    4.6459   -0.2197    1.6043 N   0  0  0  0  0  0  0  0  0  0  0  0
    4.0859    0.5988    2.9758 S   0  0  1  0  0  0  0  0  0  0  0  0
    3.7263    1.9460    2.5241 O   0  0  0  0  0  0  0  0  0  0  0  0
    3.1696   -0.2740    3.6996 O   0  0  0  0  0  0  0  0  0  0  0  0
    5.5414    0.8429    3.9801 C   0  0  0  0  0  0  0  0  0  0  0  0
    6.5676    2.1942    3.5755 S   0  0  0  0  0  0  0  0  0  0  0  0
    7.6473    1.8143    4.8628 C   0  0  0  0  0  0  0  0  0  0  0  0
    7.2380    0.7245    5.5863 C   0  0  0  0  0  0  0  0  0  0  0  0
    6.0249    0.1621    5.0819 C   0  0  0  0  0  0  0  0  0  0  0  0
    5.2352   -1.3257    5.9309 Br  0  0  0  0  0  0  0  0  0  0  0  0
    4.5574   -2.6383    2.1555 C   0  0  0  0  0  0  0  0  0  0  0  0
    5.8473   -2.5008    2.5747 N   0  0  0  0  0  0  0  0  0  0  0  0
    3.8609   -3.5859    2.4583 O   0  0  0  0  0  0  0  0  0  0  0  0
    2.2303    0.9794   -1.5967 H   0  0  0  0  0  0  0  0  0  0  0  0
    2.4928   -0.7419   -1.9384 H   0  0  0  0  0  0  0  0  0  0  0  0
    3.7624    0.2131   -1.1531 H   0  0  0  0  0  0  0  0  0  0  0  0
    0.9741   -0.3946    0.0559 H   0  0  0  0  0  0  0  0  0  0  0  0
    2.2001    0.5726    0.8476 H   0  0  0  0  0  0  0  0  0  0  0  0
    2.0523   -1.6630    1.8154 H   0  0  0  0  0  0  0  0  0  0  0  0
    2.8102   -2.8424   -0.9319 H   0  0  0  0  0  0  0  0  0  0  0  0
    1.1755   -2.8392   -0.2340 H   0  0  0  0  0  0  0  0  0  0  0  0
    2.4846   -3.7378    0.5747 H   0  0  0  0  0  0  0  0  0  0  0  0
    4.6513   -1.7333    0.2452 H   0  0  0  0  0  0  0  0  0  0  0  0
    4.7188    0.4647    0.8530 H   0  0  0  0  0  0  0  0  0  0  0  0
    8.5265    2.4346    5.0355 H   0  0  0  0  0  0  0  0  0  0  0  0
    7.7613    0.3283    6.4564 H   0  0  0  0  0  0  0  0  0  0  0  0
    6.3423   -1.6302    2.4313 H   0  0  0  0  0  0  0  0  0  0  0  0
    6.1816   -3.1490    3.2778 H   0  0  0  0  0  0  0  0  0  0  0  0
  1  2  1  0
  1 19  1  0
  1 20  1  0
  1 21  1  0
  2  3  1  0
  2 22  1  0
  2 23  1  0
  3  4  1  0
  3  5  1  0
  3 24  1  1
  4 25  1  0
  4 26  1  0
  4 27  1  0
  5  6  1  0
  5 16  1  0
  5 28  1  6
  7  6  1  6
  6 29  1  0
  7  8  2  0
  7  9  2  0
  7 10  1  0
 10 11  1  0
 10 14  2  0
 11 12  1  0
 12 13  2  0
 12 30  1  0
 13 14  1  0
 13 31  1  0
 14 15  1  0
 16 17  1  0
 16 18  2  0
 17 32  1  0
 17 33  1  0
M  END

