
     RDKit          3D

 25 25  0  0  0  0  0  0  0  0999 V2000
    2.1431   -0.4567    1.0484 O   0  0  0  0  0  0  0  0  0  0  0  0
    2.5580   -0.1678   -0.3427 P   0  0  1  0  0  0  0  0  0  0  0  0
    2.4769   -1.3973   -1.3815 O   0  0  0  0  0  0  0  0  0  0  0  0
    1.7424    0.9879   -1.1179 O   0  0  0  0  0  0  0  0  0  0  0  0
    4.0744    0.3433   -0.5509 O   0  0  0  0  0  0  0  0  0  0  0  0
    4.7407    1.1493    0.4368 C   0  0  1  0  0  0  0  0  0  0  0  0
    4.2177    1.0562    1.3998 H   0  0  0  0  0  0  0  0  0  0  0  0
    6.0283    0.6550    0.6391 O   0  0  0  0  0  0  0  0  0  0  0  0
    6.8738    0.6898   -0.5111 C   0  0  0  0  0  0  0  0  0  0  0  0
    7.0067    2.1099   -1.0720 C   0  0  1  0  0  0  0  0  0  0  0  0
    7.5523    2.7424   -0.3520 H   0  0  0  0  0  0  0  0  0  0  0  0
    7.7818    2.1480   -2.2581 O   0  0  0  0  0  0  0  0  0  0  0  0
    5.6254    2.7318   -1.2916 C   0  0  2  0  0  0  0  0  0  0  0  0
    5.1073    2.1178   -2.0617 H   0  0  0  0  0  0  0  0  0  0  0  0
    5.7213    4.0712   -1.6953 O   0  0  0  0  0  0  0  0  0  0  0  0
    4.7860    2.6212   -0.0082 C   0  0  2  0  0  0  0  0  0  0  0  0
    5.2778    3.4019    1.0566 O   0  0  0  0  0  0  0  0  0  0  0  0
    2.6166   -2.2415   -0.9263 H   0  0  0  0  0  0  0  0  0  0  0  0
    0.8086    0.9983   -0.8584 H   0  0  0  0  0  0  0  0  0  0  0  0
    6.4734    0.0170   -1.2924 H   0  0  0  0  0  0  0  0  0  0  0  0
    7.8507    0.3019   -0.1913 H   0  0  0  0  0  0  0  0  0  0  0  0
    7.3476    1.5905   -2.9210 H   0  0  0  0  0  0  0  0  0  0  0  0
    6.4418    4.1133   -2.3413 H   0  0  0  0  0  0  0  0  0  0  0  0
    3.7646    2.9753   -0.2163 H   0  0  0  0  0  0  0  0  0  0  0  0
    6.0574    2.9581    1.4195 H   0  0  0  0  0  0  0  0  0  0  0  0
  1  2  2  0
  2  3  1  6
  2  4  1  0
  2  5  1  0
  3 18  1  0
  4 19  1  0
  5  6  1  0
  6  7  1  1
  6  8  1  0
  6 16  1  0
  8  9  1  0
  9 10  1  0
  9 20  1  0
  9 21  1  0
 10 11  1  1
 10 12  1  0
 10 13  1  0
 12 22  1  0
 13 14  1  6
 13 15  1  0
 13 16  1  0
 15 23  1  0
 16 17  1  0
 16 24  1  6
 17 25  1  0
M  END

