
     RDKit          3D

 45 47  0  0  0  0  0  0  0  0999 V2000
    3.4682    1.2308   -0.4541 C   0  0  0  0  0  0  0  0  0  0  0  0
    2.6993    0.3758    0.5612 C   0  0  1  0  0  0  0  0  0  0  0  0
    3.5926   -0.7673    1.0609 C   0  0  0  0  0  0  0  0  0  0  0  0
    4.7012   -0.5608    1.5321 O   0  0  0  0  0  0  0  0  0  0  0  0
    3.0624   -2.0224    0.9684 N   0  0  0  0  0  0  0  0  0  0  0  0
    3.7682   -3.2078    1.4698 C   0  0  2  0  0  0  0  0  0  0  0  0
    4.8399   -3.7190    0.4780 C   0  0  0  0  0  0  0  0  0  0  0  0
    4.2274   -4.4834   -0.7026 C   0  0  0  0  0  0  0  0  0  0  0  0
    3.4913   -5.7592   -0.2473 C   0  0  0  0  0  0  0  0  0  0  0  0
    2.6659   -5.4470    0.9638 C   0  0  0  0  0  0  0  0  0  0  0  0
    2.7861   -4.3095    1.7568 C   0  0  0  0  0  0  0  0  0  0  0  0
    1.8187   -4.4826    2.7752 C   0  0  0  0  0  0  0  0  0  0  0  0
    1.1646   -5.6295    2.6229 N   0  0  0  0  0  0  0  0  0  0  0  0
    1.6922   -6.2150    1.5250 N   0  0  0  0  0  0  0  0  0  0  0  0
    1.1661   -7.4991    1.0718 C   0  0  0  0  0  0  0  0  0  0  0  0
    0.8868   -8.4520    2.2381 C   0  0  0  0  0  0  0  0  0  0  0  0
   -0.1822   -8.0336    3.0363 O   0  0  0  0  0  0  0  0  0  0  0  0
    2.2409    1.2053    1.7633 C   0  0  1  0  0  0  0  0  0  0  0  0
    1.1569    2.2967    1.5642 C   0  0  0  0  0  0  0  0  0  0  0  0
    0.5476    1.8756    2.8373 N   0  0  0  0  0  0  0  0  0  0  0  0
    1.2587    0.5871    2.7918 C   0  0  0  0  0  0  0  0  0  0  0  0
    3.7355    0.6471   -1.3494 H   0  0  0  0  0  0  0  0  0  0  0  0
    4.4003    1.6010   -0.0019 H   0  0  0  0  0  0  0  0  0  0  0  0
    2.8661    2.0937   -0.7795 H   0  0  0  0  0  0  0  0  0  0  0  0
    1.8043   -0.0500    0.0719 H   0  0  0  0  0  0  0  0  0  0  0  0
    2.1339   -2.1447    0.5837 H   0  0  0  0  0  0  0  0  0  0  0  0
    4.2838   -2.8870    2.3889 H   0  0  0  0  0  0  0  0  0  0  0  0
    5.5322   -4.3804    1.0286 H   0  0  0  0  0  0  0  0  0  0  0  0
    5.4332   -2.8606    0.1312 H   0  0  0  0  0  0  0  0  0  0  0  0
    5.0064   -4.7481   -1.4344 H   0  0  0  0  0  0  0  0  0  0  0  0
    3.5173   -3.8217   -1.2292 H   0  0  0  0  0  0  0  0  0  0  0  0
    4.2270   -6.5492   -0.0046 H   0  0  0  0  0  0  0  0  0  0  0  0
    2.8696   -6.1590   -1.0661 H   0  0  0  0  0  0  0  0  0  0  0  0
    1.5787   -3.8244    3.6105 H   0  0  0  0  0  0  0  0  0  0  0  0
    1.9055   -7.9397    0.3869 H   0  0  0  0  0  0  0  0  0  0  0  0
    0.2294   -7.3360    0.5104 H   0  0  0  0  0  0  0  0  0  0  0  0
    1.8270   -8.5864    2.8156 H   0  0  0  0  0  0  0  0  0  0  0  0
    0.6266   -9.4369    1.8143 H   0  0  0  0  0  0  0  0  0  0  0  0
    0.0247   -7.1138    3.2906 H   0  0  0  0  0  0  0  0  0  0  0  0
    3.1271    1.6143    2.2721 H   0  0  0  0  0  0  0  0  0  0  0  0
    0.5378    2.0977    0.6641 H   0  0  0  0  0  0  0  0  0  0  0  0
    1.4877    3.3493    1.5283 H   0  0  0  0  0  0  0  0  0  0  0  0
   -0.4698    1.8357    2.8655 H   0  0  0  0  0  0  0  0  0  0  0  0
    0.6767   -0.2501    2.3514 H   0  0  0  0  0  0  0  0  0  0  0  0
    1.6753    0.2455    3.7552 H   0  0  0  0  0  0  0  0  0  0  0  0
  1  2  1  0
  1 22  1  0
  1 23  1  0
  1 24  1  0
  2  3  1  0
  2 18  1  0
  2 25  1  6
  3  4  2  0
  3  5  1  0
  5  6  1  0
  5 26  1  0
  6  7  1  0
  6 11  1  0
  6 27  1  1
  7  8  1  0
  7 28  1  0
  7 29  1  0
  8  9  1  0
  8 30  1  0
  8 31  1  0
  9 10  1  0
  9 32  1  0
  9 33  1  0
 10 11  2  0
 10 14  1  0
 11 12  1  0
 12 13  2  0
 12 34  1  0
 13 14  1  0
 14 15  1  0
 15 16  1  0
 15 35  1  0
 15 36  1  0
 16 17  1  0
 16 37  1  0
 16 38  1  0
 17 39  1  0
 18 19  1  0
 18 21  1  0
 18 40  1  1
 19 20  1  0
 19 41  1  0
 19 42  1  0
 20 21  1  0
 20 43  1  0
 21 44  1  0
 21 45  1  0
M  END

