
     RDKit          3D

130145  0  0  0  0  0  0  0  0999 V2000
    1.1567    1.3443   -1.3235 N   0  0  0  0  0  0  0  0  0  0  0  0
    2.3024    1.1523   -1.3589 C   0  0  0  0  0  0  0  0  0  0  0  0
    3.7328    1.0043   -1.3639 C   0  0  0  0  0  0  0  0  0  0  0  0
    4.2946   -0.1914   -1.7574 C   0  0  0  0  0  0  0  0  0  0  0  0
    5.7255   -0.3316   -1.7741 C   0  0  0  0  0  0  0  0  0  0  0  0
    6.8719   -0.5132   -1.8316 N   0  0  0  0  0  0  0  0  0  0  0  0
    3.5616   -1.4047   -2.2089 C   0  0  0  0  0  0  0  0  0  0  0  0
    2.4113   -1.3240   -3.0226 C   0  0  0  0  0  0  0  0  0  0  0  0
    1.7401   -2.4722   -3.4421 C   0  0  0  0  0  0  0  0  0  0  0  0
    2.2158   -3.7280   -3.0482 C   0  0  0  0  0  0  0  0  0  0  0  0
    3.3761   -3.8199   -2.2490 C   0  0  0  0  0  0  0  0  0  0  0  0
    4.0526   -2.6797   -1.8437 C   0  0  0  0  0  0  0  0  0  0  0  0
    3.7111   -5.2852   -1.9481 C   0  0  1  0  0  0  0  0  0  0  0  0
    5.1180   -5.7052   -2.3880 C   0  0  0  0  0  0  0  0  0  0  0  0
    5.6869   -5.6422   -3.6571 C   0  0  0  0  0  0  0  0  0  0  0  0
    7.0037   -6.0881   -3.8315 C   0  0  0  0  0  0  0  0  0  0  0  0
    7.7360   -6.5895   -2.7469 C   0  0  0  0  0  0  0  0  0  0  0  0
    7.1667   -6.6529   -1.4710 C   0  0  0  0  0  0  0  0  0  0  0  0
    5.8523   -6.2077   -1.2939 C   0  0  0  0  0  0  0  0  0  0  0  0
    5.0055   -6.1492   -0.0925 C   0  0  0  0  0  0  0  0  0  0  0  0
    5.2618   -6.5201    1.2319 C   0  0  0  0  0  0  0  0  0  0  0  0
    4.2568   -6.3477    2.1894 C   0  0  0  0  0  0  0  0  0  0  0  0
    3.0126   -5.8120    1.8303 C   0  0  0  0  0  0  0  0  0  0  0  0
    2.7528   -5.4402    0.5043 C   0  0  0  0  0  0  0  0  0  0  0  0
    3.7518   -5.6115   -0.4502 C   0  0  0  0  0  0  0  0  0  0  0  0
    2.5864   -6.0087   -2.6986 C   0  0  0  0  0  0  0  0  0  0  0  0
    2.3711   -7.3758   -2.8095 C   0  0  0  0  0  0  0  0  0  0  0  0
    1.2666   -7.8426   -3.5514 C   0  0  0  0  0  0  0  0  0  0  0  0
    1.0219   -9.2346   -3.6750 N   0  0  0  0  0  0  0  0  0  0  0  0
    1.2248  -10.0858   -2.5594 C   0  0  0  0  0  0  0  0  0  0  0  0
    0.7784   -9.7282   -1.2750 C   0  0  0  0  0  0  0  0  0  0  0  0
    0.9899  -10.5622   -0.1779 C   0  0  0  0  0  0  0  0  0  0  0  0
    1.6353  -11.7926   -0.3411 C   0  0  0  0  0  0  0  0  0  0  0  0
    2.0753  -12.1758   -1.6096 C   0  0  0  0  0  0  0  0  0  0  0  0
    1.8779  -11.3239   -2.6917 C   0  0  0  0  0  0  0  0  0  0  0  0
    2.3237  -11.7043   -3.9003 F   0  0  0  0  0  0  0  0  0  0  0  0
    0.5788   -9.7607   -4.9145 C   0  0  0  0  0  0  0  0  0  0  0  0
    1.1688   -9.3683   -6.1291 C   0  0  0  0  0  0  0  0  0  0  0  0
    0.7218   -9.8776   -7.3477 C   0  0  0  0  0  0  0  0  0  0  0  0
   -0.3162  -10.8152   -7.3823 C   0  0  0  0  0  0  0  0  0  0  0  0
   -0.9078  -11.2312   -6.1880 C   0  0  0  0  0  0  0  0  0  0  0  0
   -0.4669  -10.6983   -4.9806 C   0  0  0  0  0  0  0  0  0  0  0  0
   -1.0603  -11.0991   -3.8446 F   0  0  0  0  0  0  0  0  0  0  0  0
    0.4042   -6.9120   -4.1705 C   0  0  0  0  0  0  0  0  0  0  0  0
    0.6353   -5.5412   -4.0694 C   0  0  0  0  0  0  0  0  0  0  0  0
    1.7302   -5.0809   -3.3282 C   0  0  0  0  0  0  0  0  0  0  0  0
    4.4663    2.2138   -0.9050 C   0  0  0  0  0  0  0  0  0  0  0  0
    3.9865    3.4895   -1.2788 C   0  0  0  0  0  0  0  0  0  0  0  0
    4.6340    4.6562   -0.8777 C   0  0  0  0  0  0  0  0  0  0  0  0
    5.7704    4.5610   -0.0653 C   0  0  0  0  0  0  0  0  0  0  0  0
    6.2398    3.2916    0.3382 C   0  0  0  0  0  0  0  0  0  0  0  0
    5.6038    2.1289   -0.0717 C   0  0  0  0  0  0  0  0  0  0  0  0
    7.4649    3.4339    1.2493 C   0  0  2  0  0  0  0  0  0  0  0  0
    8.7083    2.6983    0.7367 C   0  0  0  0  0  0  0  0  0  0  0  0
    9.3611    2.8411   -0.4844 C   0  0  0  0  0  0  0  0  0  0  0  0
   10.4930    2.0569   -0.7425 C   0  0  0  0  0  0  0  0  0  0  0  0
   10.9607    1.1443    0.2123 C   0  0  0  0  0  0  0  0  0  0  0  0
   10.3054    0.9978    1.4390 C   0  0  0  0  0  0  0  0  0  0  0  0
    9.1740    1.7785    1.6987 C   0  0  0  0  0  0  0  0  0  0  0  0
    8.2902    1.8381    2.8730 C   0  0  0  0  0  0  0  0  0  0  0  0
    8.3174    1.1330    4.0811 C   0  0  0  0  0  0  0  0  0  0  0  0
    7.3331    1.3950    5.0397 C   0  0  0  0  0  0  0  0  0  0  0  0
    6.3351    2.3483    4.7966 C   0  0  0  0  0  0  0  0  0  0  0  0
    6.3053    3.0562    3.5876 C   0  0  0  0  0  0  0  0  0  0  0  0
    7.2835    2.7961    2.6319 C   0  0  0  0  0  0  0  0  0  0  0  0
    7.6290    4.9580    1.2936 C   0  0  0  0  0  0  0  0  0  0  0  0
    8.5816    5.6953    1.9812 C   0  0  0  0  0  0  0  0  0  0  0  0
    8.5626    7.1038    1.8929 C   0  0  0  0  0  0  0  0  0  0  0  0
    9.5248    7.8747    2.5828 N   0  0  0  0  0  0  0  0  0  0  0  0
   10.8372    7.3752    2.7891 C   0  0  0  0  0  0  0  0  0  0  0  0
   11.6022    6.8328    1.7426 C   0  0  0  0  0  0  0  0  0  0  0  0
   12.8900    6.3455    1.9711 C   0  0  0  0  0  0  0  0  0  0  0  0
   13.4494    6.4100    3.2516 C   0  0  0  0  0  0  0  0  0  0  0  0
   12.7105    6.9535    4.3056 C   0  0  0  0  0  0  0  0  0  0  0  0
   11.4191    7.4143    4.0692 C   0  0  0  0  0  0  0  0  0  0  0  0
   10.7106    7.9155    5.0899 F   0  0  0  0  0  0  0  0  0  0  0  0
    9.2490    9.2085    2.9811 C   0  0  0  0  0  0  0  0  0  0  0  0
   10.1206   10.2621    2.6628 C   0  0  0  0  0  0  0  0  0  0  0  0
    9.8628   11.5662    3.0914 C   0  0  0  0  0  0  0  0  0  0  0  0
    8.7137   11.8460    3.8361 C   0  0  0  0  0  0  0  0  0  0  0  0
    7.8294   10.8128    4.1608 C   0  0  0  0  0  0  0  0  0  0  0  0
    8.1094    9.5155    3.7470 C   0  0  0  0  0  0  0  0  0  0  0  0
    7.2674    8.5303    4.0829 F   0  0  0  0  0  0  0  0  0  0  0  0
    7.5693    7.7325    1.1106 C   0  0  0  0  0  0  0  0  0  0  0  0
    6.6053    6.9855    0.4365 C   0  0  0  0  0  0  0  0  0  0  0  0
    6.6312    5.5889    0.5211 C   0  0  0  0  0  0  0  0  0  0  0  0
    2.0455   -0.3524   -3.3534 H   0  0  0  0  0  0  0  0  0  0  0  0
    0.8576   -2.3804   -4.0795 H   0  0  0  0  0  0  0  0  0  0  0  0
    4.9556   -2.7637   -1.2348 H   0  0  0  0  0  0  0  0  0  0  0  0
    5.1192   -5.2500   -4.5047 H   0  0  0  0  0  0  0  0  0  0  0  0
    7.4643   -6.0424   -4.8215 H   0  0  0  0  0  0  0  0  0  0  0  0
    8.7626   -6.9320   -2.8995 H   0  0  0  0  0  0  0  0  0  0  0  0
    7.7431   -7.0428   -0.6283 H   0  0  0  0  0  0  0  0  0  0  0  0
    6.2308   -6.9369    1.5178 H   0  0  0  0  0  0  0  0  0  0  0  0
    4.4439   -6.6319    3.2281 H   0  0  0  0  0  0  0  0  0  0  0  0
    2.2387   -5.6810    2.5909 H   0  0  0  0  0  0  0  0  0  0  0  0
    1.7822   -5.0204    0.2278 H   0  0  0  0  0  0  0  0  0  0  0  0
    3.0478   -8.0873   -2.3333 H   0  0  0  0  0  0  0  0  0  0  0  0
    0.2591   -8.7765   -1.1496 H   0  0  0  0  0  0  0  0  0  0  0  0
    0.6357  -10.2537    0.8083 H   0  0  0  0  0  0  0  0  0  0  0  0
    1.7961  -12.4534    0.5136 H   0  0  0  0  0  0  0  0  0  0  0  0
    2.5870  -13.1248   -1.7829 H   0  0  0  0  0  0  0  0  0  0  0  0
    1.9922   -8.6525   -6.1005 H   0  0  0  0  0  0  0  0  0  0  0  0
    1.1989   -9.5517   -8.2748 H   0  0  0  0  0  0  0  0  0  0  0  0
   -0.6640  -11.2242   -8.3335 H   0  0  0  0  0  0  0  0  0  0  0  0
   -1.7223  -11.9582   -6.1678 H   0  0  0  0  0  0  0  0  0  0  0  0
   -0.4563   -7.2775   -4.7331 H   0  0  0  0  0  0  0  0  0  0  0  0
   -0.0473   -4.8398   -4.5557 H   0  0  0  0  0  0  0  0  0  0  0  0
    3.0930    3.5625   -1.9025 H   0  0  0  0  0  0  0  0  0  0  0  0
    4.2475    5.6288   -1.1914 H   0  0  0  0  0  0  0  0  0  0  0  0
    5.9703    1.1614    0.2724 H   0  0  0  0  0  0  0  0  0  0  0  0
    8.9956    3.5480   -1.2336 H   0  0  0  0  0  0  0  0  0  0  0  0
   11.0113    2.1528   -1.6999 H   0  0  0  0  0  0  0  0  0  0  0  0
   11.8425    0.5368   -0.0066 H   0  0  0  0  0  0  0  0  0  0  0  0
   10.6714    0.2809    2.1783 H   0  0  0  0  0  0  0  0  0  0  0  0
    9.0933    0.3882    4.2757 H   0  0  0  0  0  0  0  0  0  0  0  0
    7.3422    0.8512    5.9879 H   0  0  0  0  0  0  0  0  0  0  0  0
    5.5736    2.5421    5.5562 H   0  0  0  0  0  0  0  0  0  0  0  0
    5.5268    3.8005    3.4018 H   0  0  0  0  0  0  0  0  0  0  0  0
    9.3339    5.1949    2.5925 H   0  0  0  0  0  0  0  0  0  0  0  0
   11.1649    6.7915    0.7432 H   0  0  0  0  0  0  0  0  0  0  0  0
   13.4618    5.9227    1.1421 H   0  0  0  0  0  0  0  0  0  0  0  0
   14.4595    6.0362    3.4336 H   0  0  0  0  0  0  0  0  0  0  0  0
   13.1086    7.0133    5.3205 H   0  0  0  0  0  0  0  0  0  0  0  0
   11.0119   10.0414    2.0722 H   0  0  0  0  0  0  0  0  0  0  0  0
   10.5591   12.3671    2.8326 H   0  0  0  0  0  0  0  0  0  0  0  0
    8.5032   12.8648    4.1689 H   0  0  0  0  0  0  0  0  0  0  0  0
    6.9276   10.9881    4.7510 H   0  0  0  0  0  0  0  0  0  0  0  0
    7.5614    8.8204    1.0294 H   0  0  0  0  0  0  0  0  0  0  0  0
    5.8468    7.4973   -0.1612 H   0  0  0  0  0  0  0  0  0  0  0  0
  1  2  3  0
  2  3  1  0
  3  4  2  0
  3 47  1  0
  4  5  1  0
  4  7  1  0
  5  6  3  0
  7  8  2  0
  7 12  1  0
  8  9  1  0
  8 87  1  0
  9 10  2  0
  9 88  1  0
 10 11  1  0
 10 46  1  0
 11 12  2  0
 13 11  1  1
 12 89  1  0
 13 14  1  0
 13 25  1  0
 13 26  1  0
 14 15  2  0
 14 19  1  0
 15 16  1  0
 15 90  1  0
 16 17  2  0
 16 91  1  0
 17 18  1  0
 17 92  1  0
 18 19  2  0
 18 93  1  0
 19 20  1  0
 20 21  2  0
 20 25  1  0
 21 22  1  0
 21 94  1  0
 22 23  2  0
 22 95  1  0
 23 24  1  0
 23 96  1  0
 24 25  2  0
 24 97  1  0
 26 27  1  0
 26 46  2  0
 27 28  2  0
 27 98  1  0
 28 29  1  0
 28 44  1  0
 29 30  1  0
 29 37  1  0
 30 31  2  0
 30 35  1  0
 31 32  1  0
 31 99  1  0
 32 33  2  0
 32100  1  0
 33 34  1  0
 33101  1  0
 34 35  2  0
 34102  1  0
 35 36  1  0
 37 38  2  0
 37 42  1  0
 38 39  1  0
 38103  1  0
 39 40  2  0
 39104  1  0
 40 41  1  0
 40105  1  0
 41 42  2  0
 41106  1  0
 42 43  1  0
 44 45  2  0
 44107  1  0
 45 46  1  0
 45108  1  0
 47 48  2  0
 47 52  1  0
 48 49  1  0
 48109  1  0
 49 50  2  0
 49110  1  0
 50 51  1  0
 50 86  1  0
 51 52  2  0
 53 51  1  6
 52111  1  0
 53 54  1  0
 53 65  1  0
 53 66  1  0
 54 55  2  0
 54 59  1  0
 55 56  1  0
 55112  1  0
 56 57  2  0
 56113  1  0
 57 58  1  0
 57114  1  0
 58 59  2  0
 58115  1  0
 59 60  1  0
 60 61  2  0
 60 65  1  0
 61 62  1  0
 61116  1  0
 62 63  2  0
 62117  1  0
 63 64  1  0
 63118  1  0
 64 65  2  0
 64119  1  0
 66 67  1  0
 66 86  2  0
 67 68  2  0
 67120  1  0
 68 69  1  0
 68 84  1  0
 69 70  1  0
 69 77  1  0
 70 71  2  0
 70 75  1  0
 71 72  1  0
 71121  1  0
 72 73  2  0
 72122  1  0
 73 74  1  0
 73123  1  0
 74 75  2  0
 74124  1  0
 75 76  1  0
 77 78  2  0
 77 82  1  0
 78 79  1  0
 78125  1  0
 79 80  2  0
 79126  1  0
 80 81  1  0
 80127  1  0
 81 82  2  0
 81128  1  0
 82 83  1  0
 84 85  2  0
 84129  1  0
 85 86  1  0
 85130  1  0
M  END

