
     RDKit          3D

 39 40  0  0  0  0  0  0  0  0999 V2000
   11.2271   -3.9775   -1.2173 C   0  0  0  0  0  0  0  0  0  0  0  0
   10.4197   -3.0793   -0.4655 O   0  0  0  0  0  0  0  0  0  0  0  0
    9.2900   -3.4576    0.1586 C   0  0  0  0  0  0  0  0  0  0  0  0
    8.5929   -2.4404    0.8435 C   0  0  0  0  0  0  0  0  0  0  0  0
    7.4156   -2.7019    1.5262 C   0  0  0  0  0  0  0  0  0  0  0  0
    6.8731   -4.0021    1.5570 C   0  0  0  0  0  0  0  0  0  0  0  0
    5.5835   -4.2104    2.2794 C   0  0  0  0  0  0  0  0  0  0  0  0
    5.0219   -3.2855    2.8371 O   0  0  0  0  0  0  0  0  0  0  0  0
    4.8933   -5.5848    2.2618 C   0  0  0  0  0  0  0  0  0  0  0  0
    5.7070   -6.6998    2.7398 N   0  0  0  0  0  0  0  0  0  0  0  0
    6.1747   -6.4596    4.1020 C   0  0  0  0  0  0  0  0  0  0  0  0
    5.0417   -7.9973    2.6074 C   0  0  1  0  0  0  0  0  0  0  0  0
    4.5371   -8.3001    1.1743 C   0  0  0  0  0  0  0  0  0  0  0  0
    4.1058   -9.7621    1.1526 C   0  0  0  0  0  0  0  0  0  0  0  0
    5.4607  -10.6316    2.0225 S   0  0  2  0  0  0  0  0  0  0  0  0
    6.5143  -10.9326    1.0432 O   0  0  0  0  0  0  0  0  0  0  0  0
    4.9261  -11.6701    2.9098 O   0  0  0  0  0  0  0  0  0  0  0  0
    5.9859   -9.1549    2.9951 C   0  0  0  0  0  0  0  0  0  0  0  0
    7.5595   -5.0248    0.8826 C   0  0  0  0  0  0  0  0  0  0  0  0
    8.7380   -4.7546    0.2010 C   0  0  0  0  0  0  0  0  0  0  0  0
    9.3559   -5.7804   -0.4235 F   0  0  0  0  0  0  0  0  0  0  0  0
   12.0555   -3.3714   -1.6072 H   0  0  0  0  0  0  0  0  0  0  0  0
   10.6703   -4.4189   -2.0580 H   0  0  0  0  0  0  0  0  0  0  0  0
   11.6303   -4.7862   -0.5890 H   0  0  0  0  0  0  0  0  0  0  0  0
    9.0213   -1.4366    0.8098 H   0  0  0  0  0  0  0  0  0  0  0  0
    6.8819   -1.9056    2.0475 H   0  0  0  0  0  0  0  0  0  0  0  0
    4.6005   -5.7690    1.2160 H   0  0  0  0  0  0  0  0  0  0  0  0
    3.9621   -5.4510    2.8520 H   0  0  0  0  0  0  0  0  0  0  0  0
    6.7035   -5.4973    4.1550 H   0  0  0  0  0  0  0  0  0  0  0  0
    6.8862   -7.2369    4.4129 H   0  0  0  0  0  0  0  0  0  0  0  0
    5.3448   -6.4315    4.8423 H   0  0  0  0  0  0  0  0  0  0  0  0
    4.1526   -8.0450    3.2797 H   0  0  0  0  0  0  0  0  0  0  0  0
    5.3573   -8.1393    0.4551 H   0  0  0  0  0  0  0  0  0  0  0  0
    3.6989   -7.6498    0.8871 H   0  0  0  0  0  0  0  0  0  0  0  0
    4.0258  -10.2055    0.1515 H   0  0  0  0  0  0  0  0  0  0  0  0
    3.1869   -9.9486    1.7271 H   0  0  0  0  0  0  0  0  0  0  0  0
    7.0190   -8.9505    2.6831 H   0  0  0  0  0  0  0  0  0  0  0  0
    5.9490   -9.4448    4.0521 H   0  0  0  0  0  0  0  0  0  0  0  0
    7.2054   -6.0549    0.9077 H   0  0  0  0  0  0  0  0  0  0  0  0
  1  2  1  0
  1 22  1  0
  1 23  1  0
  1 24  1  0
  2  3  1  0
  3  4  2  0
  3 20  1  0
  4  5  1  0
  4 25  1  0
  5  6  2  0
  5 26  1  0
  6  7  1  0
  6 19  1  0
  7  8  2  0
  7  9  1  0
  9 10  1  0
  9 27  1  0
  9 28  1  0
 10 11  1  0
 10 12  1  0
 11 29  1  0
 11 30  1  0
 11 31  1  0
 12 13  1  0
 12 18  1  0
 12 32  1  1
 13 14  1  0
 13 33  1  0
 13 34  1  0
 15 14  1  6
 14 35  1  0
 14 36  1  0
 15 16  2  0
 15 17  2  0
 15 18  1  0
 18 37  1  0
 18 38  1  0
 19 20  2  0
 19 39  1  0
 20 21  1  0
M  END

