
     RDKit          3D

 47 47  0  0  0  0  0  0  0  0999 V2000
    3.9320    1.8428   -0.9351 C   0  0  0  0  0  0  0  0  0  0  0  0
    4.2589    1.0639    0.1848 O   0  0  0  0  0  0  0  0  0  0  0  0
    3.1880    0.8495    1.0676 C   0  0  0  0  0  0  0  0  0  0  0  0
    3.6983    0.1419    2.3068 C   0  0  0  0  0  0  0  0  0  0  0  0
    4.4637    0.9979    3.1608 O   0  0  0  0  0  0  0  0  0  0  0  0
    5.7810    1.1962    2.9076 C   0  0  0  0  0  0  0  0  0  0  0  0
    6.7650    0.2222    3.1627 C   0  0  0  0  0  0  0  0  0  0  0  0
    6.2734   -1.3343    3.7926 Cl  0  0  0  0  0  0  0  0  0  0  0  0
    8.1279    0.4488    2.9666 C   0  0  0  0  0  0  0  0  0  0  0  0
    8.5581    1.7046    2.5111 C   0  0  0  0  0  0  0  0  0  0  0  0
    9.9070    2.0333    2.2904 N   0  0  0  0  0  0  0  0  0  0  0  0
   11.0246    1.2161    2.4193 C   0  0  0  0  0  0  0  0  0  0  0  0
   10.9640    0.0449    2.7683 O   0  0  0  0  0  0  0  0  0  0  0  0
   12.2031    1.8516    2.1050 N   0  0  0  0  0  0  0  0  0  0  0  0
   13.5483    1.2468    2.2258 C   0  0  1  0  0  0  0  0  0  0  0  0
   14.5426    2.3403    1.8045 C   0  0  0  0  0  0  0  0  0  0  0  0
   13.8149    0.8336    3.6859 C   0  0  0  0  0  0  0  0  0  0  0  0
   13.6206    0.0364    1.2539 C   0  0  0  0  0  0  0  0  0  0  0  0
   14.9217   -0.7774    1.2822 C   0  0  0  0  0  0  0  0  0  0  0  0
   14.9805   -1.8860    0.2360 C   0  0  0  0  0  0  0  0  0  0  0  0
   15.9242   -2.0824   -0.4790 O   0  0  0  0  0  0  0  0  0  0  0  0
   13.8880   -2.6816    0.1590 O   0  0  0  0  0  0  0  0  0  0  0  0
    7.6013    2.7057    2.2715 C   0  0  0  0  0  0  0  0  0  0  0  0
    6.2464    2.4483    2.4633 C   0  0  0  0  0  0  0  0  0  0  0  0
    5.1003    3.7299    2.1640 Cl  0  0  0  0  0  0  0  0  0  0  0  0
    4.8317    1.9220   -1.5628 H   0  0  0  0  0  0  0  0  0  0  0  0
    3.6124    2.8639   -0.6470 H   0  0  0  0  0  0  0  0  0  0  0  0
    3.1221    1.3834   -1.5380 H   0  0  0  0  0  0  0  0  0  0  0  0
    2.4041    0.2167    0.5954 H   0  0  0  0  0  0  0  0  0  0  0  0
    2.7109    1.8067    1.3592 H   0  0  0  0  0  0  0  0  0  0  0  0
    4.2845   -0.7438    2.0152 H   0  0  0  0  0  0  0  0  0  0  0  0
    2.8451   -0.1924    2.9158 H   0  0  0  0  0  0  0  0  0  0  0  0
    8.8513   -0.3343    3.1727 H   0  0  0  0  0  0  0  0  0  0  0  0
   10.0596    2.9826    1.9732 H   0  0  0  0  0  0  0  0  0  0  0  0
   12.1779    2.8377    1.8775 H   0  0  0  0  0  0  0  0  0  0  0  0
   14.4597    3.2186    2.4659 H   0  0  0  0  0  0  0  0  0  0  0  0
   14.3634    2.6644    0.7662 H   0  0  0  0  0  0  0  0  0  0  0  0
   15.5776    1.9778    1.8713 H   0  0  0  0  0  0  0  0  0  0  0  0
   13.6855    1.7019    4.3507 H   0  0  0  0  0  0  0  0  0  0  0  0
   14.8446    0.4668    3.8125 H   0  0  0  0  0  0  0  0  0  0  0  0
   13.1144    0.0496    4.0042 H   0  0  0  0  0  0  0  0  0  0  0  0
   13.4451    0.4162    0.2331 H   0  0  0  0  0  0  0  0  0  0  0  0
   12.7639   -0.6089    1.5041 H   0  0  0  0  0  0  0  0  0  0  0  0
   15.0524   -1.2543    2.2697 H   0  0  0  0  0  0  0  0  0  0  0  0
   15.8077   -0.1531    1.1050 H   0  0  0  0  0  0  0  0  0  0  0  0
   13.2074   -2.3931    0.7847 H   0  0  0  0  0  0  0  0  0  0  0  0
    7.9025    3.6970    1.9263 H   0  0  0  0  0  0  0  0  0  0  0  0
  1  2  1  0
  1 26  1  0
  1 27  1  0
  1 28  1  0
  2  3  1  0
  3  4  1  0
  3 29  1  0
  3 30  1  0
  4  5  1  0
  4 31  1  0
  4 32  1  0
  5  6  1  0
  6  7  2  0
  6 24  1  0
  7  8  1  0
  7  9  1  0
  9 10  2  0
  9 33  1  0
 10 11  1  0
 10 23  1  0
 11 12  1  0
 11 34  1  0
 12 13  2  0
 12 14  1  0
 15 14  1  1
 14 35  1  0
 15 16  1  0
 15 17  1  0
 15 18  1  0
 16 36  1  0
 16 37  1  0
 16 38  1  0
 17 39  1  0
 17 40  1  0
 17 41  1  0
 18 19  1  0
 18 42  1  0
 18 43  1  0
 19 20  1  0
 19 44  1  0
 19 45  1  0
 20 21  2  0
 20 22  1  0
 22 46  1  0
 23 24  2  0
 23 47  1  0
 24 25  1  0
M  END

