
     RDKit          3D

 16 16  0  0  0  0  0  0  0  0999 V2000
    0.8969    0.0263    0.0517 F   0  0  0  0  0  0  0  0  0  0  0  0
    2.2034    0.2603    0.1742 C   0  0  1  0  0  0  0  0  0  0  0  0
    2.3766    1.0782    1.2263 F   0  0  0  0  0  0  0  0  0  0  0  0
    3.0534   -1.2771    0.4972 Cl  0  0  0  0  0  0  0  0  0  0  0  0
    2.7390    0.9896   -1.0966 C   0  0  2  0  0  0  0  0  0  0  0  0
    1.9775    2.1185   -1.1998 F   0  0  0  0  0  0  0  0  0  0  0  0
    2.4068   -0.0373   -2.5397 Cl  0  0  0  0  0  0  0  0  0  0  0  0
    4.2082    1.3752   -1.0093 C   0  0  0  0  0  0  0  0  0  0  0  0
    4.6829    2.2174   -2.1753 C   0  0  1  0  0  0  0  0  0  0  0  0
    4.6699    1.7145   -3.1513 H   0  0  0  0  0  0  0  0  0  0  0  0
    4.6077    3.6840   -2.1446 C   0  0  0  0  0  0  0  0  0  0  0  0
    5.8381    3.0030   -1.9238 O   0  0  0  0  0  0  0  0  0  0  0  0
    4.8129    0.4598   -0.9328 H   0  0  0  0  0  0  0  0  0  0  0  0
    4.3477    1.9448   -0.0774 H   0  0  0  0  0  0  0  0  0  0  0  0
    4.1730    4.1826   -1.2684 H   0  0  0  0  0  0  0  0  0  0  0  0
    4.5331    4.2435   -3.0860 H   0  0  0  0  0  0  0  0  0  0  0  0
  2  1  1  6
  2  3  1  0
  2  4  1  0
  2  5  1  0
  5  6  1  6
  5  7  1  0
  5  8  1  0
  8  9  1  0
  8 13  1  0
  8 14  1  0
  9 10  1  6
  9 11  1  0
  9 12  1  0
 11 12  1  0
 11 15  1  0
 11 16  1  0
M  END

