
     RDKit          3D

 66 70  0  0  0  0  0  0  0  0999 V2000
    2.0792    1.4179    1.2682 C   0  0  0  0  0  0  0  0  0  0  0  0
    1.2873    0.2234    1.8276 C   0  0  1  0  0  0  0  0  0  0  0  0
    0.0449   -0.0739    0.9698 C   0  0  0  0  0  0  0  0  0  0  0  0
    2.1634   -1.0099    2.0057 C   0  0  0  0  0  0  0  0  0  0  0  0
    2.3756   -1.5690    3.2738 C   0  0  0  0  0  0  0  0  0  0  0  0
    3.1765   -2.7009    3.4437 C   0  0  0  0  0  0  0  0  0  0  0  0
    3.8017   -3.3300    2.3551 C   0  0  0  0  0  0  0  0  0  0  0  0
    4.6447   -4.5747    2.6063 C   0  0  1  0  0  0  0  0  0  0  0  0
    3.9278   -5.8972    2.2427 C   0  0  0  0  0  0  0  0  0  0  0  0
    3.9582   -6.1926    0.7293 C   0  0  2  0  0  0  0  0  0  0  0  0
    3.3601   -7.5292    0.4316 C   0  0  0  0  0  0  0  0  0  0  0  0
    3.7352   -8.6986    0.8550 N   0  0  0  0  0  0  0  0  0  0  0  0
    2.8295   -9.5494    0.2558 C   0  0  0  0  0  0  0  0  0  0  0  0
    2.8476  -11.0094    0.4370 C   0  0  0  0  0  0  0  0  0  0  0  0
    3.8259  -11.5975    1.2548 C   0  0  0  0  0  0  0  0  0  0  0  0
    3.8508  -12.9822    1.4324 C   0  0  0  0  0  0  0  0  0  0  0  0
    2.9021  -13.7892    0.7971 C   0  0  0  0  0  0  0  0  0  0  0  0
    1.9252  -13.2064   -0.0192 C   0  0  0  0  0  0  0  0  0  0  0  0
    1.8951  -11.8242   -0.2005 C   0  0  0  0  0  0  0  0  0  0  0  0
    1.9451   -8.9298   -0.4943 N   0  0  0  0  0  0  0  0  0  0  0  0
    2.2948   -7.5926   -0.3805 O   0  0  0  0  0  0  0  0  0  0  0  0
    5.4114   -6.1305    0.2082 C   0  0  0  0  0  0  0  0  0  0  0  0
    6.0300   -4.8532    0.5397 N   0  0  0  0  0  0  0  0  0  0  0  0
    6.6627   -4.1435   -0.4665 C   0  0  0  0  0  0  0  0  0  0  0  0
    6.6450   -4.5434   -1.6213 O   0  0  0  0  0  0  0  0  0  0  0  0
    7.4144   -2.8640   -0.0859 C   0  0  1  0  0  0  0  0  0  0  0  0
    8.8417   -3.1833    0.4521 C   0  0  0  0  0  0  0  0  0  0  0  0
    9.6821   -1.9730    0.0272 C   0  0  0  0  0  0  0  0  0  0  0  0
    9.1648   -1.6785   -1.3872 C   0  0  0  0  0  0  0  0  0  0  0  0
    7.6406   -1.9151   -1.3002 C   0  0  0  0  0  0  0  0  0  0  0  0
    6.0518   -4.5509    1.9649 C   0  0  0  0  0  0  0  0  0  0  0  0
    3.5889   -2.7685    1.0821 C   0  0  0  0  0  0  0  0  0  0  0  0
    2.7899   -1.6347    0.9155 C   0  0  0  0  0  0  0  0  0  0  0  0
    1.4422    2.3157    1.2103 H   0  0  0  0  0  0  0  0  0  0  0  0
    2.4544    1.2120    0.2522 H   0  0  0  0  0  0  0  0  0  0  0  0
    2.9471    1.6563    1.9029 H   0  0  0  0  0  0  0  0  0  0  0  0
    0.9318    0.5070    2.8336 H   0  0  0  0  0  0  0  0  0  0  0  0
    0.3242   -0.3516   -0.0599 H   0  0  0  0  0  0  0  0  0  0  0  0
   -0.6084    0.8119    0.9088 H   0  0  0  0  0  0  0  0  0  0  0  0
   -0.5439   -0.9036    1.3910 H   0  0  0  0  0  0  0  0  0  0  0  0
    1.9070   -1.1088    4.1489 H   0  0  0  0  0  0  0  0  0  0  0  0
    3.3201   -3.1045    4.4508 H   0  0  0  0  0  0  0  0  0  0  0  0
    4.8181   -4.6087    3.6942 H   0  0  0  0  0  0  0  0  0  0  0  0
    2.8894   -5.8761    2.6082 H   0  0  0  0  0  0  0  0  0  0  0  0
    4.4330   -6.7315    2.7587 H   0  0  0  0  0  0  0  0  0  0  0  0
    3.3546   -5.4467    0.1911 H   0  0  0  0  0  0  0  0  0  0  0  0
    4.5604  -10.9556    1.7440 H   0  0  0  0  0  0  0  0  0  0  0  0
    4.6152  -13.4337    2.0699 H   0  0  0  0  0  0  0  0  0  0  0  0
    2.9229  -14.8731    0.9368 H   0  0  0  0  0  0  0  0  0  0  0  0
    1.1826  -13.8346   -0.5174 H   0  0  0  0  0  0  0  0  0  0  0  0
    1.1371  -11.3619   -0.8357 H   0  0  0  0  0  0  0  0  0  0  0  0
    5.4527   -6.2478   -0.8809 H   0  0  0  0  0  0  0  0  0  0  0  0
    5.9844   -6.9587    0.6663 H   0  0  0  0  0  0  0  0  0  0  0  0
    6.8539   -2.3211    0.6887 H   0  0  0  0  0  0  0  0  0  0  0  0
    9.2276   -4.0890   -0.0463 H   0  0  0  0  0  0  0  0  0  0  0  0
    8.8615   -3.3742    1.5367 H   0  0  0  0  0  0  0  0  0  0  0  0
   10.7660   -2.1666    0.0691 H   0  0  0  0  0  0  0  0  0  0  0  0
    9.4755   -1.1182    0.6960 H   0  0  0  0  0  0  0  0  0  0  0  0
    9.6150   -2.3946   -2.0955 H   0  0  0  0  0  0  0  0  0  0  0  0
    9.4217   -0.6684   -1.7424 H   0  0  0  0  0  0  0  0  0  0  0  0
    7.2417   -2.3640   -2.2190 H   0  0  0  0  0  0  0  0  0  0  0  0
    7.1077   -0.9660   -1.1311 H   0  0  0  0  0  0  0  0  0  0  0  0
    6.5229   -3.5789    2.1412 H   0  0  0  0  0  0  0  0  0  0  0  0
    6.6724   -5.3107    2.4803 H   0  0  0  0  0  0  0  0  0  0  0  0
    4.0534   -3.2129    0.2017 H   0  0  0  0  0  0  0  0  0  0  0  0
    2.6552   -1.2345   -0.0931 H   0  0  0  0  0  0  0  0  0  0  0  0
  1  2  1  0
  1 34  1  0
  1 35  1  0
  1 36  1  0
  2  3  1  0
  2  4  1  0
  2 37  1  1
  3 38  1  0
  3 39  1  0
  3 40  1  0
  4  5  2  0
  4 33  1  0
  5  6  1  0
  5 41  1  0
  6  7  2  0
  6 42  1  0
  7  8  1  0
  7 32  1  0
  8  9  1  0
  8 31  1  0
  8 43  1  1
  9 10  1  0
  9 44  1  0
  9 45  1  0
 10 11  1  0
 10 22  1  0
 10 46  1  6
 11 12  2  0
 11 21  1  0
 12 13  1  0
 13 14  1  0
 13 20  2  0
 14 15  2  0
 14 19  1  0
 15 16  1  0
 15 47  1  0
 16 17  2  0
 16 48  1  0
 17 18  1  0
 17 49  1  0
 18 19  2  0
 18 50  1  0
 19 51  1  0
 20 21  1  0
 22 23  1  0
 22 52  1  0
 22 53  1  0
 23 24  1  0
 23 31  1  0
 24 25  2  0
 24 26  1  0
 26 27  1  0
 26 30  1  0
 26 54  1  1
 27 28  1  0
 27 55  1  0
 27 56  1  0
 28 29  1  0
 28 57  1  0
 28 58  1  0
 29 30  1  0
 29 59  1  0
 29 60  1  0
 30 61  1  0
 30 62  1  0
 31 63  1  0
 31 64  1  0
 32 33  2  0
 32 65  1  0
 33 66  1  0
M  END

