
     RDKit          3D

 48 50  0  0  0  0  0  0  0  0999 V2000
   -0.7778   -0.0294    1.7864 N   0  0  0  0  0  0  0  0  0  0  0  0
    0.5953    0.1063    1.3042 C   0  0  0  0  0  0  0  0  0  0  0  0
    1.5732   -0.0720    2.4298 C   0  0  0  0  0  0  0  0  0  0  0  0
    2.5650    0.7873    2.7221 C   0  0  0  0  0  0  0  0  0  0  0  0
    3.5659    0.6760    3.7935 C   0  0  0  0  0  0  0  0  0  0  0  0
    3.6316   -0.4084    4.6911 C   0  0  0  0  0  0  0  0  0  0  0  0
    4.5897   -0.4827    5.6982 C   0  0  0  0  0  0  0  0  0  0  0  0
    5.5361    0.5506    5.8421 C   0  0  0  0  0  0  0  0  0  0  0  0
    6.5368    0.5556    6.8331 N   0  0  0  0  0  0  0  0  0  0  0  0
    6.8095   -0.3895    7.8007 C   0  0  0  0  0  0  0  0  0  0  0  0
    6.2065   -1.4398    7.9228 O   0  0  0  0  0  0  0  0  0  0  0  0
    7.9265    0.0074    8.7408 C   0  0  0  0  0  0  0  0  0  0  0  0
    7.8929    1.2762    9.3417 C   0  0  0  0  0  0  0  0  0  0  0  0
    8.8277    1.6440   10.3116 C   0  0  0  0  0  0  0  0  0  0  0  0
    9.8162    0.7340   10.6887 C   0  0  0  0  0  0  0  0  0  0  0  0
    9.8629   -0.5279   10.0926 C   0  0  0  0  0  0  0  0  0  0  0  0
    8.9305   -0.9187    9.1159 C   0  0  0  0  0  0  0  0  0  0  0  0
    9.0682   -2.2671    8.4944 C   0  0  0  0  0  0  0  0  0  0  0  0
    9.2154   -3.4081    9.2989 C   0  0  0  0  0  0  0  0  0  0  0  0
    9.3932   -4.6711    8.7311 C   0  0  0  0  0  0  0  0  0  0  0  0
    9.4356   -4.8121    7.3420 C   0  0  0  0  0  0  0  0  0  0  0  0
    9.6160   -6.1637    6.6991 C   0  0  1  0  0  0  0  0  0  0  0  0
    9.8617   -7.1291    7.6011 F   0  0  0  0  0  0  0  0  0  0  0  0
    8.5222   -6.5338    6.0061 F   0  0  0  0  0  0  0  0  0  0  0  0
   10.6416   -6.1608    5.8247 F   0  0  0  0  0  0  0  0  0  0  0  0
    9.2968   -3.6817    6.5251 C   0  0  0  0  0  0  0  0  0  0  0  0
    9.1141   -2.4265    7.0972 C   0  0  0  0  0  0  0  0  0  0  0  0
    5.4878    1.6398    4.9547 C   0  0  0  0  0  0  0  0  0  0  0  0
    4.5225    1.6967    3.9539 C   0  0  0  0  0  0  0  0  0  0  0  0
   -1.4360   -0.0063    1.0077 H   0  0  0  0  0  0  0  0  0  0  0  0
   -1.0161    0.7542    2.3954 H   0  0  0  0  0  0  0  0  0  0  0  0
    0.8161    1.0600    0.7768 H   0  0  0  0  0  0  0  0  0  0  0  0
    0.7607   -0.6986    0.5624 H   0  0  0  0  0  0  0  0  0  0  0  0
    1.4159   -0.9745    3.0312 H   0  0  0  0  0  0  0  0  0  0  0  0
    2.6608    1.6857    2.0988 H   0  0  0  0  0  0  0  0  0  0  0  0
    2.9136   -1.2267    4.6035 H   0  0  0  0  0  0  0  0  0  0  0  0
    4.6230   -1.3323    6.3759 H   0  0  0  0  0  0  0  0  0  0  0  0
    7.1629    1.3520    6.8073 H   0  0  0  0  0  0  0  0  0  0  0  0
    7.0947    1.9739    9.0746 H   0  0  0  0  0  0  0  0  0  0  0  0
    8.7751    2.6317   10.7756 H   0  0  0  0  0  0  0  0  0  0  0  0
   10.5578    1.0057   11.4440 H   0  0  0  0  0  0  0  0  0  0  0  0
   10.6561   -1.2258   10.3706 H   0  0  0  0  0  0  0  0  0  0  0  0
    9.1685   -3.3104   10.3858 H   0  0  0  0  0  0  0  0  0  0  0  0
    9.4963   -5.5495    9.3697 H   0  0  0  0  0  0  0  0  0  0  0  0
    9.3381   -3.7846    5.4385 H   0  0  0  0  0  0  0  0  0  0  0  0
    9.0203   -1.5518    6.4497 H   0  0  0  0  0  0  0  0  0  0  0  0
    6.2157    2.4515    5.0513 H   0  0  0  0  0  0  0  0  0  0  0  0
    4.5074    2.5557    3.2773 H   0  0  0  0  0  0  0  0  0  0  0  0
  1  2  1  0
  1 30  1  0
  1 31  1  0
  2  3  1  0
  2 32  1  0
  2 33  1  0
  3  4  2  0
  3 34  1  0
  4  5  1  0
  4 35  1  0
  5  6  2  0
  5 29  1  0
  6  7  1  0
  6 36  1  0
  7  8  2  0
  7 37  1  0
  8  9  1  0
  8 28  1  0
  9 10  1  0
  9 38  1  0
 10 11  2  0
 10 12  1  0
 12 13  2  0
 12 17  1  0
 13 14  1  0
 13 39  1  0
 14 15  2  0
 14 40  1  0
 15 16  1  0
 15 41  1  0
 16 17  2  0
 16 42  1  0
 17 18  1  0
 18 19  2  0
 18 27  1  0
 19 20  1  0
 19 43  1  0
 20 21  2  0
 20 44  1  0
 21 22  1  0
 21 26  1  0
 22 23  1  1
 22 24  1  0
 22 25  1  0
 26 27  2  0
 26 45  1  0
 27 46  1  0
 28 29  2  0
 28 47  1  0
 29 48  1  0
M  END

