
     RDKit          3D

 43 45  0  0  0  0  0  0  0  0999 V2000
    2.7403    0.8199   -1.7200 C   0  0  0  0  0  0  0  0  0  0  0  0
    4.1670    0.9888   -1.5218 N   0  0  0  0  0  0  0  0  0  0  0  0
    4.9390    0.3285   -2.5581 C   0  0  0  0  0  0  0  0  0  0  0  0
    4.5651    2.3755   -1.3115 C   0  0  0  0  0  0  0  0  0  0  0  0
    4.2238    2.9047    0.0869 C   0  0  0  0  0  0  0  0  0  0  0  0
    4.8849    2.0958    1.2117 C   0  0  0  0  0  0  0  0  0  0  0  0
    6.3478    2.1449    1.1707 N   0  0  0  0  0  0  0  0  0  0  0  0
    7.0095    3.3856    1.3262 C   0  0  0  0  0  0  0  0  0  0  0  0
    6.4306    4.4600    2.0247 C   0  0  0  0  0  0  0  0  0  0  0  0
    7.1048    5.6778    2.1521 C   0  0  0  0  0  0  0  0  0  0  0  0
    8.3829    5.8410    1.6147 C   0  0  0  0  0  0  0  0  0  0  0  0
    8.9847    4.7729    0.9434 C   0  0  0  0  0  0  0  0  0  0  0  0
    8.2997    3.5655    0.7838 C   0  0  0  0  0  0  0  0  0  0  0  0
    9.0184    2.2473   -0.1771 S   0  0  0  0  0  0  0  0  0  0  0  0
    8.3971    0.8771    0.7711 C   0  0  0  0  0  0  0  0  0  0  0  0
    9.1614   -0.2841    0.9123 C   0  0  0  0  0  0  0  0  0  0  0  0
    8.6404   -1.4023    1.5652 C   0  0  0  0  0  0  0  0  0  0  0  0
    7.3546   -1.3333    2.1081 C   0  0  0  0  0  0  0  0  0  0  0  0
    6.7530   -2.5411    2.7803 C   0  0  1  0  0  0  0  0  0  0  0  0
    7.6916   -3.3252    3.3389 F   0  0  0  0  0  0  0  0  0  0  0  0
    5.8840   -2.1980    3.7502 F   0  0  0  0  0  0  0  0  0  0  0  0
    6.0727   -3.3103    1.9060 F   0  0  0  0  0  0  0  0  0  0  0  0
    6.5991   -0.1601    2.0056 C   0  0  0  0  0  0  0  0  0  0  0  0
    7.0952    0.9584    1.3159 C   0  0  0  0  0  0  0  0  0  0  0  0
    2.4898   -0.2515   -1.7737 H   0  0  0  0  0  0  0  0  0  0  0  0
    2.3703    1.3017   -2.6557 H   0  0  0  0  0  0  0  0  0  0  0  0
    2.1721    1.2476   -0.8800 H   0  0  0  0  0  0  0  0  0  0  0  0
    4.6726   -0.7397   -2.6039 H   0  0  0  0  0  0  0  0  0  0  0  0
    6.0144    0.3985   -2.3337 H   0  0  0  0  0  0  0  0  0  0  0  0
    4.7736    0.7585   -3.5737 H   0  0  0  0  0  0  0  0  0  0  0  0
    4.1216    3.0535   -2.0773 H   0  0  0  0  0  0  0  0  0  0  0  0
    5.6572    2.4345   -1.4407 H   0  0  0  0  0  0  0  0  0  0  0  0
    3.1341    2.8822    0.2578 H   0  0  0  0  0  0  0  0  0  0  0  0
    4.5138    3.9660    0.1403 H   0  0  0  0  0  0  0  0  0  0  0  0
    4.5954    1.0488    1.0641 H   0  0  0  0  0  0  0  0  0  0  0  0
    4.4926    2.4090    2.1974 H   0  0  0  0  0  0  0  0  0  0  0  0
    5.4428    4.3482    2.4723 H   0  0  0  0  0  0  0  0  0  0  0  0
    6.6253    6.5000    2.6889 H   0  0  0  0  0  0  0  0  0  0  0  0
    8.9135    6.7899    1.7197 H   0  0  0  0  0  0  0  0  0  0  0  0
    9.9894    4.8743    0.5258 H   0  0  0  0  0  0  0  0  0  0  0  0
   10.1702   -0.3116    0.4944 H   0  0  0  0  0  0  0  0  0  0  0  0
    9.2334   -2.3126    1.6619 H   0  0  0  0  0  0  0  0  0  0  0  0
    5.6171   -0.1226    2.4748 H   0  0  0  0  0  0  0  0  0  0  0  0
  1  2  1  0
  1 25  1  0
  1 26  1  0
  1 27  1  0
  2  3  1  0
  2  4  1  0
  3 28  1  0
  3 29  1  0
  3 30  1  0
  4  5  1  0
  4 31  1  0
  4 32  1  0
  5  6  1  0
  5 33  1  0
  5 34  1  0
  6  7  1  0
  6 35  1  0
  6 36  1  0
  7  8  1  0
  7 24  1  0
  8  9  1  0
  8 13  2  0
  9 10  2  0
  9 37  1  0
 10 11  1  0
 10 38  1  0
 11 12  2  0
 11 39  1  0
 12 13  1  0
 12 40  1  0
 13 14  1  0
 14 15  1  0
 15 16  1  0
 15 24  2  0
 16 17  2  0
 16 41  1  0
 17 18  1  0
 17 42  1  0
 18 19  1  0
 18 23  2  0
 19 20  1  1
 19 21  1  0
 19 22  1  0
 23 24  1  0
 23 43  1  0
M  END

