
     RDKit          3D

 40 41  0  0  0  0  0  0  0  0999 V2000
    1.0911    0.3668    1.4639 C   0  0  0  0  0  0  0  0  0  0  0  0
    2.5040    0.2886    0.9517 C   0  0  0  0  0  0  0  0  0  0  0  0
    2.8717    0.6739   -0.3448 C   0  0  0  0  0  0  0  0  0  0  0  0
    4.1937    0.5887   -0.7884 C   0  0  0  0  0  0  0  0  0  0  0  0
    5.1985    0.1179    0.0674 C   0  0  0  0  0  0  0  0  0  0  0  0
    6.6166   -0.0029   -0.4113 C   0  0  0  0  0  0  0  0  0  0  0  0
    6.9770   -1.7152   -0.9271 S   0  0  1  0  0  0  0  0  0  0  0  0
    7.1405   -2.5752    0.2451 O   0  0  0  0  0  0  0  0  0  0  0  0
    6.0945   -2.0806   -2.0284 O   0  0  0  0  0  0  0  0  0  0  0  0
    8.6069   -1.5565   -1.5083 N   0  0  0  0  0  0  0  0  0  0  0  0
    8.8920   -1.0478   -2.7613 C   0  0  0  0  0  0  0  0  0  0  0  0
    8.3243    0.0218   -3.2390 N   0  0  0  0  0  0  0  0  0  0  0  0
    8.7436    0.3342   -4.4899 N   0  0  0  0  0  0  0  0  0  0  0  0
    9.6433   -0.4621   -4.9757 C   0  0  0  0  0  0  0  0  0  0  0  0
   10.3142   -0.3039   -6.3285 C   0  0  1  0  0  0  0  0  0  0  0  0
    9.6818    0.8938   -7.0598 C   0  0  0  0  0  0  0  0  0  0  0  0
   11.8250   -0.0495   -6.1237 C   0  0  0  0  0  0  0  0  0  0  0  0
   10.1118   -1.5889   -7.1618 C   0  0  0  0  0  0  0  0  0  0  0  0
   10.0470   -1.7842   -3.8599 S   0  0  0  0  0  0  0  0  0  0  0  0
    4.8532   -0.2845    1.3671 C   0  0  0  0  0  0  0  0  0  0  0  0
    3.5305   -0.1881    1.7785 C   0  0  0  0  0  0  0  0  0  0  0  0
    3.2138   -0.5684    3.0291 F   0  0  0  0  0  0  0  0  0  0  0  0
    0.4135    0.7649    0.6955 H   0  0  0  0  0  0  0  0  0  0  0  0
    1.0236    1.0140    2.3538 H   0  0  0  0  0  0  0  0  0  0  0  0
    0.7225   -0.6264    1.7686 H   0  0  0  0  0  0  0  0  0  0  0  0
    2.0997    1.0480   -1.0223 H   0  0  0  0  0  0  0  0  0  0  0  0
    4.4467    0.8867   -1.8082 H   0  0  0  0  0  0  0  0  0  0  0  0
    7.3611    0.2091    0.3684 H   0  0  0  0  0  0  0  0  0  0  0  0
    6.8296    0.5967   -1.3077 H   0  0  0  0  0  0  0  0  0  0  0  0
    9.1755   -2.3194   -1.1493 H   0  0  0  0  0  0  0  0  0  0  0  0
    9.8074    1.8228   -6.4862 H   0  0  0  0  0  0  0  0  0  0  0  0
    8.6031    0.7441   -7.2104 H   0  0  0  0  0  0  0  0  0  0  0  0
   10.1608    1.0183   -8.0438 H   0  0  0  0  0  0  0  0  0  0  0  0
   11.9965    0.8618   -5.5300 H   0  0  0  0  0  0  0  0  0  0  0  0
   12.3207    0.0790   -7.0991 H   0  0  0  0  0  0  0  0  0  0  0  0
   12.3136   -0.8904   -5.6060 H   0  0  0  0  0  0  0  0  0  0  0  0
    9.0419   -1.7986   -7.3155 H   0  0  0  0  0  0  0  0  0  0  0  0
   10.5637   -2.4675   -6.6737 H   0  0  0  0  0  0  0  0  0  0  0  0
   10.5843   -1.4754   -8.1504 H   0  0  0  0  0  0  0  0  0  0  0  0
    5.5977   -0.6811    2.0600 H   0  0  0  0  0  0  0  0  0  0  0  0
  1  2  1  0
  1 23  1  0
  1 24  1  0
  1 25  1  0
  2  3  2  0
  2 21  1  0
  3  4  1  0
  3 26  1  0
  4  5  2  0
  4 27  1  0
  5  6  1  0
  5 20  1  0
  6  7  1  0
  6 28  1  0
  6 29  1  0
  7  8  2  0
  7  9  2  0
  7 10  1  6
 10 11  1  0
 10 30  1  0
 11 12  2  0
 11 19  1  0
 12 13  1  0
 13 14  2  0
 14 15  1  0
 14 19  1  0
 15 16  1  6
 15 17  1  0
 15 18  1  0
 16 31  1  0
 16 32  1  0
 16 33  1  0
 17 34  1  0
 17 35  1  0
 17 36  1  0
 18 37  1  0
 18 38  1  0
 18 39  1  0
 20 21  2  0
 20 40  1  0
 21 22  1  0
M  END

