
     RDKit          3D

 44 46  0  0  0  0  0  0  0  0999 V2000
    3.5321   -1.7296   -3.1172 C   0  0  0  0  0  0  0  0  0  0  0  0
    3.3974   -0.8086   -2.0704 O   0  0  0  0  0  0  0  0  0  0  0  0
    4.0986    0.3934   -2.2699 C   0  0  0  0  0  0  0  0  0  0  0  0
    3.8709    1.2918   -1.0565 C   0  0  0  0  0  0  0  0  0  0  0  0
    4.5411    2.5768   -1.2075 N   0  0  0  0  0  0  0  0  0  0  0  0
    3.7628    3.6121   -1.8848 C   0  0  0  0  0  0  0  0  0  0  0  0
    2.7690    4.3313   -0.9567 C   0  0  0  0  0  0  0  0  0  0  0  0
    3.4832    4.8836    0.2839 C   0  0  0  0  0  0  0  0  0  0  0  0
    4.2950    3.7856    0.9901 C   0  0  2  0  0  0  0  0  0  0  0  0
    5.1058    4.3007    2.1902 C   0  0  0  0  0  0  0  0  0  0  0  0
    4.3116    4.8935    3.2529 N   0  0  0  0  0  0  0  0  0  0  0  0
    3.5558    4.1765    4.1641 C   0  0  0  0  0  0  0  0  0  0  0  0
    2.9033    5.0275    5.0220 C   0  0  0  0  0  0  0  0  0  0  0  0
    3.2647    6.3630    4.6353 C   0  0  0  0  0  0  0  0  0  0  0  0
    2.9392    7.6459    5.1174 C   0  0  0  0  0  0  0  0  0  0  0  0
    3.4871    8.7631    4.4967 C   0  0  0  0  0  0  0  0  0  0  0  0
    4.3610    8.6255    3.3958 C   0  0  0  0  0  0  0  0  0  0  0  0
    4.7013    7.3720    2.8943 C   0  0  0  0  0  0  0  0  0  0  0  0
    4.1489    6.2428    3.5201 C   0  0  0  0  0  0  0  0  0  0  0  0
    5.2252    3.0967   -0.0334 C   0  0  0  0  0  0  0  0  0  0  0  0
    2.9461   -2.6244   -2.8594 H   0  0  0  0  0  0  0  0  0  0  0  0
    4.5880   -2.0333   -3.2728 H   0  0  0  0  0  0  0  0  0  0  0  0
    3.1528   -1.3263   -4.0790 H   0  0  0  0  0  0  0  0  0  0  0  0
    3.7531    0.9011   -3.1960 H   0  0  0  0  0  0  0  0  0  0  0  0
    5.1864    0.2120   -2.3948 H   0  0  0  0  0  0  0  0  0  0  0  0
    4.2716    0.7700   -0.1729 H   0  0  0  0  0  0  0  0  0  0  0  0
    2.7775    1.3771   -0.8893 H   0  0  0  0  0  0  0  0  0  0  0  0
    3.2394    3.1651   -2.7446 H   0  0  0  0  0  0  0  0  0  0  0  0
    4.4667    4.3564   -2.3032 H   0  0  0  0  0  0  0  0  0  0  0  0
    1.9777    3.6269   -0.6439 H   0  0  0  0  0  0  0  0  0  0  0  0
    2.2631    5.1442   -1.5047 H   0  0  0  0  0  0  0  0  0  0  0  0
    2.7612    5.3397    0.9799 H   0  0  0  0  0  0  0  0  0  0  0  0
    4.1732    5.6930   -0.0235 H   0  0  0  0  0  0  0  0  0  0  0  0
    3.5878    3.0229    1.3683 H   0  0  0  0  0  0  0  0  0  0  0  0
    5.8371    5.0524    1.8543 H   0  0  0  0  0  0  0  0  0  0  0  0
    5.6912    3.4687    2.6189 H   0  0  0  0  0  0  0  0  0  0  0  0
    3.5522    3.0878    4.1303 H   0  0  0  0  0  0  0  0  0  0  0  0
    2.2487    4.7349    5.8404 H   0  0  0  0  0  0  0  0  0  0  0  0
    2.2644    7.7583    5.9703 H   0  0  0  0  0  0  0  0  0  0  0  0
    3.2412    9.7632    4.8627 H   0  0  0  0  0  0  0  0  0  0  0  0
    4.7786    9.5201    2.9265 H   0  0  0  0  0  0  0  0  0  0  0  0
    5.3757    7.2817    2.0402 H   0  0  0  0  0  0  0  0  0  0  0  0
    5.7879    2.2776    0.4445 H   0  0  0  0  0  0  0  0  0  0  0  0
    5.9781    3.8366   -0.3711 H   0  0  0  0  0  0  0  0  0  0  0  0
  1  2  1  0
  1 21  1  0
  1 22  1  0
  1 23  1  0
  2  3  1  0
  3  4  1  0
  3 24  1  0
  3 25  1  0
  4  5  1  0
  4 26  1  0
  4 27  1  0
  5  6  1  0
  5 20  1  0
  6  7  1  0
  6 28  1  0
  6 29  1  0
  7  8  1  0
  7 30  1  0
  7 31  1  0
  8  9  1  0
  8 32  1  0
  8 33  1  0
  9 10  1  0
  9 20  1  0
  9 34  1  1
 10 11  1  0
 10 35  1  0
 10 36  1  0
 11 12  1  0
 11 19  1  0
 12 13  2  0
 12 37  1  0
 13 14  1  0
 13 38  1  0
 14 15  1  0
 14 19  2  0
 15 16  2  0
 15 39  1  0
 16 17  1  0
 16 40  1  0
 17 18  2  0
 17 41  1  0
 18 19  1  0
 18 42  1  0
 20 43  1  0
 20 44  1  0
M  END

