
     RDKit          3D

 70 73  0  0  0  0  0  0  0  0999 V2000
    4.8549    2.1503   -2.2258 C   0  0  0  0  0  0  0  0  0  0  0  0
    4.3607    1.1929   -1.1628 C   0  0  0  0  0  0  0  0  0  0  0  0
    5.3073    0.3486   -0.5172 C   0  0  0  0  0  0  0  0  0  0  0  0
    4.9320   -0.5373    0.4654 C   0  0  0  0  0  0  0  0  0  0  0  0
    3.5774   -0.6267    0.8818 C   0  0  0  0  0  0  0  0  0  0  0  0
    3.1698   -1.5237    1.9088 C   0  0  0  0  0  0  0  0  0  0  0  0
    1.8543   -1.5870    2.3137 C   0  0  0  0  0  0  0  0  0  0  0  0
    0.8910   -0.7448    1.7058 C   0  0  0  0  0  0  0  0  0  0  0  0
    1.2550    0.1331    0.7055 C   0  0  0  0  0  0  0  0  0  0  0  0
    2.6040    0.2187    0.2501 C   0  0  0  0  0  0  0  0  0  0  0  0
    3.0182    1.1120   -0.7958 C   0  0  0  0  0  0  0  0  0  0  0  0
    1.9838    1.9663   -1.4866 C   0  0  0  0  0  0  0  0  0  0  0  0
    1.6492    3.0718   -0.6454 O   0  0  0  0  0  0  0  0  0  0  0  0
    0.7331    3.9780   -1.0634 C   0  0  0  0  0  0  0  0  0  0  0  0
    0.0555    3.9202   -2.2937 C   0  0  0  0  0  0  0  0  0  0  0  0
   -0.8717    4.9118   -2.6176 C   0  0  0  0  0  0  0  0  0  0  0  0
   -1.1337    5.9795   -1.7501 C   0  0  0  0  0  0  0  0  0  0  0  0
   -2.1529    6.9937   -2.1775 C   0  0  0  0  0  0  0  0  0  0  0  0
   -2.9687    6.7589   -3.0628 O   0  0  0  0  0  0  0  0  0  0  0  0
   -2.1004    8.2036   -1.5362 N   0  0  0  0  0  0  0  0  0  0  0  0
   -3.1405    9.1882   -1.7060 C   0  0  0  0  0  0  0  0  0  0  0  0
   -3.9641    9.3636   -0.4039 C   0  0  1  0  0  0  0  0  0  0  0  0
   -3.0229    9.9493    0.6573 C   0  0  0  0  0  0  0  0  0  0  0  0
   -1.9966    9.3808    1.0562 O   0  0  0  0  0  0  0  0  0  0  0  0
   -3.3374   11.1695    1.1099 N   0  0  0  0  0  0  0  0  0  0  0  0
   -2.4658   11.8028    1.9665 O   0  0  0  0  0  0  0  0  0  0  0  0
   -5.1726   10.1906   -0.5290 N   0  0  0  0  0  0  0  0  0  0  0  0
   -5.7802   10.3799   -1.8524 C   0  0  0  0  0  0  0  0  0  0  0  0
   -6.6196    9.1814   -2.3195 C   0  0  0  0  0  0  0  0  0  0  0  0
   -7.6174    8.8170   -1.3019 N   0  0  0  0  0  0  0  0  0  0  0  0
   -9.1690    9.4745   -1.4364 S   0  0  1  0  0  0  0  0  0  0  0  0
  -10.1538    8.0938   -2.0341 C   0  0  0  0  0  0  0  0  0  0  0  0
   -9.6460    9.7962   -0.0870 O   0  0  0  0  0  0  0  0  0  0  0  0
   -9.1578   10.4860   -2.4990 O   0  0  0  0  0  0  0  0  0  0  0  0
   -7.0544    8.6324    0.0427 C   0  0  0  0  0  0  0  0  0  0  0  0
   -6.2084    9.8440    0.4582 C   0  0  0  0  0  0  0  0  0  0  0  0
   -0.4584    6.0195   -0.5143 C   0  0  0  0  0  0  0  0  0  0  0  0
    0.4605    5.0346   -0.1740 C   0  0  0  0  0  0  0  0  0  0  0  0
    5.9536    2.1537   -2.2658 H   0  0  0  0  0  0  0  0  0  0  0  0
    4.5262    3.1833   -2.0316 H   0  0  0  0  0  0  0  0  0  0  0  0
    4.4941    1.8755   -3.2318 H   0  0  0  0  0  0  0  0  0  0  0  0
    6.3570    0.4138   -0.8156 H   0  0  0  0  0  0  0  0  0  0  0  0
    5.6769   -1.1788    0.9443 H   0  0  0  0  0  0  0  0  0  0  0  0
    3.9253   -2.1624    2.3747 H   0  0  0  0  0  0  0  0  0  0  0  0
    1.5522   -2.2785    3.1042 H   0  0  0  0  0  0  0  0  0  0  0  0
   -0.1498   -0.7867    2.0370 H   0  0  0  0  0  0  0  0  0  0  0  0
    0.4961    0.7863    0.2738 H   0  0  0  0  0  0  0  0  0  0  0  0
    1.0749    1.3772   -1.7008 H   0  0  0  0  0  0  0  0  0  0  0  0
    2.3609    2.3393   -2.4512 H   0  0  0  0  0  0  0  0  0  0  0  0
    0.2386    3.1106   -3.0000 H   0  0  0  0  0  0  0  0  0  0  0  0
   -1.4161    4.8729   -3.5632 H   0  0  0  0  0  0  0  0  0  0  0  0
   -1.4725    8.3434   -0.7512 H   0  0  0  0  0  0  0  0  0  0  0  0
   -3.7740    8.8208   -2.5218 H   0  0  0  0  0  0  0  0  0  0  0  0
   -2.7172   10.1613   -2.0118 H   0  0  0  0  0  0  0  0  0  0  0  0
   -4.1968    8.3364   -0.0622 H   0  0  0  0  0  0  0  0  0  0  0  0
   -4.0833   11.7310    0.7118 H   0  0  0  0  0  0  0  0  0  0  0  0
   -1.7641   11.1212    2.0612 H   0  0  0  0  0  0  0  0  0  0  0  0
   -5.0124   10.6302   -2.5969 H   0  0  0  0  0  0  0  0  0  0  0  0
   -6.4522   11.2522   -1.7866 H   0  0  0  0  0  0  0  0  0  0  0  0
   -5.9857    8.2956   -2.5007 H   0  0  0  0  0  0  0  0  0  0  0  0
   -7.1329    9.4252   -3.2587 H   0  0  0  0  0  0  0  0  0  0  0  0
  -10.1153    7.2865   -1.2919 H   0  0  0  0  0  0  0  0  0  0  0  0
   -9.7527    7.7655   -3.0014 H   0  0  0  0  0  0  0  0  0  0  0  0
  -11.1804    8.4684   -2.1482 H   0  0  0  0  0  0  0  0  0  0  0  0
   -6.4445    7.7118    0.0238 H   0  0  0  0  0  0  0  0  0  0  0  0
   -7.8707    8.4785    0.7597 H   0  0  0  0  0  0  0  0  0  0  0  0
   -5.7364    9.6648    1.4367 H   0  0  0  0  0  0  0  0  0  0  0  0
   -6.8850   10.7078    0.5761 H   0  0  0  0  0  0  0  0  0  0  0  0
   -0.6688    6.8083    0.2130 H   0  0  0  0  0  0  0  0  0  0  0  0
    0.9817    5.0513    0.7851 H   0  0  0  0  0  0  0  0  0  0  0  0
  1  2  1  0
  1 39  1  0
  1 40  1  0
  1 41  1  0
  2  3  2  0
  2 11  1  0
  3  4  1  0
  3 42  1  0
  4  5  2  0
  4 43  1  0
  5  6  1  0
  5 10  1  0
  6  7  2  0
  6 44  1  0
  7  8  1  0
  7 45  1  0
  8  9  2  0
  8 46  1  0
  9 10  1  0
  9 47  1  0
 10 11  2  0
 11 12  1  0
 12 13  1  0
 12 48  1  0
 12 49  1  0
 13 14  1  0
 14 15  2  0
 14 38  1  0
 15 16  1  0
 15 50  1  0
 16 17  2  0
 16 51  1  0
 17 18  1  0
 17 37  1  0
 18 19  2  0
 18 20  1  0
 20 21  1  0
 20 52  1  0
 21 22  1  0
 21 53  1  0
 21 54  1  0
 22 23  1  0
 22 27  1  0
 22 55  1  1
 23 24  2  0
 23 25  1  0
 25 26  1  0
 25 56  1  0
 26 57  1  0
 27 28  1  0
 27 36  1  0
 28 29  1  0
 28 58  1  0
 28 59  1  0
 29 30  1  0
 29 60  1  0
 29 61  1  0
 30 31  1  0
 30 35  1  0
 31 32  1  6
 31 33  2  0
 31 34  2  0
 32 62  1  0
 32 63  1  0
 32 64  1  0
 35 36  1  0
 35 65  1  0
 35 66  1  0
 36 67  1  0
 36 68  1  0
 37 38  2  0
 37 69  1  0
 38 70  1  0
M  END

