
     RDKit          3D

 55 58  0  0  0  0  0  0  0  0999 V2000
    2.6273   -5.4842   -4.8419 C   0  0  0  0  0  0  0  0  0  0  0  0
    1.8043   -4.2922   -4.7503 N   0  0  0  0  0  0  0  0  0  0  0  0
    1.6531   -3.7373   -3.4097 C   0  0  0  0  0  0  0  0  0  0  0  0
    2.8529   -2.8924   -2.9568 C   0  0  0  0  0  0  0  0  0  0  0  0
    3.1482   -1.8554   -3.9497 N   0  0  0  0  0  0  0  0  0  0  0  0
    3.3242   -0.5581   -3.5245 C   0  0  0  0  0  0  0  0  0  0  0  0
    3.1925   -0.2564   -2.3429 O   0  0  0  0  0  0  0  0  0  0  0  0
    3.6579    0.5105   -4.5764 C   0  0  1  0  0  0  0  0  0  0  0  0
    2.3790    1.0058   -5.2988 C   0  0  0  0  0  0  0  0  0  0  0  0
    1.5308    1.9195   -4.4078 C   0  0  0  0  0  0  0  0  0  0  0  0
    2.3246    3.0469   -3.9220 N   0  0  0  0  0  0  0  0  0  0  0  0
    1.9824    4.3126   -4.3062 C   0  0  0  0  0  0  0  0  0  0  0  0
    1.0149    4.5564   -5.0159 O   0  0  0  0  0  0  0  0  0  0  0  0
    2.8689    5.4830   -3.8380 C   0  0  0  0  0  0  0  0  0  0  0  0
    4.1081    5.5695   -4.5919 N   0  0  0  0  0  0  0  0  0  0  0  0
    4.1878    5.5170   -5.9745 C   0  0  0  0  0  0  0  0  0  0  0  0
    5.4914    5.6660   -6.3791 C   0  0  0  0  0  0  0  0  0  0  0  0
    6.2824    5.8328   -5.1906 C   0  0  0  0  0  0  0  0  0  0  0  0
    7.6549    6.0294   -4.9439 C   0  0  0  0  0  0  0  0  0  0  0  0
    8.0965    6.1654   -3.6317 C   0  0  0  0  0  0  0  0  0  0  0  0
    7.1891    6.1125   -2.5515 C   0  0  0  0  0  0  0  0  0  0  0  0
    5.8254    5.9207   -2.7614 C   0  0  0  0  0  0  0  0  0  0  0  0
    5.3804    5.7756   -4.0850 C   0  0  0  0  0  0  0  0  0  0  0  0
    3.5005    2.6522   -3.1460 C   0  0  0  0  0  0  0  0  0  0  0  0
    4.4047    1.7099   -3.9545 C   0  0  0  0  0  0  0  0  0  0  0  0
    3.3251   -2.3717   -5.3055 C   0  0  0  0  0  0  0  0  0  0  0  0
    2.1169   -3.2420   -5.7061 C   0  0  0  0  0  0  0  0  0  0  0  0
    2.2291   -6.2589   -4.1668 H   0  0  0  0  0  0  0  0  0  0  0  0
    3.7018   -5.3477   -4.5875 H   0  0  0  0  0  0  0  0  0  0  0  0
    2.5825   -5.8857   -5.8672 H   0  0  0  0  0  0  0  0  0  0  0  0
    1.4804   -4.5567   -2.6935 H   0  0  0  0  0  0  0  0  0  0  0  0
    0.7520   -3.0972   -3.3977 H   0  0  0  0  0  0  0  0  0  0  0  0
    3.7464   -3.5324   -2.8249 H   0  0  0  0  0  0  0  0  0  0  0  0
    2.6570   -2.3923   -2.0006 H   0  0  0  0  0  0  0  0  0  0  0  0
    4.3277    0.0648   -5.3274 H   0  0  0  0  0  0  0  0  0  0  0  0
    1.7636    0.1571   -5.6394 H   0  0  0  0  0  0  0  0  0  0  0  0
    2.6770    1.5688   -6.1995 H   0  0  0  0  0  0  0  0  0  0  0  0
    1.1460    1.3566   -3.5392 H   0  0  0  0  0  0  0  0  0  0  0  0
    0.6781    2.3292   -4.9622 H   0  0  0  0  0  0  0  0  0  0  0  0
    3.1114    5.4110   -2.7700 H   0  0  0  0  0  0  0  0  0  0  0  0
    2.2574    6.3858   -3.9882 H   0  0  0  0  0  0  0  0  0  0  0  0
    3.2795    5.3782   -6.5588 H   0  0  0  0  0  0  0  0  0  0  0  0
    5.8458    5.6633   -7.4079 H   0  0  0  0  0  0  0  0  0  0  0  0
    8.3622    6.0773   -5.7762 H   0  0  0  0  0  0  0  0  0  0  0  0
    9.1594    6.3199   -3.4299 H   0  0  0  0  0  0  0  0  0  0  0  0
    7.5614    6.2294   -1.5306 H   0  0  0  0  0  0  0  0  0  0  0  0
    5.1340    5.8965   -1.9158 H   0  0  0  0  0  0  0  0  0  0  0  0
    3.1675    2.1338   -2.2342 H   0  0  0  0  0  0  0  0  0  0  0  0
    4.0752    3.5352   -2.8478 H   0  0  0  0  0  0  0  0  0  0  0  0
    5.2183    1.3547   -3.3039 H   0  0  0  0  0  0  0  0  0  0  0  0
    4.8677    2.2848   -4.7739 H   0  0  0  0  0  0  0  0  0  0  0  0
    4.2550   -2.9719   -5.3519 H   0  0  0  0  0  0  0  0  0  0  0  0
    3.4355   -1.5511   -6.0232 H   0  0  0  0  0  0  0  0  0  0  0  0
    2.2975   -3.6888   -6.6973 H   0  0  0  0  0  0  0  0  0  0  0  0
    1.2349   -2.5815   -5.7994 H   0  0  0  0  0  0  0  0  0  0  0  0
  1  2  1  0
  1 28  1  0
  1 29  1  0
  1 30  1  0
  2  3  1  0
  2 27  1  0
  3  4  1  0
  3 31  1  0
  3 32  1  0
  4  5  1  0
  4 33  1  0
  4 34  1  0
  5  6  1  0
  5 26  1  0
  6  7  2  0
  6  8  1  0
  8  9  1  0
  8 25  1  0
  8 35  1  6
  9 10  1  0
  9 36  1  0
  9 37  1  0
 10 11  1  0
 10 38  1  0
 10 39  1  0
 11 12  1  0
 11 24  1  0
 12 13  2  0
 12 14  1  0
 14 15  1  0
 14 40  1  0
 14 41  1  0
 15 16  1  0
 15 23  1  0
 16 17  2  0
 16 42  1  0
 17 18  1  0
 17 43  1  0
 18 19  1  0
 18 23  2  0
 19 20  2  0
 19 44  1  0
 20 21  1  0
 20 45  1  0
 21 22  2  0
 21 46  1  0
 22 23  1  0
 22 47  1  0
 24 25  1  0
 24 48  1  0
 24 49  1  0
 25 50  1  0
 25 51  1  0
 26 27  1  0
 26 52  1  0
 26 53  1  0
 27 54  1  0
 27 55  1  0
M  END

