
     RDKit          3D

 42 44  0  0  0  0  0  0  0  0999 V2000
   -0.6567    1.0916    3.4068 C   0  0  0  0  0  0  0  0  0  0  0  0
    0.6299    1.5973    4.5898 S   0  0  0  0  0  0  0  0  0  0  0  0
    2.0985    1.0500    3.7729 C   0  0  0  0  0  0  0  0  0  0  0  0
    1.9980    0.4305    2.5921 N   0  0  0  0  0  0  0  0  0  0  0  0
    3.1316    0.0305    2.0467 C   0  0  0  0  0  0  0  0  0  0  0  0
    3.0363   -0.7759    0.5000 Cl  0  0  0  0  0  0  0  0  0  0  0  0
    4.3783    0.2235    2.6426 C   0  0  0  0  0  0  0  0  0  0  0  0
    4.3732    0.8964    3.8765 C   0  0  0  0  0  0  0  0  0  0  0  0
    5.6634    1.2197    4.5662 C   0  0  2  0  0  0  0  0  0  0  0  0
    6.6149    0.1727    5.1126 C   0  0  2  0  0  0  0  0  0  0  0  0
    6.0749   -1.2268    5.3523 C   0  0  0  0  0  0  0  0  0  0  0  0
    4.8895   -1.0042    6.1742 N   0  0  0  0  0  0  0  0  0  0  0  0
    3.9187   -1.9626    6.2750 C   0  0  0  0  0  0  0  0  0  0  0  0
    3.9605   -3.0241    5.6809 O   0  0  0  0  0  0  0  0  0  0  0  0
    2.9390   -1.5592    7.1108 O   0  0  0  0  0  0  0  0  0  0  0  0
    1.7443   -2.3709    7.3550 C   0  0  1  0  0  0  0  0  0  0  0  0
    2.1391   -3.6949    8.0179 C   0  0  0  0  0  0  0  0  0  0  0  0
    0.9330   -1.4999    8.3166 C   0  0  0  0  0  0  0  0  0  0  0  0
    0.9766   -2.5862    6.0462 C   0  0  0  0  0  0  0  0  0  0  0  0
    4.8999    0.2858    6.8646 C   0  0  0  0  0  0  0  0  0  0  0  0
    5.8820    1.1135    6.0521 C   0  0  2  0  0  0  0  0  0  0  0  0
    6.3999    1.9312    6.5594 H   0  0  0  0  0  0  0  0  0  0  0  0
    3.2295    1.3135    4.4319 N   0  0  0  0  0  0  0  0  0  0  0  0
   -1.6109    1.4005    3.8565 H   0  0  0  0  0  0  0  0  0  0  0  0
   -0.6462    0.0042    3.2568 H   0  0  0  0  0  0  0  0  0  0  0  0
   -0.5172    1.5936    2.4405 H   0  0  0  0  0  0  0  0  0  0  0  0
    5.2984   -0.1219    2.1735 H   0  0  0  0  0  0  0  0  0  0  0  0
    6.1723    2.0717    4.0988 H   0  0  0  0  0  0  0  0  0  0  0  0
    7.6833    0.2809    4.9097 H   0  0  0  0  0  0  0  0  0  0  0  0
    6.8338   -1.8385    5.8773 H   0  0  0  0  0  0  0  0  0  0  0  0
    5.7938   -1.7741    4.4391 H   0  0  0  0  0  0  0  0  0  0  0  0
    2.7198   -3.5055    8.9346 H   0  0  0  0  0  0  0  0  0  0  0  0
    2.7417   -4.3102    7.3378 H   0  0  0  0  0  0  0  0  0  0  0  0
    1.2335   -4.2558    8.2976 H   0  0  0  0  0  0  0  0  0  0  0  0
    1.5052   -1.3009    9.2355 H   0  0  0  0  0  0  0  0  0  0  0  0
   -0.0041   -2.0075    8.5920 H   0  0  0  0  0  0  0  0  0  0  0  0
    0.6850   -0.5364    7.8464 H   0  0  0  0  0  0  0  0  0  0  0  0
    1.5628   -3.1867    5.3392 H   0  0  0  0  0  0  0  0  0  0  0  0
    0.7382   -1.6159    5.5832 H   0  0  0  0  0  0  0  0  0  0  0  0
    0.0294   -3.1085    6.2544 H   0  0  0  0  0  0  0  0  0  0  0  0
    5.2594    0.1912    7.9070 H   0  0  0  0  0  0  0  0  0  0  0  0
    3.8887    0.7119    6.8830 H   0  0  0  0  0  0  0  0  0  0  0  0
  1  2  1  0
  1 24  1  0
  1 25  1  0
  1 26  1  0
  2  3  1  0
  3  4  2  0
  3 23  1  0
  4  5  1  0
  5  6  1  0
  5  7  2  0
  7  8  1  0
  7 27  1  0
  8  9  1  0
  8 23  2  0
  9 10  1  0
  9 21  1  0
  9 28  1  6
 10 11  1  0
 10 21  1  0
 10 29  1  6
 11 12  1  0
 11 30  1  0
 11 31  1  0
 12 13  1  0
 12 20  1  0
 13 14  2  0
 13 15  1  0
 16 15  1  6
 16 17  1  0
 16 18  1  0
 16 19  1  0
 17 32  1  0
 17 33  1  0
 17 34  1  0
 18 35  1  0
 18 36  1  0
 18 37  1  0
 19 38  1  0
 19 39  1  0
 19 40  1  0
 20 21  1  0
 20 41  1  0
 20 42  1  0
 21 22  1  1
M  END

