
     RDKit          3D

 41 42  0  0  0  0  0  0  0  0999 V2000
    2.3355   -0.2243    0.9034 C   0  0  0  0  0  0  0  0  0  0  0  0
    3.6397    0.4176    0.4276 C   0  0  0  0  0  0  0  0  0  0  0  0
    3.7596    0.4982   -1.0201 N   0  0  0  0  0  0  0  0  0  0  0  0
    3.3063    1.5327   -1.8035 C   0  0  0  0  0  0  0  0  0  0  0  0
    3.4987    1.1931   -3.1294 C   0  0  0  0  0  0  0  0  0  0  0  0
    4.0945   -0.1052   -3.1570 C   0  0  0  0  0  0  0  0  0  0  0  0
    4.5245   -0.8750   -4.3744 C   0  0  0  0  0  0  0  0  0  0  0  0
    4.4962   -2.3140   -4.1500 N   0  0  0  0  0  0  0  0  0  0  0  0
    4.8365   -3.1088   -5.3247 C   0  0  0  0  0  0  0  0  0  0  0  0
    4.7500   -4.5967   -5.0512 C   0  0  0  0  0  0  0  0  0  0  0  0
    3.7075   -5.3433   -5.6167 C   0  0  0  0  0  0  0  0  0  0  0  0
    3.5750   -6.7134   -5.3720 C   0  0  0  0  0  0  0  0  0  0  0  0
    4.4993   -7.3535   -4.5462 C   0  0  0  0  0  0  0  0  0  0  0  0
    5.5471   -6.6245   -3.9750 C   0  0  0  0  0  0  0  0  0  0  0  0
    5.6846   -5.2526   -4.2164 C   0  0  0  0  0  0  0  0  0  0  0  0
    6.8275   -4.4795   -3.5975 C   0  0  0  0  0  0  0  0  0  0  0  0
    7.6213   -5.3128   -2.7908 O   0  0  0  0  0  0  0  0  0  0  0  0
    8.6903   -4.6479   -2.1785 C   0  0  0  0  0  0  0  0  0  0  0  0
    4.2353   -0.5026   -1.8367 C   0  0  0  0  0  0  0  0  0  0  0  0
    2.3033   -0.2570    2.0044 H   0  0  0  0  0  0  0  0  0  0  0  0
    2.2420   -1.2547    0.5268 H   0  0  0  0  0  0  0  0  0  0  0  0
    1.4626    0.3469    0.5508 H   0  0  0  0  0  0  0  0  0  0  0  0
    4.5046   -0.1495    0.8077 H   0  0  0  0  0  0  0  0  0  0  0  0
    3.7322    1.4389    0.8304 H   0  0  0  0  0  0  0  0  0  0  0  0
    2.8808    2.4284   -1.3546 H   0  0  0  0  0  0  0  0  0  0  0  0
    3.2494    1.8119   -3.9904 H   0  0  0  0  0  0  0  0  0  0  0  0
    5.5604   -0.6017   -4.6557 H   0  0  0  0  0  0  0  0  0  0  0  0
    3.8958   -0.5620   -5.2399 H   0  0  0  0  0  0  0  0  0  0  0  0
    3.5782   -2.5888   -3.8005 H   0  0  0  0  0  0  0  0  0  0  0  0
    5.8639   -2.8355   -5.6276 H   0  0  0  0  0  0  0  0  0  0  0  0
    4.1939   -2.8685   -6.2009 H   0  0  0  0  0  0  0  0  0  0  0  0
    2.9865   -4.8369   -6.2658 H   0  0  0  0  0  0  0  0  0  0  0  0
    2.7537   -7.2742   -5.8256 H   0  0  0  0  0  0  0  0  0  0  0  0
    4.4097   -8.4245   -4.3450 H   0  0  0  0  0  0  0  0  0  0  0  0
    6.2782   -7.1134   -3.3305 H   0  0  0  0  0  0  0  0  0  0  0  0
    6.4178   -3.6291   -3.0174 H   0  0  0  0  0  0  0  0  0  0  0  0
    7.4461   -4.0255   -4.4039 H   0  0  0  0  0  0  0  0  0  0  0  0
    9.2389   -5.3802   -1.5680 H   0  0  0  0  0  0  0  0  0  0  0  0
    8.3466   -3.8244   -1.5193 H   0  0  0  0  0  0  0  0  0  0  0  0
    9.3913   -4.2131   -2.9210 H   0  0  0  0  0  0  0  0  0  0  0  0
    4.6440   -1.4219   -1.4235 H   0  0  0  0  0  0  0  0  0  0  0  0
  1  2  1  0
  1 20  1  0
  1 21  1  0
  1 22  1  0
  2  3  1  0
  2 23  1  0
  2 24  1  0
  3  4  1  0
  3 19  1  0
  4  5  2  0
  4 25  1  0
  5  6  1  0
  5 26  1  0
  6  7  1  0
  6 19  2  0
  7  8  1  0
  7 27  1  0
  7 28  1  0
  8  9  1  0
  8 29  1  0
  9 10  1  0
  9 30  1  0
  9 31  1  0
 10 11  2  0
 10 15  1  0
 11 12  1  0
 11 32  1  0
 12 13  2  0
 12 33  1  0
 13 14  1  0
 13 34  1  0
 14 15  2  0
 14 35  1  0
 15 16  1  0
 16 17  1  0
 16 36  1  0
 16 37  1  0
 17 18  1  0
 18 38  1  0
 18 39  1  0
 18 40  1  0
 19 41  1  0
M  END

