
     RDKit          3D

 54 56  0  0  0  0  0  0  0  0999 V2000
    3.1053    1.0176   -1.2550 C   0  0  0  0  0  0  0  0  0  0  0  0
    3.5279   -0.0706   -0.4291 O   0  0  0  0  0  0  0  0  0  0  0  0
    4.1849   -1.0637   -1.0450 C   0  0  0  0  0  0  0  0  0  0  0  0
    4.4405   -1.0681   -2.2246 O   0  0  0  0  0  0  0  0  0  0  0  0
    4.5555   -2.1781   -0.0731 C   0  0  2  0  0  0  0  0  0  0  0  0
    3.6115   -2.5740    0.3452 H   0  0  0  0  0  0  0  0  0  0  0  0
    5.3813   -1.6601    1.1372 C   0  0  0  0  0  0  0  0  0  0  0  0
    6.6805   -0.9839    0.8046 C   0  0  0  0  0  0  0  0  0  0  0  0
    6.8618    0.3482    0.4963 C   0  0  0  0  0  0  0  0  0  0  0  0
    8.1955    0.6014    0.2483 N   0  0  0  0  0  0  0  0  0  0  0  0
    8.5840    1.5037    0.0116 H   0  0  0  0  0  0  0  0  0  0  0  0
    8.9165   -0.5631    0.3990 C   0  0  0  0  0  0  0  0  0  0  0  0
   10.2909   -0.8088    0.2667 C   0  0  0  0  0  0  0  0  0  0  0  0
   10.7380   -2.1067    0.4977 C   0  0  0  0  0  0  0  0  0  0  0  0
    9.8400   -3.1370    0.8550 C   0  0  0  0  0  0  0  0  0  0  0  0
    8.4775   -2.8905    0.9846 C   0  0  0  0  0  0  0  0  0  0  0  0
    7.9921   -1.5890    0.7511 C   0  0  0  0  0  0  0  0  0  0  0  0
    5.1927   -3.2271   -0.8420 N   0  0  0  0  0  0  0  0  0  0  0  0
    5.2252   -4.5081   -0.4165 C   0  0  0  0  0  0  0  0  0  0  0  0
    4.8857   -4.8807    0.6953 O   0  0  0  0  0  0  0  0  0  0  0  0
    5.7286   -5.5270   -1.4776 C   0  0  1  0  0  0  0  0  0  0  0  0
    5.3106   -5.1938   -2.8178 N   0  0  0  0  0  0  0  0  0  0  0  0
    3.9816   -5.4143   -3.2298 C   0  0  0  0  0  0  0  0  0  0  0  0
    2.9384   -5.6921   -2.3248 C   0  0  0  0  0  0  0  0  0  0  0  0
    1.6328   -5.8680   -2.7807 C   0  0  0  0  0  0  0  0  0  0  0  0
    1.3241   -5.7820   -4.1454 C   0  0  0  0  0  0  0  0  0  0  0  0
    0.0192   -5.9719   -4.4875 O   0  0  0  0  0  0  0  0  0  0  0  0
   -0.3482   -5.9060   -5.8438 C   0  0  0  0  0  0  0  0  0  0  0  0
    2.3587   -5.5119   -5.0543 C   0  0  0  0  0  0  0  0  0  0  0  0
    3.6646   -5.3280   -4.5949 C   0  0  0  0  0  0  0  0  0  0  0  0
    7.2539   -5.6379   -1.4462 C   0  0  1  0  0  0  0  0  0  0  0  0
    7.6915   -5.9590   -0.2253 F   0  0  0  0  0  0  0  0  0  0  0  0
    7.6691   -6.6001   -2.2974 F   0  0  0  0  0  0  0  0  0  0  0  0
    7.8532   -4.4994   -1.8225 F   0  0  0  0  0  0  0  0  0  0  0  0
    2.5763    1.7145   -0.5937 H   0  0  0  0  0  0  0  0  0  0  0  0
    2.4352    0.6628   -2.0522 H   0  0  0  0  0  0  0  0  0  0  0  0
    3.9712    1.5116   -1.7209 H   0  0  0  0  0  0  0  0  0  0  0  0
    5.5552   -2.5307    1.7863 H   0  0  0  0  0  0  0  0  0  0  0  0
    4.7266   -0.9735    1.6952 H   0  0  0  0  0  0  0  0  0  0  0  0
    6.1272    1.1504    0.4501 H   0  0  0  0  0  0  0  0  0  0  0  0
   10.9871   -0.0114   -0.0058 H   0  0  0  0  0  0  0  0  0  0  0  0
   11.8033   -2.3319    0.4021 H   0  0  0  0  0  0  0  0  0  0  0  0
   10.2228   -4.1460    1.0262 H   0  0  0  0  0  0  0  0  0  0  0  0
    7.7958   -3.6979    1.2603 H   0  0  0  0  0  0  0  0  0  0  0  0
    5.3890   -3.0321   -1.8226 H   0  0  0  0  0  0  0  0  0  0  0  0
    5.3548   -6.5070   -1.1246 H   0  0  0  0  0  0  0  0  0  0  0  0
    5.9901   -5.4295   -3.5340 H   0  0  0  0  0  0  0  0  0  0  0  0
    3.1309   -5.7759   -1.2541 H   0  0  0  0  0  0  0  0  0  0  0  0
    0.8248   -6.0832   -2.0784 H   0  0  0  0  0  0  0  0  0  0  0  0
   -1.4302   -6.0915   -5.8871 H   0  0  0  0  0  0  0  0  0  0  0  0
    0.1679   -6.6725   -6.4514 H   0  0  0  0  0  0  0  0  0  0  0  0
   -0.1406   -4.9120   -6.2824 H   0  0  0  0  0  0  0  0  0  0  0  0
    2.1636   -5.4381   -6.1244 H   0  0  0  0  0  0  0  0  0  0  0  0
    4.4564   -5.1064   -5.3163 H   0  0  0  0  0  0  0  0  0  0  0  0
  1  2  1  0
  1 35  1  0
  1 36  1  0
  1 37  1  0
  2  3  1  0
  3  4  2  0
  3  5  1  0
  5  6  1  1
  5  7  1  0
  5 18  1  0
  7  8  1  0
  7 38  1  0
  7 39  1  0
  8  9  2  0
  8 17  1  0
  9 10  1  0
  9 40  1  0
 10 11  1  0
 10 12  1  0
 12 13  1  0
 12 17  2  0
 13 14  2  0
 13 41  1  0
 14 15  1  0
 14 42  1  0
 15 16  2  0
 15 43  1  0
 16 17  1  0
 16 44  1  0
 18 19  1  0
 18 45  1  0
 19 20  2  0
 19 21  1  0
 21 22  1  0
 21 31  1  0
 21 46  1  1
 22 23  1  0
 22 47  1  0
 23 24  2  0
 23 30  1  0
 24 25  1  0
 24 48  1  0
 25 26  2  0
 25 49  1  0
 26 27  1  0
 26 29  1  0
 27 28  1  0
 28 50  1  0
 28 51  1  0
 28 52  1  0
 29 30  2  0
 29 53  1  0
 30 54  1  0
 31 32  1  1
 31 33  1  0
 31 34  1  0
M  END

