
     RDKit          3D

 41 42  0  0  0  0  0  0  0  0999 V2000
    1.6032    0.8066    1.5456 C   0  0  0  0  0  0  0  0  0  0  0  0
    2.9782    0.7149    0.9395 C   0  0  0  0  0  0  0  0  0  0  0  0
    4.1452    0.5391    1.6992 C   0  0  0  0  0  0  0  0  0  0  0  0
    5.4049    0.4574    1.1048 C   0  0  0  0  0  0  0  0  0  0  0  0
    5.5518    0.5500   -0.2890 C   0  0  0  0  0  0  0  0  0  0  0  0
    6.9630    0.4446   -0.8948 C   0  0  1  0  0  0  0  0  0  0  0  0
    7.0422    0.9916   -2.3321 C   0  0  0  0  0  0  0  0  0  0  0  0
    7.8702    1.1838   -0.0760 O   0  0  0  0  0  0  0  0  0  0  0  0
    7.4473   -1.0139   -0.8785 C   0  0  0  0  0  0  0  0  0  0  0  0
    6.6580   -2.0393   -1.4172 C   0  0  0  0  0  0  0  0  0  0  0  0
    7.1168   -3.3579   -1.4442 C   0  0  0  0  0  0  0  0  0  0  0  0
    8.3764   -3.7046   -0.9325 C   0  0  0  0  0  0  0  0  0  0  0  0
    8.8629   -5.1482   -0.9621 C   0  0  1  0  0  0  0  0  0  0  0  0
   10.1323   -5.3125   -1.8157 C   0  0  0  0  0  0  0  0  0  0  0  0
    9.0656   -5.7165    0.4534 C   0  0  0  0  0  0  0  0  0  0  0  0
    9.1591   -2.6726   -0.3918 C   0  0  0  0  0  0  0  0  0  0  0  0
    8.7075   -1.3506   -0.3651 C   0  0  0  0  0  0  0  0  0  0  0  0
    4.3984    0.7305   -1.0643 C   0  0  0  0  0  0  0  0  0  0  0  0
    3.1540    0.8057   -0.4441 C   0  0  0  0  0  0  0  0  0  0  0  0
    2.0637    0.9804   -1.2171 F   0  0  0  0  0  0  0  0  0  0  0  0
    1.6478    0.7150    2.6402 H   0  0  0  0  0  0  0  0  0  0  0  0
    0.9416    0.0132    1.1605 H   0  0  0  0  0  0  0  0  0  0  0  0
    1.1192    1.7663    1.2998 H   0  0  0  0  0  0  0  0  0  0  0  0
    4.0572    0.4632    2.7868 H   0  0  0  0  0  0  0  0  0  0  0  0
    6.2947    0.3244    1.7220 H   0  0  0  0  0  0  0  0  0  0  0  0
    6.6867    2.0346   -2.3764 H   0  0  0  0  0  0  0  0  0  0  0  0
    6.4499    0.3949   -3.0404 H   0  0  0  0  0  0  0  0  0  0  0  0
    8.0911    0.9633   -2.6594 H   0  0  0  0  0  0  0  0  0  0  0  0
    7.5457    2.0931   -0.0302 H   0  0  0  0  0  0  0  0  0  0  0  0
    5.6641   -1.8143   -1.8127 H   0  0  0  0  0  0  0  0  0  0  0  0
    6.4771   -4.1376   -1.8688 H   0  0  0  0  0  0  0  0  0  0  0  0
    8.0654   -5.7417   -1.4426 H   0  0  0  0  0  0  0  0  0  0  0  0
   10.9812   -4.7560   -1.3854 H   0  0  0  0  0  0  0  0  0  0  0  0
    9.9762   -4.9419   -2.8409 H   0  0  0  0  0  0  0  0  0  0  0  0
   10.4280   -6.3729   -1.8772 H   0  0  0  0  0  0  0  0  0  0  0  0
    9.8624   -5.1776    0.9921 H   0  0  0  0  0  0  0  0  0  0  0  0
    9.3538   -6.7798    0.4110 H   0  0  0  0  0  0  0  0  0  0  0  0
    8.1451   -5.6360    1.0525 H   0  0  0  0  0  0  0  0  0  0  0  0
   10.1468   -2.8973    0.0209 H   0  0  0  0  0  0  0  0  0  0  0  0
    9.3328   -0.5661    0.0609 H   0  0  0  0  0  0  0  0  0  0  0  0
    4.4315    0.8178   -2.1505 H   0  0  0  0  0  0  0  0  0  0  0  0
  1  2  1  0
  1 21  1  0
  1 22  1  0
  1 23  1  0
  2  3  2  0
  2 19  1  0
  3  4  1  0
  3 24  1  0
  4  5  2  0
  4 25  1  0
  5  6  1  0
  5 18  1  0
  6  7  1  0
  6  8  1  1
  6  9  1  0
  7 26  1  0
  7 27  1  0
  7 28  1  0
  8 29  1  0
  9 10  2  0
  9 17  1  0
 10 11  1  0
 10 30  1  0
 11 12  2  0
 11 31  1  0
 12 13  1  0
 12 16  1  0
 13 14  1  0
 13 15  1  0
 13 32  1  6
 14 33  1  0
 14 34  1  0
 14 35  1  0
 15 36  1  0
 15 37  1  0
 15 38  1  0
 16 17  2  0
 16 39  1  0
 17 40  1  0
 18 19  2  0
 18 41  1  0
 19 20  1  0
M  END

