
     RDKit          3D

 44 46  0  0  0  0  0  0  0  0999 V2000
    1.4817   -1.8606   -3.4481 C   0  0  0  0  0  0  0  0  0  0  0  0
    2.9095   -1.4848   -3.1373 C   0  0  0  0  0  0  0  0  0  0  0  0
    3.4975   -0.3292   -3.6769 C   0  0  0  0  0  0  0  0  0  0  0  0
    4.8199    0.0107   -3.3959 C   0  0  0  0  0  0  0  0  0  0  0  0
    5.5989   -0.8045   -2.5575 C   0  0  0  0  0  0  0  0  0  0  0  0
    6.9831   -0.4322   -2.2726 C   0  0  0  0  0  0  0  0  0  0  0  0
    7.6465    0.6020   -2.7098 N   0  0  0  0  0  0  0  0  0  0  0  0
    8.9071    0.4944   -2.1534 C   0  0  0  0  0  0  0  0  0  0  0  0
    9.9744    1.5247   -2.3802 C   0  0  0  0  0  0  0  0  0  0  0  0
   11.3074    1.0181   -2.1301 N   0  0  0  0  0  0  0  0  0  0  0  0
   11.8628    0.1308   -3.1432 C   0  0  0  0  0  0  0  0  0  0  0  0
   13.2978   -0.0760   -2.6517 C   0  0  0  0  0  0  0  0  0  0  0  0
   13.6770    1.2836   -1.9979 C   0  0  2  0  0  0  0  0  0  0  0  0
   14.3841    1.1476   -0.6355 C   0  0  1  0  0  0  0  0  0  0  0  0
   15.6779    0.3244   -0.7315 C   0  0  0  0  0  0  0  0  0  0  0  0
   14.5913    2.4813   -0.0641 N   0  0  0  0  0  0  0  0  0  0  0  0
   12.3275    2.0406   -1.9120 C   0  0  0  0  0  0  0  0  0  0  0  0
    8.9455   -0.6328   -1.3841 C   0  0  0  0  0  0  0  0  0  0  0  0
    7.7200   -1.2310   -1.4586 O   0  0  0  0  0  0  0  0  0  0  0  0
    5.0200   -1.9640   -2.0103 C   0  0  0  0  0  0  0  0  0  0  0  0
    3.6975   -2.2926   -2.2990 C   0  0  0  0  0  0  0  0  0  0  0  0
    0.9743   -1.0783   -4.0316 H   0  0  0  0  0  0  0  0  0  0  0  0
    0.9001   -2.0270   -2.5262 H   0  0  0  0  0  0  0  0  0  0  0  0
    1.4329   -2.7968   -4.0303 H   0  0  0  0  0  0  0  0  0  0  0  0
    2.9061    0.3181   -4.3307 H   0  0  0  0  0  0  0  0  0  0  0  0
    5.2695    0.9109   -3.8190 H   0  0  0  0  0  0  0  0  0  0  0  0
    9.7933    2.3722   -1.6954 H   0  0  0  0  0  0  0  0  0  0  0  0
    9.8525    1.9367   -3.4083 H   0  0  0  0  0  0  0  0  0  0  0  0
   11.8570    0.6075   -4.1527 H   0  0  0  0  0  0  0  0  0  0  0  0
   11.2877   -0.8049   -3.2218 H   0  0  0  0  0  0  0  0  0  0  0  0
   13.9835   -0.3747   -3.4586 H   0  0  0  0  0  0  0  0  0  0  0  0
   13.3089   -0.8769   -1.8951 H   0  0  0  0  0  0  0  0  0  0  0  0
   14.3601    1.8392   -2.6653 H   0  0  0  0  0  0  0  0  0  0  0  0
   13.6828    0.6210    0.0390 H   0  0  0  0  0  0  0  0  0  0  0  0
   16.3958    0.8110   -1.4153 H   0  0  0  0  0  0  0  0  0  0  0  0
   15.5052   -0.6992   -1.1003 H   0  0  0  0  0  0  0  0  0  0  0  0
   16.1604    0.2438    0.2567 H   0  0  0  0  0  0  0  0  0  0  0  0
   15.2974    2.9855   -0.6053 H   0  0  0  0  0  0  0  0  0  0  0  0
   14.9637    2.4074    0.8830 H   0  0  0  0  0  0  0  0  0  0  0  0
   12.2845    2.8267   -2.7001 H   0  0  0  0  0  0  0  0  0  0  0  0
   12.1986    2.5445   -0.9426 H   0  0  0  0  0  0  0  0  0  0  0  0
    9.7035   -1.1089   -0.7716 H   0  0  0  0  0  0  0  0  0  0  0  0
    5.6146   -2.6046   -1.3564 H   0  0  0  0  0  0  0  0  0  0  0  0
    3.2643   -3.1978   -1.8632 H   0  0  0  0  0  0  0  0  0  0  0  0
  1  2  1  0
  1 22  1  0
  1 23  1  0
  1 24  1  0
  2  3  2  0
  2 21  1  0
  3  4  1  0
  3 25  1  0
  4  5  2  0
  4 26  1  0
  5  6  1  0
  5 20  1  0
  6  7  2  0
  6 19  1  0
  7  8  1  0
  8  9  1  0
  8 18  2  0
  9 10  1  0
  9 27  1  0
  9 28  1  0
 10 11  1  0
 10 17  1  0
 11 12  1  0
 11 29  1  0
 11 30  1  0
 12 13  1  0
 12 31  1  0
 12 32  1  0
 13 14  1  0
 13 17  1  0
 13 33  1  6
 14 15  1  0
 14 16  1  0
 14 34  1  1
 15 35  1  0
 15 36  1  0
 15 37  1  0
 16 38  1  0
 16 39  1  0
 17 40  1  0
 17 41  1  0
 18 19  1  0
 18 42  1  0
 20 21  2  0
 20 43  1  0
 21 44  1  0
M  END

