
     RDKit          3D

 36 39  0  0  0  0  0  0  0  0999 V2000
    1.1113   -0.0476   -0.4216 N   0  0  0  0  0  0  0  0  0  0  0  0
    2.5037   -0.0264   -0.2875 C   0  0  0  0  0  0  0  0  0  0  0  0
    3.2003    1.2075   -0.3206 C   0  0  0  0  0  0  0  0  0  0  0  0
    4.5898    1.2754   -0.2411 C   0  0  0  0  0  0  0  0  0  0  0  0
    5.3123    0.0826   -0.1209 C   0  0  0  0  0  0  0  0  0  0  0  0
    4.6381   -1.1660   -0.1039 C   0  0  0  0  0  0  0  0  0  0  0  0
    3.2392   -1.2154   -0.1830 C   0  0  0  0  0  0  0  0  0  0  0  0
    5.6598   -2.1911   -0.0142 C   0  0  0  0  0  0  0  0  0  0  0  0
    5.6060   -3.5904    0.0560 C   0  0  0  0  0  0  0  0  0  0  0  0
    6.7923   -4.3299    0.1636 C   0  0  0  0  0  0  0  0  0  0  0  0
    6.7664   -5.7231    0.2890 N   0  0  0  0  0  0  0  0  0  0  0  0
    8.0278   -3.6370    0.2088 C   0  0  0  0  0  0  0  0  0  0  0  0
    8.1002   -2.2473    0.1380 C   0  0  0  0  0  0  0  0  0  0  0  0
    6.9103   -1.5206    0.0147 C   0  0  0  0  0  0  0  0  0  0  0  0
    6.6960   -0.1360   -0.0502 N   0  0  0  0  0  0  0  0  0  0  0  0
    7.6976    0.8630   -0.0428 C   0  0  0  0  0  0  0  0  0  0  0  0
    8.7604    0.8114   -0.9608 C   0  0  0  0  0  0  0  0  0  0  0  0
    9.7525    1.7941   -0.9438 C   0  0  0  0  0  0  0  0  0  0  0  0
    9.6888    2.8492   -0.0282 C   0  0  0  0  0  0  0  0  0  0  0  0
    8.6271    2.9089    0.8799 C   0  0  0  0  0  0  0  0  0  0  0  0
    7.6418    1.9193    0.8824 C   0  0  0  0  0  0  0  0  0  0  0  0
    0.6380    0.7977   -0.1204 H   0  0  0  0  0  0  0  0  0  0  0  0
    0.6572   -0.8764   -0.0527 H   0  0  0  0  0  0  0  0  0  0  0  0
    2.6277    2.1342   -0.4193 H   0  0  0  0  0  0  0  0  0  0  0  0
    5.0920    2.2433   -0.2782 H   0  0  0  0  0  0  0  0  0  0  0  0
    2.7205   -2.1782   -0.1716 H   0  0  0  0  0  0  0  0  0  0  0  0
    4.6418   -4.1063    0.0355 H   0  0  0  0  0  0  0  0  0  0  0  0
    5.9385   -6.1724   -0.0878 H   0  0  0  0  0  0  0  0  0  0  0  0
    7.6121   -6.1969   -0.0100 H   0  0  0  0  0  0  0  0  0  0  0  0
    8.9524   -4.2129    0.3097 H   0  0  0  0  0  0  0  0  0  0  0  0
    9.0693   -1.7481    0.1840 H   0  0  0  0  0  0  0  0  0  0  0  0
    8.7946    0.0038   -1.6944 H   0  0  0  0  0  0  0  0  0  0  0  0
   10.5739    1.7419   -1.6631 H   0  0  0  0  0  0  0  0  0  0  0  0
   10.4624    3.6208   -0.0226 H   0  0  0  0  0  0  0  0  0  0  0  0
    8.5716    3.7252    1.6049 H   0  0  0  0  0  0  0  0  0  0  0  0
    6.8287    1.9504    1.6100 H   0  0  0  0  0  0  0  0  0  0  0  0
  1  2  1  0
  1 22  1  0
  1 23  1  0
  2  3  2  0
  2  7  1  0
  3  4  1  0
  3 24  1  0
  4  5  2  0
  4 25  1  0
  5  6  1  0
  5 15  1  0
  6  7  2  0
  6  8  1  0
  7 26  1  0
  8  9  2  0
  8 14  1  0
  9 10  1  0
  9 27  1  0
 10 11  1  0
 10 12  2  0
 11 28  1  0
 11 29  1  0
 12 13  1  0
 12 30  1  0
 13 14  2  0
 13 31  1  0
 14 15  1  0
 15 16  1  0
 16 17  2  0
 16 21  1  0
 17 18  1  0
 17 32  1  0
 18 19  2  0
 18 33  1  0
 19 20  1  0
 19 34  1  0
 20 21  2  0
 20 35  1  0
 21 36  1  0
M  END

