
     RDKit          3D

 45 45  0  0  0  0  0  0  0  0999 V2000
    0.8021    0.9068   -1.6146 C   0  0  0  0  0  0  0  0  0  0  0  0
    2.0980    0.5207   -2.3204 C   0  0  0  0  0  0  0  0  0  0  0  0
    3.1401    0.2149   -1.3593 N   0  0  0  0  0  0  0  0  0  0  0  0
    4.4971    0.1301   -1.6213 C   0  0  0  0  0  0  0  0  0  0  0  0
    5.4010   -0.0963   -0.7326 N   0  0  0  0  0  0  0  0  0  0  0  0
    5.0091   -0.1909    0.6454 C   0  0  0  0  0  0  0  0  0  0  0  0
    6.1777   -0.3771    1.5952 C   0  0  0  0  0  0  0  0  0  0  0  0
    7.4995   -0.4693    1.1389 C   0  0  0  0  0  0  0  0  0  0  0  0
    8.5206   -0.6421    2.0750 C   0  0  0  0  0  0  0  0  0  0  0  0
    8.1914   -0.7174    3.4299 C   0  0  0  0  0  0  0  0  0  0  0  0
    6.8413   -0.6165    3.7824 C   0  0  0  0  0  0  0  0  0  0  0  0
    5.8596   -0.4517    2.8956 N   0  0  0  0  0  0  0  0  0  0  0  0
    4.8556    0.3712   -2.9406 N   0  0  0  0  0  0  0  0  0  0  0  0
    6.2486    0.2783   -3.3444 C   0  0  0  0  0  0  0  0  0  0  0  0
    6.4754    0.8151   -4.7676 C   0  0  1  0  0  0  0  0  0  0  0  0
    6.0580    2.2943   -4.9269 C   0  0  0  0  0  0  0  0  0  0  0  0
    6.8787    3.3123   -4.1298 C   0  0  0  0  0  0  0  0  0  0  0  0
    7.9251    0.5207   -5.2018 C   0  0  0  0  0  0  0  0  0  0  0  0
    8.2581    0.8867   -6.6495 C   0  0  0  0  0  0  0  0  0  0  0  0
    0.0160    1.1438   -2.3476 H   0  0  0  0  0  0  0  0  0  0  0  0
    0.9540    1.7861   -0.9694 H   0  0  0  0  0  0  0  0  0  0  0  0
    0.4295    0.0811   -0.9852 H   0  0  0  0  0  0  0  0  0  0  0  0
    2.4402    1.3572   -2.9515 H   0  0  0  0  0  0  0  0  0  0  0  0
    1.8969   -0.3311   -3.0058 H   0  0  0  0  0  0  0  0  0  0  0  0
    2.8410   -0.1937   -0.4827 H   0  0  0  0  0  0  0  0  0  0  0  0
    4.3209   -1.0457    0.8418 H   0  0  0  0  0  0  0  0  0  0  0  0
    4.4485    0.7037    0.9947 H   0  0  0  0  0  0  0  0  0  0  0  0
    7.6880   -0.4052    0.0676 H   0  0  0  0  0  0  0  0  0  0  0  0
    9.5624   -0.7175    1.7503 H   0  0  0  0  0  0  0  0  0  0  0  0
    8.9567   -0.8516    4.1980 H   0  0  0  0  0  0  0  0  0  0  0  0
    6.5428   -0.6726    4.8370 H   0  0  0  0  0  0  0  0  0  0  0  0
    4.1937    0.0405   -3.6351 H   0  0  0  0  0  0  0  0  0  0  0  0
    6.6148   -0.7654   -3.2814 H   0  0  0  0  0  0  0  0  0  0  0  0
    6.8435    0.8411   -2.6106 H   0  0  0  0  0  0  0  0  0  0  0  0
    5.8190    0.2303   -5.4447 H   0  0  0  0  0  0  0  0  0  0  0  0
    4.9999    2.3833   -4.6308 H   0  0  0  0  0  0  0  0  0  0  0  0
    6.0926    2.5582   -5.9976 H   0  0  0  0  0  0  0  0  0  0  0  0
    6.8321    3.1204   -3.0460 H   0  0  0  0  0  0  0  0  0  0  0  0
    6.4960    4.3322   -4.2955 H   0  0  0  0  0  0  0  0  0  0  0  0
    7.9412    3.3127   -4.4224 H   0  0  0  0  0  0  0  0  0  0  0  0
    8.1142   -0.5570   -5.0537 H   0  0  0  0  0  0  0  0  0  0  0  0
    8.6249    1.0366   -4.5202 H   0  0  0  0  0  0  0  0  0  0  0  0
    7.5659    0.3985   -7.3566 H   0  0  0  0  0  0  0  0  0  0  0  0
    9.2788    0.5657   -6.9119 H   0  0  0  0  0  0  0  0  0  0  0  0
    8.2017    1.9720   -6.8292 H   0  0  0  0  0  0  0  0  0  0  0  0
  1  2  1  0
  1 20  1  0
  1 21  1  0
  1 22  1  0
  2  3  1  0
  2 23  1  0
  2 24  1  0
  3  4  1  0
  3 25  1  0
  4  5  2  0
  4 13  1  0
  5  6  1  0
  6  7  1  0
  6 26  1  0
  6 27  1  0
  7  8  2  0
  7 12  1  0
  8  9  1  0
  8 28  1  0
  9 10  2  0
  9 29  1  0
 10 11  1  0
 10 30  1  0
 11 12  2  0
 11 31  1  0
 13 14  1  0
 13 32  1  0
 14 15  1  0
 14 33  1  0
 14 34  1  0
 15 16  1  0
 15 18  1  0
 15 35  1  6
 16 17  1  0
 16 36  1  0
 16 37  1  0
 17 38  1  0
 17 39  1  0
 17 40  1  0
 18 19  1  0
 18 41  1  0
 18 42  1  0
 19 43  1  0
 19 44  1  0
 19 45  1  0
M  END

