
     RDKit          3D

 58 61  0  0  0  0  0  0  0  0999 V2000
   -0.0454    0.3809   -0.6069 C   0  0  0  0  0  0  0  0  0  0  0  0
    1.4001    0.1839   -0.5669 N   0  0  0  0  0  0  0  0  0  0  0  0
    1.8481   -1.1934   -0.4744 C   0  0  0  0  0  0  0  0  0  0  0  0
    1.8293   -1.8392    0.9271 C   0  0  0  0  0  0  0  0  0  0  0  0
    1.7569   -3.0481    1.0334 O   0  0  0  0  0  0  0  0  0  0  0  0
    1.9559   -0.9537    1.9648 N   0  0  0  0  0  0  0  0  0  0  0  0
    2.0360   -1.2343    3.3483 C   0  0  0  0  0  0  0  0  0  0  0  0
    1.5070   -2.3967    3.8874 C   0  0  0  0  0  0  0  0  0  0  0  0
    1.5631   -2.6276    5.2817 C   0  0  0  0  0  0  0  0  0  0  0  0
    2.1353   -1.7065    6.1304 C   0  0  0  0  0  0  0  0  0  0  0  0
    2.7118   -0.5139    5.6123 C   0  0  0  0  0  0  0  0  0  0  0  0
    3.3399    0.4388    6.4632 C   0  0  0  0  0  0  0  0  0  0  0  0
    3.9431    1.5682    5.9515 C   0  0  0  0  0  0  0  0  0  0  0  0
    3.9500    1.7943    4.5542 C   0  0  0  0  0  0  0  0  0  0  0  0
    3.3310    0.9001    3.7039 C   0  0  0  0  0  0  0  0  0  0  0  0
    2.6853   -0.2697    4.1962 C   0  0  0  0  0  0  0  0  0  0  0  0
    2.2230    1.2646   -0.8304 C   0  0  0  0  0  0  0  0  0  0  0  0
    1.7736    2.3735   -1.0669 O   0  0  0  0  0  0  0  0  0  0  0  0
    3.7326    1.0363   -0.7534 C   0  0  0  0  0  0  0  0  0  0  0  0
    4.4802    2.3747   -0.7660 C   0  0  0  0  0  0  0  0  0  0  0  0
    5.8842    2.2284   -0.4137 N   0  0  0  0  0  0  0  0  0  0  0  0
    6.8844    1.8679   -1.3318 C   0  0  0  0  0  0  0  0  0  0  0  0
    6.6745    1.5094   -2.4658 O   0  0  0  0  0  0  0  0  0  0  0  0
    8.2052    2.1042   -0.6160 C   0  0  2  0  0  0  0  0  0  0  0  0
    8.4198    3.1756   -0.8077 H   0  0  0  0  0  0  0  0  0  0  0  0
    9.4654    1.3158   -0.9423 C   0  0  0  0  0  0  0  0  0  0  0  0
   10.5917    1.8335   -0.0214 C   0  0  0  0  0  0  0  0  0  0  0  0
   10.2147    1.8471    1.4758 C   0  0  0  0  0  0  0  0  0  0  0  0
    8.8838    2.5704    1.7762 C   0  0  0  0  0  0  0  0  0  0  0  0
    7.8214    1.9767    0.8621 C   0  0  1  0  0  0  0  0  0  0  0  0
    7.7520    0.8932    1.0911 H   0  0  0  0  0  0  0  0  0  0  0  0
    6.3727    2.4376    0.8841 C   0  0  0  0  0  0  0  0  0  0  0  0
    5.7103    2.8390    1.8133 O   0  0  0  0  0  0  0  0  0  0  0  0
   -0.5186   -0.0953    0.2668 H   0  0  0  0  0  0  0  0  0  0  0  0
   -0.4800   -0.0606   -1.5211 H   0  0  0  0  0  0  0  0  0  0  0  0
   -0.2546    1.4563   -0.5995 H   0  0  0  0  0  0  0  0  0  0  0  0
    2.8714   -1.3000   -0.8606 H   0  0  0  0  0  0  0  0  0  0  0  0
    1.2173   -1.8391   -1.1061 H   0  0  0  0  0  0  0  0  0  0  0  0
    1.9713    0.0247    1.6996 H   0  0  0  0  0  0  0  0  0  0  0  0
    1.0532   -3.1320    3.2268 H   0  0  0  0  0  0  0  0  0  0  0  0
    1.1333   -3.5501    5.6800 H   0  0  0  0  0  0  0  0  0  0  0  0
    2.1656   -1.8829    7.2087 H   0  0  0  0  0  0  0  0  0  0  0  0
    3.3445    0.2492    7.5401 H   0  0  0  0  0  0  0  0  0  0  0  0
    4.4281    2.2838    6.6204 H   0  0  0  0  0  0  0  0  0  0  0  0
    4.4625    2.6606    4.1312 H   0  0  0  0  0  0  0  0  0  0  0  0
    3.3813    1.1018    2.6326 H   0  0  0  0  0  0  0  0  0  0  0  0
    4.0698    0.4169   -1.6018 H   0  0  0  0  0  0  0  0  0  0  0  0
    3.9859    0.4758    0.1614 H   0  0  0  0  0  0  0  0  0  0  0  0
    4.0324    3.0655   -0.0405 H   0  0  0  0  0  0  0  0  0  0  0  0
    4.4132    2.8361   -1.7601 H   0  0  0  0  0  0  0  0  0  0  0  0
    9.7426    1.4308   -2.0019 H   0  0  0  0  0  0  0  0  0  0  0  0
    9.2897    0.2389   -0.7720 H   0  0  0  0  0  0  0  0  0  0  0  0
   10.8515    2.8612   -0.3346 H   0  0  0  0  0  0  0  0  0  0  0  0
   11.5033    1.2310   -0.1649 H   0  0  0  0  0  0  0  0  0  0  0  0
   11.0321    2.3049    2.0562 H   0  0  0  0  0  0  0  0  0  0  0  0
   10.1316    0.8046    1.8338 H   0  0  0  0  0  0  0  0  0  0  0  0
    8.9799    3.6541    1.5863 H   0  0  0  0  0  0  0  0  0  0  0  0
    8.6062    2.4539    2.8355 H   0  0  0  0  0  0  0  0  0  0  0  0
  1  2  1  0
  1 34  1  0
  1 35  1  0
  1 36  1  0
  2  3  1  0
  2 17  1  0
  3  4  1  0
  3 37  1  0
  3 38  1  0
  4  5  2  0
  4  6  1  0
  6  7  1  0
  6 39  1  0
  7  8  2  0
  7 16  1  0
  8  9  1  0
  8 40  1  0
  9 10  2  0
  9 41  1  0
 10 11  1  0
 10 42  1  0
 11 12  1  0
 11 16  2  0
 12 13  2  0
 12 43  1  0
 13 14  1  0
 13 44  1  0
 14 15  2  0
 14 45  1  0
 15 16  1  0
 15 46  1  0
 17 18  2  0
 17 19  1  0
 19 20  1  0
 19 47  1  0
 19 48  1  0
 20 21  1  0
 20 49  1  0
 20 50  1  0
 21 22  1  0
 21 32  1  0
 22 23  2  0
 22 24  1  0
 24 25  1  1
 24 26  1  0
 24 30  1  0
 26 27  1  0
 26 51  1  0
 26 52  1  0
 27 28  1  0
 27 53  1  0
 27 54  1  0
 28 29  1  0
 28 55  1  0
 28 56  1  0
 29 30  1  0
 29 57  1  0
 29 58  1  0
 30 31  1  1
 30 32  1  0
 32 33  2  0
M  END

