
     RDKit          3D

 30 31  0  0  0  0  0  0  0  0999 V2000
    4.3062   -4.7277    1.9728 O   0  0  0  0  0  0  0  0  0  0  0  0
    3.5422   -4.1169    1.2434 N   0  0  0  0  0  0  0  0  0  0  0  0
    2.7945   -4.6787    0.4333 O   0  0  0  0  0  0  0  0  0  0  0  0
    3.5065   -2.6653    1.3289 C   0  0  0  0  0  0  0  0  0  0  0  0
    4.3673   -2.0749    2.2648 C   0  0  0  0  0  0  0  0  0  0  0  0
    4.4166   -0.7017    2.4350 C   0  0  0  0  0  0  0  0  0  0  0  0
    5.4975   -0.0063    3.6067 Cl  0  0  0  0  0  0  0  0  0  0  0  0
    3.5716    0.1036    1.6364 C   0  0  0  0  0  0  0  0  0  0  0  0
    3.5879    1.8311    1.8032 Cl  0  0  0  0  0  0  0  0  0  0  0  0
    2.7153   -0.4670    0.7059 C   0  0  0  0  0  0  0  0  0  0  0  0
    2.6406   -1.8724    0.5072 C   0  0  0  0  0  0  0  0  0  0  0  0
    1.7962   -2.3984   -0.4098 N   0  0  0  0  0  0  0  0  0  0  0  0
    0.8980   -1.6363   -1.2534 C   0  0  0  0  0  0  0  0  0  0  0  0
    0.0960   -2.5657   -2.1595 C   0  0  1  0  0  0  0  0  0  0  0  0
   -0.9915   -3.4143   -1.4360 C   0  0  0  0  0  0  0  0  0  0  0  0
   -2.0569   -2.3877   -1.9055 C   0  0  2  0  0  0  0  0  0  0  0  0
   -3.3152   -2.8261   -2.3230 O   0  0  0  0  0  0  0  0  0  0  0  0
   -1.0368   -1.8497   -2.9456 C   0  0  0  0  0  0  0  0  0  0  0  0
    5.0013   -2.7295    2.8601 H   0  0  0  0  0  0  0  0  0  0  0  0
    2.0868    0.1962    0.1156 H   0  0  0  0  0  0  0  0  0  0  0  0
    1.8189   -3.4146   -0.4741 H   0  0  0  0  0  0  0  0  0  0  0  0
    1.4673   -0.9226   -1.8797 H   0  0  0  0  0  0  0  0  0  0  0  0
    0.2127   -1.0276   -0.6320 H   0  0  0  0  0  0  0  0  0  0  0  0
    0.7995   -3.1438   -2.7801 H   0  0  0  0  0  0  0  0  0  0  0  0
   -0.8798   -3.5903   -0.3545 H   0  0  0  0  0  0  0  0  0  0  0  0
   -1.1397   -4.3874   -1.9321 H   0  0  0  0  0  0  0  0  0  0  0  0
   -2.2512   -1.6371   -1.1229 H   0  0  0  0  0  0  0  0  0  0  0  0
   -3.1953   -3.5052   -3.0009 H   0  0  0  0  0  0  0  0  0  0  0  0
   -0.9633   -0.7589   -3.0844 H   0  0  0  0  0  0  0  0  0  0  0  0
   -1.1995   -2.3146   -3.9314 H   0  0  0  0  0  0  0  0  0  0  0  0
  1  2  2  0
  2  3  1  0
  2  4  1  0
  4  5  2  0
  4 11  1  0
  5  6  1  0
  5 19  1  0
  6  7  1  0
  6  8  2  0
  8  9  1  0
  8 10  1  0
 10 11  2  0
 10 20  1  0
 11 12  1  0
 12 13  1  0
 12 21  1  0
 13 14  1  0
 13 22  1  0
 13 23  1  0
 14 15  1  0
 14 18  1  0
 14 24  1  6
 15 16  1  0
 15 25  1  0
 15 26  1  0
 16 17  1  0
 16 18  1  0
 16 27  1  1
 17 28  1  0
 18 29  1  0
 18 30  1  0
M  CHG  2   2   1   3  -1
M  END

