
     RDKit          3D

 55 62  0  0  0  0  0  0  0  0999 V2000
    1.0565    0.1651   -0.2317 C   0  0  0  0  0  0  0  0  0  0  0  0
    0.3268   -0.8897   -0.2028 N   0  0  0  0  0  0  0  0  0  0  0  0
   -1.0644   -0.8189   -0.2889 C   0  0  0  0  0  0  0  0  0  0  0  0
   -1.7408   -1.8745   -0.9345 C   0  0  0  0  0  0  0  0  0  0  0  0
   -3.1246   -1.8653   -1.0607 C   0  0  0  0  0  0  0  0  0  0  0  0
   -3.8967   -0.8179   -0.5190 C   0  0  0  0  0  0  0  0  0  0  0  0
   -5.3603   -0.7936   -0.6286 C   0  0  0  0  0  0  0  0  0  0  0  0
   -6.1958   -1.7147   -1.2555 C   0  0  0  0  0  0  0  0  0  0  0  0
   -7.4661   -1.2181   -1.0679 N   0  0  0  0  0  0  0  0  0  0  0  0
   -8.6979   -1.6294   -1.4231 N   0  0  0  0  0  0  0  0  0  0  0  0
   -9.5868   -0.7803   -0.9900 C   0  0  0  0  0  0  0  0  0  0  0  0
  -11.0100   -0.9334   -1.2072 C   0  0  0  0  0  0  0  0  0  0  0  0
  -12.0411   -0.1070   -0.7980 C   0  0  0  0  0  0  0  0  0  0  0  0
  -13.3209   -0.5807   -1.1966 C   0  0  0  0  0  0  0  0  0  0  0  0
  -13.2476   -1.7581   -1.9021 C   0  0  0  0  0  0  0  0  0  0  0  0
  -11.6228   -2.3086   -2.0923 S   0  0  0  0  0  0  0  0  0  0  0  0
   -8.9361    0.6225   -0.0890 S   0  0  0  0  0  0  0  0  0  0  0  0
   -7.3383   -0.0451   -0.3511 C   0  0  0  0  0  0  0  0  0  0  0  0
   -6.1010    0.2423   -0.0704 N   0  0  0  0  0  0  0  0  0  0  0  0
   -3.2247    0.2180    0.1567 C   0  0  0  0  0  0  0  0  0  0  0  0
   -1.8373    0.2213    0.2697 C   0  0  0  0  0  0  0  0  0  0  0  0
    2.5147    0.1132   -0.0688 C   0  0  0  0  0  0  0  0  0  0  0  0
    3.1199   -1.1381    0.1671 C   0  0  0  0  0  0  0  0  0  0  0  0
    4.4885   -1.2637    0.3340 C   0  0  0  0  0  0  0  0  0  0  0  0
    5.3303   -0.1345    0.2749 C   0  0  0  0  0  0  0  0  0  0  0  0
    6.7521   -0.2391    0.4476 C   0  0  0  0  0  0  0  0  0  0  0  0
    7.5580    0.8608    0.3875 C   0  0  0  0  0  0  0  0  0  0  0  0
    7.0124    2.1685    0.1479 C   0  0  0  0  0  0  0  0  0  0  0  0
    7.8238    3.3168    0.0810 C   0  0  0  0  0  0  0  0  0  0  0  0
    7.2670    4.5746   -0.1537 C   0  0  0  0  0  0  0  0  0  0  0  0
    5.8892    4.7153   -0.3271 C   0  0  0  0  0  0  0  0  0  0  0  0
    5.0392    3.5957   -0.2683 C   0  0  0  0  0  0  0  0  0  0  0  0
    3.6178    3.6989   -0.4424 C   0  0  0  0  0  0  0  0  0  0  0  0
    2.8074    2.6025   -0.3819 C   0  0  0  0  0  0  0  0  0  0  0  0
    3.3296    1.2812   -0.1400 C   0  0  0  0  0  0  0  0  0  0  0  0
    4.7491    1.1505    0.0356 C   0  0  0  0  0  0  0  0  0  0  0  0
    5.5975    2.3020   -0.0280 C   0  0  0  0  0  0  0  0  0  0  0  0
    0.5998    1.1555   -0.3962 H   0  0  0  0  0  0  0  0  0  0  0  0
   -1.1460   -2.6935   -1.3440 H   0  0  0  0  0  0  0  0  0  0  0  0
   -3.6131   -2.6930   -1.5805 H   0  0  0  0  0  0  0  0  0  0  0  0
   -6.0137   -2.6374   -1.7964 H   0  0  0  0  0  0  0  0  0  0  0  0
  -11.8827    0.8109   -0.2290 H   0  0  0  0  0  0  0  0  0  0  0  0
  -14.2575   -0.0700   -0.9699 H   0  0  0  0  0  0  0  0  0  0  0  0
  -14.0678   -2.3377   -2.3244 H   0  0  0  0  0  0  0  0  0  0  0  0
   -3.8184    1.0191    0.6000 H   0  0  0  0  0  0  0  0  0  0  0  0
   -1.3457    1.0211    0.8286 H   0  0  0  0  0  0  0  0  0  0  0  0
    2.4655   -2.0101    0.2131 H   0  0  0  0  0  0  0  0  0  0  0  0
    4.9304   -2.2471    0.5158 H   0  0  0  0  0  0  0  0  0  0  0  0
    7.1795   -1.2287    0.6301 H   0  0  0  0  0  0  0  0  0  0  0  0
    8.6387    0.7634    0.5213 H   0  0  0  0  0  0  0  0  0  0  0  0
    8.9036    3.2114    0.2159 H   0  0  0  0  0  0  0  0  0  0  0  0
    7.9135    5.4544   -0.2022 H   0  0  0  0  0  0  0  0  0  0  0  0
    5.4563    5.7021   -0.5114 H   0  0  0  0  0  0  0  0  0  0  0  0
    3.1865    4.6863   -0.6282 H   0  0  0  0  0  0  0  0  0  0  0  0
    1.7357    2.7400   -0.5237 H   0  0  0  0  0  0  0  0  0  0  0  0
  1  2  2  0
  1 22  1  0
  1 38  1  0
  2  3  1  0
  3  4  2  0
  3 21  1  0
  4  5  1  0
  4 39  1  0
  5  6  2  0
  5 40  1  0
  6  7  1  0
  6 20  1  0
  7  8  2  0
  7 19  1  0
  8  9  1  0
  8 41  1  0
  9 10  1  0
  9 18  1  0
 10 11  2  0
 11 12  1  0
 11 17  1  0
 12 13  2  0
 12 16  1  0
 13 14  1  0
 13 42  1  0
 14 15  2  0
 14 43  1  0
 15 16  1  0
 15 44  1  0
 17 18  1  0
 18 19  2  0
 20 21  2  0
 20 45  1  0
 21 46  1  0
 22 23  2  0
 22 35  1  0
 23 24  1  0
 23 47  1  0
 24 25  2  0
 24 48  1  0
 25 26  1  0
 25 36  1  0
 26 27  2  0
 26 49  1  0
 27 28  1  0
 27 50  1  0
 28 29  2  0
 28 37  1  0
 29 30  1  0
 29 51  1  0
 30 31  2  0
 30 52  1  0
 31 32  1  0
 31 53  1  0
 32 33  2  0
 32 37  1  0
 33 34  1  0
 33 54  1  0
 34 35  2  0
 34 55  1  0
 35 36  1  0
 36 37  2  0
M  END

