
     RDKit          3D

 27 27  0  0  0  0  0  0  0  0999 V2000
    2.0013   -0.0009    1.1223 C   0  0  0  0  0  0  0  0  0  0  0  0
    2.5555   -0.1580   -0.3000 C   0  0  1  0  0  0  0  0  0  0  0  0
    1.5842   -0.8707   -1.2495 C   0  0  0  0  0  0  0  0  0  0  0  0
    0.4506   -0.0768   -1.5530 O   0  0  0  0  0  0  0  0  0  0  0  0
    2.8965    1.1244   -0.8980 N   0  0  0  0  0  0  0  0  0  0  0  0
    4.0500    1.7717   -0.6127 C   0  0  0  0  0  0  0  0  0  0  0  0
    4.9557    1.3654    0.0728 O   0  0  0  0  0  0  0  0  0  0  0  0
    4.0621    2.9935   -1.2639 O   0  0  0  0  0  0  0  0  0  0  0  0
    5.0844    3.8681   -0.9724 C   0  0  0  0  0  0  0  0  0  0  0  0
    5.9768    4.2578   -1.9704 C   0  0  0  0  0  0  0  0  0  0  0  0
    6.9743    5.1976   -1.6923 C   0  0  0  0  0  0  0  0  0  0  0  0
    7.0865    5.7406   -0.4093 C   0  0  0  0  0  0  0  0  0  0  0  0
    6.1963    5.3526    0.5975 C   0  0  0  0  0  0  0  0  0  0  0  0
    5.2015    4.4256    0.3070 C   0  0  0  0  0  0  0  0  0  0  0  0
    4.3265    4.0626    1.2530 F   0  0  0  0  0  0  0  0  0  0  0  0
    1.7921   -0.9837    1.5756 H   0  0  0  0  0  0  0  0  0  0  0  0
    1.0706    0.5916    1.1252 H   0  0  0  0  0  0  0  0  0  0  0  0
    2.7328    0.5202    1.7568 H   0  0  0  0  0  0  0  0  0  0  0  0
    3.4825   -0.7520   -0.2456 H   0  0  0  0  0  0  0  0  0  0  0  0
    1.2999   -1.8508   -0.8213 H   0  0  0  0  0  0  0  0  0  0  0  0
    2.0890   -1.0596   -2.2097 H   0  0  0  0  0  0  0  0  0  0  0  0
   -0.1237   -0.0479   -0.7768 H   0  0  0  0  0  0  0  0  0  0  0  0
    2.1674    1.6095   -1.4115 H   0  0  0  0  0  0  0  0  0  0  0  0
    5.8706    3.8138   -2.9622 H   0  0  0  0  0  0  0  0  0  0  0  0
    7.6677    5.5002   -2.4802 H   0  0  0  0  0  0  0  0  0  0  0  0
    7.8677    6.4709   -0.1865 H   0  0  0  0  0  0  0  0  0  0  0  0
    6.2544    5.7604    1.6087 H   0  0  0  0  0  0  0  0  0  0  0  0
  1  2  1  0
  1 16  1  0
  1 17  1  0
  1 18  1  0
  2  3  1  0
  2  5  1  0
  2 19  1  1
  3  4  1  0
  3 20  1  0
  3 21  1  0
  4 22  1  0
  5  6  1  0
  5 23  1  0
  6  7  2  0
  6  8  1  0
  8  9  1  0
  9 10  2  0
  9 14  1  0
 10 11  1  0
 10 24  1  0
 11 12  2  0
 11 25  1  0
 12 13  1  0
 12 26  1  0
 13 14  2  0
 13 27  1  0
 14 15  1  0
M  END

