
     RDKit          3D

 39 40  0  0  0  0  0  0  0  0999 V2000
    0.8915   -2.3342    2.7896 C   0  0  0  0  0  0  0  0  0  0  0  0
    2.3405   -2.4580    2.8470 N   0  0  0  0  0  0  0  0  0  0  0  0
    3.0206   -2.8427    1.6057 C   0  0  1  0  0  0  0  0  0  0  0  0
    2.7098   -1.8797    0.4574 C   0  0  0  0  0  0  0  0  0  0  0  0
    4.5266   -2.9043    1.9092 C   0  0  0  0  0  0  0  0  0  0  0  0
    4.9720   -1.6054    2.3926 N   0  0  0  0  0  0  0  0  0  0  0  0
    6.5704   -1.2453    2.6335 S   0  0  1  0  0  0  0  0  0  0  0  0
    7.3037   -1.8092    1.5004 O   0  0  0  0  0  0  0  0  0  0  0  0
    6.6170    0.1682    2.9989 O   0  0  0  0  0  0  0  0  0  0  0  0
    7.0995   -2.1634    4.0833 C   0  0  0  0  0  0  0  0  0  0  0  0
    7.6756   -3.4346    3.9843 C   0  0  0  0  0  0  0  0  0  0  0  0
    8.0440   -4.1177    5.0622 N   0  0  0  0  0  0  0  0  0  0  0  0
    7.8570   -3.5434    6.2643 C   0  0  0  0  0  0  0  0  0  0  0  0
    8.2481   -4.3151    7.4689 C   0  0  0  0  0  0  0  0  0  0  0  0
    8.7914   -5.6066    7.3413 C   0  0  0  0  0  0  0  0  0  0  0  0
    9.1561   -6.3315    8.4756 C   0  0  0  0  0  0  0  0  0  0  0  0
    8.9843   -5.7780    9.7493 C   0  0  0  0  0  0  0  0  0  0  0  0
    8.4454   -4.4936    9.8841 C   0  0  0  0  0  0  0  0  0  0  0  0
    8.0792   -3.7648    8.7527 C   0  0  0  0  0  0  0  0  0  0  0  0
    7.3443   -2.3114    6.4472 N   0  0  0  0  0  0  0  0  0  0  0  0
    6.9740   -1.6290    5.3715 C   0  0  0  0  0  0  0  0  0  0  0  0
    0.5005   -2.1906    3.8085 H   0  0  0  0  0  0  0  0  0  0  0  0
    0.3767   -3.2156    2.3485 H   0  0  0  0  0  0  0  0  0  0  0  0
    0.5958   -1.4503    2.2044 H   0  0  0  0  0  0  0  0  0  0  0  0
    2.5823   -3.1371    3.5691 H   0  0  0  0  0  0  0  0  0  0  0  0
    2.7246   -3.8654    1.2778 H   0  0  0  0  0  0  0  0  0  0  0  0
    2.9694   -0.8454    0.7277 H   0  0  0  0  0  0  0  0  0  0  0  0
    1.6466   -1.9126    0.1776 H   0  0  0  0  0  0  0  0  0  0  0  0
    3.2935   -2.1571   -0.4335 H   0  0  0  0  0  0  0  0  0  0  0  0
    5.0916   -3.1598    1.0017 H   0  0  0  0  0  0  0  0  0  0  0  0
    4.7105   -3.7098    2.6518 H   0  0  0  0  0  0  0  0  0  0  0  0
    4.3265   -1.1538    3.0425 H   0  0  0  0  0  0  0  0  0  0  0  0
    7.8527   -3.8892    3.0034 H   0  0  0  0  0  0  0  0  0  0  0  0
    8.9209   -6.0234    6.3418 H   0  0  0  0  0  0  0  0  0  0  0  0
    9.5781   -7.3338    8.3669 H   0  0  0  0  0  0  0  0  0  0  0  0
    9.2714   -6.3474   10.6372 H   0  0  0  0  0  0  0  0  0  0  0  0
    8.3113   -4.0578   10.8774 H   0  0  0  0  0  0  0  0  0  0  0  0
    7.6596   -2.7620    8.8413 H   0  0  0  0  0  0  0  0  0  0  0  0
    6.5772   -0.6178    5.5170 H   0  0  0  0  0  0  0  0  0  0  0  0
  1  2  1  0
  1 22  1  0
  1 23  1  0
  1 24  1  0
  2  3  1  0
  2 25  1  0
  3  4  1  0
  3  5  1  0
  3 26  1  6
  4 27  1  0
  4 28  1  0
  4 29  1  0
  5  6  1  0
  5 30  1  0
  5 31  1  0
  7  6  1  6
  6 32  1  0
  7  8  2  0
  7  9  2  0
  7 10  1  0
 10 11  2  0
 10 21  1  0
 11 12  1  0
 11 33  1  0
 12 13  2  0
 13 14  1  0
 13 20  1  0
 14 15  2  0
 14 19  1  0
 15 16  1  0
 15 34  1  0
 16 17  2  0
 16 35  1  0
 17 18  1  0
 17 36  1  0
 18 19  2  0
 18 37  1  0
 19 38  1  0
 20 21  2  0
 21 39  1  0
M  END

