
     RDKit          3D

 60 64  0  0  0  0  0  0  0  0999 V2000
    6.2442   -1.6300   -3.1574 C   0  0  0  0  0  0  0  0  0  0  0  0
    6.9133   -1.8605   -1.8017 C   0  0  0  0  0  0  0  0  0  0  0  0
    7.0505   -0.5873   -0.9605 C   0  0  0  0  0  0  0  0  0  0  0  0
    7.7210   -0.8224    0.3983 C   0  0  0  0  0  0  0  0  0  0  0  0
    7.9592    0.4393    1.2386 C   0  0  0  0  0  0  0  0  0  0  0  0
    6.6670    1.1166    1.7098 C   0  0  0  0  0  0  0  0  0  0  0  0
    6.9171    2.2803    2.5753 N   0  0  0  0  0  0  0  0  0  0  0  0
    7.0490    2.0414    3.9538 C   0  0  0  0  0  0  0  0  0  0  0  0
    6.9514    0.9119    4.3999 O   0  0  0  0  0  0  0  0  0  0  0  0
    7.3056    3.2245    4.8181 C   0  0  0  0  0  0  0  0  0  0  0  0
    7.4365    3.0560    6.1886 C   0  0  0  0  0  0  0  0  0  0  0  0
    7.6838    4.1720    7.0185 C   0  0  0  0  0  0  0  0  0  0  0  0
    7.7999    5.4398    6.4786 C   0  0  0  0  0  0  0  0  0  0  0  0
    7.6714    5.6524    5.0768 C   0  0  0  0  0  0  0  0  0  0  0  0
    7.7853    6.9335    4.4776 C   0  0  0  0  0  0  0  0  0  0  0  0
    7.6485    7.1058    3.1012 C   0  0  0  0  0  0  0  0  0  0  0  0
    7.8505    8.3487    2.5086 N   0  0  0  0  0  0  0  0  0  0  0  0
    6.9226    9.1575    2.1526 C   0  0  0  0  0  0  0  0  0  0  0  0
    5.4755    9.0681    2.2792 C   0  0  0  0  0  0  0  0  0  0  0  0
    4.6919    8.0692    2.8505 C   0  0  0  0  0  0  0  0  0  0  0  0
    3.3663    8.3892    2.7613 N   0  0  0  0  0  0  0  0  0  0  0  0
    2.2630    7.5838    3.2422 C   0  0  0  0  0  0  0  0  0  0  0  0
    3.2390    9.6159    2.1248 C   0  0  0  0  0  0  0  0  0  0  0  0
    2.0843   10.3447    1.8099 C   0  0  0  0  0  0  0  0  0  0  0  0
    2.2541   11.5650    1.1603 C   0  0  0  0  0  0  0  0  0  0  0  0
    3.5405   12.0436    0.8341 C   0  0  0  0  0  0  0  0  0  0  0  0
    4.6838   11.3139    1.1492 C   0  0  0  0  0  0  0  0  0  0  0  0
    4.5445   10.0775    1.8061 C   0  0  0  0  0  0  0  0  0  0  0  0
    7.4108    5.9616    2.2845 C   0  0  0  0  0  0  0  0  0  0  0  0
    7.2939    4.7006    2.8418 C   0  0  0  0  0  0  0  0  0  0  0  0
    7.4185    4.5169    4.2443 C   0  0  0  0  0  0  0  0  0  0  0  0
    7.0367    3.5335    1.9532 C   0  0  0  0  0  0  0  0  0  0  0  0
    6.9259    3.6423    0.7450 O   0  0  0  0  0  0  0  0  0  0  0  0
    6.1636   -2.5653   -3.7344 H   0  0  0  0  0  0  0  0  0  0  0  0
    6.8142   -0.9101   -3.7684 H   0  0  0  0  0  0  0  0  0  0  0  0
    5.2255   -1.2240   -3.0382 H   0  0  0  0  0  0  0  0  0  0  0  0
    7.9146   -2.3032   -1.9546 H   0  0  0  0  0  0  0  0  0  0  0  0
    6.3394   -2.6128   -1.2300 H   0  0  0  0  0  0  0  0  0  0  0  0
    6.0480   -0.1446   -0.8188 H   0  0  0  0  0  0  0  0  0  0  0  0
    7.6308    0.1648   -1.5270 H   0  0  0  0  0  0  0  0  0  0  0  0
    8.6950   -1.3157    0.2312 H   0  0  0  0  0  0  0  0  0  0  0  0
    7.1201   -1.5430    0.9842 H   0  0  0  0  0  0  0  0  0  0  0  0
    8.5529    1.1669    0.6587 H   0  0  0  0  0  0  0  0  0  0  0  0
    8.5522    0.1708    2.1281 H   0  0  0  0  0  0  0  0  0  0  0  0
    6.0638    0.4070    2.2912 H   0  0  0  0  0  0  0  0  0  0  0  0
    6.0846    1.4798    0.8549 H   0  0  0  0  0  0  0  0  0  0  0  0
    7.3464    2.0498    6.6019 H   0  0  0  0  0  0  0  0  0  0  0  0
    7.7866    4.0280    8.0968 H   0  0  0  0  0  0  0  0  0  0  0  0
    7.9952    6.2988    7.1262 H   0  0  0  0  0  0  0  0  0  0  0  0
    7.9920    7.8047    5.1035 H   0  0  0  0  0  0  0  0  0  0  0  0
    7.2714   10.0861    1.6740 H   0  0  0  0  0  0  0  0  0  0  0  0
    4.9961    7.1392    3.3229 H   0  0  0  0  0  0  0  0  0  0  0  0
    2.6553    6.6673    3.7017 H   0  0  0  0  0  0  0  0  0  0  0  0
    1.5922    7.3017    2.4144 H   0  0  0  0  0  0  0  0  0  0  0  0
    1.6755    8.1320    3.9966 H   0  0  0  0  0  0  0  0  0  0  0  0
    1.0877    9.9754    2.0607 H   0  0  0  0  0  0  0  0  0  0  0  0
    1.3765   12.1610    0.8985 H   0  0  0  0  0  0  0  0  0  0  0  0
    3.6388   13.0048    0.3238 H   0  0  0  0  0  0  0  0  0  0  0  0
    5.6709   11.7014    0.8864 H   0  0  0  0  0  0  0  0  0  0  0  0
    7.3234    6.0712    1.2023 H   0  0  0  0  0  0  0  0  0  0  0  0
  1  2  1  0
  1 34  1  0
  1 35  1  0
  1 36  1  0
  2  3  1  0
  2 37  1  0
  2 38  1  0
  3  4  1  0
  3 39  1  0
  3 40  1  0
  4  5  1  0
  4 41  1  0
  4 42  1  0
  5  6  1  0
  5 43  1  0
  5 44  1  0
  6  7  1  0
  6 45  1  0
  6 46  1  0
  7  8  1  0
  7 32  1  0
  8  9  2  0
  8 10  1  0
 10 11  1  0
 10 31  2  0
 11 12  2  0
 11 47  1  0
 12 13  1  0
 12 48  1  0
 13 14  2  0
 13 49  1  0
 14 15  1  0
 14 31  1  0
 15 16  2  0
 15 50  1  0
 16 17  1  0
 16 29  1  0
 17 18  2  0
 18 19  1  0
 18 51  1  0
 19 20  2  0
 19 28  1  0
 20 21  1  0
 20 52  1  0
 21 22  1  0
 21 23  1  0
 22 53  1  0
 22 54  1  0
 22 55  1  0
 23 24  1  0
 23 28  2  0
 24 25  2  0
 24 56  1  0
 25 26  1  0
 25 57  1  0
 26 27  2  0
 26 58  1  0
 27 28  1  0
 27 59  1  0
 29 30  2  0
 29 60  1  0
 30 31  1  0
 30 32  1  0
 32 33  2  0
M  END

