
     RDKit          3D

 58 58  0  0  0  0  0  0  0  0999 V2000
    2.7266   -1.5696    2.2109 C   0  0  0  0  0  0  0  0  0  0  0  0
    2.4142   -0.5770    1.0906 C   0  0  0  0  0  0  0  0  0  0  0  0
    3.0398    0.8178    1.2889 C   0  0  0  0  0  0  0  0  0  0  0  0
    4.5573    0.8509    1.3297 C   0  0  0  0  0  0  0  0  0  0  0  0
    5.3213    0.3482    0.1189 C   0  0  0  0  0  0  0  0  0  0  0  0
    5.0775    1.1502   -1.1724 C   0  0  0  0  0  0  0  0  0  0  0  0
    5.9157    0.6452   -2.3519 C   0  0  0  0  0  0  0  0  0  0  0  0
    5.6519    1.3323   -3.7061 C   0  0  1  0  0  0  0  0  0  0  0  0
    6.0032    2.8264   -3.6742 C   0  0  0  0  0  0  0  0  0  0  0  0
    6.3960    0.5874   -4.8330 C   0  0  0  0  0  0  0  0  0  0  0  0
    6.0618    1.0412   -6.2558 C   0  0  0  0  0  0  0  0  0  0  0  0
    5.2048    1.3296    2.3946 C   0  0  0  0  0  0  0  0  0  0  0  0
    5.1290    1.8893    3.7536 C   0  0  1  0  0  0  0  0  0  0  0  0
    4.6190    1.1072    4.9550 C   0  0  0  0  0  0  0  0  0  0  0  0
    5.1343    1.6381    6.2986 C   0  0  0  0  0  0  0  0  0  0  0  0
    4.5805    0.8798    7.5056 C   0  0  0  0  0  0  0  0  0  0  0  0
    6.4928    1.6202    3.0540 C   0  0  1  0  0  0  0  0  0  0  0  0
    7.3625    0.4548    3.5112 C   0  0  0  0  0  0  0  0  0  0  0  0
    7.2698    2.8561    2.5885 C   0  0  0  0  0  0  0  0  0  0  0  0
    8.1116    3.5326    3.6744 C   0  0  0  0  0  0  0  0  0  0  0  0
    2.2391   -2.5417    2.0331 H   0  0  0  0  0  0  0  0  0  0  0  0
    2.3749   -1.1932    3.1864 H   0  0  0  0  0  0  0  0  0  0  0  0
    3.8099   -1.7492    2.3028 H   0  0  0  0  0  0  0  0  0  0  0  0
    1.3203   -0.4536    1.0045 H   0  0  0  0  0  0  0  0  0  0  0  0
    2.7398   -0.9974    0.1226 H   0  0  0  0  0  0  0  0  0  0  0  0
    2.6513    1.2603    2.2210 H   0  0  0  0  0  0  0  0  0  0  0  0
    2.6864    1.4713    0.4701 H   0  0  0  0  0  0  0  0  0  0  0  0
    5.0620   -0.7103   -0.0724 H   0  0  0  0  0  0  0  0  0  0  0  0
    6.3991    0.3586    0.3493 H   0  0  0  0  0  0  0  0  0  0  0  0
    5.2957    2.2128   -0.9716 H   0  0  0  0  0  0  0  0  0  0  0  0
    4.0084    1.1045   -1.4471 H   0  0  0  0  0  0  0  0  0  0  0  0
    5.7340   -0.4388   -2.4700 H   0  0  0  0  0  0  0  0  0  0  0  0
    6.9904    0.7409   -2.1044 H   0  0  0  0  0  0  0  0  0  0  0  0
    4.5671    1.2444   -3.9152 H   0  0  0  0  0  0  0  0  0  0  0  0
    7.0776    2.9716   -3.4645 H   0  0  0  0  0  0  0  0  0  0  0  0
    5.4373    3.3639   -2.8982 H   0  0  0  0  0  0  0  0  0  0  0  0
    5.7818    3.3192   -4.6332 H   0  0  0  0  0  0  0  0  0  0  0  0
    6.1705   -0.4901   -4.7430 H   0  0  0  0  0  0  0  0  0  0  0  0
    7.4851    0.6792   -4.6617 H   0  0  0  0  0  0  0  0  0  0  0  0
    4.9791    0.9682   -6.4552 H   0  0  0  0  0  0  0  0  0  0  0  0
    6.5776    0.4149   -7.0013 H   0  0  0  0  0  0  0  0  0  0  0  0
    6.3628    2.0839   -6.4441 H   0  0  0  0  0  0  0  0  0  0  0  0
    4.8783    2.9600    3.8107 H   0  0  0  0  0  0  0  0  0  0  0  0
    4.8776    0.0402    4.8505 H   0  0  0  0  0  0  0  0  0  0  0  0
    3.5135    1.1422    4.9543 H   0  0  0  0  0  0  0  0  0  0  0  0
    4.8770    2.7095    6.3850 H   0  0  0  0  0  0  0  0  0  0  0  0
    6.2378    1.5948    6.3065 H   0  0  0  0  0  0  0  0  0  0  0  0
    3.4795    0.9359    7.5442 H   0  0  0  0  0  0  0  0  0  0  0  0
    4.9673    1.2873    8.4535 H   0  0  0  0  0  0  0  0  0  0  0  0
    4.8528   -0.1885    7.4678 H   0  0  0  0  0  0  0  0  0  0  0  0
    6.7626   -0.4292    3.7691 H   0  0  0  0  0  0  0  0  0  0  0  0
    7.9732    0.7174    4.3909 H   0  0  0  0  0  0  0  0  0  0  0  0
    8.0542    0.1558    2.7054 H   0  0  0  0  0  0  0  0  0  0  0  0
    6.5523    3.5849    2.1749 H   0  0  0  0  0  0  0  0  0  0  0  0
    7.9212    2.5647    1.7438 H   0  0  0  0  0  0  0  0  0  0  0  0
    7.4872    3.8366    4.5309 H   0  0  0  0  0  0  0  0  0  0  0  0
    8.6063    4.4368    3.2843 H   0  0  0  0  0  0  0  0  0  0  0  0
    8.9017    2.8683    4.0592 H   0  0  0  0  0  0  0  0  0  0  0  0
  1  2  1  0
  1 21  1  0
  1 22  1  0
  1 23  1  0
  2  3  1  0
  2 24  1  0
  2 25  1  0
  3  4  1  0
  3 26  1  0
  3 27  1  0
  4  5  1  0
  4 12  2  0
  5  6  1  0
  5 28  1  0
  5 29  1  0
  6  7  1  0
  6 30  1  0
  6 31  1  0
  7  8  1  0
  7 32  1  0
  7 33  1  0
  8  9  1  0
  8 10  1  0
  8 34  1  6
  9 35  1  0
  9 36  1  0
  9 37  1  0
 10 11  1  0
 10 38  1  0
 10 39  1  0
 11 40  1  0
 11 41  1  0
 11 42  1  0
 12 13  1  0
 12 17  1  0
 13 14  1  0
 13 17  1  0
 13 43  1  6
 14 15  1  0
 14 44  1  0
 14 45  1  0
 15 16  1  0
 15 46  1  0
 15 47  1  0
 16 48  1  0
 16 49  1  0
 16 50  1  0
 17 18  1  1
 17 19  1  0
 18 51  1  0
 18 52  1  0
 18 53  1  0
 19 20  1  0
 19 54  1  0
 19 55  1  0
 20 56  1  0
 20 57  1  0
 20 58  1  0
M  END

