
     RDKit          3D

 33 35  0  0  0  0  0  0  0  0999 V2000
    2.3339    0.2935   -1.9342 O   0  0  0  0  0  0  0  0  0  0  0  0
    2.8662    0.1008   -0.8223 C   0  0  0  0  0  0  0  0  0  0  0  0
    2.8464   -1.1260   -0.2556 N   0  0  0  0  0  0  0  0  0  0  0  0
    2.2579   -2.2863   -0.9183 C   0  0  0  0  0  0  0  0  0  0  0  0
    3.2702   -3.1653   -1.6317 C   0  0  0  0  0  0  0  0  0  0  0  0
    3.7920   -2.7702   -2.8722 C   0  0  0  0  0  0  0  0  0  0  0  0
    4.7512   -3.5432   -3.5531 C   0  0  0  0  0  0  0  0  0  0  0  0
    5.1596   -4.7182   -2.9459 C   0  0  0  0  0  0  0  0  0  0  0  0
    4.6452   -5.1217   -1.7126 C   0  0  0  0  0  0  0  0  0  0  0  0
    3.7039   -4.3699   -1.0320 C   0  0  0  0  0  0  0  0  0  0  0  0
    5.2152   -6.3100   -1.3487 O   0  0  0  0  0  0  0  0  0  0  0  0
    6.1012   -6.6766   -2.4042 C   0  0  0  0  0  0  0  0  0  0  0  0
    6.0645   -5.6438   -3.3857 O   0  0  0  0  0  0  0  0  0  0  0  0
    3.5178    1.2356   -0.1034 C   0  0  0  0  0  0  0  0  0  0  0  0
    3.4867    2.5260   -0.7251 C   0  0  0  0  0  0  0  0  0  0  0  0
    2.9038    2.7238   -1.8994 O   0  0  0  0  0  0  0  0  0  0  0  0
    4.0873    3.6309   -0.0858 C   0  0  0  0  0  0  0  0  0  0  0  0
    4.7106    3.4814    1.1437 C   0  0  0  0  0  0  0  0  0  0  0  0
    4.7597    2.2322    1.7800 C   0  0  0  0  0  0  0  0  0  0  0  0
    4.1674    1.1549    1.1456 C   0  0  0  0  0  0  0  0  0  0  0  0
    4.2317   -0.0407    1.7835 F   0  0  0  0  0  0  0  0  0  0  0  0
    3.3514   -1.2631    0.6107 H   0  0  0  0  0  0  0  0  0  0  0  0
    1.5186   -1.9013   -1.6325 H   0  0  0  0  0  0  0  0  0  0  0  0
    1.7208   -2.8751   -0.1582 H   0  0  0  0  0  0  0  0  0  0  0  0
    3.4429   -1.8354   -3.3168 H   0  0  0  0  0  0  0  0  0  0  0  0
    5.1546   -3.2367   -4.5194 H   0  0  0  0  0  0  0  0  0  0  0  0
    3.3104   -4.7057   -0.0702 H   0  0  0  0  0  0  0  0  0  0  0  0
    5.7701   -7.6311   -2.8543 H   0  0  0  0  0  0  0  0  0  0  0  0
    7.1282   -6.7797   -2.0095 H   0  0  0  0  0  0  0  0  0  0  0  0
    2.5448    1.8303   -2.1874 H   0  0  0  0  0  0  0  0  0  0  0  0
    4.0409    4.5954   -0.5937 H   0  0  0  0  0  0  0  0  0  0  0  0
    5.1714    4.3471    1.6259 H   0  0  0  0  0  0  0  0  0  0  0  0
    5.2436    2.0843    2.7458 H   0  0  0  0  0  0  0  0  0  0  0  0
  1  2  2  0
  2  3  1  0
  2 14  1  0
  3  4  1  0
  3 22  1  0
  4  5  1  0
  4 23  1  0
  4 24  1  0
  5  6  2  0
  5 10  1  0
  6  7  1  0
  6 25  1  0
  7  8  2  0
  7 26  1  0
  8  9  1  0
  8 13  1  0
  9 10  2  0
  9 11  1  0
 10 27  1  0
 11 12  1  0
 12 13  1  0
 12 28  1  0
 12 29  1  0
 14 15  2  0
 14 20  1  0
 15 16  1  0
 15 17  1  0
 16 30  1  0
 17 18  2  0
 17 31  1  0
 18 19  1  0
 18 32  1  0
 19 20  2  0
 19 33  1  0
 20 21  1  0
M  END

