
     RDKit          3D

 39 42  0  0  0  0  0  0  0  0999 V2000
    0.6844   -0.0658    0.8878 C   0  0  0  0  0  0  0  0  0  0  0  0
    2.0540   -0.0964    0.1903 C   0  0  1  0  0  0  0  0  0  0  0  0
    1.8972   -0.0625   -0.9000 H   0  0  0  0  0  0  0  0  0  0  0  0
    2.9813    1.0693    0.6143 C   0  0  0  0  0  0  0  0  0  0  0  0
    3.8919    0.4894    1.6278 N   0  0  0  0  0  0  0  0  0  0  0  0
    4.5279    1.1578    2.6510 C   0  0  0  0  0  0  0  0  0  0  0  0
    5.1165    0.5732    3.5488 O   0  0  0  0  0  0  0  0  0  0  0  0
    4.4792    2.6682    2.6627 C   0  0  0  0  0  0  0  0  0  0  0  0
    4.3219    3.2929    3.9112 C   0  0  0  0  0  0  0  0  0  0  0  0
    4.3373    4.6837    4.0041 C   0  0  0  0  0  0  0  0  0  0  0  0
    4.5367    5.4707    2.8666 C   0  0  0  0  0  0  0  0  0  0  0  0
    4.7410    4.8469    1.6303 C   0  0  0  0  0  0  0  0  0  0  0  0
    4.9884    5.6193    0.4635 N   0  0  0  0  0  0  0  0  0  0  0  0
    5.4755    6.8873    0.3468 C   0  0  0  0  0  0  0  0  0  0  0  0
    5.5686    7.2262   -0.9211 N   0  0  0  0  0  0  0  0  0  0  0  0
    5.1239    6.1126   -1.5653 C   0  0  0  0  0  0  0  0  0  0  0  0
    4.7659    5.1174   -0.7740 N   0  0  0  0  0  0  0  0  0  0  0  0
    4.7050    3.4508    1.5248 C   0  0  0  0  0  0  0  0  0  0  0  0
    3.8939   -0.9219    1.4781 C   0  0  0  0  0  0  0  0  0  0  0  0
    4.7433   -1.8696    2.0601 C   0  0  0  0  0  0  0  0  0  0  0  0
    4.5593   -3.2136    1.7111 C   0  0  0  0  0  0  0  0  0  0  0  0
    3.5571   -3.6061    0.8175 C   0  0  0  0  0  0  0  0  0  0  0  0
    2.7028   -2.6467    0.2566 C   0  0  0  0  0  0  0  0  0  0  0  0
    2.8756   -1.3063    0.5895 C   0  0  0  0  0  0  0  0  0  0  0  0
    0.1113    0.8296    0.5962 H   0  0  0  0  0  0  0  0  0  0  0  0
    0.8012   -0.0596    1.9836 H   0  0  0  0  0  0  0  0  0  0  0  0
    0.0884   -0.9523    0.6210 H   0  0  0  0  0  0  0  0  0  0  0  0
    2.4298    1.9231    1.0291 H   0  0  0  0  0  0  0  0  0  0  0  0
    3.5604    1.4277   -0.2525 H   0  0  0  0  0  0  0  0  0  0  0  0
    4.1930    2.6717    4.7989 H   0  0  0  0  0  0  0  0  0  0  0  0
    4.1879    5.1681    4.9719 H   0  0  0  0  0  0  0  0  0  0  0  0
    4.5221    6.5590    2.9459 H   0  0  0  0  0  0  0  0  0  0  0  0
    5.7603    7.4979    1.2021 H   0  0  0  0  0  0  0  0  0  0  0  0
    5.0603    6.0320   -2.6505 H   0  0  0  0  0  0  0  0  0  0  0  0
    4.8768    3.0072    0.5461 H   0  0  0  0  0  0  0  0  0  0  0  0
    5.5117   -1.5634    2.7655 H   0  0  0  0  0  0  0  0  0  0  0  0
    5.2177   -3.9680    2.1498 H   0  0  0  0  0  0  0  0  0  0  0  0
    3.4376   -4.6611    0.5593 H   0  0  0  0  0  0  0  0  0  0  0  0
    1.9101   -2.9476   -0.4342 H   0  0  0  0  0  0  0  0  0  0  0  0
  1  2  1  0
  1 25  1  0
  1 26  1  0
  1 27  1  0
  2  3  1  6
  2  4  1  0
  2 24  1  0
  4  5  1  0
  4 28  1  0
  4 29  1  0
  5  6  1  0
  5 19  1  0
  6  7  2  0
  6  8  1  0
  8  9  2  0
  8 18  1  0
  9 10  1  0
  9 30  1  0
 10 11  2  0
 10 31  1  0
 11 12  1  0
 11 32  1  0
 12 13  1  0
 12 18  2  0
 13 14  1  0
 13 17  1  0
 14 15  2  0
 14 33  1  0
 15 16  1  0
 16 17  2  0
 16 34  1  0
 18 35  1  0
 19 20  2  0
 19 24  1  0
 20 21  1  0
 20 36  1  0
 21 22  2  0
 21 37  1  0
 22 23  1  0
 22 38  1  0
 23 24  2  0
 23 39  1  0
M  END

