
     RDKit          3D

 32 33  0  0  0  0  0  0  0  0999 V2000
    5.3636    0.4554    2.2845 C   0  0  0  0  0  0  0  0  0  0  0  0
    4.5048    0.2620    1.0399 C   0  0  0  0  0  0  0  0  0  0  0  0
    5.3193   -0.0772   -0.1156 N   0  0  0  0  0  0  0  0  0  0  0  0
    4.5590   -0.2833   -1.3387 C   0  0  0  0  0  0  0  0  0  0  0  0
    5.4546   -0.5182   -2.5196 C   0  0  0  0  0  0  0  0  0  0  0  0
    6.0535    0.5502   -3.1714 N   0  0  0  0  0  0  0  0  0  0  0  0
    6.7143    0.0257   -4.1478 C   0  0  0  0  0  0  0  0  0  0  0  0
    6.6218   -1.3170   -4.2220 O   0  0  0  0  0  0  0  0  0  0  0  0
    5.8169   -1.6805   -3.1678 C   0  0  0  0  0  0  0  0  0  0  0  0
    5.5295   -3.1112   -3.0596 C   0  0  0  0  0  0  0  0  0  0  0  0
    5.5651   -3.9242   -4.2120 C   0  0  0  0  0  0  0  0  0  0  0  0
    5.3098   -5.2919   -4.1453 C   0  0  0  0  0  0  0  0  0  0  0  0
    5.3491   -6.1475   -5.3880 C   0  0  1  0  0  0  0  0  0  0  0  0
    5.6219   -5.4330   -6.4909 F   0  0  0  0  0  0  0  0  0  0  0  0
    6.2844   -7.1110   -5.2900 F   0  0  0  0  0  0  0  0  0  0  0  0
    4.1731   -6.7708   -5.5908 F   0  0  0  0  0  0  0  0  0  0  0  0
    5.0101   -5.8968   -2.9159 C   0  0  0  0  0  0  0  0  0  0  0  0
    4.9824   -5.1209   -1.7609 C   0  0  0  0  0  0  0  0  0  0  0  0
    5.2460   -3.7562   -1.8455 C   0  0  0  0  0  0  0  0  0  0  0  0
    5.2455   -3.0499   -0.7028 F   0  0  0  0  0  0  0  0  0  0  0  0
    4.7479    0.7493    3.1490 H   0  0  0  0  0  0  0  0  0  0  0  0
    6.1239    1.2329    2.1125 H   0  0  0  0  0  0  0  0  0  0  0  0
    5.8896   -0.4767    2.5538 H   0  0  0  0  0  0  0  0  0  0  0  0
    3.9656    1.1999    0.8141 H   0  0  0  0  0  0  0  0  0  0  0  0
    3.7140   -0.4974    1.2476 H   0  0  0  0  0  0  0  0  0  0  0  0
    5.8671   -0.9140    0.0812 H   0  0  0  0  0  0  0  0  0  0  0  0
    3.9927    0.6398   -1.5468 H   0  0  0  0  0  0  0  0  0  0  0  0
    3.8141   -1.1041   -1.2655 H   0  0  0  0  0  0  0  0  0  0  0  0
    7.3229    0.5209   -4.9033 H   0  0  0  0  0  0  0  0  0  0  0  0
    5.7975   -3.4622   -5.1708 H   0  0  0  0  0  0  0  0  0  0  0  0
    4.8050   -6.9677   -2.8613 H   0  0  0  0  0  0  0  0  0  0  0  0
    4.7698   -5.5533   -0.7818 H   0  0  0  0  0  0  0  0  0  0  0  0
  1  2  1  0
  1 21  1  0
  1 22  1  0
  1 23  1  0
  2  3  1  0
  2 24  1  0
  2 25  1  0
  3  4  1  0
  3 26  1  0
  4  5  1  0
  4 27  1  0
  4 28  1  0
  5  6  1  0
  5  9  2  0
  6  7  2  0
  7  8  1  0
  7 29  1  0
  8  9  1  0
  9 10  1  0
 10 11  2  0
 10 19  1  0
 11 12  1  0
 11 30  1  0
 12 13  1  0
 12 17  2  0
 13 14  1  6
 13 15  1  0
 13 16  1  0
 17 18  1  0
 17 31  1  0
 18 19  2  0
 18 32  1  0
 19 20  1  0
M  END

