
     RDKit          3D

 42 42  0  0  0  0  0  0  0  0999 V2000
    0.5476   -0.4141   -0.0596 C   0  0  0  0  0  0  0  0  0  0  0  0
    2.0434   -0.1153   -0.0444 C   0  0  0  0  0  0  0  0  0  0  0  0
    2.7783   -1.1790    0.6173 N   0  0  0  0  0  0  0  0  0  0  0  0
    4.2357   -1.1010    0.5825 C   0  0  1  0  0  0  0  0  0  0  0  0
    4.7770    0.0246    1.5013 C   0  0  0  0  0  0  0  0  0  0  0  0
    5.1598    1.3265    0.7816 C   0  0  0  0  0  0  0  0  0  0  0  0
    5.6560    2.4048    1.7247 C   0  0  1  0  0  0  0  0  0  0  0  0
    7.1016    2.4450    2.1575 C   0  0  0  0  0  0  0  0  0  0  0  0
    6.5572    3.5086    1.2347 C   0  0  0  0  0  0  0  0  0  0  0  0
    4.8123   -2.5197    0.9163 C   0  0  1  0  0  0  0  0  0  0  0  0
    6.3330   -2.5591    0.7023 C   0  0  0  0  0  0  0  0  0  0  0  0
    4.4272   -2.9516    2.3476 C   0  0  0  0  0  0  0  0  0  0  0  0
    4.8249   -4.3783    2.7299 C   0  0  0  0  0  0  0  0  0  0  0  0
    4.1540   -3.4857    0.0677 O   0  0  0  0  0  0  0  0  0  0  0  0
    4.4839   -3.5427   -1.2986 C   0  0  0  0  0  0  0  0  0  0  0  0
   -0.0164    0.4040   -0.5344 H   0  0  0  0  0  0  0  0  0  0  0  0
    0.1703   -0.5514    0.9658 H   0  0  0  0  0  0  0  0  0  0  0  0
    0.3321   -1.3383   -0.6230 H   0  0  0  0  0  0  0  0  0  0  0  0
    2.2114    0.8339    0.4928 H   0  0  0  0  0  0  0  0  0  0  0  0
    2.3965    0.0640   -1.0883 H   0  0  0  0  0  0  0  0  0  0  0  0
    2.5082   -2.0803    0.2233 H   0  0  0  0  0  0  0  0  0  0  0  0
    4.5896   -0.8694   -0.4500 H   0  0  0  0  0  0  0  0  0  0  0  0
    5.6653   -0.3207    2.0527 H   0  0  0  0  0  0  0  0  0  0  0  0
    4.0116    0.2303    2.2677 H   0  0  0  0  0  0  0  0  0  0  0  0
    4.2982    1.7127    0.2095 H   0  0  0  0  0  0  0  0  0  0  0  0
    5.9447    1.1139    0.0328 H   0  0  0  0  0  0  0  0  0  0  0  0
    4.9265    2.6941    2.4914 H   0  0  0  0  0  0  0  0  0  0  0  0
    7.7819    1.7000    1.7318 H   0  0  0  0  0  0  0  0  0  0  0  0
    7.3347    2.7202    3.1902 H   0  0  0  0  0  0  0  0  0  0  0  0
    6.8689    3.4846    0.1855 H   0  0  0  0  0  0  0  0  0  0  0  0
    6.4122    4.5174    1.6318 H   0  0  0  0  0  0  0  0  0  0  0  0
    6.8583   -2.0061    1.4936 H   0  0  0  0  0  0  0  0  0  0  0  0
    6.6263   -2.1160   -0.2620 H   0  0  0  0  0  0  0  0  0  0  0  0
    6.6965   -3.5970    0.7252 H   0  0  0  0  0  0  0  0  0  0  0  0
    3.3375   -2.8313    2.4399 H   0  0  0  0  0  0  0  0  0  0  0  0
    4.8745   -2.2361    3.0565 H   0  0  0  0  0  0  0  0  0  0  0  0
    4.4105   -5.1024    2.0134 H   0  0  0  0  0  0  0  0  0  0  0  0
    4.4389   -4.6292    3.7308 H   0  0  0  0  0  0  0  0  0  0  0  0
    5.9178   -4.5179    2.7590 H   0  0  0  0  0  0  0  0  0  0  0  0
    3.8123   -4.2855   -1.7553 H   0  0  0  0  0  0  0  0  0  0  0  0
    5.5243   -3.8724   -1.4748 H   0  0  0  0  0  0  0  0  0  0  0  0
    4.3360   -2.5798   -1.8239 H   0  0  0  0  0  0  0  0  0  0  0  0
  1  2  1  0
  1 16  1  0
  1 17  1  0
  1 18  1  0
  2  3  1  0
  2 19  1  0
  2 20  1  0
  3  4  1  0
  3 21  1  0
  4  5  1  0
  4 10  1  0
  4 22  1  6
  5  6  1  0
  5 23  1  0
  5 24  1  0
  6  7  1  0
  6 25  1  0
  6 26  1  0
  7  8  1  0
  7  9  1  0
  7 27  1  1
  8  9  1  0
  8 28  1  0
  8 29  1  0
  9 30  1  0
  9 31  1  0
 10 11  1  0
 10 12  1  0
 10 14  1  6
 11 32  1  0
 11 33  1  0
 11 34  1  0
 12 13  1  0
 12 35  1  0
 12 36  1  0
 13 37  1  0
 13 38  1  0
 13 39  1  0
 14 15  1  0
 15 40  1  0
 15 41  1  0
 15 42  1  0
M  END

