
     RDKit          3D

 53 57  0  0  0  0  0  0  0  0999 V2000
    0.8754   -0.0309   -0.5334 C   0  0  0  0  0  0  0  0  0  0  0  0
    2.7645   -0.0142   -0.4282 Si  0  0  2  0  0  4  0  0  0  0  0  0
    3.4715   -0.0009   -2.1811 C   0  0  0  0  0  0  0  0  0  0  0  0
    3.3722   -1.5354    0.5105 C   0  0  0  0  0  0  0  0  0  0  0  0
    4.0467   -2.5719   -0.1594 C   0  0  0  0  0  0  0  0  0  0  0  0
    4.4244   -3.7522    0.4797 C   0  0  0  0  0  0  0  0  0  0  0  0
    4.1231   -3.9552    1.8386 C   0  0  0  0  0  0  0  0  0  0  0  0
    4.4974   -5.2170    2.5324 C   0  0  0  0  0  0  0  0  0  0  0  0
    5.7111   -5.8692    2.2431 C   0  0  0  0  0  0  0  0  0  0  0  0
    6.0642   -7.0538    2.8928 C   0  0  0  0  0  0  0  0  0  0  0  0
    5.2110   -7.6157    3.8471 C   0  0  0  0  0  0  0  0  0  0  0  0
    4.0015   -6.9808    4.1453 C   0  0  0  0  0  0  0  0  0  0  0  0
    3.6496   -5.7958    3.4959 C   0  0  0  0  0  0  0  0  0  0  0  0
    3.4553   -2.9254    2.5153 C   0  0  0  0  0  0  0  0  0  0  0  0
    3.0975   -1.7104    1.8938 C   0  0  0  0  0  0  0  0  0  0  0  0
    2.4563   -0.7101    2.7629 C   0  0  0  0  0  0  0  0  0  0  0  0
    2.4485    0.6475    2.7691 C   0  0  0  0  0  0  0  0  0  0  0  0
    3.0791    1.6631    1.9098 C   0  0  0  0  0  0  0  0  0  0  0  0
    3.4209    2.8766    2.5433 C   0  0  0  0  0  0  0  0  0  0  0  0
    4.0626    3.9273    1.8735 C   0  0  0  0  0  0  0  0  0  0  0  0
    4.4217    5.1857    2.5812 C   0  0  0  0  0  0  0  0  0  0  0  0
    4.8752    5.1663    3.9140 C   0  0  0  0  0  0  0  0  0  0  0  0
    5.2118    6.3483    4.5769 C   0  0  0  0  0  0  0  0  0  0  0  0
    5.1027    7.5791    3.9228 C   0  0  0  0  0  0  0  0  0  0  0  0
    4.6544    7.6157    2.5990 C   0  0  0  0  0  0  0  0  0  0  0  0
    4.3188    6.4332    1.9365 C   0  0  0  0  0  0  0  0  0  0  0  0
    4.3520    3.7479    0.5086 C   0  0  0  0  0  0  0  0  0  0  0  0
    3.9921    2.5680   -0.1410 C   0  0  0  0  0  0  0  0  0  0  0  0
    3.3451    1.5099    0.5224 C   0  0  0  0  0  0  0  0  0  0  0  0
    0.5251   -0.9296   -1.0678 H   0  0  0  0  0  0  0  0  0  0  0  0
    0.5100    0.8557   -1.0778 H   0  0  0  0  0  0  0  0  0  0  0  0
    0.4159   -0.0292    0.4666 H   0  0  0  0  0  0  0  0  0  0  0  0
    3.1346   -0.8877   -2.7426 H   0  0  0  0  0  0  0  0  0  0  0  0
    4.5732    0.0089   -2.1900 H   0  0  0  0  0  0  0  0  0  0  0  0
    3.1189    0.8841   -2.7355 H   0  0  0  0  0  0  0  0  0  0  0  0
    4.2706   -2.4688   -1.2245 H   0  0  0  0  0  0  0  0  0  0  0  0
    4.9212   -4.5402   -0.0912 H   0  0  0  0  0  0  0  0  0  0  0  0
    6.3986   -5.4288    1.5172 H   0  0  0  0  0  0  0  0  0  0  0  0
    7.0163   -7.5367    2.6573 H   0  0  0  0  0  0  0  0  0  0  0  0
    5.4868   -8.5431    4.3554 H   0  0  0  0  0  0  0  0  0  0  0  0
    3.3222   -7.4153    4.8834 H   0  0  0  0  0  0  0  0  0  0  0  0
    2.6904   -5.3239    3.7212 H   0  0  0  0  0  0  0  0  0  0  0  0
    3.2374   -3.0476    3.5794 H   0  0  0  0  0  0  0  0  0  0  0  0
    1.9624   -1.1609    3.6315 H   0  0  0  0  0  0  0  0  0  0  0  0
    1.9491    1.0850    3.6413 H   0  0  0  0  0  0  0  0  0  0  0  0
    3.1671    3.0004    3.5992 H   0  0  0  0  0  0  0  0  0  0  0  0
    4.9900    4.2098    4.4292 H   0  0  0  0  0  0  0  0  0  0  0  0
    5.5700    6.3063    5.6089 H   0  0  0  0  0  0  0  0  0  0  0  0
    5.3661    8.5044    4.4415 H   0  0  0  0  0  0  0  0  0  0  0  0
    4.5576    8.5728    2.0797 H   0  0  0  0  0  0  0  0  0  0  0  0
    3.9476    6.4791    0.9100 H   0  0  0  0  0  0  0  0  0  0  0  0
    4.8714    4.5332   -0.0455 H   0  0  0  0  0  0  0  0  0  0  0  0
    4.2229    2.4753   -1.2057 H   0  0  0  0  0  0  0  0  0  0  0  0
  2  1  1  6
  1 30  1  0
  1 31  1  0
  1 32  1  0
  2  3  1  0
  2  4  1  0
  2 29  1  0
  3 33  1  0
  3 34  1  0
  3 35  1  0
  4  5  2  0
  4 15  1  0
  5  6  1  0
  5 36  1  0
  6  7  2  0
  6 37  1  0
  7  8  1  0
  7 14  1  0
  8  9  2  0
  8 13  1  0
  9 10  1  0
  9 38  1  0
 10 11  2  0
 10 39  1  0
 11 12  1  0
 11 40  1  0
 12 13  2  0
 12 41  1  0
 13 42  1  0
 14 15  2  0
 14 43  1  0
 15 16  1  0
 16 17  2  0
 16 44  1  0
 17 18  1  0
 17 45  1  0
 18 19  2  0
 18 29  1  0
 19 20  1  0
 19 46  1  0
 20 21  1  0
 20 27  2  0
 21 22  2  0
 21 26  1  0
 22 23  1  0
 22 47  1  0
 23 24  2  0
 23 48  1  0
 24 25  1  0
 24 49  1  0
 25 26  2  0
 25 50  1  0
 26 51  1  0
 27 28  1  0
 27 52  1  0
 28 29  2  0
 28 53  1  0
M  END

