
     RDKit          3D

 53 55  0  0  0  0  0  0  0  0999 V2000
    1.2363    0.9077    0.0205 O   0  0  0  0  0  0  0  0  0  0  0  0
    2.3108    1.4888    0.0658 C   0  0  0  0  0  0  0  0  0  0  0  0
    2.6558    2.5014   -0.8177 N   0  0  0  0  0  0  0  0  0  0  0  0
    1.8144    2.7658   -1.9620 C   0  0  0  0  0  0  0  0  0  0  0  0
    2.2634    2.0581   -3.2496 C   0  0  0  0  0  0  0  0  0  0  0  0
    3.7992    2.7743   -3.8951 S   0  0  1  0  0  0  0  0  0  0  0  0
    3.4751    4.0992   -4.4360 O   0  0  0  0  0  0  0  0  0  0  0  0
    4.8160    2.6336   -2.8340 O   0  0  0  0  0  0  0  0  0  0  0  0
    4.2257    1.7740   -5.1762 N   0  0  0  0  0  0  0  0  0  0  0  0
    4.1244    2.2983   -6.5443 C   0  0  0  0  0  0  0  0  0  0  0  0
    5.4315    2.9150   -7.0425 C   0  0  0  0  0  0  0  0  0  0  0  0
    6.8193    1.7167   -7.0223 S   0  0  0  0  0  0  0  0  0  0  0  0
    6.6511    1.1874   -5.2749 C   0  0  0  0  0  0  0  0  0  0  0  0
    5.2308    0.7291   -4.9420 C   0  0  0  0  0  0  0  0  0  0  0  0
    3.2879    1.2020    0.9951 N   0  0  0  0  0  0  0  0  0  0  0  0
    3.0405    0.3284    2.1477 C   0  0  1  0  0  0  0  0  0  0  0  0
    1.9905    0.9584    3.0889 C   0  0  0  0  0  0  0  0  0  0  0  0
    0.8229    0.2991    3.4960 C   0  0  0  0  0  0  0  0  0  0  0  0
   -0.0899    0.9128    4.3616 C   0  0  0  0  0  0  0  0  0  0  0  0
    0.1442    2.2039    4.8364 C   0  0  0  0  0  0  0  0  0  0  0  0
    1.3011    2.8794    4.4343 C   0  0  0  0  0  0  0  0  0  0  0  0
    2.2080    2.2610    3.5729 C   0  0  0  0  0  0  0  0  0  0  0  0
    2.7153   -1.1243    1.7160 C   0  0  0  0  0  0  0  0  0  0  0  0
    3.1846   -2.0358    2.8764 C   0  0  0  0  0  0  0  0  0  0  0  0
    4.1326   -1.1610    3.7420 C   0  0  0  0  0  0  0  0  0  0  0  0
    4.3749    0.1050    2.9078 C   0  0  0  0  0  0  0  0  0  0  0  0
    3.6419    2.7135   -0.9454 H   0  0  0  0  0  0  0  0  0  0  0  0
    1.7514    3.8502   -2.1514 H   0  0  0  0  0  0  0  0  0  0  0  0
    0.8075    2.4032   -1.7111 H   0  0  0  0  0  0  0  0  0  0  0  0
    1.5267    2.1780   -4.0577 H   0  0  0  0  0  0  0  0  0  0  0  0
    2.4472    0.9874   -3.0787 H   0  0  0  0  0  0  0  0  0  0  0  0
    3.3255    3.0519   -6.5684 H   0  0  0  0  0  0  0  0  0  0  0  0
    3.8303    1.4609   -7.2000 H   0  0  0  0  0  0  0  0  0  0  0  0
    5.6841    3.7982   -6.4336 H   0  0  0  0  0  0  0  0  0  0  0  0
    5.3280    3.2400   -8.0892 H   0  0  0  0  0  0  0  0  0  0  0  0
    6.9440    2.0073   -4.6001 H   0  0  0  0  0  0  0  0  0  0  0  0
    7.3636    0.3591   -5.1402 H   0  0  0  0  0  0  0  0  0  0  0  0
    5.1791    0.4225   -3.8876 H   0  0  0  0  0  0  0  0  0  0  0  0
    4.9598   -0.1406   -5.5648 H   0  0  0  0  0  0  0  0  0  0  0  0
    4.0490    1.8650    1.0876 H   0  0  0  0  0  0  0  0  0  0  0  0
    0.6034   -0.7037    3.1292 H   0  0  0  0  0  0  0  0  0  0  0  0
   -0.9944    0.3752    4.6586 H   0  0  0  0  0  0  0  0  0  0  0  0
   -0.5701    2.6838    5.5103 H   0  0  0  0  0  0  0  0  0  0  0  0
    1.4970    3.8941    4.7913 H   0  0  0  0  0  0  0  0  0  0  0  0
    3.1002    2.8123    3.2630 H   0  0  0  0  0  0  0  0  0  0  0  0
    3.3144   -1.3219    0.8142 H   0  0  0  0  0  0  0  0  0  0  0  0
    1.6666   -1.2560    1.4257 H   0  0  0  0  0  0  0  0  0  0  0  0
    3.6987   -2.9275    2.4849 H   0  0  0  0  0  0  0  0  0  0  0  0
    2.3385   -2.4054    3.4759 H   0  0  0  0  0  0  0  0  0  0  0  0
    5.0737   -1.6707    3.9987 H   0  0  0  0  0  0  0  0  0  0  0  0
    3.6453   -0.8929    4.6924 H   0  0  0  0  0  0  0  0  0  0  0  0
    5.1638   -0.0746    2.1568 H   0  0  0  0  0  0  0  0  0  0  0  0
    4.6785    0.9732    3.5134 H   0  0  0  0  0  0  0  0  0  0  0  0
  1  2  2  0
  2  3  1  0
  2 15  1  0
  3  4  1  0
  3 27  1  0
  4  5  1  0
  4 28  1  0
  4 29  1  0
  6  5  1  1
  5 30  1  0
  5 31  1  0
  6  7  2  0
  6  8  2  0
  6  9  1  0
  9 10  1  0
  9 14  1  0
 10 11  1  0
 10 32  1  0
 10 33  1  0
 11 12  1  0
 11 34  1  0
 11 35  1  0
 12 13  1  0
 13 14  1  0
 13 36  1  0
 13 37  1  0
 14 38  1  0
 14 39  1  0
 16 15  1  6
 15 40  1  0
 16 17  1  0
 16 23  1  0
 16 26  1  0
 17 18  2  0
 17 22  1  0
 18 19  1  0
 18 41  1  0
 19 20  2  0
 19 42  1  0
 20 21  1  0
 20 43  1  0
 21 22  2  0
 21 44  1  0
 22 45  1  0
 23 24  1  0
 23 46  1  0
 23 47  1  0
 24 25  1  0
 24 48  1  0
 24 49  1  0
 25 26  1  0
 25 50  1  0
 25 51  1  0
 26 52  1  0
 26 53  1  0
M  END

