
     RDKit          3D

 47 49  0  0  0  0  0  0  0  0999 V2000
    4.0603   -1.1961    4.8712 C   0  0  0  0  0  0  0  0  0  0  0  0
    3.5117   -1.7014    3.5352 C   0  0  0  0  0  0  0  0  0  0  0  0
    3.5300   -0.6536    2.4037 C   0  0  0  0  0  0  0  0  0  0  0  0
    4.9076   -0.0604    2.1325 C   0  0  0  0  0  0  0  0  0  0  0  0
    5.1800    1.1016    2.3595 O   0  0  0  0  0  0  0  0  0  0  0  0
    5.8222   -0.9751    1.6286 N   0  0  0  0  0  0  0  0  0  0  0  0
    7.2091   -0.8369    1.4949 C   0  0  0  0  0  0  0  0  0  0  0  0
    7.8981    0.3573    1.7764 C   0  0  0  0  0  0  0  0  0  0  0  0
    9.2900    0.3646    1.7332 C   0  0  0  0  0  0  0  0  0  0  0  0
   10.0483   -0.7672    1.4018 C   0  0  0  0  0  0  0  0  0  0  0  0
   11.5532   -0.7422    1.5159 C   0  0  0  0  0  0  0  0  0  0  0  0
   12.0822   -1.6210    2.5640 N   0  0  0  0  0  0  0  0  0  0  0  0
   13.2866   -2.3055    2.5032 C   0  0  0  0  0  0  0  0  0  0  0  0
   14.1827   -2.2604    1.3089 C   0  0  0  0  0  0  0  0  0  0  0  0
   13.5454   -2.9980    3.5877 N   0  0  0  0  0  0  0  0  0  0  0  0
   12.4732   -2.7865    4.4229 C   0  0  0  0  0  0  0  0  0  0  0  0
   12.2186   -3.3088    5.7006 C   0  0  0  0  0  0  0  0  0  0  0  0
   11.0310   -2.9579    6.3334 C   0  0  0  0  0  0  0  0  0  0  0  0
   10.0938   -2.0921    5.7157 C   0  0  0  0  0  0  0  0  0  0  0  0
    8.7786   -1.7417    6.3454 C   0  0  0  0  0  0  0  0  0  0  0  0
    7.8319   -1.3243    5.7254 O   0  0  0  0  0  0  0  0  0  0  0  0
    8.6841   -1.9141    7.6851 O   0  0  0  0  0  0  0  0  0  0  0  0
   10.3363   -1.5674    4.4393 C   0  0  0  0  0  0  0  0  0  0  0  0
   11.5301   -1.9172    3.8063 C   0  0  0  0  0  0  0  0  0  0  0  0
    9.3340   -1.9205    1.0387 C   0  0  0  0  0  0  0  0  0  0  0  0
   10.1916   -3.3646    0.5313 Cl  0  0  0  0  0  0  0  0  0  0  0  0
    7.9436   -1.9659    1.0867 C   0  0  0  0  0  0  0  0  0  0  0  0
    3.9217   -1.9525    5.6594 H   0  0  0  0  0  0  0  0  0  0  0  0
    3.5414   -0.2780    5.1923 H   0  0  0  0  0  0  0  0  0  0  0  0
    5.1387   -0.9745    4.8267 H   0  0  0  0  0  0  0  0  0  0  0  0
    2.4675   -2.0364    3.6599 H   0  0  0  0  0  0  0  0  0  0  0  0
    4.0714   -2.6026    3.2233 H   0  0  0  0  0  0  0  0  0  0  0  0
    2.8843    0.1982    2.6610 H   0  0  0  0  0  0  0  0  0  0  0  0
    3.1345   -1.1007    1.4739 H   0  0  0  0  0  0  0  0  0  0  0  0
    5.4696   -1.9130    1.4764 H   0  0  0  0  0  0  0  0  0  0  0  0
    7.3371    1.2424    2.0635 H   0  0  0  0  0  0  0  0  0  0  0  0
    9.8153    1.2845    2.0055 H   0  0  0  0  0  0  0  0  0  0  0  0
   11.8776    0.2952    1.7051 H   0  0  0  0  0  0  0  0  0  0  0  0
   12.0126   -1.0608    0.5696 H   0  0  0  0  0  0  0  0  0  0  0  0
   13.6862   -2.6791    0.4175 H   0  0  0  0  0  0  0  0  0  0  0  0
   15.0731   -2.8625    1.5275 H   0  0  0  0  0  0  0  0  0  0  0  0
   14.5009   -1.2335    1.0654 H   0  0  0  0  0  0  0  0  0  0  0  0
   12.9352   -3.9893    6.1642 H   0  0  0  0  0  0  0  0  0  0  0  0
   10.8093   -3.4040    7.3076 H   0  0  0  0  0  0  0  0  0  0  0  0
    9.5540   -2.1206    8.0547 H   0  0  0  0  0  0  0  0  0  0  0  0
    9.5820   -0.9248    3.9920 H   0  0  0  0  0  0  0  0  0  0  0  0
    7.4344   -2.8972    0.8298 H   0  0  0  0  0  0  0  0  0  0  0  0
  1  2  1  0
  1 28  1  0
  1 29  1  0
  1 30  1  0
  2  3  1  0
  2 31  1  0
  2 32  1  0
  3  4  1  0
  3 33  1  0
  3 34  1  0
  4  5  2  0
  4  6  1  0
  6  7  1  0
  6 35  1  0
  7  8  2  0
  7 27  1  0
  8  9  1  0
  8 36  1  0
  9 10  2  0
  9 37  1  0
 10 11  1  0
 10 25  1  0
 11 12  1  0
 11 38  1  0
 11 39  1  0
 12 13  1  0
 12 24  1  0
 13 14  1  0
 13 15  2  0
 14 40  1  0
 14 41  1  0
 14 42  1  0
 15 16  1  0
 16 17  1  0
 16 24  2  0
 17 18  2  0
 17 43  1  0
 18 19  1  0
 18 44  1  0
 19 20  1  0
 19 23  2  0
 20 21  2  0
 20 22  1  0
 22 45  1  0
 23 24  1  0
 23 46  1  0
 25 26  1  0
 25 27  2  0
 27 47  1  0
M  END

