
     RDKit          3D

 35 34  0  0  0  0  0  0  0  0999 V2000
    2.6914   -1.4529    0.4700 C   0  0  0  0  0  0  0  0  0  0  0  0
    2.4854   -0.1942    0.0609 C   0  0  0  0  0  0  0  0  0  0  0  0
    3.1005    1.0431    0.6528 C   0  0  0  0  0  0  0  0  0  0  0  0
    2.0866    2.0466    1.2324 C   0  0  0  0  0  0  0  0  0  0  0  0
    1.3271    1.5415    2.4622 C   0  0  0  0  0  0  0  0  0  0  0  0
    0.3285    2.5577    3.0241 C   0  0  0  0  0  0  0  0  0  0  0  0
   -0.4340    2.0612    4.2566 C   0  0  0  0  0  0  0  0  0  0  0  0
   -1.4305    3.0802    4.8111 C   0  0  0  0  0  0  0  0  0  0  0  0
    1.6891    0.1339   -1.0222 O   0  0  0  0  0  0  0  0  0  0  0  0
    0.6942   -0.6764   -1.4267 C   0  0  0  0  0  0  0  0  0  0  0  0
    0.1456   -0.5762   -2.6498 C   0  0  0  0  0  0  0  0  0  0  0  0
   -0.9899   -1.4469   -3.0000 C   0  0  0  0  0  0  0  0  0  0  0  0
   -1.5021   -2.2759   -2.2780 O   0  0  0  0  0  0  0  0  0  0  0  0
   -1.4080   -1.2136   -4.2638 O   0  0  0  0  0  0  0  0  0  0  0  0
   -2.5024   -2.0049   -4.7169 C   0  0  0  0  0  0  0  0  0  0  0  0
    3.3253   -1.6367    1.3378 H   0  0  0  0  0  0  0  0  0  0  0  0
    2.2659   -2.3188   -0.0397 H   0  0  0  0  0  0  0  0  0  0  0  0
    3.6774    1.5421   -0.1461 H   0  0  0  0  0  0  0  0  0  0  0  0
    3.8228    0.7377    1.4256 H   0  0  0  0  0  0  0  0  0  0  0  0
    1.3704    2.3275    0.4411 H   0  0  0  0  0  0  0  0  0  0  0  0
    2.6299    2.9718    1.4925 H   0  0  0  0  0  0  0  0  0  0  0  0
    2.0524    1.2668    3.2512 H   0  0  0  0  0  0  0  0  0  0  0  0
    0.7932    0.6072    2.2113 H   0  0  0  0  0  0  0  0  0  0  0  0
   -0.3953    2.8319    2.2341 H   0  0  0  0  0  0  0  0  0  0  0  0
    0.8614    3.4933    3.2781 H   0  0  0  0  0  0  0  0  0  0  0  0
    0.2905    1.7868    5.0450 H   0  0  0  0  0  0  0  0  0  0  0  0
   -0.9656    1.1265    4.0011 H   0  0  0  0  0  0  0  0  0  0  0  0
   -0.9249    4.0135    5.1115 H   0  0  0  0  0  0  0  0  0  0  0  0
   -1.9598    2.6900    5.6951 H   0  0  0  0  0  0  0  0  0  0  0  0
   -2.1918    3.3469    4.0588 H   0  0  0  0  0  0  0  0  0  0  0  0
    0.3179   -1.4026   -0.6974 H   0  0  0  0  0  0  0  0  0  0  0  0
    0.5194    0.1344   -3.3882 H   0  0  0  0  0  0  0  0  0  0  0  0
   -2.7060   -1.6868   -5.7472 H   0  0  0  0  0  0  0  0  0  0  0  0
   -3.3917   -1.8464   -4.0873 H   0  0  0  0  0  0  0  0  0  0  0  0
   -2.2516   -3.0768   -4.6926 H   0  0  0  0  0  0  0  0  0  0  0  0
  1  2  2  0
  1 16  1  0
  1 17  1  0
  2  3  1  0
  2  9  1  0
  3  4  1  0
  3 18  1  0
  3 19  1  0
  4  5  1  0
  4 20  1  0
  4 21  1  0
  5  6  1  0
  5 22  1  0
  5 23  1  0
  6  7  1  0
  6 24  1  0
  6 25  1  0
  7  8  1  0
  7 26  1  0
  7 27  1  0
  8 28  1  0
  8 29  1  0
  8 30  1  0
  9 10  1  0
 10 11  2  0
 10 31  1  0
 11 12  1  0
 11 32  1  0
 12 13  2  0
 12 14  1  0
 14 15  1  0
 15 33  1  0
 15 34  1  0
 15 35  1  0
M  END

