
     RDKit          3D

 55 56  0  0  0  0  0  0  0  0999 V2000
    4.0144   -0.0818   -3.3969 C   0  0  0  0  0  0  0  0  0  0  0  0
    3.3505    0.3607   -2.0859 C   0  0  2  0  0  0  0  0  0  0  0  0
    3.8184   -0.1766   -1.2437 H   0  0  0  0  0  0  0  0  0  0  0  0
    1.9139    0.1094   -2.1773 N   0  0  0  0  0  0  0  0  0  0  0  0
    0.9989    0.2058   -0.7522 S   0  0  1  0  0  0  0  0  0  0  0  0
    0.5606   -1.1396   -0.3687 O   0  0  0  0  0  0  0  0  0  0  0  0
    1.7967    1.0291    0.1637 O   0  0  0  0  0  0  0  0  0  0  0  0
   -0.4554    1.1164   -1.2645 C   0  0  0  0  0  0  0  0  0  0  0  0
   -1.7110    0.5580   -1.0096 C   0  0  0  0  0  0  0  0  0  0  0  0
   -2.8595    1.2771   -1.3464 C   0  0  0  0  0  0  0  0  0  0  0  0
   -2.7175    2.5352   -1.9293 C   0  0  0  0  0  0  0  0  0  0  0  0
   -3.8147    3.2256   -2.2552 F   0  0  0  0  0  0  0  0  0  0  0  0
   -1.4652    3.0965   -2.1887 C   0  0  0  0  0  0  0  0  0  0  0  0
   -0.3177    2.3817   -1.8500 C   0  0  0  0  0  0  0  0  0  0  0  0
    3.6191    1.8533   -1.8662 C   0  0  0  0  0  0  0  0  0  0  0  0
    2.9311    2.7560   -2.2687 O   0  0  0  0  0  0  0  0  0  0  0  0
    4.7853    2.0205   -1.2190 O   0  0  0  0  0  0  0  0  0  0  0  0
    5.2177    3.3738   -0.9344 C   0  0  1  0  0  0  0  0  0  0  0  0
    4.8642    4.0244   -1.7481 H   0  0  0  0  0  0  0  0  0  0  0  0
    4.6386    3.8445    0.3938 C   0  0  0  0  0  0  0  0  0  0  0  0
    6.7511    3.4410   -0.9339 C   0  0  0  0  0  0  0  0  0  0  0  0
    7.2950    4.5211   -0.7688 O   0  0  0  0  0  0  0  0  0  0  0  0
    7.4047    2.2643   -1.1113 N   0  0  0  0  0  0  0  0  0  0  0  0
    8.8600    2.1442   -1.1091 C   0  0  1  0  0  0  0  0  0  0  0  0
    9.2981    1.3020    0.1022 C   0  0  0  0  0  0  0  0  0  0  0  0
   10.8006    1.0203    0.2525 C   0  0  0  0  0  0  0  0  0  0  0  0
   11.3722    0.0525   -0.7968 C   0  0  0  0  0  0  0  0  0  0  0  0
   11.7725    0.6715   -2.1498 C   0  0  0  0  0  0  0  0  0  0  0  0
   10.8788    1.8063   -2.6823 C   0  0  0  0  0  0  0  0  0  0  0  0
    9.3625    1.6489   -2.4802 C   0  0  0  0  0  0  0  0  0  0  0  0
    3.5789    0.4612   -4.2491 H   0  0  0  0  0  0  0  0  0  0  0  0
    3.8755   -1.1632   -3.5542 H   0  0  0  0  0  0  0  0  0  0  0  0
    5.0950    0.1197   -3.3643 H   0  0  0  0  0  0  0  0  0  0  0  0
    1.6727   -0.7449   -2.6773 H   0  0  0  0  0  0  0  0  0  0  0  0
   -1.7788   -0.4308   -0.5536 H   0  0  0  0  0  0  0  0  0  0  0  0
   -3.8590    0.8780   -1.1645 H   0  0  0  0  0  0  0  0  0  0  0  0
   -1.4061    4.0829   -2.6523 H   0  0  0  0  0  0  0  0  0  0  0  0
    0.6756    2.7878   -2.0552 H   0  0  0  0  0  0  0  0  0  0  0  0
    3.5408    3.8626    0.3483 H   0  0  0  0  0  0  0  0  0  0  0  0
    5.0133    4.8556    0.6053 H   0  0  0  0  0  0  0  0  0  0  0  0
    4.9478    3.1726    1.2091 H   0  0  0  0  0  0  0  0  0  0  0  0
    6.8407    1.4260   -1.1951 H   0  0  0  0  0  0  0  0  0  0  0  0
    9.2262    3.1740   -0.9730 H   0  0  0  0  0  0  0  0  0  0  0  0
    8.7660    0.3316    0.0668 H   0  0  0  0  0  0  0  0  0  0  0  0
    8.9310    1.8163    1.0060 H   0  0  0  0  0  0  0  0  0  0  0  0
   10.9506    0.5800    1.2524 H   0  0  0  0  0  0  0  0  0  0  0  0
   11.3696    1.9677    0.2582 H   0  0  0  0  0  0  0  0  0  0  0  0
   10.6286   -0.7481   -0.9606 H   0  0  0  0  0  0  0  0  0  0  0  0
   12.2573   -0.4572   -0.3808 H   0  0  0  0  0  0  0  0  0  0  0  0
   11.8163   -0.1400   -2.8973 H   0  0  0  0  0  0  0  0  0  0  0  0
   12.8031    1.0612   -2.0804 H   0  0  0  0  0  0  0  0  0  0  0  0
   11.0863    1.9243   -3.7588 H   0  0  0  0  0  0  0  0  0  0  0  0
   11.1828    2.7640   -2.2248 H   0  0  0  0  0  0  0  0  0  0  0  0
    9.0518    0.5996   -2.6454 H   0  0  0  0  0  0  0  0  0  0  0  0
    8.8386    2.2466   -3.2435 H   0  0  0  0  0  0  0  0  0  0  0  0
  1  2  1  0
  1 31  1  0
  1 32  1  0
  1 33  1  0
  2  3  1  1
  2  4  1  0
  2 15  1  0
  5  4  1  6
  4 34  1  0
  5  6  2  0
  5  7  2  0
  5  8  1  0
  8  9  2  0
  8 14  1  0
  9 10  1  0
  9 35  1  0
 10 11  2  0
 10 36  1  0
 11 12  1  0
 11 13  1  0
 13 14  2  0
 13 37  1  0
 14 38  1  0
 15 16  2  0
 15 17  1  0
 17 18  1  0
 18 19  1  6
 18 20  1  0
 18 21  1  0
 20 39  1  0
 20 40  1  0
 20 41  1  0
 21 22  2  0
 21 23  1  0
 23 24  1  0
 23 42  1  0
 24 25  1  0
 24 30  1  0
 24 43  1  1
 25 26  1  0
 25 44  1  0
 25 45  1  0
 26 27  1  0
 26 46  1  0
 26 47  1  0
 27 28  1  0
 27 48  1  0
 27 49  1  0
 28 29  1  0
 28 50  1  0
 28 51  1  0
 29 30  1  0
 29 52  1  0
 29 53  1  0
 30 54  1  0
 30 55  1  0
M  END

