
     RDKit          3D

 38 39  0  0  0  0  0  0  0  0999 V2000
    7.0075   -0.8409   -1.6767 C   0  0  0  0  0  0  0  0  0  0  0  0
    6.6375   -0.5508   -0.2203 C   0  0  0  0  0  0  0  0  0  0  0  0
    5.1280   -0.3611   -0.0245 C   0  0  0  0  0  0  0  0  0  0  0  0
    4.6365   -0.0677    1.4080 C   0  0  2  0  0  0  0  0  0  0  0  0
    3.5380    0.0419    1.3413 H   0  0  0  0  0  0  0  0  0  0  0  0
    5.1854    1.2574    1.9670 C   0  0  0  0  0  0  0  0  0  0  0  0
    4.6056    1.6003    3.3415 C   0  0  0  0  0  0  0  0  0  0  0  0
    4.8536    0.4659    4.3503 C   0  0  0  0  0  0  0  0  0  0  0  0
    4.3485   -0.8593    3.8049 C   0  0  0  0  0  0  0  0  0  0  0  0
    3.5560   -1.5486    4.4041 O   0  0  0  0  0  0  0  0  0  0  0  0
    4.9074   -1.2375    2.4162 C   0  0  1  0  0  0  0  0  0  0  0  0
    6.0027   -1.2953    2.5505 H   0  0  0  0  0  0  0  0  0  0  0  0
    4.4151   -2.5898    1.9495 C   0  0  0  0  0  0  0  0  0  0  0  0
    3.0470   -2.8261    1.7218 C   0  0  0  0  0  0  0  0  0  0  0  0
    2.5943   -4.0682    1.2845 C   0  0  0  0  0  0  0  0  0  0  0  0
    3.5236   -5.0894    1.0774 C   0  0  0  0  0  0  0  0  0  0  0  0
    3.0523   -6.4083    0.6097 N   0  0  0  0  0  0  0  0  0  0  0  0
    1.8546   -6.5446    0.4167 O   0  0  0  0  0  0  0  0  0  0  0  0
    3.8896   -7.2812    0.4427 O   0  0  0  0  0  0  0  0  0  0  0  0
    4.8853   -4.8966    1.3035 C   0  0  0  0  0  0  0  0  0  0  0  0
    5.3183   -3.6443    1.7402 C   0  0  0  0  0  0  0  0  0  0  0  0
    8.0942   -0.9731   -1.7989 H   0  0  0  0  0  0  0  0  0  0  0  0
    6.6955   -0.0176   -2.3409 H   0  0  0  0  0  0  0  0  0  0  0  0
    6.5168   -1.7596   -2.0387 H   0  0  0  0  0  0  0  0  0  0  0  0
    7.1802    0.3488    0.1181 H   0  0  0  0  0  0  0  0  0  0  0  0
    6.9990   -1.3797    0.4130 H   0  0  0  0  0  0  0  0  0  0  0  0
    4.6060   -1.2560   -0.4033 H   0  0  0  0  0  0  0  0  0  0  0  0
    4.7912    0.4723   -0.6675 H   0  0  0  0  0  0  0  0  0  0  0  0
    4.9659    2.0686    1.2525 H   0  0  0  0  0  0  0  0  0  0  0  0
    6.2859    1.2008    2.0420 H   0  0  0  0  0  0  0  0  0  0  0  0
    3.5183    1.7712    3.2521 H   0  0  0  0  0  0  0  0  0  0  0  0
    5.0385    2.5399    3.7211 H   0  0  0  0  0  0  0  0  0  0  0  0
    4.3610    0.6495    5.3158 H   0  0  0  0  0  0  0  0  0  0  0  0
    5.9398    0.3708    4.5335 H   0  0  0  0  0  0  0  0  0  0  0  0
    2.3202   -2.0318    1.8999 H   0  0  0  0  0  0  0  0  0  0  0  0
    1.5375   -4.2647    1.1058 H   0  0  0  0  0  0  0  0  0  0  0  0
    5.5782   -5.7207    1.1364 H   0  0  0  0  0  0  0  0  0  0  0  0
    6.3840   -3.4860    1.9255 H   0  0  0  0  0  0  0  0  0  0  0  0
  1  2  1  0
  1 22  1  0
  1 23  1  0
  1 24  1  0
  2  3  1  0
  2 25  1  0
  2 26  1  0
  3  4  1  0
  3 27  1  0
  3 28  1  0
  4  5  1  6
  4  6  1  0
  4 11  1  0
  6  7  1  0
  6 29  1  0
  6 30  1  0
  7  8  1  0
  7 31  1  0
  7 32  1  0
  8  9  1  0
  8 33  1  0
  8 34  1  0
  9 10  2  0
  9 11  1  0
 11 12  1  1
 11 13  1  0
 13 14  2  0
 13 21  1  0
 14 15  1  0
 14 35  1  0
 15 16  2  0
 15 36  1  0
 16 17  1  0
 16 20  1  0
 17 18  2  0
 17 19  1  0
 20 21  2  0
 20 37  1  0
 21 38  1  0
M  CHG  2  17   1  19  -1
M  END

