
     RDKit          3D

 54 58  0  0  0  0  0  0  0  0999 V2000
    0.9284   -0.4076   -0.8790 C   0  0  0  0  0  0  0  0  0  0  0  0
    2.3288   -0.1525   -0.7906 O   0  0  0  0  0  0  0  0  0  0  0  0
    3.1314   -0.9972   -1.4679 C   0  0  0  0  0  0  0  0  0  0  0  0
    2.7105   -1.9256   -2.1199 O   0  0  0  0  0  0  0  0  0  0  0  0
    4.5766   -0.6560   -1.3193 C   0  0  0  0  0  0  0  0  0  0  0  0
    5.0241    0.4301   -0.5514 C   0  0  0  0  0  0  0  0  0  0  0  0
    6.3866    0.7023   -0.4479 C   0  0  0  0  0  0  0  0  0  0  0  0
    7.3423   -0.0986   -1.1040 C   0  0  0  0  0  0  0  0  0  0  0  0
    8.7936    0.1965   -0.9875 C   0  0  0  0  0  0  0  0  0  0  0  0
    9.7451   -0.8441   -0.9582 C   0  0  0  0  0  0  0  0  0  0  0  0
   11.1213   -0.5993   -0.8491 C   0  0  0  0  0  0  0  0  0  0  0  0
   11.5642    0.7188   -0.7675 C   0  0  0  0  0  0  0  0  0  0  0  0
   10.6195    1.7672   -0.7953 C   0  0  0  0  0  0  0  0  0  0  0  0
    9.2588    1.5287   -0.9015 C   0  0  0  0  0  0  0  0  0  0  0  0
   11.3422    3.0818   -0.7009 C   0  0  0  0  0  0  0  0  0  0  0  0
   10.8595    4.1929   -0.6964 O   0  0  0  0  0  0  0  0  0  0  0  0
   12.7966    2.7124   -0.6122 C   0  0  0  0  0  0  0  0  0  0  0  0
   13.8998    3.5436   -0.5032 C   0  0  0  0  0  0  0  0  0  0  0  0
   15.1912    2.9741   -0.4241 C   0  0  0  0  0  0  0  0  0  0  0  0
   16.3975    3.8329   -0.3046 C   0  0  0  0  0  0  0  0  0  0  0  0
   17.5098    3.4260    0.4598 C   0  0  0  0  0  0  0  0  0  0  0  0
   18.6389    4.2324    0.5694 C   0  0  0  0  0  0  0  0  0  0  0  0
   18.6921    5.4737   -0.0828 C   0  0  0  0  0  0  0  0  0  0  0  0
   19.9276    6.2970    0.0693 C   0  0  0  0  0  0  0  0  0  0  0  0
   20.8945    5.9674    0.7177 O   0  0  0  0  0  0  0  0  0  0  0  0
   19.8563    7.4645   -0.6000 O   0  0  0  0  0  0  0  0  0  0  0  0
   20.9981    8.3141   -0.5077 C   0  0  0  0  0  0  0  0  0  0  0  0
   17.5912    5.8922   -0.8460 C   0  0  0  0  0  0  0  0  0  0  0  0
   16.4626    5.0824   -0.9527 C   0  0  0  0  0  0  0  0  0  0  0  0
   15.3025    1.5686   -0.4628 C   0  0  0  0  0  0  0  0  0  0  0  0
   14.1842    0.7304   -0.5747 C   0  0  0  0  0  0  0  0  0  0  0  0
   12.9182    1.3067   -0.6493 C   0  0  0  0  0  0  0  0  0  0  0  0
    6.8784   -1.1850   -1.8732 C   0  0  0  0  0  0  0  0  0  0  0  0
    5.5182   -1.4600   -1.9796 C   0  0  0  0  0  0  0  0  0  0  0  0
    0.4373    0.3654   -0.2750 H   0  0  0  0  0  0  0  0  0  0  0  0
    0.6868   -1.4081   -0.4889 H   0  0  0  0  0  0  0  0  0  0  0  0
    0.5850   -0.3518   -1.9233 H   0  0  0  0  0  0  0  0  0  0  0  0
    4.2974    1.0543   -0.0303 H   0  0  0  0  0  0  0  0  0  0  0  0
    6.7168    1.5373    0.1737 H   0  0  0  0  0  0  0  0  0  0  0  0
    9.3987   -1.8791   -0.9978 H   0  0  0  0  0  0  0  0  0  0  0  0
   11.8217   -1.4376   -0.8221 H   0  0  0  0  0  0  0  0  0  0  0  0
    8.5678    2.3736   -0.9410 H   0  0  0  0  0  0  0  0  0  0  0  0
   13.7538    4.6250   -0.4564 H   0  0  0  0  0  0  0  0  0  0  0  0
   17.4779    2.4762    0.9979 H   0  0  0  0  0  0  0  0  0  0  0  0
   19.4965    3.9210    1.1688 H   0  0  0  0  0  0  0  0  0  0  0  0
   20.7702    9.2009   -1.1119 H   0  0  0  0  0  0  0  0  0  0  0  0
   21.8957    7.8081   -0.8949 H   0  0  0  0  0  0  0  0  0  0  0  0
   21.1882    8.6028    0.5373 H   0  0  0  0  0  0  0  0  0  0  0  0
   17.6294    6.8529   -1.3609 H   0  0  0  0  0  0  0  0  0  0  0  0
   15.6255    5.4146   -1.5705 H   0  0  0  0  0  0  0  0  0  0  0  0
   16.2956    1.1153   -0.4284 H   0  0  0  0  0  0  0  0  0  0  0  0
   14.3189   -0.3534   -0.6090 H   0  0  0  0  0  0  0  0  0  0  0  0
    7.5927   -1.8065   -2.4175 H   0  0  0  0  0  0  0  0  0  0  0  0
    5.1587   -2.2961   -2.5825 H   0  0  0  0  0  0  0  0  0  0  0  0
  1  2  1  0
  1 35  1  0
  1 36  1  0
  1 37  1  0
  2  3  1  0
  3  4  2  0
  3  5  1  0
  5  6  2  0
  5 34  1  0
  6  7  1  0
  6 38  1  0
  7  8  2  0
  7 39  1  0
  8  9  1  0
  8 33  1  0
  9 10  2  0
  9 14  1  0
 10 11  1  0
 10 40  1  0
 11 12  2  0
 11 41  1  0
 12 13  1  0
 12 32  1  0
 13 14  2  0
 13 15  1  0
 14 42  1  0
 15 16  2  0
 15 17  1  0
 17 18  1  0
 17 32  2  0
 18 19  2  0
 18 43  1  0
 19 20  1  0
 19 30  1  0
 20 21  2  0
 20 29  1  0
 21 22  1  0
 21 44  1  0
 22 23  2  0
 22 45  1  0
 23 24  1  0
 23 28  1  0
 24 25  2  0
 24 26  1  0
 26 27  1  0
 27 46  1  0
 27 47  1  0
 27 48  1  0
 28 29  2  0
 28 49  1  0
 29 50  1  0
 30 31  2  0
 30 51  1  0
 31 32  1  0
 31 52  1  0
 33 34  2  0
 33 53  1  0
 34 54  1  0
M  END

