
     RDKit          3D

 59 63  0  0  0  0  0  0  0  0999 V2000
    2.5031    0.4244   -0.9044 O   0  0  0  0  0  0  0  0  0  0  0  0
    1.9776    0.0410    0.1329 C   0  0  0  0  0  0  0  0  0  0  0  0
    0.4657   -0.1197    0.2630 C   0  0  0  0  0  0  0  0  0  0  0  0
   -0.1602   -0.7023   -1.0180 C   0  0  0  0  0  0  0  0  0  0  0  0
   -1.6554   -0.6881   -1.0296 C   0  0  0  0  0  0  0  0  0  0  0  0
   -2.6000   -1.6731   -0.8179 C   0  0  0  0  0  0  0  0  0  0  0  0
   -3.8736   -1.1659   -0.9040 N   0  0  0  0  0  0  0  0  0  0  0  0
   -3.7239    0.1108   -1.1630 C   0  0  0  0  0  0  0  0  0  0  0  0
   -2.4018    0.4563   -1.2462 N   0  0  0  0  0  0  0  0  0  0  0  0
   -2.0332    1.3743   -1.4650 H   0  0  0  0  0  0  0  0  0  0  0  0
    2.6981   -0.2424    1.2514 N   0  0  0  0  0  0  0  0  0  0  0  0
    4.1427   -0.1487    1.2761 C   0  0  1  0  0  0  0  0  0  0  0  0
    4.6597    1.3219    1.3691 C   0  0  0  0  0  0  0  0  0  0  0  0
    4.1650    2.0986    2.5662 C   0  0  0  0  0  0  0  0  0  0  0  0
    4.8335    2.0421    3.8003 C   0  0  0  0  0  0  0  0  0  0  0  0
    4.3547    2.7421    4.9108 C   0  0  0  0  0  0  0  0  0  0  0  0
    3.1943    3.5148    4.8063 C   0  0  0  0  0  0  0  0  0  0  0  0
    2.5210    3.5851    3.5832 C   0  0  0  0  0  0  0  0  0  0  0  0
    3.0039    2.8836    2.4750 C   0  0  0  0  0  0  0  0  0  0  0  0
    4.6369   -1.0252    2.3968 C   0  0  0  0  0  0  0  0  0  0  0  0
    3.8923   -1.5453    3.3422 N   0  0  0  0  0  0  0  0  0  0  0  0
    4.7195   -2.2620    4.1902 C   0  0  0  0  0  0  0  0  0  0  0  0
    4.1748   -2.9660    5.3620 C   0  0  0  0  0  0  0  0  0  0  0  0
    2.7983   -2.8248    5.6636 C   0  0  0  0  0  0  0  0  0  0  0  0
    2.2236   -3.4608    6.7517 C   0  0  0  0  0  0  0  0  0  0  0  0
    3.0048   -4.2742    7.5959 C   0  0  0  0  0  0  0  0  0  0  0  0
    2.4658   -4.9184    8.6847 N   0  0  0  0  0  0  0  0  0  0  0  0
    1.4773   -4.8099    8.8924 H   0  0  0  0  0  0  0  0  0  0  0  0
    3.1606   -5.7454    9.5785 C   0  0  0  0  0  0  0  0  0  0  0  0
    2.5797   -6.2685   10.5159 O   0  0  0  0  0  0  0  0  0  0  0  0
    4.5772   -5.8943    9.2680 C   0  0  0  0  0  0  0  0  0  0  0  0
    5.1597   -5.2759    8.1989 C   0  0  0  0  0  0  0  0  0  0  0  0
    6.4671   -5.3959    7.8879 O   0  0  0  0  0  0  0  0  0  0  0  0
    4.3842   -4.4286    7.3092 C   0  0  0  0  0  0  0  0  0  0  0  0
    4.9485   -3.7755    6.1999 C   0  0  0  0  0  0  0  0  0  0  0  0
    6.0152   -2.1453    3.7080 C   0  0  0  0  0  0  0  0  0  0  0  0
    7.5408   -2.7490    4.2305 Cl  0  0  0  0  0  0  0  0  0  0  0  0
    5.9482   -1.3598    2.5746 N   0  0  0  0  0  0  0  0  0  0  0  0
    6.7376   -1.1197    1.9864 H   0  0  0  0  0  0  0  0  0  0  0  0
    0.0548    0.8883    0.4517 H   0  0  0  0  0  0  0  0  0  0  0  0
    0.1992   -0.7310    1.1398 H   0  0  0  0  0  0  0  0  0  0  0  0
    0.1772   -1.7429   -1.1456 H   0  0  0  0  0  0  0  0  0  0  0  0
    0.2471   -0.1428   -1.8764 H   0  0  0  0  0  0  0  0  0  0  0  0
   -2.4145   -2.7275   -0.6125 H   0  0  0  0  0  0  0  0  0  0  0  0
   -4.5250    0.8372   -1.3051 H   0  0  0  0  0  0  0  0  0  0  0  0
    2.2581   -0.6112    2.0897 H   0  0  0  0  0  0  0  0  0  0  0  0
    4.5208   -0.5401    0.3144 H   0  0  0  0  0  0  0  0  0  0  0  0
    4.3465    1.8129    0.4363 H   0  0  0  0  0  0  0  0  0  0  0  0
    5.7629    1.2959    1.3605 H   0  0  0  0  0  0  0  0  0  0  0  0
    5.7458    1.4462    3.8938 H   0  0  0  0  0  0  0  0  0  0  0  0
    4.8920    2.6857    5.8610 H   0  0  0  0  0  0  0  0  0  0  0  0
    2.8199    4.0649    5.6733 H   0  0  0  0  0  0  0  0  0  0  0  0
    1.6183    4.1945    3.4896 H   0  0  0  0  0  0  0  0  0  0  0  0
    2.4807    2.9548    1.5173 H   0  0  0  0  0  0  0  0  0  0  0  0
    2.1870   -2.1957    5.0161 H   0  0  0  0  0  0  0  0  0  0  0  0
    1.1586   -3.3342    6.9629 H   0  0  0  0  0  0  0  0  0  0  0  0
    5.1491   -6.5333    9.9445 H   0  0  0  0  0  0  0  0  0  0  0  0
    6.9006   -5.9758    8.5293 H   0  0  0  0  0  0  0  0  0  0  0  0
    6.0101   -3.9234    6.0133 H   0  0  0  0  0  0  0  0  0  0  0  0
  1  2  2  0
  2  3  1  0
  2 11  1  0
  3  4  1  0
  3 40  1  0
  3 41  1  0
  4  5  1  0
  4 42  1  0
  4 43  1  0
  5  6  2  0
  5  9  1  0
  6  7  1  0
  6 44  1  0
  7  8  2  0
  8  9  1  0
  8 45  1  0
  9 10  1  0
 11 12  1  0
 11 46  1  0
 12 13  1  0
 12 20  1  0
 12 47  1  6
 13 14  1  0
 13 48  1  0
 13 49  1  0
 14 15  2  0
 14 19  1  0
 15 16  1  0
 15 50  1  0
 16 17  2  0
 16 51  1  0
 17 18  1  0
 17 52  1  0
 18 19  2  0
 18 53  1  0
 19 54  1  0
 20 21  2  0
 20 38  1  0
 21 22  1  0
 22 23  1  0
 22 36  2  0
 23 24  2  0
 23 35  1  0
 24 25  1  0
 24 55  1  0
 25 26  2  0
 25 56  1  0
 26 27  1  0
 26 34  1  0
 27 28  1  0
 27 29  1  0
 29 30  2  0
 29 31  1  0
 31 32  2  0
 31 57  1  0
 32 33  1  0
 32 34  1  0
 33 58  1  0
 34 35  2  0
 35 59  1  0
 36 37  1  0
 36 38  1  0
 38 39  1  0
M  END

