
     RDKit          3D

 47 49  0  0  0  0  0  0  0  0999 V2000
    0.9607   -0.0043   -0.2436 O   0  0  0  0  0  0  0  0  0  0  0  0
    2.1809    0.0690   -0.1458 C   0  0  0  0  0  0  0  0  0  0  0  0
    2.9471    1.2987   -0.1859 C   0  0  0  0  0  0  0  0  0  0  0  0
    4.3214    1.3522   -0.0745 C   0  0  0  0  0  0  0  0  0  0  0  0
    4.9947    2.6519   -0.1253 C   0  0  0  0  0  0  0  0  0  0  0  0
    6.3251    2.8683   -0.0280 C   0  0  0  0  0  0  0  0  0  0  0  0
    7.0203    4.1592   -0.0763 C   0  0  0  0  0  0  0  0  0  0  0  0
    8.4247    4.1792    0.0469 C   0  0  0  0  0  0  0  0  0  0  0  0
    9.1392    5.3776    0.0083 C   0  0  0  0  0  0  0  0  0  0  0  0
    8.4638    6.5898   -0.1553 C   0  0  0  0  0  0  0  0  0  0  0  0
    7.0685    6.5902   -0.2796 C   0  0  0  0  0  0  0  0  0  0  0  0
    6.3560    5.3937   -0.2410 C   0  0  0  0  0  0  0  0  0  0  0  0
    5.0328    0.1126    0.0838 C   0  0  0  0  0  0  0  0  0  0  0  0
    4.3278   -1.0539    0.1222 C   0  0  0  0  0  0  0  0  0  0  0  0
    2.9661   -1.1049    0.0216 N   0  0  0  0  0  0  0  0  0  0  0  0
    2.2786   -2.4031    0.0701 C   0  0  0  0  0  0  0  0  0  0  0  0
    2.1787   -3.0145    1.4736 C   0  0  0  0  0  0  0  0  0  0  0  0
    1.3859   -2.2065    2.5328 C   0  0  1  0  0  0  0  0  0  0  0  0
   -0.1193   -2.0752    2.2308 C   0  0  0  0  0  0  0  0  0  0  0  0
   -0.8843   -3.3815    2.4833 C   0  0  0  0  0  0  0  0  0  0  0  0
   -0.6119   -3.9035    3.8995 C   0  0  0  0  0  0  0  0  0  0  0  0
    0.8934   -4.0186    4.1518 C   0  0  0  0  0  0  0  0  0  0  0  0
    1.5414   -2.7376    3.8914 N   0  0  0  0  0  0  0  0  0  0  0  0
    2.3538    2.2061   -0.3127 H   0  0  0  0  0  0  0  0  0  0  0  0
    4.3220    3.5049   -0.2548 H   0  0  0  0  0  0  0  0  0  0  0  0
    6.9875    2.0066    0.1024 H   0  0  0  0  0  0  0  0  0  0  0  0
    8.9600    3.2341    0.1753 H   0  0  0  0  0  0  0  0  0  0  0  0
   10.2277    5.3645    0.1064 H   0  0  0  0  0  0  0  0  0  0  0  0
    9.0188    7.5306   -0.1862 H   0  0  0  0  0  0  0  0  0  0  0  0
    6.5324    7.5340   -0.4080 H   0  0  0  0  0  0  0  0  0  0  0  0
    5.2689    5.4195   -0.3402 H   0  0  0  0  0  0  0  0  0  0  0  0
    6.1179    0.0784    0.1650 H   0  0  0  0  0  0  0  0  0  0  0  0
    4.8273   -2.0195    0.2332 H   0  0  0  0  0  0  0  0  0  0  0  0
    2.8218   -3.0956   -0.5930 H   0  0  0  0  0  0  0  0  0  0  0  0
    1.2838   -2.2346   -0.3601 H   0  0  0  0  0  0  0  0  0  0  0  0
    3.2006   -3.1739    1.8663 H   0  0  0  0  0  0  0  0  0  0  0  0
    1.7465   -4.0219    1.3538 H   0  0  0  0  0  0  0  0  0  0  0  0
    1.8094   -1.1875    2.5466 H   0  0  0  0  0  0  0  0  0  0  0  0
   -0.2691   -1.7012    1.2075 H   0  0  0  0  0  0  0  0  0  0  0  0
   -0.5180   -1.2975    2.9035 H   0  0  0  0  0  0  0  0  0  0  0  0
   -0.5873   -4.1501    1.7458 H   0  0  0  0  0  0  0  0  0  0  0  0
   -1.9646   -3.2195    2.3316 H   0  0  0  0  0  0  0  0  0  0  0  0
   -1.0965   -4.8813    4.0614 H   0  0  0  0  0  0  0  0  0  0  0  0
   -1.0380   -3.1999    4.6359 H   0  0  0  0  0  0  0  0  0  0  0  0
    1.2946   -4.8581    3.5370 H   0  0  0  0  0  0  0  0  0  0  0  0
    1.0815   -4.2915    5.2036 H   0  0  0  0  0  0  0  0  0  0  0  0
    2.5226   -2.7634    4.1609 H   0  0  0  0  0  0  0  0  0  0  0  0
  1  2  2  0
  2  3  1  0
  2 15  1  0
  3  4  2  0
  3 24  1  0
  4  5  1  0
  4 13  1  0
  5  6  2  0
  5 25  1  0
  6  7  1  0
  6 26  1  0
  7  8  2  0
  7 12  1  0
  8  9  1  0
  8 27  1  0
  9 10  2  0
  9 28  1  0
 10 11  1  0
 10 29  1  0
 11 12  2  0
 11 30  1  0
 12 31  1  0
 13 14  2  0
 13 32  1  0
 14 15  1  0
 14 33  1  0
 15 16  1  0
 16 17  1  0
 16 34  1  0
 16 35  1  0
 17 18  1  0
 17 36  1  0
 17 37  1  0
 18 19  1  0
 18 23  1  0
 18 38  1  1
 19 20  1  0
 19 39  1  0
 19 40  1  0
 20 21  1  0
 20 41  1  0
 20 42  1  0
 21 22  1  0
 21 43  1  0
 21 44  1  0
 22 23  1  0
 22 45  1  0
 22 46  1  0
 23 47  1  0
M  END

