
     RDKit          3D

 36 37  0  0  0  0  0  0  0  0999 V2000
    2.0990   -2.3083   -1.3945 C   0  0  0  0  0  0  0  0  0  0  0  0
    2.8889   -1.2910   -0.6272 C   0  0  0  0  0  0  0  0  0  0  0  0
    3.9935   -0.5822   -1.0291 C   0  0  0  0  0  0  0  0  0  0  0  0
    4.5093    0.3266   -0.0436 C   0  0  0  0  0  0  0  0  0  0  0  0
    5.7280    1.2259   -0.2237 C   0  0  1  0  0  0  0  0  0  0  0  0
    6.5827    0.8502   -1.4467 C   0  0  0  0  0  0  0  0  0  0  0  0
    5.3426    2.6469   -0.1717 N   0  0  0  0  0  0  0  0  0  0  0  0
    4.5250    3.1596   -1.2599 C   0  0  0  0  0  0  0  0  0  0  0  0
    4.0088    4.5711   -0.9292 C   0  0  0  0  0  0  0  0  0  0  0  0
    3.1359    5.1713   -1.9940 C   0  0  0  0  0  0  0  0  0  0  0  0
    1.7678    5.3130   -1.9987 C   0  0  0  0  0  0  0  0  0  0  0  0
    1.2568    5.8992   -3.1982 C   0  0  0  0  0  0  0  0  0  0  0  0
    2.2436    6.1981   -4.1014 C   0  0  0  0  0  0  0  0  0  0  0  0
    3.8069    5.7671   -3.4933 S   0  0  0  0  0  0  0  0  0  0  0  0
    3.7733    0.2973    1.1242 C   0  0  0  0  0  0  0  0  0  0  0  0
    4.0068    1.0669    2.3909 C   0  0  0  0  0  0  0  0  0  0  0  0
    2.4601   -0.8416    1.0013 S   0  0  0  0  0  0  0  0  0  0  0  0
    2.5339   -2.4420   -2.3964 H   0  0  0  0  0  0  0  0  0  0  0  0
    1.0462   -2.0048   -1.5238 H   0  0  0  0  0  0  0  0  0  0  0  0
    2.0951   -3.2926   -0.8962 H   0  0  0  0  0  0  0  0  0  0  0  0
    4.4280   -0.7123   -2.0213 H   0  0  0  0  0  0  0  0  0  0  0  0
    6.3662    1.0773    0.6658 H   0  0  0  0  0  0  0  0  0  0  0  0
    6.0330    0.9706   -2.3929 H   0  0  0  0  0  0  0  0  0  0  0  0
    6.9244   -0.1951   -1.3873 H   0  0  0  0  0  0  0  0  0  0  0  0
    7.4757    1.4946   -1.4962 H   0  0  0  0  0  0  0  0  0  0  0  0
    6.1803    3.2188   -0.0626 H   0  0  0  0  0  0  0  0  0  0  0  0
    3.6626    2.4869   -1.3935 H   0  0  0  0  0  0  0  0  0  0  0  0
    5.0471    3.1930   -2.2404 H   0  0  0  0  0  0  0  0  0  0  0  0
    4.8738    5.2312   -0.7336 H   0  0  0  0  0  0  0  0  0  0  0  0
    3.4383    4.5237    0.0115 H   0  0  0  0  0  0  0  0  0  0  0  0
    1.1434    5.0062   -1.1571 H   0  0  0  0  0  0  0  0  0  0  0  0
    0.1982    6.0934   -3.3793 H   0  0  0  0  0  0  0  0  0  0  0  0
    2.1442    6.6506   -5.0871 H   0  0  0  0  0  0  0  0  0  0  0  0
    4.3748    2.0735    2.1435 H   0  0  0  0  0  0  0  0  0  0  0  0
    4.7589    0.5752    3.0342 H   0  0  0  0  0  0  0  0  0  0  0  0
    3.0854    1.1669    2.9847 H   0  0  0  0  0  0  0  0  0  0  0  0
  1  2  1  0
  1 18  1  0
  1 19  1  0
  1 20  1  0
  2  3  2  0
  2 17  1  0
  3  4  1  0
  3 21  1  0
  4  5  1  0
  4 15  2  0
  5  6  1  0
  5  7  1  0
  5 22  1  1
  6 23  1  0
  6 24  1  0
  6 25  1  0
  7  8  1  0
  7 26  1  0
  8  9  1  0
  8 27  1  0
  8 28  1  0
  9 10  1  0
  9 29  1  0
  9 30  1  0
 10 11  2  0
 10 14  1  0
 11 12  1  0
 11 31  1  0
 12 13  2  0
 12 32  1  0
 13 14  1  0
 13 33  1  0
 15 16  1  0
 15 17  1  0
 16 34  1  0
 16 35  1  0
 16 36  1  0
M  END

