
     RDKit          3D

 60 62  0  0  0  0  0  0  0  0999 V2000
    7.9853    4.3031   -4.2401 C   0  0  0  0  0  0  0  0  0  0  0  0
    8.3741    3.5661   -2.9579 C   0  0  0  0  0  0  0  0  0  0  0  0
    7.2352    3.4698   -1.9370 C   0  0  0  0  0  0  0  0  0  0  0  0
    7.6313    2.7242   -0.6579 C   0  0  0  0  0  0  0  0  0  0  0  0
    6.5655    2.7276    0.4484 C   0  0  1  0  0  0  0  0  0  0  0  0
    5.2838    1.9699    0.0365 C   0  0  0  0  0  0  0  0  0  0  0  0
    4.4367    1.6736    1.1210 O   0  0  0  0  0  0  0  0  0  0  0  0
    3.7502    2.7831    1.6880 C   0  0  0  0  0  0  0  0  0  0  0  0
    2.8018    2.2677    2.7536 C   0  0  0  0  0  0  0  0  0  0  0  0
    7.0693    2.0947    1.6791 N   0  0  0  0  0  0  0  0  0  0  0  0
    7.5802    3.0670    2.9639 S   0  0  1  0  0  0  0  0  0  0  0  0
    7.0306    4.4261    2.8242 O   0  0  0  0  0  0  0  0  0  0  0  0
    7.3099    2.2668    4.1622 O   0  0  0  0  0  0  0  0  0  0  0  0
    9.3540    3.1869    2.7459 C   0  0  0  0  0  0  0  0  0  0  0  0
    9.9254    4.4118    2.3988 C   0  0  0  0  0  0  0  0  0  0  0  0
   11.3130    4.4967    2.2529 C   0  0  0  0  0  0  0  0  0  0  0  0
   12.1274    3.3721    2.4492 C   0  0  0  0  0  0  0  0  0  0  0  0
   13.6365    3.4709    2.3130 C   0  0  0  0  0  0  0  0  0  0  0  0
   14.3206    3.5923    3.6587 C   0  0  0  0  0  0  0  0  0  0  0  0
   14.6609    2.4778    4.3059 N   0  0  0  0  0  0  0  0  0  0  0  0
   15.2347    2.5512    5.5206 C   0  0  0  0  0  0  0  0  0  0  0  0
   15.5204    3.7375    6.1978 C   0  0  0  0  0  0  0  0  0  0  0  0
   15.1653    4.9073    5.5200 C   0  0  0  0  0  0  0  0  0  0  0  0
   15.2542    6.2533    5.7976 N   0  0  0  0  0  0  0  0  0  0  0  0
   15.6361    6.6722    6.6363 H   0  0  0  0  0  0  0  0  0  0  0  0
   14.7180    6.9364    4.7153 C   0  0  0  0  0  0  0  0  0  0  0  0
   14.6497    8.4271    4.6785 C   0  0  0  0  0  0  0  0  0  0  0  0
   14.2990    6.1276    3.7758 N   0  0  0  0  0  0  0  0  0  0  0  0
   14.5604    4.8506    4.2423 C   0  0  0  0  0  0  0  0  0  0  0  0
   11.5270    2.1546    2.8185 C   0  0  0  0  0  0  0  0  0  0  0  0
   10.1460    2.0552    2.9707 C   0  0  0  0  0  0  0  0  0  0  0  0
    8.8275    4.3549   -4.9483 H   0  0  0  0  0  0  0  0  0  0  0  0
    7.6658    5.3372   -4.0272 H   0  0  0  0  0  0  0  0  0  0  0  0
    7.1491    3.8004   -4.7548 H   0  0  0  0  0  0  0  0  0  0  0  0
    9.2380    4.0701   -2.4881 H   0  0  0  0  0  0  0  0  0  0  0  0
    8.7227    2.5476   -3.2079 H   0  0  0  0  0  0  0  0  0  0  0  0
    6.3699    2.9774   -2.4164 H   0  0  0  0  0  0  0  0  0  0  0  0
    6.8946    4.4895   -1.6758 H   0  0  0  0  0  0  0  0  0  0  0  0
    8.5463    3.1816   -0.2453 H   0  0  0  0  0  0  0  0  0  0  0  0
    7.8971    1.6773   -0.8907 H   0  0  0  0  0  0  0  0  0  0  0  0
    6.2987    3.7754    0.6715 H   0  0  0  0  0  0  0  0  0  0  0  0
    5.5600    0.9972   -0.4046 H   0  0  0  0  0  0  0  0  0  0  0  0
    4.7475    2.5522   -0.7364 H   0  0  0  0  0  0  0  0  0  0  0  0
    3.1936    3.3178    0.8912 H   0  0  0  0  0  0  0  0  0  0  0  0
    4.4653    3.5026    2.1293 H   0  0  0  0  0  0  0  0  0  0  0  0
    2.0873    1.5480    2.3248 H   0  0  0  0  0  0  0  0  0  0  0  0
    2.2374    3.1015    3.1994 H   0  0  0  0  0  0  0  0  0  0  0  0
    3.3613    1.7633    3.5566 H   0  0  0  0  0  0  0  0  0  0  0  0
    6.3775    1.4578    2.0855 H   0  0  0  0  0  0  0  0  0  0  0  0
    9.2842    5.2829    2.2551 H   0  0  0  0  0  0  0  0  0  0  0  0
   11.7749    5.4542    2.0000 H   0  0  0  0  0  0  0  0  0  0  0  0
   13.8929    4.3443    1.6971 H   0  0  0  0  0  0  0  0  0  0  0  0
   14.0235    2.5657    1.8230 H   0  0  0  0  0  0  0  0  0  0  0  0
   15.4860    1.5928    5.9892 H   0  0  0  0  0  0  0  0  0  0  0  0
   15.9866    3.7315    7.1851 H   0  0  0  0  0  0  0  0  0  0  0  0
   14.0286    8.8225    5.4998 H   0  0  0  0  0  0  0  0  0  0  0  0
   14.2074    8.7375    3.7240 H   0  0  0  0  0  0  0  0  0  0  0  0
   15.6513    8.8800    4.7684 H   0  0  0  0  0  0  0  0  0  0  0  0
   12.1595    1.2828    3.0026 H   0  0  0  0  0  0  0  0  0  0  0  0
    9.6804    1.1130    3.2657 H   0  0  0  0  0  0  0  0  0  0  0  0
  1  2  1  0
  1 32  1  0
  1 33  1  0
  1 34  1  0
  2  3  1  0
  2 35  1  0
  2 36  1  0
  3  4  1  0
  3 37  1  0
  3 38  1  0
  4  5  1  0
  4 39  1  0
  4 40  1  0
  5  6  1  0
  5 10  1  0
  5 41  1  1
  6  7  1  0
  6 42  1  0
  6 43  1  0
  7  8  1  0
  8  9  1  0
  8 44  1  0
  8 45  1  0
  9 46  1  0
  9 47  1  0
  9 48  1  0
 11 10  1  6
 10 49  1  0
 11 12  2  0
 11 13  2  0
 11 14  1  0
 14 15  2  0
 14 31  1  0
 15 16  1  0
 15 50  1  0
 16 17  2  0
 16 51  1  0
 17 18  1  0
 17 30  1  0
 18 19  1  0
 18 52  1  0
 18 53  1  0
 19 20  2  0
 19 29  1  0
 20 21  1  0
 21 22  2  0
 21 54  1  0
 22 23  1  0
 22 55  1  0
 23 24  1  0
 23 29  2  0
 24 25  1  0
 24 26  1  0
 26 27  1  0
 26 28  2  0
 27 56  1  0
 27 57  1  0
 27 58  1  0
 28 29  1  0
 30 31  2  0
 30 59  1  0
 31 60  1  0
M  END

