
     RDKit          3D

 57 60  0  0  0  0  0  0  0  0999 V2000
    3.0901    1.2260   -0.3615 C   0  0  0  0  0  0  0  0  0  0  0  0
    2.5869   -0.0947    0.2148 C   0  0  0  0  0  0  0  0  0  0  0  0
    1.5697   -0.1104    0.8806 O   0  0  0  0  0  0  0  0  0  0  0  0
    3.3395   -1.2412   -0.0516 N   0  0  0  0  0  0  0  0  0  0  0  0
    3.0044   -2.5327    0.4586 C   0  0  0  0  0  0  0  0  0  0  0  0
    2.2301   -2.6956    1.6245 C   0  0  0  0  0  0  0  0  0  0  0  0
    1.9078   -3.9545    2.1140 C   0  0  0  0  0  0  0  0  0  0  0  0
    2.3351   -5.1213    1.4568 C   0  0  0  0  0  0  0  0  0  0  0  0
    1.9930   -6.4747    1.9636 C   0  0  0  0  0  0  0  0  0  0  0  0
    0.7614   -6.7266    2.5995 C   0  0  0  0  0  0  0  0  0  0  0  0
    0.4403   -7.9979    3.0694 C   0  0  0  0  0  0  0  0  0  0  0  0
    1.3519   -9.0589    2.9523 C   0  0  0  0  0  0  0  0  0  0  0  0
    0.9114  -10.4248    3.4135 C   0  0  0  0  0  0  0  0  0  0  0  0
   -0.2134  -10.8293    3.1473 O   0  0  0  0  0  0  0  0  0  0  0  0
    1.8002  -11.1881    4.1292 N   0  0  0  0  0  0  0  0  0  0  0  0
    1.3659  -12.5120    4.6148 C   0  0  0  0  0  0  0  0  0  0  0  0
    2.1873  -12.7318    5.8849 C   0  0  0  0  0  0  0  0  0  0  0  0
    3.4877  -11.9645    5.6131 C   0  0  2  0  0  0  0  0  0  0  0  0
    4.2902  -11.7471    6.8001 N   0  0  0  0  0  0  0  0  0  0  0  0
    2.9799  -10.7112    4.8598 C   0  0  0  0  0  0  0  0  0  0  0  0
    2.5742   -8.8201    2.3062 C   0  0  0  0  0  0  0  0  0  0  0  0
    2.8875   -7.5518    1.8165 C   0  0  0  0  0  0  0  0  0  0  0  0
    3.1113   -4.9660    0.3037 C   0  0  0  0  0  0  0  0  0  0  0  0
    3.4748   -3.7063   -0.1934 C   0  0  0  0  0  0  0  0  0  0  0  0
    4.2754   -3.6128   -1.3691 N   0  0  0  0  0  0  0  0  0  0  0  0
    5.2112   -4.6015   -1.6965 C   0  0  0  0  0  0  0  0  0  0  0  0
    5.6113   -5.4563   -0.9527 O   0  0  0  0  0  0  0  0  0  0  0  0
    5.6700   -4.5354   -2.9743 O   0  0  0  0  0  0  0  0  0  0  0  0
    4.3017   -2.3052   -2.0123 C   0  0  0  0  0  0  0  0  0  0  0  0
    4.4913   -1.2041   -0.9603 C   0  0  2  0  0  0  0  0  0  0  0  0
    4.4627   -0.2556   -1.5061 H   0  0  0  0  0  0  0  0  0  0  0  0
    5.8277   -1.3079   -0.2178 C   0  0  0  0  0  0  0  0  0  0  0  0
    2.4624    2.0122    0.0743 H   0  0  0  0  0  0  0  0  0  0  0  0
    2.9787    1.2652   -1.4572 H   0  0  0  0  0  0  0  0  0  0  0  0
    4.1438    1.4297   -0.1180 H   0  0  0  0  0  0  0  0  0  0  0  0
    1.8725   -1.8119    2.1422 H   0  0  0  0  0  0  0  0  0  0  0  0
    1.3306   -4.0257    3.0380 H   0  0  0  0  0  0  0  0  0  0  0  0
    0.0293   -5.9216    2.6953 H   0  0  0  0  0  0  0  0  0  0  0  0
   -0.5349   -8.1899    3.5216 H   0  0  0  0  0  0  0  0  0  0  0  0
    1.5798  -13.2838    3.8532 H   0  0  0  0  0  0  0  0  0  0  0  0
    0.2786  -12.5094    4.7726 H   0  0  0  0  0  0  0  0  0  0  0  0
    2.3625  -13.7921    6.1160 H   0  0  0  0  0  0  0  0  0  0  0  0
    1.6781  -12.2802    6.7552 H   0  0  0  0  0  0  0  0  0  0  0  0
    4.0961  -12.5594    4.9078 H   0  0  0  0  0  0  0  0  0  0  0  0
    3.8000  -11.1445    7.4632 H   0  0  0  0  0  0  0  0  0  0  0  0
    5.1686  -11.2816    6.5724 H   0  0  0  0  0  0  0  0  0  0  0  0
    3.7513  -10.2942    4.1972 H   0  0  0  0  0  0  0  0  0  0  0  0
    2.7106   -9.9221    5.5890 H   0  0  0  0  0  0  0  0  0  0  0  0
    3.2847   -9.6368    2.1609 H   0  0  0  0  0  0  0  0  0  0  0  0
    3.8517   -7.3903    1.3289 H   0  0  0  0  0  0  0  0  0  0  0  0
    3.4455   -5.8492   -0.2337 H   0  0  0  0  0  0  0  0  0  0  0  0
    5.0570   -4.0483   -3.5419 H   0  0  0  0  0  0  0  0  0  0  0  0
    3.3632   -2.1172   -2.5645 H   0  0  0  0  0  0  0  0  0  0  0  0
    5.1384   -2.2605   -2.7202 H   0  0  0  0  0  0  0  0  0  0  0  0
    5.9080   -2.2513    0.3424 H   0  0  0  0  0  0  0  0  0  0  0  0
    5.9318   -0.4801    0.4998 H   0  0  0  0  0  0  0  0  0  0  0  0
    6.6703   -1.2561   -0.9256 H   0  0  0  0  0  0  0  0  0  0  0  0
  1  2  1  0
  1 33  1  0
  1 34  1  0
  1 35  1  0
  2  3  2  0
  2  4  1  0
  4  5  1  0
  4 30  1  0
  5  6  1  0
  5 24  2  0
  6  7  2  0
  6 36  1  0
  7  8  1  0
  7 37  1  0
  8  9  1  0
  8 23  2  0
  9 10  2  0
  9 22  1  0
 10 11  1  0
 10 38  1  0
 11 12  2  0
 11 39  1  0
 12 13  1  0
 12 21  1  0
 13 14  2  0
 13 15  1  0
 15 16  1  0
 15 20  1  0
 16 17  1  0
 16 40  1  0
 16 41  1  0
 17 18  1  0
 17 42  1  0
 17 43  1  0
 18 19  1  0
 18 20  1  0
 18 44  1  6
 19 45  1  0
 19 46  1  0
 20 47  1  0
 20 48  1  0
 21 22  2  0
 21 49  1  0
 22 50  1  0
 23 24  1  0
 23 51  1  0
 24 25  1  0
 25 26  1  0
 25 29  1  0
 26 27  2  0
 26 28  1  0
 28 52  1  0
 29 30  1  0
 29 53  1  0
 29 54  1  0
 30 31  1  6
 30 32  1  0
 32 55  1  0
 32 56  1  0
 32 57  1  0
M  END

