
     RDKit          3D

 32 32  0  0  0  0  0  0  0  0999 V2000
    1.2382   -0.7619   -5.8302 C   0  0  0  0  0  0  0  0  0  0  0  0
    2.2763   -1.4605   -5.1972 O   0  0  0  0  0  0  0  0  0  0  0  0
    3.3179   -0.6360   -4.7378 C   0  0  0  0  0  0  0  0  0  0  0  0
    4.3663   -1.5257   -4.0849 C   0  0  0  0  0  0  0  0  0  0  0  0
    5.7583   -0.5010   -3.4826 S   0  0  0  0  0  0  0  0  0  0  0  0
    6.8068   -1.7916   -2.6901 C   0  0  0  0  0  0  0  0  0  0  0  0
    7.3898   -2.8023   -3.6439 C   0  0  0  0  0  0  0  0  0  0  0  0
    8.4999   -2.5058   -4.4462 C   0  0  0  0  0  0  0  0  0  0  0  0
    9.0212   -3.4586   -5.3231 C   0  0  0  0  0  0  0  0  0  0  0  0
    8.4355   -4.7192   -5.4199 C   0  0  0  0  0  0  0  0  0  0  0  0
    7.3150   -5.0640   -4.6415 C   0  0  0  0  0  0  0  0  0  0  0  0
    6.7286   -6.4281   -4.7620 C   0  0  0  0  0  0  0  0  0  0  0  0
    5.4128   -6.6484   -4.4560 N   0  0  0  0  0  0  0  0  0  0  0  0
    7.5129   -7.3489   -5.2283 N   0  0  0  0  0  0  0  0  0  0  0  0
    6.8216   -8.5688   -5.3205 O   0  0  0  0  0  0  0  0  0  0  0  0
    6.8289   -4.0786   -3.7683 C   0  0  0  0  0  0  0  0  0  0  0  0
    5.7563   -4.3586   -2.9799 F   0  0  0  0  0  0  0  0  0  0  0  0
    0.4834   -1.4960   -6.1480 H   0  0  0  0  0  0  0  0  0  0  0  0
    1.5923   -0.2106   -6.7254 H   0  0  0  0  0  0  0  0  0  0  0  0
    0.7541   -0.0297   -5.1516 H   0  0  0  0  0  0  0  0  0  0  0  0
    2.9401    0.1102   -4.0072 H   0  0  0  0  0  0  0  0  0  0  0  0
    3.7710   -0.0654   -5.5761 H   0  0  0  0  0  0  0  0  0  0  0  0
    4.7268   -2.2602   -4.8219 H   0  0  0  0  0  0  0  0  0  0  0  0
    3.9137   -2.0746   -3.2445 H   0  0  0  0  0  0  0  0  0  0  0  0
    6.2280   -2.2815   -1.8955 H   0  0  0  0  0  0  0  0  0  0  0  0
    7.6108   -1.2124   -2.2125 H   0  0  0  0  0  0  0  0  0  0  0  0
    8.9483   -1.5110   -4.3800 H   0  0  0  0  0  0  0  0  0  0  0  0
    9.8882   -3.2150   -5.9414 H   0  0  0  0  0  0  0  0  0  0  0  0
    8.8279   -5.4738   -6.1019 H   0  0  0  0  0  0  0  0  0  0  0  0
    4.9356   -5.9963   -3.8513 H   0  0  0  0  0  0  0  0  0  0  0  0
    5.1371   -7.6226   -4.4142 H   0  0  0  0  0  0  0  0  0  0  0  0
    7.5068   -9.1787   -5.6179 H   0  0  0  0  0  0  0  0  0  0  0  0
  1  2  1  0
  1 18  1  0
  1 19  1  0
  1 20  1  0
  2  3  1  0
  3  4  1  0
  3 21  1  0
  3 22  1  0
  4  5  1  0
  4 23  1  0
  4 24  1  0
  5  6  1  0
  6  7  1  0
  6 25  1  0
  6 26  1  0
  7  8  2  0
  7 16  1  0
  8  9  1  0
  8 27  1  0
  9 10  2  0
  9 28  1  0
 10 11  1  0
 10 29  1  0
 11 12  1  0
 11 16  2  0
 12 13  1  0
 12 14  2  0
 13 30  1  0
 13 31  1  0
 14 15  1  0
 15 32  1  0
 16 17  1  0
M  END

