
     RDKit          3D

 35 34  0  0  0  0  0  0  0  0999 V2000
    1.0620    0.6629    0.2122 C   0  0  0  0  0  0  0  0  0  0  0  0
    2.4436    0.0716   -0.0769 C   0  0  1  0  0  0  0  0  0  0  0  0
    2.4102   -1.4088   -0.5163 C   0  0  0  0  0  0  0  0  0  0  0  0
    1.6704   -1.6986   -1.8243 C   0  0  0  0  0  0  0  0  0  0  0  0
    1.7756   -3.1595   -2.2634 C   0  0  0  0  0  0  0  0  0  0  0  0
    1.1486   -3.4127   -3.5033 O   0  0  0  0  0  0  0  0  0  0  0  0
    3.1481    0.9193   -1.0328 N   0  0  0  0  0  0  0  0  0  0  0  0
    4.5062    1.0570   -1.0260 C   0  0  0  0  0  0  0  0  0  0  0  0
    5.2438    0.5427   -0.2071 O   0  0  0  0  0  0  0  0  0  0  0  0
    4.8884    1.8503   -2.0532 O   0  0  0  0  0  0  0  0  0  0  0  0
    6.2937    2.1841   -2.2909 C   0  0  1  0  0  0  0  0  0  0  0  0
    7.0950    0.9112   -2.5850 C   0  0  0  0  0  0  0  0  0  0  0  0
    6.2262    3.0788   -3.5305 C   0  0  0  0  0  0  0  0  0  0  0  0
    6.8600    2.9570   -1.0948 C   0  0  0  0  0  0  0  0  0  0  0  0
    0.5182    0.0418    0.9406 H   0  0  0  0  0  0  0  0  0  0  0  0
    0.4427    0.7243   -0.6986 H   0  0  0  0  0  0  0  0  0  0  0  0
    1.1531    1.6788    0.6261 H   0  0  0  0  0  0  0  0  0  0  0  0
    3.0419    0.1089    0.8465 H   0  0  0  0  0  0  0  0  0  0  0  0
    1.9658   -2.0010    0.3042 H   0  0  0  0  0  0  0  0  0  0  0  0
    3.4574   -1.7452   -0.6037 H   0  0  0  0  0  0  0  0  0  0  0  0
    2.0714   -1.0699   -2.6380 H   0  0  0  0  0  0  0  0  0  0  0  0
    0.5993   -1.4392   -1.7255 H   0  0  0  0  0  0  0  0  0  0  0  0
    1.3808   -3.8202   -1.4626 H   0  0  0  0  0  0  0  0  0  0  0  0
    2.8362   -3.4309   -2.3961 H   0  0  0  0  0  0  0  0  0  0  0  0
    0.2046   -3.2326   -3.4038 H   0  0  0  0  0  0  0  0  0  0  0  0
    2.6422    1.3488   -1.7983 H   0  0  0  0  0  0  0  0  0  0  0  0
    6.6402    0.3577   -3.4217 H   0  0  0  0  0  0  0  0  0  0  0  0
    7.1310    0.2565   -1.7052 H   0  0  0  0  0  0  0  0  0  0  0  0
    8.1245    1.1772   -2.8720 H   0  0  0  0  0  0  0  0  0  0  0  0
    5.7789    2.5353   -4.3766 H   0  0  0  0  0  0  0  0  0  0  0  0
    7.2359    3.4068   -3.8208 H   0  0  0  0  0  0  0  0  0  0  0  0
    5.6130    3.9709   -3.3312 H   0  0  0  0  0  0  0  0  0  0  0  0
    6.8894    2.3260   -0.1976 H   0  0  0  0  0  0  0  0  0  0  0  0
    6.2418    3.8442   -0.8853 H   0  0  0  0  0  0  0  0  0  0  0  0
    7.8819    3.2993   -1.3222 H   0  0  0  0  0  0  0  0  0  0  0  0
  1  2  1  0
  1 15  1  0
  1 16  1  0
  1 17  1  0
  2  3  1  0
  2  7  1  0
  2 18  1  1
  3  4  1  0
  3 19  1  0
  3 20  1  0
  4  5  1  0
  4 21  1  0
  4 22  1  0
  5  6  1  0
  5 23  1  0
  5 24  1  0
  6 25  1  0
  7  8  1  0
  7 26  1  0
  8  9  2  0
  8 10  1  0
 11 10  1  1
 11 12  1  0
 11 13  1  0
 11 14  1  0
 12 27  1  0
 12 28  1  0
 12 29  1  0
 13 30  1  0
 13 31  1  0
 13 32  1  0
 14 33  1  0
 14 34  1  0
 14 35  1  0
M  END

