
     RDKit          3D

 34 35  0  0  0  0  0  0  0  0999 V2000
    0.9633    1.7572   -1.5948 C   0  0  0  0  0  0  0  0  0  0  0  0
    2.3837    1.8870   -1.5106 O   0  0  0  0  0  0  0  0  0  0  0  0
    3.0980    0.7634   -1.7226 C   0  0  0  0  0  0  0  0  0  0  0  0
    2.6142   -0.3047   -1.9774 O   0  0  0  0  0  0  0  0  0  0  0  0
    4.5900    1.0753   -1.5767 C   0  0  1  0  0  0  0  0  0  0  0  0
    4.9360    1.4728   -0.1380 C   0  0  0  0  0  0  0  0  0  0  0  0
    5.2882   -0.0834   -1.9825 O   0  0  0  0  0  0  0  0  0  0  0  0
    6.5511   -0.0151   -2.4709 C   0  0  0  0  0  0  0  0  0  0  0  0
    7.2852    1.1815   -2.6328 C   0  0  0  0  0  0  0  0  0  0  0  0
    8.5680    1.1148   -3.1572 C   0  0  0  0  0  0  0  0  0  0  0  0
    9.1719   -0.1015   -3.5319 C   0  0  0  0  0  0  0  0  0  0  0  0
   10.5316   -0.1068   -4.0791 C   0  0  0  0  0  0  0  0  0  0  0  0
   11.1851    1.0650   -4.2143 N   0  0  0  0  0  0  0  0  0  0  0  0
   12.4133    1.0361   -4.7122 C   0  0  0  0  0  0  0  0  0  0  0  0
   13.0494   -0.1511   -5.0981 C   0  0  0  0  0  0  0  0  0  0  0  0
   12.3085   -1.3173   -4.9268 C   0  0  0  0  0  0  0  0  0  0  0  0
   11.0732   -1.3000   -4.4271 N   0  0  0  0  0  0  0  0  0  0  0  0
    8.4176   -1.3062   -3.3581 C   0  0  0  0  0  0  0  0  0  0  0  0
    8.8964   -2.5089   -3.6805 O   0  0  0  0  0  0  0  0  0  0  0  0
    7.1215   -1.2385   -2.8302 C   0  0  0  0  0  0  0  0  0  0  0  0
    0.5521    2.7548   -1.3977 H   0  0  0  0  0  0  0  0  0  0  0  0
    0.5915    1.0367   -0.8506 H   0  0  0  0  0  0  0  0  0  0  0  0
    0.6620    1.4106   -2.5949 H   0  0  0  0  0  0  0  0  0  0  0  0
    4.7971    1.9183   -2.2590 H   0  0  0  0  0  0  0  0  0  0  0  0
    4.6988    0.6441    0.5463 H   0  0  0  0  0  0  0  0  0  0  0  0
    4.3625    2.3611    0.1621 H   0  0  0  0  0  0  0  0  0  0  0  0
    6.0090    1.6967   -0.0496 H   0  0  0  0  0  0  0  0  0  0  0  0
    6.8714    2.1496   -2.3537 H   0  0  0  0  0  0  0  0  0  0  0  0
    9.1516    2.0268   -3.2903 H   0  0  0  0  0  0  0  0  0  0  0  0
   12.9256    2.0013   -4.8131 H   0  0  0  0  0  0  0  0  0  0  0  0
   14.0606   -0.1618   -5.5068 H   0  0  0  0  0  0  0  0  0  0  0  0
   12.7159   -2.2980   -5.1978 H   0  0  0  0  0  0  0  0  0  0  0  0
    9.8162   -2.3713   -4.0369 H   0  0  0  0  0  0  0  0  0  0  0  0
    6.5487   -2.1576   -2.7054 H   0  0  0  0  0  0  0  0  0  0  0  0
  1  2  1  0
  1 21  1  0
  1 22  1  0
  1 23  1  0
  2  3  1  0
  3  4  2  0
  3  5  1  0
  5  6  1  0
  5  7  1  0
  5 24  1  6
  6 25  1  0
  6 26  1  0
  6 27  1  0
  7  8  1  0
  8  9  2  0
  8 20  1  0
  9 10  1  0
  9 28  1  0
 10 11  2  0
 10 29  1  0
 11 12  1  0
 11 18  1  0
 12 13  2  0
 12 17  1  0
 13 14  1  0
 14 15  2  0
 14 30  1  0
 15 16  1  0
 15 31  1  0
 16 17  2  0
 16 32  1  0
 18 19  1  0
 18 20  2  0
 19 33  1  0
 20 34  1  0
M  END

