
     RDKit          3D

 53 54  0  0  0  0  0  0  0  0999 V2000
    0.8004    4.9967    3.0923 C   0  0  0  0  0  0  0  0  0  0  0  0
    2.2246    4.4666    2.9214 C   0  0  0  0  0  0  0  0  0  0  0  0
    3.2959    5.4546    3.3941 C   0  0  0  0  0  0  0  0  0  0  0  0
    4.7297    4.9439    3.2371 C   0  0  0  0  0  0  0  0  0  0  0  0
    5.1779    4.8549    1.7773 C   0  0  0  0  0  0  0  0  0  0  0  0
    4.7242    5.5898    0.9114 O   0  0  0  0  0  0  0  0  0  0  0  0
    6.1401    3.9180    1.5235 N   0  0  0  0  0  0  0  0  0  0  0  0
    6.7418    3.7347    0.2192 C   0  0  0  0  0  0  0  0  0  0  0  0
    8.2380    4.1718    0.1320 C   0  0  1  0  0  0  0  0  0  0  0  0
    9.0403    3.3097    1.1246 C   0  0  0  0  0  0  0  0  0  0  0  0
    9.5327    3.8049    2.3328 C   0  0  0  0  0  0  0  0  0  0  0  0
   10.2197    2.9760    3.2374 C   0  0  0  0  0  0  0  0  0  0  0  0
   10.4325    1.6283    2.9572 C   0  0  0  0  0  0  0  0  0  0  0  0
   11.0835    0.7524    3.7596 O   0  0  0  0  0  0  0  0  0  0  0  0
   11.6099    1.2114    4.9818 C   0  0  0  0  0  0  0  0  0  0  0  0
    9.9353    1.1014    1.7322 C   0  0  0  0  0  0  0  0  0  0  0  0
   10.1764   -0.2155    1.5215 O   0  0  0  0  0  0  0  0  0  0  0  0
    9.7291   -0.8147    0.3294 C   0  0  0  0  0  0  0  0  0  0  0  0
    9.2548    1.9386    0.8490 C   0  0  0  0  0  0  0  0  0  0  0  0
    8.7416    3.9458   -1.3221 C   0  0  0  0  0  0  0  0  0  0  0  0
    8.1712    4.9543   -2.3252 C   0  0  0  0  0  0  0  0  0  0  0  0
    8.4031    6.2867   -1.9304 O   0  0  0  0  0  0  0  0  0  0  0  0
    7.8160    6.5754   -0.6747 C   0  0  0  0  0  0  0  0  0  0  0  0
    8.3838    5.6843    0.4319 C   0  0  0  0  0  0  0  0  0  0  0  0
    0.0522    4.2671    2.7432 H   0  0  0  0  0  0  0  0  0  0  0  0
    0.6506    5.9268    2.5193 H   0  0  0  0  0  0  0  0  0  0  0  0
    0.5779    5.2212    4.1494 H   0  0  0  0  0  0  0  0  0  0  0  0
    2.4009    4.2285    1.8584 H   0  0  0  0  0  0  0  0  0  0  0  0
    2.3335    3.5155    3.4755 H   0  0  0  0  0  0  0  0  0  0  0  0
    3.1216    5.7063    4.4550 H   0  0  0  0  0  0  0  0  0  0  0  0
    3.2027    6.3925    2.8226 H   0  0  0  0  0  0  0  0  0  0  0  0
    4.8591    3.9672    3.7355 H   0  0  0  0  0  0  0  0  0  0  0  0
    5.4279    5.6397    3.7370 H   0  0  0  0  0  0  0  0  0  0  0  0
    6.5019    3.3697    2.2954 H   0  0  0  0  0  0  0  0  0  0  0  0
    6.1223    4.3065   -0.4834 H   0  0  0  0  0  0  0  0  0  0  0  0
    6.6709    2.6721   -0.0697 H   0  0  0  0  0  0  0  0  0  0  0  0
    9.3994    4.8524    2.6018 H   0  0  0  0  0  0  0  0  0  0  0  0
   10.5921    3.4064    4.1674 H   0  0  0  0  0  0  0  0  0  0  0  0
   12.0921    0.3478    5.4594 H   0  0  0  0  0  0  0  0  0  0  0  0
   10.8203    1.5962    5.6533 H   0  0  0  0  0  0  0  0  0  0  0  0
   12.3643    2.0058    4.8340 H   0  0  0  0  0  0  0  0  0  0  0  0
   10.0384   -1.8677    0.3732 H   0  0  0  0  0  0  0  0  0  0  0  0
   10.1818   -0.3464   -0.5640 H   0  0  0  0  0  0  0  0  0  0  0  0
    8.6287   -0.7704    0.2311 H   0  0  0  0  0  0  0  0  0  0  0  0
    8.8817    1.5182   -0.0837 H   0  0  0  0  0  0  0  0  0  0  0  0
    8.4988    2.9279   -1.6708 H   0  0  0  0  0  0  0  0  0  0  0  0
    9.8408    4.0310   -1.3251 H   0  0  0  0  0  0  0  0  0  0  0  0
    7.0848    4.7825   -2.4770 H   0  0  0  0  0  0  0  0  0  0  0  0
    8.6578    4.8237   -3.3047 H   0  0  0  0  0  0  0  0  0  0  0  0
    6.7136    6.4804   -0.7254 H   0  0  0  0  0  0  0  0  0  0  0  0
    8.0433    7.6308   -0.4594 H   0  0  0  0  0  0  0  0  0  0  0  0
    7.8936    5.9412    1.3843 H   0  0  0  0  0  0  0  0  0  0  0  0
    9.4550    5.9181    0.5448 H   0  0  0  0  0  0  0  0  0  0  0  0
  1  2  1  0
  1 25  1  0
  1 26  1  0
  1 27  1  0
  2  3  1  0
  2 28  1  0
  2 29  1  0
  3  4  1  0
  3 30  1  0
  3 31  1  0
  4  5  1  0
  4 32  1  0
  4 33  1  0
  5  6  2  0
  5  7  1  0
  7  8  1  0
  7 34  1  0
  9  8  1  6
  8 35  1  0
  8 36  1  0
  9 10  1  0
  9 20  1  0
  9 24  1  0
 10 11  2  0
 10 19  1  0
 11 12  1  0
 11 37  1  0
 12 13  2  0
 12 38  1  0
 13 14  1  0
 13 16  1  0
 14 15  1  0
 15 39  1  0
 15 40  1  0
 15 41  1  0
 16 17  1  0
 16 19  2  0
 17 18  1  0
 18 42  1  0
 18 43  1  0
 18 44  1  0
 19 45  1  0
 20 21  1  0
 20 46  1  0
 20 47  1  0
 21 22  1  0
 21 48  1  0
 21 49  1  0
 22 23  1  0
 23 24  1  0
 23 50  1  0
 23 51  1  0
 24 52  1  0
 24 53  1  0
M  END

