
     RDKit          3D

 82 89  0  0  0  0  0  0  0  0999 V2000
    1.2875    1.4401    0.0252 C   0  0  0  0  0  0  0  0  0  0  0  0
    2.6828    1.2583    0.1382 O   0  0  0  0  0  0  0  0  0  0  0  0
    3.1705    0.3782    1.0409 C   0  0  0  0  0  0  0  0  0  0  0  0
    2.3820   -0.3911    1.9117 C   0  0  0  0  0  0  0  0  0  0  0  0
    2.9866   -1.2783    2.8036 C   0  0  0  0  0  0  0  0  0  0  0  0
    4.3842   -1.4125    2.8641 C   0  0  0  0  0  0  0  0  0  0  0  0
    5.0559   -2.3095    3.8185 C   0  0  0  0  0  0  0  0  0  0  0  0
    4.7285   -3.6105    4.0200 N   0  0  0  0  0  0  0  0  0  0  0  0
    5.6107   -4.1516    4.9501 C   0  0  0  0  0  0  0  0  0  0  0  0
    5.5907   -5.5168    5.2864 C   0  0  0  0  0  0  0  0  0  0  0  0
    6.5581   -6.0385    6.2888 C   0  0  0  0  0  0  0  0  0  0  0  0
    6.5642   -5.5295    7.6010 C   0  0  0  0  0  0  0  0  0  0  0  0
    7.4621   -6.0122    8.5502 C   0  0  0  0  0  0  0  0  0  0  0  0
    8.3860   -7.0145    8.2010 C   0  0  0  0  0  0  0  0  0  0  0  0
    9.3177   -7.5121    9.1747 C   0  0  0  0  0  0  0  0  0  0  0  0
   10.0713   -7.9145    9.9609 N   0  0  0  0  0  0  0  0  0  0  0  0
    8.3918   -7.5242    6.8894 C   0  0  0  0  0  0  0  0  0  0  0  0
    7.4845   -7.0419    5.9490 C   0  0  0  0  0  0  0  0  0  0  0  0
    4.6980   -6.3944    4.6464 C   0  0  0  0  0  0  0  0  0  0  0  0
    4.5534   -7.7976    4.7744 C   0  0  0  0  0  0  0  0  0  0  0  0
    3.5748   -8.2063    3.8723 C   0  0  0  0  0  0  0  0  0  0  0  0
    3.0801   -9.5893    3.7263 C   0  0  0  0  0  0  0  0  0  0  0  0
    1.7066   -9.8796    3.5980 C   0  0  0  0  0  0  0  0  0  0  0  0
    1.2550  -11.1928    3.5128 C   0  0  0  0  0  0  0  0  0  0  0  0
    2.1696  -12.2626    3.5545 C   0  0  0  0  0  0  0  0  0  0  0  0
    1.7066  -13.6186    3.4642 C   0  0  0  0  0  0  0  0  0  0  0  0
    1.3323  -14.7156    3.3908 N   0  0  0  0  0  0  0  0  0  0  0  0
    3.5431  -11.9869    3.6869 C   0  0  0  0  0  0  0  0  0  0  0  0
    3.9845  -10.6694    3.7702 C   0  0  0  0  0  0  0  0  0  0  0  0
    3.1203   -7.0189    3.1961 C   0  0  0  0  0  0  0  0  0  0  0  0
    2.1275   -6.9667    2.1094 C   0  0  0  0  0  0  0  0  0  0  0  0
    1.0525   -6.0618    2.0974 C   0  0  0  0  0  0  0  0  0  0  0  0
    0.1124   -6.0678    1.0656 C   0  0  0  0  0  0  0  0  0  0  0  0
    0.2369   -6.9788    0.0043 C   0  0  0  0  0  0  0  0  0  0  0  0
   -0.6144   -7.0596   -1.0426 O   0  0  0  0  0  0  0  0  0  0  0  0
   -1.7111   -6.1742   -1.1193 C   0  0  0  0  0  0  0  0  0  0  0  0
    1.3132   -7.8859    0.0005 C   0  0  0  0  0  0  0  0  0  0  0  0
    2.2327   -7.8832    1.0384 C   0  0  0  0  0  0  0  0  0  0  0  0
    3.7967   -5.9487    3.6834 N   0  0  0  0  0  0  0  0  0  0  0  0
    3.5550   -4.4254    3.3578 B   0  0  1  0  0  0  0  0  0  0  0  0
    2.3561   -4.0389    3.9751 F   0  0  0  0  0  0  0  0  0  0  0  0
    3.5300   -4.2189    2.0008 F   0  0  0  0  0  0  0  0  0  0  0  0
    6.5234   -3.1400    5.3373 C   0  0  0  0  0  0  0  0  0  0  0  0
    6.1870   -1.9792    4.6462 C   0  0  0  0  0  0  0  0  0  0  0  0
    6.8515   -0.6713    4.8104 C   0  0  0  0  0  0  0  0  0  0  0  0
    8.2539   -0.6038    4.9343 C   0  0  0  0  0  0  0  0  0  0  0  0
    8.9039    0.6095    5.1426 C   0  0  0  0  0  0  0  0  0  0  0  0
    8.1604    1.8008    5.2327 C   0  0  0  0  0  0  0  0  0  0  0  0
    8.8235    3.0564    5.4450 C   0  0  0  0  0  0  0  0  0  0  0  0
    9.3597    4.0722    5.6168 N   0  0  0  0  0  0  0  0  0  0  0  0
    6.7584    1.7467    5.1136 C   0  0  0  0  0  0  0  0  0  0  0  0
    6.1184    0.5288    4.9063 C   0  0  0  0  0  0  0  0  0  0  0  0
    5.1633   -0.6250    1.9863 C   0  0  0  0  0  0  0  0  0  0  0  0
    4.5713    0.2470    1.0853 C   0  0  0  0  0  0  0  0  0  0  0  0
    1.1338    2.1897   -0.7624 H   0  0  0  0  0  0  0  0  0  0  0  0
    0.8450    1.8134    0.9660 H   0  0  0  0  0  0  0  0  0  0  0  0
    0.7749    0.5054   -0.2641 H   0  0  0  0  0  0  0  0  0  0  0  0
    1.2950   -0.3119    1.9030 H   0  0  0  0  0  0  0  0  0  0  0  0
    2.3589   -1.8753    3.4643 H   0  0  0  0  0  0  0  0  0  0  0  0
    5.8432   -4.7595    7.8821 H   0  0  0  0  0  0  0  0  0  0  0  0
    7.4508   -5.6184    9.5681 H   0  0  0  0  0  0  0  0  0  0  0  0
    9.1138   -8.2946    6.6126 H   0  0  0  0  0  0  0  0  0  0  0  0
    7.5065   -7.4308    4.9293 H   0  0  0  0  0  0  0  0  0  0  0  0
    5.0819   -8.4265    5.4865 H   0  0  0  0  0  0  0  0  0  0  0  0
    0.9825   -9.0641    3.5800 H   0  0  0  0  0  0  0  0  0  0  0  0
    0.1872  -11.4002    3.4200 H   0  0  0  0  0  0  0  0  0  0  0  0
    4.2589  -12.8107    3.7166 H   0  0  0  0  0  0  0  0  0  0  0  0
    5.0548  -10.4688    3.8546 H   0  0  0  0  0  0  0  0  0  0  0  0
    0.9452   -5.3422    2.9080 H   0  0  0  0  0  0  0  0  0  0  0  0
   -0.7106   -5.3541    1.0992 H   0  0  0  0  0  0  0  0  0  0  0  0
   -2.2469   -6.4214   -2.0454 H   0  0  0  0  0  0  0  0  0  0  0  0
   -1.3839   -5.1202   -1.1644 H   0  0  0  0  0  0  0  0  0  0  0  0
   -2.3989   -6.2981   -0.2639 H   0  0  0  0  0  0  0  0  0  0  0  0
    1.4037   -8.5817   -0.8357 H   0  0  0  0  0  0  0  0  0  0  0  0
    3.0643   -8.5899    1.0122 H   0  0  0  0  0  0  0  0  0  0  0  0
    7.3249   -3.2546    6.0628 H   0  0  0  0  0  0  0  0  0  0  0  0
    8.8441   -1.5188    4.8485 H   0  0  0  0  0  0  0  0  0  0  0  0
    9.9915    0.6436    5.2303 H   0  0  0  0  0  0  0  0  0  0  0  0
    6.1752    2.6662    5.1918 H   0  0  0  0  0  0  0  0  0  0  0  0
    5.0305    0.5033    4.8317 H   0  0  0  0  0  0  0  0  0  0  0  0
    6.2508   -0.7180    1.9983 H   0  0  0  0  0  0  0  0  0  0  0  0
    5.1712    0.8428    0.3950 H   0  0  0  0  0  0  0  0  0  0  0  0
  1  2  1  0
  1 55  1  0
  1 56  1  0
  1 57  1  0
  2  3  1  0
  3  4  2  0
  3 54  1  0
  4  5  1  0
  4 58  1  0
  5  6  2  0
  5 59  1  0
  6  7  1  0
  6 53  1  0
  7  8  1  0
  7 44  2  0
  8  9  1  0
  8 40  1  0
  9 10  1  0
  9 43  2  0
 10 11  1  0
 10 19  2  0
 11 12  2  0
 11 18  1  0
 12 13  1  0
 12 60  1  0
 13 14  2  0
 13 61  1  0
 14 15  1  0
 14 17  1  0
 15 16  3  0
 17 18  2  0
 17 62  1  0
 18 63  1  0
 19 20  1  0
 19 39  1  0
 20 21  2  0
 20 64  1  0
 21 22  1  0
 21 30  1  0
 22 23  2  0
 22 29  1  0
 23 24  1  0
 23 65  1  0
 24 25  2  0
 24 66  1  0
 25 26  1  0
 25 28  1  0
 26 27  3  0
 28 29  2  0
 28 67  1  0
 29 68  1  0
 30 31  1  0
 30 39  2  0
 31 32  2  0
 31 38  1  0
 32 33  1  0
 32 69  1  0
 33 34  2  0
 33 70  1  0
 34 35  1  0
 34 37  1  0
 35 36  1  0
 36 71  1  0
 36 72  1  0
 36 73  1  0
 37 38  2  0
 37 74  1  0
 38 75  1  0
 39 40  1  0
 40 41  1  1
 40 42  1  0
 43 44  1  0
 43 76  1  0
 44 45  1  0
 45 46  2  0
 45 52  1  0
 46 47  1  0
 46 77  1  0
 47 48  2  0
 47 78  1  0
 48 49  1  0
 48 51  1  0
 49 50  3  0
 51 52  2  0
 51 79  1  0
 52 80  1  0
 53 54  2  0
 53 81  1  0
 54 82  1  0
M  CHG  2  39   1  40  -1
M  END

