
     RDKit          3D

 55 58  0  0  0  0  0  0  0  0999 V2000
    2.6654   -1.1462    0.5092 C   0  0  0  0  0  0  0  0  0  0  0  0
    3.7012   -0.1741    1.0646 C   0  0  0  0  0  0  0  0  0  0  0  0
    4.4726    0.4278   -0.0204 N   0  0  0  0  0  0  0  0  0  0  0  0
    5.9538    1.1552    0.2470 S   0  0  1  0  0  0  0  0  0  0  0  0
    6.6883    0.2663    1.1478 O   0  0  0  0  0  0  0  0  0  0  0  0
    6.4356    1.5302   -1.0821 O   0  0  0  0  0  0  0  0  0  0  0  0
    5.6764    2.6671    1.1236 C   0  0  0  0  0  0  0  0  0  0  0  0
    5.5689    3.8982    0.5111 C   0  0  0  0  0  0  0  0  0  0  0  0
    5.3564    4.8771    1.4523 N   0  0  0  0  0  0  0  0  0  0  0  0
    5.2140    6.2659    1.1672 C   0  0  0  0  0  0  0  0  0  0  0  0
    4.3077    6.6974    0.1914 C   0  0  0  0  0  0  0  0  0  0  0  0
    4.1728    8.0493   -0.1230 C   0  0  0  0  0  0  0  0  0  0  0  0
    4.9447    9.0068    0.5606 C   0  0  0  0  0  0  0  0  0  0  0  0
    4.8694   10.3890    0.3207 N   0  0  0  0  0  0  0  0  0  0  0  0
    4.0655   11.0565   -0.5945 C   0  0  0  0  0  0  0  0  0  0  0  0
    3.2819   10.5014   -1.3411 O   0  0  0  0  0  0  0  0  0  0  0  0
    4.2591   12.4310   -0.5592 N   0  0  0  0  0  0  0  0  0  0  0  0
    3.6226   13.4128   -1.3380 C   0  0  0  0  0  0  0  0  0  0  0  0
    2.6540   13.1343   -2.3177 C   0  0  0  0  0  0  0  0  0  0  0  0
    2.0816   14.1814   -3.0379 C   0  0  0  0  0  0  0  0  0  0  0  0
    2.4486   15.5094   -2.8093 C   0  0  0  0  0  0  0  0  0  0  0  0
    1.6844   16.7613   -3.7540 Cl  0  0  0  0  0  0  0  0  0  0  0  0
    3.4164   15.8005   -1.8320 C   0  0  0  0  0  0  0  0  0  0  0  0
    3.8575   17.2206   -1.5363 C   0  0  1  0  0  0  0  0  0  0  0  0
    2.8367   17.9848   -1.1213 F   0  0  0  0  0  0  0  0  0  0  0  0
    4.7913   17.2500   -0.5642 F   0  0  0  0  0  0  0  0  0  0  0  0
    4.3956   17.8113   -2.6132 F   0  0  0  0  0  0  0  0  0  0  0  0
    3.9883   14.7499   -1.1119 C   0  0  0  0  0  0  0  0  0  0  0  0
    5.8503    8.5684    1.5459 C   0  0  0  0  0  0  0  0  0  0  0  0
    5.9923    7.2163    1.8415 C   0  0  0  0  0  0  0  0  0  0  0  0
    5.3260    4.2726    2.7104 C   0  0  0  0  0  0  0  0  0  0  0  0
    5.1094    4.8011    3.9926 C   0  0  0  0  0  0  0  0  0  0  0  0
    5.1297    4.0195    5.0641 N   0  0  0  0  0  0  0  0  0  0  0  0
    5.3664    2.7003    4.9140 C   0  0  0  0  0  0  0  0  0  0  0  0
    5.5738    2.0715    3.6905 C   0  0  0  0  0  0  0  0  0  0  0  0
    5.5350    2.8776    2.5397 C   0  0  0  0  0  0  0  0  0  0  0  0
    2.1016   -1.6150    1.3307 H   0  0  0  0  0  0  0  0  0  0  0  0
    3.1504   -1.9379   -0.0817 H   0  0  0  0  0  0  0  0  0  0  0  0
    1.9378   -0.6316   -0.1407 H   0  0  0  0  0  0  0  0  0  0  0  0
    4.4172   -0.7107    1.7040 H   0  0  0  0  0  0  0  0  0  0  0  0
    3.2048    0.5905    1.6946 H   0  0  0  0  0  0  0  0  0  0  0  0
    3.9447    0.9231   -0.7369 H   0  0  0  0  0  0  0  0  0  0  0  0
    5.6732    4.1420   -0.5440 H   0  0  0  0  0  0  0  0  0  0  0  0
    3.6859    5.9650   -0.3282 H   0  0  0  0  0  0  0  0  0  0  0  0
    3.4671    8.3737   -0.8832 H   0  0  0  0  0  0  0  0  0  0  0  0
    5.4890   10.9461    0.8966 H   0  0  0  0  0  0  0  0  0  0  0  0
    4.9350   12.7959    0.1011 H   0  0  0  0  0  0  0  0  0  0  0  0
    2.3583   12.1055   -2.5065 H   0  0  0  0  0  0  0  0  0  0  0  0
    1.3295   13.9667   -3.7989 H   0  0  0  0  0  0  0  0  0  0  0  0
    4.7385   14.9882   -0.3557 H   0  0  0  0  0  0  0  0  0  0  0  0
    6.4661    9.2972    2.0814 H   0  0  0  0  0  0  0  0  0  0  0  0
    6.7209    6.8967    2.5884 H   0  0  0  0  0  0  0  0  0  0  0  0
    4.9140    5.8683    4.1464 H   0  0  0  0  0  0  0  0  0  0  0  0
    5.3892    2.1116    5.8378 H   0  0  0  0  0  0  0  0  0  0  0  0
    5.7725    1.0012    3.6225 H   0  0  0  0  0  0  0  0  0  0  0  0
  1  2  1  0
  1 37  1  0
  1 38  1  0
  1 39  1  0
  2  3  1  0
  2 40  1  0
  2 41  1  0
  4  3  1  6
  3 42  1  0
  4  5  2  0
  4  6  2  0
  4  7  1  0
  7  8  2  0
  7 36  1  0
  8  9  1  0
  8 43  1  0
  9 10  1  0
  9 31  1  0
 10 11  2  0
 10 30  1  0
 11 12  1  0
 11 44  1  0
 12 13  2  0
 12 45  1  0
 13 14  1  0
 13 29  1  0
 14 15  1  0
 14 46  1  0
 15 16  2  0
 15 17  1  0
 17 18  1  0
 17 47  1  0
 18 19  2  0
 18 28  1  0
 19 20  1  0
 19 48  1  0
 20 21  2  0
 20 49  1  0
 21 22  1  0
 21 23  1  0
 23 24  1  0
 23 28  2  0
 24 25  1  1
 24 26  1  0
 24 27  1  0
 28 50  1  0
 29 30  2  0
 29 51  1  0
 30 52  1  0
 31 32  1  0
 31 36  2  0
 32 33  2  0
 32 53  1  0
 33 34  1  0
 34 35  2  0
 34 54  1  0
 35 36  1  0
 35 55  1  0
M  END

