
     RDKit          3D

 40 41  0  0  0  0  0  0  0  0999 V2000
    1.1645    0.2117   -0.0524 C   0  0  0  0  0  0  0  0  0  0  0  0
    2.6575    0.0105    0.0476 C   0  0  0  0  0  0  0  0  0  0  0  0
    3.5310    1.0827    0.2449 C   0  0  0  0  0  0  0  0  0  0  0  0
    4.9123    0.8672    0.3375 C   0  0  0  0  0  0  0  0  0  0  0  0
    5.4701   -0.4082    0.2381 C   0  0  0  0  0  0  0  0  0  0  0  0
    6.9528   -0.6538    0.3347 C   0  0  0  0  0  0  0  0  0  0  0  0
    4.5798   -1.4883    0.0383 C   0  0  0  0  0  0  0  0  0  0  0  0
    5.1673   -2.7213   -0.0539 O   0  0  0  0  0  0  0  0  0  0  0  0
    4.3807   -3.8724   -0.2544 C   0  0  0  0  0  0  0  0  0  0  0  0
    5.2626   -5.1124   -0.3201 C   0  0  0  0  0  0  0  0  0  0  0  0
    4.7926   -6.2285   -0.4888 O   0  0  0  0  0  0  0  0  0  0  0  0
    6.5845   -4.8766   -0.1786 N   0  0  0  0  0  0  0  0  0  0  0  0
    7.4756   -5.9197   -0.2185 N   0  0  0  0  0  0  0  0  0  0  0  0
    8.8009   -5.6558   -0.0705 C   0  0  0  0  0  0  0  0  0  0  0  0
    9.2224   -4.5162    0.0976 O   0  0  0  0  0  0  0  0  0  0  0  0
    9.6718   -6.8556   -0.1303 C   0  0  0  0  0  0  0  0  0  0  0  0
   11.0832   -6.8849   -0.0066 C   0  0  0  0  0  0  0  0  0  0  0  0
   11.4221   -8.2227   -0.1297 C   0  0  0  0  0  0  0  0  0  0  0  0
   12.7395   -8.9276   -0.0908 C   0  0  0  0  0  0  0  0  0  0  0  0
   10.2362   -8.8804   -0.3123 N   0  0  0  0  0  0  0  0  0  0  0  0
   10.1047   -9.8778   -0.4391 H   0  0  0  0  0  0  0  0  0  0  0  0
    9.1701   -8.0772   -0.3163 N   0  0  0  0  0  0  0  0  0  0  0  0
    3.2010   -1.2838   -0.0554 C   0  0  0  0  0  0  0  0  0  0  0  0
    0.8965    1.2763    0.0125 H   0  0  0  0  0  0  0  0  0  0  0  0
    0.6327   -0.3181    0.7562 H   0  0  0  0  0  0  0  0  0  0  0  0
    0.7686   -0.1778   -1.0053 H   0  0  0  0  0  0  0  0  0  0  0  0
    3.1350    2.0982    0.3277 H   0  0  0  0  0  0  0  0  0  0  0  0
    5.5791    1.7205    0.4919 H   0  0  0  0  0  0  0  0  0  0  0  0
    7.4988    0.2877    0.4908 H   0  0  0  0  0  0  0  0  0  0  0  0
    7.3461   -1.1292   -0.5794 H   0  0  0  0  0  0  0  0  0  0  0  0
    7.1988   -1.3332    1.1679 H   0  0  0  0  0  0  0  0  0  0  0  0
    3.8071   -3.8193   -1.1979 H   0  0  0  0  0  0  0  0  0  0  0  0
    3.6548   -4.0227    0.5657 H   0  0  0  0  0  0  0  0  0  0  0  0
    6.9979   -3.9584   -0.0362 H   0  0  0  0  0  0  0  0  0  0  0  0
    7.0775   -6.8447   -0.3604 H   0  0  0  0  0  0  0  0  0  0  0  0
   11.7450   -6.0378    0.1505 H   0  0  0  0  0  0  0  0  0  0  0  0
   13.5504   -8.2016    0.0551 H   0  0  0  0  0  0  0  0  0  0  0  0
   12.9405   -9.4715   -1.0291 H   0  0  0  0  0  0  0  0  0  0  0  0
   12.7893   -9.6571    0.7351 H   0  0  0  0  0  0  0  0  0  0  0  0
    2.5266   -2.1274   -0.2103 H   0  0  0  0  0  0  0  0  0  0  0  0
  1  2  1  0
  1 24  1  0
  1 25  1  0
  1 26  1  0
  2  3  2  0
  2 23  1  0
  3  4  1  0
  3 27  1  0
  4  5  2  0
  4 28  1  0
  5  6  1  0
  5  7  1  0
  6 29  1  0
  6 30  1  0
  6 31  1  0
  7  8  1  0
  7 23  2  0
  8  9  1  0
  9 10  1  0
  9 32  1  0
  9 33  1  0
 10 11  2  0
 10 12  1  0
 12 13  1  0
 12 34  1  0
 13 14  1  0
 13 35  1  0
 14 15  2  0
 14 16  1  0
 16 17  1  0
 16 22  2  0
 17 18  2  0
 17 36  1  0
 18 19  1  0
 18 20  1  0
 19 37  1  0
 19 38  1  0
 19 39  1  0
 20 21  1  0
 20 22  1  0
 23 40  1  0
M  END

