
     RDKit          3D

 47 48  0  0  0  0  0  0  0  0999 V2000
    0.9048   -0.4152    0.2860 C   0  0  0  0  0  0  0  0  0  0  0  0
    2.3750   -0.7203   -0.0069 C   0  0  0  0  0  0  0  0  0  0  0  0
    2.9675    0.1666   -1.1083 C   0  0  0  0  0  0  0  0  0  0  0  0
    4.4733   -0.0369   -1.3762 C   0  0  1  0  0  0  0  0  0  0  0  0
    4.8249   -1.4267   -1.9532 C   0  0  0  0  0  0  0  0  0  0  0  0
    4.4080   -1.5904   -3.4238 C   0  0  0  0  0  0  0  0  0  0  0  0
    4.9733   -0.4870   -4.3368 C   0  0  2  0  0  0  0  0  0  0  0  0
    6.4061   -0.6839   -4.5195 N   0  0  0  0  0  0  0  0  0  0  0  0
    7.1665   -0.1694   -5.5459 C   0  0  0  0  0  0  0  0  0  0  0  0
    6.5895    0.5582   -6.6064 C   0  0  0  0  0  0  0  0  0  0  0  0
    7.3943    1.0346   -7.6410 C   0  0  0  0  0  0  0  0  0  0  0  0
    6.6168    1.9697   -8.9577 S   0  0  1  0  0  0  0  0  0  0  0  0
    6.5291    3.5390   -8.3179 N   0  0  0  0  0  0  0  0  0  0  0  0
    7.5341    1.9804  -10.1011 O   0  0  0  0  0  0  0  0  0  0  0  0
    5.2231    1.5314   -9.0861 O   0  0  0  0  0  0  0  0  0  0  0  0
    8.7681    0.8125   -7.6834 C   0  0  0  0  0  0  0  0  0  0  0  0
    9.3361    0.0930   -6.6263 C   0  0  0  0  0  0  0  0  0  0  0  0
    8.5771   -0.3978   -5.5621 C   0  0  0  0  0  0  0  0  0  0  0  0
    9.2237   -1.1756   -4.4456 C   0  0  0  0  0  0  0  0  0  0  0  0
    4.6220    0.9060   -3.7642 C   0  0  0  0  0  0  0  0  0  0  0  0
    5.0558    1.0553   -2.2996 C   0  0  0  0  0  0  0  0  0  0  0  0
    0.5070   -1.0651    1.0815 H   0  0  0  0  0  0  0  0  0  0  0  0
    0.2779   -0.5644   -0.6093 H   0  0  0  0  0  0  0  0  0  0  0  0
    0.7686    0.6300    0.6109 H   0  0  0  0  0  0  0  0  0  0  0  0
    2.4735   -1.7844   -0.2840 H   0  0  0  0  0  0  0  0  0  0  0  0
    2.9688   -0.5948    0.9171 H   0  0  0  0  0  0  0  0  0  0  0  0
    2.8125    1.2239   -0.8257 H   0  0  0  0  0  0  0  0  0  0  0  0
    2.3836    0.0238   -2.0352 H   0  0  0  0  0  0  0  0  0  0  0  0
    4.9797    0.0527   -0.3977 H   0  0  0  0  0  0  0  0  0  0  0  0
    4.3707   -2.2288   -1.3496 H   0  0  0  0  0  0  0  0  0  0  0  0
    5.9161   -1.5779   -1.8546 H   0  0  0  0  0  0  0  0  0  0  0  0
    3.3088   -1.5624   -3.5003 H   0  0  0  0  0  0  0  0  0  0  0  0
    4.7194   -2.5768   -3.8058 H   0  0  0  0  0  0  0  0  0  0  0  0
    4.4972   -0.5914   -5.3262 H   0  0  0  0  0  0  0  0  0  0  0  0
    6.9025   -1.1473   -3.7724 H   0  0  0  0  0  0  0  0  0  0  0  0
    5.5181    0.7469   -6.6467 H   0  0  0  0  0  0  0  0  0  0  0  0
    7.2583    4.1267   -8.7230 H   0  0  0  0  0  0  0  0  0  0  0  0
    5.6001    3.9119   -8.5181 H   0  0  0  0  0  0  0  0  0  0  0  0
    9.3648    1.1776   -8.5193 H   0  0  0  0  0  0  0  0  0  0  0  0
   10.4126   -0.1002   -6.6318 H   0  0  0  0  0  0  0  0  0  0  0  0
   10.3078   -1.2678   -4.5995 H   0  0  0  0  0  0  0  0  0  0  0  0
    8.8111   -2.1982   -4.3682 H   0  0  0  0  0  0  0  0  0  0  0  0
    9.0697   -0.6910   -3.4639 H   0  0  0  0  0  0  0  0  0  0  0  0
    3.5322    1.0540   -3.8576 H   0  0  0  0  0  0  0  0  0  0  0  0
    5.0925    1.6897   -4.3793 H   0  0  0  0  0  0  0  0  0  0  0  0
    4.7768    2.0545   -1.9250 H   0  0  0  0  0  0  0  0  0  0  0  0
    6.1584    1.0096   -2.2527 H   0  0  0  0  0  0  0  0  0  0  0  0
  1  2  1  0
  1 22  1  0
  1 23  1  0
  1 24  1  0
  2  3  1  0
  2 25  1  0
  2 26  1  0
  3  4  1  0
  3 27  1  0
  3 28  1  0
  4  5  1  0
  4 21  1  0
  4 29  1  1
  5  6  1  0
  5 30  1  0
  5 31  1  0
  6  7  1  0
  6 32  1  0
  6 33  1  0
  7  8  1  0
  7 20  1  0
  7 34  1  6
  8  9  1  0
  8 35  1  0
  9 10  2  0
  9 18  1  0
 10 11  1  0
 10 36  1  0
 11 12  1  0
 11 16  2  0
 12 13  1  1
 12 14  2  0
 12 15  2  0
 13 37  1  0
 13 38  1  0
 16 17  1  0
 16 39  1  0
 17 18  2  0
 17 40  1  0
 18 19  1  0
 19 41  1  0
 19 42  1  0
 19 43  1  0
 20 21  1  0
 20 44  1  0
 20 45  1  0
 21 46  1  0
 21 47  1  0
M  END

