
     RDKit          3D

 39 40  0  0  0  0  0  0  0  0999 V2000
    1.1839    0.2229    0.0709 C   0  0  0  0  0  0  0  0  0  0  0  0
    1.1456   -1.2604   -0.2042 C   0  0  0  0  0  0  0  0  0  0  0  0
   -0.0583   -1.9267   -0.4574 C   0  0  0  0  0  0  0  0  0  0  0  0
   -0.0751   -3.3017   -0.7167 C   0  0  0  0  0  0  0  0  0  0  0  0
    1.1116   -4.0269   -0.7258 C   0  0  0  0  0  0  0  0  0  0  0  0
    1.0983   -5.7442   -1.0502 Cl  0  0  0  0  0  0  0  0  0  0  0  0
    2.3382   -3.3771   -0.4725 C   0  0  0  0  0  0  0  0  0  0  0  0
    3.4530   -4.1522   -0.4955 O   0  0  0  0  0  0  0  0  0  0  0  0
    4.7300   -3.5999   -0.2827 C   0  0  0  0  0  0  0  0  0  0  0  0
    5.7882   -4.6909   -0.4006 C   0  0  0  0  0  0  0  0  0  0  0  0
    6.9673   -4.4004   -0.1793 O   0  0  0  0  0  0  0  0  0  0  0  0
    5.3479   -5.9071   -0.7590 N   0  0  0  0  0  0  0  0  0  0  0  0
    6.1436   -7.1446   -0.7948 C   0  0  1  0  0  0  0  0  0  0  0  0
    7.2291   -7.0930   -1.9165 C   0  0  0  0  0  0  0  0  0  0  0  0
    7.3186   -7.9545   -2.7551 O   0  0  0  0  0  0  0  0  0  0  0  0
    8.0821   -6.0754   -1.8574 O   0  0  0  0  0  0  0  0  0  0  0  0
    6.8180   -7.4892    0.5602 C   0  0  0  0  0  0  0  0  0  0  0  0
    7.1080   -8.9943    0.4466 C   0  0  0  0  0  0  0  0  0  0  0  0
    5.9633   -9.5740   -0.4303 C   0  0  0  0  0  0  0  0  0  0  0  0
    5.2154   -8.3542   -1.0185 C   0  0  0  0  0  0  0  0  0  0  0  0
    2.3404   -2.0030   -0.2147 C   0  0  0  0  0  0  0  0  0  0  0  0
    0.1726    0.6532    0.1009 H   0  0  0  0  0  0  0  0  0  0  0  0
    1.7540    0.7586   -0.7067 H   0  0  0  0  0  0  0  0  0  0  0  0
    1.6724    0.4398    1.0353 H   0  0  0  0  0  0  0  0  0  0  0  0
   -0.9993   -1.3716   -0.4538 H   0  0  0  0  0  0  0  0  0  0  0  0
   -1.0143   -3.8212   -0.9145 H   0  0  0  0  0  0  0  0  0  0  0  0
    4.8270   -3.1515    0.7225 H   0  0  0  0  0  0  0  0  0  0  0  0
    4.9692   -2.8164   -1.0247 H   0  0  0  0  0  0  0  0  0  0  0  0
    4.3482   -5.9863   -0.9307 H   0  0  0  0  0  0  0  0  0  0  0  0
    7.8353   -5.4254   -1.1447 H   0  0  0  0  0  0  0  0  0  0  0  0
    6.0820   -7.2886    1.3573 H   0  0  0  0  0  0  0  0  0  0  0  0
    7.7071   -6.8797    0.7720 H   0  0  0  0  0  0  0  0  0  0  0  0
    7.1731   -9.4710    1.4363 H   0  0  0  0  0  0  0  0  0  0  0  0
    8.0800   -9.1531   -0.0455 H   0  0  0  0  0  0  0  0  0  0  0  0
    5.2777  -10.2028    0.1582 H   0  0  0  0  0  0  0  0  0  0  0  0
    6.3711  -10.2011   -1.2345 H   0  0  0  0  0  0  0  0  0  0  0  0
    4.2801   -8.1705   -0.4635 H   0  0  0  0  0  0  0  0  0  0  0  0
    4.9686   -8.4788   -2.0813 H   0  0  0  0  0  0  0  0  0  0  0  0
    3.2834   -1.4908   -0.0158 H   0  0  0  0  0  0  0  0  0  0  0  0
  1  2  1  0
  1 22  1  0
  1 23  1  0
  1 24  1  0
  2  3  2  0
  2 21  1  0
  3  4  1  0
  3 25  1  0
  4  5  2  0
  4 26  1  0
  5  6  1  0
  5  7  1  0
  7  8  1  0
  7 21  2  0
  8  9  1  0
  9 10  1  0
  9 27  1  0
  9 28  1  0
 10 11  2  0
 10 12  1  0
 12 13  1  0
 12 29  1  0
 13 14  1  6
 13 17  1  0
 13 20  1  0
 14 15  2  0
 14 16  1  0
 16 30  1  0
 17 18  1  0
 17 31  1  0
 17 32  1  0
 18 19  1  0
 18 33  1  0
 18 34  1  0
 19 20  1  0
 19 35  1  0
 19 36  1  0
 20 37  1  0
 20 38  1  0
 21 39  1  0
M  END

