
     RDKit          3D

 51 54  0  0  0  0  0  0  0  0999 V2000
   -0.2987    0.3702    1.9488 C   0  0  0  0  0  0  0  0  0  0  0  0
    1.0764   -0.1155    1.4646 C   0  0  1  0  0  0  0  0  0  0  0  0
    1.0289   -0.3957    0.0360 N   0  0  0  0  0  0  0  0  0  0  0  0
    2.2307    0.7746    1.9687 C   0  0  0  0  0  0  0  0  0  0  0  0
    2.8113    0.3727    3.2054 C   0  0  0  0  0  0  0  0  0  0  0  0
    3.9002    1.0096    3.7481 C   0  0  0  0  0  0  0  0  0  0  0  0
    4.5621    0.4337    5.2663 Cl  0  0  0  0  0  0  0  0  0  0  0  0
    4.5008    2.1153    3.0823 C   0  0  0  0  0  0  0  0  0  0  0  0
    5.6348    2.8151    3.5681 C   0  0  0  0  0  0  0  0  0  0  0  0
    6.1260    3.8876    2.8575 C   0  0  0  0  0  0  0  0  0  0  0  0
    5.4689    4.2549    1.6587 C   0  0  0  0  0  0  0  0  0  0  0  0
    4.4185    3.6249    1.1786 N   0  0  0  0  0  0  0  0  0  0  0  0
    3.9115    2.5560    1.8484 C   0  0  0  0  0  0  0  0  0  0  0  0
    2.7539    1.8839    1.2946 C   0  0  0  0  0  0  0  0  0  0  0  0
    2.1802    2.3691    0.0979 N   0  0  0  0  0  0  0  0  0  0  0  0
    0.9569    3.1619    0.1016 C   0  0  0  0  0  0  0  0  0  0  0  0
    1.1767    4.5559   -0.4965 C   0  0  0  0  0  0  0  0  0  0  0  0
    1.7905    4.4417   -1.8152 N   0  0  0  0  0  0  0  0  0  0  0  0
    1.1838    5.0247   -2.9038 C   0  0  0  0  0  0  0  0  0  0  0  0
    0.1298    5.6382   -2.7993 O   0  0  0  0  0  0  0  0  0  0  0  0
    1.8908    4.9094   -4.2506 C   0  0  1  0  0  0  0  0  0  0  0  0
    1.1503    5.5067   -5.4709 C   0  0  0  0  0  0  0  0  0  0  0  0
    2.4852    6.1296   -5.9526 C   0  0  0  0  0  0  0  0  0  0  0  0
    3.0736    5.8901   -4.5393 C   0  0  0  0  0  0  0  0  0  0  0  0
    3.0678    3.7390   -1.7962 C   0  0  0  0  0  0  0  0  0  0  0  0
    2.9045    2.3487   -1.1629 C   0  0  0  0  0  0  0  0  0  0  0  0
   -1.0615   -0.3780    1.6859 H   0  0  0  0  0  0  0  0  0  0  0  0
   -0.5827    1.3208    1.4741 H   0  0  0  0  0  0  0  0  0  0  0  0
   -0.3089    0.5214    3.0392 H   0  0  0  0  0  0  0  0  0  0  0  0
    1.2443   -1.0901    1.9556 H   0  0  0  0  0  0  0  0  0  0  0  0
    1.9180   -0.7849   -0.2785 H   0  0  0  0  0  0  0  0  0  0  0  0
    0.8995    0.4684   -0.4872 H   0  0  0  0  0  0  0  0  0  0  0  0
    2.3942   -0.4907    3.7290 H   0  0  0  0  0  0  0  0  0  0  0  0
    6.0979    2.4902    4.5012 H   0  0  0  0  0  0  0  0  0  0  0  0
    6.9959    4.4498    3.2034 H   0  0  0  0  0  0  0  0  0  0  0  0
    5.8358    5.1123    1.0800 H   0  0  0  0  0  0  0  0  0  0  0  0
    0.5957    3.2586    1.1350 H   0  0  0  0  0  0  0  0  0  0  0  0
    0.1572    2.6606   -0.4850 H   0  0  0  0  0  0  0  0  0  0  0  0
    1.8398    5.1400    0.1667 H   0  0  0  0  0  0  0  0  0  0  0  0
    0.2253    5.0896   -0.6148 H   0  0  0  0  0  0  0  0  0  0  0  0
    2.1939    3.8679   -4.4416 H   0  0  0  0  0  0  0  0  0  0  0  0
    0.4207    6.2579   -5.1383 H   0  0  0  0  0  0  0  0  0  0  0  0
    0.6453    4.7967   -6.1435 H   0  0  0  0  0  0  0  0  0  0  0  0
    2.4559    7.1695   -6.3125 H   0  0  0  0  0  0  0  0  0  0  0  0
    2.9859    5.5139   -6.7165 H   0  0  0  0  0  0  0  0  0  0  0  0
    3.0116    6.7888   -3.9060 H   0  0  0  0  0  0  0  0  0  0  0  0
    4.0956    5.4853   -4.4696 H   0  0  0  0  0  0  0  0  0  0  0  0
    3.7910    4.3132   -1.1950 H   0  0  0  0  0  0  0  0  0  0  0  0
    3.4641    3.6348   -2.8132 H   0  0  0  0  0  0  0  0  0  0  0  0
    3.8959    1.9020   -1.0027 H   0  0  0  0  0  0  0  0  0  0  0  0
    2.3672    1.7008   -1.8910 H   0  0  0  0  0  0  0  0  0  0  0  0
  1  2  1  0
  1 27  1  0
  1 28  1  0
  1 29  1  0
  2  3  1  0
  2  4  1  0
  2 30  1  1
  3 31  1  0
  3 32  1  0
  4  5  2  0
  4 14  1  0
  5  6  1  0
  5 33  1  0
  6  7  1  0
  6  8  2  0
  8  9  1  0
  8 13  1  0
  9 10  2  0
  9 34  1  0
 10 11  1  0
 10 35  1  0
 11 12  2  0
 11 36  1  0
 12 13  1  0
 13 14  2  0
 14 15  1  0
 15 16  1  0
 15 26  1  0
 16 17  1  0
 16 37  1  0
 16 38  1  0
 17 18  1  0
 17 39  1  0
 17 40  1  0
 18 19  1  0
 18 25  1  0
 19 20  2  0
 19 21  1  0
 21 22  1  0
 21 24  1  0
 21 41  1  6
 22 23  1  0
 22 42  1  0
 22 43  1  0
 23 24  1  0
 23 44  1  0
 23 45  1  0
 24 46  1  0
 24 47  1  0
 25 26  1  0
 25 48  1  0
 25 49  1  0
 26 50  1  0
 26 51  1  0
M  END

