
     RDKit          3D

 59 58  0  0  0  0  0  0  0  0999 V2000
   35.6466  -20.8413   -4.6844 C   0  0  0  0  0  0  0  0  0  0  0  0
   35.1517  -19.7524   -4.4350 C   0  0  0  0  0  0  0  0  0  0  0  0
   34.6011  -18.5412   -4.1576 C   0  0  0  0  0  0  0  0  0  0  0  0
   34.1008  -17.4408   -3.9058 C   0  0  0  0  0  0  0  0  0  0  0  0
   33.5554  -16.2415   -3.6318 C   0  0  0  0  0  0  0  0  0  0  0  0
   33.0530  -15.1365   -3.3794 C   0  0  0  0  0  0  0  0  0  0  0  0
   32.5095  -13.9413   -3.1070 C   0  0  0  0  0  0  0  0  0  0  0  0
   32.0061  -12.8343   -2.8546 C   0  0  0  0  0  0  0  0  0  0  0  0
   31.4636  -11.6408   -2.5822 C   0  0  0  0  0  0  0  0  0  0  0  0
   30.9601  -10.5330   -2.3292 C   0  0  0  0  0  0  0  0  0  0  0  0
   30.4179   -9.3400   -2.0566 C   0  0  0  0  0  0  0  0  0  0  0  0
   29.9147   -8.2321   -1.8034 C   0  0  0  0  0  0  0  0  0  0  0  0
   29.3737   -7.0380   -1.5299 C   0  0  0  0  0  0  0  0  0  0  0  0
   28.8720   -5.9304   -1.2762 C   0  0  0  0  0  0  0  0  0  0  0  0
   28.3324   -4.7331   -1.0010 C   0  0  0  0  0  0  0  0  0  0  0  0
   27.8338   -3.6274   -0.7471 C   0  0  0  0  0  0  0  0  0  0  0  0
   27.2930   -2.4224   -0.4709 C   0  0  0  0  0  0  0  0  0  0  0  0
   26.8198   -1.3163   -0.2118 C   0  0  0  0  0  0  0  0  0  0  0  0
   26.2333   -0.1475    0.0375 N   0  0  0  0  0  0  0  0  0  0  0  0
   24.7712   -0.0578   -0.1202 C   0  0  0  0  0  0  0  0  0  0  0  0
   26.9469    0.9998    0.4772 C   0  0  0  0  0  0  0  0  0  0  0  0
   26.3579    2.0345    0.6890 O   0  0  0  0  0  0  0  0  0  0  0  0
   28.4622    0.8642    0.5865 C   0  0  1  0  0  0  0  0  0  0  0  0
   29.0897    1.2356   -0.7781 C   0  0  0  0  0  0  0  0  0  0  0  0
   30.5738    0.8945   -0.8947 C   0  0  0  0  0  0  0  0  0  0  0  0
   31.1566    1.1991   -2.2731 C   0  0  0  0  0  0  0  0  0  0  0  0
   32.6248    0.8722   -2.4725 C   0  0  0  0  0  0  0  0  0  0  0  0
   30.4791    1.6722   -3.1579 O   0  0  0  0  0  0  0  0  0  0  0  0
   28.9584    1.7450    1.7352 C   0  0  0  0  0  0  0  0  0  0  0  0
   28.4437    1.2735    3.0846 C   0  0  0  0  0  0  0  0  0  0  0  0
   27.6551    0.3643    3.2203 O   0  0  0  0  0  0  0  0  0  0  0  0
   28.9756    1.9977    4.0730 O   0  0  0  0  0  0  0  0  0  0  0  0
   28.6297    1.7922    5.4911 C   0  0  1  0  0  0  0  0  0  0  0  0
   29.0438    0.3837    5.9277 C   0  0  0  0  0  0  0  0  0  0  0  0
   29.4711    2.8529    6.2019 C   0  0  0  0  0  0  0  0  0  0  0  0
   27.1347    2.0491    5.7025 C   0  0  0  0  0  0  0  0  0  0  0  0
   36.0818  -21.7985   -4.9037 H   0  0  0  0  0  0  0  0  0  0  0  0
   24.4877   -0.3124   -1.1518 H   0  0  0  0  0  0  0  0  0  0  0  0
   24.4809    0.9743    0.1065 H   0  0  0  0  0  0  0  0  0  0  0  0
   24.2756   -0.7484    0.5777 H   0  0  0  0  0  0  0  0  0  0  0  0
   28.7015   -0.1851    0.8145 H   0  0  0  0  0  0  0  0  0  0  0  0
   28.9358    2.3089   -0.9736 H   0  0  0  0  0  0  0  0  0  0  0  0
   28.5548    0.7103   -1.5848 H   0  0  0  0  0  0  0  0  0  0  0  0
   30.7502   -0.1766   -0.6822 H   0  0  0  0  0  0  0  0  0  0  0  0
   31.1825    1.4376   -0.1494 H   0  0  0  0  0  0  0  0  0  0  0  0
   32.8004   -0.2059   -2.3203 H   0  0  0  0  0  0  0  0  0  0  0  0
   33.2457    1.4047   -1.7330 H   0  0  0  0  0  0  0  0  0  0  0  0
   32.9329    1.1547   -3.4875 H   0  0  0  0  0  0  0  0  0  0  0  0
   28.6215    2.7842    1.5915 H   0  0  0  0  0  0  0  0  0  0  0  0
   30.0578    1.7737    1.7782 H   0  0  0  0  0  0  0  0  0  0  0  0
   30.1112    0.2136    5.7163 H   0  0  0  0  0  0  0  0  0  0  0  0
   28.4531   -0.3840    5.4120 H   0  0  0  0  0  0  0  0  0  0  0  0
   28.8914    0.2749    7.0129 H   0  0  0  0  0  0  0  0  0  0  0  0
   30.5424    2.6929    6.0075 H   0  0  0  0  0  0  0  0  0  0  0  0
   29.3029    2.8069    7.2885 H   0  0  0  0  0  0  0  0  0  0  0  0
   29.2035    3.8603    5.8492 H   0  0  0  0  0  0  0  0  0  0  0  0
   26.5234    1.2993    5.1846 H   0  0  0  0  0  0  0  0  0  0  0  0
   26.8603    3.0486    5.3308 H   0  0  0  0  0  0  0  0  0  0  0  0
   26.9033    2.0100    6.7783 H   0  0  0  0  0  0  0  0  0  0  0  0
  1  2  3  0
  1 37  1  0
  2  3  1  0
  3  4  3  0
  4  5  1  0
  5  6  3  0
  6  7  1  0
  7  8  3  0
  8  9  1  0
  9 10  3  0
 10 11  1  0
 11 12  3  0
 12 13  1  0
 13 14  3  0
 14 15  1  0
 15 16  3  0
 16 17  1  0
 17 18  3  0
 18 19  1  0
 19 20  1  0
 19 21  1  0
 20 38  1  0
 20 39  1  0
 20 40  1  0
 21 22  2  0
 21 23  1  0
 23 24  1  0
 23 29  1  0
 23 41  1  1
 24 25  1  0
 24 42  1  0
 24 43  1  0
 25 26  1  0
 25 44  1  0
 25 45  1  0
 26 27  1  0
 26 28  2  0
 27 46  1  0
 27 47  1  0
 27 48  1  0
 29 30  1  0
 29 49  1  0
 29 50  1  0
 30 31  2  0
 30 32  1  0
 33 32  1  6
 33 34  1  0
 33 35  1  0
 33 36  1  0
 34 51  1  0
 34 52  1  0
 34 53  1  0
 35 54  1  0
 35 55  1  0
 35 56  1  0
 36 57  1  0
 36 58  1  0
 36 59  1  0
M  END

