
     RDKit          3D

 46 46  0  0  0  0  0  0  0  0999 V2000
    3.2616    0.3341   -1.5937 C   0  0  0  0  0  0  0  0  0  0  0  0
    2.5843   -0.3897   -0.4290 C   0  0  0  0  0  0  0  0  0  0  0  0
    3.3796   -1.4853    0.1408 N   0  0  0  0  0  0  0  0  0  0  0  0
    2.9057   -2.8513   -0.0955 C   0  0  0  0  0  0  0  0  0  0  0  0
    3.2478   -3.4021   -1.4786 C   0  0  0  0  0  0  0  0  0  0  0  0
    4.4155   -1.1094    0.9542 C   0  0  0  0  0  0  0  0  0  0  0  0
    4.5994    0.0723    1.2392 O   0  0  0  0  0  0  0  0  0  0  0  0
    5.3810   -2.1415    1.5196 C   0  0  0  0  0  0  0  0  0  0  0  0
    6.0539   -1.7695    2.6882 C   0  0  0  0  0  0  0  0  0  0  0  0
    7.0143   -2.6384    3.2433 C   0  0  0  0  0  0  0  0  0  0  0  0
    7.6808   -2.3660    4.4096 N   0  0  0  0  0  0  0  0  0  0  0  0
    7.6710   -1.0779    5.0682 C   0  0  0  0  0  0  0  0  0  0  0  0
    8.3585   -1.1861    6.4191 C   0  0  0  0  0  0  0  0  0  0  0  0
    9.6640   -1.6779    6.2144 O   0  0  0  0  0  0  0  0  0  0  0  0
   10.4128   -1.8623    7.3932 C   0  0  0  0  0  0  0  0  0  0  0  0
   11.7912   -2.3725    7.0090 C   0  0  0  0  0  0  0  0  0  0  0  0
   12.5297   -2.5470    8.1883 O   0  0  0  0  0  0  0  0  0  0  0  0
   13.8362   -3.0125    7.9800 C   0  0  0  0  0  0  0  0  0  0  0  0
    7.2568   -3.8412    2.5387 C   0  0  0  0  0  0  0  0  0  0  0  0
    6.5441   -4.1010    1.3753 C   0  0  0  0  0  0  0  0  0  0  0  0
    5.6157   -3.2847    0.8624 N   0  0  0  0  0  0  0  0  0  0  0  0
    2.6057    1.1341   -1.9748 H   0  0  0  0  0  0  0  0  0  0  0  0
    3.4833   -0.3527   -2.4255 H   0  0  0  0  0  0  0  0  0  0  0  0
    4.2012    0.7960   -1.2588 H   0  0  0  0  0  0  0  0  0  0  0  0
    1.6241   -0.8195   -0.7534 H   0  0  0  0  0  0  0  0  0  0  0  0
    2.3745    0.3370    0.3716 H   0  0  0  0  0  0  0  0  0  0  0  0
    1.8096   -2.8447    0.0464 H   0  0  0  0  0  0  0  0  0  0  0  0
    3.3262   -3.5102    0.6701 H   0  0  0  0  0  0  0  0  0  0  0  0
    2.8245   -2.7818   -2.2850 H   0  0  0  0  0  0  0  0  0  0  0  0
    2.8409   -4.4205   -1.5919 H   0  0  0  0  0  0  0  0  0  0  0  0
    4.3396   -3.4493   -1.5986 H   0  0  0  0  0  0  0  0  0  0  0  0
    5.8290   -0.7954    3.1188 H   0  0  0  0  0  0  0  0  0  0  0  0
    8.5193   -2.9086    4.5893 H   0  0  0  0  0  0  0  0  0  0  0  0
    6.6342   -0.7420    5.2330 H   0  0  0  0  0  0  0  0  0  0  0  0
    8.1727   -0.2976    4.4610 H   0  0  0  0  0  0  0  0  0  0  0  0
    7.7893   -1.8705    7.0810 H   0  0  0  0  0  0  0  0  0  0  0  0
    8.3818   -0.1905    6.9054 H   0  0  0  0  0  0  0  0  0  0  0  0
    9.9231   -2.5897    8.0717 H   0  0  0  0  0  0  0  0  0  0  0  0
   10.5163   -0.9113    7.9528 H   0  0  0  0  0  0  0  0  0  0  0  0
   12.2766   -1.6440    6.3265 H   0  0  0  0  0  0  0  0  0  0  0  0
   11.6914   -3.3252    6.4470 H   0  0  0  0  0  0  0  0  0  0  0  0
   14.3193   -3.1109    8.9630 H   0  0  0  0  0  0  0  0  0  0  0  0
   14.4334   -2.3116    7.3617 H   0  0  0  0  0  0  0  0  0  0  0  0
   13.8498   -4.0023    7.4796 H   0  0  0  0  0  0  0  0  0  0  0  0
    7.9969   -4.5583    2.9038 H   0  0  0  0  0  0  0  0  0  0  0  0
    6.7360   -5.0277    0.8213 H   0  0  0  0  0  0  0  0  0  0  0  0
  1  2  1  0
  1 22  1  0
  1 23  1  0
  1 24  1  0
  2  3  1  0
  2 25  1  0
  2 26  1  0
  3  4  1  0
  3  6  1  0
  4  5  1  0
  4 27  1  0
  4 28  1  0
  5 29  1  0
  5 30  1  0
  5 31  1  0
  6  7  2  0
  6  8  1  0
  8  9  2  0
  8 21  1  0
  9 10  1  0
  9 32  1  0
 10 11  1  0
 10 19  2  0
 11 12  1  0
 11 33  1  0
 12 13  1  0
 12 34  1  0
 12 35  1  0
 13 14  1  0
 13 36  1  0
 13 37  1  0
 14 15  1  0
 15 16  1  0
 15 38  1  0
 15 39  1  0
 16 17  1  0
 16 40  1  0
 16 41  1  0
 17 18  1  0
 18 42  1  0
 18 43  1  0
 18 44  1  0
 19 20  1  0
 19 45  1  0
 20 21  2  0
 20 46  1  0
M  END

