
     RDKit          3D

 35 35  0  0  0  0  0  0  0  0999 V2000
    0.8602    1.0325    1.1608 C   0  0  0  0  0  0  0  0  0  0  0  0
    2.3508    1.2920    1.2702 C   0  0  0  0  0  0  0  0  0  0  0  0
    3.0192    0.0427    1.3416 O   0  0  0  0  0  0  0  0  0  0  0  0
    4.3793    0.0044    1.4658 C   0  0  0  0  0  0  0  0  0  0  0  0
    5.1784    1.1539    1.4933 C   0  0  0  0  0  0  0  0  0  0  0  0
    6.5692    1.0484    1.6148 C   0  0  0  0  0  0  0  0  0  0  0  0
    7.1953   -0.1958    1.7101 C   0  0  0  0  0  0  0  0  0  0  0  0
    8.6928   -0.3302    1.8460 C   0  0  0  0  0  0  0  0  0  0  0  0
    6.3719   -1.3357    1.6806 C   0  0  0  0  0  0  0  0  0  0  0  0
    4.9794   -1.2774    1.5643 C   0  0  0  0  0  0  0  0  0  0  0  0
    4.1728   -2.5726    1.5572 C   0  0  1  0  0  0  0  0  0  0  0  0
    3.2308   -2.6959    2.7684 C   0  0  0  0  0  0  0  0  0  0  0  0
    3.4088   -2.8135    0.2371 C   0  0  0  0  0  0  0  0  0  0  0  0
    4.2969   -2.8405   -1.0223 C   0  0  0  0  0  0  0  0  0  0  0  0
    5.3069   -3.9035   -1.0079 C   0  0  0  0  0  0  0  0  0  0  0  0
    6.0999   -4.7482   -0.9736 N   0  0  0  0  0  0  0  0  0  0  0  0
    0.3140    1.9867    1.1023 H   0  0  0  0  0  0  0  0  0  0  0  0
    0.4927    0.4767    2.0370 H   0  0  0  0  0  0  0  0  0  0  0  0
    0.6281    0.4465    0.2581 H   0  0  0  0  0  0  0  0  0  0  0  0
    2.5772    1.8923    2.1714 H   0  0  0  0  0  0  0  0  0  0  0  0
    2.7118    1.8648    0.3949 H   0  0  0  0  0  0  0  0  0  0  0  0
    4.7292    2.1440    1.4195 H   0  0  0  0  0  0  0  0  0  0  0  0
    7.1695    1.9625    1.6329 H   0  0  0  0  0  0  0  0  0  0  0  0
    9.1933    0.6471    1.7762 H   0  0  0  0  0  0  0  0  0  0  0  0
    9.1127   -0.9806    1.0608 H   0  0  0  0  0  0  0  0  0  0  0  0
    8.9712   -0.7789    2.8149 H   0  0  0  0  0  0  0  0  0  0  0  0
    6.8388   -2.3235    1.7492 H   0  0  0  0  0  0  0  0  0  0  0  0
    4.9123   -3.3868    1.6452 H   0  0  0  0  0  0  0  0  0  0  0  0
    2.4462   -1.9266    2.7461 H   0  0  0  0  0  0  0  0  0  0  0  0
    3.7906   -2.5853    3.7101 H   0  0  0  0  0  0  0  0  0  0  0  0
    2.7447   -3.6853    2.7800 H   0  0  0  0  0  0  0  0  0  0  0  0
    2.6527   -2.0274    0.0981 H   0  0  0  0  0  0  0  0  0  0  0  0
    2.8691   -3.7723    0.3142 H   0  0  0  0  0  0  0  0  0  0  0  0
    4.8206   -1.8778   -1.1438 H   0  0  0  0  0  0  0  0  0  0  0  0
    3.6732   -2.9781   -1.9212 H   0  0  0  0  0  0  0  0  0  0  0  0
  1  2  1  0
  1 17  1  0
  1 18  1  0
  1 19  1  0
  2  3  1  0
  2 20  1  0
  2 21  1  0
  3  4  1  0
  4  5  2  0
  4 10  1  0
  5  6  1  0
  5 22  1  0
  6  7  2  0
  6 23  1  0
  7  8  1  0
  7  9  1  0
  8 24  1  0
  8 25  1  0
  8 26  1  0
  9 10  2  0
  9 27  1  0
 10 11  1  0
 11 12  1  0
 11 13  1  0
 11 28  1  1
 12 29  1  0
 12 30  1  0
 12 31  1  0
 13 14  1  0
 13 32  1  0
 13 33  1  0
 14 15  1  0
 14 34  1  0
 14 35  1  0
 15 16  3  0
M  END

