
     RDKit          3D

 33 36  0  0  0  0  0  0  0  0999 V2000
    1.2295   -0.8692   -0.1075 O   0  0  0  0  0  0  0  0  0  0  0  0
    2.3814   -0.5466   -0.1457 C   0  0  0  0  0  0  0  0  0  0  0  0
    3.7036   -1.1582   -0.1933 C   0  0  0  0  0  0  0  0  0  0  0  0
    4.2464   -2.7874   -0.2177 Cl  0  0  0  0  0  0  0  0  0  0  0  0
    4.3942    0.0412   -0.2134 C   0  0  0  0  0  0  0  0  0  0  0  0
    5.7109    0.2859   -0.2600 N   0  0  0  0  0  0  0  0  0  0  0  0
    6.4554    1.4702   -0.2815 C   0  0  0  0  0  0  0  0  0  0  0  0
    5.8618    2.7447   -0.2524 C   0  0  0  0  0  0  0  0  0  0  0  0
    6.6390    3.8985   -0.2753 C   0  0  0  0  0  0  0  0  0  0  0  0
    8.0346    3.8177   -0.3278 C   0  0  0  0  0  0  0  0  0  0  0  0
    8.6351    2.5658   -0.3570 C   0  0  0  0  0  0  0  0  0  0  0  0
    7.8835    1.3736   -0.3356 C   0  0  0  0  0  0  0  0  0  0  0  0
    8.5820    0.0828   -0.3691 C   0  0  0  0  0  0  0  0  0  0  0  0
    7.9944   -1.0828   -0.3536 N   0  0  0  0  0  0  0  0  0  0  0  0
    8.8795   -2.1377   -0.3932 C   0  0  0  0  0  0  0  0  0  0  0  0
    8.5353   -3.5006   -0.3883 C   0  0  0  0  0  0  0  0  0  0  0  0
    9.5525   -4.4482   -0.4324 C   0  0  0  0  0  0  0  0  0  0  0  0
   10.9050   -4.0574   -0.4810 C   0  0  0  0  0  0  0  0  0  0  0  0
   11.2662   -2.7104   -0.4867 C   0  0  0  0  0  0  0  0  0  0  0  0
   10.2441   -1.7555   -0.4425 C   0  0  0  0  0  0  0  0  0  0  0  0
   10.3589   -0.0114   -0.4367 S   0  0  0  0  0  0  0  0  0  0  0  0
    3.1112    0.8505   -0.1660 C   0  0  1  0  0  0  0  0  0  0  0  0
    2.7547    1.8314   -1.6296 Cl  0  0  0  0  0  0  0  0  0  0  0  0
    2.8562    1.8200    1.3263 Cl  0  0  0  0  0  0  0  0  0  0  0  0
    6.3176   -0.5590   -0.2867 H   0  0  0  0  0  0  0  0  0  0  0  0
    4.7811    2.8405   -0.2112 H   0  0  0  0  0  0  0  0  0  0  0  0
    6.1433    4.8718   -0.2515 H   0  0  0  0  0  0  0  0  0  0  0  0
    8.6466    4.7215   -0.3457 H   0  0  0  0  0  0  0  0  0  0  0  0
    9.7250    2.5026   -0.3981 H   0  0  0  0  0  0  0  0  0  0  0  0
    7.4823   -3.7853   -0.3503 H   0  0  0  0  0  0  0  0  0  0  0  0
    9.3006   -5.5112   -0.4292 H   0  0  0  0  0  0  0  0  0  0  0  0
   11.6859   -4.8208   -0.5150 H   0  0  0  0  0  0  0  0  0  0  0  0
   12.3161   -2.4131   -0.5245 H   0  0  0  0  0  0  0  0  0  0  0  0
  1  2  2  0
  2  3  1  0
  2 22  1  0
  3  4  1  0
  3  5  2  0
  5  6  1  0
  5 22  1  0
  6  7  1  0
  6 25  1  0
  7  8  2  0
  7 12  1  0
  8  9  1  0
  8 26  1  0
  9 10  2  0
  9 27  1  0
 10 11  1  0
 10 28  1  0
 11 12  2  0
 11 29  1  0
 12 13  1  0
 13 14  2  0
 13 21  1  0
 14 15  1  0
 15 16  2  0
 15 20  1  0
 16 17  1  0
 16 30  1  0
 17 18  2  0
 17 31  1  0
 18 19  1  0
 18 32  1  0
 19 20  2  0
 19 33  1  0
 20 21  1  0
 22 23  1  6
 22 24  1  0
M  END

