
     RDKit          3D

 93105  0  0  0  0  0  0  0  0999 V2000
    1.0758   -0.1889   -0.4844 N   0  0  0  0  0  0  0  0  0  0  0  0
    2.2347   -0.1346   -0.4865 C   0  0  0  0  0  0  0  0  0  0  0  0
    3.6691   -0.0666   -0.4886 C   0  0  0  0  0  0  0  0  0  0  0  0
    4.2973    1.1890   -0.2861 C   0  0  0  0  0  0  0  0  0  0  0  0
    3.5090    2.3401   -0.0768 N   0  0  0  0  0  0  0  0  0  0  0  0
    2.6760    2.5778    1.0314 C   0  0  0  0  0  0  0  0  0  0  0  0
    2.4467    1.7844    2.1599 C   0  0  0  0  0  0  0  0  0  0  0  0
    1.5803    2.2771    3.1376 C   0  0  0  0  0  0  0  0  0  0  0  0
    0.9574    3.5303    2.9982 C   0  0  0  0  0  0  0  0  0  0  0  0
    1.1924    4.3174    1.8715 C   0  0  0  0  0  0  0  0  0  0  0  0
    2.0578    3.8442    0.8754 C   0  0  0  0  0  0  0  0  0  0  0  0
    2.5198    4.3892   -0.3876 C   0  0  0  0  0  0  0  0  0  0  0  0
    2.2426    5.5715   -1.0877 C   0  0  0  0  0  0  0  0  0  0  0  0
    2.8459    5.7843   -2.3268 C   0  0  0  0  0  0  0  0  0  0  0  0
    3.7153    4.8237   -2.8739 C   0  0  0  0  0  0  0  0  0  0  0  0
    4.0063    3.6380   -2.1967 C   0  0  0  0  0  0  0  0  0  0  0  0
    3.4100    3.4379   -0.9487 C   0  0  0  0  0  0  0  0  0  0  0  0
    5.7112    1.2455   -0.3026 C   0  0  0  0  0  0  0  0  0  0  0  0
    6.4238    2.4589   -0.1626 N   0  0  0  0  0  0  0  0  0  0  0  0
    6.4893    3.2733    0.9796 C   0  0  0  0  0  0  0  0  0  0  0  0
    5.8566    3.1264    2.2175 C   0  0  0  0  0  0  0  0  0  0  0  0
    6.1201    4.0810    3.2013 C   0  0  0  0  0  0  0  0  0  0  0  0
    6.9988    5.1537    2.9656 C   0  0  0  0  0  0  0  0  0  0  0  0
    7.6438    5.2837    1.7364 C   0  0  0  0  0  0  0  0  0  0  0  0
    7.3970    4.3366    0.7327 C   0  0  0  0  0  0  0  0  0  0  0  0
    7.9172    4.1471   -0.6081 C   0  0  0  0  0  0  0  0  0  0  0  0
    8.8305    4.8569   -1.4000 C   0  0  0  0  0  0  0  0  0  0  0  0
    9.1277    4.3906   -2.6803 C   0  0  0  0  0  0  0  0  0  0  0  0
    8.5181    3.2239   -3.1757 C   0  0  0  0  0  0  0  0  0  0  0  0
    7.6024    2.5008   -2.4082 C   0  0  0  0  0  0  0  0  0  0  0  0
    7.3103    2.9721   -1.1228 C   0  0  0  0  0  0  0  0  0  0  0  0
    6.4367    0.0643   -0.4926 C   0  0  0  0  0  0  0  0  0  0  0  0
    5.8253   -1.1800   -0.6813 C   0  0  0  0  0  0  0  0  0  0  0  0
    6.6488   -2.3205   -0.8262 N   0  0  0  0  0  0  0  0  0  0  0  0
    7.5838   -2.7494    0.1292 C   0  0  0  0  0  0  0  0  0  0  0  0
    7.8339   -2.2566    1.4154 C   0  0  0  0  0  0  0  0  0  0  0  0
    8.8171   -2.8915    2.1775 C   0  0  0  0  0  0  0  0  0  0  0  0
    9.5338   -3.9930    1.6760 C   0  0  0  0  0  0  0  0  0  0  0  0
    9.2784   -4.4811    0.3948 C   0  0  0  0  0  0  0  0  0  0  0  0
    8.2988   -3.8590   -0.3918 C   0  0  0  0  0  0  0  0  0  0  0  0
    7.7950   -4.0927   -1.7318 C   0  0  0  0  0  0  0  0  0  0  0  0
    8.1282   -5.0080   -2.7401 C   0  0  0  0  0  0  0  0  0  0  0  0
    7.4698   -4.9357   -3.9669 C   0  0  0  0  0  0  0  0  0  0  0  0
    6.4913   -3.9516   -4.1957 C   0  0  0  0  0  0  0  0  0  0  0  0
    6.1404   -3.0306   -3.2071 C   0  0  0  0  0  0  0  0  0  0  0  0
    6.7884   -3.1207   -1.9718 C   0  0  0  0  0  0  0  0  0  0  0  0
    4.4123   -1.2573   -0.6931 C   0  0  0  0  0  0  0  0  0  0  0  0
    3.7357   -2.4778   -0.9002 N   0  0  0  0  0  0  0  0  0  0  0  0
    2.9269   -2.7941   -2.0067 C   0  0  0  0  0  0  0  0  0  0  0  0
    2.6172   -2.0249   -3.1328 C   0  0  0  0  0  0  0  0  0  0  0  0
    1.8003   -2.5984   -4.1090 C   0  0  0  0  0  0  0  0  0  0  0  0
    1.3038   -3.9069   -3.9705 C   0  0  0  0  0  0  0  0  0  0  0  0
    1.6185   -4.6693   -2.8462 C   0  0  0  0  0  0  0  0  0  0  0  0
    2.4364   -4.1153   -1.8516 C   0  0  0  0  0  0  0  0  0  0  0  0
    2.9529   -4.6144   -0.5908 C   0  0  0  0  0  0  0  0  0  0  0  0
    2.7949   -5.8193    0.1080 C   0  0  0  0  0  0  0  0  0  0  0  0
    3.4192   -5.9736    1.3453 C   0  0  0  0  0  0  0  0  0  0  0  0
    4.1912   -4.9330    1.8922 C   0  0  0  0  0  0  0  0  0  0  0  0
    4.3628   -3.7235    1.2163 C   0  0  0  0  0  0  0  0  0  0  0  0
    3.7471   -3.5813   -0.0302 C   0  0  0  0  0  0  0  0  0  0  0  0
    2.9160    0.8059    2.2776 H   0  0  0  0  0  0  0  0  0  0  0  0
    1.3799    1.6710    4.0245 H   0  0  0  0  0  0  0  0  0  0  0  0
    0.2823    3.8866    3.7796 H   0  0  0  0  0  0  0  0  0  0  0  0
    0.7094    5.2919    1.7653 H   0  0  0  0  0  0  0  0  0  0  0  0
    1.5576    6.3131   -0.6693 H   0  0  0  0  0  0  0  0  0  0  0  0
    2.6386    6.7021   -2.8819 H   0  0  0  0  0  0  0  0  0  0  0  0
    4.1746    5.0048   -3.8487 H   0  0  0  0  0  0  0  0  0  0  0  0
    4.6784    2.9000   -2.6351 H   0  0  0  0  0  0  0  0  0  0  0  0
    5.1755    2.3003    2.4190 H   0  0  0  0  0  0  0  0  0  0  0  0
    5.6289    3.9893    4.1731 H   0  0  0  0  0  0  0  0  0  0  0  0
    7.1810    5.8856    3.7559 H   0  0  0  0  0  0  0  0  0  0  0  0
    8.3384    6.1083    1.5585 H   0  0  0  0  0  0  0  0  0  0  0  0
    9.3035    5.7647   -1.0174 H   0  0  0  0  0  0  0  0  0  0  0  0
    9.8400    4.9339   -3.3055 H   0  0  0  0  0  0  0  0  0  0  0  0
    8.7636    2.8726   -4.1810 H   0  0  0  0  0  0  0  0  0  0  0  0
    7.1369    1.5971   -2.8058 H   0  0  0  0  0  0  0  0  0  0  0  0
    7.5258    0.1158   -0.4943 H   0  0  0  0  0  0  0  0  0  0  0  0
    7.2855   -1.4029    1.8178 H   0  0  0  0  0  0  0  0  0  0  0  0
    9.0313   -2.5218    3.1833 H   0  0  0  0  0  0  0  0  0  0  0  0
   10.2966   -4.4679    2.2971 H   0  0  0  0  0  0  0  0  0  0  0  0
    9.8348   -5.3380    0.0072 H   0  0  0  0  0  0  0  0  0  0  0  0
    8.8995   -5.7627   -2.5676 H   0  0  0  0  0  0  0  0  0  0  0  0
    7.7190   -5.6436   -4.7608 H   0  0  0  0  0  0  0  0  0  0  0  0
    5.9904   -3.9038   -5.1657 H   0  0  0  0  0  0  0  0  0  0  0  0
    5.3822   -2.2732   -3.4030 H   0  0  0  0  0  0  0  0  0  0  0  0
    2.9879   -1.0048   -3.2499 H   0  0  0  0  0  0  0  0  0  0  0  0
    1.5384   -2.0132   -4.9938 H   0  0  0  0  0  0  0  0  0  0  0  0
    0.6644   -4.3263   -4.7506 H   0  0  0  0  0  0  0  0  0  0  0  0
    1.2338   -5.6866   -2.7406 H   0  0  0  0  0  0  0  0  0  0  0  0
    2.1850   -6.6239   -0.3100 H   0  0  0  0  0  0  0  0  0  0  0  0
    3.3042   -6.9081    1.8995 H   0  0  0  0  0  0  0  0  0  0  0  0
    4.6683   -5.0695    2.8658 H   0  0  0  0  0  0  0  0  0  0  0  0
    4.9600   -2.9235    1.6544 H   0  0  0  0  0  0  0  0  0  0  0  0
  1  2  3  0
  2  3  1  0
  3  4  2  0
  3 47  1  0
  4  5  1  0
  4 18  1  0
  5  6  1  0
  5 17  1  0
  6  7  2  0
  6 11  1  0
  7  8  1  0
  7 61  1  0
  8  9  2  0
  8 62  1  0
  9 10  1  0
  9 63  1  0
 10 11  2  0
 10 64  1  0
 11 12  1  0
 12 13  1  0
 12 17  2  0
 13 14  2  0
 13 65  1  0
 14 15  1  0
 14 66  1  0
 15 16  2  0
 15 67  1  0
 16 17  1  0
 16 68  1  0
 18 19  1  0
 18 32  2  0
 19 20  1  0
 19 31  1  0
 20 21  2  0
 20 25  1  0
 21 22  1  0
 21 69  1  0
 22 23  2  0
 22 70  1  0
 23 24  1  0
 23 71  1  0
 24 25  2  0
 24 72  1  0
 25 26  1  0
 26 27  1  0
 26 31  2  0
 27 28  2  0
 27 73  1  0
 28 29  1  0
 28 74  1  0
 29 30  2  0
 29 75  1  0
 30 31  1  0
 30 76  1  0
 32 33  1  0
 32 77  1  0
 33 34  1  0
 33 47  2  0
 34 35  1  0
 34 46  1  0
 35 36  2  0
 35 40  1  0
 36 37  1  0
 36 78  1  0
 37 38  2  0
 37 79  1  0
 38 39  1  0
 38 80  1  0
 39 40  2  0
 39 81  1  0
 40 41  1  0
 41 42  1  0
 41 46  2  0
 42 43  2  0
 42 82  1  0
 43 44  1  0
 43 83  1  0
 44 45  2  0
 44 84  1  0
 45 46  1  0
 45 85  1  0
 47 48  1  0
 48 49  1  0
 48 60  1  0
 49 50  2  0
 49 54  1  0
 50 51  1  0
 50 86  1  0
 51 52  2  0
 51 87  1  0
 52 53  1  0
 52 88  1  0
 53 54  2  0
 53 89  1  0
 54 55  1  0
 55 56  1  0
 55 60  2  0
 56 57  2  0
 56 90  1  0
 57 58  1  0
 57 91  1  0
 58 59  2  0
 58 92  1  0
 59 60  1  0
 59 93  1  0
M  END

