
     RDKit          3D

 46 47  0  0  0  0  0  0  0  0999 V2000
    5.6614    0.0300   -0.6446 C   0  0  0  0  0  0  0  0  0  0  0  0
    4.2151    0.3887   -1.0191 C   0  0  0  0  0  0  0  0  0  0  0  0
    3.3302   -0.7950   -1.2963 C   0  0  0  0  0  0  0  0  0  0  0  0
    2.8070   -1.2156   -2.4938 C   0  0  0  0  0  0  0  0  0  0  0  0
    2.0144   -2.4017   -2.3927 C   0  0  0  0  0  0  0  0  0  0  0  0
    1.9256   -2.9022   -1.1163 C   0  0  0  0  0  0  0  0  0  0  0  0
    1.2129   -4.1368   -0.6470 C   0  0  0  0  0  0  0  0  0  0  0  0
    2.1501   -5.3364   -0.3251 C   0  0  1  0  0  0  0  0  0  0  0  0
    2.9609   -5.1545    0.8752 N   0  0  0  0  0  0  0  0  0  0  0  0
    1.3800   -6.7017   -0.3307 C   0  0  1  0  0  0  0  0  0  0  0  0
    0.6739   -6.8026   -1.5873 O   0  0  0  0  0  0  0  0  0  0  0  0
    1.3994   -6.9247   -2.7859 C   0  0  0  0  0  0  0  0  0  0  0  0
    2.3338   -7.9122   -0.1662 C   0  0  0  0  0  0  0  0  0  0  0  0
    2.7247   -8.2676    1.2779 C   0  0  0  0  0  0  0  0  0  0  0  0
    1.5154   -8.4224    2.2186 C   0  0  2  0  0  0  0  0  0  0  0  0
    0.7103   -9.7044    1.9589 C   0  0  0  0  0  0  0  0  0  0  0  0
    0.6492   -7.1504    2.1385 C   0  0  0  0  0  0  0  0  0  0  0  0
    0.2339   -6.7979    0.7028 C   0  0  0  0  0  0  0  0  0  0  0  0
    2.8353   -1.8836   -0.0184 S   0  0  0  0  0  0  0  0  0  0  0  0
    6.2564    0.9394   -0.4629 H   0  0  0  0  0  0  0  0  0  0  0  0
    6.1478   -0.5432   -1.4496 H   0  0  0  0  0  0  0  0  0  0  0  0
    5.6973   -0.5838    0.2696 H   0  0  0  0  0  0  0  0  0  0  0  0
    4.2132    1.0214   -1.9222 H   0  0  0  0  0  0  0  0  0  0  0  0
    3.7743    1.0049   -0.2151 H   0  0  0  0  0  0  0  0  0  0  0  0
    2.9785   -0.6794   -3.4297 H   0  0  0  0  0  0  0  0  0  0  0  0
    1.5106   -2.8691   -3.2414 H   0  0  0  0  0  0  0  0  0  0  0  0
    0.5059   -4.4412   -1.4322 H   0  0  0  0  0  0  0  0  0  0  0  0
    0.6084   -3.9082    0.2483 H   0  0  0  0  0  0  0  0  0  0  0  0
    2.8697   -5.4078   -1.1574 H   0  0  0  0  0  0  0  0  0  0  0  0
    2.3870   -4.8613    1.6661 H   0  0  0  0  0  0  0  0  0  0  0  0
    3.6484   -4.4157    0.7312 H   0  0  0  0  0  0  0  0  0  0  0  0
    2.0185   -6.0364   -3.0178 H   0  0  0  0  0  0  0  0  0  0  0  0
    0.6574   -7.0353   -3.5913 H   0  0  0  0  0  0  0  0  0  0  0  0
    2.0562   -7.8133   -2.8056 H   0  0  0  0  0  0  0  0  0  0  0  0
    3.2529   -7.7494   -0.7528 H   0  0  0  0  0  0  0  0  0  0  0  0
    1.8158   -8.7710   -0.6269 H   0  0  0  0  0  0  0  0  0  0  0  0
    3.3791   -7.4741    1.6649 H   0  0  0  0  0  0  0  0  0  0  0  0
    3.3136   -9.2017    1.2675 H   0  0  0  0  0  0  0  0  0  0  0  0
    1.9051   -8.4934    3.2499 H   0  0  0  0  0  0  0  0  0  0  0  0
    0.2760   -9.7355    0.9469 H   0  0  0  0  0  0  0  0  0  0  0  0
   -0.1223   -9.8013    2.6752 H   0  0  0  0  0  0  0  0  0  0  0  0
    1.3486  -10.5965    2.0681 H   0  0  0  0  0  0  0  0  0  0  0  0
    1.2068   -6.3167    2.5958 H   0  0  0  0  0  0  0  0  0  0  0  0
   -0.2611   -7.2732    2.7506 H   0  0  0  0  0  0  0  0  0  0  0  0
   -0.3599   -5.8705    0.6899 H   0  0  0  0  0  0  0  0  0  0  0  0
   -0.4390   -7.5787    0.3148 H   0  0  0  0  0  0  0  0  0  0  0  0
  1  2  1  0
  1 20  1  0
  1 21  1  0
  1 22  1  0
  2  3  1  0
  2 23  1  0
  2 24  1  0
  3  4  2  0
  3 19  1  0
  4  5  1  0
  4 25  1  0
  5  6  2  0
  5 26  1  0
  6  7  1  0
  6 19  1  0
  7  8  1  0
  7 27  1  0
  7 28  1  0
  8  9  1  0
  8 10  1  0
  8 29  1  6
  9 30  1  0
  9 31  1  0
 10 11  1  6
 10 13  1  0
 10 18  1  0
 11 12  1  0
 12 32  1  0
 12 33  1  0
 12 34  1  0
 13 14  1  0
 13 35  1  0
 13 36  1  0
 14 15  1  0
 14 37  1  0
 14 38  1  0
 15 16  1  0
 15 17  1  0
 15 39  1  1
 16 40  1  0
 16 41  1  0
 16 42  1  0
 17 18  1  0
 17 43  1  0
 17 44  1  0
 18 45  1  0
 18 46  1  0
M  END

