
     RDKit          3D

 32 31  0  0  0  0  0  0  0  0999 V2000
    3.6553   -1.6123    1.5638 C   0  0  0  0  0  0  0  0  0  0  0  0
    3.2602   -0.8279    0.3130 C   0  0  0  0  0  0  0  0  0  0  0  0
    3.0216    0.6664    0.5627 C   0  0  0  0  0  0  0  0  0  0  0  0
    4.2269    1.4299    0.9355 N   0  0  0  0  0  0  0  0  0  0  0  0
    5.0756    1.9088   -0.1676 C   0  0  0  0  0  0  0  0  0  0  0  0
    6.5793    1.6210   -0.0497 C   0  0  0  0  0  0  0  0  0  0  0  0
    6.9483    0.1385   -0.0777 C   0  0  0  0  0  0  0  0  0  0  0  0
    4.2432    2.1703    2.4593 P   0  0  1  0  0  0  0  0  0  0  0  0
    4.1824    3.9711    2.2394 C   0  0  0  0  0  0  0  0  0  0  0  0
    3.1980    1.5996    3.3607 O   0  0  0  0  0  0  0  0  0  0  0  0
    5.7734    2.0464    3.0330 O   0  0  0  0  0  0  0  0  0  0  0  0
    6.1585    0.9178    3.8158 C   0  0  0  0  0  0  0  0  0  0  0  0
    3.7960   -2.6816    1.3384 H   0  0  0  0  0  0  0  0  0  0  0  0
    2.8862   -1.5241    2.3477 H   0  0  0  0  0  0  0  0  0  0  0  0
    4.5959   -1.2335    1.9920 H   0  0  0  0  0  0  0  0  0  0  0  0
    2.3257   -1.2441   -0.1048 H   0  0  0  0  0  0  0  0  0  0  0  0
    4.0248   -0.9570   -0.4739 H   0  0  0  0  0  0  0  0  0  0  0  0
    2.2900    0.7775    1.3757 H   0  0  0  0  0  0  0  0  0  0  0  0
    2.5756    1.1236   -0.3407 H   0  0  0  0  0  0  0  0  0  0  0  0
    4.9364    2.9975   -0.3212 H   0  0  0  0  0  0  0  0  0  0  0  0
    4.6992    1.4327   -1.0875 H   0  0  0  0  0  0  0  0  0  0  0  0
    6.9686    2.0866    0.8693 H   0  0  0  0  0  0  0  0  0  0  0  0
    7.0724    2.1393   -0.8917 H   0  0  0  0  0  0  0  0  0  0  0  0
    6.4691   -0.4093    0.7476 H   0  0  0  0  0  0  0  0  0  0  0  0
    8.0371   -0.0019    0.0142 H   0  0  0  0  0  0  0  0  0  0  0  0
    6.6304   -0.3388   -1.0201 H   0  0  0  0  0  0  0  0  0  0  0  0
    3.2329    4.2402    1.7535 H   0  0  0  0  0  0  0  0  0  0  0  0
    5.0234    4.3456    1.6391 H   0  0  0  0  0  0  0  0  0  0  0  0
    4.2209    4.4365    3.2347 H   0  0  0  0  0  0  0  0  0  0  0  0
    6.9265    1.2532    4.5280 H   0  0  0  0  0  0  0  0  0  0  0  0
    6.5861    0.1264    3.1782 H   0  0  0  0  0  0  0  0  0  0  0  0
    5.2957    0.5157    4.3687 H   0  0  0  0  0  0  0  0  0  0  0  0
  1  2  1  0
  1 13  1  0
  1 14  1  0
  1 15  1  0
  2  3  1  0
  2 16  1  0
  2 17  1  0
  3  4  1  0
  3 18  1  0
  3 19  1  0
  4  5  1  0
  4  8  1  0
  5  6  1  0
  5 20  1  0
  5 21  1  0
  6  7  1  0
  6 22  1  0
  6 23  1  0
  7 24  1  0
  7 25  1  0
  7 26  1  0
  8  9  1  0
  8 10  2  0
  8 11  1  1
  9 27  1  0
  9 28  1  0
  9 29  1  0
 11 12  1  0
 12 30  1  0
 12 31  1  0
 12 32  1  0
M  END

