
     RDKit          3D

 45 47  0  0  0  0  0  0  0  0999 V2000
    3.4027   -1.4932   -0.0175 C   0  0  0  0  0  0  0  0  0  0  0  0
    3.0215   -1.7025   -1.4910 C   0  0  1  0  0  0  0  0  0  0  0  0
    1.5162   -1.9832   -1.6821 C   0  0  0  0  0  0  0  0  0  0  0  0
    0.6504   -0.7297   -1.4994 C   0  0  0  0  0  0  0  0  0  0  0  0
    1.1128    0.4123   -2.4145 C   0  0  0  0  0  0  0  0  0  0  0  0
    2.6076    0.7435   -2.2178 C   0  0  2  0  0  0  0  0  0  0  0  0
    3.1365    1.7794   -3.1034 N   0  0  0  0  0  0  0  0  0  0  0  0
    2.5746    3.1273   -3.0396 C   0  0  1  0  0  0  0  0  0  0  0  0
    2.7885    3.7567   -1.6517 C   0  0  0  0  0  0  0  0  0  0  0  0
    3.2045    4.0040   -4.1170 C   0  0  0  0  0  0  0  0  0  0  0  0
    2.4512    5.0759   -4.6761 C   0  0  0  0  0  0  0  0  0  0  0  0
    2.9981    5.9199   -5.6173 C   0  0  0  0  0  0  0  0  0  0  0  0
    4.3378    5.7460   -6.0652 C   0  0  0  0  0  0  0  0  0  0  0  0
    4.9382    6.5940   -7.0374 C   0  0  0  0  0  0  0  0  0  0  0  0
    6.2402    6.3904   -7.4452 C   0  0  0  0  0  0  0  0  0  0  0  0
    7.0017    5.3260   -6.8981 C   0  0  0  0  0  0  0  0  0  0  0  0
    6.4469    4.4859   -5.9550 C   0  0  0  0  0  0  0  0  0  0  0  0
    5.1062    4.6681   -5.5117 C   0  0  0  0  0  0  0  0  0  0  0  0
    4.5085    3.8183   -4.5390 C   0  0  0  0  0  0  0  0  0  0  0  0
    3.4570   -0.5271   -2.3900 C   0  0  0  0  0  0  0  0  0  0  0  0
    3.1365   -2.3761    0.5865 H   0  0  0  0  0  0  0  0  0  0  0  0
    2.8970   -0.6246    0.4335 H   0  0  0  0  0  0  0  0  0  0  0  0
    4.4876   -1.3307    0.0890 H   0  0  0  0  0  0  0  0  0  0  0  0
    3.5714   -2.5964   -1.8359 H   0  0  0  0  0  0  0  0  0  0  0  0
    1.1897   -2.7799   -0.9917 H   0  0  0  0  0  0  0  0  0  0  0  0
    1.3572   -2.3749   -2.7034 H   0  0  0  0  0  0  0  0  0  0  0  0
    0.6905   -0.3940   -0.4476 H   0  0  0  0  0  0  0  0  0  0  0  0
   -0.4077   -0.9701   -1.6981 H   0  0  0  0  0  0  0  0  0  0  0  0
    0.4929    1.3082   -2.2426 H   0  0  0  0  0  0  0  0  0  0  0  0
    0.9582    0.1236   -3.4722 H   0  0  0  0  0  0  0  0  0  0  0  0
    2.7405    1.1010   -1.1822 H   0  0  0  0  0  0  0  0  0  0  0  0
    3.1042    1.4492   -4.0682 H   0  0  0  0  0  0  0  0  0  0  0  0
    1.4785    3.1359   -3.2305 H   0  0  0  0  0  0  0  0  0  0  0  0
    3.8586    3.7472   -1.3920 H   0  0  0  0  0  0  0  0  0  0  0  0
    2.2337    3.2176   -0.8679 H   0  0  0  0  0  0  0  0  0  0  0  0
    2.4388    4.7999   -1.6473 H   0  0  0  0  0  0  0  0  0  0  0  0
    1.4165    5.2232   -4.3519 H   0  0  0  0  0  0  0  0  0  0  0  0
    2.4024    6.7348   -6.0384 H   0  0  0  0  0  0  0  0  0  0  0  0
    4.3485    7.4138   -7.4574 H   0  0  0  0  0  0  0  0  0  0  0  0
    6.6905    7.0494   -8.1921 H   0  0  0  0  0  0  0  0  0  0  0  0
    8.0327    5.1741   -7.2281 H   0  0  0  0  0  0  0  0  0  0  0  0
    7.0327    3.6650   -5.5321 H   0  0  0  0  0  0  0  0  0  0  0  0
    5.0916    2.9968   -4.1167 H   0  0  0  0  0  0  0  0  0  0  0  0
    4.5151   -0.2726   -2.2154 H   0  0  0  0  0  0  0  0  0  0  0  0
    3.3839   -0.8444   -3.4479 H   0  0  0  0  0  0  0  0  0  0  0  0
  1  2  1  0
  1 21  1  0
  1 22  1  0
  1 23  1  0
  2  3  1  0
  2 20  1  0
  2 24  1  6
  3  4  1  0
  3 25  1  0
  3 26  1  0
  4  5  1  0
  4 27  1  0
  4 28  1  0
  5  6  1  0
  5 29  1  0
  5 30  1  0
  6  7  1  0
  6 20  1  0
  6 31  1  1
  7  8  1  0
  7 32  1  0
  8  9  1  0
  8 10  1  0
  8 33  1  6
  9 34  1  0
  9 35  1  0
  9 36  1  0
 10 11  2  0
 10 19  1  0
 11 12  1  0
 11 37  1  0
 12 13  2  0
 12 38  1  0
 13 14  1  0
 13 18  1  0
 14 15  2  0
 14 39  1  0
 15 16  1  0
 15 40  1  0
 16 17  2  0
 16 41  1  0
 17 18  1  0
 17 42  1  0
 18 19  2  0
 19 43  1  0
 20 44  1  0
 20 45  1  0
M  END

