
     RDKit          3D

 27 27  0  0  0  0  0  0  0  0999 V2000
    1.7221   -0.0529    0.9459 C   0  0  0  0  0  0  0  0  0  0  0  0
    2.9599   -0.0735    0.0965 C   0  0  0  0  0  0  0  0  0  0  0  0
    3.5070   -1.3165   -0.2054 N   0  0  0  0  0  0  0  0  0  0  0  0
    3.4187    1.0392   -0.3564 N   0  0  0  0  0  0  0  0  0  0  0  0
    4.5167    0.9275   -1.1879 N   0  0  0  0  0  0  0  0  0  0  0  0
    5.1403    2.0949   -1.6196 C   0  0  0  0  0  0  0  0  0  0  0  0
    4.9625    3.1966   -1.1457 O   0  0  0  0  0  0  0  0  0  0  0  0
    6.0276    1.8574   -2.6665 N   0  0  0  0  0  0  0  0  0  0  0  0
    6.9247    2.9230   -3.0846 C   0  0  1  0  0  0  0  0  0  0  0  0
    8.1926    2.9407   -2.2230 C   0  0  0  0  0  0  0  0  0  0  0  0
    9.2568    2.3208   -2.7347 C   0  0  0  0  0  0  0  0  0  0  0  0
    8.8659    1.6336   -4.3515 S   0  0  2  0  0  0  0  0  0  0  0  0
    8.3882    0.2498   -4.1569 O   0  0  0  0  0  0  0  0  0  0  0  0
    9.9054    1.9227   -5.3409 O   0  0  0  0  0  0  0  0  0  0  0  0
    7.3997    2.7140   -4.5279 C   0  0  0  0  0  0  0  0  0  0  0  0
    1.9157   -0.4955    1.9383 H   0  0  0  0  0  0  0  0  0  0  0  0
    0.9123   -0.6352    0.4738 H   0  0  0  0  0  0  0  0  0  0  0  0
    1.3873    0.9838    1.0710 H   0  0  0  0  0  0  0  0  0  0  0  0
    3.1642   -2.0973    0.3431 H   0  0  0  0  0  0  0  0  0  0  0  0
    4.5197   -1.3291   -0.3079 H   0  0  0  0  0  0  0  0  0  0  0  0
    4.5020    0.1541   -1.8568 H   0  0  0  0  0  0  0  0  0  0  0  0
    6.3929    0.9164   -2.8019 H   0  0  0  0  0  0  0  0  0  0  0  0
    6.3729    3.8659   -2.9706 H   0  0  0  0  0  0  0  0  0  0  0  0
    8.1548    3.3766   -1.2212 H   0  0  0  0  0  0  0  0  0  0  0  0
   10.2341    2.1295   -2.2890 H   0  0  0  0  0  0  0  0  0  0  0  0
    6.6686    2.2098   -5.1720 H   0  0  0  0  0  0  0  0  0  0  0  0
    7.7549    3.6456   -4.9885 H   0  0  0  0  0  0  0  0  0  0  0  0
  1  2  1  0
  1 16  1  0
  1 17  1  0
  1 18  1  0
  2  3  1  0
  2  4  2  0
  3 19  1  0
  3 20  1  0
  4  5  1  0
  5  6  1  0
  5 21  1  0
  6  7  2  0
  6  8  1  0
  8  9  1  0
  8 22  1  0
  9 10  1  0
  9 15  1  0
  9 23  1  6
 10 11  2  0
 10 24  1  0
 12 11  1  1
 11 25  1  0
 12 13  2  0
 12 14  2  0
 12 15  1  0
 15 26  1  0
 15 27  1  0
M  END

