
     RDKit          3D

 32 33  0  0  0  0  0  0  0  0999 V2000
    1.2954   -0.1151    1.1571 C   0  0  0  0  0  0  0  0  0  0  0  0
    2.7027   -0.0002    0.6262 C   0  0  0  0  0  0  0  0  0  0  0  0
    3.1915    1.1837    0.0467 C   0  0  0  0  0  0  0  0  0  0  0  0
    4.4965    1.2319   -0.4295 C   0  0  0  0  0  0  0  0  0  0  0  0
    5.3197    0.0934   -0.3284 C   0  0  0  0  0  0  0  0  0  0  0  0
    6.6373    0.1347   -0.7636 N   0  0  0  0  0  0  0  0  0  0  0  0
    7.4423   -1.0590   -0.9199 C   0  0  0  0  0  0  0  0  0  0  0  0
    8.8840   -0.7448   -1.2762 C   0  0  0  0  0  0  0  0  0  0  0  0
    9.4649    0.4672   -0.8764 C   0  0  0  0  0  0  0  0  0  0  0  0
   10.7959    0.7761   -1.1640 C   0  0  0  0  0  0  0  0  0  0  0  0
   11.5633   -0.1551   -1.8620 C   0  0  0  0  0  0  0  0  0  0  0  0
   13.2340    0.2007   -2.2432 Cl  0  0  0  0  0  0  0  0  0  0  0  0
   11.0119   -1.3754   -2.2585 C   0  0  0  0  0  0  0  0  0  0  0  0
    9.6758   -1.6890   -1.9722 C   0  0  0  0  0  0  0  0  0  0  0  0
    9.1224   -3.0272   -2.4033 C   0  0  0  0  0  0  0  0  0  0  0  0
    4.7297   -1.0497    0.2561 C   0  0  0  0  0  0  0  0  0  0  0  0
    3.4806   -1.0846    0.7157 N   0  0  0  0  0  0  0  0  0  0  0  0
    0.7641    0.8475    1.1249 H   0  0  0  0  0  0  0  0  0  0  0  0
    1.3052   -0.4777    2.1973 H   0  0  0  0  0  0  0  0  0  0  0  0
    0.7174   -0.8488    0.5705 H   0  0  0  0  0  0  0  0  0  0  0  0
    2.5501    2.0653   -0.0291 H   0  0  0  0  0  0  0  0  0  0  0  0
    4.8898    2.1508   -0.8754 H   0  0  0  0  0  0  0  0  0  0  0  0
    6.8303    0.8588   -1.4479 H   0  0  0  0  0  0  0  0  0  0  0  0
    7.0086   -1.7487   -1.6706 H   0  0  0  0  0  0  0  0  0  0  0  0
    7.4314   -1.6182    0.0344 H   0  0  0  0  0  0  0  0  0  0  0  0
    8.8611    1.1849   -0.3172 H   0  0  0  0  0  0  0  0  0  0  0  0
   11.2343    1.7236   -0.8470 H   0  0  0  0  0  0  0  0  0  0  0  0
   11.6355   -2.0909   -2.7979 H   0  0  0  0  0  0  0  0  0  0  0  0
    9.8931   -3.6295   -2.9047 H   0  0  0  0  0  0  0  0  0  0  0  0
    8.2782   -2.9154   -3.1045 H   0  0  0  0  0  0  0  0  0  0  0  0
    8.7490   -3.6116   -1.5459 H   0  0  0  0  0  0  0  0  0  0  0  0
    5.3024   -1.9776    0.3553 H   0  0  0  0  0  0  0  0  0  0  0  0
  1  2  1  0
  1 18  1  0
  1 19  1  0
  1 20  1  0
  2  3  2  0
  2 17  1  0
  3  4  1  0
  3 21  1  0
  4  5  2  0
  4 22  1  0
  5  6  1  0
  5 16  1  0
  6  7  1  0
  6 23  1  0
  7  8  1  0
  7 24  1  0
  7 25  1  0
  8  9  2  0
  8 14  1  0
  9 10  1  0
  9 26  1  0
 10 11  2  0
 10 27  1  0
 11 12  1  0
 11 13  1  0
 13 14  2  0
 13 28  1  0
 14 15  1  0
 15 29  1  0
 15 30  1  0
 15 31  1  0
 16 17  2  0
 16 32  1  0
M  END

