
     RDKit          3D

 48 51  0  0  0  0  0  0  0  0999 V2000
    2.5520    0.7480    1.3861 C   0  0  0  0  0  0  0  0  0  0  0  0
    3.0736   -0.0985    0.3779 O   0  0  0  0  0  0  0  0  0  0  0  0
    3.4436    0.4253   -0.7885 C   0  0  0  0  0  0  0  0  0  0  0  0
    3.3714    1.7573   -1.1122 C   0  0  0  0  0  0  0  0  0  0  0  0
    3.8071    2.2766   -2.3892 C   0  0  0  0  0  0  0  0  0  0  0  0
    3.7575    3.4444   -2.7292 O   0  0  0  0  0  0  0  0  0  0  0  0
    4.3280    1.2649   -3.2672 N   0  0  0  0  0  0  0  0  0  0  0  0
    4.7451    1.5828   -4.6078 C   0  0  0  0  0  0  0  0  0  0  0  0
    5.4711    2.7448   -4.8906 C   0  0  0  0  0  0  0  0  0  0  0  0
    5.8767    3.0003   -6.2027 C   0  0  0  0  0  0  0  0  0  0  0  0
    5.5764    2.1227   -7.2537 C   0  0  0  0  0  0  0  0  0  0  0  0
    6.0107    2.4073   -8.6704 C   0  0  0  0  0  0  0  0  0  0  0  0
    4.8457    0.9624   -6.9459 C   0  0  0  0  0  0  0  0  0  0  0  0
    4.4304    0.6925   -5.6442 C   0  0  0  0  0  0  0  0  0  0  0  0
    4.3857   -0.0203   -2.9473 N   0  0  0  0  0  0  0  0  0  0  0  0
    3.9805   -0.4788   -1.7946 C   0  0  0  0  0  0  0  0  0  0  0  0
    4.1084   -1.9794   -1.5929 C   0  0  0  0  0  0  0  0  0  0  0  0
    3.6280   -2.5582   -0.6311 O   0  0  0  0  0  0  0  0  0  0  0  0
    4.7938   -2.6100   -2.5864 N   0  0  0  0  0  0  0  0  0  0  0  0
    5.0386   -4.0433   -2.5711 C   0  0  0  0  0  0  0  0  0  0  0  0
    6.4104   -4.4313   -2.0480 C   0  0  0  0  0  0  0  0  0  0  0  0
    7.3873   -4.9430   -2.9083 C   0  0  0  0  0  0  0  0  0  0  0  0
    8.6738   -5.3001   -2.4519 C   0  0  0  0  0  0  0  0  0  0  0  0
    8.9300   -5.1196   -1.1063 C   0  0  0  0  0  0  0  0  0  0  0  0
    7.9597   -4.6072   -0.2373 C   0  0  0  0  0  0  0  0  0  0  0  0
    6.6967   -4.2560   -0.6710 C   0  0  0  0  0  0  0  0  0  0  0  0
    8.4875   -4.5193    1.0223 O   0  0  0  0  0  0  0  0  0  0  0  0
    9.7662   -5.1417    0.9640 C   0  0  0  0  0  0  0  0  0  0  0  0
   10.0815   -5.3598   -0.4083 O   0  0  0  0  0  0  0  0  0  0  0  0
    2.3231    0.0986    2.2401 H   0  0  0  0  0  0  0  0  0  0  0  0
    1.6289    1.2508    1.0504 H   0  0  0  0  0  0  0  0  0  0  0  0
    3.2887    1.5110    1.6915 H   0  0  0  0  0  0  0  0  0  0  0  0
    2.9799    2.5080   -0.4283 H   0  0  0  0  0  0  0  0  0  0  0  0
    5.7089    3.4496   -4.0970 H   0  0  0  0  0  0  0  0  0  0  0  0
    6.4453    3.9112   -6.4093 H   0  0  0  0  0  0  0  0  0  0  0  0
    6.5963    3.3360   -8.7355 H   0  0  0  0  0  0  0  0  0  0  0  0
    5.1414    2.5107   -9.3416 H   0  0  0  0  0  0  0  0  0  0  0  0
    6.6303    1.5883   -9.0722 H   0  0  0  0  0  0  0  0  0  0  0  0
    4.5892    0.2581   -7.7428 H   0  0  0  0  0  0  0  0  0  0  0  0
    3.8604   -0.2102   -5.4204 H   0  0  0  0  0  0  0  0  0  0  0  0
    5.2123   -2.0306   -3.3056 H   0  0  0  0  0  0  0  0  0  0  0  0
    4.9069   -4.4357   -3.5920 H   0  0  0  0  0  0  0  0  0  0  0  0
    4.2567   -4.4843   -1.9359 H   0  0  0  0  0  0  0  0  0  0  0  0
    7.1491   -5.0772   -3.9671 H   0  0  0  0  0  0  0  0  0  0  0  0
    9.4339   -5.6990   -3.1254 H   0  0  0  0  0  0  0  0  0  0  0  0
    5.9438   -3.8610    0.0134 H   0  0  0  0  0  0  0  0  0  0  0  0
    9.7345   -6.1125    1.4980 H   0  0  0  0  0  0  0  0  0  0  0  0
   10.5233   -4.4817    1.4190 H   0  0  0  0  0  0  0  0  0  0  0  0
  1  2  1  0
  1 30  1  0
  1 31  1  0
  1 32  1  0
  2  3  1  0
  3  4  2  0
  3 16  1  0
  4  5  1  0
  4 33  1  0
  5  6  2  0
  5  7  1  0
  7  8  1  0
  7 15  1  0
  8  9  2  0
  8 14  1  0
  9 10  1  0
  9 34  1  0
 10 11  2  0
 10 35  1  0
 11 12  1  0
 11 13  1  0
 12 36  1  0
 12 37  1  0
 12 38  1  0
 13 14  2  0
 13 39  1  0
 14 40  1  0
 15 16  2  0
 16 17  1  0
 17 18  2  0
 17 19  1  0
 19 20  1  0
 19 41  1  0
 20 21  1  0
 20 42  1  0
 20 43  1  0
 21 22  2  0
 21 26  1  0
 22 23  1  0
 22 44  1  0
 23 24  2  0
 23 45  1  0
 24 25  1  0
 24 29  1  0
 25 26  2  0
 25 27  1  0
 26 46  1  0
 27 28  1  0
 28 29  1  0
 28 47  1  0
 28 48  1  0
M  END

