
     RDKit          3D

 51 53  0  0  0  0  0  0  0  0999 V2000
    2.0399   -0.7379    0.7703 C   0  0  0  0  0  0  0  0  0  0  0  0
    2.3472    0.4427   -0.1610 C   0  0  0  0  0  0  0  0  0  0  0  0
    2.8512    1.6643    0.4683 N   0  0  0  0  0  0  0  0  0  0  0  0
    1.8561    2.6955    0.7812 C   0  0  0  0  0  0  0  0  0  0  0  0
    0.7245    2.2289    1.7000 C   0  0  0  0  0  0  0  0  0  0  0  0
    4.2185    1.8669    0.5641 C   0  0  0  0  0  0  0  0  0  0  0  0
    5.1113    0.7721    0.5878 C   0  0  0  0  0  0  0  0  0  0  0  0
    6.5033    0.9208    0.6688 C   0  0  0  0  0  0  0  0  0  0  0  0
    7.4315   -0.5784    0.6847 S   0  0  0  0  0  0  0  0  0  0  0  0
    9.1013   -0.0305    0.8315 C   0  0  0  0  0  0  0  0  0  0  0  0
   10.0683   -1.0463    0.8903 C   0  0  0  0  0  0  0  0  0  0  0  0
   11.4474   -0.7754    1.0067 C   0  0  0  0  0  0  0  0  0  0  0  0
   12.3935   -1.7835    1.0577 N   0  0  0  0  0  0  0  0  0  0  0  0
   13.6622   -1.6365    1.7815 C   0  0  0  0  0  0  0  0  0  0  0  0
   14.8953   -1.5820    0.8804 C   0  0  0  0  0  0  0  0  0  0  0  0
   12.0439   -3.1381    0.6359 C   0  0  0  0  0  0  0  0  0  0  0  0
   11.8160   -3.2902   -0.8695 C   0  0  0  0  0  0  0  0  0  0  0  0
   11.7929    0.6090    1.0335 C   0  0  0  0  0  0  0  0  0  0  0  0
   13.0979    0.9622    1.0657 F   0  0  0  0  0  0  0  0  0  0  0  0
   10.8529    1.6095    0.9910 C   0  0  0  0  0  0  0  0  0  0  0  0
    9.4749    1.3252    0.8921 C   0  0  0  0  0  0  0  0  0  0  0  0
    8.5392    2.4732    0.8475 C   0  0  0  0  0  0  0  0  0  0  0  0
    8.9578    3.6265    0.9019 O   0  0  0  0  0  0  0  0  0  0  0  0
    7.0873    2.1991    0.7415 C   0  0  0  0  0  0  0  0  0  0  0  0
    6.2127    3.3024    0.6983 C   0  0  0  0  0  0  0  0  0  0  0  0
    4.8501    3.1488    0.5969 C   0  0  0  0  0  0  0  0  0  0  0  0
    4.1095    4.2756    0.4835 F   0  0  0  0  0  0  0  0  0  0  0  0
    1.6860   -1.5966    0.1764 H   0  0  0  0  0  0  0  0  0  0  0  0
    1.2597   -0.4908    1.5034 H   0  0  0  0  0  0  0  0  0  0  0  0
    2.9278   -1.0628    1.3330 H   0  0  0  0  0  0  0  0  0  0  0  0
    1.4291    0.7150   -0.7104 H   0  0  0  0  0  0  0  0  0  0  0  0
    3.0709    0.1238   -0.9292 H   0  0  0  0  0  0  0  0  0  0  0  0
    1.4215    3.0934   -0.1576 H   0  0  0  0  0  0  0  0  0  0  0  0
    2.3645    3.5318    1.2642 H   0  0  0  0  0  0  0  0  0  0  0  0
    0.0906    1.4552    1.2410 H   0  0  0  0  0  0  0  0  0  0  0  0
    0.0725    3.0869    1.9302 H   0  0  0  0  0  0  0  0  0  0  0  0
    1.1175    1.8350    2.6507 H   0  0  0  0  0  0  0  0  0  0  0  0
    4.7077   -0.2388    0.5711 H   0  0  0  0  0  0  0  0  0  0  0  0
    9.7291   -2.0811    0.8585 H   0  0  0  0  0  0  0  0  0  0  0  0
   13.7482   -2.4890    2.4803 H   0  0  0  0  0  0  0  0  0  0  0  0
   13.6156   -0.7371    2.4057 H   0  0  0  0  0  0  0  0  0  0  0  0
   14.9827   -2.4874    0.2579 H   0  0  0  0  0  0  0  0  0  0  0  0
   15.8111   -1.5058    1.4890 H   0  0  0  0  0  0  0  0  0  0  0  0
   14.8474   -0.7072    0.2160 H   0  0  0  0  0  0  0  0  0  0  0  0
   11.1634   -3.5098    1.1950 H   0  0  0  0  0  0  0  0  0  0  0  0
   12.8761   -3.7897    0.9396 H   0  0  0  0  0  0  0  0  0  0  0  0
   10.9884   -2.6579   -1.2244 H   0  0  0  0  0  0  0  0  0  0  0  0
   11.5695   -4.3362   -1.1137 H   0  0  0  0  0  0  0  0  0  0  0  0
   12.7197   -3.0070   -1.4309 H   0  0  0  0  0  0  0  0  0  0  0  0
   11.1664    2.6545    1.0100 H   0  0  0  0  0  0  0  0  0  0  0  0
    6.6426    4.3053    0.7166 H   0  0  0  0  0  0  0  0  0  0  0  0
  1  2  1  0
  1 28  1  0
  1 29  1  0
  1 30  1  0
  2  3  1  0
  2 31  1  0
  2 32  1  0
  3  4  1  0
  3  6  1  0
  4  5  1  0
  4 33  1  0
  4 34  1  0
  5 35  1  0
  5 36  1  0
  5 37  1  0
  6  7  2  0
  6 26  1  0
  7  8  1  0
  7 38  1  0
  8  9  2  0
  8 24  1  0
  9 10  1  0
 10 11  2  0
 10 21  1  0
 11 12  1  0
 11 39  1  0
 12 13  1  0
 12 18  2  0
 13 14  1  0
 13 16  1  0
 14 15  1  0
 14 40  1  0
 14 41  1  0
 15 42  1  0
 15 43  1  0
 15 44  1  0
 16 17  1  0
 16 45  1  0
 16 46  1  0
 17 47  1  0
 17 48  1  0
 17 49  1  0
 18 19  1  0
 18 20  1  0
 20 21  2  0
 20 50  1  0
 21 22  1  0
 22 23  1  0
 22 24  2  0
 24 25  1  0
 25 26  2  0
 25 51  1  0
 26 27  1  0
M  CHG  2   9   1  23  -1
M  END

