
     RDKit          3D

 31 30  0  0  0  0  0  0  0  0999 V2000
    2.5634    0.7616    1.4969 C   0  0  0  0  0  0  0  0  0  0  0  0
    2.4583   -0.0100    0.1753 C   0  0  0  0  0  0  0  0  0  0  0  0
    2.9735    0.6723   -1.1156 C   0  0  1  0  0  0  0  0  0  0  0  0
    2.5108    0.1206   -1.9469 H   0  0  0  0  0  0  0  0  0  0  0  0
    2.5309    2.1443   -1.2648 C   0  0  0  0  0  0  0  0  0  0  0  0
    1.0261    2.4574   -1.2350 C   0  0  1  0  0  0  0  0  0  0  0  0
    0.7948    3.8364   -1.0567 O   0  0  0  0  0  0  0  0  0  0  0  0
    0.2684    1.9965   -2.4847 C   0  0  1  0  0  0  0  0  0  0  0  0
    0.7557    2.6040   -3.5893 F   0  0  0  0  0  0  0  0  0  0  0  0
    0.3648    0.6669   -2.6815 F   0  0  0  0  0  0  0  0  0  0  0  0
   -1.0323    2.2936   -2.4067 F   0  0  0  0  0  0  0  0  0  0  0  0
    4.5029    0.5521   -1.3719 C   0  0  1  0  0  0  0  0  0  0  0  0
    5.4305    1.1586   -0.3134 C   0  0  0  0  0  0  0  0  0  0  0  0
    5.0590   -1.1960   -1.6189 S   0  0  0  0  0  0  0  0  0  0  0  0
    4.3248   -1.5888   -3.2379 C   0  0  0  0  0  0  0  0  0  0  0  0
    2.1695    0.1474    2.3225 H   0  0  0  0  0  0  0  0  0  0  0  0
    1.9798    1.6966    1.4892 H   0  0  0  0  0  0  0  0  0  0  0  0
    3.5985    1.0260    1.7561 H   0  0  0  0  0  0  0  0  0  0  0  0
    1.3988   -0.2754    0.0145 H   0  0  0  0  0  0  0  0  0  0  0  0
    2.9842   -0.9748    0.2659 H   0  0  0  0  0  0  0  0  0  0  0  0
    2.9399    2.5513   -2.2072 H   0  0  0  0  0  0  0  0  0  0  0  0
    2.9580    2.7563   -0.4555 H   0  0  0  0  0  0  0  0  0  0  0  0
    0.5399    1.9561   -0.3845 H   0  0  0  0  0  0  0  0  0  0  0  0
    1.2240    4.3093   -1.7845 H   0  0  0  0  0  0  0  0  0  0  0  0
    4.7058    1.0611   -2.3304 H   0  0  0  0  0  0  0  0  0  0  0  0
    5.4224    0.5758    0.6203 H   0  0  0  0  0  0  0  0  0  0  0  0
    5.1376    2.1915   -0.0687 H   0  0  0  0  0  0  0  0  0  0  0  0
    6.4669    1.1773   -0.6817 H   0  0  0  0  0  0  0  0  0  0  0  0
    4.6778   -2.5963   -3.5016 H   0  0  0  0  0  0  0  0  0  0  0  0
    4.6644   -0.8839   -4.0129 H   0  0  0  0  0  0  0  0  0  0  0  0
    3.2249   -1.6039   -3.2098 H   0  0  0  0  0  0  0  0  0  0  0  0
  1  2  1  0
  1 16  1  0
  1 17  1  0
  1 18  1  0
  2  3  1  0
  2 19  1  0
  2 20  1  0
  3  4  1  6
  3  5  1  0
  3 12  1  0
  5  6  1  0
  5 21  1  0
  5 22  1  0
  6  7  1  0
  6  8  1  0
  6 23  1  1
  7 24  1  0
  8  9  1  6
  8 10  1  0
  8 11  1  0
 12 13  1  0
 12 14  1  0
 12 25  1  6
 13 26  1  0
 13 27  1  0
 13 28  1  0
 14 15  1  0
 15 29  1  0
 15 30  1  0
 15 31  1  0
M  END

