
     RDKit          3D

 49 51  0  0  0  0  0  0  0  0999 V2000
    2.0801    0.3711   -1.5146 O   0  0  0  0  0  0  0  0  0  0  0  0
    2.8161   -0.1408   -0.6864 C   0  0  0  0  0  0  0  0  0  0  0  0
    3.4095   -1.5263   -0.9527 C   0  0  0  0  0  0  0  0  0  0  0  0
    2.6356   -2.8049    0.1411 S   0  0  0  0  0  0  0  0  0  0  0  0
    3.2391   -4.3009   -0.6406 C   0  0  0  0  0  0  0  0  0  0  0  0
    4.3084   -5.0121   -0.0740 C   0  0  0  0  0  0  0  0  0  0  0  0
    4.7544   -6.2038   -0.6505 C   0  0  0  0  0  0  0  0  0  0  0  0
    4.1224   -6.6727   -1.8004 C   0  0  0  0  0  0  0  0  0  0  0  0
    4.5478   -7.8125   -2.3596 F   0  0  0  0  0  0  0  0  0  0  0  0
    3.0554   -5.9887   -2.3821 C   0  0  0  0  0  0  0  0  0  0  0  0
    2.6108   -4.8048   -1.7916 C   0  0  0  0  0  0  0  0  0  0  0  0
    3.1367    0.4812    0.4972 N   0  0  0  0  0  0  0  0  0  0  0  0
    4.0732    0.0061    1.5110 C   0  0  0  0  0  0  0  0  0  0  0  0
    5.2192    1.0102    1.6910 C   0  0  0  0  0  0  0  0  0  0  0  0
    4.7090    2.3622    1.9404 N   0  0  0  0  0  0  0  0  0  0  0  0
    4.5711    2.8754    3.5428 S   0  0  1  0  0  0  0  0  0  0  0  0
    3.3492    3.6882    3.6416 O   0  0  0  0  0  0  0  0  0  0  0  0
    4.7559    1.7134    4.4196 O   0  0  0  0  0  0  0  0  0  0  0  0
    5.9910    3.9501    3.7026 C   0  0  0  0  0  0  0  0  0  0  0  0
    6.5443    4.4022    4.8437 C   0  0  0  0  0  0  0  0  0  0  0  0
    6.1697    4.2380    6.2544 C   0  0  0  0  0  0  0  0  0  0  0  0
    7.1847    4.3749    7.2240 C   0  0  0  0  0  0  0  0  0  0  0  0
    6.9057    4.2278    8.5822 C   0  0  0  0  0  0  0  0  0  0  0  0
    5.5973    3.9644    8.9995 C   0  0  0  0  0  0  0  0  0  0  0  0
    4.5750    3.8560    8.0507 C   0  0  0  0  0  0  0  0  0  0  0  0
    4.8520    3.9911    6.6906 C   0  0  0  0  0  0  0  0  0  0  0  0
    3.7197    2.8258    0.9572 C   0  0  0  0  0  0  0  0  0  0  0  0
    2.5899    1.8085    0.7751 C   0  0  0  0  0  0  0  0  0  0  0  0
    4.5030   -1.5450   -0.8246 H   0  0  0  0  0  0  0  0  0  0  0  0
    3.1645   -1.7592   -1.9952 H   0  0  0  0  0  0  0  0  0  0  0  0
    4.7905   -4.6287    0.8277 H   0  0  0  0  0  0  0  0  0  0  0  0
    5.5825   -6.7726   -0.2231 H   0  0  0  0  0  0  0  0  0  0  0  0
    2.5816   -6.3953   -3.2778 H   0  0  0  0  0  0  0  0  0  0  0  0
    1.7639   -4.2657   -2.2221 H   0  0  0  0  0  0  0  0  0  0  0  0
    4.4608   -0.9850    1.2489 H   0  0  0  0  0  0  0  0  0  0  0  0
    3.5466   -0.0977    2.4764 H   0  0  0  0  0  0  0  0  0  0  0  0
    5.8356    1.0448    0.7747 H   0  0  0  0  0  0  0  0  0  0  0  0
    5.8599    0.7036    2.5275 H   0  0  0  0  0  0  0  0  0  0  0  0
    6.4111    4.2155    2.7304 H   0  0  0  0  0  0  0  0  0  0  0  0
    7.4539    4.9968    4.6912 H   0  0  0  0  0  0  0  0  0  0  0  0
    8.2074    4.5893    6.9012 H   0  0  0  0  0  0  0  0  0  0  0  0
    7.7085    4.3258    9.3171 H   0  0  0  0  0  0  0  0  0  0  0  0
    5.3721    3.8552   10.0634 H   0  0  0  0  0  0  0  0  0  0  0  0
    3.5475    3.6700    8.3727 H   0  0  0  0  0  0  0  0  0  0  0  0
    4.0364    3.9342    5.9700 H   0  0  0  0  0  0  0  0  0  0  0  0
    4.2462    2.9778   -0.0015 H   0  0  0  0  0  0  0  0  0  0  0  0
    3.3131    3.7905    1.2848 H   0  0  0  0  0  0  0  0  0  0  0  0
    1.9382    2.0861   -0.0625 H   0  0  0  0  0  0  0  0  0  0  0  0
    1.9884    1.7713    1.7009 H   0  0  0  0  0  0  0  0  0  0  0  0
  1  2  2  0
  2  3  1  0
  2 12  1  0
  3  4  1  0
  3 29  1  0
  3 30  1  0
  4  5  1  0
  5  6  2  0
  5 11  1  0
  6  7  1  0
  6 31  1  0
  7  8  2  0
  7 32  1  0
  8  9  1  0
  8 10  1  0
 10 11  2  0
 10 33  1  0
 11 34  1  0
 12 13  1  0
 12 28  1  0
 13 14  1  0
 13 35  1  0
 13 36  1  0
 14 15  1  0
 14 37  1  0
 14 38  1  0
 15 16  1  0
 15 27  1  0
 16 17  2  0
 16 18  2  0
 16 19  1  1
 19 20  2  0
 19 39  1  0
 20 21  1  0
 20 40  1  0
 21 22  2  0
 21 26  1  0
 22 23  1  0
 22 41  1  0
 23 24  2  0
 23 42  1  0
 24 25  1  0
 24 43  1  0
 25 26  2  0
 25 44  1  0
 26 45  1  0
 27 28  1  0
 27 46  1  0
 27 47  1  0
 28 48  1  0
 28 49  1  0
M  END

