
     RDKit          3D

 39 40  0  0  0  0  0  0  0  0999 V2000
    1.5421   -0.4227    0.8721 C   0  0  0  0  0  0  0  0  0  0  0  0
    2.6324   -0.0973   -0.0208 N   0  0  0  0  0  0  0  0  0  0  0  0
    3.2195   -1.0439   -0.8305 C   0  0  0  0  0  0  0  0  0  0  0  0
    2.8704   -2.2140   -0.8415 O   0  0  0  0  0  0  0  0  0  0  0  0
    4.2408   -0.5318   -1.6217 N   0  0  0  0  0  0  0  0  0  0  0  0
    5.0448   -1.2070   -2.5557 C   0  0  0  0  0  0  0  0  0  0  0  0
    6.0370   -0.4629   -3.2233 C   0  0  0  0  0  0  0  0  0  0  0  0
    6.8589   -1.0862   -4.1590 C   0  0  0  0  0  0  0  0  0  0  0  0
    6.7298   -2.4435   -4.4623 C   0  0  0  0  0  0  0  0  0  0  0  0
    5.7401   -3.1846   -3.7949 C   0  0  0  0  0  0  0  0  0  0  0  0
    5.5228   -4.5592   -4.0135 N   0  0  0  0  0  0  0  0  0  0  0  0
    6.1634   -5.4145   -4.8798 C   0  0  0  0  0  0  0  0  0  0  0  0
    7.0323   -5.0674   -5.6640 O   0  0  0  0  0  0  0  0  0  0  0  0
    5.7060   -6.8503   -4.8171 C   0  0  0  0  0  0  0  0  0  0  0  0
    5.9896   -7.6610   -5.9304 C   0  0  0  0  0  0  0  0  0  0  0  0
    5.6229   -9.0012   -5.9506 C   0  0  0  0  0  0  0  0  0  0  0  0
    4.9713   -9.5602   -4.8432 C   0  0  0  0  0  0  0  0  0  0  0  0
    4.6327  -10.8901   -4.9464 O   0  0  0  0  0  0  0  0  0  0  0  0
    4.5069  -11.6488   -3.8147 C   0  0  1  0  0  0  0  0  0  0  0  0
    3.3051  -11.4353   -3.2204 F   0  0  0  0  0  0  0  0  0  0  0  0
    4.5495  -12.9293   -4.1942 F   0  0  0  0  0  0  0  0  0  0  0  0
    4.6821   -8.7751   -3.7209 C   0  0  0  0  0  0  0  0  0  0  0  0
    5.0607   -7.4294   -3.7154 C   0  0  0  0  0  0  0  0  0  0  0  0
    4.9029   -2.5700   -2.8468 C   0  0  0  0  0  0  0  0  0  0  0  0
    0.6179    0.1202    0.6078 H   0  0  0  0  0  0  0  0  0  0  0  0
    1.7928   -0.1947    1.9224 H   0  0  0  0  0  0  0  0  0  0  0  0
    1.3512   -1.4999    0.7832 H   0  0  0  0  0  0  0  0  0  0  0  0
    2.9412    0.8653   -0.0674 H   0  0  0  0  0  0  0  0  0  0  0  0
    4.4597    0.4513   -1.5172 H   0  0  0  0  0  0  0  0  0  0  0  0
    6.1599    0.6024   -3.0067 H   0  0  0  0  0  0  0  0  0  0  0  0
    7.6247   -0.4983   -4.6717 H   0  0  0  0  0  0  0  0  0  0  0  0
    7.3669   -2.9280   -5.1968 H   0  0  0  0  0  0  0  0  0  0  0  0
    4.7446   -4.9448   -3.4933 H   0  0  0  0  0  0  0  0  0  0  0  0
    6.5142   -7.2112   -6.7751 H   0  0  0  0  0  0  0  0  0  0  0  0
    5.8367   -9.6388   -6.8104 H   0  0  0  0  0  0  0  0  0  0  0  0
    5.3013  -11.4423   -3.0739 H   0  0  0  0  0  0  0  0  0  0  0  0
    4.1498   -9.1945   -2.8671 H   0  0  0  0  0  0  0  0  0  0  0  0
    4.8543   -6.8455   -2.8148 H   0  0  0  0  0  0  0  0  0  0  0  0
    4.1363   -3.1396   -2.3240 H   0  0  0  0  0  0  0  0  0  0  0  0
  1  2  1  0
  1 25  1  0
  1 26  1  0
  1 27  1  0
  2  3  1  0
  2 28  1  0
  3  4  2  0
  3  5  1  0
  5  6  1  0
  5 29  1  0
  6  7  2  0
  6 24  1  0
  7  8  1  0
  7 30  1  0
  8  9  2  0
  8 31  1  0
  9 10  1  0
  9 32  1  0
 10 11  1  0
 10 24  2  0
 11 12  1  0
 11 33  1  0
 12 13  2  0
 12 14  1  0
 14 15  2  0
 14 23  1  0
 15 16  1  0
 15 34  1  0
 16 17  2  0
 16 35  1  0
 17 18  1  0
 17 22  1  0
 18 19  1  0
 19 20  1  0
 19 21  1  0
 19 36  1  1
 22 23  2  0
 22 37  1  0
 23 38  1  0
 24 39  1  0
M  END

