
     RDKit          3D

 64 67  0  0  0  0  0  0  0  0999 V2000
    0.9756    5.9967   -0.7213 C   0  0  0  0  0  0  0  0  0  0  0  0
    1.9053    6.9942   -1.0765 O   0  0  0  0  0  0  0  0  0  0  0  0
    2.7683    7.3755   -0.0303 C   0  0  0  0  0  0  0  0  0  0  0  0
    3.8117    6.3226    0.3969 C   0  0  0  0  0  0  0  0  0  0  0  0
    3.8946    6.0094    1.5766 O   0  0  0  0  0  0  0  0  0  0  0  0
    4.6211    5.7876   -0.5717 N   0  0  0  0  0  0  0  0  0  0  0  0
    5.6365    4.8074   -0.1926 C   0  0  0  0  0  0  0  0  0  0  0  0
    5.5197    3.5506   -1.0535 C   0  0  0  0  0  0  0  0  0  0  0  0
    5.6336    3.8493   -2.5741 C   0  0  2  0  0  0  0  0  0  0  0  0
    7.0823    3.9696   -3.0454 C   0  0  0  0  0  0  0  0  0  0  0  0
    7.7145    5.2046   -3.2485 C   0  0  0  0  0  0  0  0  0  0  0  0
    9.0457    5.3403   -3.6590 C   0  0  0  0  0  0  0  0  0  0  0  0
    9.6586    6.7060   -3.8494 C   0  0  0  0  0  0  0  0  0  0  0  0
    9.7950    4.1645   -3.8897 C   0  0  0  0  0  0  0  0  0  0  0  0
   11.1160    4.3053   -4.3391 N   0  0  0  0  0  0  0  0  0  0  0  0
   12.1856    3.4410   -4.3676 C   0  0  0  0  0  0  0  0  0  0  0  0
   13.2424    3.9213   -5.0502 N   0  0  0  0  0  0  0  0  0  0  0  0
   14.3080    3.1254   -5.1134 C   0  0  0  0  0  0  0  0  0  0  0  0
   14.3476    1.8759   -4.5132 C   0  0  0  0  0  0  0  0  0  0  0  0
   15.7635    0.8537   -4.6240 Cl  0  0  0  0  0  0  0  0  0  0  0  0
   13.1932    1.4639   -3.7880 C   0  0  0  0  0  0  0  0  0  0  0  0
   13.1914    0.2643   -3.1479 N   0  0  0  0  0  0  0  0  0  0  0  0
   12.2362   -0.2988   -2.3017 C   0  0  0  0  0  0  0  0  0  0  0  0
   11.0633    0.2542   -1.7202 C   0  0  0  0  0  0  0  0  0  0  0  0
   10.5529   -0.7715   -0.9353 C   0  0  0  0  0  0  0  0  0  0  0  0
    9.3436   -0.8322   -0.0583 C   0  0  0  0  0  0  0  0  0  0  0  0
   11.4091   -1.8176   -1.0887 N   0  0  0  0  0  0  0  0  0  0  0  0
   11.3437   -2.7331   -0.6613 H   0  0  0  0  0  0  0  0  0  0  0  0
   12.4388   -1.5559   -1.9146 N   0  0  0  0  0  0  0  0  0  0  0  0
   12.1208    2.2629   -3.7371 N   0  0  0  0  0  0  0  0  0  0  0  0
    9.1748    2.9175   -3.7138 C   0  0  0  0  0  0  0  0  0  0  0  0
    7.8423    2.8004   -3.3003 C   0  0  0  0  0  0  0  0  0  0  0  0
    7.2475    1.4134   -3.1862 C   0  0  0  0  0  0  0  0  0  0  0  0
    4.6862    5.0225   -2.9282 C   0  0  0  0  0  0  0  0  0  0  0  0
    4.6937    6.2216   -1.9637 C   0  0  0  0  0  0  0  0  0  0  0  0
    0.3461    5.8048   -1.6022 H   0  0  0  0  0  0  0  0  0  0  0  0
    0.3278    6.3241    0.1153 H   0  0  0  0  0  0  0  0  0  0  0  0
    1.4661    5.0501   -0.4235 H   0  0  0  0  0  0  0  0  0  0  0  0
    2.2086    7.6147    0.8912 H   0  0  0  0  0  0  0  0  0  0  0  0
    3.2851    8.2902   -0.3657 H   0  0  0  0  0  0  0  0  0  0  0  0
    5.4941    4.5822    0.8714 H   0  0  0  0  0  0  0  0  0  0  0  0
    6.6406    5.2583   -0.3095 H   0  0  0  0  0  0  0  0  0  0  0  0
    4.5400    3.0829   -0.8519 H   0  0  0  0  0  0  0  0  0  0  0  0
    6.2908    2.8279   -0.7446 H   0  0  0  0  0  0  0  0  0  0  0  0
    5.2206    2.9718   -3.0953 H   0  0  0  0  0  0  0  0  0  0  0  0
    7.1558    6.1259   -3.0834 H   0  0  0  0  0  0  0  0  0  0  0  0
    8.9537    7.4992   -3.5625 H   0  0  0  0  0  0  0  0  0  0  0  0
    9.9421    6.8944   -4.9018 H   0  0  0  0  0  0  0  0  0  0  0  0
   10.5719    6.8341   -3.2431 H   0  0  0  0  0  0  0  0  0  0  0  0
   11.3546    5.1880   -4.7758 H   0  0  0  0  0  0  0  0  0  0  0  0
   15.1814    3.4893   -5.6660 H   0  0  0  0  0  0  0  0  0  0  0  0
   14.0161   -0.3129   -3.2821 H   0  0  0  0  0  0  0  0  0  0  0  0
   10.6645    1.2526   -1.8534 H   0  0  0  0  0  0  0  0  0  0  0  0
    8.7844    0.1108   -0.1224 H   0  0  0  0  0  0  0  0  0  0  0  0
    9.6131   -0.9915    0.9996 H   0  0  0  0  0  0  0  0  0  0  0  0
    8.6632   -1.6483   -0.3549 H   0  0  0  0  0  0  0  0  0  0  0  0
    9.7504    2.0174   -3.9182 H   0  0  0  0  0  0  0  0  0  0  0  0
    8.0070    0.6453   -3.3894 H   0  0  0  0  0  0  0  0  0  0  0  0
    6.4236    1.2644   -3.9055 H   0  0  0  0  0  0  0  0  0  0  0  0
    6.8299    1.2126   -2.1865 H   0  0  0  0  0  0  0  0  0  0  0  0
    3.6576    4.6238   -2.9313 H   0  0  0  0  0  0  0  0  0  0  0  0
    4.8855    5.3816   -3.9509 H   0  0  0  0  0  0  0  0  0  0  0  0
    3.8330    6.8561   -2.1978 H   0  0  0  0  0  0  0  0  0  0  0  0
    5.6059    6.8320   -2.0975 H   0  0  0  0  0  0  0  0  0  0  0  0
  1  2  1  0
  1 36  1  0
  1 37  1  0
  1 38  1  0
  2  3  1  0
  3  4  1  0
  3 39  1  0
  3 40  1  0
  4  5  2  0
  4  6  1  0
  6  7  1  0
  6 35  1  0
  7  8  1  0
  7 41  1  0
  7 42  1  0
  8  9  1  0
  8 43  1  0
  8 44  1  0
  9 10  1  0
  9 34  1  0
  9 45  1  6
 10 11  2  0
 10 32  1  0
 11 12  1  0
 11 46  1  0
 12 13  1  0
 12 14  2  0
 13 47  1  0
 13 48  1  0
 13 49  1  0
 14 15  1  0
 14 31  1  0
 15 16  1  0
 15 50  1  0
 16 17  2  0
 16 30  1  0
 17 18  1  0
 18 19  2  0
 18 51  1  0
 19 20  1  0
 19 21  1  0
 21 22  1  0
 21 30  2  0
 22 23  1  0
 22 52  1  0
 23 24  1  0
 23 29  2  0
 24 25  2  0
 24 53  1  0
 25 26  1  0
 25 27  1  0
 26 54  1  0
 26 55  1  0
 26 56  1  0
 27 28  1  0
 27 29  1  0
 31 32  2  0
 31 57  1  0
 32 33  1  0
 33 58  1  0
 33 59  1  0
 33 60  1  0
 34 35  1  0
 34 61  1  0
 34 62  1  0
 35 63  1  0
 35 64  1  0
M  END

