
     RDKit          3D

 61 68  0  0  0  0  0  0  0  0999 V2000
    5.5545    0.1154    0.6609 C   0  0  0  0  0  0  0  0  0  0  0  0
    5.2682   -1.2402   -0.0276 C   0  0  1  0  0  0  0  0  0  0  0  0
    6.4459   -1.6009   -0.9638 C   0  0  0  0  0  0  0  0  0  0  0  0
    5.1878   -2.3204    1.0687 C   0  0  0  0  0  0  0  0  0  0  0  0
    3.9814   -1.1091   -0.8712 C   0  0  0  0  0  0  0  0  0  0  0  0
    3.9269   -0.1599   -1.9118 C   0  0  0  0  0  0  0  0  0  0  0  0
    2.8060    0.0341   -2.7312 C   0  0  0  0  0  0  0  0  0  0  0  0
    1.6505   -0.7250   -2.5544 C   0  0  0  0  0  0  0  0  0  0  0  0
    1.6528   -1.6809   -1.5346 C   0  0  0  0  0  0  0  0  0  0  0  0
    2.8023   -1.8532   -0.7224 C   0  0  0  0  0  0  0  0  0  0  0  0
    2.5837   -2.8441    0.2141 O   0  0  0  0  0  0  0  0  0  0  0  0
    1.3246   -3.3135    0.0256 C   0  0  0  0  0  0  0  0  0  0  0  0
    0.8320   -4.2755    0.7814 N   0  0  0  0  0  0  0  0  0  0  0  0
   -0.4012   -4.5959    0.4480 C   0  0  0  0  0  0  0  0  0  0  0  0
   -1.0838   -5.5719    1.1138 O   0  0  0  0  0  0  0  0  0  0  0  0
   -2.3181   -5.6570    0.5280 C   0  0  0  0  0  0  0  0  0  0  0  0
   -3.3291   -6.5334    0.9044 C   0  0  0  0  0  0  0  0  0  0  0  0
   -4.5274   -6.4670    0.1905 C   0  0  0  0  0  0  0  0  0  0  0  0
   -4.6953   -5.5621   -0.8798 C   0  0  0  0  0  0  0  0  0  0  0  0
   -5.9294   -5.5321   -1.5861 N   0  0  0  0  0  0  0  0  0  0  0  0
   -6.8000   -4.4415   -1.6637 C   0  0  0  0  0  0  0  0  0  0  0  0
   -6.6956   -3.1754   -1.0738 C   0  0  0  0  0  0  0  0  0  0  0  0
   -7.7268   -2.2634   -1.3030 C   0  0  0  0  0  0  0  0  0  0  0  0
   -8.8401   -2.5987   -2.0969 C   0  0  0  0  0  0  0  0  0  0  0  0
   -8.9444   -3.8636   -2.6741 C   0  0  0  0  0  0  0  0  0  0  0  0
   -7.9224   -4.8000   -2.4596 C   0  0  0  0  0  0  0  0  0  0  0  0
   -7.7145   -6.1722   -2.8802 C   0  0  0  0  0  0  0  0  0  0  0  0
   -8.4488   -7.0659   -3.6736 C   0  0  0  0  0  0  0  0  0  0  0  0
   -7.9443   -8.3456   -3.9012 C   0  0  0  0  0  0  0  0  0  0  0  0
   -6.7106   -8.7380   -3.3479 C   0  0  0  0  0  0  0  0  0  0  0  0
   -5.9597   -7.8693   -2.5548 C   0  0  0  0  0  0  0  0  0  0  0  0
   -6.4752   -6.5880   -2.3210 C   0  0  0  0  0  0  0  0  0  0  0  0
   -3.6601   -4.6938   -1.2500 C   0  0  0  0  0  0  0  0  0  0  0  0
   -2.4597   -4.7333   -0.5308 C   0  0  0  0  0  0  0  0  0  0  0  0
   -1.1926   -4.0279   -0.5898 C   0  0  0  0  0  0  0  0  0  0  0  0
   -0.6302   -3.0092   -1.3679 C   0  0  0  0  0  0  0  0  0  0  0  0
    0.6793   -2.6390   -1.0463 C   0  0  0  0  0  0  0  0  0  0  0  0
    6.4780    0.0490    1.2590 H   0  0  0  0  0  0  0  0  0  0  0  0
    4.7319    0.3953    1.3379 H   0  0  0  0  0  0  0  0  0  0  0  0
    5.6857    0.9323   -0.0649 H   0  0  0  0  0  0  0  0  0  0  0  0
    7.3787   -1.6867   -0.3830 H   0  0  0  0  0  0  0  0  0  0  0  0
    6.6078   -0.8408   -1.7430 H   0  0  0  0  0  0  0  0  0  0  0  0
    6.2695   -2.5654   -1.4657 H   0  0  0  0  0  0  0  0  0  0  0  0
    6.1438   -2.3453    1.6156 H   0  0  0  0  0  0  0  0  0  0  0  0
    5.0101   -3.3213    0.6518 H   0  0  0  0  0  0  0  0  0  0  0  0
    4.3881   -2.1164    1.7939 H   0  0  0  0  0  0  0  0  0  0  0  0
    4.8053    0.4623   -2.0944 H   0  0  0  0  0  0  0  0  0  0  0  0
    2.8456    0.7921   -3.5170 H   0  0  0  0  0  0  0  0  0  0  0  0
    0.7742   -0.5787   -3.1897 H   0  0  0  0  0  0  0  0  0  0  0  0
   -3.1903   -7.2316    1.7311 H   0  0  0  0  0  0  0  0  0  0  0  0
   -5.3592   -7.1198    0.4614 H   0  0  0  0  0  0  0  0  0  0  0  0
   -5.8395   -2.9097   -0.4513 H   0  0  0  0  0  0  0  0  0  0  0  0
   -7.6677   -1.2691   -0.8528 H   0  0  0  0  0  0  0  0  0  0  0  0
   -9.6297   -1.8607   -2.2572 H   0  0  0  0  0  0  0  0  0  0  0  0
   -9.8131   -4.1243   -3.2840 H   0  0  0  0  0  0  0  0  0  0  0  0
   -9.4035   -6.7610   -4.1099 H   0  0  0  0  0  0  0  0  0  0  0  0
   -8.5076   -9.0509   -4.5168 H   0  0  0  0  0  0  0  0  0  0  0  0
   -6.3293   -9.7435   -3.5439 H   0  0  0  0  0  0  0  0  0  0  0  0
   -5.0016   -8.1797   -2.1345 H   0  0  0  0  0  0  0  0  0  0  0  0
   -3.7998   -4.0092   -2.0886 H   0  0  0  0  0  0  0  0  0  0  0  0
   -1.1830   -2.5313   -2.1799 H   0  0  0  0  0  0  0  0  0  0  0  0
  2  1  1  1
  1 38  1  0
  1 39  1  0
  1 40  1  0
  2  3  1  0
  2  4  1  0
  2  5  1  0
  3 41  1  0
  3 42  1  0
  3 43  1  0
  4 44  1  0
  4 45  1  0
  4 46  1  0
  5  6  2  0
  5 10  1  0
  6  7  1  0
  6 47  1  0
  7  8  2  0
  7 48  1  0
  8  9  1  0
  8 49  1  0
  9 10  2  0
  9 37  1  0
 10 11  1  0
 11 12  1  0
 12 13  1  0
 12 37  2  0
 13 14  2  0
 14 15  1  0
 14 35  1  0
 15 16  1  0
 16 17  1  0
 16 34  2  0
 17 18  2  0
 17 50  1  0
 18 19  1  0
 18 51  1  0
 19 20  1  0
 19 33  2  0
 20 21  1  0
 20 32  1  0
 21 22  2  0
 21 26  1  0
 22 23  1  0
 22 52  1  0
 23 24  2  0
 23 53  1  0
 24 25  1  0
 24 54  1  0
 25 26  2  0
 25 55  1  0
 26 27  1  0
 27 28  1  0
 27 32  2  0
 28 29  2  0
 28 56  1  0
 29 30  1  0
 29 57  1  0
 30 31  2  0
 30 58  1  0
 31 32  1  0
 31 59  1  0
 33 34  1  0
 33 60  1  0
 34 35  1  0
 35 36  2  0
 36 37  1  0
 36 61  1  0
M  END

