
     RDKit          3D

 38 37  0  0  0  0  0  0  0  0999 V2000
    0.7318    1.1206    1.0747 C   0  0  0  0  0  0  0  0  0  0  0  0
    2.2456    1.0558    0.8716 C   0  0  0  0  0  0  0  0  0  0  0  0
    2.9867    2.1833    1.5994 C   0  0  0  0  0  0  0  0  0  0  0  0
    4.4300    2.1357    1.4315 N   0  0  0  0  0  0  0  0  0  0  0  0
    5.1223    3.0050    0.6437 C   0  0  0  0  0  0  0  0  0  0  0  0
    4.5982    3.9336    0.0444 O   0  0  0  0  0  0  0  0  0  0  0  0
    6.6392    2.7305    0.4998 C   0  0  1  0  0  0  0  0  0  0  0  0
    6.8676    1.7437   -0.6553 C   0  0  0  0  0  0  0  0  0  0  0  0
    7.3718    3.9640    0.2595 N   0  0  0  0  0  0  0  0  0  0  0  0
    7.5408    4.8283    1.4351 C   0  0  1  0  0  0  0  0  0  0  0  0
    8.6861    4.3033    2.3091 C   0  0  0  0  0  0  0  0  0  0  0  0
    7.8074    6.2803    0.9818 C   0  0  1  0  0  0  0  0  0  0  0  0
    6.7214    6.8549    0.0447 C   0  0  0  0  0  0  0  0  0  0  0  0
    7.9083    7.2137    2.1921 C   0  0  0  0  0  0  0  0  0  0  0  0
    7.2869    7.0811    3.2112 O   0  0  0  0  0  0  0  0  0  0  0  0
    8.7217    8.2859    2.0292 O   0  0  0  0  0  0  0  0  0  0  0  0
    0.2202    0.3044    0.5413 H   0  0  0  0  0  0  0  0  0  0  0  0
    0.3190    2.0726    0.7019 H   0  0  0  0  0  0  0  0  0  0  0  0
    0.4636    1.0396    2.1416 H   0  0  0  0  0  0  0  0  0  0  0  0
    2.4876    1.1126   -0.2035 H   0  0  0  0  0  0  0  0  0  0  0  0
    2.6285    0.0803    1.2240 H   0  0  0  0  0  0  0  0  0  0  0  0
    2.7457    2.1576    2.6774 H   0  0  0  0  0  0  0  0  0  0  0  0
    2.6632    3.1612    1.2137 H   0  0  0  0  0  0  0  0  0  0  0  0
    4.9438    1.3941    1.8932 H   0  0  0  0  0  0  0  0  0  0  0  0
    7.0087    2.2706    1.4317 H   0  0  0  0  0  0  0  0  0  0  0  0
    6.4959    2.1730   -1.5995 H   0  0  0  0  0  0  0  0  0  0  0  0
    6.3405    0.7913   -0.4865 H   0  0  0  0  0  0  0  0  0  0  0  0
    7.9433    1.5449   -0.7675 H   0  0  0  0  0  0  0  0  0  0  0  0
    6.8350    4.4649   -0.4479 H   0  0  0  0  0  0  0  0  0  0  0  0
    6.6208    4.8699    2.0544 H   0  0  0  0  0  0  0  0  0  0  0  0
    9.6334    4.3141    1.7456 H   0  0  0  0  0  0  0  0  0  0  0  0
    8.5028    3.2638    2.6220 H   0  0  0  0  0  0  0  0  0  0  0  0
    8.7973    4.9015    3.2248 H   0  0  0  0  0  0  0  0  0  0  0  0
    8.7749    6.2924    0.4441 H   0  0  0  0  0  0  0  0  0  0  0  0
    5.7191    6.7059    0.4725 H   0  0  0  0  0  0  0  0  0  0  0  0
    6.7446    6.3781   -0.9461 H   0  0  0  0  0  0  0  0  0  0  0  0
    6.8741    7.9342   -0.1144 H   0  0  0  0  0  0  0  0  0  0  0  0
    9.1738    8.2341    1.1753 H   0  0  0  0  0  0  0  0  0  0  0  0
  1  2  1  0
  1 17  1  0
  1 18  1  0
  1 19  1  0
  2  3  1  0
  2 20  1  0
  2 21  1  0
  3  4  1  0
  3 22  1  0
  3 23  1  0
  4  5  1  0
  4 24  1  0
  5  6  2  0
  5  7  1  0
  7  8  1  0
  7  9  1  0
  7 25  1  1
  8 26  1  0
  8 27  1  0
  8 28  1  0
  9 10  1  0
  9 29  1  0
 10 11  1  0
 10 12  1  0
 10 30  1  1
 11 31  1  0
 11 32  1  0
 11 33  1  0
 12 13  1  0
 12 14  1  0
 12 34  1  6
 13 35  1  0
 13 36  1  0
 13 37  1  0
 14 15  2  0
 14 16  1  0
 16 38  1  0
M  END

