
     RDKit          3D

 50 52  0  0  0  0  0  0  0  0999 V2000
    2.3769   -2.3362    0.2916 O   0  0  0  0  0  0  0  0  0  0  0  0
    1.9974   -1.3983   -0.3848 C   0  0  0  0  0  0  0  0  0  0  0  0
    0.5011   -1.1083   -0.6001 C   0  0  0  0  0  0  0  0  0  0  0  0
   -0.2959   -2.1824   -0.1353 O   0  0  0  0  0  0  0  0  0  0  0  0
   -0.2579   -3.3012   -0.8747 C   0  0  0  0  0  0  0  0  0  0  0  0
    0.3025   -3.4085   -1.9388 O   0  0  0  0  0  0  0  0  0  0  0  0
   -1.0166   -4.4068   -0.2589 C   0  0  0  0  0  0  0  0  0  0  0  0
   -1.2022   -5.6942   -0.7130 C   0  0  0  0  0  0  0  0  0  0  0  0
   -2.0056   -6.3475    0.2601 C   0  0  0  0  0  0  0  0  0  0  0  0
   -2.2374   -5.3934    1.2195 C   0  0  0  0  0  0  0  0  0  0  0  0
   -2.9966   -5.4743    2.4432 N   0  0  0  0  0  0  0  0  0  0  0  0
   -3.5054   -6.5621    2.6770 O   0  0  0  0  0  0  0  0  0  0  0  0
   -3.0719   -4.4740    3.1328 O   0  0  0  0  0  0  0  0  0  0  0  0
   -1.6529   -4.2254    0.9252 O   0  0  0  0  0  0  0  0  0  0  0  0
    2.8294   -0.4998   -0.9759 N   0  0  0  0  0  0  0  0  0  0  0  0
    4.2789   -0.6355   -0.8884 C   0  0  0  0  0  0  0  0  0  0  0  0
    4.8449   -1.6616   -1.8795 C   0  0  0  0  0  0  0  0  0  0  0  0
    6.3633   -1.9045   -1.7456 C   0  0  1  0  0  0  0  0  0  0  0  0
    6.8089   -2.5005   -0.4076 C   0  0  0  0  0  0  0  0  0  0  0  0
    5.9491   -3.2086    0.4473 C   0  0  0  0  0  0  0  0  0  0  0  0
    6.4271   -3.7658    1.6404 C   0  0  0  0  0  0  0  0  0  0  0  0
    7.7682   -3.6262    2.0010 C   0  0  0  0  0  0  0  0  0  0  0  0
    8.6337   -2.9175    1.1605 C   0  0  0  0  0  0  0  0  0  0  0  0
    8.1558   -2.3627   -0.0271 C   0  0  0  0  0  0  0  0  0  0  0  0
    6.8615   -2.7373   -2.9285 C   0  0  0  0  0  0  0  0  0  0  0  0
    7.5188   -2.1210   -4.0042 C   0  0  0  0  0  0  0  0  0  0  0  0
    7.9418   -2.8627   -5.1120 C   0  0  0  0  0  0  0  0  0  0  0  0
    7.7108   -4.2396   -5.1621 C   0  0  0  0  0  0  0  0  0  0  0  0
    7.0573   -4.8663   -4.0959 C   0  0  0  0  0  0  0  0  0  0  0  0
    6.6393   -4.1225   -2.9899 C   0  0  0  0  0  0  0  0  0  0  0  0
    0.3007   -0.9076   -1.6651 H   0  0  0  0  0  0  0  0  0  0  0  0
    0.2035   -0.2353   -0.0015 H   0  0  0  0  0  0  0  0  0  0  0  0
   -0.7969   -6.1000   -1.6367 H   0  0  0  0  0  0  0  0  0  0  0  0
   -2.3728   -7.3695    0.2757 H   0  0  0  0  0  0  0  0  0  0  0  0
    2.4427    0.1698   -1.6312 H   0  0  0  0  0  0  0  0  0  0  0  0
    4.5210   -0.9261    0.1430 H   0  0  0  0  0  0  0  0  0  0  0  0
    4.7260    0.3568   -1.0613 H   0  0  0  0  0  0  0  0  0  0  0  0
    4.6405   -1.3173   -2.9072 H   0  0  0  0  0  0  0  0  0  0  0  0
    4.2981   -2.6103   -1.7636 H   0  0  0  0  0  0  0  0  0  0  0  0
    6.8574   -0.9205   -1.8313 H   0  0  0  0  0  0  0  0  0  0  0  0
    4.8879   -3.3145    0.2116 H   0  0  0  0  0  0  0  0  0  0  0  0
    5.7368   -4.3072    2.2925 H   0  0  0  0  0  0  0  0  0  0  0  0
    8.1376   -4.0608    2.9334 H   0  0  0  0  0  0  0  0  0  0  0  0
    9.6856   -2.7956    1.4325 H   0  0  0  0  0  0  0  0  0  0  0  0
    8.8423   -1.8156   -0.6803 H   0  0  0  0  0  0  0  0  0  0  0  0
    7.7050   -1.0430   -3.9738 H   0  0  0  0  0  0  0  0  0  0  0  0
    8.4561   -2.3619   -5.9366 H   0  0  0  0  0  0  0  0  0  0  0  0
    8.0417   -4.8230   -6.0251 H   0  0  0  0  0  0  0  0  0  0  0  0
    6.8757   -5.9441   -4.1230 H   0  0  0  0  0  0  0  0  0  0  0  0
    6.1428   -4.6269   -2.1570 H   0  0  0  0  0  0  0  0  0  0  0  0
  1  2  2  0
  2  3  1  0
  2 15  1  0
  3  4  1  0
  3 31  1  0
  3 32  1  0
  4  5  1  0
  5  6  2  0
  5  7  1  0
  7  8  2  0
  7 14  1  0
  8  9  1  0
  8 33  1  0
  9 10  2  0
  9 34  1  0
 10 11  1  0
 10 14  1  0
 11 12  2  0
 11 13  1  0
 15 16  1  0
 15 35  1  0
 16 17  1  0
 16 36  1  0
 16 37  1  0
 17 18  1  0
 17 38  1  0
 17 39  1  0
 18 19  1  0
 18 25  1  0
 18 40  1  6
 19 20  2  0
 19 24  1  0
 20 21  1  0
 20 41  1  0
 21 22  2  0
 21 42  1  0
 22 23  1  0
 22 43  1  0
 23 24  2  0
 23 44  1  0
 24 45  1  0
 25 26  2  0
 25 30  1  0
 26 27  1  0
 26 46  1  0
 27 28  2  0
 27 47  1  0
 28 29  1  0
 28 48  1  0
 29 30  2  0
 29 49  1  0
 30 50  1  0
M  CHG  2  11   1  13  -1
M  END

