
     RDKit          3D

 51 52  0  0  0  0  0  0  0  0999 V2000
    3.5020   -3.4956   -0.4265 C   0  0  0  0  0  0  0  0  0  0  0  0
    3.3202   -2.0083   -0.1445 C   0  0  0  0  0  0  0  0  0  0  0  0
    4.2924   -1.5271    0.8248 N   0  0  0  0  0  0  0  0  0  0  0  0
    4.2003   -0.1039    1.1193 C   0  0  0  0  0  0  0  0  0  0  0  0
    5.0902    0.3464    2.3051 C   0  0  1  0  0  0  0  0  0  0  0  0
    4.5477   -0.3661    3.5793 C   0  0  0  0  0  0  0  0  0  0  0  0
    5.2965   -0.0963    4.8055 N   0  0  0  0  0  0  0  0  0  0  0  0
    4.6125    0.6701    5.8414 C   0  0  0  0  0  0  0  0  0  0  0  0
    3.7264   -0.2033    6.7434 C   0  0  2  0  0  0  0  0  0  0  0  0
    2.9090   -0.6313    6.1221 H   0  0  0  0  0  0  0  0  0  0  0  0
    3.1227    0.5587    7.9112 C   0  0  0  0  0  0  0  0  0  0  0  0
    4.4969   -1.2726    7.2814 O   0  0  0  0  0  0  0  0  0  0  0  0
    5.1180   -2.0909    6.2952 C   0  0  2  0  0  0  0  0  0  0  0  0
    4.3262   -2.5504    5.6636 H   0  0  0  0  0  0  0  0  0  0  0  0
    5.8797   -3.1860    7.0226 C   0  0  0  0  0  0  0  0  0  0  0  0
    6.0108   -1.2246    5.3940 C   0  0  0  0  0  0  0  0  0  0  0  0
    6.5781   -0.0211    2.0903 C   0  0  0  0  0  0  0  0  0  0  0  0
    7.2631    0.7699    0.9673 C   0  0  0  0  0  0  0  0  0  0  0  0
    7.1439    2.2807    1.2010 C   0  0  0  0  0  0  0  0  0  0  0  0
    5.6805    2.7011    1.3804 C   0  0  0  0  0  0  0  0  0  0  0  0
    4.9852    1.8817    2.4788 C   0  0  0  0  0  0  0  0  0  0  0  0
    2.7382   -3.8619   -1.1302 H   0  0  0  0  0  0  0  0  0  0  0  0
    3.4304   -4.0791    0.5046 H   0  0  0  0  0  0  0  0  0  0  0  0
    4.4894   -3.6988   -0.8760 H   0  0  0  0  0  0  0  0  0  0  0  0
    2.3103   -1.8317    0.2676 H   0  0  0  0  0  0  0  0  0  0  0  0
    3.3549   -1.4422   -1.1050 H   0  0  0  0  0  0  0  0  0  0  0  0
    5.2311   -1.7530    0.4974 H   0  0  0  0  0  0  0  0  0  0  0  0
    3.1493    0.1118    1.3853 H   0  0  0  0  0  0  0  0  0  0  0  0
    4.4092    0.5218    0.2250 H   0  0  0  0  0  0  0  0  0  0  0  0
    4.5221   -1.4459    3.3609 H   0  0  0  0  0  0  0  0  0  0  0  0
    3.4904   -0.0660    3.7023 H   0  0  0  0  0  0  0  0  0  0  0  0
    4.0153    1.4701    5.3778 H   0  0  0  0  0  0  0  0  0  0  0  0
    5.3701    1.1593    6.4832 H   0  0  0  0  0  0  0  0  0  0  0  0
    2.4644    1.3670    7.5555 H   0  0  0  0  0  0  0  0  0  0  0  0
    3.9177    1.0011    8.5327 H   0  0  0  0  0  0  0  0  0  0  0  0
    2.5334   -0.1201    8.5459 H   0  0  0  0  0  0  0  0  0  0  0  0
    5.2027   -3.7471    7.6841 H   0  0  0  0  0  0  0  0  0  0  0  0
    6.6786   -2.7502    7.6439 H   0  0  0  0  0  0  0  0  0  0  0  0
    6.3350   -3.8894    6.3078 H   0  0  0  0  0  0  0  0  0  0  0  0
    6.4580   -1.8364    4.5957 H   0  0  0  0  0  0  0  0  0  0  0  0
    6.8424   -0.8371    6.0132 H   0  0  0  0  0  0  0  0  0  0  0  0
    6.6801   -1.1070    1.9186 H   0  0  0  0  0  0  0  0  0  0  0  0
    7.1017    0.1865    3.0388 H   0  0  0  0  0  0  0  0  0  0  0  0
    6.8170    0.5142   -0.0116 H   0  0  0  0  0  0  0  0  0  0  0  0
    8.3250    0.4770    0.9019 H   0  0  0  0  0  0  0  0  0  0  0  0
    7.6067    2.8400    0.3702 H   0  0  0  0  0  0  0  0  0  0  0  0
    7.7122    2.5474    2.1114 H   0  0  0  0  0  0  0  0  0  0  0  0
    5.1481    2.5837    0.4200 H   0  0  0  0  0  0  0  0  0  0  0  0
    5.6198    3.7746    1.6286 H   0  0  0  0  0  0  0  0  0  0  0  0
    3.9217    2.1736    2.5521 H   0  0  0  0  0  0  0  0  0  0  0  0
    5.4488    2.1335    3.4479 H   0  0  0  0  0  0  0  0  0  0  0  0
  1  2  1  0
  1 22  1  0
  1 23  1  0
  1 24  1  0
  2  3  1  0
  2 25  1  0
  2 26  1  0
  3  4  1  0
  3 27  1  0
  5  4  1  6
  4 28  1  0
  4 29  1  0
  5  6  1  0
  5 17  1  0
  5 21  1  0
  6  7  1  0
  6 30  1  0
  6 31  1  0
  7  8  1  0
  7 16  1  0
  8  9  1  0
  8 32  1  0
  8 33  1  0
  9 10  1  6
  9 11  1  0
  9 12  1  0
 11 34  1  0
 11 35  1  0
 11 36  1  0
 12 13  1  0
 13 14  1  6
 13 15  1  0
 13 16  1  0
 15 37  1  0
 15 38  1  0
 15 39  1  0
 16 40  1  0
 16 41  1  0
 17 18  1  0
 17 42  1  0
 17 43  1  0
 18 19  1  0
 18 44  1  0
 18 45  1  0
 19 20  1  0
 19 46  1  0
 19 47  1  0
 20 21  1  0
 20 48  1  0
 20 49  1  0
 21 50  1  0
 21 51  1  0
M  END

