
     RDKit          3D

 42 45  0  0  0  0  0  0  0  0999 V2000
    0.3195    0.4226    1.2795 C   0  0  0  0  0  0  0  0  0  0  0  0
    1.7671    0.0372    1.1123 C   0  0  1  0  0  0  0  0  0  0  0  0
    2.0707    0.0232    0.0472 H   0  0  0  0  0  0  0  0  0  0  0  0
    2.6330    0.9641    1.8006 O   0  0  0  0  0  0  0  0  0  0  0  0
    3.4999    0.2254    2.5310 C   0  0  0  0  0  0  0  0  0  0  0  0
    4.5826    0.6537    3.2827 C   0  0  0  0  0  0  0  0  0  0  0  0
    5.3126   -0.3318    3.9669 C   0  0  0  0  0  0  0  0  0  0  0  0
    4.9645   -1.6928    3.8961 C   0  0  0  0  0  0  0  0  0  0  0  0
    5.7331   -2.7542    4.5969 C   0  0  0  0  0  0  0  0  0  0  0  0
    5.3923   -3.9305    4.4907 O   0  0  0  0  0  0  0  0  0  0  0  0
    6.9333   -2.3672    5.4517 C   0  0  0  0  0  0  0  0  0  0  0  0
    7.5070   -3.5003    6.3463 C   0  0  1  0  0  0  0  0  0  0  0  0
    6.6430   -4.0810    6.7080 H   0  0  0  0  0  0  0  0  0  0  0  0
    8.3794   -4.4870    5.5285 C   0  0  0  0  0  0  0  0  0  0  0  0
    9.5753   -4.5723    5.6322 O   0  0  0  0  0  0  0  0  0  0  0  0
    7.6971   -5.2533    4.6726 O   0  0  0  0  0  0  0  0  0  0  0  0
    8.2258   -2.9307    7.5567 C   0  0  0  0  0  0  0  0  0  0  0  0
    9.4285   -2.2206    7.4274 C   0  0  0  0  0  0  0  0  0  0  0  0
   10.0815   -1.6544    8.5382 C   0  0  0  0  0  0  0  0  0  0  0  0
    9.4897   -1.8298    9.7766 C   0  0  0  0  0  0  0  0  0  0  0  0
    8.2944   -2.5355    9.9188 C   0  0  0  0  0  0  0  0  0  0  0  0
    7.6404   -3.0920    8.8342 C   0  0  0  0  0  0  0  0  0  0  0  0
    7.9220   -2.5339   11.2367 O   0  0  0  0  0  0  0  0  0  0  0  0
    9.0225   -1.9789   11.9513 C   0  0  0  0  0  0  0  0  0  0  0  0
    9.8926   -1.3708   11.0019 O   0  0  0  0  0  0  0  0  0  0  0  0
    3.8479   -2.1061    3.1195 C   0  0  0  0  0  0  0  0  0  0  0  0
    3.1421   -1.1300    2.4550 C   0  0  0  0  0  0  0  0  0  0  0  0
    2.0309   -1.2538    1.6746 O   0  0  0  0  0  0  0  0  0  0  0  0
    0.1463    1.4208    0.8515 H   0  0  0  0  0  0  0  0  0  0  0  0
    0.0542    0.4340    2.3468 H   0  0  0  0  0  0  0  0  0  0  0  0
   -0.3198   -0.3037    0.7565 H   0  0  0  0  0  0  0  0  0  0  0  0
    4.8503    1.7095    3.3371 H   0  0  0  0  0  0  0  0  0  0  0  0
    6.1717   -0.0151    4.5590 H   0  0  0  0  0  0  0  0  0  0  0  0
    6.6284   -1.5347    6.1048 H   0  0  0  0  0  0  0  0  0  0  0  0
    7.7160   -1.9494    4.7941 H   0  0  0  0  0  0  0  0  0  0  0  0
    6.7474   -4.9872    4.6579 H   0  0  0  0  0  0  0  0  0  0  0  0
    9.8922   -2.1298    6.4449 H   0  0  0  0  0  0  0  0  0  0  0  0
   11.0195   -1.1073    8.4320 H   0  0  0  0  0  0  0  0  0  0  0  0
    6.7062   -3.6407    8.9695 H   0  0  0  0  0  0  0  0  0  0  0  0
    9.5619   -2.7844   12.4898 H   0  0  0  0  0  0  0  0  0  0  0  0
    8.6592   -1.2202   12.6632 H   0  0  0  0  0  0  0  0  0  0  0  0
    3.5803   -3.1611    3.0688 H   0  0  0  0  0  0  0  0  0  0  0  0
  1  2  1  0
  1 29  1  0
  1 30  1  0
  1 31  1  0
  2  3  1  6
  2  4  1  0
  2 28  1  0
  4  5  1  0
  5  6  2  0
  5 27  1  0
  6  7  1  0
  6 32  1  0
  7  8  2  0
  7 33  1  0
  8  9  1  0
  8 26  1  0
  9 10  2  0
  9 11  1  0
 11 12  1  0
 11 34  1  0
 11 35  1  0
 12 13  1  1
 12 14  1  0
 12 17  1  0
 14 15  2  0
 14 16  1  0
 16 36  1  0
 17 18  2  0
 17 22  1  0
 18 19  1  0
 18 37  1  0
 19 20  2  0
 19 38  1  0
 20 21  1  0
 20 25  1  0
 21 22  2  0
 21 23  1  0
 22 39  1  0
 23 24  1  0
 24 25  1  0
 24 40  1  0
 24 41  1  0
 26 27  2  0
 26 42  1  0
 27 28  1  0
M  END

