
     RDKit          3D

 30 31  0  0  0  0  0  0  0  0999 V2000
    1.0496    0.0314   -0.3305 C   0  0  0  0  0  0  0  0  0  0  0  0
    2.4959    0.1019   -0.4079 N   0  0  0  0  0  0  0  0  0  0  0  0
    3.1081   -1.0743   -1.0101 C   0  0  0  0  0  0  0  0  0  0  0  0
    4.6021   -0.9641   -1.0790 C   0  0  0  0  0  0  0  0  0  0  0  0
    5.6295   -1.4532    0.2438 S   0  0  0  0  0  0  0  0  0  0  0  0
    7.0439   -0.9201   -0.6575 C   0  0  0  0  0  0  0  0  0  0  0  0
    8.4083   -1.0309   -0.1306 C   0  0  0  0  0  0  0  0  0  0  0  0
    9.4880   -0.5898   -0.9115 C   0  0  0  0  0  0  0  0  0  0  0  0
   10.7999   -0.6790   -0.4421 C   0  0  0  0  0  0  0  0  0  0  0  0
   11.0728   -1.2136    0.8259 C   0  0  0  0  0  0  0  0  0  0  0  0
   12.2939   -1.3485    1.3808 O   0  0  0  0  0  0  0  0  0  0  0  0
   13.4290   -0.9265    0.6547 C   0  0  0  0  0  0  0  0  0  0  0  0
    9.9792   -1.6544    1.6030 C   0  0  0  0  0  0  0  0  0  0  0  0
   10.2245   -2.1661    2.8143 F   0  0  0  0  0  0  0  0  0  0  0  0
    8.6779   -1.5686    1.1446 C   0  0  0  0  0  0  0  0  0  0  0  0
    6.7484   -0.4285   -1.8339 N   0  0  0  0  0  0  0  0  0  0  0  0
    5.4143   -0.4469   -2.0627 C   0  0  0  0  0  0  0  0  0  0  0  0
    4.7586    0.2225   -3.7118 Br  0  0  0  0  0  0  0  0  0  0  0  0
    0.6584    0.9290    0.1728 H   0  0  0  0  0  0  0  0  0  0  0  0
    0.6563   -0.8619    0.2067 H   0  0  0  0  0  0  0  0  0  0  0  0
    0.6202    0.0121   -1.3468 H   0  0  0  0  0  0  0  0  0  0  0  0
    2.8962    0.2666    0.5146 H   0  0  0  0  0  0  0  0  0  0  0  0
    2.7300   -1.1692   -2.0422 H   0  0  0  0  0  0  0  0  0  0  0  0
    2.8357   -2.0240   -0.4942 H   0  0  0  0  0  0  0  0  0  0  0  0
    9.2830   -0.1733   -1.8984 H   0  0  0  0  0  0  0  0  0  0  0  0
   11.6152   -0.3272   -1.0744 H   0  0  0  0  0  0  0  0  0  0  0  0
   14.2987   -1.1296    1.2931 H   0  0  0  0  0  0  0  0  0  0  0  0
   13.3920    0.1545    0.4306 H   0  0  0  0  0  0  0  0  0  0  0  0
   13.5394   -1.4850   -0.2918 H   0  0  0  0  0  0  0  0  0  0  0  0
    7.8830   -1.9291    1.8014 H   0  0  0  0  0  0  0  0  0  0  0  0
  1  2  1  0
  1 19  1  0
  1 20  1  0
  1 21  1  0
  2  3  1  0
  2 22  1  0
  3  4  1  0
  3 23  1  0
  3 24  1  0
  4  5  1  0
  4 17  2  0
  5  6  1  0
  6  7  1  0
  6 16  2  0
  7  8  2  0
  7 15  1  0
  8  9  1  0
  8 25  1  0
  9 10  2  0
  9 26  1  0
 10 11  1  0
 10 13  1  0
 11 12  1  0
 12 27  1  0
 12 28  1  0
 12 29  1  0
 13 14  1  0
 13 15  2  0
 15 30  1  0
 16 17  1  0
 17 18  1  0
M  END

