
     RDKit          3D

 56 57  0  0  0  0  0  0  0  0999 V2000
    4.1707    0.6542   -1.2371 C   0  0  0  0  0  0  0  0  0  0  0  0
    4.2220    0.5599    0.2903 C   0  0  1  0  0  0  0  0  0  0  0  0
    2.9011    0.9906    0.9564 C   0  0  0  0  0  0  0  0  0  0  0  0
    2.5161    2.3634    0.6833 N   0  0  0  0  0  0  0  0  0  0  0  0
    2.8082    3.3903    1.5383 C   0  0  0  0  0  0  0  0  0  0  0  0
    3.4103    3.2194    2.5873 O   0  0  0  0  0  0  0  0  0  0  0  0
    2.2951    4.7656    1.1189 C   0  0  0  0  0  0  0  0  0  0  0  0
    3.3491    5.8679    1.3292 C   0  0  1  0  0  0  0  0  0  0  0  0
    4.5539    5.6162    0.4083 C   0  0  0  0  0  0  0  0  0  0  0  0
    2.7904    7.3076    1.1494 C   0  0  1  0  0  0  0  0  0  0  0  0
    1.4242    7.5777    1.8208 C   0  0  0  0  0  0  0  0  0  0  0  0
    1.5206    7.6044    3.3533 C   0  0  0  0  0  0  0  0  0  0  0  0
    2.5959    8.6085    3.8014 C   0  0  0  0  0  0  0  0  0  0  0  0
    3.8842    8.4349    3.1400 N   0  0  0  0  0  0  0  0  0  0  0  0
    3.7793    8.3774    1.6873 C   0  0  0  0  0  0  0  0  0  0  0  0
    4.5906   -0.8487    0.7551 C   0  0  0  0  0  0  0  0  0  0  0  0
    5.8499   -1.2012    0.2345 O   0  0  0  0  0  0  0  0  0  0  0  0
    6.2715   -2.5003    0.5668 C   0  0  0  0  0  0  0  0  0  0  0  0
    7.6674   -2.7595    0.0473 C   0  0  0  0  0  0  0  0  0  0  0  0
    8.5679   -1.7054   -0.1598 C   0  0  0  0  0  0  0  0  0  0  0  0
    9.8690   -1.9627   -0.6015 C   0  0  0  0  0  0  0  0  0  0  0  0
   10.2885   -3.2754   -0.8369 C   0  0  0  0  0  0  0  0  0  0  0  0
    9.3952   -4.3317   -0.6332 C   0  0  0  0  0  0  0  0  0  0  0  0
    8.0927   -4.0732   -0.1987 C   0  0  0  0  0  0  0  0  0  0  0  0
    3.9842    1.6883   -1.5674 H   0  0  0  0  0  0  0  0  0  0  0  0
    3.3695    0.0136   -1.6472 H   0  0  0  0  0  0  0  0  0  0  0  0
    5.1218    0.3227   -1.6767 H   0  0  0  0  0  0  0  0  0  0  0  0
    5.0108    1.2370    0.6624 H   0  0  0  0  0  0  0  0  0  0  0  0
    2.9945    0.9019    2.0488 H   0  0  0  0  0  0  0  0  0  0  0  0
    2.0830    0.3234    0.6305 H   0  0  0  0  0  0  0  0  0  0  0  0
    2.0395    2.5763   -0.1834 H   0  0  0  0  0  0  0  0  0  0  0  0
    1.4139    4.9529    1.7526 H   0  0  0  0  0  0  0  0  0  0  0  0
    1.9394    4.7609    0.0731 H   0  0  0  0  0  0  0  0  0  0  0  0
    3.6934    5.7483    2.3707 H   0  0  0  0  0  0  0  0  0  0  0  0
    4.2587    5.6790   -0.6538 H   0  0  0  0  0  0  0  0  0  0  0  0
    4.9863    4.6191    0.5832 H   0  0  0  0  0  0  0  0  0  0  0  0
    5.3608    6.3462    0.5689 H   0  0  0  0  0  0  0  0  0  0  0  0
    2.6698    7.4776    0.0623 H   0  0  0  0  0  0  0  0  0  0  0  0
    0.6586    6.8595    1.4872 H   0  0  0  0  0  0  0  0  0  0  0  0
    1.0707    8.5663    1.4747 H   0  0  0  0  0  0  0  0  0  0  0  0
    1.7704    6.5995    3.7393 H   0  0  0  0  0  0  0  0  0  0  0  0
    0.5447    7.8733    3.7943 H   0  0  0  0  0  0  0  0  0  0  0  0
    2.7470    8.5618    4.8925 H   0  0  0  0  0  0  0  0  0  0  0  0
    2.2382    9.6328    3.5806 H   0  0  0  0  0  0  0  0  0  0  0  0
    4.3578    7.6065    3.4978 H   0  0  0  0  0  0  0  0  0  0  0  0
    4.7873    8.2359    1.2685 H   0  0  0  0  0  0  0  0  0  0  0  0
    3.4384    9.3683    1.3345 H   0  0  0  0  0  0  0  0  0  0  0  0
    3.8181   -1.5750    0.4175 H   0  0  0  0  0  0  0  0  0  0  0  0
    4.6065   -0.8920    1.8646 H   0  0  0  0  0  0  0  0  0  0  0  0
    5.5712   -3.2576    0.1558 H   0  0  0  0  0  0  0  0  0  0  0  0
    6.2565   -2.6332    1.6715 H   0  0  0  0  0  0  0  0  0  0  0  0
    8.2347   -0.6822    0.0205 H   0  0  0  0  0  0  0  0  0  0  0  0
   10.5600   -1.1309   -0.7629 H   0  0  0  0  0  0  0  0  0  0  0  0
   11.3063   -3.4749   -1.1821 H   0  0  0  0  0  0  0  0  0  0  0  0
    9.7110   -5.3613   -0.8212 H   0  0  0  0  0  0  0  0  0  0  0  0
    7.3961   -4.9046   -0.0521 H   0  0  0  0  0  0  0  0  0  0  0  0
  1  2  1  0
  1 25  1  0
  1 26  1  0
  1 27  1  0
  2  3  1  0
  2 16  1  0
  2 28  1  1
  3  4  1  0
  3 29  1  0
  3 30  1  0
  4  5  1  0
  4 31  1  0
  5  6  2  0
  5  7  1  0
  7  8  1  0
  7 32  1  0
  7 33  1  0
  8  9  1  0
  8 10  1  0
  8 34  1  1
  9 35  1  0
  9 36  1  0
  9 37  1  0
 10 11  1  0
 10 15  1  0
 10 38  1  6
 11 12  1  0
 11 39  1  0
 11 40  1  0
 12 13  1  0
 12 41  1  0
 12 42  1  0
 13 14  1  0
 13 43  1  0
 13 44  1  0
 14 15  1  0
 14 45  1  0
 15 46  1  0
 15 47  1  0
 16 17  1  0
 16 48  1  0
 16 49  1  0
 17 18  1  0
 18 19  1  0
 18 50  1  0
 18 51  1  0
 19 20  2  0
 19 24  1  0
 20 21  1  0
 20 52  1  0
 21 22  2  0
 21 53  1  0
 22 23  1  0
 22 54  1  0
 23 24  2  0
 23 55  1  0
 24 56  1  0
M  END

