
     RDKit          3D

 54 55  0  0  0  0  0  0  0  0999 V2000
    2.5643    1.3886    0.3189 C   0  0  0  0  0  0  0  0  0  0  0  0
    2.1118   -0.0747    0.2903 C   0  0  0  0  0  0  0  0  0  0  0  0
    3.1117   -1.1358    0.8320 C   0  0  1  0  0  0  0  0  0  0  0  0
    3.5328   -0.8107    2.2900 C   0  0  0  0  0  0  0  0  0  0  0  0
    2.4129   -0.6736    3.3253 C   0  0  0  0  0  0  0  0  0  0  0  0
    2.4515   -2.5402    0.7726 C   0  0  0  0  0  0  0  0  0  0  0  0
    2.3150   -3.1055   -0.6539 C   0  0  0  0  0  0  0  0  0  0  0  0
    3.5757   -3.1529   -1.3937 N   0  0  0  0  0  0  0  0  0  0  0  0
    4.3898   -4.3560   -1.0952 C   0  0  1  0  0  0  0  0  0  0  0  0
    3.8575   -5.5251   -1.9520 C   0  0  0  0  0  0  0  0  0  0  0  0
    4.0278   -5.2295   -3.3702 N   0  0  0  0  0  0  0  0  0  0  0  0
    5.8909   -4.1709   -1.3477 C   0  0  0  0  0  0  0  0  0  0  0  0
    6.7290   -5.3092   -0.7654 C   0  0  0  0  0  0  0  0  0  0  0  0
    6.2763   -6.1455    0.0077 O   0  0  0  0  0  0  0  0  0  0  0  0
    8.0459   -5.3280   -1.1296 N   0  0  0  0  0  0  0  0  0  0  0  0
    8.7325   -4.3830   -2.0146 C   0  0  0  0  0  0  0  0  0  0  0  0
   10.1176   -5.0175   -2.2088 C   0  0  0  0  0  0  0  0  0  0  0  0
   10.3478   -5.7726   -0.8916 C   0  0  0  0  0  0  0  0  0  0  0  0
    8.9577   -6.3276   -0.5612 C   0  0  0  0  0  0  0  0  0  0  0  0
    4.1793   -1.8246   -1.4213 C   0  0  0  0  0  0  0  0  0  0  0  0
    4.3996   -1.1979   -0.0331 C   0  0  0  0  0  0  0  0  0  0  0  0
    1.7827    2.0395   -0.1051 H   0  0  0  0  0  0  0  0  0  0  0  0
    3.4786    1.5555   -0.2728 H   0  0  0  0  0  0  0  0  0  0  0  0
    2.7642    1.7458    1.3414 H   0  0  0  0  0  0  0  0  0  0  0  0
    1.8377   -0.3321   -0.7456 H   0  0  0  0  0  0  0  0  0  0  0  0
    1.1728   -0.1662    0.8630 H   0  0  0  0  0  0  0  0  0  0  0  0
    4.1344    0.1153    2.2861 H   0  0  0  0  0  0  0  0  0  0  0  0
    4.2248   -1.6054    2.6209 H   0  0  0  0  0  0  0  0  0  0  0  0
    1.7354    0.1659    3.1021 H   0  0  0  0  0  0  0  0  0  0  0  0
    2.8356   -0.4909    4.3264 H   0  0  0  0  0  0  0  0  0  0  0  0
    1.7989   -1.5856    3.3946 H   0  0  0  0  0  0  0  0  0  0  0  0
    1.4557   -2.5172    1.2470 H   0  0  0  0  0  0  0  0  0  0  0  0
    3.0623   -3.2402    1.3702 H   0  0  0  0  0  0  0  0  0  0  0  0
    1.5950   -2.4972   -1.2309 H   0  0  0  0  0  0  0  0  0  0  0  0
    1.8825   -4.1164   -0.6064 H   0  0  0  0  0  0  0  0  0  0  0  0
    4.2839   -4.6569   -0.0361 H   0  0  0  0  0  0  0  0  0  0  0  0
    2.8047   -5.7215   -1.6574 H   0  0  0  0  0  0  0  0  0  0  0  0
    4.4228   -6.4319   -1.6890 H   0  0  0  0  0  0  0  0  0  0  0  0
    3.4997   -4.3807   -3.5811 H   0  0  0  0  0  0  0  0  0  0  0  0
    3.6389   -5.9765   -3.9440 H   0  0  0  0  0  0  0  0  0  0  0  0
    6.2680   -3.2439   -0.8865 H   0  0  0  0  0  0  0  0  0  0  0  0
    6.0689   -4.0903   -2.4307 H   0  0  0  0  0  0  0  0  0  0  0  0
    8.8152   -3.3836   -1.5455 H   0  0  0  0  0  0  0  0  0  0  0  0
    8.1953   -4.2515   -2.9668 H   0  0  0  0  0  0  0  0  0  0  0  0
   10.8946   -4.2713   -2.4324 H   0  0  0  0  0  0  0  0  0  0  0  0
   10.0871   -5.7288   -3.0512 H   0  0  0  0  0  0  0  0  0  0  0  0
   10.6719   -5.0705   -0.1047 H   0  0  0  0  0  0  0  0  0  0  0  0
   11.1122   -6.5599   -0.9690 H   0  0  0  0  0  0  0  0  0  0  0  0
    8.7665   -6.4499    0.5150 H   0  0  0  0  0  0  0  0  0  0  0  0
    8.7880   -7.3151   -1.0289 H   0  0  0  0  0  0  0  0  0  0  0  0
    3.5089   -1.1728   -2.0113 H   0  0  0  0  0  0  0  0  0  0  0  0
    5.1235   -1.8495   -1.9825 H   0  0  0  0  0  0  0  0  0  0  0  0
    4.8370   -0.1908   -0.1441 H   0  0  0  0  0  0  0  0  0  0  0  0
    5.1510   -1.7954    0.5134 H   0  0  0  0  0  0  0  0  0  0  0  0
  1  2  1  0
  1 22  1  0
  1 23  1  0
  1 24  1  0
  3  2  1  6
  2 25  1  0
  2 26  1  0
  3  4  1  0
  3  6  1  0
  3 21  1  0
  4  5  1  0
  4 27  1  0
  4 28  1  0
  5 29  1  0
  5 30  1  0
  5 31  1  0
  6  7  1  0
  6 32  1  0
  6 33  1  0
  7  8  1  0
  7 34  1  0
  7 35  1  0
  8  9  1  0
  8 20  1  0
  9 10  1  0
  9 12  1  0
  9 36  1  1
 10 11  1  0
 10 37  1  0
 10 38  1  0
 11 39  1  0
 11 40  1  0
 12 13  1  0
 12 41  1  0
 12 42  1  0
 13 14  2  0
 13 15  1  0
 15 16  1  0
 15 19  1  0
 16 17  1  0
 16 43  1  0
 16 44  1  0
 17 18  1  0
 17 45  1  0
 17 46  1  0
 18 19  1  0
 18 47  1  0
 18 48  1  0
 19 49  1  0
 19 50  1  0
 20 21  1  0
 20 51  1  0
 20 52  1  0
 21 53  1  0
 21 54  1  0
M  END

