
     RDKit          3D

 42 42  0  0  0  0  0  0  0  0999 V2000
    2.9551    0.9200    3.3520 C   0  0  0  0  0  0  0  0  0  0  0  0
    2.6392    0.9838    1.8516 C   0  0  1  0  0  0  0  0  0  0  0  0
    3.0383    2.3461    1.2686 C   0  0  0  0  0  0  0  0  0  0  0  0
    3.1598   -0.2093    1.0210 C   0  0  0  0  0  0  0  0  0  0  0  0
    4.6298   -0.3171    0.8542 N   0  0  0  0  0  0  0  0  0  0  0  0
    5.0223   -0.8592   -0.4545 C   0  0  0  0  0  0  0  0  0  0  0  0
    5.1459    0.1901   -1.5659 C   0  0  0  0  0  0  0  0  0  0  0  0
    5.2740   -0.1051   -2.7220 O   0  0  0  0  0  0  0  0  0  0  0  0
    5.1406    1.4623   -1.1358 O   0  0  0  0  0  0  0  0  0  0  0  0
    5.2927   -0.9252    1.9714 C   0  0  0  0  0  0  0  0  0  0  0  0
    4.6698   -1.5365    2.8220 O   0  0  0  0  0  0  0  0  0  0  0  0
    6.6633   -0.7963    2.0075 N   0  0  0  0  0  0  0  0  0  0  0  0
    7.3922   -1.5086    3.0592 C   0  0  0  0  0  0  0  0  0  0  0  0
    8.6912   -2.0999    2.5078 C   0  0  0  0  0  0  0  0  0  0  0  0
    9.5469   -1.0300    1.8212 C   0  0  0  0  0  0  0  0  0  0  0  0
    8.7478   -0.2674    0.7523 C   0  0  2  0  0  0  0  0  0  0  0  0
    9.5527    0.8677    0.1164 C   0  0  0  0  0  0  0  0  0  0  0  0
    7.4385    0.2617    1.3613 C   0  0  0  0  0  0  0  0  0  0  0  0
    2.3999    1.7078    3.8871 H   0  0  0  0  0  0  0  0  0  0  0  0
    4.0265    1.0828    3.5511 H   0  0  0  0  0  0  0  0  0  0  0  0
    2.6892   -0.0540    3.7856 H   0  0  0  0  0  0  0  0  0  0  0  0
    1.5405    0.8984    1.7524 H   0  0  0  0  0  0  0  0  0  0  0  0
    4.1149    2.5458    1.4106 H   0  0  0  0  0  0  0  0  0  0  0  0
    2.5021    3.1601    1.7815 H   0  0  0  0  0  0  0  0  0  0  0  0
    2.8131    2.4254    0.1932 H   0  0  0  0  0  0  0  0  0  0  0  0
    2.7421   -0.1116    0.0071 H   0  0  0  0  0  0  0  0  0  0  0  0
    2.7738   -1.1495    1.4487 H   0  0  0  0  0  0  0  0  0  0  0  0
    4.3212   -1.6356   -0.8080 H   0  0  0  0  0  0  0  0  0  0  0  0
    6.0028   -1.3511   -0.3785 H   0  0  0  0  0  0  0  0  0  0  0  0
    4.9797    1.4344   -0.1708 H   0  0  0  0  0  0  0  0  0  0  0  0
    6.7293   -2.2799    3.4678 H   0  0  0  0  0  0  0  0  0  0  0  0
    7.6206   -0.8056    3.8857 H   0  0  0  0  0  0  0  0  0  0  0  0
    8.4428   -2.8984    1.7868 H   0  0  0  0  0  0  0  0  0  0  0  0
    9.2502   -2.5754    3.3305 H   0  0  0  0  0  0  0  0  0  0  0  0
   10.4462   -1.4820    1.3704 H   0  0  0  0  0  0  0  0  0  0  0  0
    9.9074   -0.3070    2.5775 H   0  0  0  0  0  0  0  0  0  0  0  0
    8.4735   -0.9875   -0.0418 H   0  0  0  0  0  0  0  0  0  0  0  0
    9.8385    1.6230    0.8683 H   0  0  0  0  0  0  0  0  0  0  0  0
    8.9779    1.3793   -0.6723 H   0  0  0  0  0  0  0  0  0  0  0  0
   10.4802    0.4862   -0.3389 H   0  0  0  0  0  0  0  0  0  0  0  0
    6.8365    0.7580    0.5951 H   0  0  0  0  0  0  0  0  0  0  0  0
    7.6875    1.0348    2.1181 H   0  0  0  0  0  0  0  0  0  0  0  0
  1  2  1  0
  1 19  1  0
  1 20  1  0
  1 21  1  0
  2  3  1  0
  2  4  1  0
  2 22  1  1
  3 23  1  0
  3 24  1  0
  3 25  1  0
  4  5  1  0
  4 26  1  0
  4 27  1  0
  5  6  1  0
  5 10  1  0
  6  7  1  0
  6 28  1  0
  6 29  1  0
  7  8  2  0
  7  9  1  0
  9 30  1  0
 10 11  2  0
 10 12  1  0
 12 13  1  0
 12 18  1  0
 13 14  1  0
 13 31  1  0
 13 32  1  0
 14 15  1  0
 14 33  1  0
 14 34  1  0
 15 16  1  0
 15 35  1  0
 15 36  1  0
 16 17  1  0
 16 18  1  0
 16 37  1  6
 17 38  1  0
 17 39  1  0
 17 40  1  0
 18 41  1  0
 18 42  1  0
M  END

