
     RDKit          3D

 38 39  0  0  0  0  0  0  0  0999 V2000
    4.2916    0.5837   -0.0113 C   0  0  0  0  0  0  0  0  0  0  0  0
    3.6713   -0.7935   -0.2621 C   0  0  0  0  0  0  0  0  0  0  0  0
    3.6421   -1.7614    0.9445 C   0  0  1  0  0  0  0  0  0  0  0  0
    2.9216   -1.1338    2.1786 C   0  0  0  0  0  0  0  0  0  0  0  0
    1.4819   -0.6564    1.9727 C   0  0  0  0  0  0  0  0  0  0  0  0
    2.9000   -3.0650    0.5821 C   0  0  0  0  0  0  0  0  0  0  0  0
    3.6972   -4.0817   -0.9156 Br  0  0  0  0  0  0  0  0  0  0  0  0
    5.0366   -2.0590    1.3101 N   0  0  0  0  0  0  0  0  0  0  0  0
    5.4429   -2.9344    2.2752 C   0  0  0  0  0  0  0  0  0  0  0  0
    4.6818   -3.5174    3.0347 O   0  0  0  0  0  0  0  0  0  0  0  0
    6.9482   -3.1979    2.3246 C   0  0  1  0  0  0  0  0  0  0  0  0
    7.4778   -4.2618    1.2649 C   0  0  0  0  0  0  0  0  0  0  0  0
    8.4049   -3.1654    0.7660 C   0  0  0  0  0  0  0  0  0  0  0  0
    9.4083   -2.8664   -0.1492 C   0  0  0  0  0  0  0  0  0  0  0  0
    9.9144   -1.5551   -0.1030 C   0  0  0  0  0  0  0  0  0  0  0  0
    9.4353   -0.6081    0.8177 C   0  0  0  0  0  0  0  0  0  0  0  0
    8.4254   -0.9251    1.7436 C   0  0  0  0  0  0  0  0  0  0  0  0
    7.9313   -2.2251    1.6845 C   0  0  0  0  0  0  0  0  0  0  0  0
    4.3282    1.1588   -0.9497 H   0  0  0  0  0  0  0  0  0  0  0  0
    5.3240    0.5143    0.3677 H   0  0  0  0  0  0  0  0  0  0  0  0
    3.7147    1.1765    0.7149 H   0  0  0  0  0  0  0  0  0  0  0  0
    4.2087   -1.2970   -1.0825 H   0  0  0  0  0  0  0  0  0  0  0  0
    2.6376   -0.6701   -0.6229 H   0  0  0  0  0  0  0  0  0  0  0  0
    3.5438   -0.2882    2.5134 H   0  0  0  0  0  0  0  0  0  0  0  0
    2.9595   -1.8733    2.9909 H   0  0  0  0  0  0  0  0  0  0  0  0
    1.3983    0.1243    1.2000 H   0  0  0  0  0  0  0  0  0  0  0  0
    1.0954   -0.2265    2.9103 H   0  0  0  0  0  0  0  0  0  0  0  0
    0.8001   -1.4755    1.6942 H   0  0  0  0  0  0  0  0  0  0  0  0
    1.8695   -2.8636    0.2697 H   0  0  0  0  0  0  0  0  0  0  0  0
    2.9140   -3.7555    1.4314 H   0  0  0  0  0  0  0  0  0  0  0  0
    5.7586   -1.6992    0.6958 H   0  0  0  0  0  0  0  0  0  0  0  0
    7.1795   -3.4793    3.3626 H   0  0  0  0  0  0  0  0  0  0  0  0
    6.7134   -4.6042    0.5495 H   0  0  0  0  0  0  0  0  0  0  0  0
    7.9657   -5.1408    1.7144 H   0  0  0  0  0  0  0  0  0  0  0  0
    9.7946   -3.5915   -0.8703 H   0  0  0  0  0  0  0  0  0  0  0  0
   10.7027   -1.2600   -0.8010 H   0  0  0  0  0  0  0  0  0  0  0  0
    9.8647    0.3974    0.8141 H   0  0  0  0  0  0  0  0  0  0  0  0
    8.0665   -0.1821    2.4609 H   0  0  0  0  0  0  0  0  0  0  0  0
  1  2  1  0
  1 19  1  0
  1 20  1  0
  1 21  1  0
  2  3  1  0
  2 22  1  0
  2 23  1  0
  3  4  1  0
  3  6  1  0
  3  8  1  1
  4  5  1  0
  4 24  1  0
  4 25  1  0
  5 26  1  0
  5 27  1  0
  5 28  1  0
  6  7  1  0
  6 29  1  0
  6 30  1  0
  8  9  1  0
  8 31  1  0
  9 10  2  0
  9 11  1  0
 11 12  1  0
 11 18  1  0
 11 32  1  1
 12 13  1  0
 12 33  1  0
 12 34  1  0
 13 14  1  0
 13 18  2  0
 14 15  2  0
 14 35  1  0
 15 16  1  0
 15 36  1  0
 16 17  2  0
 16 37  1  0
 17 18  1  0
 17 38  1  0
M  END

