
     RDKit          3D

 44 45  0  0  0  0  0  0  0  0999 V2000
    3.0326    0.3030   -2.2313 C   0  0  0  0  0  0  0  0  0  0  0  0
    2.4441    0.0472   -0.8426 C   0  0  1  0  0  0  0  0  0  0  0  0
    0.9090    0.0198   -0.8739 C   0  0  0  0  0  0  0  0  0  0  0  0
    0.3325    1.2065   -1.3804 O   0  0  0  0  0  0  0  0  0  0  0  0
    2.9805   -1.2480   -0.2099 C   0  0  0  0  0  0  0  0  0  0  0  0
    4.4201   -1.2916   -0.0767 N   0  0  0  0  0  0  0  0  0  0  0  0
    5.0410   -0.3573    0.8476 C   0  0  0  0  0  0  0  0  0  0  0  0
    6.4763   -0.8695    0.9294 C   0  0  0  0  0  0  0  0  0  0  0  0
    6.2828   -2.3958    0.9832 C   0  0  2  0  0  0  0  0  0  0  0  0
    7.4264   -3.1650    0.4975 N   0  0  0  0  0  0  0  0  0  0  0  0
    8.7258   -2.8169    1.0769 C   0  0  0  0  0  0  0  0  0  0  0  0
    8.9465   -3.3535    2.5033 C   0  0  0  0  0  0  0  0  0  0  0  0
    8.7394   -4.8778    2.5803 C   0  0  2  0  0  0  0  0  0  0  0  0
    9.8997   -5.5709    2.0124 N   0  0  0  0  0  0  0  0  0  0  0  0
    7.3818   -5.2383    1.9292 C   0  0  0  0  0  0  0  0  0  0  0  0
    7.2402   -4.6179    0.5274 C   0  0  0  0  0  0  0  0  0  0  0  0
    5.0062   -2.6186    0.1265 C   0  0  0  0  0  0  0  0  0  0  0  0
    2.6202    1.2267   -2.6628 H   0  0  0  0  0  0  0  0  0  0  0  0
    2.7813   -0.5261   -2.9156 H   0  0  0  0  0  0  0  0  0  0  0  0
    4.1288    0.3764   -2.1897 H   0  0  0  0  0  0  0  0  0  0  0  0
    2.7285    0.8908   -0.1814 H   0  0  0  0  0  0  0  0  0  0  0  0
    0.5209   -0.2162    0.1387 H   0  0  0  0  0  0  0  0  0  0  0  0
    0.5673   -0.7906   -1.5412 H   0  0  0  0  0  0  0  0  0  0  0  0
    0.5817    1.9334   -0.7942 H   0  0  0  0  0  0  0  0  0  0  0  0
    2.6759   -2.0943   -0.8510 H   0  0  0  0  0  0  0  0  0  0  0  0
    2.4767   -1.4084    0.7756 H   0  0  0  0  0  0  0  0  0  0  0  0
    4.5610   -0.3681    1.8566 H   0  0  0  0  0  0  0  0  0  0  0  0
    4.9859    0.6796    0.4771 H   0  0  0  0  0  0  0  0  0  0  0  0
    7.0229   -0.4643    1.7939 H   0  0  0  0  0  0  0  0  0  0  0  0
    7.0207   -0.6028    0.0093 H   0  0  0  0  0  0  0  0  0  0  0  0
    6.0237   -2.6491    2.0356 H   0  0  0  0  0  0  0  0  0  0  0  0
    8.8602   -1.7261    1.0539 H   0  0  0  0  0  0  0  0  0  0  0  0
    9.5063   -3.2239    0.4072 H   0  0  0  0  0  0  0  0  0  0  0  0
    8.2417   -2.8589    3.1938 H   0  0  0  0  0  0  0  0  0  0  0  0
    9.9644   -3.1095    2.8477 H   0  0  0  0  0  0  0  0  0  0  0  0
    8.7005   -5.1678    3.6450 H   0  0  0  0  0  0  0  0  0  0  0  0
   10.0006   -5.3678    1.0177 H   0  0  0  0  0  0  0  0  0  0  0  0
    9.7744   -6.5815    2.0806 H   0  0  0  0  0  0  0  0  0  0  0  0
    6.5608   -4.8840    2.5777 H   0  0  0  0  0  0  0  0  0  0  0  0
    7.2752   -6.3360    1.8669 H   0  0  0  0  0  0  0  0  0  0  0  0
    6.2637   -4.8749    0.0903 H   0  0  0  0  0  0  0  0  0  0  0  0
    7.9975   -5.0663   -0.1429 H   0  0  0  0  0  0  0  0  0  0  0  0
    4.3044   -3.3052    0.6444 H   0  0  0  0  0  0  0  0  0  0  0  0
    5.2675   -3.0802   -0.8425 H   0  0  0  0  0  0  0  0  0  0  0  0
  1  2  1  0
  1 18  1  0
  1 19  1  0
  1 20  1  0
  2  3  1  0
  2  5  1  0
  2 21  1  1
  3  4  1  0
  3 22  1  0
  3 23  1  0
  4 24  1  0
  5  6  1  0
  5 25  1  0
  5 26  1  0
  6  7  1  0
  6 17  1  0
  7  8  1  0
  7 27  1  0
  7 28  1  0
  8  9  1  0
  8 29  1  0
  8 30  1  0
  9 10  1  0
  9 17  1  0
  9 31  1  1
 10 11  1  0
 10 16  1  0
 11 12  1  0
 11 32  1  0
 11 33  1  0
 12 13  1  0
 12 34  1  0
 12 35  1  0
 13 14  1  0
 13 15  1  0
 13 36  1  1
 14 37  1  0
 14 38  1  0
 15 16  1  0
 15 39  1  0
 15 40  1  0
 16 41  1  0
 16 42  1  0
 17 43  1  0
 17 44  1  0
M  END

