
     RDKit          3D

 45 48  0  0  0  0  0  0  0  0999 V2000
    7.5745    2.9677   -1.2222 N   0  0  0  0  0  0  0  0  0  0  0  0
    6.9031    2.1070   -0.8262 C   0  0  0  0  0  0  0  0  0  0  0  0
    6.0745    1.0402   -0.3341 C   0  0  0  0  0  0  0  0  0  0  0  0
    4.9452    1.3267    0.4499 C   0  0  0  0  0  0  0  0  0  0  0  0
    4.1671    0.2664    0.9138 C   0  0  0  0  0  0  0  0  0  0  0  0
    4.4874   -1.0577    0.6151 C   0  0  0  0  0  0  0  0  0  0  0  0
    5.6209   -1.3535   -0.1738 C   0  0  0  0  0  0  0  0  0  0  0  0
    5.9789   -2.6777   -0.5005 N   0  0  0  0  0  0  0  0  0  0  0  0
    7.0844   -2.9630   -1.4192 C   0  0  0  0  0  0  0  0  0  0  0  0
    6.9691   -4.4664   -1.7286 C   0  0  2  0  0  0  0  0  0  0  0  0
    6.2004   -4.6909   -3.0401 C   0  0  0  0  0  0  0  0  0  0  0  0
    5.7179   -3.7558   -3.6594 O   0  0  0  0  0  0  0  0  0  0  0  0
    6.0208   -5.9773   -3.5053 N   0  0  0  0  0  0  0  0  0  0  0  0
    5.1917   -6.1368   -4.7256 C   0  0  0  0  0  0  0  0  0  0  0  0
    4.9114   -7.6467   -4.8197 C   0  0  0  0  0  0  0  0  0  0  0  0
    5.9377   -8.2495   -3.8915 C   0  0  0  0  0  0  0  0  0  0  0  0
    6.2898   -9.5798   -3.7215 C   0  0  0  0  0  0  0  0  0  0  0  0
    7.2615   -9.9391   -2.7685 C   0  0  0  0  0  0  0  0  0  0  0  0
    7.6698  -11.3709   -2.5965 C   0  0  0  0  0  0  0  0  0  0  0  0
    8.8866  -11.8952   -3.8566 Cl  0  0  0  0  0  0  0  0  0  0  0  0
    7.8594   -8.9244   -2.0117 C   0  0  0  0  0  0  0  0  0  0  0  0
    7.5137   -7.5766   -2.1701 C   0  0  0  0  0  0  0  0  0  0  0  0
    6.5428   -7.2345   -3.1190 C   0  0  0  0  0  0  0  0  0  0  0  0
    6.2134   -5.0223   -0.5066 C   0  0  0  0  0  0  0  0  0  0  0  0
    5.4311   -3.8329    0.0420 C   0  0  0  0  0  0  0  0  0  0  0  0
    4.5161   -3.9076    0.8341 O   0  0  0  0  0  0  0  0  0  0  0  0
    6.4105   -0.2894   -0.6435 C   0  0  0  0  0  0  0  0  0  0  0  0
    4.6904    2.3611    0.6851 H   0  0  0  0  0  0  0  0  0  0  0  0
    3.2844    0.4709    1.5243 H   0  0  0  0  0  0  0  0  0  0  0  0
    3.8757   -1.8744    0.9889 H   0  0  0  0  0  0  0  0  0  0  0  0
    8.0537   -2.7298   -0.9434 H   0  0  0  0  0  0  0  0  0  0  0  0
    6.9819   -2.3708   -2.3373 H   0  0  0  0  0  0  0  0  0  0  0  0
    7.9732   -4.8998   -1.8324 H   0  0  0  0  0  0  0  0  0  0  0  0
    5.7572   -5.7621   -5.5950 H   0  0  0  0  0  0  0  0  0  0  0  0
    4.2912   -5.5164   -4.6388 H   0  0  0  0  0  0  0  0  0  0  0  0
    4.9975   -8.0204   -5.8510 H   0  0  0  0  0  0  0  0  0  0  0  0
    3.8909   -7.8871   -4.4737 H   0  0  0  0  0  0  0  0  0  0  0  0
    5.8165  -10.3525   -4.3342 H   0  0  0  0  0  0  0  0  0  0  0  0
    6.8189  -12.0559   -2.7049 H   0  0  0  0  0  0  0  0  0  0  0  0
    8.1459  -11.5448   -1.6235 H   0  0  0  0  0  0  0  0  0  0  0  0
    8.6251   -9.1847   -1.2759 H   0  0  0  0  0  0  0  0  0  0  0  0
    8.0196   -6.8355   -1.5577 H   0  0  0  0  0  0  0  0  0  0  0  0
    6.9015   -5.3646    0.2847 H   0  0  0  0  0  0  0  0  0  0  0  0
    5.5279   -5.8536   -0.7183 H   0  0  0  0  0  0  0  0  0  0  0  0
    7.2951   -0.4684   -1.2514 H   0  0  0  0  0  0  0  0  0  0  0  0
  1  2  3  0
  2  3  1  0
  3  4  2  0
  3 27  1  0
  4  5  1  0
  4 28  1  0
  5  6  2  0
  5 29  1  0
  6  7  1  0
  6 30  1  0
  7  8  1  0
  7 27  2  0
  8  9  1  0
  8 25  1  0
  9 10  1  0
  9 31  1  0
  9 32  1  0
 10 11  1  0
 10 24  1  0
 10 33  1  6
 11 12  2  0
 11 13  1  0
 13 14  1  0
 13 23  1  0
 14 15  1  0
 14 34  1  0
 14 35  1  0
 15 16  1  0
 15 36  1  0
 15 37  1  0
 16 17  1  0
 16 23  2  0
 17 18  2  0
 17 38  1  0
 18 19  1  0
 18 21  1  0
 19 20  1  0
 19 39  1  0
 19 40  1  0
 21 22  2  0
 21 41  1  0
 22 23  1  0
 22 42  1  0
 24 25  1  0
 24 43  1  0
 24 44  1  0
 25 26  2  0
 27 45  1  0
M  END

