
     RDKit          3D

 28 29  0  0  0  0  0  0  0  0999 V2000
    3.2539    0.9927   -0.9604 C   0  0  0  0  0  0  0  0  0  0  0  0
    2.8616    1.0002    0.8004 S   0  0  1  0  0  0  0  0  0  0  0  0
    3.6303    2.0765    1.4370 O   0  0  0  0  0  0  0  0  0  0  0  0
    1.4031    0.9177    0.9492 O   0  0  0  0  0  0  0  0  0  0  0  0
    3.5365   -0.6070    1.4228 C   0  0  0  0  0  0  0  0  0  0  0  0
    5.0226   -0.6603    1.4494 C   0  0  0  0  0  0  0  0  0  0  0  0
    5.7658   -0.9045    0.4031 N   0  0  0  0  0  0  0  0  0  0  0  0
    7.0998   -0.8435    0.7073 C   0  0  0  0  0  0  0  0  0  0  0  0
    7.4088   -0.5401    2.0117 C   0  0  0  0  0  0  0  0  0  0  0  0
    5.9348   -0.3145    2.9022 S   0  0  0  0  0  0  0  0  0  0  0  0
    8.8038   -0.4591    2.5620 C   0  0  0  0  0  0  0  0  0  0  0  0
    9.8182   -0.3987    1.4025 C   0  0  0  0  0  0  0  0  0  0  0  0
    9.4904   -1.4058    0.2927 C   0  0  0  0  0  0  0  0  0  0  0  0
    8.1370   -1.1119   -0.3592 C   0  0  1  0  0  0  0  0  0  0  0  0
    7.7626   -2.2034   -1.1730 O   0  0  0  0  0  0  0  0  0  0  0  0
    2.9818    1.9961   -1.3154 H   0  0  0  0  0  0  0  0  0  0  0  0
    2.6437    0.2261   -1.4550 H   0  0  0  0  0  0  0  0  0  0  0  0
    4.3268    0.8017   -1.0883 H   0  0  0  0  0  0  0  0  0  0  0  0
    3.1116   -1.3915    0.7803 H   0  0  0  0  0  0  0  0  0  0  0  0
    3.0806   -0.6726    2.4208 H   0  0  0  0  0  0  0  0  0  0  0  0
    9.0044   -1.3453    3.1922 H   0  0  0  0  0  0  0  0  0  0  0  0
    8.9185    0.4172    3.2213 H   0  0  0  0  0  0  0  0  0  0  0  0
   10.8314   -0.5802    1.7941 H   0  0  0  0  0  0  0  0  0  0  0  0
    9.8248    0.6222    0.9813 H   0  0  0  0  0  0  0  0  0  0  0  0
    9.4417   -2.4290    0.7040 H   0  0  0  0  0  0  0  0  0  0  0  0
   10.2750   -1.4085   -0.4797 H   0  0  0  0  0  0  0  0  0  0  0  0
    8.2319   -0.1924   -0.9790 H   0  0  0  0  0  0  0  0  0  0  0  0
    6.8093   -2.1218   -1.3255 H   0  0  0  0  0  0  0  0  0  0  0  0
  2  1  1  6
  1 16  1  0
  1 17  1  0
  1 18  1  0
  2  3  2  0
  2  4  2  0
  2  5  1  0
  5  6  1  0
  5 19  1  0
  5 20  1  0
  6  7  2  0
  6 10  1  0
  7  8  1  0
  8  9  2  0
  8 14  1  0
  9 10  1  0
  9 11  1  0
 11 12  1  0
 11 21  1  0
 11 22  1  0
 12 13  1  0
 12 23  1  0
 12 24  1  0
 13 14  1  0
 13 25  1  0
 13 26  1  0
 14 15  1  0
 14 27  1  6
 15 28  1  0
M  END

