
     RDKit          3D

 32 32  0  0  0  0  0  0  0  0999 V2000
    2.6492   -0.0598    4.0411 C   0  0  0  0  0  0  0  0  0  0  0  0
    3.1063    0.8281    2.8829 C   0  0  0  0  0  0  0  0  0  0  0  0
    4.2977    0.2548    2.1101 C   0  0  0  0  0  0  0  0  0  0  0  0
    4.7787    1.1262    0.9430 C   0  0  0  0  0  0  0  0  0  0  0  0
    5.2765    2.4371    1.3421 N   0  0  0  0  0  0  0  0  0  0  0  0
    6.5878    2.6616    1.6263 C   0  0  0  0  0  0  0  0  0  0  0  0
    7.4475    1.7970    1.5583 O   0  0  0  0  0  0  0  0  0  0  0  0
    6.9372    4.0842    2.0707 C   0  0  0  0  0  0  0  0  0  0  0  0
    8.2806    4.5461    1.4477 C   0  0  1  0  0  0  0  0  0  0  0  0
    8.1114    4.8042    0.0093 C   0  0  0  0  0  0  0  0  0  0  0  0
    7.9397    5.0167   -1.1165 N   0  0  0  0  0  0  0  0  0  0  0  0
    8.8823    5.7514    2.1394 C   0  0  0  0  0  0  0  0  0  0  0  0
    8.9162    7.0614    1.7270 C   0  0  0  0  0  0  0  0  0  0  0  0
    9.5465    7.9303    2.6711 C   0  0  0  0  0  0  0  0  0  0  0  0
    9.9823    7.2693    3.7893 C   0  0  0  0  0  0  0  0  0  0  0  0
    9.6372    5.5748    3.7027 S   0  0  0  0  0  0  0  0  0  0  0  0
    1.7927    0.3808    4.5757 H   0  0  0  0  0  0  0  0  0  0  0  0
    3.4595   -0.2086    4.7741 H   0  0  0  0  0  0  0  0  0  0  0  0
    2.3418   -1.0570    3.6842 H   0  0  0  0  0  0  0  0  0  0  0  0
    3.3730    1.8269    3.2732 H   0  0  0  0  0  0  0  0  0  0  0  0
    2.2628    0.9887    2.1856 H   0  0  0  0  0  0  0  0  0  0  0  0
    4.0305   -0.7374    1.7038 H   0  0  0  0  0  0  0  0  0  0  0  0
    5.1471    0.0874    2.7952 H   0  0  0  0  0  0  0  0  0  0  0  0
    3.9611    1.2800    0.2188 H   0  0  0  0  0  0  0  0  0  0  0  0
    5.6003    0.6178    0.4182 H   0  0  0  0  0  0  0  0  0  0  0  0
    4.6282    3.2123    1.3984 H   0  0  0  0  0  0  0  0  0  0  0  0
    7.0666    4.0587    3.1648 H   0  0  0  0  0  0  0  0  0  0  0  0
    6.1399    4.8106    1.8516 H   0  0  0  0  0  0  0  0  0  0  0  0
    8.9623    3.6821    1.5360 H   0  0  0  0  0  0  0  0  0  0  0  0
    8.5114    7.3899    0.7684 H   0  0  0  0  0  0  0  0  0  0  0  0
    9.6727    9.0034    2.5197 H   0  0  0  0  0  0  0  0  0  0  0  0
   10.4963    7.6753    4.6595 H   0  0  0  0  0  0  0  0  0  0  0  0
  1  2  1  0
  1 17  1  0
  1 18  1  0
  1 19  1  0
  2  3  1  0
  2 20  1  0
  2 21  1  0
  3  4  1  0
  3 22  1  0
  3 23  1  0
  4  5  1  0
  4 24  1  0
  4 25  1  0
  5  6  1  0
  5 26  1  0
  6  7  2  0
  6  8  1  0
  8  9  1  0
  8 27  1  0
  8 28  1  0
  9 10  1  0
  9 12  1  0
  9 29  1  6
 10 11  3  0
 12 13  2  0
 12 16  1  0
 13 14  1  0
 13 30  1  0
 14 15  2  0
 14 31  1  0
 15 16  1  0
 15 32  1  0
M  END

