
     RDKit          3D

 42 43  0  0  0  0  0  0  0  0999 V2000
    0.7131    1.0751    1.1021 C   0  0  0  0  0  0  0  0  0  0  0  0
    2.1368    1.3133    1.2974 N   0  0  0  0  0  0  0  0  0  0  0  0
    2.4515    2.4214    2.1767 C   0  0  0  0  0  0  0  0  0  0  0  0
    3.0367    0.4609    0.6952 C   0  0  0  0  0  0  0  0  0  0  0  0
    2.6590   -0.5133    0.0609 O   0  0  0  0  0  0  0  0  0  0  0  0
    4.5433    0.7596    0.8492 C   0  0  1  0  0  0  0  0  0  0  0  0
    5.3983   -0.4338    0.3793 C   0  0  0  0  0  0  0  0  0  0  0  0
    5.4520   -0.5533   -1.1493 C   0  0  0  0  0  0  0  0  0  0  0  0
    5.8663    0.7663   -1.8008 C   0  0  0  0  0  0  0  0  0  0  0  0
    5.0357    1.8765   -1.3296 N   0  0  0  0  0  0  0  0  0  0  0  0
    4.3529    2.6404   -2.2446 C   0  0  0  0  0  0  0  0  0  0  0  0
    4.3381    2.3964   -3.4393 O   0  0  0  0  0  0  0  0  0  0  0  0
    3.6371    3.8630   -1.7307 C   0  0  0  0  0  0  0  0  0  0  0  0
    4.2011    5.0567   -1.3028 C   0  0  0  0  0  0  0  0  0  0  0  0
    3.1795    5.9322   -1.0929 N   0  0  0  0  0  0  0  0  0  0  0  0
    3.2664    7.3223   -0.6861 C   0  0  0  0  0  0  0  0  0  0  0  0
    1.9891    5.3922   -1.3524 N   0  0  0  0  0  0  0  0  0  0  0  0
    2.2463    4.1476   -1.7437 C   0  0  0  0  0  0  0  0  0  0  0  0
    1.1174    3.2448   -2.1537 C   0  0  1  0  0  0  0  0  0  0  0  0
    1.4671    1.9541   -2.0146 F   0  0  0  0  0  0  0  0  0  0  0  0
    0.0231    3.4536   -1.3979 F   0  0  0  0  0  0  0  0  0  0  0  0
    0.7566    3.4312   -3.4305 F   0  0  0  0  0  0  0  0  0  0  0  0
    4.9957    2.0469    0.1136 C   0  0  0  0  0  0  0  0  0  0  0  0
    0.2181    1.9888    0.7361 H   0  0  0  0  0  0  0  0  0  0  0  0
    0.2331    0.7716    2.0504 H   0  0  0  0  0  0  0  0  0  0  0  0
    0.5885    0.2753    0.3649 H   0  0  0  0  0  0  0  0  0  0  0  0
    2.2057    3.3941    1.7112 H   0  0  0  0  0  0  0  0  0  0  0  0
    3.5086    2.4320    2.4637 H   0  0  0  0  0  0  0  0  0  0  0  0
    1.8599    2.3432    3.1062 H   0  0  0  0  0  0  0  0  0  0  0  0
    4.7478    0.9220    1.9210 H   0  0  0  0  0  0  0  0  0  0  0  0
    5.0107   -1.3641    0.8190 H   0  0  0  0  0  0  0  0  0  0  0  0
    6.4215   -0.2893    0.7723 H   0  0  0  0  0  0  0  0  0  0  0  0
    4.4612   -0.8505   -1.5202 H   0  0  0  0  0  0  0  0  0  0  0  0
    6.1687   -1.3388   -1.4418 H   0  0  0  0  0  0  0  0  0  0  0  0
    5.7718    0.7277   -2.8925 H   0  0  0  0  0  0  0  0  0  0  0  0
    6.9222    0.9975   -1.5545 H   0  0  0  0  0  0  0  0  0  0  0  0
    5.2408    5.3390   -1.1496 H   0  0  0  0  0  0  0  0  0  0  0  0
    4.2975    7.5448   -0.3818 H   0  0  0  0  0  0  0  0  0  0  0  0
    2.5879    7.5030    0.1594 H   0  0  0  0  0  0  0  0  0  0  0  0
    2.9818    7.9847   -1.5178 H   0  0  0  0  0  0  0  0  0  0  0  0
    4.3442    2.8931    0.3537 H   0  0  0  0  0  0  0  0  0  0  0  0
    6.0112    2.3023    0.4766 H   0  0  0  0  0  0  0  0  0  0  0  0
  1  2  1  0
  1 24  1  0
  1 25  1  0
  1 26  1  0
  2  3  1  0
  2  4  1  0
  3 27  1  0
  3 28  1  0
  3 29  1  0
  4  5  2  0
  4  6  1  0
  6  7  1  0
  6 23  1  0
  6 30  1  1
  7  8  1  0
  7 31  1  0
  7 32  1  0
  8  9  1  0
  8 33  1  0
  8 34  1  0
  9 10  1  0
  9 35  1  0
  9 36  1  0
 10 11  1  0
 10 23  1  0
 11 12  2  0
 11 13  1  0
 13 14  2  0
 13 18  1  0
 14 15  1  0
 14 37  1  0
 15 16  1  0
 15 17  1  0
 16 38  1  0
 16 39  1  0
 16 40  1  0
 17 18  2  0
 18 19  1  0
 19 20  1  6
 19 21  1  0
 19 22  1  0
 23 41  1  0
 23 42  1  0
M  END

