
     RDKit          3D

 56 57  0  0  0  0  0  0  0  0999 V2000
    1.4547    0.7391    1.5125 C   0  0  0  0  0  0  0  0  0  0  0  0
    2.7148    0.3916    0.7263 C   0  0  1  0  0  0  0  0  0  0  0  0
    3.1716   -1.3990    0.8326 S   0  0  0  0  0  0  0  0  0  0  0  0
    1.7731   -2.1870   -0.0623 C   0  0  0  0  0  0  0  0  0  0  0  0
    2.0220   -3.6500   -0.4575 C   0  0  0  0  0  0  0  0  0  0  0  0
    1.0940   -4.4353   -0.4755 O   0  0  0  0  0  0  0  0  0  0  0  0
    3.3099   -3.9449   -0.8214 N   0  0  0  0  0  0  0  0  0  0  0  0
    3.8435   -5.1715   -1.2696 C   0  0  0  0  0  0  0  0  0  0  0  0
    3.0649   -6.3272   -1.4635 C   0  0  0  0  0  0  0  0  0  0  0  0
    3.6675   -7.5039   -1.9131 C   0  0  0  0  0  0  0  0  0  0  0  0
    5.0356   -7.5310   -2.1682 C   0  0  0  0  0  0  0  0  0  0  0  0
    5.6066   -8.6657   -2.6007 F   0  0  0  0  0  0  0  0  0  0  0  0
    5.8248   -6.3984   -1.9819 C   0  0  0  0  0  0  0  0  0  0  0  0
    5.2243   -5.2234   -1.5324 C   0  0  0  0  0  0  0  0  0  0  0  0
    2.6543    0.9431   -0.7186 C   0  0  0  0  0  0  0  0  0  0  0  0
    1.7753    1.7150   -1.0508 O   0  0  0  0  0  0  0  0  0  0  0  0
    3.6807    0.5298   -1.5302 N   0  0  0  0  0  0  0  0  0  0  0  0
    3.9685    0.8953   -2.8572 C   0  0  0  0  0  0  0  0  0  0  0  0
    3.2021    1.8200   -3.5917 C   0  0  0  0  0  0  0  0  0  0  0  0
    3.5664    2.1283   -4.9004 C   0  0  0  0  0  0  0  0  0  0  0  0
    4.6703    1.5261   -5.5221 C   0  0  0  0  0  0  0  0  0  0  0  0
    4.9875    1.9358   -6.9391 C   0  0  0  0  0  0  0  0  0  0  0  0
    4.5750    2.9959   -7.3928 O   0  0  0  0  0  0  0  0  0  0  0  0
    5.7465    1.0531   -7.6557 N   0  0  0  0  0  0  0  0  0  0  0  0
    6.1736    1.2268   -9.0621 C   0  0  1  0  0  0  0  0  0  0  0  0
    7.0256    2.5021   -9.1960 C   0  0  0  0  0  0  0  0  0  0  0  0
    7.0239   -0.0040   -9.4112 C   0  0  0  0  0  0  0  0  0  0  0  0
    4.9453    1.2990   -9.9896 C   0  0  0  0  0  0  0  0  0  0  0  0
    5.4365    0.6164   -4.7765 C   0  0  0  0  0  0  0  0  0  0  0  0
    5.0927    0.3048   -3.4637 C   0  0  0  0  0  0  0  0  0  0  0  0
    1.5470    0.3964    2.5526 H   0  0  0  0  0  0  0  0  0  0  0  0
    0.5614    0.2810    1.0635 H   0  0  0  0  0  0  0  0  0  0  0  0
    1.2972    1.8269    1.5015 H   0  0  0  0  0  0  0  0  0  0  0  0
    3.5889    0.8654    1.2079 H   0  0  0  0  0  0  0  0  0  0  0  0
    1.5626   -1.6166   -0.9831 H   0  0  0  0  0  0  0  0  0  0  0  0
    0.8665   -2.1879    0.5557 H   0  0  0  0  0  0  0  0  0  0  0  0
    3.9771   -3.1845   -0.7297 H   0  0  0  0  0  0  0  0  0  0  0  0
    1.9977   -6.2916   -1.2583 H   0  0  0  0  0  0  0  0  0  0  0  0
    3.0773   -8.4093   -2.0684 H   0  0  0  0  0  0  0  0  0  0  0  0
    6.8958   -6.4468   -2.1874 H   0  0  0  0  0  0  0  0  0  0  0  0
    5.8400   -4.3319   -1.3809 H   0  0  0  0  0  0  0  0  0  0  0  0
    4.2912   -0.1714   -1.1200 H   0  0  0  0  0  0  0  0  0  0  0  0
    2.3355    2.2844   -3.1272 H   0  0  0  0  0  0  0  0  0  0  0  0
    2.9904    2.8572   -5.4738 H   0  0  0  0  0  0  0  0  0  0  0  0
    5.8743    0.1304   -7.2594 H   0  0  0  0  0  0  0  0  0  0  0  0
    7.9113    2.4462   -8.5433 H   0  0  0  0  0  0  0  0  0  0  0  0
    6.4407    3.3878   -8.9156 H   0  0  0  0  0  0  0  0  0  0  0  0
    7.3700    2.6195  -10.2357 H   0  0  0  0  0  0  0  0  0  0  0  0
    7.9043   -0.0790   -8.7520 H   0  0  0  0  0  0  0  0  0  0  0  0
    7.3828    0.0617  -10.4490 H   0  0  0  0  0  0  0  0  0  0  0  0
    6.4380   -0.9344   -9.3195 H   0  0  0  0  0  0  0  0  0  0  0  0
    4.3135    2.1561   -9.7206 H   0  0  0  0  0  0  0  0  0  0  0  0
    4.3424    0.3801   -9.9088 H   0  0  0  0  0  0  0  0  0  0  0  0
    5.2627    1.4095  -11.0388 H   0  0  0  0  0  0  0  0  0  0  0  0
    6.3346    0.1635   -5.2039 H   0  0  0  0  0  0  0  0  0  0  0  0
    5.7111   -0.3954   -2.8940 H   0  0  0  0  0  0  0  0  0  0  0  0
  1  2  1  0
  1 31  1  0
  1 32  1  0
  1 33  1  0
  2  3  1  0
  2 15  1  0
  2 34  1  1
  3  4  1  0
  4  5  1  0
  4 35  1  0
  4 36  1  0
  5  6  2  0
  5  7  1  0
  7  8  1  0
  7 37  1  0
  8  9  2  0
  8 14  1  0
  9 10  1  0
  9 38  1  0
 10 11  2  0
 10 39  1  0
 11 12  1  0
 11 13  1  0
 13 14  2  0
 13 40  1  0
 14 41  1  0
 15 16  2  0
 15 17  1  0
 17 18  1  0
 17 42  1  0
 18 19  2  0
 18 30  1  0
 19 20  1  0
 19 43  1  0
 20 21  2  0
 20 44  1  0
 21 22  1  0
 21 29  1  0
 22 23  2  0
 22 24  1  0
 25 24  1  1
 24 45  1  0
 25 26  1  0
 25 27  1  0
 25 28  1  0
 26 46  1  0
 26 47  1  0
 26 48  1  0
 27 49  1  0
 27 50  1  0
 27 51  1  0
 28 52  1  0
 28 53  1  0
 28 54  1  0
 29 30  2  0
 29 55  1  0
 30 56  1  0
M  END

