
     RDKit          3D

 43 45  0  0  0  0  0  0  0  0999 V2000
    1.1224    0.7012   -0.9140 C   0  0  0  0  0  0  0  0  0  0  0  0
    2.6051    0.6063   -0.6446 C   0  0  0  0  0  0  0  0  0  0  0  0
    3.1989    1.4453   -0.0071 O   0  0  0  0  0  0  0  0  0  0  0  0
    3.3136   -0.5119   -1.1727 N   0  0  0  0  0  0  0  0  0  0  0  0
    2.7289   -1.5941   -1.8441 C   0  0  0  0  0  0  0  0  0  0  0  0
    1.5659   -1.7412   -2.1211 O   0  0  0  0  0  0  0  0  0  0  0  0
    3.8514   -2.6250   -2.1579 C   0  0  1  0  0  0  0  0  0  0  0  0
    3.8131   -3.6554   -1.0145 C   0  0  0  0  0  0  0  0  0  0  0  0
    3.9211   -3.4287    0.1616 O   0  0  0  0  0  0  0  0  0  0  0  0
    3.6093   -4.9453   -1.5824 N   0  0  0  0  0  0  0  0  0  0  0  0
    3.5310   -6.1726   -0.8759 C   0  0  0  0  0  0  0  0  0  0  0  0
    3.7068   -6.1475    0.6191 C   0  0  0  0  0  0  0  0  0  0  0  0
    3.3273   -7.2074   -1.4812 O   0  0  0  0  0  0  0  0  0  0  0  0
    3.4474   -4.8064   -2.9875 C   0  0  0  0  0  0  0  0  0  0  0  0
    3.1839   -5.8692   -3.7583 N   0  0  0  0  0  0  0  0  0  0  0  0
    3.5840   -3.4880   -3.3611 C   0  0  0  0  0  0  0  0  0  0  0  0
    3.3576   -3.0790   -4.6932 C   0  0  0  0  0  0  0  0  0  0  0  0
    3.1630   -2.8025   -5.8090 N   0  0  0  0  0  0  0  0  0  0  0  0
    5.1412   -1.7207   -2.1039 C   0  0  2  0  0  0  0  0  0  0  0  0
    5.3215   -1.0221   -3.4719 C   0  0  0  0  0  0  0  0  0  0  0  0
    6.4445   -2.4226   -1.6794 C   0  0  0  0  0  0  0  0  0  0  0  0
    7.5110   -1.3956   -1.2716 C   0  0  0  0  0  0  0  0  0  0  0  0
    7.0316   -0.5013   -0.1178 C   0  0  0  0  0  0  0  0  0  0  0  0
    5.5743   -0.1210   -0.1885 C   0  0  0  0  0  0  0  0  0  0  0  0
    4.7325   -0.6917   -1.0593 C   0  0  0  0  0  0  0  0  0  0  0  0
    0.7795    1.6435   -0.4692 H   0  0  0  0  0  0  0  0  0  0  0  0
    0.5818   -0.1483   -0.4729 H   0  0  0  0  0  0  0  0  0  0  0  0
    0.9008    0.6773   -1.9901 H   0  0  0  0  0  0  0  0  0  0  0  0
    2.9403   -5.5234    1.0995 H   0  0  0  0  0  0  0  0  0  0  0  0
    4.6757   -5.7134    0.9035 H   0  0  0  0  0  0  0  0  0  0  0  0
    3.6325   -7.1852    0.9661 H   0  0  0  0  0  0  0  0  0  0  0  0
    3.1031   -6.7822   -3.3198 H   0  0  0  0  0  0  0  0  0  0  0  0
    3.0341   -5.7249   -4.7492 H   0  0  0  0  0  0  0  0  0  0  0  0
    5.6158   -1.7418   -4.2491 H   0  0  0  0  0  0  0  0  0  0  0  0
    6.0994   -0.2501   -3.4021 H   0  0  0  0  0  0  0  0  0  0  0  0
    4.3991   -0.5259   -3.8085 H   0  0  0  0  0  0  0  0  0  0  0  0
    6.8120   -3.0577   -2.5020 H   0  0  0  0  0  0  0  0  0  0  0  0
    6.2526   -3.0792   -0.8163 H   0  0  0  0  0  0  0  0  0  0  0  0
    7.7761   -0.7710   -2.1399 H   0  0  0  0  0  0  0  0  0  0  0  0
    8.4373   -1.9172   -0.9819 H   0  0  0  0  0  0  0  0  0  0  0  0
    7.6530    0.4098   -0.0630 H   0  0  0  0  0  0  0  0  0  0  0  0
    7.1944   -1.0141    0.8504 H   0  0  0  0  0  0  0  0  0  0  0  0
    5.1998    0.6093    0.5261 H   0  0  0  0  0  0  0  0  0  0  0  0
  1  2  1  0
  1 26  1  0
  1 27  1  0
  1 28  1  0
  2  3  2  0
  2  4  1  0
  4  5  1  0
  4 25  1  0
  5  6  2  0
  7  5  1  1
  7  8  1  0
  7 16  1  0
  7 19  1  0
  8  9  2  0
  8 10  1  0
 10 11  1  0
 10 14  1  0
 11 12  1  0
 11 13  2  0
 12 29  1  0
 12 30  1  0
 12 31  1  0
 14 15  1  0
 14 16  2  0
 15 32  1  0
 15 33  1  0
 16 17  1  0
 17 18  3  0
 19 20  1  6
 19 21  1  0
 19 25  1  0
 20 34  1  0
 20 35  1  0
 20 36  1  0
 21 22  1  0
 21 37  1  0
 21 38  1  0
 22 23  1  0
 22 39  1  0
 22 40  1  0
 23 24  1  0
 23 41  1  0
 23 42  1  0
 24 25  2  0
 24 43  1  0
M  END

