
     RDKit          3D

 43 45  0  0  0  0  0  0  0  0999 V2000
    1.1398   -0.1686    2.1768 O   0  0  0  0  0  0  0  0  0  0  0  0
    1.7740    0.4028    1.0527 C   0  0  0  0  0  0  0  0  0  0  0  0
    3.0873   -0.2931    0.7652 C   0  0  0  0  0  0  0  0  0  0  0  0
    3.7485   -0.0493   -0.4469 C   0  0  0  0  0  0  0  0  0  0  0  0
    4.9750   -0.6728   -0.6946 C   0  0  0  0  0  0  0  0  0  0  0  0
    5.5449   -1.5296    0.2436 C   0  0  0  0  0  0  0  0  0  0  0  0
    4.8903   -1.7860    1.4692 C   0  0  0  0  0  0  0  0  0  0  0  0
    5.4828   -2.6188    2.4024 N   0  0  0  0  0  0  0  0  0  0  0  0
    4.7961   -3.1190    3.5799 C   0  0  0  0  0  0  0  0  0  0  0  0
    5.7126   -3.9680    4.4320 C   0  0  0  0  0  0  0  0  0  0  0  0
    6.9284   -3.4584    4.9174 C   0  0  0  0  0  0  0  0  0  0  0  0
    7.7778   -4.2209    5.7141 C   0  0  0  0  0  0  0  0  0  0  0  0
    7.4441   -5.5530    6.0682 C   0  0  0  0  0  0  0  0  0  0  0  0
    8.2777   -6.3141    6.8573 N   0  0  0  0  0  0  0  0  0  0  0  0
    9.5978   -5.8783    7.2962 C   0  0  0  0  0  0  0  0  0  0  0  0
   10.2280   -7.1524    7.8744 C   0  0  0  0  0  0  0  0  0  0  0  0
    9.0160   -7.9357    8.3958 C   0  0  0  0  0  0  0  0  0  0  0  0
    7.9341   -7.6431    7.3476 C   0  0  0  0  0  0  0  0  0  0  0  0
    6.2205   -6.0674    5.5762 C   0  0  0  0  0  0  0  0  0  0  0  0
    5.3856   -5.2855    4.7780 C   0  0  0  0  0  0  0  0  0  0  0  0
    3.6489   -1.1575    1.7091 C   0  0  0  0  0  0  0  0  0  0  0  0
    0.3683    0.3671    2.3942 H   0  0  0  0  0  0  0  0  0  0  0  0
    1.9782    1.4825    1.2156 H   0  0  0  0  0  0  0  0  0  0  0  0
    1.1329    0.3400    0.1490 H   0  0  0  0  0  0  0  0  0  0  0  0
    3.3073    0.6167   -1.1940 H   0  0  0  0  0  0  0  0  0  0  0  0
    5.4961   -0.4916   -1.6389 H   0  0  0  0  0  0  0  0  0  0  0  0
    6.5069   -2.0086    0.0378 H   0  0  0  0  0  0  0  0  0  0  0  0
    6.2131   -3.2254    2.0479 H   0  0  0  0  0  0  0  0  0  0  0  0
    3.8909   -3.7040    3.3163 H   0  0  0  0  0  0  0  0  0  0  0  0
    4.4365   -2.2544    4.1677 H   0  0  0  0  0  0  0  0  0  0  0  0
    7.2162   -2.4341    4.6638 H   0  0  0  0  0  0  0  0  0  0  0  0
    8.7044   -3.7744    6.0764 H   0  0  0  0  0  0  0  0  0  0  0  0
    9.5294   -5.0777    8.0612 H   0  0  0  0  0  0  0  0  0  0  0  0
   10.1859   -5.4688    6.4565 H   0  0  0  0  0  0  0  0  0  0  0  0
   10.9788   -6.9390    8.6498 H   0  0  0  0  0  0  0  0  0  0  0  0
   10.7292   -7.7198    7.0725 H   0  0  0  0  0  0  0  0  0  0  0  0
    8.7035   -7.5409    9.3771 H   0  0  0  0  0  0  0  0  0  0  0  0
    9.2086   -9.0121    8.5166 H   0  0  0  0  0  0  0  0  0  0  0  0
    6.9193   -7.6611    7.7821 H   0  0  0  0  0  0  0  0  0  0  0  0
    7.9474   -8.3946    6.5315 H   0  0  0  0  0  0  0  0  0  0  0  0
    5.9237   -7.0910    5.8065 H   0  0  0  0  0  0  0  0  0  0  0  0
    4.4503   -5.7197    4.4117 H   0  0  0  0  0  0  0  0  0  0  0  0
    3.0975   -1.3377    2.6299 H   0  0  0  0  0  0  0  0  0  0  0  0
  1  2  1  0
  1 22  1  0
  2  3  1  0
  2 23  1  0
  2 24  1  0
  3  4  2  0
  3 21  1  0
  4  5  1  0
  4 25  1  0
  5  6  2  0
  5 26  1  0
  6  7  1  0
  6 27  1  0
  7  8  1  0
  7 21  2  0
  8  9  1  0
  8 28  1  0
  9 10  1  0
  9 29  1  0
  9 30  1  0
 10 11  2  0
 10 20  1  0
 11 12  1  0
 11 31  1  0
 12 13  2  0
 12 32  1  0
 13 14  1  0
 13 19  1  0
 14 15  1  0
 14 18  1  0
 15 16  1  0
 15 33  1  0
 15 34  1  0
 16 17  1  0
 16 35  1  0
 16 36  1  0
 17 18  1  0
 17 37  1  0
 17 38  1  0
 18 39  1  0
 18 40  1  0
 19 20  2  0
 19 41  1  0
 20 42  1  0
 21 43  1  0
M  END

