
     RDKit          3D

 53 57  0  0  0  0  0  0  0  0999 V2000
    4.9700   -5.1637   -0.6959 C   0  0  0  0  0  0  0  0  0  0  0  0
    4.3222   -4.3161   -1.6855 N   0  0  0  0  0  0  0  0  0  0  0  0
    4.3579   -4.4206   -3.0535 C   0  0  0  0  0  0  0  0  0  0  0  0
    5.1877   -5.3955   -3.8269 C   0  0  0  0  0  0  0  0  0  0  0  0
    4.7603   -6.7655   -3.5922 N   0  0  0  0  0  0  0  0  0  0  0  0
    5.3913   -7.8462   -4.2122 C   0  0  0  0  0  0  0  0  0  0  0  0
    4.7851   -9.1208   -4.1628 C   0  0  0  0  0  0  0  0  0  0  0  0
    5.3963  -10.2338   -4.7336 C   0  0  0  0  0  0  0  0  0  0  0  0
    6.6327  -10.0884   -5.3624 C   0  0  0  0  0  0  0  0  0  0  0  0
    7.2262  -11.1637   -5.9118 F   0  0  0  0  0  0  0  0  0  0  0  0
    7.2537   -8.8475   -5.4318 C   0  0  0  0  0  0  0  0  0  0  0  0
    6.6339   -7.7284   -4.8656 C   0  0  0  0  0  0  0  0  0  0  0  0
    3.5543   -3.5315   -3.5987 N   0  0  0  0  0  0  0  0  0  0  0  0
    2.9892   -2.8062   -2.5926 N   0  0  0  0  0  0  0  0  0  0  0  0
    3.4466   -3.2831   -1.4561 C   0  0  0  0  0  0  0  0  0  0  0  0
    3.0061   -2.7089    0.1529 S   0  0  0  0  0  0  0  0  0  0  0  0
    1.1999   -2.9639    0.0550 C   0  0  0  0  0  0  0  0  0  0  0  0
    0.7981   -4.4402    0.1639 C   0  0  0  0  0  0  0  0  0  0  0  0
    1.5872   -5.3391   -0.0475 O   0  0  0  0  0  0  0  0  0  0  0  0
   -0.5236   -4.6989    0.5293 N   0  0  0  0  0  0  0  0  0  0  0  0
   -0.8964   -6.0290    0.9177 C   0  0  0  0  0  0  0  0  0  0  0  0
   -0.6970   -7.1337    0.0826 C   0  0  0  0  0  0  0  0  0  0  0  0
   -1.0408   -8.4124    0.5253 C   0  0  0  0  0  0  0  0  0  0  0  0
   -1.6050   -8.5927    1.7923 C   0  0  0  0  0  0  0  0  0  0  0  0
   -1.8375   -7.4912    2.6178 C   0  0  0  0  0  0  0  0  0  0  0  0
   -1.4778   -6.2090    2.1848 C   0  0  0  0  0  0  0  0  0  0  0  0
   -1.7354   -4.7984    3.2475 S   0  0  0  0  0  0  0  0  0  0  0  0
   -2.1420   -3.6024    1.9940 C   0  0  0  0  0  0  0  0  0  0  0  0
   -3.0877   -2.5986    2.2388 C   0  0  0  0  0  0  0  0  0  0  0  0
   -3.4039   -1.6786    1.2372 C   0  0  0  0  0  0  0  0  0  0  0  0
   -2.8119   -1.7851   -0.0257 C   0  0  0  0  0  0  0  0  0  0  0  0
   -1.8836   -2.7970   -0.2793 C   0  0  0  0  0  0  0  0  0  0  0  0
   -1.5066   -3.6807    0.7405 C   0  0  0  0  0  0  0  0  0  0  0  0
    5.2078   -6.1271   -1.1643 H   0  0  0  0  0  0  0  0  0  0  0  0
    4.2689   -5.3265    0.1333 H   0  0  0  0  0  0  0  0  0  0  0  0
    5.8926   -4.6989   -0.3139 H   0  0  0  0  0  0  0  0  0  0  0  0
    6.2470   -5.2971   -3.5305 H   0  0  0  0  0  0  0  0  0  0  0  0
    5.1185   -5.0922   -4.8890 H   0  0  0  0  0  0  0  0  0  0  0  0
    3.7533   -6.8667   -3.5135 H   0  0  0  0  0  0  0  0  0  0  0  0
    3.8206   -9.2354   -3.6599 H   0  0  0  0  0  0  0  0  0  0  0  0
    4.9260  -11.2185   -4.6956 H   0  0  0  0  0  0  0  0  0  0  0  0
    8.2173   -8.7585   -5.9377 H   0  0  0  0  0  0  0  0  0  0  0  0
    7.1311   -6.7613   -4.9436 H   0  0  0  0  0  0  0  0  0  0  0  0
    0.8672   -2.5384   -0.9021 H   0  0  0  0  0  0  0  0  0  0  0  0
    0.7571   -2.3586    0.8582 H   0  0  0  0  0  0  0  0  0  0  0  0
   -0.2491   -6.9861   -0.8994 H   0  0  0  0  0  0  0  0  0  0  0  0
   -0.8693   -9.2725   -0.1261 H   0  0  0  0  0  0  0  0  0  0  0  0
   -1.8792   -9.5932    2.1355 H   0  0  0  0  0  0  0  0  0  0  0  0
   -2.3030   -7.6183    3.5978 H   0  0  0  0  0  0  0  0  0  0  0  0
   -3.5808   -2.5509    3.2125 H   0  0  0  0  0  0  0  0  0  0  0  0
   -4.1361   -0.8925    1.4363 H   0  0  0  0  0  0  0  0  0  0  0  0
   -3.0830   -1.0883   -0.8219 H   0  0  0  0  0  0  0  0  0  0  0  0
   -1.4397   -2.9020   -1.2710 H   0  0  0  0  0  0  0  0  0  0  0  0
  1  2  1  0
  1 34  1  0
  1 35  1  0
  1 36  1  0
  2  3  1  0
  2 15  1  0
  3  4  1  0
  3 13  2  0
  4  5  1  0
  4 37  1  0
  4 38  1  0
  5  6  1  0
  5 39  1  0
  6  7  2  0
  6 12  1  0
  7  8  1  0
  7 40  1  0
  8  9  2  0
  8 41  1  0
  9 10  1  0
  9 11  1  0
 11 12  2  0
 11 42  1  0
 12 43  1  0
 13 14  1  0
 14 15  2  0
 15 16  1  0
 16 17  1  0
 17 18  1  0
 17 44  1  0
 17 45  1  0
 18 19  2  0
 18 20  1  0
 20 21  1  0
 20 33  1  0
 21 22  2  0
 21 26  1  0
 22 23  1  0
 22 46  1  0
 23 24  2  0
 23 47  1  0
 24 25  1  0
 24 48  1  0
 25 26  2  0
 25 49  1  0
 26 27  1  0
 27 28  1  0
 28 29  2  0
 28 33  1  0
 29 30  1  0
 29 50  1  0
 30 31  2  0
 30 51  1  0
 31 32  1  0
 31 52  1  0
 32 33  2  0
 32 53  1  0
M  END

