
     RDKit          3D

 43 44  0  0  0  0  0  0  0  0999 V2000
    1.9662    0.8430   -4.8355 C   0  0  0  0  0  0  0  0  0  0  0  0
    2.6483    0.2619   -3.7486 O   0  0  0  0  0  0  0  0  0  0  0  0
    3.2990    1.0693   -2.8569 C   0  0  0  0  0  0  0  0  0  0  0  0
    3.2587    2.4677   -2.9083 C   0  0  0  0  0  0  0  0  0  0  0  0
    3.9535    3.2274   -1.9591 C   0  0  0  0  0  0  0  0  0  0  0  0
    4.7032    2.6180   -0.9496 C   0  0  0  0  0  0  0  0  0  0  0  0
    5.4599    3.4245    0.0785 C   0  0  0  0  0  0  0  0  0  0  0  0
    4.7329    1.2125   -0.9246 C   0  0  0  0  0  0  0  0  0  0  0  0
    4.0515    0.4169   -1.8500 C   0  0  0  0  0  0  0  0  0  0  0  0
    4.0947   -1.0897   -1.7577 C   0  0  0  0  0  0  0  0  0  0  0  0
    3.0076   -1.6973   -0.8348 C   0  0  1  0  0  0  0  0  0  0  0  0
    1.6274   -1.3968   -1.2080 N   0  0  0  0  0  0  0  0  0  0  0  0
    3.1594   -3.2284   -0.7367 C   0  0  0  0  0  0  0  0  0  0  0  0
    4.4472   -3.6525   -0.1963 N   0  0  0  0  0  0  0  0  0  0  0  0
    4.5395   -3.6547    1.2642 C   0  0  0  0  0  0  0  0  0  0  0  0
    3.9845   -4.9422    1.8832 C   0  0  0  0  0  0  0  0  0  0  0  0
    4.6113   -6.0843    1.3265 O   0  0  0  0  0  0  0  0  0  0  0  0
    4.4547   -6.1426   -0.0800 C   0  0  0  0  0  0  0  0  0  0  0  0
    5.0205   -4.8814   -0.7399 C   0  0  0  0  0  0  0  0  0  0  0  0
    1.5647    0.0140   -5.4345 H   0  0  0  0  0  0  0  0  0  0  0  0
    2.6403    1.4477   -5.4687 H   0  0  0  0  0  0  0  0  0  0  0  0
    1.1266    1.4815   -4.5049 H   0  0  0  0  0  0  0  0  0  0  0  0
    2.6884    2.9811   -3.6827 H   0  0  0  0  0  0  0  0  0  0  0  0
    3.9068    4.3186   -2.0176 H   0  0  0  0  0  0  0  0  0  0  0  0
    5.3654    4.5049   -0.1071 H   0  0  0  0  0  0  0  0  0  0  0  0
    6.5348    3.1769    0.0752 H   0  0  0  0  0  0  0  0  0  0  0  0
    5.0899    3.2279    1.0993 H   0  0  0  0  0  0  0  0  0  0  0  0
    5.3231    0.7088   -0.1515 H   0  0  0  0  0  0  0  0  0  0  0  0
    5.0742   -1.4125   -1.3736 H   0  0  0  0  0  0  0  0  0  0  0  0
    3.9781   -1.5255   -2.7635 H   0  0  0  0  0  0  0  0  0  0  0  0
    3.1579   -1.2787    0.1772 H   0  0  0  0  0  0  0  0  0  0  0  0
    1.4958   -1.5810   -2.2044 H   0  0  0  0  0  0  0  0  0  0  0  0
    1.4489   -0.3986   -1.0993 H   0  0  0  0  0  0  0  0  0  0  0  0
    3.0573   -3.6466   -1.7533 H   0  0  0  0  0  0  0  0  0  0  0  0
    2.2876   -3.6026   -0.1638 H   0  0  0  0  0  0  0  0  0  0  0  0
    4.0158   -2.7763    1.6738 H   0  0  0  0  0  0  0  0  0  0  0  0
    5.6033   -3.5620    1.5504 H   0  0  0  0  0  0  0  0  0  0  0  0
    2.8859   -4.9990    1.7314 H   0  0  0  0  0  0  0  0  0  0  0  0
    4.1742   -4.9702    2.9681 H   0  0  0  0  0  0  0  0  0  0  0  0
    3.3814   -6.2639   -0.3415 H   0  0  0  0  0  0  0  0  0  0  0  0
    4.9890   -7.0428   -0.4241 H   0  0  0  0  0  0  0  0  0  0  0  0
    4.8663   -4.9113   -1.8306 H   0  0  0  0  0  0  0  0  0  0  0  0
    6.1123   -4.8639   -0.5633 H   0  0  0  0  0  0  0  0  0  0  0  0
  1  2  1  0
  1 20  1  0
  1 21  1  0
  1 22  1  0
  2  3  1  0
  3  4  2  0
  3  9  1  0
  4  5  1  0
  4 23  1  0
  5  6  2  0
  5 24  1  0
  6  7  1  0
  6  8  1  0
  7 25  1  0
  7 26  1  0
  7 27  1  0
  8  9  2  0
  8 28  1  0
  9 10  1  0
 10 11  1  0
 10 29  1  0
 10 30  1  0
 11 12  1  0
 11 13  1  0
 11 31  1  1
 12 32  1  0
 12 33  1  0
 13 14  1  0
 13 34  1  0
 13 35  1  0
 14 15  1  0
 14 19  1  0
 15 16  1  0
 15 36  1  0
 15 37  1  0
 16 17  1  0
 16 38  1  0
 16 39  1  0
 17 18  1  0
 18 19  1  0
 18 40  1  0
 18 41  1  0
 19 42  1  0
 19 43  1  0
M  END

