
     RDKit          3D

 76 78  0  0  0  0  0  0  0  0999 V2000
    1.3851   -1.1254    0.8193 C   0  0  0  0  0  0  0  0  0  0  0  0
    2.2185   -0.1096    0.5645 C   0  0  0  0  0  0  0  0  0  0  0  0
    2.8954    0.6871    1.6725 C   0  0  0  0  0  0  0  0  0  0  0  0
    2.0077    1.0073    2.8414 C   0  0  0  0  0  0  0  0  0  0  0  0
    2.1841    0.6056    4.1401 C   0  0  0  0  0  0  0  0  0  0  0  0
    0.9341    1.2600    5.1438 S   0  0  0  0  0  0  0  0  0  0  0  0
    0.2384    2.0388    3.7410 C   0  0  0  0  0  0  0  0  0  0  0  0
   -0.9918    2.8871    3.8436 C   0  0  0  0  0  0  0  0  0  0  0  0
    0.9004    1.8089    2.6409 N   0  0  0  0  0  0  0  0  0  0  0  0
    2.5761    0.2895   -0.8595 C   0  0  1  0  0  0  0  0  0  0  0  0
    3.1025   -0.8262   -1.6112 O   0  0  0  0  0  0  0  0  0  0  0  0
    4.2162   -1.4725   -1.2129 C   0  0  0  0  0  0  0  0  0  0  0  0
    4.9298   -1.0954   -0.3173 O   0  0  0  0  0  0  0  0  0  0  0  0
    4.3619   -2.7424   -2.0261 C   0  0  0  0  0  0  0  0  0  0  0  0
    3.5082   -3.8842   -1.4088 C   0  0  0  0  0  0  0  0  0  0  0  0
    2.7641   -4.8513   -2.3865 C   0  0  2  0  0  0  0  0  0  0  0  0
    2.4237   -6.1281   -1.5952 C   0  0  0  0  0  0  0  0  0  0  0  0
    3.6611   -5.2317   -3.5862 C   0  0  0  0  0  0  0  0  0  0  0  0
    1.5023   -4.1173   -2.9414 C   0  0  0  0  0  0  0  0  0  0  0  0
    1.6331   -3.0071   -3.4219 O   0  0  0  0  0  0  0  0  0  0  0  0
    0.1246   -4.7996   -2.9518 C   0  0  2  0  0  0  0  0  0  0  0  0
    0.0328   -5.6572   -4.2353 C   0  0  0  0  0  0  0  0  0  0  0  0
   -1.0506   -3.8036   -2.8944 C   0  0  0  0  0  0  0  0  0  0  0  0
   -1.1670   -2.9309   -1.6303 C   0  0  2  0  0  0  0  0  0  0  0  0
   -1.1655   -3.7558   -0.3350 C   0  0  0  0  0  0  0  0  0  0  0  0
   -2.4217   -2.0234   -1.6813 C   0  0  0  0  0  0  0  0  0  0  0  0
   -2.2733   -0.7116   -0.8715 C   0  0  0  0  0  0  0  0  0  0  0  0
   -1.8785    0.4968   -1.7481 C   0  0  0  0  0  0  0  0  0  0  0  0
   -1.0815    1.5989   -1.0586 C   0  0  2  0  0  0  0  0  0  0  0  0
   -1.8407    2.3237    0.0381 C   0  0  0  0  0  0  0  0  0  0  0  0
   -0.3838    2.4715   -1.9680 O   0  0  0  0  0  0  0  0  0  0  0  0
    0.4144    1.7200   -1.0802 C   0  0  1  0  0  0  0  0  0  0  0  0
    1.0757    2.4842   -0.1340 O   0  0  0  0  0  0  0  0  0  0  0  0
    1.4069    0.7730   -1.7789 C   0  0  2  0  0  0  0  0  0  0  0  0
    0.7405   -0.3183   -2.3520 O   0  0  0  0  0  0  0  0  0  0  0  0
    1.1326   -1.4104    1.8447 H   0  0  0  0  0  0  0  0  0  0  0  0
    0.9278   -1.6982    0.0128 H   0  0  0  0  0  0  0  0  0  0  0  0
    3.2613    1.6378    1.2550 H   0  0  0  0  0  0  0  0  0  0  0  0
    3.7871    0.1360    2.0112 H   0  0  0  0  0  0  0  0  0  0  0  0
    2.9761   -0.0201    4.5470 H   0  0  0  0  0  0  0  0  0  0  0  0
   -1.3546    2.9515    4.8785 H   0  0  0  0  0  0  0  0  0  0  0  0
   -1.7965    2.4744    3.2153 H   0  0  0  0  0  0  0  0  0  0  0  0
   -0.7814    3.9063    3.4822 H   0  0  0  0  0  0  0  0  0  0  0  0
    3.3428    1.0749   -0.8237 H   0  0  0  0  0  0  0  0  0  0  0  0
    5.4247   -3.0191   -2.0521 H   0  0  0  0  0  0  0  0  0  0  0  0
    4.0186   -2.5212   -3.0429 H   0  0  0  0  0  0  0  0  0  0  0  0
    2.7570   -3.4567   -0.7243 H   0  0  0  0  0  0  0  0  0  0  0  0
    4.1646   -4.4987   -0.7723 H   0  0  0  0  0  0  0  0  0  0  0  0
    3.3536   -6.6160   -1.2630 H   0  0  0  0  0  0  0  0  0  0  0  0
    1.8703   -6.8614   -2.1999 H   0  0  0  0  0  0  0  0  0  0  0  0
    1.8294   -5.9086   -0.6940 H   0  0  0  0  0  0  0  0  0  0  0  0
    4.6218   -5.6361   -3.2277 H   0  0  0  0  0  0  0  0  0  0  0  0
    3.8691   -4.3663   -4.2301 H   0  0  0  0  0  0  0  0  0  0  0  0
    3.1863   -6.0056   -4.2093 H   0  0  0  0  0  0  0  0  0  0  0  0
    0.0590   -5.4833   -2.0944 H   0  0  0  0  0  0  0  0  0  0  0  0
    0.1163   -5.0218   -5.1313 H   0  0  0  0  0  0  0  0  0  0  0  0
   -0.9393   -6.1730   -4.2739 H   0  0  0  0  0  0  0  0  0  0  0  0
    0.8193   -6.4254   -4.2893 H   0  0  0  0  0  0  0  0  0  0  0  0
   -1.9803   -4.3905   -3.0155 H   0  0  0  0  0  0  0  0  0  0  0  0
   -0.9843   -3.1382   -3.7708 H   0  0  0  0  0  0  0  0  0  0  0  0
   -0.2968   -2.2583   -1.6235 H   0  0  0  0  0  0  0  0  0  0  0  0
   -1.9634   -4.5193   -0.3503 H   0  0  0  0  0  0  0  0  0  0  0  0
   -1.3424   -3.1153    0.5437 H   0  0  0  0  0  0  0  0  0  0  0  0
   -0.2096   -4.2756   -0.1608 H   0  0  0  0  0  0  0  0  0  0  0  0
   -3.2898   -2.6033   -1.3188 H   0  0  0  0  0  0  0  0  0  0  0  0
   -2.6534   -1.7698   -2.7300 H   0  0  0  0  0  0  0  0  0  0  0  0
   -1.5141   -0.8585   -0.0846 H   0  0  0  0  0  0  0  0  0  0  0  0
   -3.2129   -0.4919   -0.3371 H   0  0  0  0  0  0  0  0  0  0  0  0
   -2.7946    0.9738   -2.1437 H   0  0  0  0  0  0  0  0  0  0  0  0
   -1.3003    0.1591   -2.6109 H   0  0  0  0  0  0  0  0  0  0  0  0
   -2.7839    2.7204   -0.3725 H   0  0  0  0  0  0  0  0  0  0  0  0
   -1.2623    3.1649    0.4395 H   0  0  0  0  0  0  0  0  0  0  0  0
   -2.0948    1.6330    0.8584 H   0  0  0  0  0  0  0  0  0  0  0  0
    0.7969    2.2713    0.7856 H   0  0  0  0  0  0  0  0  0  0  0  0
    1.8823    1.3883   -2.5703 H   0  0  0  0  0  0  0  0  0  0  0  0
    1.3892   -0.9113   -2.7643 H   0  0  0  0  0  0  0  0  0  0  0  0
  1  2  2  0
  1 36  1  0
  1 37  1  0
  2  3  1  0
  2 10  1  0
  3  4  1  0
  3 38  1  0
  3 39  1  0
  4  5  2  0
  4  9  1  0
  5  6  1  0
  5 40  1  0
  6  7  1  0
  7  8  1  0
  7  9  2  0
  8 41  1  0
  8 42  1  0
  8 43  1  0
 10 11  1  0
 10 34  1  0
 10 44  1  1
 11 12  1  0
 12 13  2  0
 12 14  1  0
 14 15  1  0
 14 45  1  0
 14 46  1  0
 15 16  1  0
 15 47  1  0
 15 48  1  0
 16 17  1  1
 16 18  1  0
 16 19  1  0
 17 49  1  0
 17 50  1  0
 17 51  1  0
 18 52  1  0
 18 53  1  0
 18 54  1  0
 19 20  2  0
 19 21  1  0
 21 22  1  0
 21 23  1  0
 21 55  1  1
 22 56  1  0
 22 57  1  0
 22 58  1  0
 23 24  1  0
 23 59  1  0
 23 60  1  0
 24 25  1  0
 24 26  1  0
 24 61  1  1
 25 62  1  0
 25 63  1  0
 25 64  1  0
 26 27  1  0
 26 65  1  0
 26 66  1  0
 27 28  1  0
 27 67  1  0
 27 68  1  0
 28 29  1  0
 28 69  1  0
 28 70  1  0
 29 30  1  1
 29 31  1  0
 29 32  1  0
 30 71  1  0
 30 72  1  0
 30 73  1  0
 31 32  1  0
 32 33  1  1
 32 34  1  0
 33 74  1  0
 34 35  1  0
 34 75  1  6
 35 76  1  0
M  END

