
     RDKit          3D

 49 52  0  0  0  0  0  0  0  0999 V2000
    1.2854   -0.1695    1.0404 C   0  0  0  0  0  0  0  0  0  0  0  0
    2.7389   -0.0475    0.6612 C   0  0  0  0  0  0  0  0  0  0  0  0
    3.3421    1.1982    0.4993 C   0  0  0  0  0  0  0  0  0  0  0  0
    4.7183    1.2088    0.1484 C   0  0  0  0  0  0  0  0  0  0  0  0
    5.4310    2.3694   -0.0597 N   0  0  0  0  0  0  0  0  0  0  0  0
    6.8866    2.3454   -0.1995 C   0  0  0  0  0  0  0  0  0  0  0  0
    7.3625    3.2789   -1.3164 C   0  0  0  0  0  0  0  0  0  0  0  0
    6.8381    4.7132   -1.1456 C   0  0  2  0  0  0  0  0  0  0  0  0
    7.5588    5.3935   -0.0677 N   0  0  0  0  0  0  0  0  0  0  0  0
    5.3038    4.6577   -0.9772 C   0  0  0  0  0  0  0  0  0  0  0  0
    4.8695    3.6983    0.1379 C   0  0  0  0  0  0  0  0  0  0  0  0
    5.3790    0.0519    0.0029 N   0  0  0  0  0  0  0  0  0  0  0  0
    4.7025   -1.0956    0.1668 C   0  0  0  0  0  0  0  0  0  0  0  0
    5.3991   -2.2670   -0.0213 N   0  0  0  0  0  0  0  0  0  0  0  0
    4.8124   -3.5653    0.2719 C   0  0  0  0  0  0  0  0  0  0  0  0
    4.9534   -4.4873   -0.9383 C   0  0  0  0  0  0  0  0  0  0  0  0
    6.3801   -4.5257   -1.4421 C   0  0  0  0  0  0  0  0  0  0  0  0
    6.8531   -5.6093   -2.2007 C   0  0  0  0  0  0  0  0  0  0  0  0
    8.1664   -5.6483   -2.6671 C   0  0  0  0  0  0  0  0  0  0  0  0
    9.0359   -4.5917   -2.3726 C   0  0  0  0  0  0  0  0  0  0  0  0
    8.5777   -3.5126   -1.6184 C   0  0  0  0  0  0  0  0  0  0  0  0
    7.2545   -3.4629   -1.1507 C   0  0  0  0  0  0  0  0  0  0  0  0
    6.8159   -2.2605   -0.3332 C   0  0  0  0  0  0  0  0  0  0  0  0
    3.4037   -1.1968    0.4957 N   0  0  0  0  0  0  0  0  0  0  0  0
    0.8027    0.8100    1.1666 H   0  0  0  0  0  0  0  0  0  0  0  0
    1.1887   -0.7401    1.9780 H   0  0  0  0  0  0  0  0  0  0  0  0
    0.7433   -0.7380    0.2676 H   0  0  0  0  0  0  0  0  0  0  0  0
    2.7624    2.1034    0.6608 H   0  0  0  0  0  0  0  0  0  0  0  0
    7.1883    1.3118   -0.3945 H   0  0  0  0  0  0  0  0  0  0  0  0
    7.3523    2.6367    0.7656 H   0  0  0  0  0  0  0  0  0  0  0  0
    7.0111    2.8793   -2.2824 H   0  0  0  0  0  0  0  0  0  0  0  0
    8.4635    3.2939   -1.3387 H   0  0  0  0  0  0  0  0  0  0  0  0
    7.0600    5.2737   -2.0702 H   0  0  0  0  0  0  0  0  0  0  0  0
    7.4060    4.9353    0.8307 H   0  0  0  0  0  0  0  0  0  0  0  0
    7.2204    6.3501    0.0397 H   0  0  0  0  0  0  0  0  0  0  0  0
    4.8452    4.3258   -1.9251 H   0  0  0  0  0  0  0  0  0  0  0  0
    4.9093    5.6662   -0.7626 H   0  0  0  0  0  0  0  0  0  0  0  0
    3.7761    3.6462    0.1612 H   0  0  0  0  0  0  0  0  0  0  0  0
    5.1878    4.1009    1.1232 H   0  0  0  0  0  0  0  0  0  0  0  0
    3.7625   -3.4067    0.5385 H   0  0  0  0  0  0  0  0  0  0  0  0
    5.3253   -4.0155    1.1458 H   0  0  0  0  0  0  0  0  0  0  0  0
    4.2835   -4.1266   -1.7400 H   0  0  0  0  0  0  0  0  0  0  0  0
    4.6150   -5.5049   -0.6806 H   0  0  0  0  0  0  0  0  0  0  0  0
    6.1730   -6.4372   -2.4233 H   0  0  0  0  0  0  0  0  0  0  0  0
    8.5145   -6.5015   -3.2551 H   0  0  0  0  0  0  0  0  0  0  0  0
   10.0685   -4.6105   -2.7306 H   0  0  0  0  0  0  0  0  0  0  0  0
    9.2568   -2.6859   -1.3865 H   0  0  0  0  0  0  0  0  0  0  0  0
    7.0425   -1.3360   -0.8807 H   0  0  0  0  0  0  0  0  0  0  0  0
    7.4224   -2.2168    0.5972 H   0  0  0  0  0  0  0  0  0  0  0  0
  1  2  1  0
  1 25  1  0
  1 26  1  0
  1 27  1  0
  2  3  2  0
  2 24  1  0
  3  4  1  0
  3 28  1  0
  4  5  1  0
  4 12  2  0
  5  6  1  0
  5 11  1  0
  6  7  1  0
  6 29  1  0
  6 30  1  0
  7  8  1  0
  7 31  1  0
  7 32  1  0
  8  9  1  0
  8 10  1  0
  8 33  1  6
  9 34  1  0
  9 35  1  0
 10 11  1  0
 10 36  1  0
 10 37  1  0
 11 38  1  0
 11 39  1  0
 12 13  1  0
 13 14  1  0
 13 24  2  0
 14 15  1  0
 14 23  1  0
 15 16  1  0
 15 40  1  0
 15 41  1  0
 16 17  1  0
 16 42  1  0
 16 43  1  0
 17 18  2  0
 17 22  1  0
 18 19  1  0
 18 44  1  0
 19 20  2  0
 19 45  1  0
 20 21  1  0
 20 46  1  0
 21 22  2  0
 21 47  1  0
 22 23  1  0
 23 48  1  0
 23 49  1  0
M  END

