
     RDKit          3D

 38 42  0  0  0  0  0  0  0  0999 V2000
    1.5060    0.1148    1.6137 O   0  0  0  0  0  0  0  0  0  0  0  0
    2.6871    0.0543    1.3602 C   0  0  0  0  0  0  0  0  0  0  0  0
    3.4514   -1.1095    1.4110 N   0  0  0  0  0  0  0  0  0  0  0  0
    4.7762   -0.8737    1.0712 C   0  0  0  0  0  0  0  0  0  0  0  0
    5.6547   -1.7077    1.0570 O   0  0  0  0  0  0  0  0  0  0  0  0
    4.8691    0.5989    0.7431 C   0  0  0  0  0  0  0  0  0  0  0  0
    6.1245    1.1459    0.2585 C   0  0  0  0  0  0  0  0  0  0  0  0
    7.3741    0.6383    0.5962 C   0  0  0  0  0  0  0  0  0  0  0  0
    8.3571    1.3449   -0.0393 N   0  0  0  0  0  0  0  0  0  0  0  0
    9.3478    1.1587    0.0403 H   0  0  0  0  0  0  0  0  0  0  0  0
    7.7883    2.3178   -0.8397 C   0  0  0  0  0  0  0  0  0  0  0  0
    8.3964    3.2432   -1.6962 C   0  0  0  0  0  0  0  0  0  0  0  0
    7.5645    4.0872   -2.4281 C   0  0  0  0  0  0  0  0  0  0  0  0
    6.1619    3.9976   -2.3141 C   0  0  0  0  0  0  0  0  0  0  0  0
    5.5614    3.0777   -1.4571 C   0  0  0  0  0  0  0  0  0  0  0  0
    6.3754    2.2247   -0.6860 C   0  0  0  0  0  0  0  0  0  0  0  0
    3.6331    1.1603    0.9577 C   0  0  0  0  0  0  0  0  0  0  0  0
    3.2334    2.5590    0.9835 C   0  0  0  0  0  0  0  0  0  0  0  0
    4.0631    3.5952    1.3887 C   0  0  0  0  0  0  0  0  0  0  0  0
    3.4002    4.7884    1.3133 N   0  0  0  0  0  0  0  0  0  0  0  0
    3.7936    5.6872    1.5579 H   0  0  0  0  0  0  0  0  0  0  0  0
    2.1173    4.5786    0.8445 C   0  0  0  0  0  0  0  0  0  0  0  0
    1.0953    5.5023    0.5879 C   0  0  0  0  0  0  0  0  0  0  0  0
   -0.1094    5.0069    0.0991 C   0  0  0  0  0  0  0  0  0  0  0  0
   -0.2863    3.6248   -0.1257 C   0  0  0  0  0  0  0  0  0  0  0  0
    0.7298    2.7108    0.1350 C   0  0  0  0  0  0  0  0  0  0  0  0
    1.9627    3.1789    0.6319 C   0  0  0  0  0  0  0  0  0  0  0  0
    3.0806   -2.0190    1.6607 H   0  0  0  0  0  0  0  0  0  0  0  0
    7.6079   -0.1978    1.2494 H   0  0  0  0  0  0  0  0  0  0  0  0
    9.4836    3.2937   -1.7963 H   0  0  0  0  0  0  0  0  0  0  0  0
    8.0053    4.8199   -3.1086 H   0  0  0  0  0  0  0  0  0  0  0  0
    5.5337    4.6598   -2.9150 H   0  0  0  0  0  0  0  0  0  0  0  0
    4.4752    3.0121   -1.3957 H   0  0  0  0  0  0  0  0  0  0  0  0
    5.0912    3.5456    1.7394 H   0  0  0  0  0  0  0  0  0  0  0  0
    1.2409    6.5714    0.7623 H   0  0  0  0  0  0  0  0  0  0  0  0
   -0.9296    5.6975   -0.1124 H   0  0  0  0  0  0  0  0  0  0  0  0
   -1.2455    3.2650   -0.5063 H   0  0  0  0  0  0  0  0  0  0  0  0
    0.5690    1.6443   -0.0178 H   0  0  0  0  0  0  0  0  0  0  0  0
  1  2  2  0
  2  3  1  0
  2 17  1  0
  3  4  1  0
  3 28  1  0
  4  5  2  0
  4  6  1  0
  6  7  1  0
  6 17  2  0
  7  8  2  0
  7 16  1  0
  8  9  1  0
  8 29  1  0
  9 10  1  0
  9 11  1  0
 11 12  1  0
 11 16  2  0
 12 13  2  0
 12 30  1  0
 13 14  1  0
 13 31  1  0
 14 15  2  0
 14 32  1  0
 15 16  1  0
 15 33  1  0
 17 18  1  0
 18 19  2  0
 18 27  1  0
 19 20  1  0
 19 34  1  0
 20 21  1  0
 20 22  1  0
 22 23  1  0
 22 27  2  0
 23 24  2  0
 23 35  1  0
 24 25  1  0
 24 36  1  0
 25 26  2  0
 25 37  1  0
 26 27  1  0
 26 38  1  0
M  END

