
     RDKit          3D

 29 29  0  0  0  0  0  0  0  0999 V2000
    0.8395   -0.0950   -0.2988 C   0  0  0  0  0  0  0  0  0  0  0  0
    2.3521   -0.0002   -0.0503 C   0  0  1  0  0  0  0  0  0  0  0  0
    2.8952   -1.3541    0.4561 C   0  0  0  0  0  0  0  0  0  0  0  0
    4.3745   -1.3506    0.7292 C   0  0  0  0  0  0  0  0  0  0  0  0
    4.8343   -0.7061    1.8455 N   0  0  0  0  0  0  0  0  0  0  0  0
    5.1360   -1.8795   -0.1699 N   0  0  0  0  0  0  0  0  0  0  0  0
    6.4897   -1.7475    0.2007 O   0  0  0  0  0  0  0  0  0  0  0  0
    3.0880    0.3825   -1.2435 N   0  0  0  0  0  0  0  0  0  0  0  0
    3.2144    1.6637   -1.7145 C   0  0  0  0  0  0  0  0  0  0  0  0
    2.5373    2.7627   -1.1378 C   0  0  0  0  0  0  0  0  0  0  0  0
    2.6907    4.0489   -1.6559 C   0  0  0  0  0  0  0  0  0  0  0  0
    1.8233    5.3682   -0.8950 Cl  0  0  0  0  0  0  0  0  0  0  0  0
    3.5098    4.3105   -2.7541 C   0  0  0  0  0  0  0  0  0  0  0  0
    4.1901    3.2350   -3.3334 C   0  0  0  0  0  0  0  0  0  0  0  0
    4.0485    1.9463   -2.8313 C   0  0  0  0  0  0  0  0  0  0  0  0
    4.9277    0.6281   -3.5899 Cl  0  0  0  0  0  0  0  0  0  0  0  0
    0.3018   -0.3289    0.6345 H   0  0  0  0  0  0  0  0  0  0  0  0
    0.6221   -0.8859   -1.0341 H   0  0  0  0  0  0  0  0  0  0  0  0
    0.4368    0.8487   -0.6945 H   0  0  0  0  0  0  0  0  0  0  0  0
    2.5347    0.7538    0.7404 H   0  0  0  0  0  0  0  0  0  0  0  0
    2.6974   -2.1303   -0.2984 H   0  0  0  0  0  0  0  0  0  0  0  0
    2.3413   -1.6348    1.3677 H   0  0  0  0  0  0  0  0  0  0  0  0
    4.2133   -0.5793    2.6328 H   0  0  0  0  0  0  0  0  0  0  0  0
    5.8241   -0.7986    2.0433 H   0  0  0  0  0  0  0  0  0  0  0  0
    6.9523   -2.1889   -0.5212 H   0  0  0  0  0  0  0  0  0  0  0  0
    3.7712   -0.2854   -1.5924 H   0  0  0  0  0  0  0  0  0  0  0  0
    1.8861    2.6198   -0.2777 H   0  0  0  0  0  0  0  0  0  0  0  0
    3.6138    5.3221   -3.1460 H   0  0  0  0  0  0  0  0  0  0  0  0
    4.8442    3.3959   -4.1924 H   0  0  0  0  0  0  0  0  0  0  0  0
  1  2  1  0
  1 17  1  0
  1 18  1  0
  1 19  1  0
  2  3  1  0
  2  8  1  0
  2 20  1  1
  3  4  1  0
  3 21  1  0
  3 22  1  0
  4  5  1  0
  4  6  2  0
  5 23  1  0
  5 24  1  0
  6  7  1  0
  7 25  1  0
  8  9  1  0
  8 26  1  0
  9 10  2  0
  9 15  1  0
 10 11  1  0
 10 27  1  0
 11 12  1  0
 11 13  2  0
 13 14  1  0
 13 28  1  0
 14 15  2  0
 14 29  1  0
 15 16  1  0
M  END

