
     RDKit          3D

 25 26  0  0  0  0  0  0  0  0999 V2000
    1.1455    0.1819    0.7434 O   0  0  0  0  0  0  0  0  0  0  0  0
    2.3157    0.1979    0.4363 C   0  0  0  0  0  0  0  0  0  0  0  0
    3.3230   -0.0972    1.3731 N   0  0  0  0  0  0  0  0  0  0  0  0
    2.9979   -0.3268    2.3096 H   0  0  0  0  0  0  0  0  0  0  0  0
    4.6972   -0.1382    1.2046 C   0  0  0  0  0  0  0  0  0  0  0  0
    5.4688   -0.4289    2.0952 O   0  0  0  0  0  0  0  0  0  0  0  0
    5.1209    0.1868   -0.0894 N   0  0  0  0  0  0  0  0  0  0  0  0
    6.5624    0.1374   -0.3637 C   0  0  0  0  0  0  0  0  0  0  0  0
    7.0742   -1.2848   -0.6563 C   0  0  0  0  0  0  0  0  0  0  0  0
    8.5514   -1.3064   -0.9582 C   0  0  0  0  0  0  0  0  0  0  0  0
    9.1187   -0.9968   -2.2406 C   0  0  0  0  0  0  0  0  0  0  0  0
   10.4886   -1.0499   -2.2519 C   0  0  0  0  0  0  0  0  0  0  0  0
   11.1188   -1.4770   -0.6993 S   0  0  0  0  0  0  0  0  0  0  0  0
    9.5289   -1.5839   -0.0292 C   0  0  0  0  0  0  0  0  0  0  0  0
    4.2190    0.4876   -1.0842 C   0  0  0  0  0  0  0  0  0  0  0  0
    2.8768    0.5087   -0.8873 C   0  0  0  0  0  0  0  0  0  0  0  0
    1.7756    0.9043   -2.1620 Cl  0  0  0  0  0  0  0  0  0  0  0  0
    7.0819    0.5399    0.5157 H   0  0  0  0  0  0  0  0  0  0  0  0
    6.7627    0.8070   -1.2129 H   0  0  0  0  0  0  0  0  0  0  0  0
    6.5108   -1.7031   -1.5080 H   0  0  0  0  0  0  0  0  0  0  0  0
    6.8584   -1.9141    0.2197 H   0  0  0  0  0  0  0  0  0  0  0  0
    8.5235   -0.7561   -3.1243 H   0  0  0  0  0  0  0  0  0  0  0  0
   11.1630   -0.8709   -3.0882 H   0  0  0  0  0  0  0  0  0  0  0  0
    9.3920   -1.8513    1.0184 H   0  0  0  0  0  0  0  0  0  0  0  0
    4.6454    0.7215   -2.0611 H   0  0  0  0  0  0  0  0  0  0  0  0
  1  2  2  0
  2  3  1  0
  2 16  1  0
  3  4  1  0
  3  5  1  0
  5  6  2  0
  5  7  1  0
  7  8  1  0
  7 15  1  0
  8  9  1  0
  8 18  1  0
  8 19  1  0
  9 10  1  0
  9 20  1  0
  9 21  1  0
 10 11  1  0
 10 14  2  0
 11 12  2  0
 11 22  1  0
 12 13  1  0
 12 23  1  0
 13 14  1  0
 14 24  1  0
 15 16  2  0
 15 25  1  0
 16 17  1  0
M  END

