
     RDKit          3D

 55 56  0  0  0  0  0  0  0  0999 V2000
    1.0390    7.0941   -3.2695 C   0  0  0  0  0  0  0  0  0  0  0  0
    2.2714    6.7012   -2.4542 C   0  0  0  0  0  0  0  0  0  0  0  0
    3.3602    7.7782   -2.4394 C   0  0  0  0  0  0  0  0  0  0  0  0
    4.6133    7.4035   -1.6449 C   0  0  0  0  0  0  0  0  0  0  0  0
    5.3343    6.2815   -2.2307 N   0  0  0  0  0  0  0  0  0  0  0  0
    5.9602    5.3483   -1.4690 C   0  0  0  0  0  0  0  0  0  0  0  0
    5.8518    5.2904   -0.2527 O   0  0  0  0  0  0  0  0  0  0  0  0
    6.7545    4.2428   -2.2153 C   0  0  1  0  0  0  0  0  0  0  0  0
    6.2396    3.3236   -1.8976 H   0  0  0  0  0  0  0  0  0  0  0  0
    6.7448    4.2943   -3.7474 C   0  0  0  0  0  0  0  0  0  0  0  0
    8.1196    4.1426   -1.6713 N   0  0  0  0  0  0  0  0  0  0  0  0
    8.6324    2.8361   -1.2592 C   0  0  0  0  0  0  0  0  0  0  0  0
    8.7779    2.6001    0.2390 C   0  0  0  0  0  0  0  0  0  0  0  0
    9.7583    1.7066    0.6981 C   0  0  0  0  0  0  0  0  0  0  0  0
    9.8899    1.4139    2.0576 C   0  0  0  0  0  0  0  0  0  0  0  0
    9.0283    2.0328    2.9606 C   0  0  0  0  0  0  0  0  0  0  0  0
    9.1499    1.7627    4.2689 F   0  0  0  0  0  0  0  0  0  0  0  0
    8.0503    2.9287    2.5356 C   0  0  0  0  0  0  0  0  0  0  0  0
    7.9243    3.2098    1.1722 C   0  0  0  0  0  0  0  0  0  0  0  0
    8.8812    5.2850   -1.6902 C   0  0  0  0  0  0  0  0  0  0  0  0
    8.4394    6.3401   -2.1216 O   0  0  0  0  0  0  0  0  0  0  0  0
   10.2992    5.1794   -1.1369 C   0  0  0  0  0  0  0  0  0  0  0  0
   11.1238    6.7932   -1.3226 S   0  0  0  0  0  0  0  0  0  0  0  0
   12.7570    6.4482   -0.7029 C   0  0  0  0  0  0  0  0  0  0  0  0
   13.7029    7.4788   -0.8761 C   0  0  0  0  0  0  0  0  0  0  0  0
   15.0086    7.3295   -0.4130 C   0  0  0  0  0  0  0  0  0  0  0  0
   15.4050    6.1490    0.2272 C   0  0  0  0  0  0  0  0  0  0  0  0
   14.4732    5.1247    0.3999 C   0  0  0  0  0  0  0  0  0  0  0  0
   13.1574    5.2666   -0.0564 C   0  0  0  0  0  0  0  0  0  0  0  0
    0.2753    6.3003   -3.2552 H   0  0  0  0  0  0  0  0  0  0  0  0
    1.2988    7.2859   -4.3244 H   0  0  0  0  0  0  0  0  0  0  0  0
    0.5711    8.0119   -2.8751 H   0  0  0  0  0  0  0  0  0  0  0  0
    2.6966    5.7628   -2.8508 H   0  0  0  0  0  0  0  0  0  0  0  0
    1.9742    6.4785   -1.4136 H   0  0  0  0  0  0  0  0  0  0  0  0
    2.9537    8.7105   -2.0087 H   0  0  0  0  0  0  0  0  0  0  0  0
    3.6456    8.0333   -3.4783 H   0  0  0  0  0  0  0  0  0  0  0  0
    4.3575    7.1089   -0.6172 H   0  0  0  0  0  0  0  0  0  0  0  0
    5.2865    8.2771   -1.5680 H   0  0  0  0  0  0  0  0  0  0  0  0
    5.6645    6.3984   -3.1813 H   0  0  0  0  0  0  0  0  0  0  0  0
    5.7145    4.2919   -4.1355 H   0  0  0  0  0  0  0  0  0  0  0  0
    7.2545    3.4082   -4.1561 H   0  0  0  0  0  0  0  0  0  0  0  0
    7.2704    5.1863   -4.1188 H   0  0  0  0  0  0  0  0  0  0  0  0
    9.6012    2.6399   -1.7476 H   0  0  0  0  0  0  0  0  0  0  0  0
    7.9436    2.0830   -1.6754 H   0  0  0  0  0  0  0  0  0  0  0  0
   10.4356    1.2271   -0.0156 H   0  0  0  0  0  0  0  0  0  0  0  0
   10.6504    0.7228    2.4261 H   0  0  0  0  0  0  0  0  0  0  0  0
    7.3968    3.3988    3.2732 H   0  0  0  0  0  0  0  0  0  0  0  0
    7.1608    3.9166    0.8336 H   0  0  0  0  0  0  0  0  0  0  0  0
   10.8687    4.4037   -1.6742 H   0  0  0  0  0  0  0  0  0  0  0  0
   10.2533    4.8779   -0.0788 H   0  0  0  0  0  0  0  0  0  0  0  0
   13.4061    8.4018   -1.3817 H   0  0  0  0  0  0  0  0  0  0  0  0
   15.7252    8.1424   -0.5579 H   0  0  0  0  0  0  0  0  0  0  0  0
   16.4298    6.0318    0.5872 H   0  0  0  0  0  0  0  0  0  0  0  0
   14.7649    4.1978    0.9011 H   0  0  0  0  0  0  0  0  0  0  0  0
   12.4543    4.4500    0.1089 H   0  0  0  0  0  0  0  0  0  0  0  0
  1  2  1  0
  1 30  1  0
  1 31  1  0
  1 32  1  0
  2  3  1  0
  2 33  1  0
  2 34  1  0
  3  4  1  0
  3 35  1  0
  3 36  1  0
  4  5  1  0
  4 37  1  0
  4 38  1  0
  5  6  1  0
  5 39  1  0
  6  7  2  0
  6  8  1  0
  8  9  1  6
  8 10  1  0
  8 11  1  0
 10 40  1  0
 10 41  1  0
 10 42  1  0
 11 12  1  0
 11 20  1  0
 12 13  1  0
 12 43  1  0
 12 44  1  0
 13 14  2  0
 13 19  1  0
 14 15  1  0
 14 45  1  0
 15 16  2  0
 15 46  1  0
 16 17  1  0
 16 18  1  0
 18 19  2  0
 18 47  1  0
 19 48  1  0
 20 21  2  0
 20 22  1  0
 22 23  1  0
 22 49  1  0
 22 50  1  0
 23 24  1  0
 24 25  2  0
 24 29  1  0
 25 26  1  0
 25 51  1  0
 26 27  2  0
 26 52  1  0
 27 28  1  0
 27 53  1  0
 28 29  2  0
 28 54  1  0
 29 55  1  0
M  END

