
     RDKit          3D

 28 29  0  0  0  0  0  0  0  0999 V2000
    1.2178    0.2881    0.7984 N   0  0  0  0  0  0  0  0  0  0  0  0
    2.5618    0.2404    0.4883 C   0  0  0  0  0  0  0  0  0  0  0  0
    3.4183   -0.7985    0.8948 C   0  0  0  0  0  0  0  0  0  0  0  0
    4.7569   -0.8274    0.5046 C   0  0  0  0  0  0  0  0  0  0  0  0
    5.3149    0.1770   -0.3071 C   0  0  0  0  0  0  0  0  0  0  0  0
    6.7405    0.1456   -0.7213 C   0  0  0  0  0  0  0  0  0  0  0  0
    7.4736    1.3318   -0.9083 C   0  0  0  0  0  0  0  0  0  0  0  0
    8.8104    1.2906   -1.3118 C   0  0  0  0  0  0  0  0  0  0  0  0
    9.4552    0.0724   -1.5220 C   0  0  0  0  0  0  0  0  0  0  0  0
    8.7347   -1.1108   -1.3311 C   0  0  0  0  0  0  0  0  0  0  0  0
    9.4173   -2.2869   -1.5811 O   0  0  0  0  0  0  0  0  0  0  0  0
    9.0895   -3.4139   -0.8880 C   0  0  1  0  0  0  0  0  0  0  0  0
    8.0128   -4.0337   -1.4452 F   0  0  0  0  0  0  0  0  0  0  0  0
   10.1262   -4.2561   -0.9809 F   0  0  0  0  0  0  0  0  0  0  0  0
    7.3908   -1.0848   -0.9496 C   0  0  0  0  0  0  0  0  0  0  0  0
    4.4628    1.2252   -0.7117 C   0  0  0  0  0  0  0  0  0  0  0  0
    3.1373    1.2406   -0.3194 C   0  0  0  0  0  0  0  0  0  0  0  0
    2.3309    2.2522   -0.7158 F   0  0  0  0  0  0  0  0  0  0  0  0
    0.9109   -0.2349    1.6093 H   0  0  0  0  0  0  0  0  0  0  0  0
    0.7638    1.1862    0.6811 H   0  0  0  0  0  0  0  0  0  0  0  0
    3.0204   -1.5932    1.5316 H   0  0  0  0  0  0  0  0  0  0  0  0
    5.3879   -1.6425    0.8648 H   0  0  0  0  0  0  0  0  0  0  0  0
    7.0005    2.2967   -0.7172 H   0  0  0  0  0  0  0  0  0  0  0  0
    9.3635    2.2232   -1.4488 H   0  0  0  0  0  0  0  0  0  0  0  0
   10.5011    0.0147   -1.8276 H   0  0  0  0  0  0  0  0  0  0  0  0
    8.8559   -3.2119    0.1738 H   0  0  0  0  0  0  0  0  0  0  0  0
    6.8291   -2.0160   -0.8830 H   0  0  0  0  0  0  0  0  0  0  0  0
    4.8147    2.0310   -1.3578 H   0  0  0  0  0  0  0  0  0  0  0  0
  1  2  1  0
  1 19  1  0
  1 20  1  0
  2  3  2  0
  2 17  1  0
  3  4  1  0
  3 21  1  0
  4  5  2  0
  4 22  1  0
  5  6  1  0
  5 16  1  0
  6  7  2  0
  6 15  1  0
  7  8  1  0
  7 23  1  0
  8  9  2  0
  8 24  1  0
  9 10  1  0
  9 25  1  0
 10 11  1  0
 10 15  2  0
 11 12  1  0
 12 13  1  0
 12 14  1  0
 12 26  1  1
 15 27  1  0
 16 17  2  0
 16 28  1  0
 17 18  1  0
M  END

