
     RDKit          3D

 37 37  0  0  0  0  0  0  0  0999 V2000
    0.7105    0.2027    0.1464 C   0  0  0  0  0  0  0  0  0  0  0  0
    2.2106   -0.0439   -0.0322 C   0  0  0  0  0  0  0  0  0  0  0  0
    2.9525   -0.4548    1.2582 C   0  0  1  0  0  0  0  0  0  0  0  0
    2.5294   -1.8322    1.8142 C   0  0  0  0  0  0  0  0  0  0  0  0
    3.0896   -3.0070    1.0033 C   0  0  0  0  0  0  0  0  0  0  0  0
    4.6333   -2.9378    0.8805 C   0  0  2  0  0  0  0  0  0  0  0  0
    5.2584   -3.1804    2.1881 C   0  0  0  0  0  0  0  0  0  0  0  0
    5.7189   -3.3680    3.2357 N   0  0  0  0  0  0  0  0  0  0  0  0
    5.0443   -1.5594    0.2485 C   0  0  2  0  0  0  0  0  0  0  0  0
    6.4493   -1.3911   -0.1035 N   0  0  0  0  0  0  0  0  0  0  0  0
    7.4344   -1.2293    0.9558 C   0  0  0  0  0  0  0  0  0  0  0  0
    6.9176   -2.1919   -1.2174 C   0  0  0  0  0  0  0  0  0  0  0  0
    7.8242   -1.3772   -2.1714 C   0  0  0  0  0  0  0  0  0  0  0  0
    8.2880   -2.1632   -3.3154 C   0  0  0  0  0  0  0  0  0  0  0  0
    8.6329   -2.8089   -4.2137 N   0  0  0  0  0  0  0  0  0  0  0  0
    4.4894   -0.4056    1.0985 C   0  0  0  0  0  0  0  0  0  0  0  0
    0.2539    0.5567   -0.7915 H   0  0  0  0  0  0  0  0  0  0  0  0
    0.5205    0.9681    0.9174 H   0  0  0  0  0  0  0  0  0  0  0  0
    0.1697   -0.7091    0.4464 H   0  0  0  0  0  0  0  0  0  0  0  0
    2.6790    0.8805   -0.4137 H   0  0  0  0  0  0  0  0  0  0  0  0
    2.3597   -0.7978   -0.8254 H   0  0  0  0  0  0  0  0  0  0  0  0
    2.6887    0.3006    2.0199 H   0  0  0  0  0  0  0  0  0  0  0  0
    1.4319   -1.9094    1.8659 H   0  0  0  0  0  0  0  0  0  0  0  0
    2.8873   -1.9199    2.8544 H   0  0  0  0  0  0  0  0  0  0  0  0
    2.6745   -3.0072   -0.0185 H   0  0  0  0  0  0  0  0  0  0  0  0
    2.7940   -3.9646    1.4600 H   0  0  0  0  0  0  0  0  0  0  0  0
    4.9768   -3.7458    0.2122 H   0  0  0  0  0  0  0  0  0  0  0  0
    4.5059   -1.5391   -0.7136 H   0  0  0  0  0  0  0  0  0  0  0  0
    7.0523   -0.5706    1.7461 H   0  0  0  0  0  0  0  0  0  0  0  0
    8.3422   -0.7490    0.5549 H   0  0  0  0  0  0  0  0  0  0  0  0
    7.7437   -2.1820    1.4302 H   0  0  0  0  0  0  0  0  0  0  0  0
    6.0522   -2.5484   -1.7975 H   0  0  0  0  0  0  0  0  0  0  0  0
    7.4702   -3.0985   -0.8907 H   0  0  0  0  0  0  0  0  0  0  0  0
    8.7069   -0.9953   -1.6338 H   0  0  0  0  0  0  0  0  0  0  0  0
    7.2696   -0.4980   -2.5372 H   0  0  0  0  0  0  0  0  0  0  0  0
    4.7974    0.5451    0.6339 H   0  0  0  0  0  0  0  0  0  0  0  0
    4.9451   -0.4332    2.1022 H   0  0  0  0  0  0  0  0  0  0  0  0
  1  2  1  0
  1 17  1  0
  1 18  1  0
  1 19  1  0
  2  3  1  0
  2 20  1  0
  2 21  1  0
  3  4  1  0
  3 16  1  0
  3 22  1  1
  4  5  1  0
  4 23  1  0
  4 24  1  0
  5  6  1  0
  5 25  1  0
  5 26  1  0
  6  7  1  0
  6  9  1  0
  6 27  1  6
  7  8  3  0
  9 10  1  0
  9 16  1  0
  9 28  1  6
 10 11  1  0
 10 12  1  0
 11 29  1  0
 11 30  1  0
 11 31  1  0
 12 13  1  0
 12 32  1  0
 12 33  1  0
 13 14  1  0
 13 34  1  0
 13 35  1  0
 14 15  3  0
 16 36  1  0
 16 37  1  0
M  END

