
     RDKit          3D

 59 60  0  0  0  0  0  0  0  0999 V2000
    8.6898    3.6750    0.0175 C   0  0  0  0  0  0  0  0  0  0  0  0
    8.2481    3.4317   -1.4264 C   0  0  0  0  0  0  0  0  0  0  0  0
    6.7268    3.4213   -1.6040 C   0  0  0  0  0  0  0  0  0  0  0  0
    6.2878    3.1676   -3.0601 C   0  0  0  0  0  0  0  0  0  0  0  0
    4.7850    3.1696   -3.2820 C   0  0  0  0  0  0  0  0  0  0  0  0
    4.0996    4.3986   -3.4778 C   0  0  0  0  0  0  0  0  0  0  0  0
    4.8539    5.7227   -3.5230 C   0  0  0  0  0  0  0  0  0  0  0  0
    4.0262    6.8404   -3.9621 N   0  0  0  0  0  0  0  0  0  0  0  0
    2.7078    4.4075   -3.6311 C   0  0  0  0  0  0  0  0  0  0  0  0
    1.9804    3.2176   -3.6199 C   0  0  0  0  0  0  0  0  0  0  0  0
    2.6483    2.0079   -3.4549 C   0  0  0  0  0  0  0  0  0  0  0  0
    4.0415    1.9626   -3.2778 C   0  0  0  0  0  0  0  0  0  0  0  0
    4.6827    0.5966   -3.1075 C   0  0  0  0  0  0  0  0  0  0  0  0
    4.8348    0.0696   -1.6771 C   0  0  0  0  0  0  0  0  0  0  0  0
    4.2285    0.7582   -0.6171 C   0  0  0  0  0  0  0  0  0  0  0  0
    4.3562    0.3166    0.7004 C   0  0  0  0  0  0  0  0  0  0  0  0
    5.1001   -0.8274    0.9666 C   0  0  0  0  0  0  0  0  0  0  0  0
    5.7053   -1.5581   -0.0689 C   0  0  0  0  0  0  0  0  0  0  0  0
    6.4514   -2.8270    0.3339 C   0  0  0  0  0  0  0  0  0  0  0  0
    5.6134   -3.9776    0.6882 N   0  0  0  0  0  0  0  0  0  0  0  0
    5.5719   -1.1183   -1.4098 C   0  0  0  0  0  0  0  0  0  0  0  0
    6.2293   -1.9019   -2.5398 C   0  0  0  0  0  0  0  0  0  0  0  0
    5.5286   -3.2121   -2.9618 C   0  0  0  0  0  0  0  0  0  0  0  0
    4.1061   -3.0576   -3.5084 C   0  0  0  0  0  0  0  0  0  0  0  0
    3.4557   -4.3928   -3.8752 C   0  0  0  0  0  0  0  0  0  0  0  0
    9.7877    3.6733    0.1118 H   0  0  0  0  0  0  0  0  0  0  0  0
    8.2956    2.8967    0.6919 H   0  0  0  0  0  0  0  0  0  0  0  0
    8.3256    4.6474    0.3899 H   0  0  0  0  0  0  0  0  0  0  0  0
    8.6599    2.4688   -1.7800 H   0  0  0  0  0  0  0  0  0  0  0  0
    8.6886    4.2042   -2.0836 H   0  0  0  0  0  0  0  0  0  0  0  0
    6.3118    4.3827   -1.2525 H   0  0  0  0  0  0  0  0  0  0  0  0
    6.2864    2.6486   -0.9526 H   0  0  0  0  0  0  0  0  0  0  0  0
    6.7187    2.2087   -3.3849 H   0  0  0  0  0  0  0  0  0  0  0  0
    6.7588    3.9290   -3.7032 H   0  0  0  0  0  0  0  0  0  0  0  0
    5.7680    5.5893   -4.1379 H   0  0  0  0  0  0  0  0  0  0  0  0
    5.2213    5.9605   -2.5088 H   0  0  0  0  0  0  0  0  0  0  0  0
    3.8191    6.7596   -4.9587 H   0  0  0  0  0  0  0  0  0  0  0  0
    4.5296    7.7179   -3.8419 H   0  0  0  0  0  0  0  0  0  0  0  0
    2.2079    5.3691   -3.7543 H   0  0  0  0  0  0  0  0  0  0  0  0
    0.8945    3.2354   -3.7461 H   0  0  0  0  0  0  0  0  0  0  0  0
    2.0847    1.0704   -3.4579 H   0  0  0  0  0  0  0  0  0  0  0  0
    5.6673    0.5889   -3.5969 H   0  0  0  0  0  0  0  0  0  0  0  0
    4.0786   -0.1290   -3.6767 H   0  0  0  0  0  0  0  0  0  0  0  0
    3.6555    1.6622   -0.8279 H   0  0  0  0  0  0  0  0  0  0  0  0
    3.8854    0.8748    1.5140 H   0  0  0  0  0  0  0  0  0  0  0  0
    5.2238   -1.1668    2.0004 H   0  0  0  0  0  0  0  0  0  0  0  0
    7.0781   -2.5976    1.2123 H   0  0  0  0  0  0  0  0  0  0  0  0
    7.1492   -3.1437   -0.4538 H   0  0  0  0  0  0  0  0  0  0  0  0
    5.0033   -3.7295    1.4686 H   0  0  0  0  0  0  0  0  0  0  0  0
    4.9824   -4.1967   -0.0838 H   0  0  0  0  0  0  0  0  0  0  0  0
    7.2630   -2.1523   -2.2512 H   0  0  0  0  0  0  0  0  0  0  0  0
    6.3277   -1.2663   -3.4306 H   0  0  0  0  0  0  0  0  0  0  0  0
    5.5116   -3.9153   -2.1114 H   0  0  0  0  0  0  0  0  0  0  0  0
    6.1561   -3.7011   -3.7290 H   0  0  0  0  0  0  0  0  0  0  0  0
    4.1275   -2.4052   -4.3998 H   0  0  0  0  0  0  0  0  0  0  0  0
    3.4806   -2.5359   -2.7627 H   0  0  0  0  0  0  0  0  0  0  0  0
    4.0404   -4.9284   -4.6420 H   0  0  0  0  0  0  0  0  0  0  0  0
    2.4376   -4.2517   -4.2719 H   0  0  0  0  0  0  0  0  0  0  0  0
    3.3805   -5.0573   -2.9978 H   0  0  0  0  0  0  0  0  0  0  0  0
  1  2  1  0
  1 26  1  0
  1 27  1  0
  1 28  1  0
  2  3  1  0
  2 29  1  0
  2 30  1  0
  3  4  1  0
  3 31  1  0
  3 32  1  0
  4  5  1  0
  4 33  1  0
  4 34  1  0
  5  6  2  0
  5 12  1  0
  6  7  1  0
  6  9  1  0
  7  8  1  0
  7 35  1  0
  7 36  1  0
  8 37  1  0
  8 38  1  0
  9 10  2  0
  9 39  1  0
 10 11  1  0
 10 40  1  0
 11 12  2  0
 11 41  1  0
 12 13  1  0
 13 14  1  0
 13 42  1  0
 13 43  1  0
 14 15  2  0
 14 21  1  0
 15 16  1  0
 15 44  1  0
 16 17  2  0
 16 45  1  0
 17 18  1  0
 17 46  1  0
 18 19  1  0
 18 21  2  0
 19 20  1  0
 19 47  1  0
 19 48  1  0
 20 49  1  0
 20 50  1  0
 21 22  1  0
 22 23  1  0
 22 51  1  0
 22 52  1  0
 23 24  1  0
 23 53  1  0
 23 54  1  0
 24 25  1  0
 24 55  1  0
 24 56  1  0
 25 57  1  0
 25 58  1  0
 25 59  1  0
M  END

