
     RDKit          3D

 41 42  0  0  0  0  0  0  0  0999 V2000
    0.8275   -0.0326   -0.0559 C   0  0  0  0  0  0  0  0  0  0  0  0
    2.2532   -0.3014    0.4241 C   0  0  0  0  0  0  0  0  0  0  0  0
    2.8825    0.8455    1.0672 N   0  0  0  0  0  0  0  0  0  0  0  0
    2.1933    1.3673    2.2454 C   0  0  0  0  0  0  0  0  0  0  0  0
    2.0214    0.4038    3.4317 C   0  0  0  0  0  0  0  0  0  0  0  0
    4.3306    0.7358    1.2191 C   0  0  0  0  0  0  0  0  0  0  0  0
    5.0598    2.0795    1.0306 C   0  0  0  0  0  0  0  0  0  0  0  0
    6.5429    1.9678    1.2228 C   0  0  0  0  0  0  0  0  0  0  0  0
    7.0881    1.6144    2.4428 N   0  0  0  0  0  0  0  0  0  0  0  0
    8.3952    1.5864    2.2803 C   0  0  0  0  0  0  0  0  0  0  0  0
    8.7334    1.8977    0.9961 N   0  0  0  0  0  0  0  0  0  0  0  0
    7.5645    2.1442    0.3086 C   0  0  0  0  0  0  0  0  0  0  0  0
    7.8821    2.5290   -1.1082 C   0  0  0  0  0  0  0  0  0  0  0  0
    9.3708    2.0964   -1.2398 C   0  0  0  0  0  0  0  0  0  0  0  0
    9.9445    2.0922    0.2029 C   0  0  1  0  0  0  0  0  0  0  0  0
   10.6721    3.3921    0.5895 C   0  0  0  0  0  0  0  0  0  0  0  0
   11.8766    3.5587   -0.2104 N   0  0  0  0  0  0  0  0  0  0  0  0
    0.4623   -0.8828   -0.6539 H   0  0  0  0  0  0  0  0  0  0  0  0
    0.7966    0.8734   -0.6823 H   0  0  0  0  0  0  0  0  0  0  0  0
    0.1204    0.1064    0.7770 H   0  0  0  0  0  0  0  0  0  0  0  0
    2.8704   -0.5588   -0.4527 H   0  0  0  0  0  0  0  0  0  0  0  0
    2.2526   -1.2134    1.0662 H   0  0  0  0  0  0  0  0  0  0  0  0
    1.2014    1.7414    1.9398 H   0  0  0  0  0  0  0  0  0  0  0  0
    2.7454    2.2578    2.5866 H   0  0  0  0  0  0  0  0  0  0  0  0
    1.3854   -0.4589    3.1755 H   0  0  0  0  0  0  0  0  0  0  0  0
    1.5432    0.9247    4.2773 H   0  0  0  0  0  0  0  0  0  0  0  0
    2.9884    0.0139    3.7874 H   0  0  0  0  0  0  0  0  0  0  0  0
    4.7048    0.0336    0.4569 H   0  0  0  0  0  0  0  0  0  0  0  0
    4.6357    0.3087    2.1965 H   0  0  0  0  0  0  0  0  0  0  0  0
    4.6613    2.8125    1.7530 H   0  0  0  0  0  0  0  0  0  0  0  0
    4.8317    2.4708    0.0264 H   0  0  0  0  0  0  0  0  0  0  0  0
    9.1304    1.3379    3.0464 H   0  0  0  0  0  0  0  0  0  0  0  0
    7.7632    3.6160   -1.2663 H   0  0  0  0  0  0  0  0  0  0  0  0
    7.2402    2.0308   -1.8507 H   0  0  0  0  0  0  0  0  0  0  0  0
    9.9702    2.7474   -1.8908 H   0  0  0  0  0  0  0  0  0  0  0  0
    9.4216    1.0768   -1.6520 H   0  0  0  0  0  0  0  0  0  0  0  0
   10.6354    1.2446    0.3538 H   0  0  0  0  0  0  0  0  0  0  0  0
   10.8405    3.3816    1.6873 H   0  0  0  0  0  0  0  0  0  0  0  0
    9.9967    4.2415    0.3906 H   0  0  0  0  0  0  0  0  0  0  0  0
   12.6104    2.9202    0.0991 H   0  0  0  0  0  0  0  0  0  0  0  0
   12.2527    4.5001   -0.1103 H   0  0  0  0  0  0  0  0  0  0  0  0
  1  2  1  0
  1 18  1  0
  1 19  1  0
  1 20  1  0
  2  3  1  0
  2 21  1  0
  2 22  1  0
  3  4  1  0
  3  6  1  0
  4  5  1  0
  4 23  1  0
  4 24  1  0
  5 25  1  0
  5 26  1  0
  5 27  1  0
  6  7  1  0
  6 28  1  0
  6 29  1  0
  7  8  1  0
  7 30  1  0
  7 31  1  0
  8  9  1  0
  8 12  2  0
  9 10  2  0
 10 11  1  0
 10 32  1  0
 11 12  1  0
 11 15  1  0
 12 13  1  0
 13 14  1  0
 13 33  1  0
 13 34  1  0
 14 15  1  0
 14 35  1  0
 14 36  1  0
 15 16  1  0
 15 37  1  6
 16 17  1  0
 16 38  1  0
 16 39  1  0
 17 40  1  0
 17 41  1  0
M  END

