
     RDKit          3D

 52 54  0  0  0  0  0  0  0  0999 V2000
    0.9343   -1.8561   -0.4532 C   0  0  0  0  0  0  0  0  0  0  0  0
    2.3798   -2.1042   -0.8750 C   0  0  0  0  0  0  0  0  0  0  0  0
    3.0868   -0.8425   -1.0504 N   0  0  0  0  0  0  0  0  0  0  0  0
    4.5315   -0.8378   -1.3152 C   0  0  1  0  0  0  0  0  0  0  0  0
    5.4174   -1.4977   -0.1977 C   0  0  2  0  0  0  0  0  0  0  0  0
    4.8520   -1.3603    1.2335 C   0  0  0  0  0  0  0  0  0  0  0  0
    5.0917    0.0240    1.8266 C   0  0  0  0  0  0  0  0  0  0  0  0
    6.4667    0.3402    1.8755 O   0  0  0  0  0  0  0  0  0  0  0  0
    7.1547    0.3275    0.6144 C   0  0  1  0  0  0  0  0  0  0  0  0
    6.8077    1.6058   -0.1898 C   0  0  0  0  0  0  0  0  0  0  0  0
    7.2932    2.8703    0.5233 C   0  0  0  0  0  0  0  0  0  0  0  0
    8.6783    2.8290    0.7952 O   0  0  0  0  0  0  0  0  0  0  0  0
    9.0203    1.7367    1.6263 C   0  0  0  0  0  0  0  0  0  0  0  0
    8.6498    0.4022    0.9810 C   0  0  0  0  0  0  0  0  0  0  0  0
    6.8861   -0.9951   -0.1453 C   0  0  0  0  0  0  0  0  0  0  0  0
    4.7443   -1.3937   -2.7595 C   0  0  1  0  0  0  0  0  0  0  0  0
    4.2706   -0.4342   -3.6923 O   0  0  0  0  0  0  0  0  0  0  0  0
    2.9668   -0.5999   -4.1949 C   0  0  0  0  0  0  0  0  0  0  0  0
    6.1668   -1.7652   -3.1635 C   0  0  1  0  0  0  0  0  0  0  0  0
    6.5188   -1.8929   -4.6236 C   0  0  0  0  0  0  0  0  0  0  0  0
    7.0920   -0.7624   -3.8064 C   0  0  0  0  0  0  0  0  0  0  0  0
    0.3836   -2.8044   -0.3559 H   0  0  0  0  0  0  0  0  0  0  0  0
    0.4122   -1.2240   -1.1889 H   0  0  0  0  0  0  0  0  0  0  0  0
    0.8859   -1.3434    0.5232 H   0  0  0  0  0  0  0  0  0  0  0  0
    2.3788   -2.6563   -1.8304 H   0  0  0  0  0  0  0  0  0  0  0  0
    2.8552   -2.7873   -0.1378 H   0  0  0  0  0  0  0  0  0  0  0  0
    2.8536   -0.1949   -0.3025 H   0  0  0  0  0  0  0  0  0  0  0  0
    4.8052    0.2234   -1.3957 H   0  0  0  0  0  0  0  0  0  0  0  0
    5.4597   -2.5793   -0.4182 H   0  0  0  0  0  0  0  0  0  0  0  0
    5.3682   -2.0915    1.8792 H   0  0  0  0  0  0  0  0  0  0  0  0
    3.7816   -1.6038    1.2837 H   0  0  0  0  0  0  0  0  0  0  0  0
    4.7346    0.0666    2.8679 H   0  0  0  0  0  0  0  0  0  0  0  0
    4.5239    0.7946    1.2642 H   0  0  0  0  0  0  0  0  0  0  0  0
    5.7243    1.6897   -0.3643 H   0  0  0  0  0  0  0  0  0  0  0  0
    7.2838    1.5401   -1.1818 H   0  0  0  0  0  0  0  0  0  0  0  0
    6.7221    3.0060    1.4641 H   0  0  0  0  0  0  0  0  0  0  0  0
    7.1213    3.7568   -0.1069 H   0  0  0  0  0  0  0  0  0  0  0  0
    8.5126    1.8249    2.6069 H   0  0  0  0  0  0  0  0  0  0  0  0
   10.1062    1.7978    1.7975 H   0  0  0  0  0  0  0  0  0  0  0  0
    8.8871   -0.4258    1.6688 H   0  0  0  0  0  0  0  0  0  0  0  0
    9.2459    0.2634    0.0637 H   0  0  0  0  0  0  0  0  0  0  0  0
    7.4736   -1.7738    0.3708 H   0  0  0  0  0  0  0  0  0  0  0  0
    7.3129   -0.9015   -1.1506 H   0  0  0  0  0  0  0  0  0  0  0  0
    4.1484   -2.3222   -2.8532 H   0  0  0  0  0  0  0  0  0  0  0  0
    2.8252    0.1545   -4.9842 H   0  0  0  0  0  0  0  0  0  0  0  0
    2.2040   -0.4496   -3.4128 H   0  0  0  0  0  0  0  0  0  0  0  0
    2.8246   -1.6016   -4.6483 H   0  0  0  0  0  0  0  0  0  0  0  0
    6.6298   -2.5088   -2.5086 H   0  0  0  0  0  0  0  0  0  0  0  0
    5.7482   -1.6348   -5.3537 H   0  0  0  0  0  0  0  0  0  0  0  0
    7.1820   -2.7103   -4.9212 H   0  0  0  0  0  0  0  0  0  0  0  0
    6.6871    0.2348   -3.9943 H   0  0  0  0  0  0  0  0  0  0  0  0
    8.1546   -0.7890   -3.5469 H   0  0  0  0  0  0  0  0  0  0  0  0
  1  2  1  0
  1 22  1  0
  1 23  1  0
  1 24  1  0
  2  3  1  0
  2 25  1  0
  2 26  1  0
  3  4  1  0
  3 27  1  0
  4  5  1  0
  4 16  1  0
  4 28  1  6
  5  6  1  0
  5 15  1  0
  5 29  1  6
  6  7  1  0
  6 30  1  0
  6 31  1  0
  7  8  1  0
  7 32  1  0
  7 33  1  0
  9  8  1  1
  9 10  1  0
  9 14  1  0
  9 15  1  0
 10 11  1  0
 10 34  1  0
 10 35  1  0
 11 12  1  0
 11 36  1  0
 11 37  1  0
 12 13  1  0
 13 14  1  0
 13 38  1  0
 13 39  1  0
 14 40  1  0
 14 41  1  0
 15 42  1  0
 15 43  1  0
 16 17  1  0
 16 19  1  0
 16 44  1  1
 17 18  1  0
 18 45  1  0
 18 46  1  0
 18 47  1  0
 19 20  1  0
 19 21  1  0
 19 48  1  1
 20 21  1  0
 20 49  1  0
 20 50  1  0
 21 51  1  0
 21 52  1  0
M  END

