
     RDKit          3D

 35 36  0  0  0  0  0  0  0  0999 V2000
    0.6334    0.0097    1.2791 C   0  0  0  0  0  0  0  0  0  0  0  0
    2.1558   -0.0376    1.4119 C   0  0  0  0  0  0  0  0  0  0  0  0
    2.8849    0.8030    0.3472 C   0  0  0  0  0  0  0  0  0  0  0  0
    4.3918    0.7639    0.4718 C   0  0  0  0  0  0  0  0  0  0  0  0
    5.1526   -0.2045   -0.1981 C   0  0  0  0  0  0  0  0  0  0  0  0
    6.5417   -0.2609   -0.0524 C   0  0  0  0  0  0  0  0  0  0  0  0
    7.2231    0.6469    0.7701 C   0  0  0  0  0  0  0  0  0  0  0  0
    8.7374    0.5653    0.9194 C   0  0  0  0  0  0  0  0  0  0  0  0
    9.4983    1.8281    0.5578 C   0  0  0  0  0  0  0  0  0  0  0  0
    9.9031    2.0442   -0.7658 C   0  0  0  0  0  0  0  0  0  0  0  0
   10.5634    3.1129   -1.2136 N   0  0  0  0  0  0  0  0  0  0  0  0
   10.8638    4.0494   -0.3089 C   0  0  0  0  0  0  0  0  0  0  0  0
   10.5318    3.9570    1.0389 C   0  0  0  0  0  0  0  0  0  0  0  0
    9.8288    2.8282    1.5054 C   0  0  0  0  0  0  0  0  0  0  0  0
    9.4475    2.7410    2.8310 N   0  0  0  0  0  0  0  0  0  0  0  0
    6.4638    1.6209    1.4403 C   0  0  0  0  0  0  0  0  0  0  0  0
    5.0771    1.6747    1.2927 C   0  0  0  0  0  0  0  0  0  0  0  0
    0.1420   -0.6006    2.0536 H   0  0  0  0  0  0  0  0  0  0  0  0
    0.3038   -0.3701    0.2973 H   0  0  0  0  0  0  0  0  0  0  0  0
    0.2533    1.0406    1.3766 H   0  0  0  0  0  0  0  0  0  0  0  0
    2.5064   -1.0825    1.3449 H   0  0  0  0  0  0  0  0  0  0  0  0
    2.4562    0.3151    2.4144 H   0  0  0  0  0  0  0  0  0  0  0  0
    2.5366    1.8484    0.4176 H   0  0  0  0  0  0  0  0  0  0  0  0
    2.5888    0.4458   -0.6545 H   0  0  0  0  0  0  0  0  0  0  0  0
    4.6525   -0.9242   -0.8535 H   0  0  0  0  0  0  0  0  0  0  0  0
    7.1068   -1.0249   -0.5948 H   0  0  0  0  0  0  0  0  0  0  0  0
    9.1033   -0.2545    0.2823 H   0  0  0  0  0  0  0  0  0  0  0  0
    8.9859    0.2556    1.9519 H   0  0  0  0  0  0  0  0  0  0  0  0
    9.6663    1.2745   -1.5128 H   0  0  0  0  0  0  0  0  0  0  0  0
   11.4072    4.9301   -0.6730 H   0  0  0  0  0  0  0  0  0  0  0  0
   10.8102    4.7563    1.7315 H   0  0  0  0  0  0  0  0  0  0  0  0
    9.9289    3.3432    3.4880 H   0  0  0  0  0  0  0  0  0  0  0  0
    9.2185    1.8269    3.2011 H   0  0  0  0  0  0  0  0  0  0  0  0
    6.9639    2.3520    2.0805 H   0  0  0  0  0  0  0  0  0  0  0  0
    4.5133    2.4488    1.8225 H   0  0  0  0  0  0  0  0  0  0  0  0
  1  2  1  0
  1 18  1  0
  1 19  1  0
  1 20  1  0
  2  3  1  0
  2 21  1  0
  2 22  1  0
  3  4  1  0
  3 23  1  0
  3 24  1  0
  4  5  2  0
  4 17  1  0
  5  6  1  0
  5 25  1  0
  6  7  2  0
  6 26  1  0
  7  8  1  0
  7 16  1  0
  8  9  1  0
  8 27  1  0
  8 28  1  0
  9 10  2  0
  9 14  1  0
 10 11  1  0
 10 29  1  0
 11 12  2  0
 12 13  1  0
 12 30  1  0
 13 14  2  0
 13 31  1  0
 14 15  1  0
 15 32  1  0
 15 33  1  0
 16 17  2  0
 16 34  1  0
 17 35  1  0
M  END

