
     RDKit          3D

 37 38  0  0  0  0  0  0  0  0999 V2000
    1.1490   -0.1200   -0.9709 C   0  0  0  0  0  0  0  0  0  0  0  0
    2.5056   -0.1226   -0.4663 N   0  0  0  0  0  0  0  0  0  0  0  0
    3.2403   -1.2554   -0.2995 C   0  0  0  0  0  0  0  0  0  0  0  0
    4.5690   -1.2145    0.1976 C   0  0  0  0  0  0  0  0  0  0  0  0
    5.2107   -2.4345    0.3212 C   0  0  0  0  0  0  0  0  0  0  0  0
    4.6404   -3.6024   -0.0001 N   0  0  0  0  0  0  0  0  0  0  0  0
    3.3840   -3.5455   -0.4608 C   0  0  0  0  0  0  0  0  0  0  0  0
    2.7294   -4.8320   -0.8236 C   0  0  0  0  0  0  0  0  0  0  0  0
    3.4214   -6.0482   -0.6847 C   0  0  0  0  0  0  0  0  0  0  0  0
    2.8118   -7.2533   -1.0262 C   0  0  0  0  0  0  0  0  0  0  0  0
    1.4936   -7.2935   -1.5151 C   0  0  0  0  0  0  0  0  0  0  0  0
    0.8394   -8.6125   -1.8611 C   0  0  0  0  0  0  0  0  0  0  0  0
    0.3807   -9.4553   -0.6451 C   0  0  1  0  0  0  0  0  0  0  0  0
   -0.7014   -8.7473    0.1778 C   0  0  0  0  0  0  0  0  0  0  0  0
   -0.0900  -10.8416   -1.1017 C   0  0  0  0  0  0  0  0  0  0  0  0
    0.8109   -6.0742   -1.6535 C   0  0  0  0  0  0  0  0  0  0  0  0
    1.4145   -4.8628   -1.3149 C   0  0  0  0  0  0  0  0  0  0  0  0
    2.6681   -2.4221   -0.6211 N   0  0  0  0  0  0  0  0  0  0  0  0
    0.7875    0.9172   -1.0057 H   0  0  0  0  0  0  0  0  0  0  0  0
    0.4740   -0.7081   -0.3273 H   0  0  0  0  0  0  0  0  0  0  0  0
    1.0906   -0.5489   -1.9850 H   0  0  0  0  0  0  0  0  0  0  0  0
    2.9384    0.7573   -0.2236 H   0  0  0  0  0  0  0  0  0  0  0  0
    5.0585   -0.2763    0.4677 H   0  0  0  0  0  0  0  0  0  0  0  0
    6.2397   -2.4792    0.6988 H   0  0  0  0  0  0  0  0  0  0  0  0
    4.4451   -6.0221   -0.3090 H   0  0  0  0  0  0  0  0  0  0  0  0
    3.3731   -8.1866   -0.9178 H   0  0  0  0  0  0  0  0  0  0  0  0
    1.5488   -9.2193   -2.4504 H   0  0  0  0  0  0  0  0  0  0  0  0
   -0.0323   -8.4323   -2.5147 H   0  0  0  0  0  0  0  0  0  0  0  0
    1.2632   -9.5952    0.0068 H   0  0  0  0  0  0  0  0  0  0  0  0
   -1.6134   -8.5884   -0.4243 H   0  0  0  0  0  0  0  0  0  0  0  0
   -0.3629   -7.7638    0.5381 H   0  0  0  0  0  0  0  0  0  0  0  0
   -0.9856   -9.3485    1.0567 H   0  0  0  0  0  0  0  0  0  0  0  0
   -0.9653  -10.7618   -1.7695 H   0  0  0  0  0  0  0  0  0  0  0  0
   -0.3844  -11.4667   -0.2432 H   0  0  0  0  0  0  0  0  0  0  0  0
    0.7003  -11.3775   -1.6525 H   0  0  0  0  0  0  0  0  0  0  0  0
   -0.2131   -6.0749   -2.0384 H   0  0  0  0  0  0  0  0  0  0  0  0
    0.8763   -3.9211   -1.4282 H   0  0  0  0  0  0  0  0  0  0  0  0
  1  2  1  0
  1 19  1  0
  1 20  1  0
  1 21  1  0
  2  3  1  0
  2 22  1  0
  3  4  2  0
  3 18  1  0
  4  5  1  0
  4 23  1  0
  5  6  2  0
  5 24  1  0
  6  7  1  0
  7  8  1  0
  7 18  2  0
  8  9  2  0
  8 17  1  0
  9 10  1  0
  9 25  1  0
 10 11  2  0
 10 26  1  0
 11 12  1  0
 11 16  1  0
 12 13  1  0
 12 27  1  0
 12 28  1  0
 13 14  1  0
 13 15  1  0
 13 29  1  1
 14 30  1  0
 14 31  1  0
 14 32  1  0
 15 33  1  0
 15 34  1  0
 15 35  1  0
 16 17  2  0
 16 36  1  0
 17 37  1  0
M  END

