
     RDKit          3D

 41 41  0  0  0  0  0  0  0  0999 V2000
    0.8929   -0.2251    0.1193 C   0  0  0  0  0  0  0  0  0  0  0  0
    2.3822    0.1213    0.0596 C   0  0  0  0  0  0  0  0  0  0  0  0
    2.9087    0.5282   -1.3313 C   0  0  1  0  0  0  0  0  0  0  0  0
    2.1964    1.7620   -1.9297 C   0  0  0  0  0  0  0  0  0  0  0  0
    2.3673    3.0796   -1.1665 C   0  0  0  0  0  0  0  0  0  0  0  0
    4.4398    0.6778   -1.2840 C   0  0  0  0  0  0  0  0  0  0  0  0
    5.0283    0.9569   -2.5833 N   0  0  0  0  0  0  0  0  0  0  0  0
    6.4828    0.9375   -2.6078 C   0  0  0  0  0  0  0  0  0  0  0  0
    7.0196    1.2626   -4.0020 C   0  0  0  0  0  0  0  0  0  0  0  0
    8.5374    1.1373   -4.1506 C   0  0  1  0  0  0  0  0  0  0  0  0
    9.0592    1.3831   -5.5769 C   0  0  0  0  0  0  0  0  0  0  0  0
   10.5799    1.5191   -5.3987 C   0  0  0  0  0  0  0  0  0  0  0  0
   10.7679    2.1872   -4.0075 C   0  0  0  0  0  0  0  0  0  0  0  0
    9.3793    2.1278   -3.3165 C   0  0  0  0  0  0  0  0  0  0  0  0
    0.6137   -0.5961    1.1186 H   0  0  0  0  0  0  0  0  0  0  0  0
    0.6348   -1.0113   -0.6102 H   0  0  0  0  0  0  0  0  0  0  0  0
    0.2524    0.6455   -0.0940 H   0  0  0  0  0  0  0  0  0  0  0  0
    2.9634   -0.7541    0.4002 H   0  0  0  0  0  0  0  0  0  0  0  0
    2.6033    0.9204    0.7903 H   0  0  0  0  0  0  0  0  0  0  0  0
    2.7043   -0.3097   -2.0232 H   0  0  0  0  0  0  0  0  0  0  0  0
    1.1207    1.5372   -2.0234 H   0  0  0  0  0  0  0  0  0  0  0  0
    2.5463    1.8913   -2.9687 H   0  0  0  0  0  0  0  0  0  0  0  0
    1.9755    3.0168   -0.1385 H   0  0  0  0  0  0  0  0  0  0  0  0
    1.8266    3.8962   -1.6714 H   0  0  0  0  0  0  0  0  0  0  0  0
    3.4244    3.3850   -1.0943 H   0  0  0  0  0  0  0  0  0  0  0  0
    4.8655   -0.2757   -0.9239 H   0  0  0  0  0  0  0  0  0  0  0  0
    4.7186    1.4331   -0.5113 H   0  0  0  0  0  0  0  0  0  0  0  0
    4.7009    1.8585   -2.9286 H   0  0  0  0  0  0  0  0  0  0  0  0
    6.8174   -0.0759   -2.3172 H   0  0  0  0  0  0  0  0  0  0  0  0
    6.9339    1.6292   -1.8591 H   0  0  0  0  0  0  0  0  0  0  0  0
    6.7176    2.2921   -4.2781 H   0  0  0  0  0  0  0  0  0  0  0  0
    6.5175    0.5929   -4.7212 H   0  0  0  0  0  0  0  0  0  0  0  0
    8.8286    0.1082   -3.8614 H   0  0  0  0  0  0  0  0  0  0  0  0
    8.6301    2.3272   -5.9607 H   0  0  0  0  0  0  0  0  0  0  0  0
    8.7732    0.5876   -6.2840 H   0  0  0  0  0  0  0  0  0  0  0  0
   11.0555    2.0874   -6.2131 H   0  0  0  0  0  0  0  0  0  0  0  0
   11.0412    0.5176   -5.4021 H   0  0  0  0  0  0  0  0  0  0  0  0
   11.1163    3.2278   -4.1011 H   0  0  0  0  0  0  0  0  0  0  0  0
   11.5336    1.6584   -3.4184 H   0  0  0  0  0  0  0  0  0  0  0  0
    8.8947    3.1199   -3.3490 H   0  0  0  0  0  0  0  0  0  0  0  0
    9.4472    1.8449   -2.2547 H   0  0  0  0  0  0  0  0  0  0  0  0
  1  2  1  0
  1 15  1  0
  1 16  1  0
  1 17  1  0
  2  3  1  0
  2 18  1  0
  2 19  1  0
  3  4  1  0
  3  6  1  0
  3 20  1  6
  4  5  1  0
  4 21  1  0
  4 22  1  0
  5 23  1  0
  5 24  1  0
  5 25  1  0
  6  7  1  0
  6 26  1  0
  6 27  1  0
  7  8  1  0
  7 28  1  0
  8  9  1  0
  8 29  1  0
  8 30  1  0
  9 10  1  0
  9 31  1  0
  9 32  1  0
 10 11  1  0
 10 14  1  0
 10 33  1  1
 11 12  1  0
 11 34  1  0
 11 35  1  0
 12 13  1  0
 12 36  1  0
 12 37  1  0
 13 14  1  0
 13 38  1  0
 13 39  1  0
 14 40  1  0
 14 41  1  0
M  END

