
     RDKit          3D

 35 37  0  0  0  0  0  0  0  0999 V2000
    2.5425   -0.5932    1.2507 C   0  0  0  0  0  0  0  0  0  0  0  0
    3.5470   -0.6146    0.3716 C   0  0  0  0  0  0  0  0  0  0  0  0
    4.4632    0.5466    0.0904 C   0  0  0  0  0  0  0  0  0  0  0  0
    5.8507    0.1849    0.3207 N   0  0  0  0  0  0  0  0  0  0  0  0
    6.9817    0.6346   -0.3267 C   0  0  0  0  0  0  0  0  0  0  0  0
    8.0851    0.1791   -0.0795 O   0  0  0  0  0  0  0  0  0  0  0  0
    6.7472    1.6251   -1.2766 N   0  0  0  0  0  0  0  0  0  0  0  0
    7.7450    2.2561   -2.0449 C   0  0  0  0  0  0  0  0  0  0  0  0
    8.8046    1.6254   -2.7117 C   0  0  0  0  0  0  0  0  0  0  0  0
    9.7155    2.3880   -3.4653 C   0  0  0  0  0  0  0  0  0  0  0  0
    9.6194    3.7710   -3.6276 C   0  0  0  0  0  0  0  0  0  0  0  0
    8.5470    4.3915   -2.9791 C   0  0  0  0  0  0  0  0  0  0  0  0
    7.6474    3.6466   -2.2234 C   0  0  0  0  0  0  0  0  0  0  0  0
    6.6310    4.3931   -1.6793 O   0  0  0  0  0  0  0  0  0  0  0  0
    6.9928    5.7777   -1.8497 C   0  0  0  0  0  0  0  0  0  0  0  0
    8.0573    5.8240   -2.9713 C   0  0  0  0  0  0  0  0  0  0  0  0
   10.6920    1.6281   -4.0368 O   0  0  0  0  0  0  0  0  0  0  0  0
   10.3119    0.2466   -3.8995 C   0  0  0  0  0  0  0  0  0  0  0  0
    9.2543    0.1853   -2.7770 C   0  0  0  0  0  0  0  0  0  0  0  0
    1.9010   -1.4647    1.4071 H   0  0  0  0  0  0  0  0  0  0  0  0
    2.3187    0.3000    1.8440 H   0  0  0  0  0  0  0  0  0  0  0  0
    3.7553   -1.5260   -0.2027 H   0  0  0  0  0  0  0  0  0  0  0  0
    4.1480    1.4215    0.6936 H   0  0  0  0  0  0  0  0  0  0  0  0
    4.3560    0.8301   -0.9713 H   0  0  0  0  0  0  0  0  0  0  0  0
    6.0578   -0.4493    1.0842 H   0  0  0  0  0  0  0  0  0  0  0  0
    5.9329    2.2124   -1.1317 H   0  0  0  0  0  0  0  0  0  0  0  0
   10.3421    4.3162   -4.2365 H   0  0  0  0  0  0  0  0  0  0  0  0
    7.4083    6.1473   -0.8948 H   0  0  0  0  0  0  0  0  0  0  0  0
    6.0788    6.3449   -2.0766 H   0  0  0  0  0  0  0  0  0  0  0  0
    8.8474    6.5602   -2.7567 H   0  0  0  0  0  0  0  0  0  0  0  0
    7.6147    6.0935   -3.9471 H   0  0  0  0  0  0  0  0  0  0  0  0
   11.2189   -0.3370   -3.6852 H   0  0  0  0  0  0  0  0  0  0  0  0
    9.8977   -0.0956   -4.8659 H   0  0  0  0  0  0  0  0  0  0  0  0
    9.6665   -0.1298   -1.8066 H   0  0  0  0  0  0  0  0  0  0  0  0
    8.4366   -0.5135   -3.0131 H   0  0  0  0  0  0  0  0  0  0  0  0
  1  2  2  0
  1 20  1  0
  1 21  1  0
  2  3  1  0
  2 22  1  0
  3  4  1  0
  3 23  1  0
  3 24  1  0
  4  5  1  0
  4 25  1  0
  5  6  2  0
  5  7  1  0
  7  8  1  0
  7 26  1  0
  8  9  2  0
  8 13  1  0
  9 10  1  0
  9 19  1  0
 10 11  2  0
 10 17  1  0
 11 12  1  0
 11 27  1  0
 12 13  2  0
 12 16  1  0
 13 14  1  0
 14 15  1  0
 15 16  1  0
 15 28  1  0
 15 29  1  0
 16 30  1  0
 16 31  1  0
 17 18  1  0
 18 19  1  0
 18 32  1  0
 18 33  1  0
 19 34  1  0
 19 35  1  0
M  END

