
     RDKit          3D

 47 47  0  0  0  0  0  0  0  0999 V2000
    5.8022   -4.2557   -2.9175 C   0  0  0  0  0  0  0  0  0  0  0  0
    4.9690   -3.6255   -1.7989 C   0  0  0  0  0  0  0  0  0  0  0  0
    5.5192   -3.8542   -0.3750 C   0  0  1  0  0  0  0  0  0  0  0  0
    6.8927   -3.1951   -0.1196 C   0  0  0  0  0  0  0  0  0  0  0  0
    6.8186   -1.6653    0.0015 C   0  0  0  0  0  0  0  0  0  0  0  0
    5.8097   -1.1948    1.0708 C   0  0  2  0  0  0  0  0  0  0  0  0
    6.3204   -1.4007    2.5090 C   0  0  0  0  0  0  0  0  0  0  0  0
    7.5553   -0.6642    2.7459 N   0  0  0  0  0  0  0  0  0  0  0  0
    8.0783   -0.6888    4.1103 C   0  0  1  0  0  0  0  0  0  0  0  0
    8.5100   -2.1068    4.5011 C   0  0  0  0  0  0  0  0  0  0  0  0
    9.2700    0.3001    4.2232 C   0  0  1  0  0  0  0  0  0  0  0  0
    8.9219    1.7422    3.8160 C   0  0  0  0  0  0  0  0  0  0  0  0
    9.7719    0.3243    5.6586 C   0  0  0  0  0  0  0  0  0  0  0  0
    9.1184    0.6783    6.6108 O   0  0  0  0  0  0  0  0  0  0  0  0
   11.0524   -0.0830    5.7571 O   0  0  0  0  0  0  0  0  0  0  0  0
   11.6178   -0.0767    7.0686 C   0  0  0  0  0  0  0  0  0  0  0  0
    4.4384   -1.8638    0.8440 C   0  0  0  0  0  0  0  0  0  0  0  0
    4.5255   -3.3932    0.7131 C   0  0  0  0  0  0  0  0  0  0  0  0
    5.3151   -4.1243   -3.8972 H   0  0  0  0  0  0  0  0  0  0  0  0
    5.9351   -5.3391   -2.7562 H   0  0  0  0  0  0  0  0  0  0  0  0
    6.8063   -3.8084   -2.9916 H   0  0  0  0  0  0  0  0  0  0  0  0
    3.9473   -4.0440   -1.8387 H   0  0  0  0  0  0  0  0  0  0  0  0
    4.8525   -2.5462   -1.9987 H   0  0  0  0  0  0  0  0  0  0  0  0
    5.6474   -4.9470   -0.2637 H   0  0  0  0  0  0  0  0  0  0  0  0
    7.6081   -3.4704   -0.9118 H   0  0  0  0  0  0  0  0  0  0  0  0
    7.3129   -3.6132    0.8118 H   0  0  0  0  0  0  0  0  0  0  0  0
    6.5284   -1.2313   -0.9714 H   0  0  0  0  0  0  0  0  0  0  0  0
    7.8142   -1.2626    0.2425 H   0  0  0  0  0  0  0  0  0  0  0  0
    5.6698   -0.1035    0.9460 H   0  0  0  0  0  0  0  0  0  0  0  0
    6.5024   -2.4710    2.6922 H   0  0  0  0  0  0  0  0  0  0  0  0
    5.5109   -1.1053    3.2161 H   0  0  0  0  0  0  0  0  0  0  0  0
    7.4013    0.3026    2.4667 H   0  0  0  0  0  0  0  0  0  0  0  0
    7.3143   -0.3513    4.8475 H   0  0  0  0  0  0  0  0  0  0  0  0
    9.2635   -2.4870    3.7927 H   0  0  0  0  0  0  0  0  0  0  0  0
    7.6585   -2.8028    4.5011 H   0  0  0  0  0  0  0  0  0  0  0  0
    8.9372   -2.1278    5.5148 H   0  0  0  0  0  0  0  0  0  0  0  0
   10.0839   -0.0713    3.5821 H   0  0  0  0  0  0  0  0  0  0  0  0
    8.0772    2.1246    4.4100 H   0  0  0  0  0  0  0  0  0  0  0  0
    8.6733    1.8104    2.7462 H   0  0  0  0  0  0  0  0  0  0  0  0
    9.7805    2.4113    3.9838 H   0  0  0  0  0  0  0  0  0  0  0  0
   12.6515   -0.4273    6.9583 H   0  0  0  0  0  0  0  0  0  0  0  0
   11.0579   -0.7450    7.7404 H   0  0  0  0  0  0  0  0  0  0  0  0
   11.6015    0.9367    7.4977 H   0  0  0  0  0  0  0  0  0  0  0  0
    3.9924   -1.4444   -0.0742 H   0  0  0  0  0  0  0  0  0  0  0  0
    3.7478   -1.5970    1.6629 H   0  0  0  0  0  0  0  0  0  0  0  0
    3.5228   -3.8055    0.5058 H   0  0  0  0  0  0  0  0  0  0  0  0
    4.8346   -3.8268    1.6804 H   0  0  0  0  0  0  0  0  0  0  0  0
  1  2  1  0
  1 19  1  0
  1 20  1  0
  1 21  1  0
  2  3  1  0
  2 22  1  0
  2 23  1  0
  3  4  1  0
  3 18  1  0
  3 24  1  1
  4  5  1  0
  4 25  1  0
  4 26  1  0
  5  6  1  0
  5 27  1  0
  5 28  1  0
  6  7  1  0
  6 17  1  0
  6 29  1  6
  7  8  1  0
  7 30  1  0
  7 31  1  0
  8  9  1  0
  8 32  1  0
  9 10  1  0
  9 11  1  0
  9 33  1  1
 10 34  1  0
 10 35  1  0
 10 36  1  0
 11 12  1  0
 11 13  1  0
 11 37  1  6
 12 38  1  0
 12 39  1  0
 12 40  1  0
 13 14  2  0
 13 15  1  0
 15 16  1  0
 16 41  1  0
 16 42  1  0
 16 43  1  0
 17 18  1  0
 17 44  1  0
 17 45  1  0
 18 46  1  0
 18 47  1  0
M  END

