
     RDKit          3D

 52 54  0  0  0  0  0  0  0  0999 V2000
   10.4412   -0.3964    3.0055 C   0  0  0  0  0  0  0  0  0  0  0  0
   10.1917   -0.9767    1.7479 O   0  0  0  0  0  0  0  0  0  0  0  0
    9.0966   -0.6024    1.0372 C   0  0  0  0  0  0  0  0  0  0  0  0
    8.9395   -1.2456   -0.1981 C   0  0  0  0  0  0  0  0  0  0  0  0
    7.8368   -0.9199   -0.9977 C   0  0  0  0  0  0  0  0  0  0  0  0
    7.5991   -1.5062   -2.2546 N   0  0  0  0  0  0  0  0  0  0  0  0
    8.3432   -2.4715   -2.9134 C   0  0  0  0  0  0  0  0  0  0  0  0
    9.3352   -3.0156   -2.4603 O   0  0  0  0  0  0  0  0  0  0  0  0
    7.8388   -2.7918   -4.1631 N   0  0  0  0  0  0  0  0  0  0  0  0
    8.5228   -3.7487   -5.0042 C   0  0  0  0  0  0  0  0  0  0  0  0
    9.6764   -3.1428   -5.8149 C   0  0  0  0  0  0  0  0  0  0  0  0
   10.2804   -4.1562   -6.6489 N   0  0  0  0  0  0  0  0  0  0  0  0
   11.2606   -3.9277   -7.5768 C   0  0  0  0  0  0  0  0  0  0  0  0
   11.6478   -2.6303   -8.0032 C   0  0  0  0  0  0  0  0  0  0  0  0
   12.6236   -2.5397   -8.9724 C   0  0  0  0  0  0  0  0  0  0  0  0
   13.1614   -3.7488   -9.4535 C   0  0  0  0  0  0  0  0  0  0  0  0
   14.1645   -3.7534  -10.4476 N   0  0  0  0  0  0  0  0  0  0  0  0
   14.7835   -4.8433  -10.9919 C   0  0  0  0  0  0  0  0  0  0  0  0
   15.6837   -4.3533  -11.9157 C   0  0  0  0  0  0  0  0  0  0  0  0
   15.5388   -2.9369  -11.8618 C   0  0  0  0  0  0  0  0  0  0  0  0
   16.2743   -1.8994  -12.6564 C   0  0  0  0  0  0  0  0  0  0  0  0
   14.6161   -2.5921  -10.9691 N   0  0  0  0  0  0  0  0  0  0  0  0
   12.7732   -4.9349   -9.0048 N   0  0  0  0  0  0  0  0  0  0  0  0
   11.8421   -5.0317   -8.0797 N   0  0  0  0  0  0  0  0  0  0  0  0
    6.9047    0.0371   -0.5611 C   0  0  0  0  0  0  0  0  0  0  0  0
    7.0760    0.6673    0.6747 C   0  0  0  0  0  0  0  0  0  0  0  0
    6.1222    1.5768    1.0091 O   0  0  0  0  0  0  0  0  0  0  0  0
    6.2131    2.2597    2.2373 C   0  0  0  0  0  0  0  0  0  0  0  0
    8.1757    0.3568    1.4916 C   0  0  0  0  0  0  0  0  0  0  0  0
   11.3671   -0.8520    3.3823 H   0  0  0  0  0  0  0  0  0  0  0  0
    9.6270   -0.6003    3.7249 H   0  0  0  0  0  0  0  0  0  0  0  0
   10.5866    0.6973    2.9360 H   0  0  0  0  0  0  0  0  0  0  0  0
    9.6649   -1.9882   -0.5163 H   0  0  0  0  0  0  0  0  0  0  0  0
    6.7425   -1.2028   -2.7013 H   0  0  0  0  0  0  0  0  0  0  0  0
    7.1418   -2.1960   -4.5933 H   0  0  0  0  0  0  0  0  0  0  0  0
    7.7945   -4.2118   -5.6898 H   0  0  0  0  0  0  0  0  0  0  0  0
    8.9213   -4.5395   -4.3502 H   0  0  0  0  0  0  0  0  0  0  0  0
   10.4001   -2.6863   -5.1116 H   0  0  0  0  0  0  0  0  0  0  0  0
    9.2777   -2.3294   -6.4481 H   0  0  0  0  0  0  0  0  0  0  0  0
   10.2449   -5.1226   -6.3376 H   0  0  0  0  0  0  0  0  0  0  0  0
   11.1968   -1.7328   -7.5786 H   0  0  0  0  0  0  0  0  0  0  0  0
   12.9884   -1.5908   -9.3640 H   0  0  0  0  0  0  0  0  0  0  0  0
   14.5217   -5.8462  -10.6681 H   0  0  0  0  0  0  0  0  0  0  0  0
   16.3576   -4.9283  -12.5468 H   0  0  0  0  0  0  0  0  0  0  0  0
   16.9936   -2.3683  -13.3427 H   0  0  0  0  0  0  0  0  0  0  0  0
   16.8274   -1.2118  -11.9964 H   0  0  0  0  0  0  0  0  0  0  0  0
   15.5780   -1.2885  -13.2532 H   0  0  0  0  0  0  0  0  0  0  0  0
    6.0371    0.3099   -1.1657 H   0  0  0  0  0  0  0  0  0  0  0  0
    5.3447    2.9306    2.2876 H   0  0  0  0  0  0  0  0  0  0  0  0
    7.1348    2.8658    2.3066 H   0  0  0  0  0  0  0  0  0  0  0  0
    6.1783    1.5683    3.0988 H   0  0  0  0  0  0  0  0  0  0  0  0
    8.3096    0.8462    2.4520 H   0  0  0  0  0  0  0  0  0  0  0  0
  1  2  1  0
  1 30  1  0
  1 31  1  0
  1 32  1  0
  2  3  1  0
  3  4  2  0
  3 29  1  0
  4  5  1  0
  4 33  1  0
  5  6  1  0
  5 25  2  0
  6  7  1  0
  6 34  1  0
  7  8  2  0
  7  9  1  0
  9 10  1  0
  9 35  1  0
 10 11  1  0
 10 36  1  0
 10 37  1  0
 11 12  1  0
 11 38  1  0
 11 39  1  0
 12 13  1  0
 12 40  1  0
 13 14  2  0
 13 24  1  0
 14 15  1  0
 14 41  1  0
 15 16  2  0
 15 42  1  0
 16 17  1  0
 16 23  1  0
 17 18  1  0
 17 22  1  0
 18 19  2  0
 18 43  1  0
 19 20  1  0
 19 44  1  0
 20 21  1  0
 20 22  2  0
 21 45  1  0
 21 46  1  0
 21 47  1  0
 23 24  2  0
 25 26  1  0
 25 48  1  0
 26 27  1  0
 26 29  2  0
 27 28  1  0
 28 49  1  0
 28 50  1  0
 28 51  1  0
 29 52  1  0
M  END

