
     RDKit          3D

 58 60  0  0  0  0  0  0  0  0999 V2000
    2.8722   -3.5436    3.0549 C   0  0  0  0  0  0  0  0  0  0  0  0
    3.1196   -2.3625    2.1153 C   0  0  0  0  0  0  0  0  0  0  0  0
    4.5835   -2.2134    1.6562 C   0  0  1  0  0  0  0  0  0  0  0  0
    5.1488   -3.4511    0.9081 C   0  0  0  0  0  0  0  0  0  0  0  0
    4.3865   -3.8575   -0.3542 C   0  0  0  0  0  0  0  0  0  0  0  0
    4.7942   -0.9610    0.8381 C   0  0  0  0  0  0  0  0  0  0  0  0
    6.0224   -0.2496    0.6380 C   0  0  0  0  0  0  0  0  0  0  0  0
    5.6742    0.7775   -0.1915 C   0  0  0  0  0  0  0  0  0  0  0  0
    6.4272    1.9261   -0.7881 C   0  0  0  0  0  0  0  0  0  0  0  0
    7.8292    1.6058   -0.9338 N   0  0  0  0  0  0  0  0  0  0  0  0
    8.8643    2.5356   -0.9932 C   0  0  0  0  0  0  0  0  0  0  0  0
   10.1128    2.2257   -1.0609 N   0  0  0  0  0  0  0  0  0  0  0  0
   10.4918    0.8398   -0.9750 C   0  0  0  0  0  0  0  0  0  0  0  0
    8.4659    3.8555   -0.9044 N   0  0  0  0  0  0  0  0  0  0  0  0
    9.4496    4.9221   -0.8922 C   0  0  0  0  0  0  0  0  0  0  0  0
   10.1416    5.2048   -2.2407 C   0  0  0  0  0  0  0  0  0  0  0  0
    9.1995    5.1935   -3.4658 C   0  0  0  0  0  0  0  0  0  0  0  0
    7.9694    6.0413   -3.3371 C   0  0  0  0  0  0  0  0  0  0  0  0
    6.8800    5.7007   -2.6824 N   0  0  0  0  0  0  0  0  0  0  0  0
    6.0154    6.7770   -2.7924 C   0  0  0  0  0  0  0  0  0  0  0  0
    4.7172    6.9579   -2.2909 C   0  0  0  0  0  0  0  0  0  0  0  0
    4.0697    8.1611   -2.5644 C   0  0  0  0  0  0  0  0  0  0  0  0
    4.6912    9.1754   -3.3238 C   0  0  0  0  0  0  0  0  0  0  0  0
    5.9806    9.0170   -3.8327 C   0  0  0  0  0  0  0  0  0  0  0  0
    6.6258    7.8081   -3.5529 C   0  0  0  0  0  0  0  0  0  0  0  0
    7.8719    7.3031   -3.8796 N   0  0  0  0  0  0  0  0  0  0  0  0
    8.5837    7.7631   -4.4326 H   0  0  0  0  0  0  0  0  0  0  0  0
    4.3638    0.6976   -0.4773 O   0  0  0  0  0  0  0  0  0  0  0  0
    3.8110   -0.3949    0.1746 N   0  0  0  0  0  0  0  0  0  0  0  0
    1.8326   -3.5408    3.4192 H   0  0  0  0  0  0  0  0  0  0  0  0
    3.5316   -3.5032    3.9388 H   0  0  0  0  0  0  0  0  0  0  0  0
    3.0406   -4.5145    2.5619 H   0  0  0  0  0  0  0  0  0  0  0  0
    2.8251   -1.4267    2.6182 H   0  0  0  0  0  0  0  0  0  0  0  0
    2.4631   -2.4331    1.2336 H   0  0  0  0  0  0  0  0  0  0  0  0
    5.2061   -2.0924    2.5618 H   0  0  0  0  0  0  0  0  0  0  0  0
    5.1802   -4.2994    1.6124 H   0  0  0  0  0  0  0  0  0  0  0  0
    6.2015   -3.2435    0.6490 H   0  0  0  0  0  0  0  0  0  0  0  0
    3.3632   -4.1950   -0.1255 H   0  0  0  0  0  0  0  0  0  0  0  0
    4.8984   -4.6874   -0.8670 H   0  0  0  0  0  0  0  0  0  0  0  0
    4.3032   -3.0210   -1.0660 H   0  0  0  0  0  0  0  0  0  0  0  0
    7.0006   -0.4591    1.0617 H   0  0  0  0  0  0  0  0  0  0  0  0
    6.3416    2.7998   -0.1202 H   0  0  0  0  0  0  0  0  0  0  0  0
    5.9265    2.2115   -1.7354 H   0  0  0  0  0  0  0  0  0  0  0  0
    8.0414    0.6901   -1.3107 H   0  0  0  0  0  0  0  0  0  0  0  0
   11.5877    0.7522   -0.9018 H   0  0  0  0  0  0  0  0  0  0  0  0
   10.1960    0.2456   -1.8693 H   0  0  0  0  0  0  0  0  0  0  0  0
   10.0622    0.3156   -0.0940 H   0  0  0  0  0  0  0  0  0  0  0  0
    7.5982    4.1258   -1.3704 H   0  0  0  0  0  0  0  0  0  0  0  0
   10.2237    4.6723   -0.1520 H   0  0  0  0  0  0  0  0  0  0  0  0
    8.9299    5.8281   -0.5416 H   0  0  0  0  0  0  0  0  0  0  0  0
   10.9098    4.4358   -2.4087 H   0  0  0  0  0  0  0  0  0  0  0  0
   10.6555    6.1798   -2.1693 H   0  0  0  0  0  0  0  0  0  0  0  0
    8.8667    4.1603   -3.6464 H   0  0  0  0  0  0  0  0  0  0  0  0
    9.7648    5.5002   -4.3612 H   0  0  0  0  0  0  0  0  0  0  0  0
    4.2379    6.1706   -1.7054 H   0  0  0  0  0  0  0  0  0  0  0  0
    3.0583    8.3264   -2.1850 H   0  0  0  0  0  0  0  0  0  0  0  0
    4.1509   10.1052   -3.5176 H   0  0  0  0  0  0  0  0  0  0  0  0
    6.4584    9.8043   -4.4205 H   0  0  0  0  0  0  0  0  0  0  0  0
  1  2  1  0
  1 30  1  0
  1 31  1  0
  1 32  1  0
  2  3  1  0
  2 33  1  0
  2 34  1  0
  3  4  1  0
  3  6  1  0
  3 35  1  1
  4  5  1  0
  4 36  1  0
  4 37  1  0
  5 38  1  0
  5 39  1  0
  5 40  1  0
  6  7  1  0
  6 29  2  0
  7  8  2  0
  7 41  1  0
  8  9  1  0
  8 28  1  0
  9 10  1  0
  9 42  1  0
  9 43  1  0
 10 11  1  0
 10 44  1  0
 11 12  2  0
 11 14  1  0
 12 13  1  0
 13 45  1  0
 13 46  1  0
 13 47  1  0
 14 15  1  0
 14 48  1  0
 15 16  1  0
 15 49  1  0
 15 50  1  0
 16 17  1  0
 16 51  1  0
 16 52  1  0
 17 18  1  0
 17 53  1  0
 17 54  1  0
 18 19  2  0
 18 26  1  0
 19 20  1  0
 20 21  2  0
 20 25  1  0
 21 22  1  0
 21 55  1  0
 22 23  2  0
 22 56  1  0
 23 24  1  0
 23 57  1  0
 24 25  2  0
 24 58  1  0
 25 26  1  0
 26 27  1  0
 28 29  1  0
M  END

