
     RDKit          3D

 46 49  0  0  0  0  0  0  0  0999 V2000
    5.7966    0.7141    0.6262 C   0  0  0  0  0  0  0  0  0  0  0  0
    4.4402    0.2562    0.2091 C   0  0  0  0  0  0  0  0  0  0  0  0
    3.2918    0.9821   -0.0811 C   0  0  0  0  0  0  0  0  0  0  0  0
    3.0885    2.4565   -0.0422 C   0  0  0  0  0  0  0  0  0  0  0  0
    3.9821    3.2325    0.2743 O   0  0  0  0  0  0  0  0  0  0  0  0
    1.8279    2.8393   -0.3914 N   0  0  0  0  0  0  0  0  0  0  0  0
    1.4148    4.2247   -0.4505 C   0  0  0  0  0  0  0  0  0  0  0  0
    0.1724    4.5302    0.3656 C   0  0  0  0  0  0  0  0  0  0  0  0
   -0.0509    3.9284    1.6123 C   0  0  0  0  0  0  0  0  0  0  0  0
   -1.1717    4.2485    2.3785 C   0  0  0  0  0  0  0  0  0  0  0  0
   -2.1037    5.1766    1.8953 C   0  0  0  0  0  0  0  0  0  0  0  0
   -3.2628    5.4985    2.6512 N   0  0  0  0  0  0  0  0  0  0  0  0
   -3.8625    4.8063    3.6616 C   0  0  0  0  0  0  0  0  0  0  0  0
   -4.9310    5.4474    4.0843 N   0  0  0  0  0  0  0  0  0  0  0  0
   -4.9556    6.5509    3.2872 C   0  0  0  0  0  0  0  0  0  0  0  0
   -3.9737    6.6239    2.4071 N   0  0  0  0  0  0  0  0  0  0  0  0
   -1.8975    5.7896    0.6536 C   0  0  0  0  0  0  0  0  0  0  0  0
   -0.7683    5.4623   -0.0962 C   0  0  0  0  0  0  0  0  0  0  0  0
    2.3071    0.1164   -0.4607 N   0  0  0  0  0  0  0  0  0  0  0  0
    2.7501   -1.0885   -0.4300 N   0  0  0  0  0  0  0  0  0  0  0  0
    4.0506   -1.0382   -0.0200 N   0  0  0  0  0  0  0  0  0  0  0  0
    4.7823   -2.2543    0.0656 C   0  0  0  0  0  0  0  0  0  0  0  0
    4.5285   -3.2641   -0.8772 C   0  0  0  0  0  0  0  0  0  0  0  0
    5.2177   -4.4750   -0.8027 C   0  0  0  0  0  0  0  0  0  0  0  0
    6.1698   -4.6932    0.1960 C   0  0  0  0  0  0  0  0  0  0  0  0
    6.3994   -3.6750    1.1187 C   0  0  0  0  0  0  0  0  0  0  0  0
    7.3957   -3.8879    2.1950 N   0  0  0  0  0  0  0  0  0  0  0  0
    7.9726   -4.9608    2.2198 O   0  0  0  0  0  0  0  0  0  0  0  0
    7.5738   -2.9745    2.9838 O   0  0  0  0  0  0  0  0  0  0  0  0
    5.7173   -2.4596    1.0832 C   0  0  0  0  0  0  0  0  0  0  0  0
    5.8749    1.7881    0.4170 H   0  0  0  0  0  0  0  0  0  0  0  0
    6.5920    0.1669    0.0977 H   0  0  0  0  0  0  0  0  0  0  0  0
    5.9557    0.5792    1.7089 H   0  0  0  0  0  0  0  0  0  0  0  0
    1.1789    2.1029   -0.6554 H   0  0  0  0  0  0  0  0  0  0  0  0
    1.2458    4.5355   -1.4971 H   0  0  0  0  0  0  0  0  0  0  0  0
    2.2721    4.8113   -0.0814 H   0  0  0  0  0  0  0  0  0  0  0  0
    0.6676    3.2004    1.9956 H   0  0  0  0  0  0  0  0  0  0  0  0
   -1.3033    3.7851    3.3576 H   0  0  0  0  0  0  0  0  0  0  0  0
   -3.4966    3.8494    4.0294 H   0  0  0  0  0  0  0  0  0  0  0  0
   -5.7193    7.3254    3.3576 H   0  0  0  0  0  0  0  0  0  0  0  0
   -2.6286    6.5130    0.2933 H   0  0  0  0  0  0  0  0  0  0  0  0
   -0.6204    5.9420   -1.0681 H   0  0  0  0  0  0  0  0  0  0  0  0
    3.7843   -3.0864   -1.6535 H   0  0  0  0  0  0  0  0  0  0  0  0
    5.0146   -5.2562   -1.5382 H   0  0  0  0  0  0  0  0  0  0  0  0
    6.7294   -5.6246    0.2740 H   0  0  0  0  0  0  0  0  0  0  0  0
    5.9203   -1.7199    1.8535 H   0  0  0  0  0  0  0  0  0  0  0  0
  1  2  1  0
  1 31  1  0
  1 32  1  0
  1 33  1  0
  2  3  2  0
  2 21  1  0
  3  4  1  0
  3 19  1  0
  4  5  2  0
  4  6  1  0
  6  7  1  0
  6 34  1  0
  7  8  1  0
  7 35  1  0
  7 36  1  0
  8  9  2  0
  8 18  1  0
  9 10  1  0
  9 37  1  0
 10 11  2  0
 10 38  1  0
 11 12  1  0
 11 17  1  0
 12 13  1  0
 12 16  1  0
 13 14  2  0
 13 39  1  0
 14 15  1  0
 15 16  2  0
 15 40  1  0
 17 18  2  0
 17 41  1  0
 18 42  1  0
 19 20  2  0
 20 21  1  0
 21 22  1  0
 22 23  2  0
 22 30  1  0
 23 24  1  0
 23 43  1  0
 24 25  2  0
 24 44  1  0
 25 26  1  0
 25 45  1  0
 26 27  1  0
 26 30  2  0
 27 28  2  0
 27 29  1  0
 30 46  1  0
M  CHG  2  27   1  29  -1
M  END

