
     RDKit          3D

 82 89  0  0  0  0  0  0  0  0999 V2000
    1.0122   -1.2833    0.0286 C   0  0  0  0  0  0  0  0  0  0  0  0
    2.4771   -1.0434   -0.1251 C   0  0  0  0  0  0  0  0  0  0  0  0
    3.0745   -0.9949   -1.3320 N   0  0  0  0  0  0  0  0  0  0  0  0
    4.4290   -0.7192   -1.1580 C   0  0  0  0  0  0  0  0  0  0  0  0
    5.3084   -0.6495   -2.2641 C   0  0  0  0  0  0  0  0  0  0  0  0
    6.7105   -0.2557   -2.1246 C   0  0  0  0  0  0  0  0  0  0  0  0
    7.1923    0.6653   -1.2578 C   0  0  0  0  0  0  0  0  0  0  0  0
    8.5892    1.0889   -1.1189 C   0  0  0  0  0  0  0  0  0  0  0  0
    8.8833    2.1940   -0.2969 C   0  0  0  0  0  0  0  0  0  0  0  0
   10.1922    2.6475   -0.1315 C   0  0  0  0  0  0  0  0  0  0  0  0
   11.2407    1.9973   -0.7863 C   0  0  0  0  0  0  0  0  0  0  0  0
   12.6695    2.4529   -0.6216 C   0  0  1  0  0  0  0  0  0  0  0  0
   12.7666    3.5639    0.1251 F   0  0  0  0  0  0  0  0  0  0  0  0
   13.4223    1.5045   -0.0328 F   0  0  0  0  0  0  0  0  0  0  0  0
   13.2402    2.7147   -1.8128 F   0  0  0  0  0  0  0  0  0  0  0  0
   10.9699    0.8891   -1.6047 C   0  0  0  0  0  0  0  0  0  0  0  0
    9.6648    0.4413   -1.7661 C   0  0  0  0  0  0  0  0  0  0  0  0
    4.8313   -0.9737   -3.5543 C   0  0  0  0  0  0  0  0  0  0  0  0
    5.5065   -1.0103   -4.8048 C   0  0  0  0  0  0  0  0  0  0  0  0
    4.5676   -1.3704   -5.7636 C   0  0  0  0  0  0  0  0  0  0  0  0
    3.3277   -1.5403   -5.0983 C   0  0  0  0  0  0  0  0  0  0  0  0
    2.0074   -1.9083   -5.6871 C   0  0  0  0  0  0  0  0  0  0  0  0
    3.4998   -1.3036   -3.7792 N   0  0  0  0  0  0  0  0  0  0  0  0
    2.3735   -1.3070   -2.6990 B   0  0  1  0  0  0  0  0  0  0  0  0
    1.7767   -2.5605   -2.6349 F   0  0  0  0  0  0  0  0  0  0  0  0
    1.4288   -0.3298   -2.9941 F   0  0  0  0  0  0  0  0  0  0  0  0
    4.6718   -0.6249    0.2342 C   0  0  0  0  0  0  0  0  0  0  0  0
    3.4554   -0.8250    0.8959 C   0  0  0  0  0  0  0  0  0  0  0  0
    3.2451   -0.8134    2.3411 C   0  0  0  0  0  0  0  0  0  0  0  0
    2.2739   -1.4625    3.1152 C   0  0  0  0  0  0  0  0  0  0  0  0
    2.5313   -1.1497    4.4763 C   0  0  0  0  0  0  0  0  0  0  0  0
    3.6443   -0.3132    4.5236 N   0  0  0  0  0  0  0  0  0  0  0  0
    4.0666   -0.1154    3.2740 C   0  0  0  0  0  0  0  0  0  0  0  0
    4.2285    0.3659    5.8166 B   0  0  2  0  0  0  0  0  0  0  0  0
    3.9344    1.7168    5.8033 F   0  0  0  0  0  0  0  0  0  0  0  0
    5.5889    0.1444    5.8915 F   0  0  0  0  0  0  0  0  0  0  0  0
    3.4924   -0.3316    7.0112 N   0  0  0  0  0  0  0  0  0  0  0  0
    3.7554   -0.1565    8.3137 C   0  0  0  0  0  0  0  0  0  0  0  0
    2.8294   -0.8757    9.1026 C   0  0  0  0  0  0  0  0  0  0  0  0
    1.9651   -1.5147    8.2183 C   0  0  0  0  0  0  0  0  0  0  0  0
    2.3874   -1.1724    6.9035 C   0  0  0  0  0  0  0  0  0  0  0  0
    1.8908   -1.5772    5.6518 C   0  0  0  0  0  0  0  0  0  0  0  0
    0.6973   -2.4754    5.5700 C   0  0  0  0  0  0  0  0  0  0  0  0
   -0.5959   -1.9128    5.5066 C   0  0  0  0  0  0  0  0  0  0  0  0
   -0.8015   -0.4161    5.5217 C   0  0  0  0  0  0  0  0  0  0  0  0
   -1.7004   -2.7739    5.4284 C   0  0  0  0  0  0  0  0  0  0  0  0
   -1.5585   -4.1654    5.4116 C   0  0  0  0  0  0  0  0  0  0  0  0
   -2.7576   -5.0778    5.3221 C   0  0  0  0  0  0  0  0  0  0  0  0
   -0.2624   -4.6954    5.4767 C   0  0  0  0  0  0  0  0  0  0  0  0
    0.8720   -3.8793    5.5556 C   0  0  0  0  0  0  0  0  0  0  0  0
    2.2491   -4.4971    5.6238 C   0  0  0  0  0  0  0  0  0  0  0  0
    0.4639   -0.8628   -0.8248 H   0  0  0  0  0  0  0  0  0  0  0  0
    0.6419   -0.8262    0.9563 H   0  0  0  0  0  0  0  0  0  0  0  0
    0.7892   -2.3634    0.0627 H   0  0  0  0  0  0  0  0  0  0  0  0
    7.3967   -0.7145   -2.8411 H   0  0  0  0  0  0  0  0  0  0  0  0
    6.4838    1.1941   -0.6146 H   0  0  0  0  0  0  0  0  0  0  0  0
    8.0686    2.7090    0.2185 H   0  0  0  0  0  0  0  0  0  0  0  0
   10.3993    3.5073    0.5070 H   0  0  0  0  0  0  0  0  0  0  0  0
   11.7886    0.3753   -2.1133 H   0  0  0  0  0  0  0  0  0  0  0  0
    9.4801   -0.4308   -2.3962 H   0  0  0  0  0  0  0  0  0  0  0  0
    6.5600   -0.7966   -4.9703 H   0  0  0  0  0  0  0  0  0  0  0  0
    4.7289   -1.5036   -6.8316 H   0  0  0  0  0  0  0  0  0  0  0  0
    2.1022   -2.0949   -6.7651 H   0  0  0  0  0  0  0  0  0  0  0  0
    1.2748   -1.1014   -5.5241 H   0  0  0  0  0  0  0  0  0  0  0  0
    1.5990   -2.8047   -5.1953 H   0  0  0  0  0  0  0  0  0  0  0  0
    5.6428   -0.4878    0.7017 H   0  0  0  0  0  0  0  0  0  0  0  0
    1.4829   -2.1251    2.7742 H   0  0  0  0  0  0  0  0  0  0  0  0
    4.9240    0.5257    3.0720 H   0  0  0  0  0  0  0  0  0  0  0  0
    4.5862    0.4722    8.6327 H   0  0  0  0  0  0  0  0  0  0  0  0
    2.8140   -0.9139   10.1899 H   0  0  0  0  0  0  0  0  0  0  0  0
    1.1258   -2.1651    8.4559 H   0  0  0  0  0  0  0  0  0  0  0  0
   -0.4040    0.0383    6.4435 H   0  0  0  0  0  0  0  0  0  0  0  0
   -1.8692   -0.1633    5.4530 H   0  0  0  0  0  0  0  0  0  0  0  0
   -0.2827    0.0728    4.6816 H   0  0  0  0  0  0  0  0  0  0  0  0
   -2.7025   -2.3378    5.3791 H   0  0  0  0  0  0  0  0  0  0  0  0
   -3.6998   -4.5107    5.3184 H   0  0  0  0  0  0  0  0  0  0  0  0
   -2.7893   -5.7812    6.1706 H   0  0  0  0  0  0  0  0  0  0  0  0
   -2.7276   -5.6867    4.4028 H   0  0  0  0  0  0  0  0  0  0  0  0
   -0.1270   -5.7813    5.4656 H   0  0  0  0  0  0  0  0  0  0  0  0
    2.1907   -5.5948    5.6067 H   0  0  0  0  0  0  0  0  0  0  0  0
    2.7813   -4.1998    6.5416 H   0  0  0  0  0  0  0  0  0  0  0  0
    2.8784   -4.1781    4.7774 H   0  0  0  0  0  0  0  0  0  0  0  0
  1  2  1  0
  1 52  1  0
  1 53  1  0
  1 54  1  0
  2  3  1  0
  2 28  2  0
  3  4  1  0
  3 24  1  0
  4  5  1  0
  4 27  2  0
  5  6  1  0
  5 18  2  0
  6  7  2  0
  6 55  1  0
  7  8  1  0
  7 56  1  0
  8  9  2  0
  8 17  1  0
  9 10  1  0
  9 57  1  0
 10 11  2  0
 10 58  1  0
 11 12  1  0
 11 16  1  0
 12 13  1  1
 12 14  1  0
 12 15  1  0
 16 17  2  0
 16 59  1  0
 17 60  1  0
 18 19  1  0
 18 23  1  0
 19 20  2  0
 19 61  1  0
 20 21  1  0
 20 62  1  0
 21 22  1  0
 21 23  2  0
 22 63  1  0
 22 64  1  0
 22 65  1  0
 23 24  1  0
 24 25  1  1
 24 26  1  0
 27 28  1  0
 27 66  1  0
 28 29  1  0
 29 30  1  0
 29 33  2  0
 30 31  2  0
 30 67  1  0
 31 32  1  0
 31 42  1  0
 32 33  1  0
 32 34  1  0
 33 68  1  0
 34 35  1  6
 34 36  1  0
 34 37  1  0
 37 38  2  0
 37 41  1  0
 38 39  1  0
 38 69  1  0
 39 40  2  0
 39 70  1  0
 40 41  1  0
 40 71  1  0
 41 42  2  0
 42 43  1  0
 43 44  2  0
 43 50  1  0
 44 45  1  0
 44 46  1  0
 45 72  1  0
 45 73  1  0
 45 74  1  0
 46 47  2  0
 46 75  1  0
 47 48  1  0
 47 49  1  0
 48 76  1  0
 48 77  1  0
 48 78  1  0
 49 50  2  0
 49 79  1  0
 50 51  1  0
 51 80  1  0
 51 81  1  0
 51 82  1  0
M  CHG  4  23   1  24  -1  34  -1  37   1
M  END

