
     RDKit          3D

 48 48  0  0  0  0  0  0  0  0999 V2000
    2.5863   -0.6057   -1.5792 C   0  0  0  0  0  0  0  0  0  0  0  0
    2.2477   -0.1763   -0.1477 C   0  0  1  0  0  0  0  0  0  0  0  0
    2.4024    1.3350    0.0530 C   0  0  0  0  0  0  0  0  0  0  0  0
    0.8392   -0.6328    0.2366 C   0  0  0  0  0  0  0  0  0  0  0  0
    3.0982   -0.8996    0.8075 O   0  0  0  0  0  0  0  0  0  0  0  0
    4.4349   -0.7746    0.8287 C   0  0  0  0  0  0  0  0  0  0  0  0
    5.0833   -0.0915    0.0697 O   0  0  0  0  0  0  0  0  0  0  0  0
    5.0283   -1.5965    1.9570 C   0  0  0  0  0  0  0  0  0  0  0  0
    6.5436   -1.7409    1.8663 C   0  0  0  0  0  0  0  0  0  0  0  0
    7.0661   -2.4139    3.0405 N   0  0  0  0  0  0  0  0  0  0  0  0
    8.5061   -2.5522    3.0764 C   0  0  0  0  0  0  0  0  0  0  0  0
    8.9152   -3.4119    4.2799 C   0  0  1  0  0  0  0  0  0  0  0  0
    8.2941   -4.6955    4.2026 O   0  0  0  0  0  0  0  0  0  0  0  0
   10.4192   -3.5093    4.4609 C   0  0  0  0  0  0  0  0  0  0  0  0
   11.0396   -3.0016    5.6117 C   0  0  0  0  0  0  0  0  0  0  0  0
   12.4209   -3.0796    5.7886 C   0  0  0  0  0  0  0  0  0  0  0  0
   13.2307   -3.6906    4.8145 C   0  0  0  0  0  0  0  0  0  0  0  0
   14.7035   -3.8383    4.9817 C   0  0  0  0  0  0  0  0  0  0  0  0
   15.2684   -4.9661    4.3822 N   0  0  0  0  0  0  0  0  0  0  0  0
   15.5256   -3.0288    5.5587 N   0  0  0  0  0  0  0  0  0  0  0  0
   14.9463   -1.8318    5.9864 O   0  0  0  0  0  0  0  0  0  0  0  0
   12.6119   -4.2082    3.6614 C   0  0  0  0  0  0  0  0  0  0  0  0
   11.2318   -4.1104    3.4860 C   0  0  0  0  0  0  0  0  0  0  0  0
    1.8693   -0.1516   -2.2811 H   0  0  0  0  0  0  0  0  0  0  0  0
    2.5126   -1.7002   -1.6784 H   0  0  0  0  0  0  0  0  0  0  0  0
    3.5999   -0.2922   -1.8591 H   0  0  0  0  0  0  0  0  0  0  0  0
    1.6791    1.8685   -0.5834 H   0  0  0  0  0  0  0  0  0  0  0  0
    3.4142    1.6698   -0.2084 H   0  0  0  0  0  0  0  0  0  0  0  0
    2.1979    1.6056    1.1008 H   0  0  0  0  0  0  0  0  0  0  0  0
    0.0914   -0.1555   -0.4148 H   0  0  0  0  0  0  0  0  0  0  0  0
    0.6165   -0.3641    1.2803 H   0  0  0  0  0  0  0  0  0  0  0  0
    0.7449   -1.7246    0.1354 H   0  0  0  0  0  0  0  0  0  0  0  0
    4.5252   -2.5780    1.9755 H   0  0  0  0  0  0  0  0  0  0  0  0
    4.7598   -1.1096    2.9108 H   0  0  0  0  0  0  0  0  0  0  0  0
    6.9924   -0.7361    1.7970 H   0  0  0  0  0  0  0  0  0  0  0  0
    6.8100   -2.2482    0.9108 H   0  0  0  0  0  0  0  0  0  0  0  0
    6.6550   -3.3425    3.1422 H   0  0  0  0  0  0  0  0  0  0  0  0
    8.9751   -1.5559    3.1640 H   0  0  0  0  0  0  0  0  0  0  0  0
    8.9273   -3.0085    2.1476 H   0  0  0  0  0  0  0  0  0  0  0  0
    8.4770   -2.9430    5.1745 H   0  0  0  0  0  0  0  0  0  0  0  0
    8.7815   -5.2263    3.5579 H   0  0  0  0  0  0  0  0  0  0  0  0
   10.4264   -2.5350    6.3877 H   0  0  0  0  0  0  0  0  0  0  0  0
   12.8798   -2.6681    6.6860 H   0  0  0  0  0  0  0  0  0  0  0  0
   14.7685   -5.8337    4.5606 H   0  0  0  0  0  0  0  0  0  0  0  0
   16.2639   -5.0476    4.5749 H   0  0  0  0  0  0  0  0  0  0  0  0
   15.7089   -1.3502    6.3299 H   0  0  0  0  0  0  0  0  0  0  0  0
   13.2299   -4.6729    2.8909 H   0  0  0  0  0  0  0  0  0  0  0  0
   10.7906   -4.5062    2.5658 H   0  0  0  0  0  0  0  0  0  0  0  0
  1  2  1  0
  1 24  1  0
  1 25  1  0
  1 26  1  0
  2  3  1  0
  2  4  1  0
  2  5  1  1
  3 27  1  0
  3 28  1  0
  3 29  1  0
  4 30  1  0
  4 31  1  0
  4 32  1  0
  5  6  1  0
  6  7  2  0
  6  8  1  0
  8  9  1  0
  8 33  1  0
  8 34  1  0
  9 10  1  0
  9 35  1  0
  9 36  1  0
 10 11  1  0
 10 37  1  0
 11 12  1  0
 11 38  1  0
 11 39  1  0
 12 13  1  0
 12 14  1  0
 12 40  1  1
 13 41  1  0
 14 15  2  0
 14 23  1  0
 15 16  1  0
 15 42  1  0
 16 17  2  0
 16 43  1  0
 17 18  1  0
 17 22  1  0
 18 19  1  0
 18 20  2  0
 19 44  1  0
 19 45  1  0
 20 21  1  0
 21 46  1  0
 22 23  2  0
 22 47  1  0
 23 48  1  0
M  END

