
     RDKit          3D

 35 37  0  0  0  0  0  0  0  0999 V2000
    4.3548    6.7051    1.8162 F   0  0  0  0  0  0  0  0  0  0  0  0
    4.2287    5.3723    2.0500 C   0  0  1  0  0  0  0  0  0  0  0  0
    2.9010    5.0823    2.0158 F   0  0  0  0  0  0  0  0  0  0  0  0
    4.9690    4.5824    1.0277 C   0  0  0  0  0  0  0  0  0  0  0  0
    5.9239    3.7431    1.2282 N   0  0  0  0  0  0  0  0  0  0  0  0
    6.2993    3.2446   -0.0050 N   0  0  0  0  0  0  0  0  0  0  0  0
    5.5262    3.8432   -0.8764 C   0  0  0  0  0  0  0  0  0  0  0  0
    5.5196    3.7269   -2.2170 N   0  0  0  0  0  0  0  0  0  0  0  0
    6.3788    2.7631   -2.9165 C   0  0  2  0  0  0  0  0  0  0  0  0
    6.6040    3.2328   -4.3661 C   0  0  0  0  0  0  0  0  0  0  0  0
    5.3686    3.0597   -5.2708 C   0  0  0  0  0  0  0  0  0  0  0  0
    4.8646    1.6194   -5.1980 C   0  0  2  0  0  0  0  0  0  0  0  0
    3.5682    1.2411   -5.9276 C   0  0  0  0  0  0  0  0  0  0  0  0
    3.0986   -0.0710   -5.2324 C   0  0  0  0  0  0  0  0  0  0  0  0
    3.9354   -0.1927   -3.9245 C   0  0  0  0  0  0  0  0  0  0  0  0
    4.5778    1.1906   -3.7487 C   0  0  1  0  0  0  0  0  0  0  0  0
    5.8132    1.3239   -2.8621 C   0  0  0  0  0  0  0  0  0  0  0  0
    4.6514    4.7041   -0.2992 O   0  0  0  0  0  0  0  0  0  0  0  0
    4.6303    5.1351    3.0486 H   0  0  0  0  0  0  0  0  0  0  0  0
    4.7688    4.1896   -2.7140 H   0  0  0  0  0  0  0  0  0  0  0  0
    7.3395    2.7789   -2.3799 H   0  0  0  0  0  0  0  0  0  0  0  0
    7.4311    2.6333   -4.7820 H   0  0  0  0  0  0  0  0  0  0  0  0
    6.9474    4.2802   -4.3610 H   0  0  0  0  0  0  0  0  0  0  0  0
    5.6249    3.3450   -6.3050 H   0  0  0  0  0  0  0  0  0  0  0  0
    4.5578    3.7488   -4.9635 H   0  0  0  0  0  0  0  0  0  0  0  0
    5.6750    0.9622   -5.5737 H   0  0  0  0  0  0  0  0  0  0  0  0
    3.7051    1.1241   -7.0141 H   0  0  0  0  0  0  0  0  0  0  0  0
    2.8210    2.0409   -5.7842 H   0  0  0  0  0  0  0  0  0  0  0  0
    3.2558   -0.9463   -5.8814 H   0  0  0  0  0  0  0  0  0  0  0  0
    2.0196   -0.0362   -5.0168 H   0  0  0  0  0  0  0  0  0  0  0  0
    4.7282   -0.9511   -4.0436 H   0  0  0  0  0  0  0  0  0  0  0  0
    3.3307   -0.4975   -3.0563 H   0  0  0  0  0  0  0  0  0  0  0  0
    3.7992    1.8755   -3.3560 H   0  0  0  0  0  0  0  0  0  0  0  0
    6.5987    0.6311   -3.2144 H   0  0  0  0  0  0  0  0  0  0  0  0
    5.6058    1.0569   -1.8135 H   0  0  0  0  0  0  0  0  0  0  0  0
  1  2  1  0
  2  3  1  0
  2  4  1  0
  2 19  1  1
  4  5  2  0
  4 18  1  0
  5  6  1  0
  6  7  2  0
  7  8  1  0
  7 18  1  0
  8  9  1  0
  8 20  1  0
  9 10  1  0
  9 17  1  0
  9 21  1  1
 10 11  1  0
 10 22  1  0
 10 23  1  0
 11 12  1  0
 11 24  1  0
 11 25  1  0
 12 13  1  0
 12 16  1  0
 12 26  1  6
 13 14  1  0
 13 27  1  0
 13 28  1  0
 14 15  1  0
 14 29  1  0
 14 30  1  0
 15 16  1  0
 15 31  1  0
 15 32  1  0
 16 17  1  0
 16 33  1  1
 17 34  1  0
 17 35  1  0
M  END

