
     RDKit          3D

 35 36  0  0  0  0  0  0  0  0999 V2000
    2.8571    0.3300   -1.5928 C   0  0  0  0  0  0  0  0  0  0  0  0
    2.7691   -0.1997   -0.1558 C   0  0  1  0  0  0  0  0  0  0  0  0
    1.4659   -1.0008    0.0219 C   0  0  0  0  0  0  0  0  0  0  0  0
    3.9972   -1.0774    0.1498 C   0  0  0  0  0  0  0  0  0  0  0  0
    2.7535    0.9507    0.7957 N   0  0  0  0  0  0  0  0  0  0  0  0
    2.8613    2.2951    0.4933 C   0  0  0  0  0  0  0  0  0  0  0  0
    2.8429    2.9939    1.6602 C   0  0  0  0  0  0  0  0  0  0  0  0
    2.9423    4.7366    1.8941 S   0  0  1  0  0  0  0  0  0  0  0  0
    3.6151    4.9317    3.1874 O   0  0  0  0  0  0  0  0  0  0  0  0
    3.4553    5.2932    0.6365 O   0  0  0  0  0  0  0  0  0  0  0  0
    1.2443    5.3098    2.0897 C   0  0  0  0  0  0  0  0  0  0  0  0
    0.6999    5.4020    3.3736 C   0  0  0  0  0  0  0  0  0  0  0  0
   -0.6155    5.8515    3.5183 C   0  0  0  0  0  0  0  0  0  0  0  0
   -1.3628    6.2095    2.3914 C   0  0  0  0  0  0  0  0  0  0  0  0
   -0.7974    6.1277    1.1134 C   0  0  0  0  0  0  0  0  0  0  0  0
    0.5151    5.6784    0.9549 C   0  0  0  0  0  0  0  0  0  0  0  0
    2.7030    2.0782    2.6967 N   0  0  0  0  0  0  0  0  0  0  0  0
    2.8215    2.2830    3.6817 H   0  0  0  0  0  0  0  0  0  0  0  0
    2.6756    0.7854    2.1963 C   0  0  0  0  0  0  0  0  0  0  0  0
    2.6081   -0.2543    2.8249 O   0  0  0  0  0  0  0  0  0  0  0  0
    2.8593   -0.5246   -2.2849 H   0  0  0  0  0  0  0  0  0  0  0  0
    3.7829    0.8995   -1.7683 H   0  0  0  0  0  0  0  0  0  0  0  0
    1.9954    0.9645   -1.8523 H   0  0  0  0  0  0  0  0  0  0  0  0
    1.4611   -1.8632   -0.6624 H   0  0  0  0  0  0  0  0  0  0  0  0
    0.5900   -0.3739   -0.2089 H   0  0  0  0  0  0  0  0  0  0  0  0
    1.3749   -1.3690    1.0523 H   0  0  0  0  0  0  0  0  0  0  0  0
    4.0208   -1.9399   -0.5341 H   0  0  0  0  0  0  0  0  0  0  0  0
    3.9603   -1.4486    1.1825 H   0  0  0  0  0  0  0  0  0  0  0  0
    4.9279   -0.5044    0.0124 H   0  0  0  0  0  0  0  0  0  0  0  0
    2.9448    2.6866   -0.5139 H   0  0  0  0  0  0  0  0  0  0  0  0
    1.3103    5.1441    4.2407 H   0  0  0  0  0  0  0  0  0  0  0  0
   -1.0546    5.9307    4.5157 H   0  0  0  0  0  0  0  0  0  0  0  0
   -2.3901    6.5629    2.5099 H   0  0  0  0  0  0  0  0  0  0  0  0
   -1.3791    6.4233    0.2368 H   0  0  0  0  0  0  0  0  0  0  0  0
    0.9829    5.6266   -0.0300 H   0  0  0  0  0  0  0  0  0  0  0  0
  2  1  1  6
  1 21  1  0
  1 22  1  0
  1 23  1  0
  2  3  1  0
  2  4  1  0
  2  5  1  0
  3 24  1  0
  3 25  1  0
  3 26  1  0
  4 27  1  0
  4 28  1  0
  4 29  1  0
  5  6  1  0
  5 19  1  0
  6  7  2  0
  6 30  1  0
  8  7  1  6
  7 17  1  0
  8  9  2  0
  8 10  2  0
  8 11  1  0
 11 12  2  0
 11 16  1  0
 12 13  1  0
 12 31  1  0
 13 14  2  0
 13 32  1  0
 14 15  1  0
 14 33  1  0
 15 16  2  0
 15 34  1  0
 16 35  1  0
 17 18  1  0
 17 19  1  0
 19 20  2  0
M  END

