
     RDKit          3D

 46 46  0  0  0  0  0  0  0  0999 V2000
    1.5165    3.5322    4.0958 C   0  0  0  0  0  0  0  0  0  0  0  0
    2.8763    2.8485    4.2401 C   0  0  0  0  0  0  0  0  0  0  0  0
    3.7373    2.9748    2.9773 C   0  0  0  0  0  0  0  0  0  0  0  0
    5.0352    2.3405    3.0830 N   0  0  0  0  0  0  0  0  0  0  0  0
    5.3708    1.2089    2.4022 C   0  0  0  0  0  0  0  0  0  0  0  0
    4.6213    0.6136    1.6460 O   0  0  0  0  0  0  0  0  0  0  0  0
    6.8221    0.7595    2.5962 C   0  0  0  0  0  0  0  0  0  0  0  0
    7.4423    1.2000    3.8493 N   0  0  0  0  0  0  0  0  0  0  0  0
    7.0582    0.3172    4.9612 C   0  0  0  0  0  0  0  0  0  0  0  0
    7.2228    0.9044    6.3673 C   0  0  0  0  0  0  0  0  0  0  0  0
    6.2820    2.0645    6.6961 C   0  0  0  0  0  0  0  0  0  0  0  0
    8.8992    1.3328    3.7276 C   0  0  0  0  0  0  0  0  0  0  0  0
    9.3013    2.4647    2.7749 C   0  0  0  0  0  0  0  0  0  0  0  0
    9.4600    2.2531    1.5779 O   0  0  0  0  0  0  0  0  0  0  0  0
    9.4575    3.7109    3.3014 N   0  0  0  0  0  0  0  0  0  0  0  0
    9.8406    4.8325    2.4333 C   0  0  0  0  0  0  0  0  0  0  0  0
   10.1594    5.9588    3.4230 C   0  0  0  0  0  0  0  0  0  0  0  0
    9.2324    5.6555    4.6094 C   0  0  0  0  0  0  0  0  0  0  0  0
    9.2661    4.1232    4.6955 C   0  0  0  0  0  0  0  0  0  0  0  0
    0.9133    3.4270    5.0112 H   0  0  0  0  0  0  0  0  0  0  0  0
    0.9378    3.0983    3.2636 H   0  0  0  0  0  0  0  0  0  0  0  0
    1.6267    4.6110    3.8931 H   0  0  0  0  0  0  0  0  0  0  0  0
    2.7402    1.7769    4.4662 H   0  0  0  0  0  0  0  0  0  0  0  0
    3.4219    3.2795    5.0994 H   0  0  0  0  0  0  0  0  0  0  0  0
    3.8684    4.0434    2.7238 H   0  0  0  0  0  0  0  0  0  0  0  0
    3.2276    2.4972    2.1267 H   0  0  0  0  0  0  0  0  0  0  0  0
    5.7540    2.7148    3.6950 H   0  0  0  0  0  0  0  0  0  0  0  0
    7.3925    1.1675    1.7472 H   0  0  0  0  0  0  0  0  0  0  0  0
    6.8379   -0.3417    2.4763 H   0  0  0  0  0  0  0  0  0  0  0  0
    7.6194   -0.6414    4.8971 H   0  0  0  0  0  0  0  0  0  0  0  0
    5.9966    0.0567    4.8201 H   0  0  0  0  0  0  0  0  0  0  0  0
    8.2704    1.2101    6.5357 H   0  0  0  0  0  0  0  0  0  0  0  0
    7.0456    0.0819    7.0817 H   0  0  0  0  0  0  0  0  0  0  0  0
    6.4517    2.9301    6.0365 H   0  0  0  0  0  0  0  0  0  0  0  0
    6.4218    2.4086    7.7333 H   0  0  0  0  0  0  0  0  0  0  0  0
    5.2270    1.7671    6.5817 H   0  0  0  0  0  0  0  0  0  0  0  0
    9.3627    0.4101    3.3225 H   0  0  0  0  0  0  0  0  0  0  0  0
    9.3225    1.5011    4.7271 H   0  0  0  0  0  0  0  0  0  0  0  0
    9.0046    5.0961    1.7603 H   0  0  0  0  0  0  0  0  0  0  0  0
   10.6860    4.5473    1.7898 H   0  0  0  0  0  0  0  0  0  0  0  0
   10.0021    6.9582    2.9917 H   0  0  0  0  0  0  0  0  0  0  0  0
   11.2136    5.8969    3.7420 H   0  0  0  0  0  0  0  0  0  0  0  0
    8.2075    5.9955    4.3843 H   0  0  0  0  0  0  0  0  0  0  0  0
    9.5439    6.1368    5.5482 H   0  0  0  0  0  0  0  0  0  0  0  0
    8.3402    3.7018    5.1118 H   0  0  0  0  0  0  0  0  0  0  0  0
   10.1062    3.7843    5.3317 H   0  0  0  0  0  0  0  0  0  0  0  0
  1  2  1  0
  1 20  1  0
  1 21  1  0
  1 22  1  0
  2  3  1  0
  2 23  1  0
  2 24  1  0
  3  4  1  0
  3 25  1  0
  3 26  1  0
  4  5  1  0
  4 27  1  0
  5  6  2  0
  5  7  1  0
  7  8  1  0
  7 28  1  0
  7 29  1  0
  8  9  1  0
  8 12  1  0
  9 10  1  0
  9 30  1  0
  9 31  1  0
 10 11  1  0
 10 32  1  0
 10 33  1  0
 11 34  1  0
 11 35  1  0
 11 36  1  0
 12 13  1  0
 12 37  1  0
 12 38  1  0
 13 14  2  0
 13 15  1  0
 15 16  1  0
 15 19  1  0
 16 17  1  0
 16 39  1  0
 16 40  1  0
 17 18  1  0
 17 41  1  0
 17 42  1  0
 18 19  1  0
 18 43  1  0
 18 44  1  0
 19 45  1  0
 19 46  1  0
M  END

