
     RDKit          3D

 31 31  0  0  0  0  0  0  0  0999 V2000
    6.2152   -4.3017    1.7954 C   0  0  0  0  0  0  0  0  0  0  0  0
    6.0510   -2.9116    1.8618 O   0  0  0  0  0  0  0  0  0  0  0  0
    6.7397   -2.2043    0.8573 C   0  0  0  0  0  0  0  0  0  0  0  0
    6.5026   -0.7137    1.0405 C   0  0  0  0  0  0  0  0  0  0  0  0
    7.0020   -0.1892    2.3788 C   0  0  0  0  0  0  0  0  0  0  0  0
    6.7334    1.2001    2.4416 O   0  0  0  0  0  0  0  0  0  0  0  0
    7.0395    1.8250    3.6599 C   0  0  0  0  0  0  0  0  0  0  0  0
    8.5119    2.2656    3.7168 C   0  0  0  0  0  0  0  0  0  0  0  0
    8.8131    2.9994    4.9483 N   0  0  0  0  0  0  0  0  0  0  0  0
    8.5604    4.3056    4.9180 N   0  0  0  0  0  0  0  0  0  0  0  0
    8.7816    5.0190    5.9834 C   0  0  0  0  0  0  0  0  0  0  0  0
    9.2886    4.4534    7.1982 C   0  0  0  0  0  0  0  0  0  0  0  0
    9.5698    5.6264    8.6541 Br  0  0  0  0  0  0  0  0  0  0  0  0
    9.5418    3.1085    7.2450 C   0  0  0  0  0  0  0  0  0  0  0  0
   10.2054    2.2093    8.7513 Br  0  0  0  0  0  0  0  0  0  0  0  0
    9.2802    2.2676    6.0633 C   0  0  0  0  0  0  0  0  0  0  0  0
    9.4383    1.0631    6.0032 O   0  0  0  0  0  0  0  0  0  0  0  0
    5.6391   -4.7503    2.6180 H   0  0  0  0  0  0  0  0  0  0  0  0
    7.2778   -4.6018    1.9051 H   0  0  0  0  0  0  0  0  0  0  0  0
    5.8437   -4.7192    0.8368 H   0  0  0  0  0  0  0  0  0  0  0  0
    6.3928   -2.5206   -0.1491 H   0  0  0  0  0  0  0  0  0  0  0  0
    7.8276   -2.4321    0.9032 H   0  0  0  0  0  0  0  0  0  0  0  0
    5.4246   -0.4992    0.9554 H   0  0  0  0  0  0  0  0  0  0  0  0
    7.0061   -0.1664    0.2261 H   0  0  0  0  0  0  0  0  0  0  0  0
    8.0877   -0.3936    2.4827 H   0  0  0  0  0  0  0  0  0  0  0  0
    6.4930   -0.7197    3.2050 H   0  0  0  0  0  0  0  0  0  0  0  0
    6.8167    1.1651    4.5204 H   0  0  0  0  0  0  0  0  0  0  0  0
    6.4010    2.7204    3.7397 H   0  0  0  0  0  0  0  0  0  0  0  0
    8.7293    2.9351    2.8743 H   0  0  0  0  0  0  0  0  0  0  0  0
    9.1778    1.3946    3.6853 H   0  0  0  0  0  0  0  0  0  0  0  0
    8.5656    6.0875    5.9158 H   0  0  0  0  0  0  0  0  0  0  0  0
  1  2  1  0
  1 18  1  0
  1 19  1  0
  1 20  1  0
  2  3  1  0
  3  4  1  0
  3 21  1  0
  3 22  1  0
  4  5  1  0
  4 23  1  0
  4 24  1  0
  5  6  1  0
  5 25  1  0
  5 26  1  0
  6  7  1  0
  7  8  1  0
  7 27  1  0
  7 28  1  0
  8  9  1  0
  8 29  1  0
  8 30  1  0
  9 10  1  0
  9 16  1  0
 10 11  2  0
 11 12  1  0
 11 31  1  0
 12 13  1  0
 12 14  2  0
 14 15  1  0
 14 16  1  0
 16 17  2  0
M  END

