
     RDKit          3D

 35 37  0  0  0  0  0  0  0  0999 V2000
    1.0570   -0.0124    0.0254 C   0  0  0  0  0  0  0  0  0  0  0  0
    2.5934   -0.0327    0.0750 C   0  0  2  0  0  0  0  0  0  0  0  0
    3.0461   -0.0683    1.5480 C   0  0  0  0  0  0  0  0  0  0  0  0
    3.1491    1.2357   -0.6207 C   0  0  0  0  0  0  0  0  0  0  0  0
    4.6718    1.2863   -0.7750 C   0  0  0  0  0  0  0  0  0  0  0  0
    5.2871    2.3372   -0.7552 O   0  0  0  0  0  0  0  0  0  0  0  0
    5.3031   -0.0201   -0.9867 C   0  0  0  0  0  0  0  0  0  0  0  0
    6.6785   -0.3515   -1.2053 C   0  0  0  0  0  0  0  0  0  0  0  0
    6.7472   -1.7174   -1.2869 C   0  0  0  0  0  0  0  0  0  0  0  0
    5.4608   -2.2445   -1.1291 N   0  0  0  0  0  0  0  0  0  0  0  0
    5.1687   -3.6331   -1.1317 C   0  0  0  0  0  0  0  0  0  0  0  0
    5.9567   -4.5176   -0.3801 C   0  0  0  0  0  0  0  0  0  0  0  0
    5.6830   -5.8828   -0.3997 C   0  0  0  0  0  0  0  0  0  0  0  0
    4.6153   -6.3900   -1.1509 C   0  0  0  0  0  0  0  0  0  0  0  0
    4.3079   -8.0997   -1.1256 Cl  0  0  0  0  0  0  0  0  0  0  0  0
    3.8237   -5.5043   -1.9010 C   0  0  0  0  0  0  0  0  0  0  0  0
    2.3698   -6.1224   -2.9526 Br  0  0  0  0  0  0  0  0  0  0  0  0
    4.1094   -4.1357   -1.8975 C   0  0  0  0  0  0  0  0  0  0  0  0
    4.5756   -1.2033   -0.9421 C   0  0  0  0  0  0  0  0  0  0  0  0
    3.1054   -1.2954   -0.6766 C   0  0  0  0  0  0  0  0  0  0  0  0
    0.6582    0.8648    0.5592 H   0  0  0  0  0  0  0  0  0  0  0  0
    0.6331   -0.9136    0.4983 H   0  0  0  0  0  0  0  0  0  0  0  0
    0.6873    0.0298   -1.0121 H   0  0  0  0  0  0  0  0  0  0  0  0
    2.6955    0.8292    2.0819 H   0  0  0  0  0  0  0  0  0  0  0  0
    4.1417   -0.1068    1.6444 H   0  0  0  0  0  0  0  0  0  0  0  0
    2.6304   -0.9489    2.0643 H   0  0  0  0  0  0  0  0  0  0  0  0
    2.8358    2.1492   -0.0921 H   0  0  0  0  0  0  0  0  0  0  0  0
    2.7281    1.3038   -1.6421 H   0  0  0  0  0  0  0  0  0  0  0  0
    7.5006    0.3540   -1.2990 H   0  0  0  0  0  0  0  0  0  0  0  0
    7.5856   -2.3815   -1.4821 H   0  0  0  0  0  0  0  0  0  0  0  0
    6.7741   -4.1323    0.2314 H   0  0  0  0  0  0  0  0  0  0  0  0
    6.2896   -6.5760    0.1851 H   0  0  0  0  0  0  0  0  0  0  0  0
    3.5125   -3.4647   -2.5138 H   0  0  0  0  0  0  0  0  0  0  0  0
    2.8589   -2.2029   -0.1003 H   0  0  0  0  0  0  0  0  0  0  0  0
    2.5523   -1.3819   -1.6312 H   0  0  0  0  0  0  0  0  0  0  0  0
  2  1  1  1
  1 21  1  0
  1 22  1  0
  1 23  1  0
  2  3  1  0
  2  4  1  0
  2 20  1  0
  3 24  1  0
  3 25  1  0
  3 26  1  0
  4  5  1  0
  4 27  1  0
  4 28  1  0
  5  6  2  0
  5  7  1  0
  7  8  1  0
  7 19  2  0
  8  9  2  0
  8 29  1  0
  9 10  1  0
  9 30  1  0
 10 11  1  0
 10 19  1  0
 11 12  2  0
 11 18  1  0
 12 13  1  0
 12 31  1  0
 13 14  2  0
 13 32  1  0
 14 15  1  0
 14 16  1  0
 16 17  1  0
 16 18  2  0
 18 33  1  0
 19 20  1  0
 20 34  1  0
 20 35  1  0
M  END

