
     RDKit          3D

 51 53  0  0  0  0  0  0  0  0999 V2000
    4.6704    9.5554   -7.6760 C   0  0  0  0  0  0  0  0  0  0  0  0
    3.8912    8.3641   -7.2251 C   0  0  0  0  0  0  0  0  0  0  0  0
    3.0956    7.6351   -8.0536 N   0  0  0  0  0  0  0  0  0  0  0  0
    2.9542    7.8217   -9.0414 H   0  0  0  0  0  0  0  0  0  0  0  0
    2.4580    6.5973   -7.5082 N   0  0  0  0  0  0  0  0  0  0  0  0
    2.8547    6.6334   -6.2229 C   0  0  0  0  0  0  0  0  0  0  0  0
    2.4605    5.7613   -5.2678 N   0  0  0  0  0  0  0  0  0  0  0  0
    2.9444    5.9424   -4.0620 C   0  0  0  0  0  0  0  0  0  0  0  0
    3.8605    7.0044   -3.7034 C   0  0  0  0  0  0  0  0  0  0  0  0
    4.3535    7.1597   -2.3931 N   0  0  0  0  0  0  0  0  0  0  0  0
    4.1059    6.4172   -1.2645 C   0  0  0  0  0  0  0  0  0  0  0  0
    3.3792    5.4428   -1.2180 O   0  0  0  0  0  0  0  0  0  0  0  0
    4.7946    6.9371    0.0142 C   0  0  0  0  0  0  0  0  0  0  0  0
    6.0018    7.8284   -0.1514 C   0  0  0  0  0  0  0  0  0  0  0  0
    5.8956    9.2280   -0.1132 C   0  0  0  0  0  0  0  0  0  0  0  0
    6.9992   10.0653   -0.2952 C   0  0  0  0  0  0  0  0  0  0  0  0
    8.2680    9.5039   -0.5220 C   0  0  0  0  0  0  0  0  0  0  0  0
    9.4324   10.2638   -0.7082 N   0  0  0  0  0  0  0  0  0  0  0  0
    9.5688   11.6348   -0.7396 C   0  0  0  0  0  0  0  0  0  0  0  0
    8.6694   12.4373   -0.6117 O   0  0  0  0  0  0  0  0  0  0  0  0
   10.8709   11.9228   -0.9383 O   0  0  0  0  0  0  0  0  0  0  0  0
   11.3604   13.3055   -1.0166 C   0  0  1  0  0  0  0  0  0  0  0  0
   11.0926   14.0300    0.3063 C   0  0  0  0  0  0  0  0  0  0  0  0
   12.8622   13.1199   -1.2400 C   0  0  0  0  0  0  0  0  0  0  0  0
   10.7172   14.0204   -2.2091 C   0  0  0  0  0  0  0  0  0  0  0  0
    8.3894    8.1013   -0.5597 C   0  0  0  0  0  0  0  0  0  0  0  0
    7.2776    7.2840   -0.3787 C   0  0  0  0  0  0  0  0  0  0  0  0
    4.2706    7.9032   -4.6749 C   0  0  0  0  0  0  0  0  0  0  0  0
    3.7611    7.7270   -5.9813 C   0  0  0  0  0  0  0  0  0  0  0  0
    4.5227    9.7451   -8.7506 H   0  0  0  0  0  0  0  0  0  0  0  0
    5.7521    9.4192   -7.5092 H   0  0  0  0  0  0  0  0  0  0  0  0
    4.3683   10.4672   -7.1339 H   0  0  0  0  0  0  0  0  0  0  0  0
    2.6380    5.2487   -3.2772 H   0  0  0  0  0  0  0  0  0  0  0  0
    5.0036    7.9297   -2.2674 H   0  0  0  0  0  0  0  0  0  0  0  0
    5.0395    6.0327    0.5908 H   0  0  0  0  0  0  0  0  0  0  0  0
    4.0078    7.4575    0.5867 H   0  0  0  0  0  0  0  0  0  0  0  0
    4.9198    9.6863    0.0748 H   0  0  0  0  0  0  0  0  0  0  0  0
    6.8919   11.1470   -0.2563 H   0  0  0  0  0  0  0  0  0  0  0  0
   10.2959    9.7492   -0.8378 H   0  0  0  0  0  0  0  0  0  0  0  0
   11.5292   13.4681    1.1468 H   0  0  0  0  0  0  0  0  0  0  0  0
   10.0163   14.1514    0.4822 H   0  0  0  0  0  0  0  0  0  0  0  0
   11.5608   15.0264    0.2832 H   0  0  0  0  0  0  0  0  0  0  0  0
   13.3136   12.5658   -0.4030 H   0  0  0  0  0  0  0  0  0  0  0  0
   13.3588   14.0987   -1.3180 H   0  0  0  0  0  0  0  0  0  0  0  0
   13.0504   12.5585   -2.1677 H   0  0  0  0  0  0  0  0  0  0  0  0
    9.6362   14.1408   -2.0639 H   0  0  0  0  0  0  0  0  0  0  0  0
   10.8910   13.4521   -3.1364 H   0  0  0  0  0  0  0  0  0  0  0  0
   11.1700   15.0167   -2.3308 H   0  0  0  0  0  0  0  0  0  0  0  0
    9.3710    7.6490   -0.7300 H   0  0  0  0  0  0  0  0  0  0  0  0
    7.4047    6.1982   -0.4113 H   0  0  0  0  0  0  0  0  0  0  0  0
    4.9615    8.7168   -4.4319 H   0  0  0  0  0  0  0  0  0  0  0  0
  1  2  1  0
  1 30  1  0
  1 31  1  0
  1 32  1  0
  2  3  1  0
  2 29  2  0
  3  4  1  0
  3  5  1  0
  5  6  2  0
  6  7  1  0
  6 29  1  0
  7  8  2  0
  8  9  1  0
  8 33  1  0
  9 10  1  0
  9 28  2  0
 10 11  1  0
 10 34  1  0
 11 12  2  0
 11 13  1  0
 13 14  1  0
 13 35  1  0
 13 36  1  0
 14 15  2  0
 14 27  1  0
 15 16  1  0
 15 37  1  0
 16 17  2  0
 16 38  1  0
 17 18  1  0
 17 26  1  0
 18 19  1  0
 18 39  1  0
 19 20  2  0
 19 21  1  0
 22 21  1  1
 22 23  1  0
 22 24  1  0
 22 25  1  0
 23 40  1  0
 23 41  1  0
 23 42  1  0
 24 43  1  0
 24 44  1  0
 24 45  1  0
 25 46  1  0
 25 47  1  0
 25 48  1  0
 26 27  2  0
 26 49  1  0
 27 50  1  0
 28 29  1  0
 28 51  1  0
M  END

