
     RDKit          3D

 48 50  0  0  0  0  0  0  0  0999 V2000
   -1.9018   -0.8844   -1.3838 C   0  0  0  0  0  0  0  0  0  0  0  0
   -1.4438   -0.0770   -2.5749 C   0  0  0  0  0  0  0  0  0  0  0  0
   -0.2623    0.7036   -2.5208 C   0  0  0  0  0  0  0  0  0  0  0  0
    0.6519    0.6745   -1.3140 C   0  0  0  0  0  0  0  0  0  0  0  0
    1.1097   -0.3748   -0.8967 O   0  0  0  0  0  0  0  0  0  0  0  0
    1.0461    1.8742   -0.7597 N   0  0  0  0  0  0  0  0  0  0  0  0
    0.5195    3.1730   -0.8489 C   0  0  0  0  0  0  0  0  0  0  0  0
   -0.8459    3.4176   -1.0792 C   0  0  0  0  0  0  0  0  0  0  0  0
   -1.3472    4.7184   -1.0937 C   0  0  0  0  0  0  0  0  0  0  0  0
   -0.5037    5.8058   -0.8519 C   0  0  0  0  0  0  0  0  0  0  0  0
    0.8520    5.5746   -0.6198 C   0  0  0  0  0  0  0  0  0  0  0  0
    1.3882    4.2778   -0.6379 C   0  0  0  0  0  0  0  0  0  0  0  0
    2.8359    4.0320   -0.2934 C   0  0  0  0  0  0  0  0  0  0  0  0
    3.1207    3.1558    0.5236 O   0  0  0  0  0  0  0  0  0  0  0  0
    3.8003    4.8170   -0.8704 N   0  0  0  0  0  0  0  0  0  0  0  0
    3.6605    5.5860   -2.1081 C   0  0  0  0  0  0  0  0  0  0  0  0
    4.2623    6.9873   -1.9614 C   0  0  0  0  0  0  0  0  0  0  0  0
    5.7170    6.9123   -1.4798 C   0  0  0  0  0  0  0  0  0  0  0  0
    5.8305    6.0506   -0.2160 C   0  0  0  0  0  0  0  0  0  0  0  0
    5.1864    4.6749   -0.4147 C   0  0  0  0  0  0  0  0  0  0  0  0
    0.1663    1.4474   -3.6300 C   0  0  0  0  0  0  0  0  0  0  0  0
   -0.5423    1.4286   -4.8310 C   0  0  0  0  0  0  0  0  0  0  0  0
   -1.7076    0.6755   -4.9167 C   0  0  0  0  0  0  0  0  0  0  0  0
   -2.1476   -0.0360   -3.7970 C   0  0  0  0  0  0  0  0  0  0  0  0
   -3.4248   -0.7637   -3.9720 N   0  0  0  0  0  0  0  0  0  0  0  0
   -4.1470   -0.8979   -2.9966 O   0  0  0  0  0  0  0  0  0  0  0  0
   -3.6916   -1.1631   -5.0942 O   0  0  0  0  0  0  0  0  0  0  0  0
   -1.0626   -1.0806   -0.7093 H   0  0  0  0  0  0  0  0  0  0  0  0
   -2.3388   -1.8436   -1.6898 H   0  0  0  0  0  0  0  0  0  0  0  0
   -2.6970   -0.3515   -0.8387 H   0  0  0  0  0  0  0  0  0  0  0  0
    1.8287    1.7928   -0.1037 H   0  0  0  0  0  0  0  0  0  0  0  0
   -1.5269    2.5784   -1.2151 H   0  0  0  0  0  0  0  0  0  0  0  0
   -2.4146    4.8774   -1.2656 H   0  0  0  0  0  0  0  0  0  0  0  0
   -0.9002    6.8232   -0.8296 H   0  0  0  0  0  0  0  0  0  0  0  0
    1.5131    6.4164   -0.4028 H   0  0  0  0  0  0  0  0  0  0  0  0
    2.6071    5.6303   -2.4045 H   0  0  0  0  0  0  0  0  0  0  0  0
    4.1989    5.0457   -2.9128 H   0  0  0  0  0  0  0  0  0  0  0  0
    3.6593    7.5660   -1.2393 H   0  0  0  0  0  0  0  0  0  0  0  0
    4.1967    7.5134   -2.9281 H   0  0  0  0  0  0  0  0  0  0  0  0
    6.1166    7.9233   -1.2984 H   0  0  0  0  0  0  0  0  0  0  0  0
    6.3394    6.4697   -2.2794 H   0  0  0  0  0  0  0  0  0  0  0  0
    5.3314    6.5585    0.6280 H   0  0  0  0  0  0  0  0  0  0  0  0
    6.8865    5.9172    0.0711 H   0  0  0  0  0  0  0  0  0  0  0  0
    5.1772    4.0853    0.5092 H   0  0  0  0  0  0  0  0  0  0  0  0
    5.7570    4.0967   -1.1681 H   0  0  0  0  0  0  0  0  0  0  0  0
    1.0823    2.0368   -3.5502 H   0  0  0  0  0  0  0  0  0  0  0  0
   -0.1886    1.9971   -5.6937 H   0  0  0  0  0  0  0  0  0  0  0  0
   -2.2933    0.6224   -5.8341 H   0  0  0  0  0  0  0  0  0  0  0  0
  1  2  1  0
  1 28  1  0
  1 29  1  0
  1 30  1  0
  2  3  2  0
  2 24  1  0
  3  4  1  0
  3 21  1  0
  4  5  2  0
  4  6  1  0
  6  7  1  0
  6 31  1  0
  7  8  2  0
  7 12  1  0
  8  9  1  0
  8 32  1  0
  9 10  2  0
  9 33  1  0
 10 11  1  0
 10 34  1  0
 11 12  2  0
 11 35  1  0
 12 13  1  0
 13 14  2  0
 13 15  1  0
 15 16  1  0
 15 20  1  0
 16 17  1  0
 16 36  1  0
 16 37  1  0
 17 18  1  0
 17 38  1  0
 17 39  1  0
 18 19  1  0
 18 40  1  0
 18 41  1  0
 19 20  1  0
 19 42  1  0
 19 43  1  0
 20 44  1  0
 20 45  1  0
 21 22  2  0
 21 46  1  0
 22 23  1  0
 22 47  1  0
 23 24  2  0
 23 48  1  0
 24 25  1  0
 25 26  2  0
 25 27  1  0
M  CHG  2  25   1  27  -1
M  END

