
     RDKit          3D

 65 67  0  0  0  0  0  0  0  0999 V2000
    4.5375    6.1845   -0.2933 C   0  0  0  0  0  0  0  0  0  0  0  0
    4.1760    4.9881   -1.1754 C   0  0  0  0  0  0  0  0  0  0  0  0
    3.9859    3.6632   -0.4236 C   0  0  1  0  0  0  0  0  0  0  0  0
    3.5159    2.5355   -1.3508 C   0  0  0  0  0  0  0  0  0  0  0  0
    5.2147    3.2923    0.2789 N   0  0  0  0  0  0  0  0  0  0  0  0
    5.1932    2.5673    1.4234 C   0  0  0  0  0  0  0  0  0  0  0  0
    4.1707    2.1285    1.9324 O   0  0  0  0  0  0  0  0  0  0  0  0
    6.5661    2.2789    2.0915 C   0  0  1  0  0  0  0  0  0  0  0  0
    7.5576    1.4697    1.2210 C   0  0  0  0  0  0  0  0  0  0  0  0
    7.0208    0.1105    0.8230 C   0  0  0  0  0  0  0  0  0  0  0  0
    6.6090   -0.1436   -0.4938 C   0  0  0  0  0  0  0  0  0  0  0  0
    6.1133   -1.3981   -0.8629 C   0  0  0  0  0  0  0  0  0  0  0  0
    6.0198   -2.4214    0.0835 C   0  0  0  0  0  0  0  0  0  0  0  0
    6.4253   -2.1816    1.4005 C   0  0  0  0  0  0  0  0  0  0  0  0
    6.9204   -0.9277    1.7645 C   0  0  0  0  0  0  0  0  0  0  0  0
    7.1907    3.4783    2.7051 N   0  0  0  0  0  0  0  0  0  0  0  0
    7.1290    3.5610    4.1743 C   0  0  0  0  0  0  0  0  0  0  0  0
    5.7269    3.4016    4.7335 C   0  0  0  0  0  0  0  0  0  0  0  0
    4.7483    4.4022    4.5794 C   0  0  0  0  0  0  0  0  0  0  0  0
    5.1416    5.8873    3.7271 Cl  0  0  0  0  0  0  0  0  0  0  0  0
    3.4537    4.2793    5.0824 C   0  0  0  0  0  0  0  0  0  0  0  0
    3.1009    3.1218    5.7749 C   0  0  0  0  0  0  0  0  0  0  0  0
    4.0350    2.1055    5.9630 C   0  0  0  0  0  0  0  0  0  0  0  0
    5.3232    2.2549    5.4454 C   0  0  0  0  0  0  0  0  0  0  0  0
    6.4458    0.9270    5.7115 Cl  0  0  0  0  0  0  0  0  0  0  0  0
    7.8270    4.3995    1.9300 C   0  0  0  0  0  0  0  0  0  0  0  0
    7.7598    4.4043    0.7009 O   0  0  0  0  0  0  0  0  0  0  0  0
    8.6724    5.4872    2.5989 C   0  0  0  0  0  0  0  0  0  0  0  0
    9.6264    4.8961    3.4618 O   0  0  0  0  0  0  0  0  0  0  0  0
   10.5363    5.6882    4.0941 C   0  0  0  0  0  0  0  0  0  0  0  0
   10.5969    7.0826    3.9647 C   0  0  0  0  0  0  0  0  0  0  0  0
   11.5717    7.8065    4.6633 C   0  0  0  0  0  0  0  0  0  0  0  0
   12.4821    7.1432    5.4854 C   0  0  0  0  0  0  0  0  0  0  0  0
   13.9593    8.2477    6.5433 I   0  0  0  0  0  0  0  0  0  0  0  0
   12.4271    5.7490    5.6158 C   0  0  0  0  0  0  0  0  0  0  0  0
   11.4591    5.0279    4.9225 C   0  0  0  0  0  0  0  0  0  0  0  0
    4.5757    7.1125   -0.8859 H   0  0  0  0  0  0  0  0  0  0  0  0
    5.5212    6.0543    0.1826 H   0  0  0  0  0  0  0  0  0  0  0  0
    3.7961    6.3276    0.5100 H   0  0  0  0  0  0  0  0  0  0  0  0
    4.9471    4.8510   -1.9567 H   0  0  0  0  0  0  0  0  0  0  0  0
    3.2376    5.1969   -1.7167 H   0  0  0  0  0  0  0  0  0  0  0  0
    3.2140    3.7998    0.3533 H   0  0  0  0  0  0  0  0  0  0  0  0
    4.2492    2.3538   -2.1542 H   0  0  0  0  0  0  0  0  0  0  0  0
    2.5511    2.7912   -1.8184 H   0  0  0  0  0  0  0  0  0  0  0  0
    3.3857    1.6045   -0.7804 H   0  0  0  0  0  0  0  0  0  0  0  0
    6.1093    3.7069    0.0133 H   0  0  0  0  0  0  0  0  0  0  0  0
    6.2859    1.6362    2.9320 H   0  0  0  0  0  0  0  0  0  0  0  0
    8.4758    1.3429    1.8196 H   0  0  0  0  0  0  0  0  0  0  0  0
    7.8398    2.0416    0.3285 H   0  0  0  0  0  0  0  0  0  0  0  0
    6.6789    0.6526   -1.2395 H   0  0  0  0  0  0  0  0  0  0  0  0
    5.7999   -1.5754   -1.8951 H   0  0  0  0  0  0  0  0  0  0  0  0
    5.6333   -3.4029   -0.2030 H   0  0  0  0  0  0  0  0  0  0  0  0
    6.3570   -2.9764    2.1480 H   0  0  0  0  0  0  0  0  0  0  0  0
    7.2326   -0.7514    2.7983 H   0  0  0  0  0  0  0  0  0  0  0  0
    7.5225    4.5306    4.4915 H   0  0  0  0  0  0  0  0  0  0  0  0
    7.7804    2.7937    4.6132 H   0  0  0  0  0  0  0  0  0  0  0  0
    2.7366    5.0856    4.9257 H   0  0  0  0  0  0  0  0  0  0  0  0
    2.0884    3.0105    6.1692 H   0  0  0  0  0  0  0  0  0  0  0  0
    3.7753    1.1925    6.4995 H   0  0  0  0  0  0  0  0  0  0  0  0
    8.0227    6.1965    3.1452 H   0  0  0  0  0  0  0  0  0  0  0  0
    9.1621    6.0258    1.7731 H   0  0  0  0  0  0  0  0  0  0  0  0
    9.8976    7.6230    3.3265 H   0  0  0  0  0  0  0  0  0  0  0  0
   11.6095    8.8919    4.5552 H   0  0  0  0  0  0  0  0  0  0  0  0
   13.1375    5.2228    6.2558 H   0  0  0  0  0  0  0  0  0  0  0  0
   11.4016    3.9409    5.0084 H   0  0  0  0  0  0  0  0  0  0  0  0
  1  2  1  0
  1 37  1  0
  1 38  1  0
  1 39  1  0
  2  3  1  0
  2 40  1  0
  2 41  1  0
  3  4  1  0
  3  5  1  0
  3 42  1  1
  4 43  1  0
  4 44  1  0
  4 45  1  0
  5  6  1  0
  5 46  1  0
  6  7  2  0
  6  8  1  0
  8  9  1  0
  8 16  1  0
  8 47  1  1
  9 10  1  0
  9 48  1  0
  9 49  1  0
 10 11  2  0
 10 15  1  0
 11 12  1  0
 11 50  1  0
 12 13  2  0
 12 51  1  0
 13 14  1  0
 13 52  1  0
 14 15  2  0
 14 53  1  0
 15 54  1  0
 16 17  1  0
 16 26  1  0
 17 18  1  0
 17 55  1  0
 17 56  1  0
 18 19  2  0
 18 24  1  0
 19 20  1  0
 19 21  1  0
 21 22  2  0
 21 57  1  0
 22 23  1  0
 22 58  1  0
 23 24  2  0
 23 59  1  0
 24 25  1  0
 26 27  2  0
 26 28  1  0
 28 29  1  0
 28 60  1  0
 28 61  1  0
 29 30  1  0
 30 31  2  0
 30 36  1  0
 31 32  1  0
 31 62  1  0
 32 33  2  0
 32 63  1  0
 33 34  1  0
 33 35  1  0
 35 36  2  0
 35 64  1  0
 36 65  1  0
M  END

