
     RDKit          3D

 36 37  0  0  0  0  0  0  0  0999 V2000
    0.7807    1.2704    1.6380 C   0  0  0  0  0  0  0  0  0  0  0  0
    2.2695    1.5295    1.5158 C   0  0  0  0  0  0  0  0  0  0  0  0
    2.9500    0.2988    1.7332 O   0  0  0  0  0  0  0  0  0  0  0  0
    4.2976    0.2497    1.6838 C   0  0  0  0  0  0  0  0  0  0  0  0
    5.1268    1.3561    1.4179 C   0  0  0  0  0  0  0  0  0  0  0  0
    6.5094    1.1909    1.3965 C   0  0  0  0  0  0  0  0  0  0  0  0
    7.1046   -0.0637    1.6111 C   0  0  0  0  0  0  0  0  0  0  0  0
    8.5967   -0.1357    1.6163 C   0  0  0  0  0  0  0  0  0  0  0  0
    9.2701    0.8702    1.7722 O   0  0  0  0  0  0  0  0  0  0  0  0
    9.3006   -1.4590    1.4255 C   0  0  0  0  0  0  0  0  0  0  0  0
   10.5188   -1.6658    2.0903 C   0  0  0  0  0  0  0  0  0  0  0  0
   11.2204   -2.8567    1.8803 C   0  0  0  0  0  0  0  0  0  0  0  0
   12.5191   -3.1504    2.5868 C   0  0  0  0  0  0  0  0  0  0  0  0
   10.7743   -3.8017    1.0343 N   0  0  0  0  0  0  0  0  0  0  0  0
    9.6318   -3.6107    0.3707 C   0  0  0  0  0  0  0  0  0  0  0  0
    9.1922   -4.6949   -0.5833 C   0  0  0  0  0  0  0  0  0  0  0  0
    8.8552   -2.4496    0.5464 C   0  0  0  0  0  0  0  0  0  0  0  0
    6.2622   -1.1611    1.8849 C   0  0  0  0  0  0  0  0  0  0  0  0
    4.8823   -1.0080    1.9257 C   0  0  0  0  0  0  0  0  0  0  0  0
    0.2188    2.2023    1.4710 H   0  0  0  0  0  0  0  0  0  0  0  0
    0.5324    0.8882    2.6398 H   0  0  0  0  0  0  0  0  0  0  0  0
    0.4529    0.5277    0.8949 H   0  0  0  0  0  0  0  0  0  0  0  0
    2.6013    2.2774    2.2597 H   0  0  0  0  0  0  0  0  0  0  0  0
    2.5192    1.9238    0.5133 H   0  0  0  0  0  0  0  0  0  0  0  0
    4.7031    2.3431    1.2327 H   0  0  0  0  0  0  0  0  0  0  0  0
    7.1632    2.0454    1.2108 H   0  0  0  0  0  0  0  0  0  0  0  0
   10.9039   -0.8908    2.7549 H   0  0  0  0  0  0  0  0  0  0  0  0
   12.8493   -2.3080    3.2108 H   0  0  0  0  0  0  0  0  0  0  0  0
   13.3066   -3.3820    1.8523 H   0  0  0  0  0  0  0  0  0  0  0  0
   12.4108   -4.0418    3.2263 H   0  0  0  0  0  0  0  0  0  0  0  0
    9.9544   -5.4839   -0.6194 H   0  0  0  0  0  0  0  0  0  0  0  0
    9.0407   -4.2962   -1.5998 H   0  0  0  0  0  0  0  0  0  0  0  0
    8.2360   -5.1431   -0.2645 H   0  0  0  0  0  0  0  0  0  0  0  0
    7.9325   -2.3222   -0.0231 H   0  0  0  0  0  0  0  0  0  0  0  0
    6.6911   -2.1421    2.0952 H   0  0  0  0  0  0  0  0  0  0  0  0
    4.2236   -1.8494    2.1494 H   0  0  0  0  0  0  0  0  0  0  0  0
  1  2  1  0
  1 20  1  0
  1 21  1  0
  1 22  1  0
  2  3  1  0
  2 23  1  0
  2 24  1  0
  3  4  1  0
  4  5  2  0
  4 19  1  0
  5  6  1  0
  5 25  1  0
  6  7  2  0
  6 26  1  0
  7  8  1  0
  7 18  1  0
  8  9  2  0
  8 10  1  0
 10 11  2  0
 10 17  1  0
 11 12  1  0
 11 27  1  0
 12 13  1  0
 12 14  2  0
 13 28  1  0
 13 29  1  0
 13 30  1  0
 14 15  1  0
 15 16  1  0
 15 17  2  0
 16 31  1  0
 16 32  1  0
 16 33  1  0
 17 34  1  0
 18 19  2  0
 18 35  1  0
 19 36  1  0
M  END

