
     RDKit          3D

 85 89  0  0  0  0  0  0  0  0999 V2000
   20.5718    2.0144    0.6243 C   0  0  0  0  0  0  0  0  0  0  0  0
   19.3459    1.7868    1.1042 C   0  0  0  0  0  0  0  0  0  0  0  0
   18.0817    2.4454    0.6266 C   0  0  0  0  0  0  0  0  0  0  0  0
   17.0427    1.4499    0.0838 C   0  0  0  0  0  0  0  0  0  0  0  0
   15.7355    2.1203   -0.3475 C   0  0  0  0  0  0  0  0  0  0  0  0
   14.7003    1.1638   -0.9560 C   0  0  0  0  0  0  0  0  0  0  0  0
   14.2454    0.1029   -0.0546 N   0  0  0  0  0  0  0  0  0  0  0  0
   13.3999    0.5196    1.0513 C   0  0  0  0  0  0  0  0  0  0  0  0
   14.6747   -1.1830   -0.2845 C   0  0  0  0  0  0  0  0  0  0  0  0
   15.3979   -1.4576   -1.2352 O   0  0  0  0  0  0  0  0  0  0  0  0
   14.2468   -2.2702    0.7103 C   0  0  2  0  0  0  0  0  0  0  0  0
   13.1790   -2.1741    0.9552 H   0  0  0  0  0  0  0  0  0  0  0  0
   15.0547   -2.2311    2.0282 C   0  0  0  0  0  0  0  0  0  0  0  0
   14.9683   -3.6790    2.5243 C   0  0  2  0  0  0  0  0  0  0  0  0
   13.9641   -3.8845    2.9310 H   0  0  0  0  0  0  0  0  0  0  0  0
   15.9588   -4.0298    3.4871 O   0  0  0  0  0  0  0  0  0  0  0  0
   15.8044   -3.7211    4.7907 C   0  0  0  0  0  0  0  0  0  0  0  0
   14.7255   -3.0442    5.3256 C   0  0  0  0  0  0  0  0  0  0  0  0
   14.7158   -2.8015    6.7268 C   0  0  0  0  0  0  0  0  0  0  0  0
   13.5732   -2.0750    7.3060 C   0  0  0  0  0  0  0  0  0  0  0  0
   12.5540   -1.6075    6.6342 N   0  0  0  0  0  0  0  0  0  0  0  0
   11.6605   -0.9841    7.4576 C   0  0  0  0  0  0  0  0  0  0  0  0
   11.9948   -0.9681    8.7897 C   0  0  0  0  0  0  0  0  0  0  0  0
   13.5040   -1.7731    9.0333 S   0  0  0  0  0  0  0  0  0  0  0  0
   15.6665   -3.1798    7.5564 N   0  0  0  0  0  0  0  0  0  0  0  0
   16.7438   -3.8505    7.0611 C   0  0  0  0  0  0  0  0  0  0  0  0
   17.7730   -4.2606    7.9617 C   0  0  0  0  0  0  0  0  0  0  0  0
   17.6933   -3.9703    9.4347 C   0  0  0  0  0  0  0  0  0  0  0  0
   18.8766   -4.9487    7.4491 C   0  0  0  0  0  0  0  0  0  0  0  0
   19.8191   -5.3102    8.3609 O   0  0  0  0  0  0  0  0  0  0  0  0
   20.9704   -6.0094    7.9475 C   0  0  0  0  0  0  0  0  0  0  0  0
   18.9890   -5.2415    6.0667 C   0  0  0  0  0  0  0  0  0  0  0  0
   17.9961   -4.8466    5.1909 C   0  0  0  0  0  0  0  0  0  0  0  0
   16.8627   -4.1497    5.6606 C   0  0  0  0  0  0  0  0  0  0  0  0
   15.1894   -4.4974    1.2523 C   0  0  0  0  0  0  0  0  0  0  0  0
   14.4509   -3.7025    0.1387 C   0  0  1  0  0  0  0  0  0  0  0  0
   15.0729   -3.6366   -0.7639 H   0  0  0  0  0  0  0  0  0  0  0  0
   13.1074   -4.3577   -0.1870 C   0  0  0  0  0  0  0  0  0  0  0  0
   12.1228   -4.2162    0.5259 O   0  0  0  0  0  0  0  0  0  0  0  0
   13.1000   -5.1364   -1.3084 N   0  0  0  0  0  0  0  0  0  0  0  0
   11.9687   -5.9397   -1.7039 C   0  0  2  0  0  0  0  0  0  0  0  0
   11.8051   -7.2248   -0.9146 C   0  0  0  0  0  0  0  0  0  0  0  0
   11.6177   -5.9030   -3.1736 C   0  0  0  0  0  0  0  0  0  0  0  0
   10.7490   -5.1639   -2.1887 C   0  0  1  0  0  0  0  0  0  0  0  0
   10.9068   -4.0807   -2.1487 H   0  0  0  0  0  0  0  0  0  0  0  0
    9.3614   -5.5640   -1.8337 C   0  0  0  0  0  0  0  0  0  0  0  0
    8.5489   -6.3410   -2.5573 C   0  0  0  0  0  0  0  0  0  0  0  0
   21.4482    1.4927    1.0194 H   0  0  0  0  0  0  0  0  0  0  0  0
   20.7470    2.7350   -0.1822 H   0  0  0  0  0  0  0  0  0  0  0  0
   19.2238    1.0515    1.9116 H   0  0  0  0  0  0  0  0  0  0  0  0
   18.3227    3.1943   -0.1481 H   0  0  0  0  0  0  0  0  0  0  0  0
   17.6271    3.0045    1.4674 H   0  0  0  0  0  0  0  0  0  0  0  0
   16.8286    0.6918    0.8583 H   0  0  0  0  0  0  0  0  0  0  0  0
   17.4726    0.8933   -0.7661 H   0  0  0  0  0  0  0  0  0  0  0  0
   15.9497    2.8948   -1.1057 H   0  0  0  0  0  0  0  0  0  0  0  0
   15.2956    2.6613    0.5107 H   0  0  0  0  0  0  0  0  0  0  0  0
   15.1218    0.6680   -1.8394 H   0  0  0  0  0  0  0  0  0  0  0  0
   13.8154    1.7414   -1.2783 H   0  0  0  0  0  0  0  0  0  0  0  0
   13.9746    0.9779    1.8761 H   0  0  0  0  0  0  0  0  0  0  0  0
   12.8295   -0.3207    1.4619 H   0  0  0  0  0  0  0  0  0  0  0  0
   12.6739    1.2686    0.6944 H   0  0  0  0  0  0  0  0  0  0  0  0
   14.6755   -1.4958    2.7515 H   0  0  0  0  0  0  0  0  0  0  0  0
   16.1147   -1.9978    1.8309 H   0  0  0  0  0  0  0  0  0  0  0  0
   13.8858   -2.6847    4.7355 H   0  0  0  0  0  0  0  0  0  0  0  0
   10.7538   -0.5433    7.0381 H   0  0  0  0  0  0  0  0  0  0  0  0
   11.4385   -0.5328    9.6183 H   0  0  0  0  0  0  0  0  0  0  0  0
   16.7721   -3.4248    9.6671 H   0  0  0  0  0  0  0  0  0  0  0  0
   18.5612   -3.3759    9.7652 H   0  0  0  0  0  0  0  0  0  0  0  0
   17.7199   -4.9040   10.0208 H   0  0  0  0  0  0  0  0  0  0  0  0
   21.5693   -6.1853    8.8514 H   0  0  0  0  0  0  0  0  0  0  0  0
   21.5745   -5.4256    7.2297 H   0  0  0  0  0  0  0  0  0  0  0  0
   20.7215   -6.9847    7.4915 H   0  0  0  0  0  0  0  0  0  0  0  0
   19.8565   -5.7788    5.6838 H   0  0  0  0  0  0  0  0  0  0  0  0
   18.0780   -5.0695    4.1267 H   0  0  0  0  0  0  0  0  0  0  0  0
   14.8442   -5.5370    1.3530 H   0  0  0  0  0  0  0  0  0  0  0  0
   16.2716   -4.5227    1.0484 H   0  0  0  0  0  0  0  0  0  0  0  0
   13.9643   -5.2360   -1.8295 H   0  0  0  0  0  0  0  0  0  0  0  0
   10.9154   -7.7825   -1.2381 H   0  0  0  0  0  0  0  0  0  0  0  0
   11.6935   -6.9959    0.1567 H   0  0  0  0  0  0  0  0  0  0  0  0
   12.6873   -7.8738   -1.0442 H   0  0  0  0  0  0  0  0  0  0  0  0
   11.2405   -6.8303   -3.6132 H   0  0  0  0  0  0  0  0  0  0  0  0
   12.2477   -5.3095   -3.8424 H   0  0  0  0  0  0  0  0  0  0  0  0
    9.0032   -5.1533   -0.8813 H   0  0  0  0  0  0  0  0  0  0  0  0
    8.8572   -6.7607   -3.5202 H   0  0  0  0  0  0  0  0  0  0  0  0
    7.5388   -6.5814   -2.2148 H   0  0  0  0  0  0  0  0  0  0  0  0
  1  2  2  0
  1 48  1  0
  1 49  1  0
  2  3  1  0
  2 50  1  0
  3  4  1  0
  3 51  1  0
  3 52  1  0
  4  5  1  0
  4 53  1  0
  4 54  1  0
  5  6  1  0
  5 55  1  0
  5 56  1  0
  6  7  1  0
  6 57  1  0
  6 58  1  0
  7  8  1  0
  7  9  1  0
  8 59  1  0
  8 60  1  0
  8 61  1  0
  9 10  2  0
  9 11  1  0
 11 12  1  1
 11 13  1  0
 11 36  1  0
 13 14  1  0
 13 62  1  0
 13 63  1  0
 14 15  1  1
 14 16  1  0
 14 35  1  0
 16 17  1  0
 17 18  2  0
 17 34  1  0
 18 19  1  0
 18 64  1  0
 19 20  1  0
 19 25  2  0
 20 21  2  0
 20 24  1  0
 21 22  1  0
 22 23  2  0
 22 65  1  0
 23 24  1  0
 23 66  1  0
 25 26  1  0
 26 27  1  0
 26 34  2  0
 27 28  1  0
 27 29  2  0
 28 67  1  0
 28 68  1  0
 28 69  1  0
 29 30  1  0
 29 32  1  0
 30 31  1  0
 31 70  1  0
 31 71  1  0
 31 72  1  0
 32 33  2  0
 32 73  1  0
 33 34  1  0
 33 74  1  0
 35 36  1  0
 35 75  1  0
 35 76  1  0
 36 37  1  6
 36 38  1  0
 38 39  2  0
 38 40  1  0
 41 40  1  6
 40 77  1  0
 41 42  1  0
 41 43  1  0
 41 44  1  0
 42 78  1  0
 42 79  1  0
 42 80  1  0
 43 44  1  0
 43 81  1  0
 43 82  1  0
 44 45  1  6
 44 46  1  0
 46 47  2  0
 46 83  1  0
 47 84  1  0
 47 85  1  0
M  END

