
     RDKit          3D

 37 38  0  0  0  0  0  0  0  0999 V2000
    5.7316   -4.5050   -2.9462 C   0  0  0  0  0  0  0  0  0  0  0  0
    4.5150   -4.4734   -3.7364 N   0  0  0  0  0  0  0  0  0  0  0  0
    4.3892   -4.4478   -5.1043 C   0  0  0  0  0  0  0  0  0  0  0  0
    3.1313   -4.4277   -5.4567 N   0  0  0  0  0  0  0  0  0  0  0  0
    2.3915   -4.4403   -4.3046 N   0  0  0  0  0  0  0  0  0  0  0  0
    3.2212   -4.4673   -3.2882 C   0  0  0  0  0  0  0  0  0  0  0  0
    2.8092   -4.4917   -1.8500 C   0  0  0  0  0  0  0  0  0  0  0  0
    1.3677   -4.4775   -1.7795 N   0  0  0  0  0  0  0  0  0  0  0  0
    0.7294   -4.4666   -0.5800 C   0  0  0  0  0  0  0  0  0  0  0  0
    1.3404   -4.4505    0.4790 O   0  0  0  0  0  0  0  0  0  0  0  0
   -0.7990   -4.5059   -0.6436 C   0  0  0  0  0  0  0  0  0  0  0  0
   -1.3549   -5.8780   -0.3087 C   0  0  0  0  0  0  0  0  0  0  0  0
   -1.0696   -6.4860    0.9279 C   0  0  0  0  0  0  0  0  0  0  0  0
   -1.5836   -7.7404    1.2423 C   0  0  0  0  0  0  0  0  0  0  0  0
   -2.4004   -8.4334    0.3295 C   0  0  0  0  0  0  0  0  0  0  0  0
   -2.9471   -9.7707    0.6698 C   0  0  0  0  0  0  0  0  0  0  0  0
   -4.0517  -10.2244   -0.0208 N   0  0  0  0  0  0  0  0  0  0  0  0
   -2.3279  -10.4698    1.5648 N   0  0  0  0  0  0  0  0  0  0  0  0
   -3.0006  -11.6842    1.7893 O   0  0  0  0  0  0  0  0  0  0  0  0
   -2.6764   -7.8335   -0.9088 C   0  0  0  0  0  0  0  0  0  0  0  0
   -2.1601   -6.5725   -1.2200 C   0  0  0  0  0  0  0  0  0  0  0  0
    6.5982   -4.4876   -3.6199 H   0  0  0  0  0  0  0  0  0  0  0  0
    5.7809   -5.4200   -2.3356 H   0  0  0  0  0  0  0  0  0  0  0  0
    5.7894   -3.6312   -2.2789 H   0  0  0  0  0  0  0  0  0  0  0  0
    5.2442   -4.4450   -5.7797 H   0  0  0  0  0  0  0  0  0  0  0  0
    3.2324   -3.6272   -1.3037 H   0  0  0  0  0  0  0  0  0  0  0  0
    3.2176   -5.3861   -1.3404 H   0  0  0  0  0  0  0  0  0  0  0  0
    0.8727   -4.4954   -2.6677 H   0  0  0  0  0  0  0  0  0  0  0  0
   -1.1603   -4.1839   -1.6318 H   0  0  0  0  0  0  0  0  0  0  0  0
   -1.1511   -3.7696    0.0970 H   0  0  0  0  0  0  0  0  0  0  0  0
   -0.4278   -5.9615    1.6391 H   0  0  0  0  0  0  0  0  0  0  0  0
   -1.3641   -8.2057    2.2044 H   0  0  0  0  0  0  0  0  0  0  0  0
   -4.7261   -9.5249   -0.3075 H   0  0  0  0  0  0  0  0  0  0  0  0
   -4.4532  -11.0757    0.3586 H   0  0  0  0  0  0  0  0  0  0  0  0
   -2.4504  -12.1103    2.4568 H   0  0  0  0  0  0  0  0  0  0  0  0
   -3.2768   -8.3656   -1.6501 H   0  0  0  0  0  0  0  0  0  0  0  0
   -2.3859   -6.1273   -2.1933 H   0  0  0  0  0  0  0  0  0  0  0  0
  1  2  1  0
  1 22  1  0
  1 23  1  0
  1 24  1  0
  2  3  1  0
  2  6  1  0
  3  4  2  0
  3 25  1  0
  4  5  1  0
  5  6  2  0
  6  7  1  0
  7  8  1  0
  7 26  1  0
  7 27  1  0
  8  9  1  0
  8 28  1  0
  9 10  2  0
  9 11  1  0
 11 12  1  0
 11 29  1  0
 11 30  1  0
 12 13  2  0
 12 21  1  0
 13 14  1  0
 13 31  1  0
 14 15  2  0
 14 32  1  0
 15 16  1  0
 15 20  1  0
 16 17  1  0
 16 18  2  0
 17 33  1  0
 17 34  1  0
 18 19  1  0
 19 35  1  0
 20 21  2  0
 20 36  1  0
 21 37  1  0
M  END

