
     RDKit          3D

 81 86  0  0  0  0  0  0  0  0999 V2000
    3.8352   -2.0081   -4.3892 O   0  0  0  0  0  0  0  0  0  0  0  0
    3.7856   -0.9117   -3.8482 C   0  0  0  0  0  0  0  0  0  0  0  0
    2.9593   -0.6600   -2.8009 N   0  0  0  0  0  0  0  0  0  0  0  0
    2.0074   -1.6675   -2.3289 C   0  0  1  0  0  0  0  0  0  0  0  0
    2.6092   -2.6924   -1.3271 C   0  0  0  0  0  0  0  0  0  0  0  0
    2.2971   -2.1432    0.0839 C   0  0  0  0  0  0  0  0  0  0  0  0
    1.0823   -1.2702   -0.1446 C   0  0  0  0  0  0  0  0  0  0  0  0
    0.1999   -0.7147    0.7847 C   0  0  0  0  0  0  0  0  0  0  0  0
   -0.8527    0.0891    0.3339 C   0  0  0  0  0  0  0  0  0  0  0  0
   -1.0237    0.3605   -1.0348 C   0  0  0  0  0  0  0  0  0  0  0  0
   -2.0685    1.3192   -1.5517 C   0  0  0  0  0  0  0  0  0  0  0  0
   -1.7495    2.2079   -2.3318 O   0  0  0  0  0  0  0  0  0  0  0  0
   -3.3608    1.1727   -1.1206 N   0  0  0  0  0  0  0  0  0  0  0  0
   -4.3845    2.0937   -1.6365 C   0  0  0  0  0  0  0  0  0  0  0  0
   -5.7024    1.3357   -1.4436 C   0  0  0  0  0  0  0  0  0  0  0  0
   -5.4333    0.3686   -0.2611 C   0  0  2  0  0  0  0  0  0  0  0  0
   -6.3643   -0.8589   -0.2426 C   0  0  0  0  0  0  0  0  0  0  0  0
   -7.7940   -0.4945    0.1957 C   0  0  0  0  0  0  0  0  0  0  0  0
   -7.8641    0.1810    1.4865 N   0  0  0  0  0  0  0  0  0  0  0  0
   -7.7644   -0.6721    2.6675 C   0  0  0  0  0  0  0  0  0  0  0  0
   -8.5598   -0.1389    3.8671 C   0  0  0  0  0  0  0  0  0  0  0  0
  -10.0724   -0.0451    3.6025 C   0  0  0  0  0  0  0  0  0  0  0  0
  -10.8487    0.5440    4.7584 C   0  0  0  0  0  0  0  0  0  0  0  0
  -11.0649    1.9294    4.8521 C   0  0  0  0  0  0  0  0  0  0  0  0
  -11.7493    2.4766    5.9410 C   0  0  0  0  0  0  0  0  0  0  0  0
  -12.2353    1.6556    6.9622 C   0  0  0  0  0  0  0  0  0  0  0  0
  -12.0179    0.2837    6.8609 C   0  0  0  0  0  0  0  0  0  0  0  0
  -12.4811   -0.5240    7.8289 F   0  0  0  0  0  0  0  0  0  0  0  0
  -11.3377   -0.2798    5.7844 C   0  0  0  0  0  0  0  0  0  0  0  0
   -7.0166    1.3701    1.5002 C   0  0  0  0  0  0  0  0  0  0  0  0
   -5.5537    1.0933    1.1045 C   0  0  0  0  0  0  0  0  0  0  0  0
   -3.9696   -0.0317   -0.5410 C   0  0  0  0  0  0  0  0  0  0  0  0
   -0.1122   -0.1731   -1.9608 C   0  0  0  0  0  0  0  0  0  0  0  0
    0.9138   -1.0027   -1.5128 C   0  0  0  0  0  0  0  0  0  0  0  0
    4.7244    0.1949   -4.3100 C   0  0  0  0  0  0  0  0  0  0  0  0
    5.8753   -0.2731   -4.9716 C   0  0  0  0  0  0  0  0  0  0  0  0
    6.8426    0.5928   -5.4698 C   0  0  0  0  0  0  0  0  0  0  0  0
    8.0776    0.0701   -6.1620 C   0  0  1  0  0  0  0  0  0  0  0  0
    8.1022   -1.2684   -6.2217 F   0  0  0  0  0  0  0  0  0  0  0  0
    8.1649    0.5350   -7.4227 F   0  0  0  0  0  0  0  0  0  0  0  0
    9.1970    0.4682   -5.5264 F   0  0  0  0  0  0  0  0  0  0  0  0
    6.6724    1.9775   -5.3353 C   0  0  0  0  0  0  0  0  0  0  0  0
    5.5358    2.4703   -4.7064 C   0  0  0  0  0  0  0  0  0  0  0  0
    4.5711    1.5893   -4.1964 C   0  0  0  0  0  0  0  0  0  0  0  0
    3.1674    2.3445   -3.4569 Cl  0  0  0  0  0  0  0  0  0  0  0  0
    2.9207    0.2692   -2.3987 H   0  0  0  0  0  0  0  0  0  0  0  0
    1.6275   -2.1860   -3.2220 H   0  0  0  0  0  0  0  0  0  0  0  0
    3.6771   -2.8672   -1.5148 H   0  0  0  0  0  0  0  0  0  0  0  0
    2.0919   -3.6548   -1.4692 H   0  0  0  0  0  0  0  0  0  0  0  0
    3.1316   -1.5342    0.4773 H   0  0  0  0  0  0  0  0  0  0  0  0
    2.1194   -2.9410    0.8226 H   0  0  0  0  0  0  0  0  0  0  0  0
    0.3283   -0.8967    1.8552 H   0  0  0  0  0  0  0  0  0  0  0  0
   -1.5331    0.5380    1.0613 H   0  0  0  0  0  0  0  0  0  0  0  0
   -4.1714    2.3473   -2.6854 H   0  0  0  0  0  0  0  0  0  0  0  0
   -4.3590    3.0431   -1.0733 H   0  0  0  0  0  0  0  0  0  0  0  0
   -5.9341    0.7463   -2.3465 H   0  0  0  0  0  0  0  0  0  0  0  0
   -6.5494    2.0164   -1.2758 H   0  0  0  0  0  0  0  0  0  0  0  0
   -5.9523   -1.6128    0.4527 H   0  0  0  0  0  0  0  0  0  0  0  0
   -6.3858   -1.3319   -1.2401 H   0  0  0  0  0  0  0  0  0  0  0  0
   -8.4238   -1.3976    0.2299 H   0  0  0  0  0  0  0  0  0  0  0  0
   -8.2465    0.1690   -0.5644 H   0  0  0  0  0  0  0  0  0  0  0  0
   -6.7149   -0.8475    2.9901 H   0  0  0  0  0  0  0  0  0  0  0  0
   -8.1644   -1.6639    2.3969 H   0  0  0  0  0  0  0  0  0  0  0  0
   -8.1793    0.8548    4.1612 H   0  0  0  0  0  0  0  0  0  0  0  0
   -8.3706   -0.7973    4.7328 H   0  0  0  0  0  0  0  0  0  0  0  0
  -10.4586   -1.0538    3.3745 H   0  0  0  0  0  0  0  0  0  0  0  0
  -10.2242    0.5618    2.6966 H   0  0  0  0  0  0  0  0  0  0  0  0
  -10.6976    2.5846    4.0577 H   0  0  0  0  0  0  0  0  0  0  0  0
  -11.9124    3.5560    5.9953 H   0  0  0  0  0  0  0  0  0  0  0  0
  -12.7770    2.0548    7.8217 H   0  0  0  0  0  0  0  0  0  0  0  0
  -11.2018   -1.3637    5.7561 H   0  0  0  0  0  0  0  0  0  0  0  0
   -7.0512    1.8312    2.4993 H   0  0  0  0  0  0  0  0  0  0  0  0
   -7.4533    2.1140    0.8094 H   0  0  0  0  0  0  0  0  0  0  0  0
   -5.0848    0.4591    1.8772 H   0  0  0  0  0  0  0  0  0  0  0  0
   -4.9842    2.0377    1.0972 H   0  0  0  0  0  0  0  0  0  0  0  0
   -3.9346   -0.8743   -1.2582 H   0  0  0  0  0  0  0  0  0  0  0  0
   -3.4571   -0.3598    0.3729 H   0  0  0  0  0  0  0  0  0  0  0  0
   -0.2174    0.0789   -3.0186 H   0  0  0  0  0  0  0  0  0  0  0  0
    5.9746   -1.3523   -5.0884 H   0  0  0  0  0  0  0  0  0  0  0  0
    7.4214    2.6696   -5.7261 H   0  0  0  0  0  0  0  0  0  0  0  0
    5.3767    3.5448   -4.6059 H   0  0  0  0  0  0  0  0  0  0  0  0
  1  2  2  0
  2  3  1  0
  2 35  1  0
  3  4  1  0
  3 46  1  0
  4  5  1  0
  4 34  1  0
  4 47  1  6
  5  6  1  0
  5 48  1  0
  5 49  1  0
  6  7  1  0
  6 50  1  0
  6 51  1  0
  7  8  1  0
  7 34  2  0
  8  9  2  0
  8 52  1  0
  9 10  1  0
  9 53  1  0
 10 11  1  0
 10 33  2  0
 11 12  2  0
 11 13  1  0
 13 14  1  0
 13 32  1  0
 14 15  1  0
 14 54  1  0
 14 55  1  0
 16 15  1  6
 15 56  1  0
 15 57  1  0
 16 17  1  0
 16 31  1  0
 16 32  1  0
 17 18  1  0
 17 58  1  0
 17 59  1  0
 18 19  1  0
 18 60  1  0
 18 61  1  0
 19 20  1  0
 19 30  1  0
 20 21  1  0
 20 62  1  0
 20 63  1  0
 21 22  1  0
 21 64  1  0
 21 65  1  0
 22 23  1  0
 22 66  1  0
 22 67  1  0
 23 24  2  0
 23 29  1  0
 24 25  1  0
 24 68  1  0
 25 26  2  0
 25 69  1  0
 26 27  1  0
 26 70  1  0
 27 28  1  0
 27 29  2  0
 29 71  1  0
 30 31  1  0
 30 72  1  0
 30 73  1  0
 31 74  1  0
 31 75  1  0
 32 76  1  0
 32 77  1  0
 33 34  1  0
 33 78  1  0
 35 36  2  0
 35 44  1  0
 36 37  1  0
 36 79  1  0
 37 38  1  0
 37 42  2  0
 38 39  1  6
 38 40  1  0
 38 41  1  0
 42 43  1  0
 42 80  1  0
 43 44  2  0
 43 81  1  0
 44 45  1  0
M  END

