
     RDKit          3D

 37 38  0  0  0  0  0  0  0  0999 V2000
    3.4456   -0.8342   -2.0939 N   0  0  0  0  0  0  0  0  0  0  0  0
    3.0266   -0.2985   -0.7992 C   0  0  0  0  0  0  0  0  0  0  0  0
    3.0584    1.1939   -0.7908 C   0  0  0  0  0  0  0  0  0  0  0  0
    2.0984    2.1679   -0.6849 C   0  0  0  0  0  0  0  0  0  0  0  0
    2.7781    3.4228   -0.7532 C   0  0  0  0  0  0  0  0  0  0  0  0
    4.1082    3.1296   -0.8995 C   0  0  0  0  0  0  0  0  0  0  0  0
    5.2831    4.0130   -1.0341 C   0  0  0  0  0  0  0  0  0  0  0  0
    5.1758    5.2339   -1.0413 O   0  0  0  0  0  0  0  0  0  0  0  0
    6.4837    3.3714   -1.1393 N   0  0  0  0  0  0  0  0  0  0  0  0
    7.7055    4.0968   -1.3678 C   0  0  1  0  0  0  0  0  0  0  0  0
    7.4999    4.9100   -2.0899 H   0  0  0  0  0  0  0  0  0  0  0  0
    8.2638    4.7838   -0.0831 C   0  0  0  0  0  0  0  0  0  0  0  0
    8.6095    3.8378    1.0438 C   0  0  0  0  0  0  0  0  0  0  0  0
    9.8675    3.2156    1.1109 C   0  0  0  0  0  0  0  0  0  0  0  0
   10.1724    2.3235    2.1421 C   0  0  0  0  0  0  0  0  0  0  0  0
    9.2217    2.0371    3.1262 C   0  0  0  0  0  0  0  0  0  0  0  0
    7.9667    2.6504    3.0725 C   0  0  0  0  0  0  0  0  0  0  0  0
    7.6649    3.5430    2.0403 C   0  0  0  0  0  0  0  0  0  0  0  0
    8.7139    3.1342   -2.0031 C   0  0  0  0  0  0  0  0  0  0  0  0
    8.5107    1.9599   -2.1507 O   0  0  0  0  0  0  0  0  0  0  0  0
    9.8830    3.6862   -2.3860 O   0  0  0  0  0  0  0  0  0  0  0  0
    4.2827    1.7737   -0.9198 O   0  0  0  0  0  0  0  0  0  0  0  0
    3.4457   -1.8540   -2.0622 H   0  0  0  0  0  0  0  0  0  0  0  0
    4.4098   -0.5577   -2.2840 H   0  0  0  0  0  0  0  0  0  0  0  0
    3.6308   -0.6594    0.0631 H   0  0  0  0  0  0  0  0  0  0  0  0
    1.9875   -0.6060   -0.6019 H   0  0  0  0  0  0  0  0  0  0  0  0
    1.0291    2.0000   -0.5767 H   0  0  0  0  0  0  0  0  0  0  0  0
    2.3575    4.4242   -0.7067 H   0  0  0  0  0  0  0  0  0  0  0  0
    6.5321    2.3582   -1.2032 H   0  0  0  0  0  0  0  0  0  0  0  0
    7.4881    5.4964    0.2319 H   0  0  0  0  0  0  0  0  0  0  0  0
    9.1470    5.3884   -0.3559 H   0  0  0  0  0  0  0  0  0  0  0  0
   10.6200    3.4310    0.3470 H   0  0  0  0  0  0  0  0  0  0  0  0
   11.1578    1.8520    2.1772 H   0  0  0  0  0  0  0  0  0  0  0  0
    9.4600    1.3413    3.9348 H   0  0  0  0  0  0  0  0  0  0  0  0
    7.2191    2.4371    3.8410 H   0  0  0  0  0  0  0  0  0  0  0  0
    6.6848    4.0264    2.0103 H   0  0  0  0  0  0  0  0  0  0  0  0
    9.8828    4.6410   -2.2245 H   0  0  0  0  0  0  0  0  0  0  0  0
  1  2  1  0
  1 23  1  0
  1 24  1  0
  2  3  1  0
  2 25  1  0
  2 26  1  0
  3  4  2  0
  3 22  1  0
  4  5  1  0
  4 27  1  0
  5  6  2  0
  5 28  1  0
  6  7  1  0
  6 22  1  0
  7  8  2  0
  7  9  1  0
  9 10  1  0
  9 29  1  0
 10 11  1  6
 10 12  1  0
 10 19  1  0
 12 13  1  0
 12 30  1  0
 12 31  1  0
 13 14  2  0
 13 18  1  0
 14 15  1  0
 14 32  1  0
 15 16  2  0
 15 33  1  0
 16 17  1  0
 16 34  1  0
 17 18  2  0
 17 35  1  0
 18 36  1  0
 19 20  2  0
 19 21  1  0
 21 37  1  0
M  END

