
     RDKit          3D

 45 47  0  0  0  0  0  0  0  0999 V2000
    3.8347    4.6459    0.1340 C   0  0  0  0  0  0  0  0  0  0  0  0
    3.9417    3.3046    0.5240 O   0  0  0  0  0  0  0  0  0  0  0  0
    4.6719    2.5120   -0.3752 C   0  0  0  0  0  0  0  0  0  0  0  0
    4.8015    1.1119    0.2061 C   0  0  2  0  0  0  0  0  0  0  0  0
    3.8027    0.8009    0.5706 H   0  0  0  0  0  0  0  0  0  0  0  0
    5.6886    1.1959    1.2983 O   0  0  0  0  0  0  0  0  0  0  0  0
    5.8321   -0.0403    1.9549 C   0  0  0  0  0  0  0  0  0  0  0  0
    6.4535   -1.0594    1.0193 C   0  0  0  0  0  0  0  0  0  0  0  0
    5.6004   -1.2074   -0.1790 N   0  0  0  0  0  0  0  0  0  0  0  0
    6.1887   -2.4550   -1.2223 S   0  0  1  0  0  0  0  0  0  0  0  0
    6.7871   -1.8556   -2.4218 O   0  0  0  0  0  0  0  0  0  0  0  0
    6.9768   -3.3472   -0.3655 O   0  0  0  0  0  0  0  0  0  0  0  0
    4.7305   -3.3754   -1.7220 C   0  0  0  0  0  0  0  0  0  0  0  0
    4.4348   -3.4847   -3.0808 C   0  0  0  0  0  0  0  0  0  0  0  0
    3.3547   -4.2810   -3.4740 C   0  0  0  0  0  0  0  0  0  0  0  0
    2.5921   -4.9534   -2.5154 C   0  0  0  0  0  0  0  0  0  0  0  0
    2.9086   -4.8405   -1.1553 C   0  0  0  0  0  0  0  0  0  0  0  0
    3.9884   -4.0555   -0.7506 C   0  0  0  0  0  0  0  0  0  0  0  0
    5.2764    0.0765   -0.8596 C   0  0  1  0  0  0  0  0  0  0  0  0
    6.1926    0.4787   -1.3301 H   0  0  0  0  0  0  0  0  0  0  0  0
    4.2108   -0.0854   -1.9332 C   0  0  0  0  0  0  0  0  0  0  0  0
    2.9272   -0.5557   -1.6124 C   0  0  0  0  0  0  0  0  0  0  0  0
    1.9316   -0.6348   -2.5887 C   0  0  0  0  0  0  0  0  0  0  0  0
    2.2051   -0.2477   -3.9043 C   0  0  0  0  0  0  0  0  0  0  0  0
    3.4827    0.2119   -4.2372 C   0  0  0  0  0  0  0  0  0  0  0  0
    4.4771    0.2901   -3.2580 C   0  0  0  0  0  0  0  0  0  0  0  0
    3.2413    5.1718    0.8963 H   0  0  0  0  0  0  0  0  0  0  0  0
    3.3264    4.7575   -0.8464 H   0  0  0  0  0  0  0  0  0  0  0  0
    4.8260    5.1382    0.0585 H   0  0  0  0  0  0  0  0  0  0  0  0
    5.6918    2.9213   -0.5320 H   0  0  0  0  0  0  0  0  0  0  0  0
    4.1699    2.4724   -1.3612 H   0  0  0  0  0  0  0  0  0  0  0  0
    4.8515   -0.4050    2.3230 H   0  0  0  0  0  0  0  0  0  0  0  0
    6.4905    0.1224    2.8216 H   0  0  0  0  0  0  0  0  0  0  0  0
    6.5466   -2.0357    1.5103 H   0  0  0  0  0  0  0  0  0  0  0  0
    7.4719   -0.7190    0.7507 H   0  0  0  0  0  0  0  0  0  0  0  0
    5.0437   -2.9470   -3.8085 H   0  0  0  0  0  0  0  0  0  0  0  0
    3.1098   -4.3738   -4.5347 H   0  0  0  0  0  0  0  0  0  0  0  0
    1.7479   -5.5736   -2.8271 H   0  0  0  0  0  0  0  0  0  0  0  0
    2.3159   -5.3743   -0.4084 H   0  0  0  0  0  0  0  0  0  0  0  0
    4.2557   -3.9716    0.3041 H   0  0  0  0  0  0  0  0  0  0  0  0
    2.7088   -0.8763   -0.5915 H   0  0  0  0  0  0  0  0  0  0  0  0
    0.9382   -1.0037   -2.3211 H   0  0  0  0  0  0  0  0  0  0  0  0
    1.4260   -0.3085   -4.6685 H   0  0  0  0  0  0  0  0  0  0  0  0
    3.7089    0.5085   -5.2646 H   0  0  0  0  0  0  0  0  0  0  0  0
    5.4793    0.6330   -3.5254 H   0  0  0  0  0  0  0  0  0  0  0  0
  1  2  1  0
  1 27  1  0
  1 28  1  0
  1 29  1  0
  2  3  1  0
  3  4  1  0
  3 30  1  0
  3 31  1  0
  4  5  1  1
  4  6  1  0
  4 19  1  0
  6  7  1  0
  7  8  1  0
  7 32  1  0
  7 33  1  0
  8  9  1  0
  8 34  1  0
  8 35  1  0
  9 10  1  0
  9 19  1  0
 10 11  2  0
 10 12  2  0
 10 13  1  6
 13 14  2  0
 13 18  1  0
 14 15  1  0
 14 36  1  0
 15 16  2  0
 15 37  1  0
 16 17  1  0
 16 38  1  0
 17 18  2  0
 17 39  1  0
 18 40  1  0
 19 20  1  6
 19 21  1  0
 21 22  2  0
 21 26  1  0
 22 23  1  0
 22 41  1  0
 23 24  2  0
 23 42  1  0
 24 25  1  0
 24 43  1  0
 25 26  2  0
 25 44  1  0
 26 45  1  0
M  END

