
     RDKit          3D

 47 50  0  0  0  0  0  0  0  0999 V2000
    1.4526    0.3606    1.3945 C   0  0  0  0  0  0  0  0  0  0  0  0
    2.8246    0.2348    0.7809 C   0  0  0  0  0  0  0  0  0  0  0  0
    3.2472   -0.9711    0.2062 C   0  0  0  0  0  0  0  0  0  0  0  0
    4.5061   -1.1293   -0.3722 C   0  0  0  0  0  0  0  0  0  0  0  0
    5.3993   -0.0443   -0.3864 C   0  0  0  0  0  0  0  0  0  0  0  0
    6.6883   -0.1396   -0.9702 N   0  0  0  0  0  0  0  0  0  0  0  0
    7.5150    1.0493   -1.1816 C   0  0  0  0  0  0  0  0  0  0  0  0
    8.6566    0.5649   -2.0902 C   0  0  1  0  0  0  0  0  0  0  0  0
    8.3472    0.6628   -3.1447 H   0  0  0  0  0  0  0  0  0  0  0  0
    9.9574    1.3346   -1.8602 C   0  0  0  0  0  0  0  0  0  0  0  0
   10.2376    1.8760   -0.8208 O   0  0  0  0  0  0  0  0  0  0  0  0
   10.8047    1.3039   -2.9775 N   0  0  0  0  0  0  0  0  0  0  0  0
   12.0774    1.8302   -3.0869 C   0  0  0  0  0  0  0  0  0  0  0  0
   12.7429    2.4352   -2.1647 N   0  0  0  0  0  0  0  0  0  0  0  0
   13.9790    2.8301   -2.6210 C   0  0  0  0  0  0  0  0  0  0  0  0
   14.9439    3.5137   -1.8598 C   0  0  0  0  0  0  0  0  0  0  0  0
   16.1583    3.8552   -2.4417 C   0  0  0  0  0  0  0  0  0  0  0  0
   16.4063    3.5136   -3.7806 C   0  0  0  0  0  0  0  0  0  0  0  0
   17.7013    3.8842   -4.3833 N   0  0  0  0  0  0  0  0  0  0  0  0
   18.5033    4.4765   -3.6794 O   0  0  0  0  0  0  0  0  0  0  0  0
   17.8907    3.5752   -5.5499 O   0  0  0  0  0  0  0  0  0  0  0  0
   15.4799    2.8358   -4.5738 C   0  0  0  0  0  0  0  0  0  0  0  0
   14.2679    2.5010   -3.9769 C   0  0  0  0  0  0  0  0  0  0  0  0
   12.8961    1.6606   -4.6727 S   0  0  0  0  0  0  0  0  0  0  0  0
    8.7666   -0.9306   -1.7407 C   0  0  0  0  0  0  0  0  0  0  0  0
    7.3579   -1.3117   -1.2844 C   0  0  0  0  0  0  0  0  0  0  0  0
    6.9388   -2.4457   -1.1974 O   0  0  0  0  0  0  0  0  0  0  0  0
    4.9881    1.1706    0.1926 C   0  0  0  0  0  0  0  0  0  0  0  0
    3.7221    1.3253    0.7711 C   0  0  0  0  0  0  0  0  0  0  0  0
    3.3306    2.6489    1.3816 C   0  0  0  0  0  0  0  0  0  0  0  0
    0.8898   -0.5804    1.3094 H   0  0  0  0  0  0  0  0  0  0  0  0
    0.8568    1.1523    0.9084 H   0  0  0  0  0  0  0  0  0  0  0  0
    1.5053    0.6229    2.4653 H   0  0  0  0  0  0  0  0  0  0  0  0
    2.5648   -1.8261    0.2079 H   0  0  0  0  0  0  0  0  0  0  0  0
    4.8048   -2.0830   -0.7988 H   0  0  0  0  0  0  0  0  0  0  0  0
    7.9263    1.4376   -0.2346 H   0  0  0  0  0  0  0  0  0  0  0  0
    6.9272    1.8518   -1.6522 H   0  0  0  0  0  0  0  0  0  0  0  0
   10.4461    0.8352   -3.8018 H   0  0  0  0  0  0  0  0  0  0  0  0
   14.7194    3.7642   -0.8219 H   0  0  0  0  0  0  0  0  0  0  0  0
   16.9306    4.3848   -1.8851 H   0  0  0  0  0  0  0  0  0  0  0  0
   15.7281    2.5971   -5.6071 H   0  0  0  0  0  0  0  0  0  0  0  0
    9.4518   -1.0968   -0.8914 H   0  0  0  0  0  0  0  0  0  0  0  0
    9.0905   -1.5803   -2.5653 H   0  0  0  0  0  0  0  0  0  0  0  0
    5.6653    2.0251    0.2141 H   0  0  0  0  0  0  0  0  0  0  0  0
    4.1398    3.3888    1.2972 H   0  0  0  0  0  0  0  0  0  0  0  0
    3.0819    2.5443    2.4514 H   0  0  0  0  0  0  0  0  0  0  0  0
    2.4359    3.0721    0.8937 H   0  0  0  0  0  0  0  0  0  0  0  0
  1  2  1  0
  1 31  1  0
  1 32  1  0
  1 33  1  0
  2  3  2  0
  2 29  1  0
  3  4  1  0
  3 34  1  0
  4  5  2  0
  4 35  1  0
  5  6  1  0
  5 28  1  0
  6  7  1  0
  6 26  1  0
  7  8  1  0
  7 36  1  0
  7 37  1  0
  8  9  1  6
  8 10  1  0
  8 25  1  0
 10 11  2  0
 10 12  1  0
 12 13  1  0
 12 38  1  0
 13 14  2  0
 13 24  1  0
 14 15  1  0
 15 16  2  0
 15 23  1  0
 16 17  1  0
 16 39  1  0
 17 18  2  0
 17 40  1  0
 18 19  1  0
 18 22  1  0
 19 20  2  0
 19 21  1  0
 22 23  2  0
 22 41  1  0
 23 24  1  0
 25 26  1  0
 25 42  1  0
 25 43  1  0
 26 27  2  0
 28 29  2  0
 28 44  1  0
 29 30  1  0
 30 45  1  0
 30 46  1  0
 30 47  1  0
M  CHG  2  19   1  21  -1
M  END

