
     RDKit          3D

 49 51  0  0  0  0  0  0  0  0999 V2000
    1.8620   -3.0374    0.4139 N   0  0  0  0  0  0  0  0  0  0  0  0
    2.9517   -2.9328    0.8099 C   0  0  0  0  0  0  0  0  0  0  0  0
    4.2834   -2.7916    1.3175 C   0  0  0  0  0  0  0  0  0  0  0  0
    5.2677   -2.7101    0.3456 C   0  0  0  0  0  0  0  0  0  0  0  0
    6.5839   -2.3861    0.3835 N   0  0  0  0  0  0  0  0  0  0  0  0
    7.2193   -1.7266    1.5344 C   0  0  0  0  0  0  0  0  0  0  0  0
    6.7194   -0.3198    1.8192 C   0  0  0  0  0  0  0  0  0  0  0  0
    6.7597    0.1550    3.1395 C   0  0  0  0  0  0  0  0  0  0  0  0
    6.3710    1.4626    3.4411 C   0  0  0  0  0  0  0  0  0  0  0  0
    5.9216    2.3133    2.4267 C   0  0  0  0  0  0  0  0  0  0  0  0
    5.8631    1.8456    1.1110 C   0  0  0  0  0  0  0  0  0  0  0  0
    6.2602    0.5393    0.8097 C   0  0  0  0  0  0  0  0  0  0  0  0
    7.3710   -2.6522   -0.7799 C   0  0  0  0  0  0  0  0  0  0  0  0
    7.1803   -3.8439   -1.4993 C   0  0  0  0  0  0  0  0  0  0  0  0
    7.9268   -4.0980   -2.6522 C   0  0  0  0  0  0  0  0  0  0  0  0
    8.8863   -3.1823   -3.0906 C   0  0  0  0  0  0  0  0  0  0  0  0
    9.0912   -2.0044   -2.3654 C   0  0  0  0  0  0  0  0  0  0  0  0
    8.3404   -1.7341   -1.2203 C   0  0  0  0  0  0  0  0  0  0  0  0
    4.4661   -2.8580    2.7983 C   0  0  0  0  0  0  0  0  0  0  0  0
    5.5167   -3.2154    3.3191 O   0  0  0  0  0  0  0  0  0  0  0  0
    3.3336   -2.5260    3.5180 N   0  0  0  0  0  0  0  0  0  0  0  0
    3.1238   -2.5846    4.9047 C   0  0  0  0  0  0  0  0  0  0  0  0
    4.1555   -2.9007    5.8096 C   0  0  0  0  0  0  0  0  0  0  0  0
    3.9092   -2.9335    7.1821 C   0  0  0  0  0  0  0  0  0  0  0  0
    2.6421   -2.6514    7.6942 C   0  0  0  0  0  0  0  0  0  0  0  0
    1.6101   -2.3440    6.8082 C   0  0  0  0  0  0  0  0  0  0  0  0
    1.8312   -2.3104    5.4279 C   0  0  0  0  0  0  0  0  0  0  0  0
    0.6636   -2.0319    4.5126 C   0  0  1  0  0  0  0  0  0  0  0  0
    0.9257   -1.0040    3.6642 F   0  0  0  0  0  0  0  0  0  0  0  0
    0.3734   -3.0924    3.7357 F   0  0  0  0  0  0  0  0  0  0  0  0
   -0.4498   -1.7086    5.1817 F   0  0  0  0  0  0  0  0  0  0  0  0
    4.9140   -2.8870   -0.6742 H   0  0  0  0  0  0  0  0  0  0  0  0
    8.2991   -1.7094    1.3313 H   0  0  0  0  0  0  0  0  0  0  0  0
    7.0620   -2.3567    2.4201 H   0  0  0  0  0  0  0  0  0  0  0  0
    7.0906   -0.5123    3.9399 H   0  0  0  0  0  0  0  0  0  0  0  0
    6.4081    1.8142    4.4754 H   0  0  0  0  0  0  0  0  0  0  0  0
    5.6094    3.3337    2.6621 H   0  0  0  0  0  0  0  0  0  0  0  0
    5.5029    2.4992    0.3124 H   0  0  0  0  0  0  0  0  0  0  0  0
    6.1981    0.1853   -0.2222 H   0  0  0  0  0  0  0  0  0  0  0  0
    6.4665   -4.5873   -1.1389 H   0  0  0  0  0  0  0  0  0  0  0  0
    7.7672   -5.0311   -3.1982 H   0  0  0  0  0  0  0  0  0  0  0  0
    9.4755   -3.3871   -3.9873 H   0  0  0  0  0  0  0  0  0  0  0  0
    9.8363   -1.2779   -2.6990 H   0  0  0  0  0  0  0  0  0  0  0  0
    8.4956   -0.7967   -0.6839 H   0  0  0  0  0  0  0  0  0  0  0  0
    2.5577   -2.1794    2.9637 H   0  0  0  0  0  0  0  0  0  0  0  0
    5.1430   -3.1205    5.4150 H   0  0  0  0  0  0  0  0  0  0  0  0
    4.7306   -3.1829    7.8589 H   0  0  0  0  0  0  0  0  0  0  0  0
    2.4542   -2.6740    8.7696 H   0  0  0  0  0  0  0  0  0  0  0  0
    0.6094   -2.1295    7.1843 H   0  0  0  0  0  0  0  0  0  0  0  0
  1  2  3  0
  2  3  1  0
  3  4  2  0
  3 19  1  0
  4  5  1  0
  4 32  1  0
  5  6  1  0
  5 13  1  0
  6  7  1  0
  6 33  1  0
  6 34  1  0
  7  8  2  0
  7 12  1  0
  8  9  1  0
  8 35  1  0
  9 10  2  0
  9 36  1  0
 10 11  1  0
 10 37  1  0
 11 12  2  0
 11 38  1  0
 12 39  1  0
 13 14  2  0
 13 18  1  0
 14 15  1  0
 14 40  1  0
 15 16  2  0
 15 41  1  0
 16 17  1  0
 16 42  1  0
 17 18  2  0
 17 43  1  0
 18 44  1  0
 19 20  2  0
 19 21  1  0
 21 22  1  0
 21 45  1  0
 22 23  2  0
 22 27  1  0
 23 24  1  0
 23 46  1  0
 24 25  2  0
 24 47  1  0
 25 26  1  0
 25 48  1  0
 26 27  2  0
 26 49  1  0
 27 28  1  0
 28 29  1  6
 28 30  1  0
 28 31  1  0
M  END

