
     RDKit          3D

 44 45  0  0  0  0  0  0  0  0999 V2000
    1.1065   -0.6215    0.2907 C   0  0  0  0  0  0  0  0  0  0  0  0
    2.6345   -0.6295    0.4509 C   0  0  1  0  0  0  0  0  0  0  0  0
    3.2839    0.1713   -0.6860 C   0  0  0  0  0  0  0  0  0  0  0  0
    3.0743   -0.1089    1.8484 C   0  0  1  0  0  0  0  0  0  0  0  0
    2.8694    0.9802    1.8770 H   0  0  0  0  0  0  0  0  0  0  0  0
    2.4129   -0.8580    2.9201 N   0  0  0  0  0  0  0  0  0  0  0  0
    4.6028   -0.2301    2.0136 C   0  0  0  0  0  0  0  0  0  0  0  0
    5.3676    0.6437    1.6245 O   0  0  0  0  0  0  0  0  0  0  0  0
    5.0065   -1.3969    2.5796 N   0  0  0  0  0  0  0  0  0  0  0  0
    6.4032   -1.7024    2.8495 C   0  0  0  0  0  0  0  0  0  0  0  0
    6.8549   -1.3425    4.2526 C   0  0  0  0  0  0  0  0  0  0  0  0
    7.0942   -2.3238    5.2220 C   0  0  0  0  0  0  0  0  0  0  0  0
    7.4941   -2.0020    6.5222 C   0  0  0  0  0  0  0  0  0  0  0  0
    7.6639   -0.6537    6.8783 C   0  0  0  0  0  0  0  0  0  0  0  0
    8.0671   -0.2333    8.1603 N   0  0  0  0  0  0  0  0  0  0  0  0
    8.3514   -0.9892    9.2758 C   0  0  0  0  0  0  0  0  0  0  0  0
    8.2859   -2.2077    9.3114 O   0  0  0  0  0  0  0  0  0  0  0  0
    8.7588   -0.1807   10.4748 C   0  0  1  0  0  0  0  0  0  0  0  0
    8.3564   -0.7145   11.8374 C   0  0  0  0  0  0  0  0  0  0  0  0
    9.7831   -0.7989   11.4088 C   0  0  0  0  0  0  0  0  0  0  0  0
    7.4262    0.3416    5.9101 C   0  0  0  0  0  0  0  0  0  0  0  0
    7.0300    0.0029    4.6200 C   0  0  0  0  0  0  0  0  0  0  0  0
    0.8290   -0.9325   -0.7288 H   0  0  0  0  0  0  0  0  0  0  0  0
    0.6942    0.3901    0.4498 H   0  0  0  0  0  0  0  0  0  0  0  0
    0.5986   -1.3157    0.9789 H   0  0  0  0  0  0  0  0  0  0  0  0
    2.9776   -1.6781    0.3828 H   0  0  0  0  0  0  0  0  0  0  0  0
    2.9294    1.2160   -0.6810 H   0  0  0  0  0  0  0  0  0  0  0  0
    3.0172   -0.2669   -1.6610 H   0  0  0  0  0  0  0  0  0  0  0  0
    4.3785    0.2004   -0.6038 H   0  0  0  0  0  0  0  0  0  0  0  0
    1.4079   -0.9054    2.7669 H   0  0  0  0  0  0  0  0  0  0  0  0
    2.5454   -0.3857    3.8150 H   0  0  0  0  0  0  0  0  0  0  0  0
    4.2614   -1.9690    2.9723 H   0  0  0  0  0  0  0  0  0  0  0  0
    6.9930   -1.1398    2.1108 H   0  0  0  0  0  0  0  0  0  0  0  0
    6.5689   -2.7764    2.6689 H   0  0  0  0  0  0  0  0  0  0  0  0
    6.9707   -3.3794    4.9604 H   0  0  0  0  0  0  0  0  0  0  0  0
    7.6778   -2.7759    7.2634 H   0  0  0  0  0  0  0  0  0  0  0  0
    8.1612    0.7693    8.2694 H   0  0  0  0  0  0  0  0  0  0  0  0
    8.7869    0.9065   10.3526 H   0  0  0  0  0  0  0  0  0  0  0  0
    7.7747   -1.6400   11.8312 H   0  0  0  0  0  0  0  0  0  0  0  0
    8.0721    0.0174   12.5983 H   0  0  0  0  0  0  0  0  0  0  0  0
   10.1621   -1.7810   11.1145 H   0  0  0  0  0  0  0  0  0  0  0  0
   10.5157   -0.1269   11.8639 H   0  0  0  0  0  0  0  0  0  0  0  0
    7.5614    1.3954    6.1742 H   0  0  0  0  0  0  0  0  0  0  0  0
    6.8521    0.7864    3.8787 H   0  0  0  0  0  0  0  0  0  0  0  0
  1  2  1  0
  1 23  1  0
  1 24  1  0
  1 25  1  0
  2  3  1  0
  2  4  1  0
  2 26  1  6
  3 27  1  0
  3 28  1  0
  3 29  1  0
  4  5  1  6
  4  6  1  0
  4  7  1  0
  6 30  1  0
  6 31  1  0
  7  8  2  0
  7  9  1  0
  9 10  1  0
  9 32  1  0
 10 11  1  0
 10 33  1  0
 10 34  1  0
 11 12  2  0
 11 22  1  0
 12 13  1  0
 12 35  1  0
 13 14  2  0
 13 36  1  0
 14 15  1  0
 14 21  1  0
 15 16  1  0
 15 37  1  0
 16 17  2  0
 16 18  1  0
 18 19  1  0
 18 20  1  0
 18 38  1  6
 19 20  1  0
 19 39  1  0
 19 40  1  0
 20 41  1  0
 20 42  1  0
 21 22  2  0
 21 43  1  0
 22 44  1  0
M  END

