
     RDKit          3D

 47 48  0  0  0  0  0  0  0  0999 V2000
    6.3286   -0.3772    3.4647 C   0  0  0  0  0  0  0  0  0  0  0  0
    5.4298    0.0342    2.2970 C   0  0  0  0  0  0  0  0  0  0  0  0
    5.9200    1.2960    1.5787 C   0  0  0  0  0  0  0  0  0  0  0  0
    5.1208    1.6886    0.3222 C   0  0  1  0  0  0  0  0  0  0  0  0
    3.6559    2.0407    0.6118 C   0  0  0  0  0  0  0  0  0  0  0  0
    5.7869    2.7892   -0.3669 N   0  0  0  0  0  0  0  0  0  0  0  0
    6.1689    2.7298   -1.6740 C   0  0  0  0  0  0  0  0  0  0  0  0
    5.9868    1.7557   -2.3901 O   0  0  0  0  0  0  0  0  0  0  0  0
    6.8431    3.9911   -2.2467 C   0  0  1  0  0  0  0  0  0  0  0  0
    5.8204    4.8669   -3.0027 C   0  0  0  0  0  0  0  0  0  0  0  0
    4.9592    5.6821   -2.0333 C   0  0  0  0  0  0  0  0  0  0  0  0
    5.8277    6.4653   -1.0481 C   0  0  0  0  0  0  0  0  0  0  0  0
    6.7512    5.5824   -0.3240 N   0  0  0  0  0  0  0  0  0  0  0  0
    7.5063    6.2885    0.7039 C   0  0  0  0  0  0  0  0  0  0  0  0
    6.6619    6.7510    1.8569 C   0  0  0  0  0  0  0  0  0  0  0  0
    6.7311    7.9393    2.3767 N   0  0  0  0  0  0  0  0  0  0  0  0
    5.9121    8.1177    3.4462 N   0  0  0  0  0  0  0  0  0  0  0  0
    5.2060    7.0675    3.7482 C   0  0  0  0  0  0  0  0  0  0  0  0
    4.2239    7.0173    4.8737 C   0  0  0  0  0  0  0  0  0  0  0  0
    5.5162    5.7060    2.6795 S   0  0  0  0  0  0  0  0  0  0  0  0
    7.6292    4.8469   -1.2419 C   0  0  0  0  0  0  0  0  0  0  0  0
    5.9527   -1.2845    3.9638 H   0  0  0  0  0  0  0  0  0  0  0  0
    6.3886    0.4198    4.2250 H   0  0  0  0  0  0  0  0  0  0  0  0
    7.3570   -0.5856    3.1253 H   0  0  0  0  0  0  0  0  0  0  0  0
    4.4016    0.1860    2.6684 H   0  0  0  0  0  0  0  0  0  0  0  0
    5.3690   -0.7944    1.5683 H   0  0  0  0  0  0  0  0  0  0  0  0
    6.9709    1.1500    1.2736 H   0  0  0  0  0  0  0  0  0  0  0  0
    5.9224    2.1461    2.2882 H   0  0  0  0  0  0  0  0  0  0  0  0
    5.1466    0.8495   -0.3903 H   0  0  0  0  0  0  0  0  0  0  0  0
    3.5829    2.8997    1.3011 H   0  0  0  0  0  0  0  0  0  0  0  0
    3.1194    1.1951    1.0688 H   0  0  0  0  0  0  0  0  0  0  0  0
    3.1339    2.3044   -0.3207 H   0  0  0  0  0  0  0  0  0  0  0  0
    5.9143    3.6831    0.1100 H   0  0  0  0  0  0  0  0  0  0  0  0
    7.5585    3.5890   -2.9800 H   0  0  0  0  0  0  0  0  0  0  0  0
    5.2005    4.2311   -3.6535 H   0  0  0  0  0  0  0  0  0  0  0  0
    6.3749    5.5570   -3.6637 H   0  0  0  0  0  0  0  0  0  0  0  0
    4.2858    5.0143   -1.4709 H   0  0  0  0  0  0  0  0  0  0  0  0
    4.3181    6.3873   -2.5871 H   0  0  0  0  0  0  0  0  0  0  0  0
    5.1963    6.9911   -0.3154 H   0  0  0  0  0  0  0  0  0  0  0  0
    6.3997    7.2494   -1.5956 H   0  0  0  0  0  0  0  0  0  0  0  0
    8.0314    7.1875    0.3184 H   0  0  0  0  0  0  0  0  0  0  0  0
    8.2824    5.6041    1.0874 H   0  0  0  0  0  0  0  0  0  0  0  0
    4.2299    7.9922    5.3796 H   0  0  0  0  0  0  0  0  0  0  0  0
    4.4851    6.2342    5.6031 H   0  0  0  0  0  0  0  0  0  0  0  0
    3.2047    6.8102    4.5104 H   0  0  0  0  0  0  0  0  0  0  0  0
    8.3014    4.2104   -0.6441 H   0  0  0  0  0  0  0  0  0  0  0  0
    8.2770    5.5505   -1.8123 H   0  0  0  0  0  0  0  0  0  0  0  0
  1  2  1  0
  1 22  1  0
  1 23  1  0
  1 24  1  0
  2  3  1  0
  2 25  1  0
  2 26  1  0
  3  4  1  0
  3 27  1  0
  3 28  1  0
  4  5  1  0
  4  6  1  0
  4 29  1  6
  5 30  1  0
  5 31  1  0
  5 32  1  0
  6  7  1  0
  6 33  1  0
  7  8  2  0
  7  9  1  0
  9 10  1  0
  9 21  1  0
  9 34  1  6
 10 11  1  0
 10 35  1  0
 10 36  1  0
 11 12  1  0
 11 37  1  0
 11 38  1  0
 12 13  1  0
 12 39  1  0
 12 40  1  0
 13 14  1  0
 13 21  1  0
 14 15  1  0
 14 41  1  0
 14 42  1  0
 15 16  2  0
 15 20  1  0
 16 17  1  0
 17 18  2  0
 18 19  1  0
 18 20  1  0
 19 43  1  0
 19 44  1  0
 19 45  1  0
 21 46  1  0
 21 47  1  0
M  END

