
     RDKit          3D

 49 51  0  0  0  0  0  0  0  0999 V2000
   -0.4045   -0.4264   -2.3176 C   0  0  0  0  0  0  0  0  0  0  0  0
    0.4516    0.4219   -1.3785 C   0  0  0  0  0  0  0  0  0  0  0  0
    1.7464    0.8066   -1.9445 N   0  0  0  0  0  0  0  0  0  0  0  0
    1.9637    1.8546   -2.8015 C   0  0  0  0  0  0  0  0  0  0  0  0
    0.6634    2.8659   -3.4244 S   0  0  0  0  0  0  0  0  0  0  0  0
    1.5801    3.8375   -4.6915 C   0  0  0  0  0  0  0  0  0  0  0  0
    2.2914    5.0939   -4.1642 C   0  0  0  0  0  0  0  0  0  0  0  0
    1.8055    6.1975   -4.3510 O   0  0  0  0  0  0  0  0  0  0  0  0
    3.4677    4.8304   -3.5273 N   0  0  0  0  0  0  0  0  0  0  0  0
    4.3480    5.7359   -2.9082 C   0  0  0  0  0  0  0  0  0  0  0  0
    5.4654    5.1998   -2.2375 C   0  0  0  0  0  0  0  0  0  0  0  0
    6.3838    6.0298   -1.6058 C   0  0  0  0  0  0  0  0  0  0  0  0
    6.2199    7.4281   -1.6195 C   0  0  0  0  0  0  0  0  0  0  0  0
    7.4610    8.3855   -0.7770 S   0  0  0  0  0  0  0  0  0  0  0  0
    6.9150   10.0992   -1.0196 C   0  0  0  0  0  0  0  0  0  0  0  0
    5.1065    7.9588   -2.2862 C   0  0  0  0  0  0  0  0  0  0  0  0
    4.1788    7.1294   -2.9242 C   0  0  0  0  0  0  0  0  0  0  0  0
    3.2496    1.9857   -3.0453 N   0  0  0  0  0  0  0  0  0  0  0  0
    3.9094    1.0188   -2.3466 N   0  0  0  0  0  0  0  0  0  0  0  0
    3.0193    0.3095   -1.6870 C   0  0  0  0  0  0  0  0  0  0  0  0
    3.3749   -0.7982   -0.7824 C   0  0  0  0  0  0  0  0  0  0  0  0
    4.5921   -0.7061   -0.0791 C   0  0  0  0  0  0  0  0  0  0  0  0
    4.9881   -1.7410    0.7633 C   0  0  0  0  0  0  0  0  0  0  0  0
    4.1853   -2.8766    0.9186 C   0  0  0  0  0  0  0  0  0  0  0  0
    2.9762   -2.9999    0.2213 C   0  0  0  0  0  0  0  0  0  0  0  0
    2.1060   -4.2260    0.3639 C   0  0  0  0  0  0  0  0  0  0  0  0
    2.5885   -1.9519   -0.6295 C   0  0  0  0  0  0  0  0  0  0  0  0
   -1.3613   -0.6693   -1.8298 H   0  0  0  0  0  0  0  0  0  0  0  0
    0.0958   -1.3706   -2.5819 H   0  0  0  0  0  0  0  0  0  0  0  0
   -0.6246    0.1153   -3.2493 H   0  0  0  0  0  0  0  0  0  0  0  0
    0.6521   -0.1046   -0.4357 H   0  0  0  0  0  0  0  0  0  0  0  0
   -0.0793    1.3509   -1.1151 H   0  0  0  0  0  0  0  0  0  0  0  0
    0.8004    4.1780   -5.3839 H   0  0  0  0  0  0  0  0  0  0  0  0
    2.2667    3.1501   -5.2062 H   0  0  0  0  0  0  0  0  0  0  0  0
    3.6950    3.8320   -3.4215 H   0  0  0  0  0  0  0  0  0  0  0  0
    5.6085    4.1159   -2.2123 H   0  0  0  0  0  0  0  0  0  0  0  0
    7.2424    5.5877   -1.0931 H   0  0  0  0  0  0  0  0  0  0  0  0
    7.6638   10.7222   -0.5101 H   0  0  0  0  0  0  0  0  0  0  0  0
    5.9308   10.2839   -0.5634 H   0  0  0  0  0  0  0  0  0  0  0  0
    6.8911   10.3740   -2.0848 H   0  0  0  0  0  0  0  0  0  0  0  0
    4.9393    9.0360   -2.3219 H   0  0  0  0  0  0  0  0  0  0  0  0
    3.3182    7.5548   -3.4358 H   0  0  0  0  0  0  0  0  0  0  0  0
    5.2118    0.1818   -0.2108 H   0  0  0  0  0  0  0  0  0  0  0  0
    5.9320   -1.6645    1.3087 H   0  0  0  0  0  0  0  0  0  0  0  0
    4.5067   -3.6815    1.5853 H   0  0  0  0  0  0  0  0  0  0  0  0
    2.5880   -4.9925    0.9879 H   0  0  0  0  0  0  0  0  0  0  0  0
    1.8866   -4.6790   -0.6169 H   0  0  0  0  0  0  0  0  0  0  0  0
    1.1366   -3.9785    0.8288 H   0  0  0  0  0  0  0  0  0  0  0  0
    1.6694   -2.0669   -1.2071 H   0  0  0  0  0  0  0  0  0  0  0  0
  1  2  1  0
  1 28  1  0
  1 29  1  0
  1 30  1  0
  2  3  1  0
  2 31  1  0
  2 32  1  0
  3  4  1  0
  3 20  1  0
  4  5  1  0
  4 18  2  0
  5  6  1  0
  6  7  1  0
  6 33  1  0
  6 34  1  0
  7  8  2  0
  7  9  1  0
  9 10  1  0
  9 35  1  0
 10 11  2  0
 10 17  1  0
 11 12  1  0
 11 36  1  0
 12 13  2  0
 12 37  1  0
 13 14  1  0
 13 16  1  0
 14 15  1  0
 15 38  1  0
 15 39  1  0
 15 40  1  0
 16 17  2  0
 16 41  1  0
 17 42  1  0
 18 19  1  0
 19 20  2  0
 20 21  1  0
 21 22  2  0
 21 27  1  0
 22 23  1  0
 22 43  1  0
 23 24  2  0
 23 44  1  0
 24 25  1  0
 24 45  1  0
 25 26  1  0
 25 27  2  0
 26 46  1  0
 26 47  1  0
 26 48  1  0
 27 49  1  0
M  END

