
     RDKit          3D

 48 50  0  0  0  0  0  0  0  0999 V2000
    1.7204   -2.1196    0.3698 O   0  0  0  0  0  0  0  0  0  0  0  0
    2.2000   -0.7310    0.3119 S   0  0  1  0  0  0  0  0  0  0  0  0
    1.2588    0.3755    0.1068 O   0  0  0  0  0  0  0  0  0  0  0  0
    3.0960   -0.4340    1.8212 C   0  0  0  0  0  0  0  0  0  0  0  0
    3.5465    0.8550    2.1460 C   0  0  0  0  0  0  0  0  0  0  0  0
    4.2030    1.0594    3.3455 C   0  0  0  0  0  0  0  0  0  0  0  0
    4.4149   -0.0519    4.2163 C   0  0  0  0  0  0  0  0  0  0  0  0
    5.0873    0.0469    5.4171 N   0  0  0  0  0  0  0  0  0  0  0  0
    4.9896   -1.0731    6.3631 C   0  0  0  0  0  0  0  0  0  0  0  0
    6.0215   -2.1815    6.1369 C   0  0  0  0  0  0  0  0  0  0  0  0
    7.3606   -1.7453    6.2627 O   0  0  0  0  0  0  0  0  0  0  0  0
    5.6314    1.3154    5.8783 C   0  0  1  0  0  0  0  0  0  0  0  0
    4.8741    2.1854    6.9225 C   0  0  0  0  0  0  0  0  0  0  0  0
    6.2532    2.5974    7.4985 C   0  0  0  0  0  0  0  0  0  0  0  0
    6.8852    1.3679    6.7937 C   0  0  0  0  0  0  0  0  0  0  0  0
    3.9421   -1.2723    3.8981 N   0  0  0  0  0  0  0  0  0  0  0  0
    3.3008   -1.4566    2.7479 C   0  0  0  0  0  0  0  0  0  0  0  0
    3.3927   -0.5568   -0.8763 N   0  0  0  0  0  0  0  0  0  0  0  0
    4.2825   -1.7075   -1.0879 C   0  0  0  0  0  0  0  0  0  0  0  0
    3.7503   -2.6798   -2.1480 C   0  0  0  0  0  0  0  0  0  0  0  0
    3.4084   -1.9425   -3.4501 C   0  0  0  0  0  0  0  0  0  0  0  0
    2.4652   -0.7610   -3.1852 C   0  0  0  0  0  0  0  0  0  0  0  0
    3.0348    0.1664   -2.1058 C   0  0  0  0  0  0  0  0  0  0  0  0
    3.3583    1.6900    1.4676 H   0  0  0  0  0  0  0  0  0  0  0  0
    4.5157    2.0664    3.6140 H   0  0  0  0  0  0  0  0  0  0  0  0
    3.9849   -1.5154    6.2930 H   0  0  0  0  0  0  0  0  0  0  0  0
    5.1093   -0.6688    7.3785 H   0  0  0  0  0  0  0  0  0  0  0  0
    5.8325   -2.6512    5.1556 H   0  0  0  0  0  0  0  0  0  0  0  0
    5.8692   -2.9549    6.9081 H   0  0  0  0  0  0  0  0  0  0  0  0
    7.5518   -1.1680    5.5119 H   0  0  0  0  0  0  0  0  0  0  0  0
    5.8474    1.9259    4.9928 H   0  0  0  0  0  0  0  0  0  0  0  0
    4.3092    1.5596    7.6308 H   0  0  0  0  0  0  0  0  0  0  0  0
    4.2040    2.9712    6.5405 H   0  0  0  0  0  0  0  0  0  0  0  0
    6.3452    2.6449    8.5932 H   0  0  0  0  0  0  0  0  0  0  0  0
    6.6114    3.5502    7.0787 H   0  0  0  0  0  0  0  0  0  0  0  0
    6.9662    0.4972    7.4565 H   0  0  0  0  0  0  0  0  0  0  0  0
    7.8569    1.5007    6.2919 H   0  0  0  0  0  0  0  0  0  0  0  0
    2.9199   -2.4617    2.5397 H   0  0  0  0  0  0  0  0  0  0  0  0
    4.4439   -2.2179   -0.1269 H   0  0  0  0  0  0  0  0  0  0  0  0
    5.2624   -1.3014   -1.4002 H   0  0  0  0  0  0  0  0  0  0  0  0
    2.8495   -3.1704   -1.7450 H   0  0  0  0  0  0  0  0  0  0  0  0
    4.5004   -3.4679   -2.3311 H   0  0  0  0  0  0  0  0  0  0  0  0
    2.9598   -2.6387   -4.1776 H   0  0  0  0  0  0  0  0  0  0  0  0
    4.3398   -1.5656   -3.9143 H   0  0  0  0  0  0  0  0  0  0  0  0
    1.4814   -1.1321   -2.8488 H   0  0  0  0  0  0  0  0  0  0  0  0
    2.2911   -0.1847   -4.1098 H   0  0  0  0  0  0  0  0  0  0  0  0
    2.3272    0.9631   -1.8446 H   0  0  0  0  0  0  0  0  0  0  0  0
    3.9613    0.6474   -2.4709 H   0  0  0  0  0  0  0  0  0  0  0  0
  1  2  2  0
  2  3  2  0
  2  4  1  1
  2 18  1  0
  4  5  2  0
  4 17  1  0
  5  6  1  0
  5 24  1  0
  6  7  2  0
  6 25  1  0
  7  8  1  0
  7 16  1  0
  8  9  1  0
  8 12  1  0
  9 10  1  0
  9 26  1  0
  9 27  1  0
 10 11  1  0
 10 28  1  0
 10 29  1  0
 11 30  1  0
 12 13  1  0
 12 15  1  0
 12 31  1  6
 13 14  1  0
 13 32  1  0
 13 33  1  0
 14 15  1  0
 14 34  1  0
 14 35  1  0
 15 36  1  0
 15 37  1  0
 16 17  2  0
 17 38  1  0
 18 19  1  0
 18 23  1  0
 19 20  1  0
 19 39  1  0
 19 40  1  0
 20 21  1  0
 20 41  1  0
 20 42  1  0
 21 22  1  0
 21 43  1  0
 21 44  1  0
 22 23  1  0
 22 45  1  0
 22 46  1  0
 23 47  1  0
 23 48  1  0
M  END

