
     RDKit          3D

 34 36  0  0  0  0  0  0  0  0999 V2000
    0.8419    0.1377    0.6690 C   0  0  0  0  0  0  0  0  0  0  0  0
    2.3154   -0.1134    0.3996 C   0  0  1  0  0  0  0  0  0  0  0  0
    3.0544   -0.7550    1.5605 C   0  0  0  0  0  0  0  0  0  0  0  0
    2.7730   -0.5200   -1.0049 C   0  0  1  0  0  0  0  0  0  0  0  0
    1.8067   -0.6897   -2.1378 C   0  0  0  0  0  0  0  0  0  0  0  0
    0.9668    0.1147   -2.4526 O   0  0  0  0  0  0  0  0  0  0  0  0
    1.9216   -1.8523   -2.8189 O   0  0  0  0  0  0  0  0  0  0  0  0
    3.0388    0.8824   -0.4958 C   0  0  2  0  0  0  0  0  0  0  0  0
    4.4365    1.3073   -0.2782 C   0  0  0  0  0  0  0  0  0  0  0  0
    5.4825    0.5141   -0.1907 N   0  0  0  0  0  0  0  0  0  0  0  0
    6.5887    1.2808    0.0564 N   0  0  0  0  0  0  0  0  0  0  0  0
    6.1956    2.5236    0.1151 C   0  0  0  0  0  0  0  0  0  0  0  0
    4.8366    2.6172   -0.0912 N   0  0  0  0  0  0  0  0  0  0  0  0
    4.0576    3.8141   -0.0990 C   0  0  0  0  0  0  0  0  0  0  0  0
    3.9911    4.6018    1.0576 C   0  0  0  0  0  0  0  0  0  0  0  0
    3.2485    5.7850    1.0475 C   0  0  0  0  0  0  0  0  0  0  0  0
    2.5625    6.1756   -0.1065 C   0  0  0  0  0  0  0  0  0  0  0  0
    2.6286    5.3844   -1.2577 C   0  0  0  0  0  0  0  0  0  0  0  0
    3.3820    4.2082   -1.2616 C   0  0  0  0  0  0  0  0  0  0  0  0
    0.3336   -0.8046    0.9340 H   0  0  0  0  0  0  0  0  0  0  0  0
    0.3281    0.5683   -0.2000 H   0  0  0  0  0  0  0  0  0  0  0  0
    0.7306    0.8262    1.5228 H   0  0  0  0  0  0  0  0  0  0  0  0
    2.6144   -1.7391    1.7919 H   0  0  0  0  0  0  0  0  0  0  0  0
    2.9595   -0.1296    2.4641 H   0  0  0  0  0  0  0  0  0  0  0  0
    4.1238   -0.8885    1.3480 H   0  0  0  0  0  0  0  0  0  0  0  0
    3.6579   -1.1645   -1.0213 H   0  0  0  0  0  0  0  0  0  0  0  0
    2.6410   -2.3861   -2.4527 H   0  0  0  0  0  0  0  0  0  0  0  0
    2.3839    1.6382   -0.9360 H   0  0  0  0  0  0  0  0  0  0  0  0
    6.8280    3.3953    0.2770 H   0  0  0  0  0  0  0  0  0  0  0  0
    4.5149    4.2785    1.9597 H   0  0  0  0  0  0  0  0  0  0  0  0
    3.1994    6.3991    1.9499 H   0  0  0  0  0  0  0  0  0  0  0  0
    1.9766    7.0977   -0.1094 H   0  0  0  0  0  0  0  0  0  0  0  0
    2.0989    5.6874   -2.1639 H   0  0  0  0  0  0  0  0  0  0  0  0
    3.4568    3.5991   -2.1648 H   0  0  0  0  0  0  0  0  0  0  0  0
  2  1  1  1
  1 20  1  0
  1 21  1  0
  1 22  1  0
  2  3  1  0
  2  4  1  0
  2  8  1  0
  3 23  1  0
  3 24  1  0
  3 25  1  0
  4  5  1  0
  4  8  1  0
  4 26  1  1
  5  6  2  0
  5  7  1  0
  7 27  1  0
  8  9  1  0
  8 28  1  6
  9 10  2  0
  9 13  1  0
 10 11  1  0
 11 12  2  0
 12 13  1  0
 12 29  1  0
 13 14  1  0
 14 15  2  0
 14 19  1  0
 15 16  1  0
 15 30  1  0
 16 17  2  0
 16 31  1  0
 17 18  1  0
 17 32  1  0
 18 19  2  0
 18 33  1  0
 19 34  1  0
M  END

