
     RDKit          3D

 57 59  0  0  0  0  0  0  0  0999 V2000
    6.3124    2.5497   -2.4804 C   0  0  0  0  0  0  0  0  0  0  0  0
    5.6269    1.2088   -2.7834 C   0  0  1  0  0  0  0  0  0  0  0  0
    5.8036    0.7467   -4.2445 C   0  0  0  0  0  0  0  0  0  0  0  0
    7.2147    0.2208   -4.5378 C   0  0  0  0  0  0  0  0  0  0  0  0
    7.5946   -0.8886   -3.5509 C   0  0  0  0  0  0  0  0  0  0  0  0
    7.4277   -0.4233   -2.1008 C   0  0  0  0  0  0  0  0  0  0  0  0
    6.0844    0.1220   -1.8946 N   0  0  0  0  0  0  0  0  0  0  0  0
    5.1446   -0.4036   -0.6198 S   0  0  1  0  0  0  0  0  0  0  0  0
    3.7549   -0.0799   -0.9528 O   0  0  0  0  0  0  0  0  0  0  0  0
    5.5692   -1.7719   -0.3113 O   0  0  0  0  0  0  0  0  0  0  0  0
    5.5832    0.6032    0.8123 C   0  0  0  0  0  0  0  0  0  0  0  0
    4.8668    1.7759    1.0782 C   0  0  0  0  0  0  0  0  0  0  0  0
    5.2277    2.5606    2.1722 C   0  0  0  0  0  0  0  0  0  0  0  0
    6.3011    2.1896    2.9968 C   0  0  0  0  0  0  0  0  0  0  0  0
    6.6190    3.0898    4.1674 C   0  0  0  0  0  0  0  0  0  0  0  0
    5.7920    3.8789    4.6021 O   0  0  0  0  0  0  0  0  0  0  0  0
    7.8779    2.9724    4.6806 N   0  0  0  0  0  0  0  0  0  0  0  0
    8.3138    3.6841    5.8605 C   0  0  0  0  0  0  0  0  0  0  0  0
    8.4445    2.7854    7.0978 C   0  0  0  0  0  0  0  0  0  0  0  0
    9.4760    1.2859    6.8683 S   0  0  0  0  0  0  0  0  0  0  0  0
   11.1708    2.0201    6.7228 C   0  0  0  0  0  0  0  0  0  0  0  0
   12.0137    1.2255    5.7641 C   0  0  0  0  0  0  0  0  0  0  0  0
   12.9988    0.3252    6.1961 C   0  0  0  0  0  0  0  0  0  0  0  0
   13.7579   -0.4157    5.2851 C   0  0  0  0  0  0  0  0  0  0  0  0
   13.5405   -0.2689    3.9127 C   0  0  0  0  0  0  0  0  0  0  0  0
   12.5630    0.6188    3.4514 C   0  0  0  0  0  0  0  0  0  0  0  0
   11.8235    1.3401    4.3804 C   0  0  0  0  0  0  0  0  0  0  0  0
   10.8800    2.1984    3.9289 F   0  0  0  0  0  0  0  0  0  0  0  0
    6.9846    0.9912    2.7352 C   0  0  0  0  0  0  0  0  0  0  0  0
    6.6267    0.1927    1.6471 C   0  0  0  0  0  0  0  0  0  0  0  0
    5.9004    3.3400   -3.1279 H   0  0  0  0  0  0  0  0  0  0  0  0
    7.4000    2.5165   -2.6496 H   0  0  0  0  0  0  0  0  0  0  0  0
    6.1448    2.8479   -1.4346 H   0  0  0  0  0  0  0  0  0  0  0  0
    4.5505    1.3196   -2.5975 H   0  0  0  0  0  0  0  0  0  0  0  0
    5.5487    1.5796   -4.9207 H   0  0  0  0  0  0  0  0  0  0  0  0
    5.0732   -0.0578   -4.4348 H   0  0  0  0  0  0  0  0  0  0  0  0
    7.9496    1.0432   -4.4704 H   0  0  0  0  0  0  0  0  0  0  0  0
    7.2686   -0.1524   -5.5737 H   0  0  0  0  0  0  0  0  0  0  0  0
    8.6349   -1.2188   -3.7101 H   0  0  0  0  0  0  0  0  0  0  0  0
    6.9451   -1.7665   -3.7104 H   0  0  0  0  0  0  0  0  0  0  0  0
    8.1931    0.3389   -1.8556 H   0  0  0  0  0  0  0  0  0  0  0  0
    7.5640   -1.2673   -1.4134 H   0  0  0  0  0  0  0  0  0  0  0  0
    4.0220    2.0490    0.4436 H   0  0  0  0  0  0  0  0  0  0  0  0
    4.6785    3.4709    2.4200 H   0  0  0  0  0  0  0  0  0  0  0  0
    8.5425    2.3359    4.2578 H   0  0  0  0  0  0  0  0  0  0  0  0
    7.5686    4.4681    6.0624 H   0  0  0  0  0  0  0  0  0  0  0  0
    9.2728    4.1873    5.6494 H   0  0  0  0  0  0  0  0  0  0  0  0
    7.4573    2.3841    7.3756 H   0  0  0  0  0  0  0  0  0  0  0  0
    8.8162    3.3660    7.9578 H   0  0  0  0  0  0  0  0  0  0  0  0
   11.6417    2.0461    7.7162 H   0  0  0  0  0  0  0  0  0  0  0  0
   11.0601    3.0545    6.3674 H   0  0  0  0  0  0  0  0  0  0  0  0
   13.1697    0.2088    7.2698 H   0  0  0  0  0  0  0  0  0  0  0  0
   14.5197   -1.1087    5.6490 H   0  0  0  0  0  0  0  0  0  0  0  0
   14.1304   -0.8439    3.1951 H   0  0  0  0  0  0  0  0  0  0  0  0
   12.3668    0.7617    2.3871 H   0  0  0  0  0  0  0  0  0  0  0  0
    7.7778    0.6461    3.4030 H   0  0  0  0  0  0  0  0  0  0  0  0
    7.1295   -0.7575    1.4608 H   0  0  0  0  0  0  0  0  0  0  0  0
  1  2  1  0
  1 31  1  0
  1 32  1  0
  1 33  1  0
  2  3  1  0
  2  7  1  0
  2 34  1  1
  3  4  1  0
  3 35  1  0
  3 36  1  0
  4  5  1  0
  4 37  1  0
  4 38  1  0
  5  6  1  0
  5 39  1  0
  5 40  1  0
  6  7  1  0
  6 41  1  0
  6 42  1  0
  7  8  1  0
  8  9  2  0
  8 10  2  0
  8 11  1  1
 11 12  2  0
 11 30  1  0
 12 13  1  0
 12 43  1  0
 13 14  2  0
 13 44  1  0
 14 15  1  0
 14 29  1  0
 15 16  2  0
 15 17  1  0
 17 18  1  0
 17 45  1  0
 18 19  1  0
 18 46  1  0
 18 47  1  0
 19 20  1  0
 19 48  1  0
 19 49  1  0
 20 21  1  0
 21 22  1  0
 21 50  1  0
 21 51  1  0
 22 23  2  0
 22 27  1  0
 23 24  1  0
 23 52  1  0
 24 25  2  0
 24 53  1  0
 25 26  1  0
 25 54  1  0
 26 27  2  0
 26 55  1  0
 27 28  1  0
 29 30  2  0
 29 56  1  0
 30 57  1  0
M  END

