
     RDKit          3D

 32 33  0  0  0  0  0  0  0  0999 V2000
    1.3776   -1.3023    0.8936 N   0  0  0  0  0  0  0  0  0  0  0  0
    1.7158   -0.5772   -0.2412 N   0  0  0  0  0  0  0  0  0  0  0  0
    2.4787   -1.0523   -1.2678 C   0  0  0  0  0  0  0  0  0  0  0  0
    2.6922   -0.1987   -2.2855 N   0  0  0  0  0  0  0  0  0  0  0  0
    3.4412   -0.6715   -3.2808 C   0  0  0  0  0  0  0  0  0  0  0  0
    3.9740   -1.9530   -3.2832 C   0  0  0  0  0  0  0  0  0  0  0  0
    4.9581   -2.5400   -4.6110 Cl  0  0  0  0  0  0  0  0  0  0  0  0
    3.6904   -2.7837   -2.1626 C   0  0  0  0  0  0  0  0  0  0  0  0
    4.1831   -4.0441   -2.0752 N   0  0  0  0  0  0  0  0  0  0  0  0
    3.8850   -4.9697   -0.9978 C   0  0  0  0  0  0  0  0  0  0  0  0
    2.6284   -5.8203   -1.2316 C   0  0  0  0  0  0  0  0  0  0  0  0
    2.3624   -6.8139   -0.1077 C   0  0  1  0  0  0  0  0  0  0  0  0
    1.1768   -7.8081   -0.2453 C   0  0  0  0  0  0  0  0  0  0  0  0
    2.0615   -8.9043    0.4016 C   0  0  0  0  0  0  0  0  0  0  0  0
    3.3059   -8.0378    0.0808 C   0  0  0  0  0  0  0  0  0  0  0  0
    2.9325   -2.3098   -1.1648 N   0  0  0  0  0  0  0  0  0  0  0  0
    2.2347   -1.6063    1.3623 H   0  0  0  0  0  0  0  0  0  0  0  0
    0.9038   -2.1633    0.6096 H   0  0  0  0  0  0  0  0  0  0  0  0
    1.3647    0.3694   -0.3204 H   0  0  0  0  0  0  0  0  0  0  0  0
    3.6364   -0.0050   -4.1289 H   0  0  0  0  0  0  0  0  0  0  0  0
    4.6997   -4.3767   -2.8805 H   0  0  0  0  0  0  0  0  0  0  0  0
    3.7659   -4.3831   -0.0752 H   0  0  0  0  0  0  0  0  0  0  0  0
    4.7629   -5.6231   -0.8609 H   0  0  0  0  0  0  0  0  0  0  0  0
    2.7289   -6.3649   -2.1887 H   0  0  0  0  0  0  0  0  0  0  0  0
    1.7633   -5.1440   -1.3435 H   0  0  0  0  0  0  0  0  0  0  0  0
    2.2749   -6.2683    0.8493 H   0  0  0  0  0  0  0  0  0  0  0  0
    0.9619   -8.0283   -1.3041 H   0  0  0  0  0  0  0  0  0  0  0  0
    0.2295   -7.5471    0.2524 H   0  0  0  0  0  0  0  0  0  0  0  0
    2.0193   -9.9156   -0.0311 H   0  0  0  0  0  0  0  0  0  0  0  0
    1.8873   -8.9855    1.4861 H   0  0  0  0  0  0  0  0  0  0  0  0
    3.7720   -8.3332   -0.8745 H   0  0  0  0  0  0  0  0  0  0  0  0
    4.0963   -7.9698    0.8449 H   0  0  0  0  0  0  0  0  0  0  0  0
  1  2  1  0
  1 17  1  0
  1 18  1  0
  2  3  1  0
  2 19  1  0
  3  4  2  0
  3 16  1  0
  4  5  1  0
  5  6  2  0
  5 20  1  0
  6  7  1  0
  6  8  1  0
  8  9  1  0
  8 16  2  0
  9 10  1  0
  9 21  1  0
 10 11  1  0
 10 22  1  0
 10 23  1  0
 11 12  1  0
 11 24  1  0
 11 25  1  0
 12 13  1  0
 12 15  1  0
 12 26  1  1
 13 14  1  0
 13 27  1  0
 13 28  1  0
 14 15  1  0
 14 29  1  0
 14 30  1  0
 15 31  1  0
 15 32  1  0
M  END

