
     RDKit          3D

 34 35  0  0  0  0  0  0  0  0999 V2000
    1.1419   -0.1419    0.1603 C   0  0  0  0  0  0  0  0  0  0  0  0
    2.6390    0.0170   -0.0194 C   0  0  0  0  0  0  0  0  0  0  0  0
    3.1666   -1.2305   -0.4547 O   0  0  0  0  0  0  0  0  0  0  0  0
    4.4919   -1.3678   -0.6873 C   0  0  0  0  0  0  0  0  0  0  0  0
    5.4316   -0.3365   -0.5343 C   0  0  0  0  0  0  0  0  0  0  0  0
    6.7790   -0.5744   -0.7988 C   0  0  0  0  0  0  0  0  0  0  0  0
    7.2223   -1.8375   -1.2200 C   0  0  0  0  0  0  0  0  0  0  0  0
    8.6609   -2.0552   -1.4920 C   0  0  0  0  0  0  0  0  0  0  0  0
    9.1828   -3.2938   -1.9209 C   0  0  0  0  0  0  0  0  0  0  0  0
   10.5589   -3.3563   -2.1382 C   0  0  0  0  0  0  0  0  0  0  0  0
   11.1624   -4.5982   -2.5785 C   0  0  0  0  0  0  0  0  0  0  0  0
   11.6196   -5.6039   -2.9306 N   0  0  0  0  0  0  0  0  0  0  0  0
   11.3787   -2.3113   -1.9595 N   0  0  0  0  0  0  0  0  0  0  0  0
   10.8005   -1.1754   -1.5526 C   0  0  0  0  0  0  0  0  0  0  0  0
   11.6856    0.0220   -1.3409 C   0  0  0  0  0  0  0  0  0  0  0  0
    9.4934   -1.0170   -1.3175 N   0  0  0  0  0  0  0  0  0  0  0  0
    6.2602   -2.8593   -1.3669 C   0  0  0  0  0  0  0  0  0  0  0  0
    4.9070   -2.6554   -1.1111 C   0  0  0  0  0  0  0  0  0  0  0  0
    3.8855   -3.7500   -1.2702 C   0  0  0  0  0  0  0  0  0  0  0  0
    0.6978    0.8081    0.4950 H   0  0  0  0  0  0  0  0  0  0  0  0
    0.9188   -0.9145    0.9118 H   0  0  0  0  0  0  0  0  0  0  0  0
    0.6646   -0.4344   -0.7874 H   0  0  0  0  0  0  0  0  0  0  0  0
    3.1206    0.3152    0.9301 H   0  0  0  0  0  0  0  0  0  0  0  0
    2.8650    0.7996   -0.7672 H   0  0  0  0  0  0  0  0  0  0  0  0
    5.1214    0.6563   -0.2091 H   0  0  0  0  0  0  0  0  0  0  0  0
    7.5140    0.2224   -0.6821 H   0  0  0  0  0  0  0  0  0  0  0  0
    8.5614   -4.1728   -2.0818 H   0  0  0  0  0  0  0  0  0  0  0  0
   12.7292   -0.2270   -1.5684 H   0  0  0  0  0  0  0  0  0  0  0  0
   11.6067    0.3703   -0.2988 H   0  0  0  0  0  0  0  0  0  0  0  0
   11.3546    0.8544   -1.9818 H   0  0  0  0  0  0  0  0  0  0  0  0
    6.5630   -3.8568   -1.6920 H   0  0  0  0  0  0  0  0  0  0  0  0
    4.3553   -4.6873   -1.6009 H   0  0  0  0  0  0  0  0  0  0  0  0
    3.1125   -3.4696   -2.0043 H   0  0  0  0  0  0  0  0  0  0  0  0
    3.3556   -3.9409   -0.3227 H   0  0  0  0  0  0  0  0  0  0  0  0
  1  2  1  0
  1 20  1  0
  1 21  1  0
  1 22  1  0
  2  3  1  0
  2 23  1  0
  2 24  1  0
  3  4  1  0
  4  5  2  0
  4 18  1  0
  5  6  1  0
  5 25  1  0
  6  7  2  0
  6 26  1  0
  7  8  1  0
  7 17  1  0
  8  9  2  0
  8 16  1  0
  9 10  1  0
  9 27  1  0
 10 11  1  0
 10 13  2  0
 11 12  3  0
 13 14  1  0
 14 15  1  0
 14 16  2  0
 15 28  1  0
 15 29  1  0
 15 30  1  0
 17 18  2  0
 17 31  1  0
 18 19  1  0
 19 32  1  0
 19 33  1  0
 19 34  1  0
M  END

