
     RDKit          3D

 46 48  0  0  0  0  0  0  0  0999 V2000
    8.9480   -3.6820    5.5637 C   0  0  0  0  0  0  0  0  0  0  0  0
    7.7073   -4.3794    4.9892 C   0  0  1  0  0  0  0  0  0  0  0  0
    7.1792   -5.4405    5.9629 C   0  0  0  0  0  0  0  0  0  0  0  0
    6.5872   -3.3912    4.6156 C   0  0  0  0  0  0  0  0  0  0  0  0
    6.9312   -2.3509    3.5394 C   0  0  0  0  0  0  0  0  0  0  0  0
    7.3599   -2.9291    2.2730 N   0  0  0  0  0  0  0  0  0  0  0  0
    6.4748   -3.3408    1.3303 C   0  0  0  0  0  0  0  0  0  0  0  0
    5.2662   -3.2097    1.4117 O   0  0  0  0  0  0  0  0  0  0  0  0
    7.0771   -3.9862    0.0778 C   0  0  0  0  0  0  0  0  0  0  0  0
    8.4958   -4.1707    0.1297 O   0  0  0  0  0  0  0  0  0  0  0  0
    8.9536   -5.3714    0.5707 C   0  0  0  0  0  0  0  0  0  0  0  0
    8.2389   -6.2679    0.9522 O   0  0  0  0  0  0  0  0  0  0  0  0
   10.4225   -5.4277    0.5337 C   0  0  0  0  0  0  0  0  0  0  0  0
   11.3343   -4.4886    0.0827 C   0  0  0  0  0  0  0  0  0  0  0  0
   12.6725   -4.9218    0.2085 C   0  0  0  0  0  0  0  0  0  0  0  0
   12.7749   -6.1938    0.7555 C   0  0  0  0  0  0  0  0  0  0  0  0
   14.0184   -6.9068    1.0080 C   0  0  0  0  0  0  0  0  0  0  0  0
   15.1888   -6.4067    0.7460 N   0  0  0  0  0  0  0  0  0  0  0  0
   16.2014   -7.2765    1.0745 C   0  0  0  0  0  0  0  0  0  0  0  0
   17.5775   -7.0286    0.9113 C   0  0  0  0  0  0  0  0  0  0  0  0
   18.4900   -8.0064    1.2903 C   0  0  0  0  0  0  0  0  0  0  0  0
   18.0548   -9.2327    1.8316 C   0  0  0  0  0  0  0  0  0  0  0  0
   16.6978   -9.5027    2.0034 C   0  0  0  0  0  0  0  0  0  0  0  0
   15.7779   -8.5192    1.6224 C   0  0  0  0  0  0  0  0  0  0  0  0
   14.0330   -8.5459    1.7061 S   0  0  0  0  0  0  0  0  0  0  0  0
   11.2111   -6.8621    1.1158 S   0  0  0  0  0  0  0  0  0  0  0  0
    9.7279   -4.4148    5.8269 H   0  0  0  0  0  0  0  0  0  0  0  0
    8.6976   -3.1207    6.4809 H   0  0  0  0  0  0  0  0  0  0  0  0
    9.3994   -2.9694    4.8542 H   0  0  0  0  0  0  0  0  0  0  0  0
    8.0073   -4.9038    4.0629 H   0  0  0  0  0  0  0  0  0  0  0  0
    6.8576   -4.9807    6.9136 H   0  0  0  0  0  0  0  0  0  0  0  0
    7.9533   -6.1882    6.2000 H   0  0  0  0  0  0  0  0  0  0  0  0
    6.3130   -5.9758    5.5420 H   0  0  0  0  0  0  0  0  0  0  0  0
    6.2628   -2.8457    5.5214 H   0  0  0  0  0  0  0  0  0  0  0  0
    5.7087   -3.9584    4.2654 H   0  0  0  0  0  0  0  0  0  0  0  0
    7.7247   -1.6695    3.8842 H   0  0  0  0  0  0  0  0  0  0  0  0
    6.0383   -1.7407    3.3365 H   0  0  0  0  0  0  0  0  0  0  0  0
    8.3458   -3.0760    2.0964 H   0  0  0  0  0  0  0  0  0  0  0  0
    6.8785   -3.3279   -0.7799 H   0  0  0  0  0  0  0  0  0  0  0  0
    6.5682   -4.9475   -0.0746 H   0  0  0  0  0  0  0  0  0  0  0  0
   11.0280   -3.5263   -0.3272 H   0  0  0  0  0  0  0  0  0  0  0  0
   13.5527   -4.3494   -0.0825 H   0  0  0  0  0  0  0  0  0  0  0  0
   17.8984   -6.0738    0.4905 H   0  0  0  0  0  0  0  0  0  0  0  0
   19.5603   -7.8242    1.1678 H   0  0  0  0  0  0  0  0  0  0  0  0
   18.7913   -9.9858    2.1219 H   0  0  0  0  0  0  0  0  0  0  0  0
   16.3661  -10.4546    2.4231 H   0  0  0  0  0  0  0  0  0  0  0  0
  1  2  1  0
  1 27  1  0
  1 28  1  0
  1 29  1  0
  2  3  1  0
  2  4  1  0
  2 30  1  6
  3 31  1  0
  3 32  1  0
  3 33  1  0
  4  5  1  0
  4 34  1  0
  4 35  1  0
  5  6  1  0
  5 36  1  0
  5 37  1  0
  6  7  1  0
  6 38  1  0
  7  8  2  0
  7  9  1  0
  9 10  1  0
  9 39  1  0
  9 40  1  0
 10 11  1  0
 11 12  2  0
 11 13  1  0
 13 14  2  0
 13 26  1  0
 14 15  1  0
 14 41  1  0
 15 16  2  0
 15 42  1  0
 16 17  1  0
 16 26  1  0
 17 18  2  0
 17 25  1  0
 18 19  1  0
 19 20  2  0
 19 24  1  0
 20 21  1  0
 20 43  1  0
 21 22  2  0
 21 44  1  0
 22 23  1  0
 22 45  1  0
 23 24  2  0
 23 46  1  0
 24 25  1  0
M  END

