
     RDKit          3D

 48 51  0  0  0  0  0  0  0  0999 V2000
    1.4638    0.1117   -0.0760 C   0  0  0  0  0  0  0  0  0  0  0  0
    2.9494    0.1056   -0.2510 C   0  0  0  0  0  0  0  0  0  0  0  0
    3.5831   -0.9870   -0.5581 N   0  0  0  0  0  0  0  0  0  0  0  0
    4.9292   -0.6897   -0.6530 N   0  0  0  0  0  0  0  0  0  0  0  0
    5.8332   -1.7253   -0.9839 C   0  0  0  0  0  0  0  0  0  0  0  0
    7.2169   -1.4894   -1.0942 C   0  0  0  0  0  0  0  0  0  0  0  0
    8.0738   -2.5427   -1.4226 C   0  0  0  0  0  0  0  0  0  0  0  0
    7.5836   -3.8319   -1.6450 C   0  0  0  0  0  0  0  0  0  0  0  0
    6.2085   -4.0607   -1.5341 C   0  0  0  0  0  0  0  0  0  0  0  0
    5.3356   -3.0234   -1.2074 C   0  0  0  0  0  0  0  0  0  0  0  0
    5.1997    0.6674   -0.3961 C   0  0  0  0  0  0  0  0  0  0  0  0
    6.3051    1.1907   -0.4223 O   0  0  0  0  0  0  0  0  0  0  0  0
    3.8548    1.2340   -0.1139 C   0  0  0  0  0  0  0  0  0  0  0  0
    3.4602    2.5165    0.2066 C   0  0  0  0  0  0  0  0  0  0  0  0
    4.1703    3.7149    0.3954 C   0  0  0  0  0  0  0  0  0  0  0  0
    3.7239    4.9999    0.7074 C   0  0  0  0  0  0  0  0  0  0  0  0
    4.8453    5.8433    0.7872 C   0  0  0  0  0  0  0  0  0  0  0  0
    5.9502    5.0210    0.5092 C   0  0  0  0  0  0  0  0  0  0  0  0
    7.2760    5.2550    0.4132 N   0  0  0  0  0  0  0  0  0  0  0  0
    8.2376    4.1467    0.3151 C   0  0  0  0  0  0  0  0  0  0  0  0
    9.3731    4.5347   -0.6419 C   0  0  0  0  0  0  0  0  0  0  0  0
    9.9949    5.8147   -0.3225 N   0  0  0  0  0  0  0  0  0  0  0  0
   10.9501    5.7912    0.7702 C   0  0  0  0  0  0  0  0  0  0  0  0
    8.9970    6.8690   -0.2612 C   0  0  0  0  0  0  0  0  0  0  0  0
    7.8334    6.5715    0.7038 C   0  0  0  0  0  0  0  0  0  0  0  0
    5.5459    3.7666    0.2858 O   0  0  0  0  0  0  0  0  0  0  0  0
    1.0720   -0.9009   -0.2427 H   0  0  0  0  0  0  0  0  0  0  0  0
    0.9748    0.7967   -0.7893 H   0  0  0  0  0  0  0  0  0  0  0  0
    1.1766    0.4346    0.9390 H   0  0  0  0  0  0  0  0  0  0  0  0
    7.6017   -0.4876   -0.9227 H   0  0  0  0  0  0  0  0  0  0  0  0
    9.1461   -2.3442   -1.5049 H   0  0  0  0  0  0  0  0  0  0  0  0
    8.2634   -4.6483   -1.9014 H   0  0  0  0  0  0  0  0  0  0  0  0
    5.8040   -5.0623   -1.7041 H   0  0  0  0  0  0  0  0  0  0  0  0
    4.2645   -3.1968   -1.1198 H   0  0  0  0  0  0  0  0  0  0  0  0
    2.3829    2.6569    0.3478 H   0  0  0  0  0  0  0  0  0  0  0  0
    2.6837    5.2814    0.8637 H   0  0  0  0  0  0  0  0  0  0  0  0
    4.8595    6.9032    1.0217 H   0  0  0  0  0  0  0  0  0  0  0  0
    7.7146    3.2448   -0.0302 H   0  0  0  0  0  0  0  0  0  0  0  0
    8.6405    3.9303    1.3239 H   0  0  0  0  0  0  0  0  0  0  0  0
    8.9636    4.5920   -1.6663 H   0  0  0  0  0  0  0  0  0  0  0  0
   10.1392    3.7434   -0.6410 H   0  0  0  0  0  0  0  0  0  0  0  0
   11.7307    5.0426    0.5598 H   0  0  0  0  0  0  0  0  0  0  0  0
   10.5289    5.5534    1.7722 H   0  0  0  0  0  0  0  0  0  0  0  0
   11.4461    6.7723    0.8481 H   0  0  0  0  0  0  0  0  0  0  0  0
    8.5742    7.0079   -1.2728 H   0  0  0  0  0  0  0  0  0  0  0  0
    9.4777    7.8178    0.0271 H   0  0  0  0  0  0  0  0  0  0  0  0
    7.0515    7.3343    0.5837 H   0  0  0  0  0  0  0  0  0  0  0  0
    8.1773    6.6129    1.7563 H   0  0  0  0  0  0  0  0  0  0  0  0
  1  2  1  0
  1 27  1  0
  1 28  1  0
  1 29  1  0
  2  3  2  0
  2 13  1  0
  3  4  1  0
  4  5  1  0
  4 11  1  0
  5  6  2  0
  5 10  1  0
  6  7  1  0
  6 30  1  0
  7  8  2  0
  7 31  1  0
  8  9  1  0
  8 32  1  0
  9 10  2  0
  9 33  1  0
 10 34  1  0
 11 12  2  0
 11 13  1  0
 13 14  2  0
 14 15  1  0
 14 35  1  0
 15 16  2  0
 15 26  1  0
 16 17  1  0
 16 36  1  0
 17 18  2  0
 17 37  1  0
 18 19  1  0
 18 26  1  0
 19 20  1  0
 19 25  1  0
 20 21  1  0
 20 38  1  0
 20 39  1  0
 21 22  1  0
 21 40  1  0
 21 41  1  0
 22 23  1  0
 22 24  1  0
 23 42  1  0
 23 43  1  0
 23 44  1  0
 24 25  1  0
 24 45  1  0
 24 46  1  0
 25 47  1  0
 25 48  1  0
M  END

