
     RDKit          3D

 36 38  0  0  0  0  0  0  0  0999 V2000
    0.9434    0.5284    0.4034 C   0  0  0  0  0  0  0  0  0  0  0  0
    2.3519    0.3848    0.2639 O   0  0  0  0  0  0  0  0  0  0  0  0
    2.9139   -0.5890    1.0490 C   0  0  0  0  0  0  0  0  0  0  0  0
    3.6004   -0.2011    2.2049 C   0  0  0  0  0  0  0  0  0  0  0  0
    4.1451   -1.1807    3.0311 C   0  0  0  0  0  0  0  0  0  0  0  0
    5.0946   -0.6628    4.6065 Br  0  0  0  0  0  0  0  0  0  0  0  0
    3.9859   -2.5355    2.7354 C   0  0  0  0  0  0  0  0  0  0  0  0
    3.3150   -2.9425    1.5727 C   0  0  0  0  0  0  0  0  0  0  0  0
    3.1747   -4.4275    1.2425 C   0  0  1  0  0  0  0  0  0  0  0  0
    4.1068   -4.8859    0.2079 N   0  0  0  0  0  0  0  0  0  0  0  0
    3.2196   -5.4369    2.4320 C   0  0  0  0  0  0  0  0  0  0  0  0
    2.0779   -6.2357    1.7591 C   0  0  0  0  0  0  0  0  0  0  0  0
    1.7525   -4.9812    0.9161 C   0  0  0  0  0  0  0  0  0  0  0  0
    2.8128   -1.9520    0.7017 C   0  0  0  0  0  0  0  0  0  0  0  0
    2.1841   -2.3621   -0.4488 O   0  0  0  0  0  0  0  0  0  0  0  0
    2.5242   -1.7456   -1.6724 C   0  0  1  0  0  0  0  0  0  0  0  0
    3.8971   -1.9628   -2.2374 C   0  0  0  0  0  0  0  0  0  0  0  0
    2.6961   -2.6639   -2.8400 C   0  0  0  0  0  0  0  0  0  0  0  0
    0.6376    1.3470   -0.2631 H   0  0  0  0  0  0  0  0  0  0  0  0
    0.6716    0.7895    1.4416 H   0  0  0  0  0  0  0  0  0  0  0  0
    0.4088   -0.3942    0.1170 H   0  0  0  0  0  0  0  0  0  0  0  0
    3.6812    0.8615    2.4357 H   0  0  0  0  0  0  0  0  0  0  0  0
    4.3962   -3.2846    3.4132 H   0  0  0  0  0  0  0  0  0  0  0  0
    5.0668   -4.6526    0.4658 H   0  0  0  0  0  0  0  0  0  0  0  0
    3.9115   -4.4148   -0.6743 H   0  0  0  0  0  0  0  0  0  0  0  0
    2.8849   -4.9785    3.3741 H   0  0  0  0  0  0  0  0  0  0  0  0
    4.1809   -5.9469    2.5993 H   0  0  0  0  0  0  0  0  0  0  0  0
    1.2851   -6.6235    2.4163 H   0  0  0  0  0  0  0  0  0  0  0  0
    2.4650   -7.0546    1.1376 H   0  0  0  0  0  0  0  0  0  0  0  0
    0.9664   -4.3627    1.3742 H   0  0  0  0  0  0  0  0  0  0  0  0
    1.5197   -5.1146   -0.1497 H   0  0  0  0  0  0  0  0  0  0  0  0
    2.0524   -0.7731   -1.8331 H   0  0  0  0  0  0  0  0  0  0  0  0
    4.5887   -2.5636   -1.6405 H   0  0  0  0  0  0  0  0  0  0  0  0
    4.3699   -1.1428   -2.7848 H   0  0  0  0  0  0  0  0  0  0  0  0
    2.5822   -3.7346   -2.6490 H   0  0  0  0  0  0  0  0  0  0  0  0
    2.3248   -2.3358   -3.8147 H   0  0  0  0  0  0  0  0  0  0  0  0
  1  2  1  0
  1 19  1  0
  1 20  1  0
  1 21  1  0
  2  3  1  0
  3  4  2  0
  3 14  1  0
  4  5  1  0
  4 22  1  0
  5  6  1  0
  5  7  2  0
  7  8  1  0
  7 23  1  0
  8  9  1  0
  8 14  2  0
  9 10  1  6
  9 11  1  0
  9 13  1  0
 10 24  1  0
 10 25  1  0
 11 12  1  0
 11 26  1  0
 11 27  1  0
 12 13  1  0
 12 28  1  0
 12 29  1  0
 13 30  1  0
 13 31  1  0
 14 15  1  0
 15 16  1  0
 16 17  1  0
 16 18  1  0
 16 32  1  6
 17 18  1  0
 17 33  1  0
 17 34  1  0
 18 35  1  0
 18 36  1  0
M  END

