
     RDKit          3D

 49 50  0  0  0  0  0  0  0  0999 V2000
    2.2935   -2.6185    4.4446 C   0  0  0  0  0  0  0  0  0  0  0  0
    2.1507   -1.2906    3.7406 C   0  0  0  0  0  0  0  0  0  0  0  0
    2.5794   -0.1089    4.3548 C   0  0  0  0  0  0  0  0  0  0  0  0
    2.4640    1.1372    3.7359 C   0  0  0  0  0  0  0  0  0  0  0  0
    1.9002    1.1946    2.4615 C   0  0  0  0  0  0  0  0  0  0  0  0
    1.7411    2.7406    1.6577 Cl  0  0  0  0  0  0  0  0  0  0  0  0
    1.4568    0.0451    1.8064 C   0  0  0  0  0  0  0  0  0  0  0  0
    1.5809   -1.1999    2.4448 C   0  0  0  0  0  0  0  0  0  0  0  0
    1.1491   -2.3971    1.8359 N   0  0  0  0  0  0  0  0  0  0  0  0
    0.5926   -2.5955    0.5893 C   0  0  0  0  0  0  0  0  0  0  0  0
    0.3682   -1.6993   -0.2052 O   0  0  0  0  0  0  0  0  0  0  0  0
    0.2474   -4.0517    0.2863 C   0  0  0  0  0  0  0  0  0  0  0  0
   -1.2657   -4.2736    0.0019 C   0  0  1  0  0  0  0  0  0  0  0  0
   -1.6712   -3.7599   -1.3791 C   0  0  0  0  0  0  0  0  0  0  0  0
   -1.6612   -5.6835    0.1140 N   0  0  0  0  0  0  0  0  0  0  0  0
   -1.5152   -6.4019    1.3831 C   0  0  1  0  0  0  0  0  0  0  0  0
   -0.4636   -6.6527    1.6236 H   0  0  0  0  0  0  0  0  0  0  0  0
   -2.0711   -5.6567    2.6275 C   0  0  0  0  0  0  0  0  0  0  0  0
   -3.5508   -5.3172    2.6322 C   0  0  0  0  0  0  0  0  0  0  0  0
   -4.5158   -6.3172    2.8501 C   0  0  0  0  0  0  0  0  0  0  0  0
   -5.8777   -6.0073    2.8671 C   0  0  0  0  0  0  0  0  0  0  0  0
   -6.3049   -4.6895    2.6771 C   0  0  0  0  0  0  0  0  0  0  0  0
   -5.3574   -3.6823    2.4797 C   0  0  0  0  0  0  0  0  0  0  0  0
   -3.9951   -3.9964    2.4605 C   0  0  0  0  0  0  0  0  0  0  0  0
   -2.2288   -7.7645    1.2520 C   0  0  0  0  0  0  0  0  0  0  0  0
   -2.0029   -8.6891    1.9885 O   0  0  0  0  0  0  0  0  0  0  0  0
   -3.1438   -7.8058    0.2807 O   0  0  0  0  0  0  0  0  0  0  0  0
    2.7574   -2.4901    5.4322 H   0  0  0  0  0  0  0  0  0  0  0  0
    2.9290   -3.3243    3.8795 H   0  0  0  0  0  0  0  0  0  0  0  0
    1.3179   -3.1112    4.6090 H   0  0  0  0  0  0  0  0  0  0  0  0
    3.0201   -0.1658    5.3538 H   0  0  0  0  0  0  0  0  0  0  0  0
    2.8042    2.0474    4.2309 H   0  0  0  0  0  0  0  0  0  0  0  0
    1.0202    0.1008    0.8134 H   0  0  0  0  0  0  0  0  0  0  0  0
    1.2955   -3.2330    2.3859 H   0  0  0  0  0  0  0  0  0  0  0  0
    0.5701   -4.7030    1.1133 H   0  0  0  0  0  0  0  0  0  0  0  0
    0.8282   -4.3515   -0.6032 H   0  0  0  0  0  0  0  0  0  0  0  0
   -1.8402   -3.7152    0.7549 H   0  0  0  0  0  0  0  0  0  0  0  0
   -1.1737   -4.3478   -2.1706 H   0  0  0  0  0  0  0  0  0  0  0  0
   -1.3698   -2.7116   -1.5021 H   0  0  0  0  0  0  0  0  0  0  0  0
   -2.7588   -3.8521   -1.5163 H   0  0  0  0  0  0  0  0  0  0  0  0
   -1.1760   -6.2093   -0.6160 H   0  0  0  0  0  0  0  0  0  0  0  0
   -1.4821   -4.7396    2.7847 H   0  0  0  0  0  0  0  0  0  0  0  0
   -1.8461   -6.3183    3.4791 H   0  0  0  0  0  0  0  0  0  0  0  0
   -4.1988   -7.3484    3.0234 H   0  0  0  0  0  0  0  0  0  0  0  0
   -6.6091   -6.8014    3.0378 H   0  0  0  0  0  0  0  0  0  0  0  0
   -7.3707   -4.4481    2.6931 H   0  0  0  0  0  0  0  0  0  0  0  0
   -5.6765   -2.6455    2.3456 H   0  0  0  0  0  0  0  0  0  0  0  0
   -3.2663   -3.1917    2.3265 H   0  0  0  0  0  0  0  0  0  0  0  0
   -3.1368   -6.9081   -0.1261 H   0  0  0  0  0  0  0  0  0  0  0  0
  1  2  1  0
  1 28  1  0
  1 29  1  0
  1 30  1  0
  2  3  2  0
  2  8  1  0
  3  4  1  0
  3 31  1  0
  4  5  2  0
  4 32  1  0
  5  6  1  0
  5  7  1  0
  7  8  2  0
  7 33  1  0
  8  9  1  0
  9 10  1  0
  9 34  1  0
 10 11  2  0
 10 12  1  0
 12 13  1  0
 12 35  1  0
 12 36  1  0
 13 14  1  0
 13 15  1  0
 13 37  1  1
 14 38  1  0
 14 39  1  0
 14 40  1  0
 15 16  1  0
 15 41  1  0
 16 17  1  1
 16 18  1  0
 16 25  1  0
 18 19  1  0
 18 42  1  0
 18 43  1  0
 19 20  2  0
 19 24  1  0
 20 21  1  0
 20 44  1  0
 21 22  2  0
 21 45  1  0
 22 23  1  0
 22 46  1  0
 23 24  2  0
 23 47  1  0
 24 48  1  0
 25 26  2  0
 25 27  1  0
 27 49  1  0
M  END

