
     RDKit          3D

 48 50  0  0  0  0  0  0  0  0999 V2000
    2.9722   -0.0758   -1.8264 O   0  0  0  0  0  0  0  0  0  0  0  0
    2.3603    0.2911   -0.8391 C   0  0  0  0  0  0  0  0  0  0  0  0
    1.0028    0.2733   -0.6858 N   0  0  0  0  0  0  0  0  0  0  0  0
    0.0103   -0.1500   -1.5951 C   0  0  0  0  0  0  0  0  0  0  0  0
    0.3059   -0.6255   -2.8855 C   0  0  0  0  0  0  0  0  0  0  0  0
   -0.7299   -1.0259   -3.7320 C   0  0  0  0  0  0  0  0  0  0  0  0
   -2.0501   -0.9530   -3.2964 C   0  0  0  0  0  0  0  0  0  0  0  0
   -3.0393   -1.3396   -4.1160 F   0  0  0  0  0  0  0  0  0  0  0  0
   -2.3637   -0.4851   -2.0223 C   0  0  0  0  0  0  0  0  0  0  0  0
   -1.3305   -0.0856   -1.1760 C   0  0  0  0  0  0  0  0  0  0  0  0
    3.1369    0.8919    0.3507 C   0  0  1  0  0  0  0  0  0  0  0  0
    3.6739    2.2874   -0.0630 C   0  0  0  0  0  0  0  0  0  0  0  0
    3.8393    3.2493    1.4817 S   0  0  0  0  0  0  0  0  0  0  0  0
    2.2864    2.4560    2.0429 C   0  0  0  0  0  0  0  0  0  0  0  0
    2.3758    1.0654    1.5970 N   0  0  0  0  0  0  0  0  0  0  0  0
    2.2325    0.0639    2.5602 C   0  0  0  0  0  0  0  0  0  0  0  0
    1.7968    0.3205    3.6670 O   0  0  0  0  0  0  0  0  0  0  0  0
    2.6313   -1.3495    2.1521 C   0  0  0  0  0  0  0  0  0  0  0  0
    2.1796   -2.4025    3.1655 C   0  0  0  0  0  0  0  0  0  0  0  0
    2.5852   -3.8431    2.7936 C   0  0  1  0  0  0  0  0  0  0  0  0
    4.1052   -4.1107    2.8862 C   0  0  0  0  0  0  0  0  0  0  0  0
    4.5754   -4.2598    4.3357 C   0  0  0  0  0  0  0  0  0  0  0  0
    3.8520   -5.2611    5.0224 O   0  0  0  0  0  0  0  0  0  0  0  0
    2.4639   -4.9921    5.0689 C   0  0  0  0  0  0  0  0  0  0  0  0
    1.8615   -4.8931    3.6656 C   0  0  0  0  0  0  0  0  0  0  0  0
    0.6756    0.6010    0.2183 H   0  0  0  0  0  0  0  0  0  0  0  0
    1.3427   -0.6777   -3.2102 H   0  0  0  0  0  0  0  0  0  0  0  0
   -0.5188   -1.3978   -4.7366 H   0  0  0  0  0  0  0  0  0  0  0  0
   -3.4074   -0.4383   -1.7058 H   0  0  0  0  0  0  0  0  0  0  0  0
   -1.5702    0.2820   -0.1740 H   0  0  0  0  0  0  0  0  0  0  0  0
    3.9924    0.2203    0.5137 H   0  0  0  0  0  0  0  0  0  0  0  0
    2.9674    2.7927   -0.7408 H   0  0  0  0  0  0  0  0  0  0  0  0
    4.6411    2.2069   -0.5746 H   0  0  0  0  0  0  0  0  0  0  0  0
    1.4221    2.9704    1.5898 H   0  0  0  0  0  0  0  0  0  0  0  0
    2.1912    2.4846    3.1348 H   0  0  0  0  0  0  0  0  0  0  0  0
    3.7301   -1.3624    2.0359 H   0  0  0  0  0  0  0  0  0  0  0  0
    2.2294   -1.5807    1.1516 H   0  0  0  0  0  0  0  0  0  0  0  0
    1.0812   -2.3516    3.2507 H   0  0  0  0  0  0  0  0  0  0  0  0
    2.5567   -2.1188    4.1597 H   0  0  0  0  0  0  0  0  0  0  0  0
    2.2742   -4.0069    1.7459 H   0  0  0  0  0  0  0  0  0  0  0  0
    4.6892   -3.3188    2.3870 H   0  0  0  0  0  0  0  0  0  0  0  0
    4.3334   -5.0493    2.3532 H   0  0  0  0  0  0  0  0  0  0  0  0
    4.4900   -3.2916    4.8738 H   0  0  0  0  0  0  0  0  0  0  0  0
    5.6348   -4.5580    4.3707 H   0  0  0  0  0  0  0  0  0  0  0  0
    2.2753   -4.0590    5.6408 H   0  0  0  0  0  0  0  0  0  0  0  0
    2.0037   -5.8182    5.6329 H   0  0  0  0  0  0  0  0  0  0  0  0
    0.7839   -4.6661    3.7361 H   0  0  0  0  0  0  0  0  0  0  0  0
    1.9522   -5.8820    3.1846 H   0  0  0  0  0  0  0  0  0  0  0  0
  1  2  2  0
  2  3  1  0
  2 11  1  0
  3  4  1  0
  3 26  1  0
  4  5  2  0
  4 10  1  0
  5  6  1  0
  5 27  1  0
  6  7  2  0
  6 28  1  0
  7  8  1  0
  7  9  1  0
  9 10  2  0
  9 29  1  0
 10 30  1  0
 11 12  1  0
 11 15  1  0
 11 31  1  1
 12 13  1  0
 12 32  1  0
 12 33  1  0
 13 14  1  0
 14 15  1  0
 14 34  1  0
 14 35  1  0
 15 16  1  0
 16 17  2  0
 16 18  1  0
 18 19  1  0
 18 36  1  0
 18 37  1  0
 19 20  1  0
 19 38  1  0
 19 39  1  0
 20 21  1  0
 20 25  1  0
 20 40  1  6
 21 22  1  0
 21 41  1  0
 21 42  1  0
 22 23  1  0
 22 43  1  0
 22 44  1  0
 23 24  1  0
 24 25  1  0
 24 45  1  0
 24 46  1  0
 25 47  1  0
 25 48  1  0
M  END

