
     RDKit          3D

 42 43  0  0  0  0  0  0  0  0999 V2000
    1.2877    0.2519    0.6806 C   0  0  0  0  0  0  0  0  0  0  0  0
    2.7353    0.1658    0.1591 C   0  0  1  0  0  0  0  0  0  0  0  0
    2.7842    0.1447   -1.4075 C   0  0  1  0  0  0  0  0  0  0  0  0
    4.2051    0.1162   -2.0181 C   0  0  0  0  0  0  0  0  0  0  0  0
    4.8152   -1.2912   -2.1222 C   0  0  0  0  0  0  0  0  0  0  0  0
    3.8291   -2.2684   -2.7842 C   0  0  0  0  0  0  0  0  0  0  0  0
    2.5075   -2.2715   -2.1716 N   0  0  0  0  0  0  0  0  0  0  0  0
    1.9201   -0.9460   -2.0995 C   0  0  0  0  0  0  0  0  0  0  0  0
    3.5396    1.2714    0.6793 N   0  0  0  0  0  0  0  0  0  0  0  0
    4.5540    0.8899    1.5071 C   0  0  0  0  0  0  0  0  0  0  0  0
    5.3865    1.5711    2.0609 O   0  0  0  0  0  0  0  0  0  0  0  0
    4.4543   -0.5209    1.6165 N   0  0  0  0  0  0  0  0  0  0  0  0
    5.3628   -1.3161    2.4313 C   0  0  0  0  0  0  0  0  0  0  0  0
    5.0992   -1.2141    3.9381 C   0  0  0  0  0  0  0  0  0  0  0  0
    3.7267   -1.7292    4.3766 C   0  0  0  0  0  0  0  0  0  0  0  0
    3.5352   -1.6231    5.9012 C   0  0  0  0  0  0  0  0  0  0  0  0
    2.2169   -2.0745    6.3530 C   0  0  0  0  0  0  0  0  0  0  0  0
    1.1689   -2.4313    6.6951 N   0  0  0  0  0  0  0  0  0  0  0  0
    3.4221   -1.0278    0.8619 C   0  0  0  0  0  0  0  0  0  0  0  0
    3.0930   -2.1952    0.8024 O   0  0  0  0  0  0  0  0  0  0  0  0
    0.7504    1.0809    0.1930 H   0  0  0  0  0  0  0  0  0  0  0  0
    1.2859    0.4309    1.7662 H   0  0  0  0  0  0  0  0  0  0  0  0
    0.7438   -0.6823    0.4881 H   0  0  0  0  0  0  0  0  0  0  0  0
    2.3319    1.1179   -1.6782 H   0  0  0  0  0  0  0  0  0  0  0  0
    4.8778    0.7973   -1.4731 H   0  0  0  0  0  0  0  0  0  0  0  0
    4.1229    0.5300   -3.0391 H   0  0  0  0  0  0  0  0  0  0  0  0
    5.0913   -1.6733   -1.1251 H   0  0  0  0  0  0  0  0  0  0  0  0
    5.7538   -1.2430   -2.7012 H   0  0  0  0  0  0  0  0  0  0  0  0
    4.2319   -3.2943   -2.7694 H   0  0  0  0  0  0  0  0  0  0  0  0
    3.7146   -1.9942   -3.8509 H   0  0  0  0  0  0  0  0  0  0  0  0
    2.5517   -2.6791   -1.2377 H   0  0  0  0  0  0  0  0  0  0  0  0
    0.9252   -1.0181   -1.6353 H   0  0  0  0  0  0  0  0  0  0  0  0
    1.7446   -0.5947   -3.1336 H   0  0  0  0  0  0  0  0  0  0  0  0
    3.4254    2.2405    0.4098 H   0  0  0  0  0  0  0  0  0  0  0  0
    6.3871   -0.9760    2.2177 H   0  0  0  0  0  0  0  0  0  0  0  0
    5.2572   -2.3547    2.0844 H   0  0  0  0  0  0  0  0  0  0  0  0
    5.2303   -0.1634    4.2473 H   0  0  0  0  0  0  0  0  0  0  0  0
    5.8920   -1.7886    4.4494 H   0  0  0  0  0  0  0  0  0  0  0  0
    3.5924   -2.7769    4.0610 H   0  0  0  0  0  0  0  0  0  0  0  0
    2.9285   -1.1557    3.8777 H   0  0  0  0  0  0  0  0  0  0  0  0
    3.6722   -0.5792    6.2322 H   0  0  0  0  0  0  0  0  0  0  0  0
    4.3013   -2.2180    6.4277 H   0  0  0  0  0  0  0  0  0  0  0  0
  2  1  1  6
  1 21  1  0
  1 22  1  0
  1 23  1  0
  2  3  1  0
  2  9  1  0
  2 19  1  0
  3  4  1  0
  3  8  1  0
  3 24  1  6
  4  5  1  0
  4 25  1  0
  4 26  1  0
  5  6  1  0
  5 27  1  0
  5 28  1  0
  6  7  1  0
  6 29  1  0
  6 30  1  0
  7  8  1  0
  7 31  1  0
  8 32  1  0
  8 33  1  0
  9 10  1  0
  9 34  1  0
 10 11  2  0
 10 12  1  0
 12 13  1  0
 12 19  1  0
 13 14  1  0
 13 35  1  0
 13 36  1  0
 14 15  1  0
 14 37  1  0
 14 38  1  0
 15 16  1  0
 15 39  1  0
 15 40  1  0
 16 17  1  0
 16 41  1  0
 16 42  1  0
 17 18  3  0
 19 20  2  0
M  END

