
     RDKit          3D

 50 52  0  0  0  0  0  0  0  0999 V2000
    4.8337   -4.8492   -3.1301 C   0  0  0  0  0  0  0  0  0  0  0  0
    3.9759   -3.8705   -2.5859 O   0  0  0  0  0  0  0  0  0  0  0  0
    4.4340   -3.0525   -1.5900 C   0  0  0  0  0  0  0  0  0  0  0  0
    5.7136   -3.1096   -1.0375 C   0  0  0  0  0  0  0  0  0  0  0  0
    6.0727   -2.2181   -0.0165 C   0  0  0  0  0  0  0  0  0  0  0  0
    5.1539   -1.2775    0.4430 C   0  0  0  0  0  0  0  0  0  0  0  0
    3.8675   -1.2102   -0.1062 C   0  0  0  0  0  0  0  0  0  0  0  0
    3.4933   -2.0945   -1.1257 C   0  0  0  0  0  0  0  0  0  0  0  0
    2.2343   -2.1233   -1.7430 N   0  0  0  0  0  0  0  0  0  0  0  0
    1.1415   -1.3243   -1.5094 C   0  0  0  0  0  0  0  0  0  0  0  0
    1.1369   -0.3933   -0.7171 O   0  0  0  0  0  0  0  0  0  0  0  0
   -0.0810   -1.6634   -2.3200 C   0  0  0  0  0  0  0  0  0  0  0  0
   -0.2960   -2.8928   -2.9623 C   0  0  0  0  0  0  0  0  0  0  0  0
   -1.4606   -3.1491   -3.6862 C   0  0  0  0  0  0  0  0  0  0  0  0
   -2.4513   -2.1557   -3.7781 C   0  0  0  0  0  0  0  0  0  0  0  0
   -3.6532   -2.3299   -4.4887 N   0  0  0  0  0  0  0  0  0  0  0  0
   -4.0881   -3.4221   -5.2001 C   0  0  0  0  0  0  0  0  0  0  0  0
   -3.4675   -4.4524   -5.3544 O   0  0  0  0  0  0  0  0  0  0  0  0
   -5.4981   -3.2270   -5.7879 C   0  0  0  0  0  0  0  0  0  0  0  0
   -5.8392   -4.3045   -6.6314 O   0  0  0  0  0  0  0  0  0  0  0  0
   -5.2294   -4.3201   -7.8451 C   0  0  0  0  0  0  0  0  0  0  0  0
   -4.5637   -3.4096   -8.2581 O   0  0  0  0  0  0  0  0  0  0  0  0
   -5.4947   -5.6443   -8.5452 C   0  0  0  0  0  0  0  0  0  0  0  0
   -5.3249   -5.6085  -10.0332 C   0  0  0  0  0  0  0  0  0  0  0  0
   -4.1706   -5.7526  -10.7644 C   0  0  0  0  0  0  0  0  0  0  0  0
   -4.3730   -5.6162  -12.1715 C   0  0  0  0  0  0  0  0  0  0  0  0
   -5.6823   -5.3667  -12.4950 C   0  0  0  0  0  0  0  0  0  0  0  0
   -6.6795   -5.2950  -11.0835 S   0  0  0  0  0  0  0  0  0  0  0  0
   -2.2495   -0.9241   -3.1259 C   0  0  0  0  0  0  0  0  0  0  0  0
   -1.0868   -0.6873   -2.4040 C   0  0  0  0  0  0  0  0  0  0  0  0
    4.2606   -5.3737   -3.9063 H   0  0  0  0  0  0  0  0  0  0  0  0
    5.1555   -5.5792   -2.3662 H   0  0  0  0  0  0  0  0  0  0  0  0
    5.7297   -4.3955   -3.5899 H   0  0  0  0  0  0  0  0  0  0  0  0
    6.4364   -3.8441   -1.3934 H   0  0  0  0  0  0  0  0  0  0  0  0
    7.0766   -2.2690    0.4117 H   0  0  0  0  0  0  0  0  0  0  0  0
    5.4310   -0.5809    1.2377 H   0  0  0  0  0  0  0  0  0  0  0  0
    3.1407   -0.4783    0.2382 H   0  0  0  0  0  0  0  0  0  0  0  0
    2.1707   -2.8049   -2.4901 H   0  0  0  0  0  0  0  0  0  0  0  0
    0.4393   -3.6982   -2.8854 H   0  0  0  0  0  0  0  0  0  0  0  0
   -1.6157   -4.1070   -4.1763 H   0  0  0  0  0  0  0  0  0  0  0  0
   -4.2713   -1.5255   -4.4786 H   0  0  0  0  0  0  0  0  0  0  0  0
   -5.5497   -2.2689   -6.3311 H   0  0  0  0  0  0  0  0  0  0  0  0
   -6.2393   -3.2251   -4.9737 H   0  0  0  0  0  0  0  0  0  0  0  0
   -6.4905   -6.0031   -8.2452 H   0  0  0  0  0  0  0  0  0  0  0  0
   -4.7740   -6.3536   -8.1016 H   0  0  0  0  0  0  0  0  0  0  0  0
   -3.2000   -5.9444  -10.3033 H   0  0  0  0  0  0  0  0  0  0  0  0
   -3.5777   -5.7033  -12.9136 H   0  0  0  0  0  0  0  0  0  0  0  0
   -6.1202   -5.2286  -13.4826 H   0  0  0  0  0  0  0  0  0  0  0  0
   -3.0175   -0.1467   -3.1863 H   0  0  0  0  0  0  0  0  0  0  0  0
   -0.9312    0.2606   -1.8858 H   0  0  0  0  0  0  0  0  0  0  0  0
  1  2  1  0
  1 31  1  0
  1 32  1  0
  1 33  1  0
  2  3  1  0
  3  4  2  0
  3  8  1  0
  4  5  1  0
  4 34  1  0
  5  6  2  0
  5 35  1  0
  6  7  1  0
  6 36  1  0
  7  8  2  0
  7 37  1  0
  8  9  1  0
  9 10  1  0
  9 38  1  0
 10 11  2  0
 10 12  1  0
 12 13  2  0
 12 30  1  0
 13 14  1  0
 13 39  1  0
 14 15  2  0
 14 40  1  0
 15 16  1  0
 15 29  1  0
 16 17  1  0
 16 41  1  0
 17 18  2  0
 17 19  1  0
 19 20  1  0
 19 42  1  0
 19 43  1  0
 20 21  1  0
 21 22  2  0
 21 23  1  0
 23 24  1  0
 23 44  1  0
 23 45  1  0
 24 25  2  0
 24 28  1  0
 25 26  1  0
 25 46  1  0
 26 27  2  0
 26 47  1  0
 27 28  1  0
 27 48  1  0
 29 30  2  0
 29 49  1  0
 30 50  1  0
M  END

