
     RDKit          3D

 89 94  0  0  0  0  0  0  0  0999 V2000
    8.0665   -0.5415   -0.4260 C   0  0  0  0  0  0  0  0  0  0  0  0
    6.9602    0.3161   -0.5956 O   0  0  0  0  0  0  0  0  0  0  0  0
    6.6261    1.1207    0.5198 C   0  0  1  0  0  0  0  0  0  0  0  0
    7.6331    2.2622    0.7230 C   0  0  0  0  0  0  0  0  0  0  0  0
    7.5302    3.2478   -0.4352 C   0  0  2  0  0  0  0  0  0  0  0  0
    7.8577    2.7541   -1.3612 H   0  0  0  0  0  0  0  0  0  0  0  0
    8.3786    4.3961   -0.2222 O   0  0  0  0  0  0  0  0  0  0  0  0
    9.6821    4.2770   -0.5358 C   0  0  0  0  0  0  0  0  0  0  0  0
   10.1797    3.2621   -0.9695 O   0  0  0  0  0  0  0  0  0  0  0  0
   10.4450    5.5365   -0.2889 C   0  0  0  0  0  0  0  0  0  0  0  0
   11.8165    5.5601   -0.5787 C   0  0  0  0  0  0  0  0  0  0  0  0
   12.5279    6.7347   -0.3490 C   0  0  0  0  0  0  0  0  0  0  0  0
   11.8380    7.8405    0.1630 C   0  0  0  0  0  0  0  0  0  0  0  0
   10.5321    7.8310    0.4438 N   0  0  0  0  0  0  0  0  0  0  0  0
    9.8538    6.7046    0.2217 C   0  0  0  0  0  0  0  0  0  0  0  0
    6.0987    3.7561   -0.5444 C   0  0  0  0  0  0  0  0  0  0  0  0
    5.0866    2.6003   -0.6462 C   0  0  1  0  0  0  0  0  0  0  0  0
    4.0978    2.9989   -0.3647 H   0  0  0  0  0  0  0  0  0  0  0  0
    4.9505    2.0204   -2.0627 C   0  0  0  0  0  0  0  0  0  0  0  0
    3.9543    0.8547   -2.1166 C   0  0  0  0  0  0  0  0  0  0  0  0
    3.5392    0.4949   -3.4746 N   0  0  0  0  0  0  0  0  0  0  0  0
    4.0790   -0.5594   -4.2025 C   0  0  0  0  0  0  0  0  0  0  0  0
    5.0541   -1.5315   -3.6562 C   0  0  0  0  0  0  0  0  0  0  0  0
    4.7196   -2.3858   -2.5871 C   0  0  0  0  0  0  0  0  0  0  0  0
    5.6191   -3.3423   -2.1137 C   0  0  0  0  0  0  0  0  0  0  0  0
    6.8648   -3.4555   -2.7270 C   0  0  0  0  0  0  0  0  0  0  0  0
    7.7350   -4.3729   -2.2776 F   0  0  0  0  0  0  0  0  0  0  0  0
    7.2299   -2.6348   -3.7914 C   0  0  0  0  0  0  0  0  0  0  0  0
    6.3235   -1.6752   -4.2464 C   0  0  0  0  0  0  0  0  0  0  0  0
    3.5389   -0.5212   -5.4818 C   0  0  0  0  0  0  0  0  0  0  0  0
    3.8905   -1.4561   -6.5807 C   0  0  0  0  0  0  0  0  0  0  0  0
    3.7408   -2.8481   -6.4289 C   0  0  0  0  0  0  0  0  0  0  0  0
    4.0811   -3.7250   -7.4634 C   0  0  0  0  0  0  0  0  0  0  0  0
    4.5727   -3.2287   -8.6739 C   0  0  0  0  0  0  0  0  0  0  0  0
    4.7225   -1.8477   -8.8421 C   0  0  0  0  0  0  0  0  0  0  0  0
    4.3872   -0.9723   -7.8076 C   0  0  0  0  0  0  0  0  0  0  0  0
    2.6298    0.5974   -5.5231 C   0  0  0  0  0  0  0  0  0  0  0  0
    1.7337    0.9975   -6.6460 C   0  0  0  0  0  0  0  0  0  0  0  0
    1.3694    2.1538   -6.8328 O   0  0  0  0  0  0  0  0  0  0  0  0
    1.3157   -0.0445   -7.4475 N   0  0  0  0  0  0  0  0  0  0  0  0
    0.5245   -0.0153   -8.6091 C   0  0  0  0  0  0  0  0  0  0  0  0
   -0.0635    1.1538   -9.1284 C   0  0  0  0  0  0  0  0  0  0  0  0
   -0.8366    1.0789  -10.2901 C   0  0  0  0  0  0  0  0  0  0  0  0
   -1.0424   -0.1352  -10.9504 C   0  0  0  0  0  0  0  0  0  0  0  0
   -0.4576   -1.2960  -10.4337 C   0  0  0  0  0  0  0  0  0  0  0  0
    0.3186   -1.2388   -9.2776 C   0  0  0  0  0  0  0  0  0  0  0  0
    2.6616    1.2140   -4.2641 C   0  0  0  0  0  0  0  0  0  0  0  0
    1.8933    2.4014   -3.7114 C   0  0  1  0  0  0  0  0  0  0  0  0
    2.3277    3.7447   -4.3322 C   0  0  0  0  0  0  0  0  0  0  0  0
    0.3659    2.2131   -3.7942 C   0  0  0  0  0  0  0  0  0  0  0  0
    5.3255    1.5956    0.3508 O   0  0  0  0  0  0  0  0  0  0  0  0
    8.0830   -1.2251   -1.2850 H   0  0  0  0  0  0  0  0  0  0  0  0
    7.9758   -1.1424    0.5005 H   0  0  0  0  0  0  0  0  0  0  0  0
    9.0267    0.0062   -0.3970 H   0  0  0  0  0  0  0  0  0  0  0  0
    6.5909    0.4853    1.4267 H   0  0  0  0  0  0  0  0  0  0  0  0
    8.6531    1.8613    0.8053 H   0  0  0  0  0  0  0  0  0  0  0  0
    7.3959    2.7778    1.6679 H   0  0  0  0  0  0  0  0  0  0  0  0
   12.2913    4.6605   -0.9764 H   0  0  0  0  0  0  0  0  0  0  0  0
   13.5975    6.8001   -0.5604 H   0  0  0  0  0  0  0  0  0  0  0  0
   12.3707    8.7799    0.3546 H   0  0  0  0  0  0  0  0  0  0  0  0
    8.7854    6.7136    0.4570 H   0  0  0  0  0  0  0  0  0  0  0  0
    5.9903    4.4267   -1.4110 H   0  0  0  0  0  0  0  0  0  0  0  0
    5.8792    4.3492    0.3583 H   0  0  0  0  0  0  0  0  0  0  0  0
    4.6033    2.8369   -2.7148 H   0  0  0  0  0  0  0  0  0  0  0  0
    5.9227    1.6818   -2.4496 H   0  0  0  0  0  0  0  0  0  0  0  0
    3.0576    1.0884   -1.5228 H   0  0  0  0  0  0  0  0  0  0  0  0
    4.4142   -0.0234   -1.6530 H   0  0  0  0  0  0  0  0  0  0  0  0
    3.7301   -2.3147   -2.1292 H   0  0  0  0  0  0  0  0  0  0  0  0
    5.3644   -4.0089   -1.2874 H   0  0  0  0  0  0  0  0  0  0  0  0
    8.2141   -2.7539   -4.2488 H   0  0  0  0  0  0  0  0  0  0  0  0
    6.6008   -1.0269   -5.0797 H   0  0  0  0  0  0  0  0  0  0  0  0
    3.3508   -3.2430   -5.4882 H   0  0  0  0  0  0  0  0  0  0  0  0
    3.9578   -4.8020   -7.3220 H   0  0  0  0  0  0  0  0  0  0  0  0
    4.8365   -3.9135   -9.4837 H   0  0  0  0  0  0  0  0  0  0  0  0
    5.1060   -1.4492   -9.7849 H   0  0  0  0  0  0  0  0  0  0  0  0
    4.5132    0.1045   -7.9442 H   0  0  0  0  0  0  0  0  0  0  0  0
    1.6588   -0.9633   -7.1930 H   0  0  0  0  0  0  0  0  0  0  0  0
    0.0945    2.0988   -8.6158 H   0  0  0  0  0  0  0  0  0  0  0  0
   -1.2871    1.9949  -10.6822 H   0  0  0  0  0  0  0  0  0  0  0  0
   -1.6511   -0.1782  -11.8568 H   0  0  0  0  0  0  0  0  0  0  0  0
   -0.6036   -2.2567  -10.9347 H   0  0  0  0  0  0  0  0  0  0  0  0
    0.7783   -2.1502   -8.8838 H   0  0  0  0  0  0  0  0  0  0  0  0
    2.1337    2.4540   -2.6388 H   0  0  0  0  0  0  0  0  0  0  0  0
    2.0806    3.7632   -5.4010 H   0  0  0  0  0  0  0  0  0  0  0  0
    3.4123    3.9081   -4.2273 H   0  0  0  0  0  0  0  0  0  0  0  0
    1.8104    4.5785   -3.8290 H   0  0  0  0  0  0  0  0  0  0  0  0
    0.0207    2.2188   -4.8368 H   0  0  0  0  0  0  0  0  0  0  0  0
   -0.1420    3.0375   -3.2674 H   0  0  0  0  0  0  0  0  0  0  0  0
    0.0528    1.2674   -3.3238 H   0  0  0  0  0  0  0  0  0  0  0  0
  1  2  1  0
  1 52  1  0
  1 53  1  0
  1 54  1  0
  2  3  1  0
  3  4  1  0
  3 51  1  0
  3 55  1  1
  4  5  1  0
  4 56  1  0
  4 57  1  0
  5  6  1  6
  5  7  1  0
  5 16  1  0
  7  8  1  0
  8  9  2  0
  8 10  1  0
 10 11  2  0
 10 15  1  0
 11 12  1  0
 11 58  1  0
 12 13  2  0
 12 59  1  0
 13 14  1  0
 13 60  1  0
 14 15  2  0
 15 61  1  0
 16 17  1  0
 16 62  1  0
 16 63  1  0
 17 18  1  1
 17 19  1  0
 17 51  1  0
 19 20  1  0
 19 64  1  0
 19 65  1  0
 20 21  1  0
 20 66  1  0
 20 67  1  0
 21 22  1  0
 21 47  1  0
 22 23  1  0
 22 30  2  0
 23 24  2  0
 23 29  1  0
 24 25  1  0
 24 68  1  0
 25 26  2  0
 25 69  1  0
 26 27  1  0
 26 28  1  0
 28 29  2  0
 28 70  1  0
 29 71  1  0
 30 31  1  0
 30 37  1  0
 31 32  2  0
 31 36  1  0
 32 33  1  0
 32 72  1  0
 33 34  2  0
 33 73  1  0
 34 35  1  0
 34 74  1  0
 35 36  2  0
 35 75  1  0
 36 76  1  0
 37 38  1  0
 37 47  2  0
 38 39  2  0
 38 40  1  0
 40 41  1  0
 40 77  1  0
 41 42  2  0
 41 46  1  0
 42 43  1  0
 42 78  1  0
 43 44  2  0
 43 79  1  0
 44 45  1  0
 44 80  1  0
 45 46  2  0
 45 81  1  0
 46 82  1  0
 47 48  1  0
 48 49  1  0
 48 50  1  0
 48 83  1  1
 49 84  1  0
 49 85  1  0
 49 86  1  0
 50 87  1  0
 50 88  1  0
 50 89  1  0
M  END

