
     RDKit          3D

 25 26  0  0  0  0  0  0  0  0999 V2000
    3.6523    0.1952   -2.0570 C   0  0  0  0  0  0  0  0  0  0  0  0
    3.4433   -0.0791   -0.6039 C   0  0  0  0  0  0  0  0  0  0  0  0
    3.5327    0.8797    0.3500 N   0  0  0  0  0  0  0  0  0  0  0  0
    3.7538    1.8582    0.1984 H   0  0  0  0  0  0  0  0  0  0  0  0
    3.3252    0.4435    1.6067 N   0  0  0  0  0  0  0  0  0  0  0  0
    3.0864   -0.8495    1.4784 C   0  0  0  0  0  0  0  0  0  0  0  0
    3.1431   -1.2413    0.1119 C   0  0  0  0  0  0  0  0  0  0  0  0
    2.9050   -2.8755   -0.4879 S   0  0  1  0  0  0  0  0  0  0  0  0
    3.5122   -2.9742   -1.8167 O   0  0  0  0  0  0  0  0  0  0  0  0
    3.2289   -3.7883    0.5996 O   0  0  0  0  0  0  0  0  0  0  0  0
    1.2308   -3.0867   -0.7080 N   0  0  0  0  0  0  0  0  0  0  0  0
    0.4430   -2.4880   -1.6977 C   0  0  0  0  0  0  0  0  0  0  0  0
    0.8370   -2.3977   -3.0493 C   0  0  0  0  0  0  0  0  0  0  0  0
   -0.0769   -1.8207   -3.9125 C   0  0  0  0  0  0  0  0  0  0  0  0
   -1.3084   -1.4019   -3.3851 C   0  0  0  0  0  0  0  0  0  0  0  0
   -1.6246   -1.5413   -2.1000 N   0  0  0  0  0  0  0  0  0  0  0  0
   -0.7507   -2.0680   -1.2605 N   0  0  0  0  0  0  0  0  0  0  0  0
    4.3348    1.0466   -2.2016 H   0  0  0  0  0  0  0  0  0  0  0  0
    2.7008    0.4336   -2.5605 H   0  0  0  0  0  0  0  0  0  0  0  0
    4.0770   -0.6918   -2.5441 H   0  0  0  0  0  0  0  0  0  0  0  0
    2.8982   -1.4782    2.3473 H   0  0  0  0  0  0  0  0  0  0  0  0
    0.7383   -3.1658    0.1828 H   0  0  0  0  0  0  0  0  0  0  0  0
    1.8046   -2.7812   -3.3702 H   0  0  0  0  0  0  0  0  0  0  0  0
    0.1411   -1.7116   -4.9777 H   0  0  0  0  0  0  0  0  0  0  0  0
   -2.0772   -0.9452   -4.0155 H   0  0  0  0  0  0  0  0  0  0  0  0
  1  2  1  0
  1 18  1  0
  1 19  1  0
  1 20  1  0
  2  3  1  0
  2  7  2  0
  3  4  1  0
  3  5  1  0
  5  6  2  0
  6  7  1  0
  6 21  1  0
  7  8  1  0
  8  9  2  0
  8 10  2  0
  8 11  1  6
 11 12  1  0
 11 22  1  0
 12 13  2  0
 12 17  1  0
 13 14  1  0
 13 23  1  0
 14 15  2  0
 14 24  1  0
 15 16  1  0
 15 25  1  0
 16 17  2  0
M  END

