
     RDKit          3D

 45 48  0  0  0  0  0  0  0  0999 V2000
    1.0826    0.2992    1.2223 C   0  0  0  0  0  0  0  0  0  0  0  0
    2.4510    0.1470    0.6054 C   0  0  0  0  0  0  0  0  0  0  0  0
    3.3590    1.2167    0.5650 C   0  0  0  0  0  0  0  0  0  0  0  0
    4.6213    1.0799   -0.0132 C   0  0  0  0  0  0  0  0  0  0  0  0
    4.9963   -0.1455   -0.5752 C   0  0  0  0  0  0  0  0  0  0  0  0
    6.2825   -0.2670   -1.1784 N   0  0  0  0  0  0  0  0  0  0  0  0
    6.7473    0.7499   -1.9555 N   0  0  0  0  0  0  0  0  0  0  0  0
    7.9289    0.4277   -2.3509 N   0  0  0  0  0  0  0  0  0  0  0  0
    8.2671   -0.7939   -1.8469 C   0  0  0  0  0  0  0  0  0  0  0  0
    9.5860   -1.4303   -2.1110 C   0  0  0  0  0  0  0  0  0  0  0  0
    9.8939   -2.5214   -1.6435 O   0  0  0  0  0  0  0  0  0  0  0  0
   10.3972   -0.6803   -2.9087 N   0  0  0  0  0  0  0  0  0  0  0  0
   11.7358   -1.0829   -3.2943 C   0  0  2  0  0  0  0  0  0  0  0  0
   12.7792   -0.0123   -2.9146 C   0  0  0  0  0  0  0  0  0  0  0  0
   14.2237   -0.4892   -3.1538 C   0  0  0  0  0  0  0  0  0  0  0  0
   14.3389   -1.1479   -4.4992 C   0  0  0  0  0  0  0  0  0  0  0  0
   15.4430   -1.5029   -5.3195 C   0  0  0  0  0  0  0  0  0  0  0  0
   15.0512   -2.0962   -6.4433 N   0  0  0  0  0  0  0  0  0  0  0  0
   13.7106   -2.1313   -6.3610 N   0  0  0  0  0  0  0  0  0  0  0  0
   13.1783   -2.5467   -7.1158 H   0  0  0  0  0  0  0  0  0  0  0  0
   13.2310   -1.5755   -5.2144 C   0  0  0  0  0  0  0  0  0  0  0  0
   11.8007   -1.4275   -4.8018 C   0  0  0  0  0  0  0  0  0  0  0  0
    7.2118   -1.2662   -1.0757 C   0  0  0  0  0  0  0  0  0  0  0  0
    7.0765   -2.5145   -0.2712 C   0  0  0  0  0  0  0  0  0  0  0  0
    4.1019   -1.2227   -0.5609 C   0  0  0  0  0  0  0  0  0  0  0  0
    2.8488   -1.0724    0.0330 C   0  0  0  0  0  0  0  0  0  0  0  0
    0.9933    1.2413    1.7825 H   0  0  0  0  0  0  0  0  0  0  0  0
    0.8574   -0.5302    1.9119 H   0  0  0  0  0  0  0  0  0  0  0  0
    0.2963    0.2967    0.4479 H   0  0  0  0  0  0  0  0  0  0  0  0
    3.0769    2.1786    1.0016 H   0  0  0  0  0  0  0  0  0  0  0  0
    5.3209    1.9160   -0.0400 H   0  0  0  0  0  0  0  0  0  0  0  0
   10.0231    0.2100   -3.2282 H   0  0  0  0  0  0  0  0  0  0  0  0
   11.9437   -1.9991   -2.7204 H   0  0  0  0  0  0  0  0  0  0  0  0
   12.6364    0.2621   -1.8578 H   0  0  0  0  0  0  0  0  0  0  0  0
   12.5872    0.8992   -3.5107 H   0  0  0  0  0  0  0  0  0  0  0  0
   14.5118   -1.1985   -2.3557 H   0  0  0  0  0  0  0  0  0  0  0  0
   14.9195    0.3621   -3.0670 H   0  0  0  0  0  0  0  0  0  0  0  0
   16.5062   -1.3477   -5.1324 H   0  0  0  0  0  0  0  0  0  0  0  0
   11.2203   -2.3457   -4.9944 H   0  0  0  0  0  0  0  0  0  0  0  0
   11.3104   -0.6201   -5.3787 H   0  0  0  0  0  0  0  0  0  0  0  0
    8.0778   -2.9345   -0.1146 H   0  0  0  0  0  0  0  0  0  0  0  0
    6.4816   -3.2764   -0.8017 H   0  0  0  0  0  0  0  0  0  0  0  0
    6.5877   -2.3209    0.6958 H   0  0  0  0  0  0  0  0  0  0  0  0
    4.3740   -2.1702   -1.0271 H   0  0  0  0  0  0  0  0  0  0  0  0
    2.1598   -1.9216    0.0396 H   0  0  0  0  0  0  0  0  0  0  0  0
  1  2  1  0
  1 27  1  0
  1 28  1  0
  1 29  1  0
  2  3  2  0
  2 26  1  0
  3  4  1  0
  3 30  1  0
  4  5  2  0
  4 31  1  0
  5  6  1  0
  5 25  1  0
  6  7  1  0
  6 23  1  0
  7  8  2  0
  8  9  1  0
  9 10  1  0
  9 23  2  0
 10 11  2  0
 10 12  1  0
 12 13  1  0
 12 32  1  0
 13 14  1  0
 13 22  1  0
 13 33  1  1
 14 15  1  0
 14 34  1  0
 14 35  1  0
 15 16  1  0
 15 36  1  0
 15 37  1  0
 16 17  1  0
 16 21  2  0
 17 18  2  0
 17 38  1  0
 18 19  1  0
 19 20  1  0
 19 21  1  0
 21 22  1  0
 22 39  1  0
 22 40  1  0
 23 24  1  0
 24 41  1  0
 24 42  1  0
 24 43  1  0
 25 26  2  0
 25 44  1  0
 26 45  1  0
M  END

