
     RDKit          3D

 34 36  0  0  0  0  0  0  0  0999 V2000
    0.9204    0.1952    0.0733 C   0  0  0  0  0  0  0  0  0  0  0  0
    2.4098    0.2281   -0.1144 C   0  0  0  0  0  0  0  0  0  0  0  0
    3.1266    1.3745   -0.3929 C   0  0  0  0  0  0  0  0  0  0  0  0
    4.5435    1.3433   -0.5509 C   0  0  0  0  0  0  0  0  0  0  0  0
    5.2328    0.1667   -0.4367 C   0  0  0  0  0  0  0  0  0  0  0  0
    4.5303   -0.9871   -0.1766 N   0  0  0  0  0  0  0  0  0  0  0  0
    4.9559   -2.2968   -0.0221 C   0  0  0  0  0  0  0  0  0  0  0  0
    6.3716   -2.7382   -0.2053 C   0  0  0  0  0  0  0  0  0  0  0  0
    7.3211   -2.0507    0.6561 N   0  0  0  0  0  0  0  0  0  0  0  0
    7.1397   -2.2411    2.0948 C   0  0  0  0  0  0  0  0  0  0  0  0
    8.4154   -1.6349    2.7067 C   0  0  0  0  0  0  0  0  0  0  0  0
    9.4611   -1.6374    1.5512 C   0  0  1  0  0  0  0  0  0  0  0  0
    9.6859   -0.6021    1.2541 H   0  0  0  0  0  0  0  0  0  0  0  0
   10.7114   -2.2055    1.8624 O   0  0  0  0  0  0  0  0  0  0  0  0
    8.7185   -2.3470    0.4020 C   0  0  0  0  0  0  0  0  0  0  0  0
    3.7954   -3.0115    0.2415 C   0  0  0  0  0  0  0  0  0  0  0  0
    2.6911   -2.2216    0.2516 N   0  0  0  0  0  0  0  0  0  0  0  0
    3.1346   -0.9947   -0.0018 C   0  0  0  0  0  0  0  0  0  0  0  0
    0.4794    1.1951   -0.0466 H   0  0  0  0  0  0  0  0  0  0  0  0
    0.6613   -0.1911    1.0725 H   0  0  0  0  0  0  0  0  0  0  0  0
    0.4510   -0.4910   -0.6501 H   0  0  0  0  0  0  0  0  0  0  0  0
    2.6004    2.3278   -0.4873 H   0  0  0  0  0  0  0  0  0  0  0  0
    5.0957    2.2622   -0.7549 H   0  0  0  0  0  0  0  0  0  0  0  0
    6.3157    0.0670   -0.4976 H   0  0  0  0  0  0  0  0  0  0  0  0
    6.6908   -2.5615   -1.2502 H   0  0  0  0  0  0  0  0  0  0  0  0
    6.3977   -3.8424   -0.0562 H   0  0  0  0  0  0  0  0  0  0  0  0
    7.0634   -3.3249    2.3449 H   0  0  0  0  0  0  0  0  0  0  0  0
    6.2112   -1.7652    2.4439 H   0  0  0  0  0  0  0  0  0  0  0  0
    8.7910   -2.2237    3.5577 H   0  0  0  0  0  0  0  0  0  0  0  0
    8.2400   -0.6130    3.0740 H   0  0  0  0  0  0  0  0  0  0  0  0
   10.5709   -3.1293    2.1125 H   0  0  0  0  0  0  0  0  0  0  0  0
    8.9346   -3.4435    0.4645 H   0  0  0  0  0  0  0  0  0  0  0  0
    9.0336   -2.0094   -0.5982 H   0  0  0  0  0  0  0  0  0  0  0  0
    3.7328   -4.0864    0.4186 H   0  0  0  0  0  0  0  0  0  0  0  0
  1  2  1  0
  1 19  1  0
  1 20  1  0
  1 21  1  0
  2  3  2  0
  2 18  1  0
  3  4  1  0
  3 22  1  0
  4  5  2  0
  4 23  1  0
  5  6  1  0
  5 24  1  0
  6  7  1  0
  6 18  1  0
  7  8  1  0
  7 16  2  0
  8  9  1  0
  8 25  1  0
  8 26  1  0
  9 10  1  0
  9 15  1  0
 10 11  1  0
 10 27  1  0
 10 28  1  0
 11 12  1  0
 11 29  1  0
 11 30  1  0
 12 13  1  6
 12 14  1  0
 12 15  1  0
 14 31  1  0
 15 32  1  0
 15 33  1  0
 16 17  1  0
 16 34  1  0
 17 18  2  0
M  END

