
     RDKit          3D

 94102  0  0  0  0  0  0  0  0999 V2000
    1.7774    2.0640    1.9411 N   0  0  0  0  0  0  0  0  0  0  0  0
    2.7926    1.5299    1.7596 C   0  0  0  0  0  0  0  0  0  0  0  0
    4.0507    0.8744    1.5302 C   0  0  0  0  0  0  0  0  0  0  0  0
    4.2465   -0.3558    2.2404 C   0  0  0  0  0  0  0  0  0  0  0  0
    4.3963   -1.3517    2.8197 N   0  0  0  0  0  0  0  0  0  0  0  0
    4.9590    1.4445    0.6746 C   0  0  0  0  0  0  0  0  0  0  0  0
    6.2835    1.0262    0.2531 C   0  0  0  0  0  0  0  0  0  0  0  0
    6.9585    1.8803   -0.6694 C   0  0  0  0  0  0  0  0  0  0  0  0
    8.2241    1.5938   -1.1474 C   0  0  0  0  0  0  0  0  0  0  0  0
    8.8720    0.4205   -0.7113 C   0  0  0  0  0  0  0  0  0  0  0  0
   10.1181    0.0136   -1.0990 N   0  0  0  0  0  0  0  0  0  0  0  0
   10.4497   -1.1135   -0.5265 C   0  0  0  0  0  0  0  0  0  0  0  0
   11.6688   -1.8007   -0.7136 C   0  0  0  0  0  0  0  0  0  0  0  0
   12.7133   -2.4176   -0.8546 C   0  0  0  0  0  0  0  0  0  0  0  0
   13.9357   -3.1222   -1.0307 C   0  0  0  0  0  0  0  0  0  0  0  0
   14.9387   -2.6240   -1.8927 C   0  0  0  0  0  0  0  0  0  0  0  0
   16.1317   -3.3134   -2.0700 C   0  0  0  0  0  0  0  0  0  0  0  0
   16.3720   -4.5206   -1.3846 C   0  0  0  0  0  0  0  0  0  0  0  0
   17.5916   -5.2203   -1.5615 N   0  0  0  0  0  0  0  0  0  0  0  0
   18.8140   -4.5067   -1.6312 C   0  0  0  0  0  0  0  0  0  0  0  0
   19.0584   -3.4171   -0.7723 C   0  0  0  0  0  0  0  0  0  0  0  0
   20.2543   -2.7137   -0.8443 C   0  0  0  0  0  0  0  0  0  0  0  0
   21.2561   -3.0807   -1.7708 C   0  0  0  0  0  0  0  0  0  0  0  0
   22.4831   -2.3660   -1.8434 C   0  0  0  0  0  0  0  0  0  0  0  0
   23.5417   -1.7616   -1.9176 C   0  0  0  0  0  0  0  0  0  0  0  0
   24.7538   -1.0398   -1.9760 C   0  0  0  0  0  0  0  0  0  0  0  0
   25.7480   -1.2899   -2.7866 N   0  0  0  0  0  0  0  0  0  0  0  0
   26.7777   -0.4112   -2.5965 C   0  0  0  0  0  0  0  0  0  0  0  0
   27.9930   -0.4111   -3.3103 C   0  0  0  0  0  0  0  0  0  0  0  0
   28.9492    0.5418   -3.0100 C   0  0  0  0  0  0  0  0  0  0  0  0
   28.7472    1.5283   -1.9990 C   0  0  0  0  0  0  0  0  0  0  0  0
   29.8313    2.4695   -1.7853 C   0  0  0  0  0  0  0  0  0  0  0  0
   29.9685    3.5223   -0.9164 C   0  0  0  0  0  0  0  0  0  0  0  0
   28.9814    3.9384    0.0368 C   0  0  0  0  0  0  0  0  0  0  0  0
   28.1876    4.2829    0.8121 N   0  0  0  0  0  0  0  0  0  0  0  0
   31.1808    4.2937   -0.9314 C   0  0  0  0  0  0  0  0  0  0  0  0
   32.1626    4.9138   -0.9481 N   0  0  0  0  0  0  0  0  0  0  0  0
   27.5320    1.5337   -1.2800 C   0  0  0  0  0  0  0  0  0  0  0  0
   26.5714    0.5737   -1.5840 C   0  0  0  0  0  0  0  0  0  0  0  0
   24.9955    0.3396   -0.8696 S   0  0  0  0  0  0  0  0  0  0  0  0
   21.0077   -4.1780   -2.6261 C   0  0  0  0  0  0  0  0  0  0  0  0
   19.8071   -4.8739   -2.5608 C   0  0  0  0  0  0  0  0  0  0  0  0
   17.5888   -6.6334   -1.6681 C   0  0  0  0  0  0  0  0  0  0  0  0
   16.5962   -7.2942   -2.4184 C   0  0  0  0  0  0  0  0  0  0  0  0
   16.5895   -8.6798   -2.5187 C   0  0  0  0  0  0  0  0  0  0  0  0
   17.5829   -9.4568   -1.8808 C   0  0  0  0  0  0  0  0  0  0  0  0
   17.5774  -10.8744   -1.9892 C   0  0  0  0  0  0  0  0  0  0  0  0
   17.5593  -12.0912   -2.0914 C   0  0  0  0  0  0  0  0  0  0  0  0
   17.5688  -13.4998   -2.1884 C   0  0  0  0  0  0  0  0  0  0  0  0
   16.7003  -14.2212   -2.8466 N   0  0  0  0  0  0  0  0  0  0  0  0
   16.9841  -15.5547   -2.7470 C   0  0  0  0  0  0  0  0  0  0  0  0
   16.2405  -16.5940   -3.3414 C   0  0  0  0  0  0  0  0  0  0  0  0
   16.6464  -17.9028   -3.1550 C   0  0  0  0  0  0  0  0  0  0  0  0
   17.7960  -18.2385   -2.3791 C   0  0  0  0  0  0  0  0  0  0  0  0
   18.1111  -19.6506   -2.2641 C   0  0  0  0  0  0  0  0  0  0  0  0
   19.1212  -20.3105   -1.6110 C   0  0  0  0  0  0  0  0  0  0  0  0
   20.1572  -19.6808   -0.8452 C   0  0  0  0  0  0  0  0  0  0  0  0
   21.0006  -19.1796   -0.2228 N   0  0  0  0  0  0  0  0  0  0  0  0
   19.1813  -21.7448   -1.6749 C   0  0  0  0  0  0  0  0  0  0  0  0
   19.2249  -22.9041   -1.7300 N   0  0  0  0  0  0  0  0  0  0  0  0
   18.5453  -17.2021   -1.7808 C   0  0  0  0  0  0  0  0  0  0  0  0
   18.1347  -15.8857   -1.9697 C   0  0  0  0  0  0  0  0  0  0  0  0
   18.8556  -14.4174   -1.3593 S   0  0  0  0  0  0  0  0  0  0  0  0
   18.5791   -8.7882   -1.1343 C   0  0  0  0  0  0  0  0  0  0  0  0
   18.5785   -7.4031   -1.0256 C   0  0  0  0  0  0  0  0  0  0  0  0
   15.3778   -5.0194   -0.5201 C   0  0  0  0  0  0  0  0  0  0  0  0
   14.1800   -4.3363   -0.3504 C   0  0  0  0  0  0  0  0  0  0  0  0
    9.2264   -1.8020    0.5757 S   0  0  0  0  0  0  0  0  0  0  0  0
    8.2006   -0.4369    0.2116 C   0  0  0  0  0  0  0  0  0  0  0  0
    6.9269   -0.1508    0.6940 C   0  0  0  0  0  0  0  0  0  0  0  0
    4.6215    2.3852    0.2302 H   0  0  0  0  0  0  0  0  0  0  0  0
    6.4529    2.7890   -1.0050 H   0  0  0  0  0  0  0  0  0  0  0  0
    8.7335    2.2522   -1.8528 H   0  0  0  0  0  0  0  0  0  0  0  0
   14.7628   -1.6929   -2.4347 H   0  0  0  0  0  0  0  0  0  0  0  0
   16.8879   -2.9203   -2.7515 H   0  0  0  0  0  0  0  0  0  0  0  0
   18.3033   -3.1278   -0.0397 H   0  0  0  0  0  0  0  0  0  0  0  0
   20.4319   -1.8754   -0.1678 H   0  0  0  0  0  0  0  0  0  0  0  0
   28.1552   -1.1622   -4.0850 H   0  0  0  0  0  0  0  0  0  0  0  0
   29.8927    0.5451   -3.5612 H   0  0  0  0  0  0  0  0  0  0  0  0
   30.6977    2.3130   -2.4343 H   0  0  0  0  0  0  0  0  0  0  0  0
   27.3412    2.2703   -0.5013 H   0  0  0  0  0  0  0  0  0  0  0  0
   21.7660   -4.4689   -3.3554 H   0  0  0  0  0  0  0  0  0  0  0  0
   19.6277   -5.7088   -3.2401 H   0  0  0  0  0  0  0  0  0  0  0  0
   15.8295   -6.7107   -2.9308 H   0  0  0  0  0  0  0  0  0  0  0  0
   15.8183   -9.1788   -3.1085 H   0  0  0  0  0  0  0  0  0  0  0  0
   15.3601  -16.3457   -3.9362 H   0  0  0  0  0  0  0  0  0  0  0  0
   16.0725  -18.7115   -3.6141 H   0  0  0  0  0  0  0  0  0  0  0  0
   17.4186  -20.3109   -2.7939 H   0  0  0  0  0  0  0  0  0  0  0  0
   19.4281  -17.4184   -1.1817 H   0  0  0  0  0  0  0  0  0  0  0  0
   19.3489   -9.3717   -0.6255 H   0  0  0  0  0  0  0  0  0  0  0  0
   19.3475   -6.9062   -0.4319 H   0  0  0  0  0  0  0  0  0  0  0  0
   15.5538   -5.9477    0.0259 H   0  0  0  0  0  0  0  0  0  0  0  0
   13.4215   -4.7319    0.3279 H   0  0  0  0  0  0  0  0  0  0  0  0
    6.4443   -0.8273    1.3974 H   0  0  0  0  0  0  0  0  0  0  0  0
  1  2  3  0
  2  3  1  0
  3  4  1  0
  3  6  2  0
  4  5  3  0
  6  7  1  0
  6 71  1  0
  7  8  2  0
  7 70  1  0
  8  9  1  0
  8 72  1  0
  9 10  2  0
  9 73  1  0
 10 11  1  0
 10 69  1  0
 11 12  2  0
 12 13  1  0
 12 68  1  0
 13 14  3  0
 14 15  1  0
 15 16  2  0
 15 67  1  0
 16 17  1  0
 16 74  1  0
 17 18  2  0
 17 75  1  0
 18 19  1  0
 18 66  1  0
 19 20  1  0
 19 43  1  0
 20 21  2  0
 20 42  1  0
 21 22  1  0
 21 76  1  0
 22 23  2  0
 22 77  1  0
 23 24  1  0
 23 41  1  0
 24 25  3  0
 25 26  1  0
 26 27  2  0
 26 40  1  0
 27 28  1  0
 28 29  2  0
 28 39  1  0
 29 30  1  0
 29 78  1  0
 30 31  2  0
 30 79  1  0
 31 32  1  0
 31 38  1  0
 32 33  2  0
 32 80  1  0
 33 34  1  0
 33 36  1  0
 34 35  3  0
 36 37  3  0
 38 39  2  0
 38 81  1  0
 39 40  1  0
 41 42  2  0
 41 82  1  0
 42 83  1  0
 43 44  2  0
 43 65  1  0
 44 45  1  0
 44 84  1  0
 45 46  2  0
 45 85  1  0
 46 47  1  0
 46 64  1  0
 47 48  3  0
 48 49  1  0
 49 50  2  0
 49 63  1  0
 50 51  1  0
 51 52  2  0
 51 62  1  0
 52 53  1  0
 52 86  1  0
 53 54  2  0
 53 87  1  0
 54 55  1  0
 54 61  1  0
 55 56  2  0
 55 88  1  0
 56 57  1  0
 56 59  1  0
 57 58  3  0
 59 60  3  0
 61 62  2  0
 61 89  1  0
 62 63  1  0
 64 65  2  0
 64 90  1  0
 65 91  1  0
 66 67  2  0
 66 92  1  0
 67 93  1  0
 68 69  1  0
 69 70  2  0
 70 94  1  0
M  END

