
     RDKit          3D

 29 31  0  0  0  0  0  0  0  0999 V2000
    1.2839    1.0696   -1.2878 O   0  0  0  0  0  0  0  0  0  0  0  0
    2.0178    0.3739   -0.2985 C   0  0  0  0  0  0  0  0  0  0  0  0
    3.2580    1.1999    0.0487 C   0  0  2  0  0  0  0  0  0  0  0  0
    4.2165    0.4540    0.9932 C   0  0  0  0  0  0  0  0  0  0  0  0
    3.6258    0.1871    2.3893 C   0  0  0  0  0  0  0  0  0  0  0  0
    2.8782    1.3866    2.9197 C   0  0  0  0  0  0  0  0  0  0  0  0
    2.3854    1.6172    4.2600 C   0  0  0  0  0  0  0  0  0  0  0  0
    2.5286    0.7184    5.4016 C   0  0  0  0  0  0  0  0  0  0  0  0
    2.1550    0.8473    6.7178 C   0  0  0  0  0  0  0  0  0  0  0  0
    2.5471   -0.3628    7.3695 C   0  0  0  0  0  0  0  0  0  0  0  0
    3.1310   -1.1398    6.4077 C   0  0  0  0  0  0  0  0  0  0  0  0
    3.1240   -0.4969    5.2140 O   0  0  0  0  0  0  0  0  0  0  0  0
    1.7434    2.7588    4.4568 N   0  0  0  0  0  0  0  0  0  0  0  0
    1.6792    3.6241    3.0360 S   0  0  0  0  0  0  0  0  0  0  0  0
    2.5438    2.4476    2.1058 C   0  0  0  0  0  0  0  0  0  0  0  0
    2.8815    2.5723    0.6467 C   0  0  0  0  0  0  0  0  0  0  0  0
    0.4455    0.6137   -1.4295 H   0  0  0  0  0  0  0  0  0  0  0  0
    2.3433   -0.6221   -0.6636 H   0  0  0  0  0  0  0  0  0  0  0  0
    1.4044    0.2047    0.6086 H   0  0  0  0  0  0  0  0  0  0  0  0
    3.7764    1.3831   -0.9076 H   0  0  0  0  0  0  0  0  0  0  0  0
    5.1302    1.0636    1.1011 H   0  0  0  0  0  0  0  0  0  0  0  0
    4.5347   -0.4986    0.5381 H   0  0  0  0  0  0  0  0  0  0  0  0
    4.4278   -0.0995    3.0859 H   0  0  0  0  0  0  0  0  0  0  0  0
    2.9475   -0.6848    2.3669 H   0  0  0  0  0  0  0  0  0  0  0  0
    1.6586    1.7136    7.1465 H   0  0  0  0  0  0  0  0  0  0  0  0
    2.4138   -0.6221    8.4176 H   0  0  0  0  0  0  0  0  0  0  0  0
    3.5792   -2.1298    6.4154 H   0  0  0  0  0  0  0  0  0  0  0  0
    3.7290    3.2707    0.5257 H   0  0  0  0  0  0  0  0  0  0  0  0
    2.0417    3.0005    0.0780 H   0  0  0  0  0  0  0  0  0  0  0  0
  1  2  1  0
  1 17  1  0
  2  3  1  0
  2 18  1  0
  2 19  1  0
  3  4  1  0
  3 16  1  0
  3 20  1  6
  4  5  1  0
  4 21  1  0
  4 22  1  0
  5  6  1  0
  5 23  1  0
  5 24  1  0
  6  7  1  0
  6 15  2  0
  7  8  1  0
  7 13  2  0
  8  9  2  0
  8 12  1  0
  9 10  1  0
  9 25  1  0
 10 11  2  0
 10 26  1  0
 11 12  1  0
 11 27  1  0
 13 14  1  0
 14 15  1  0
 15 16  1  0
 16 28  1  0
 16 29  1  0
M  END

