
     RDKit          3D

 47 49  0  0  0  0  0  0  0  0999 V2000
    2.0265    1.0269   -0.3007 O   0  0  0  0  0  0  0  0  0  0  0  0
    2.1322   -0.1393   -0.0375 C   0  0  0  0  0  0  0  0  0  0  0  0
    1.3344   -1.0727   -0.5842 O   0  0  0  0  0  0  0  0  0  0  0  0
    3.1190   -0.6862    1.0152 C   0  0  2  0  0  0  0  0  0  0  0  0
    4.3604    0.1967    1.2053 C   0  0  0  0  0  0  0  0  0  0  0  0
    5.3468    0.0583    0.0430 C   0  0  0  0  0  0  0  0  0  0  0  0
    5.6588   -1.4042   -0.3220 C   0  0  2  0  0  0  0  0  0  0  0  0
    6.5226   -1.4744   -1.5944 C   0  0  0  0  0  0  0  0  0  0  0  0
    6.7001   -2.8967   -2.1333 C   0  0  0  0  0  0  0  0  0  0  0  0
    5.3397   -3.5645   -2.3612 C   0  0  0  0  0  0  0  0  0  0  0  0
    4.5336   -3.6054   -1.0579 C   0  0  0  0  0  0  0  0  0  0  0  0
    4.3385   -2.1865   -0.5039 C   0  0  1  0  0  0  0  0  0  0  0  0
    3.4928   -2.0830    0.7270 N   0  0  0  0  0  0  0  0  0  0  0  0
    3.5784   -2.9996    1.7730 C   0  0  0  0  0  0  0  0  0  0  0  0
    4.2343   -4.0236    1.7129 O   0  0  0  0  0  0  0  0  0  0  0  0
    2.7088   -2.7433    3.0352 C   0  0  0  0  0  0  0  0  0  0  0  0
    2.7968   -3.7935    4.0154 N   0  0  0  0  0  0  0  0  0  0  0  0
    3.9868   -3.7563    4.8623 C   0  0  0  0  0  0  0  0  0  0  0  0
    4.0197   -4.9473    5.7912 C   0  0  1  0  0  0  0  0  0  0  0  0
    4.5816   -6.2611    5.2988 C   0  0  0  0  0  0  0  0  0  0  0  0
    5.3314   -5.4544    6.3294 C   0  0  0  0  0  0  0  0  0  0  0  0
    1.6328   -1.9427   -0.2602 H   0  0  0  0  0  0  0  0  0  0  0  0
    2.5288   -0.6622    1.9407 H   0  0  0  0  0  0  0  0  0  0  0  0
    4.8437   -0.1049    2.1504 H   0  0  0  0  0  0  0  0  0  0  0  0
    4.0372    1.2419    1.3171 H   0  0  0  0  0  0  0  0  0  0  0  0
    6.2801    0.5966    0.2776 H   0  0  0  0  0  0  0  0  0  0  0  0
    4.9189    0.5556   -0.8454 H   0  0  0  0  0  0  0  0  0  0  0  0
    6.2109   -1.8830    0.5088 H   0  0  0  0  0  0  0  0  0  0  0  0
    7.5012   -1.0062   -1.3932 H   0  0  0  0  0  0  0  0  0  0  0  0
    6.0439   -0.8557   -2.3764 H   0  0  0  0  0  0  0  0  0  0  0  0
    7.2840   -3.4989   -1.4139 H   0  0  0  0  0  0  0  0  0  0  0  0
    7.2837   -2.8742   -3.0687 H   0  0  0  0  0  0  0  0  0  0  0  0
    5.4704   -4.5902   -2.7431 H   0  0  0  0  0  0  0  0  0  0  0  0
    4.7842   -3.0099   -3.1404 H   0  0  0  0  0  0  0  0  0  0  0  0
    5.0553   -4.2273   -0.3219 H   0  0  0  0  0  0  0  0  0  0  0  0
    3.5474   -4.0728   -1.2204 H   0  0  0  0  0  0  0  0  0  0  0  0
    3.7649   -1.6416   -1.2769 H   0  0  0  0  0  0  0  0  0  0  0  0
    1.6610   -2.6116    2.7027 H   0  0  0  0  0  0  0  0  0  0  0  0
    2.9959   -1.7932    3.5149 H   0  0  0  0  0  0  0  0  0  0  0  0
    2.7621   -4.6974    3.5446 H   0  0  0  0  0  0  0  0  0  0  0  0
    3.9552   -2.8237    5.4566 H   0  0  0  0  0  0  0  0  0  0  0  0
    4.9315   -3.7317    4.2789 H   0  0  0  0  0  0  0  0  0  0  0  0
    3.1532   -5.0099    6.4589 H   0  0  0  0  0  0  0  0  0  0  0  0
    4.9836   -6.2897    4.2808 H   0  0  0  0  0  0  0  0  0  0  0  0
    4.0952   -7.1876    5.6168 H   0  0  0  0  0  0  0  0  0  0  0  0
    6.2470   -4.9448    6.0132 H   0  0  0  0  0  0  0  0  0  0  0  0
    5.3601   -5.8221    7.3589 H   0  0  0  0  0  0  0  0  0  0  0  0
  1  2  2  0
  2  3  1  0
  2  4  1  0
  3 22  1  0
  4  5  1  0
  4 13  1  0
  4 23  1  1
  5  6  1  0
  5 24  1  0
  5 25  1  0
  6  7  1  0
  6 26  1  0
  6 27  1  0
  7  8  1  0
  7 12  1  0
  7 28  1  1
  8  9  1  0
  8 29  1  0
  8 30  1  0
  9 10  1  0
  9 31  1  0
  9 32  1  0
 10 11  1  0
 10 33  1  0
 10 34  1  0
 11 12  1  0
 11 35  1  0
 11 36  1  0
 12 13  1  0
 12 37  1  6
 13 14  1  0
 14 15  2  0
 14 16  1  0
 16 17  1  0
 16 38  1  0
 16 39  1  0
 17 18  1  0
 17 40  1  0
 18 19  1  0
 18 41  1  0
 18 42  1  0
 19 20  1  0
 19 21  1  0
 19 43  1  1
 20 21  1  0
 20 44  1  0
 20 45  1  0
 21 46  1  0
 21 47  1  0
M  END

