
     RDKit          3D

 67 71  0  0  0  0  0  0  0  0999 V2000
    6.6277   -2.2048   -2.2440 C   0  0  0  0  0  0  0  0  0  0  0  0
    6.6321   -0.8733   -2.7419 O   0  0  0  0  0  0  0  0  0  0  0  0
    5.4566   -0.3382   -3.1187 C   0  0  0  0  0  0  0  0  0  0  0  0
    5.4887    0.9791   -3.6246 C   0  0  0  0  0  0  0  0  0  0  0  0
    4.2895    1.5556   -4.0330 C   0  0  0  0  0  0  0  0  0  0  0  0
    4.2241    2.9066   -4.7105 C   0  0  0  0  0  0  0  0  0  0  0  0
    3.6438    3.0016   -5.7815 O   0  0  0  0  0  0  0  0  0  0  0  0
    4.8526    3.9724   -4.1108 N   0  0  0  0  0  0  0  0  0  0  0  0
    4.9081    5.2549   -4.8105 C   0  0  0  0  0  0  0  0  0  0  0  0
    4.1450    6.3351   -4.0516 C   0  0  0  0  0  0  0  0  0  0  0  0
    4.5976    6.4131   -2.6626 N   0  0  0  0  0  0  0  0  0  0  0  0
    4.4631    7.6230   -1.9810 C   0  0  0  0  0  0  0  0  0  0  0  0
    4.4977    7.7353   -0.5672 C   0  0  0  0  0  0  0  0  0  0  0  0
    4.4287    8.9922   -0.0073 C   0  0  0  0  0  0  0  0  0  0  0  0
    4.3271   10.1146   -0.8714 C   0  0  0  0  0  0  0  0  0  0  0  0
    4.3208   11.4295   -0.4222 N   0  0  0  0  0  0  0  0  0  0  0  0
    4.1848   11.7313    0.9959 C   0  0  0  0  0  0  0  0  0  0  0  0
    4.7397   13.1316    1.3145 C   0  0  0  0  0  0  0  0  0  0  0  0
    4.2115   14.1885    0.4640 N   0  0  0  0  0  0  0  0  0  0  0  0
    2.8909   14.6901    0.8313 C   0  0  0  0  0  0  0  0  0  0  0  0
    2.9711   15.7823    1.8992 C   0  0  1  0  0  0  0  0  0  0  0  0
    3.6472   17.0887    1.4681 C   0  0  0  0  0  0  0  0  0  0  0  0
    2.9517   18.1138    2.3714 C   0  0  0  0  0  0  0  0  0  0  0  0
    1.5246   17.5547    2.4379 C   0  0  0  0  0  0  0  0  0  0  0  0
    1.6407   16.1445    2.2753 O   0  0  0  0  0  0  0  0  0  0  0  0
    4.4124   13.8362   -0.9372 C   0  0  0  0  0  0  0  0  0  0  0  0
    3.8283   12.4749   -1.3229 C   0  0  0  0  0  0  0  0  0  0  0  0
    4.2305    9.9227   -2.1938 N   0  0  0  0  0  0  0  0  0  0  0  0
    4.2980    8.7199   -2.7275 N   0  0  0  0  0  0  0  0  0  0  0  0
    4.5510    5.1466   -1.9574 C   0  0  0  0  0  0  0  0  0  0  0  0
    5.3019    4.0520   -2.7291 C   0  0  0  0  0  0  0  0  0  0  0  0
    3.1085    0.7944   -3.9338 C   0  0  0  0  0  0  0  0  0  0  0  0
    3.1945   -0.4868   -3.4030 C   0  0  0  0  0  0  0  0  0  0  0  0
    4.3444   -1.0479   -3.0006 N   0  0  0  0  0  0  0  0  0  0  0  0
    7.6734   -2.4410   -2.0074 H   0  0  0  0  0  0  0  0  0  0  0  0
    6.2396   -2.9114   -2.9944 H   0  0  0  0  0  0  0  0  0  0  0  0
    6.0047   -2.2926   -1.3400 H   0  0  0  0  0  0  0  0  0  0  0  0
    6.4457    1.4972   -3.7016 H   0  0  0  0  0  0  0  0  0  0  0  0
    4.4791    5.1122   -5.8094 H   0  0  0  0  0  0  0  0  0  0  0  0
    5.9672    5.5541   -4.9125 H   0  0  0  0  0  0  0  0  0  0  0  0
    3.0580    6.1127   -4.0899 H   0  0  0  0  0  0  0  0  0  0  0  0
    4.2969    7.3151   -4.5175 H   0  0  0  0  0  0  0  0  0  0  0  0
    4.5556    6.8629    0.0830 H   0  0  0  0  0  0  0  0  0  0  0  0
    4.4330    9.0970    1.0770 H   0  0  0  0  0  0  0  0  0  0  0  0
    4.7563   11.0049    1.5906 H   0  0  0  0  0  0  0  0  0  0  0  0
    3.1245   11.6533    1.3215 H   0  0  0  0  0  0  0  0  0  0  0  0
    5.8373   13.1020    1.1907 H   0  0  0  0  0  0  0  0  0  0  0  0
    4.5404   13.3649    2.3719 H   0  0  0  0  0  0  0  0  0  0  0  0
    2.1981   13.9045    1.1962 H   0  0  0  0  0  0  0  0  0  0  0  0
    2.4113   15.1260   -0.0599 H   0  0  0  0  0  0  0  0  0  0  0  0
    3.4966   15.3775    2.7897 H   0  0  0  0  0  0  0  0  0  0  0  0
    3.4241   17.2943    0.4066 H   0  0  0  0  0  0  0  0  0  0  0  0
    4.7397   17.0591    1.5800 H   0  0  0  0  0  0  0  0  0  0  0  0
    2.9912   19.1434    1.9845 H   0  0  0  0  0  0  0  0  0  0  0  0
    3.4121   18.1144    3.3734 H   0  0  0  0  0  0  0  0  0  0  0  0
    0.8940   17.9711    1.6282 H   0  0  0  0  0  0  0  0  0  0  0  0
    1.0212   17.7729    3.3956 H   0  0  0  0  0  0  0  0  0  0  0  0
    5.4998   13.8201   -1.1341 H   0  0  0  0  0  0  0  0  0  0  0  0
    3.9776   14.6188   -1.5783 H   0  0  0  0  0  0  0  0  0  0  0  0
    4.1085   12.2045   -2.3475 H   0  0  0  0  0  0  0  0  0  0  0  0
    2.7181   12.5128   -1.2927 H   0  0  0  0  0  0  0  0  0  0  0  0
    3.5030    4.8158   -1.7848 H   0  0  0  0  0  0  0  0  0  0  0  0
    5.0322    5.2406   -0.9746 H   0  0  0  0  0  0  0  0  0  0  0  0
    5.1502    3.0915   -2.2240 H   0  0  0  0  0  0  0  0  0  0  0  0
    6.3837    4.2817   -2.7094 H   0  0  0  0  0  0  0  0  0  0  0  0
    2.1581    1.2019   -4.2805 H   0  0  0  0  0  0  0  0  0  0  0  0
    2.2942   -1.1034   -3.2991 H   0  0  0  0  0  0  0  0  0  0  0  0
  1  2  1  0
  1 35  1  0
  1 36  1  0
  1 37  1  0
  2  3  1  0
  3  4  2  0
  3 34  1  0
  4  5  1  0
  4 38  1  0
  5  6  1  0
  5 32  2  0
  6  7  2  0
  6  8  1  0
  8  9  1  0
  8 31  1  0
  9 10  1  0
  9 39  1  0
  9 40  1  0
 10 11  1  0
 10 41  1  0
 10 42  1  0
 11 12  1  0
 11 30  1  0
 12 13  2  0
 12 29  1  0
 13 14  1  0
 13 43  1  0
 14 15  2  0
 14 44  1  0
 15 16  1  0
 15 28  1  0
 16 17  1  0
 16 27  1  0
 17 18  1  0
 17 45  1  0
 17 46  1  0
 18 19  1  0
 18 47  1  0
 18 48  1  0
 19 20  1  0
 19 26  1  0
 20 21  1  0
 20 49  1  0
 20 50  1  0
 21 22  1  0
 21 25  1  0
 21 51  1  1
 22 23  1  0
 22 52  1  0
 22 53  1  0
 23 24  1  0
 23 54  1  0
 23 55  1  0
 24 25  1  0
 24 56  1  0
 24 57  1  0
 26 27  1  0
 26 58  1  0
 26 59  1  0
 27 60  1  0
 27 61  1  0
 28 29  2  0
 30 31  1  0
 30 62  1  0
 30 63  1  0
 31 64  1  0
 31 65  1  0
 32 33  1  0
 32 66  1  0
 33 34  2  0
 33 67  1  0
M  END

