
     RDKit          3D

 42 44  0  0  0  0  0  0  0  0999 V2000
    0.6134   -0.6761   -0.9347 O   0  0  0  0  0  0  0  0  0  0  0  0
    1.3423    0.2942   -0.9053 C   0  0  0  0  0  0  0  0  0  0  0  0
    1.2511    1.3230    0.0075 N   0  0  0  0  0  0  0  0  0  0  0  0
    0.3785    1.2300    1.0837 N   0  0  0  0  0  0  0  0  0  0  0  0
    1.0169    0.7801    2.3275 C   0  0  0  0  0  0  0  0  0  0  0  0
    1.8101    1.8911    3.0359 C   0  0  0  0  0  0  0  0  0  0  0  0
    0.9420    3.1403    3.2480 C   0  0  0  0  0  0  0  0  0  0  0  0
    0.2992    3.5924    1.9282 C   0  0  0  0  0  0  0  0  0  0  0  0
   -0.4473    2.4239    1.2625 C   0  0  0  0  0  0  0  0  0  0  0  0
    2.4229    0.5166   -1.9426 C   0  0  0  0  0  0  0  0  0  0  0  0
    2.4768    1.7244   -2.6529 C   0  0  0  0  0  0  0  0  0  0  0  0
    3.3620    1.9013   -3.7196 C   0  0  0  0  0  0  0  0  0  0  0  0
    4.2172    0.8596   -4.0832 C   0  0  0  0  0  0  0  0  0  0  0  0
    4.1961   -0.3405   -3.3695 C   0  0  0  0  0  0  0  0  0  0  0  0
    3.3093   -0.5240   -2.2992 C   0  0  0  0  0  0  0  0  0  0  0  0
    3.3171   -1.7502   -1.5937 N   0  0  0  0  0  0  0  0  0  0  0  0
    3.2377   -3.0496   -2.2640 C   0  0  0  0  0  0  0  0  0  0  0  0
    2.7669   -3.9910   -1.1415 C   0  0  0  0  0  0  0  0  0  0  0  0
    3.3197   -3.3370    0.1289 C   0  0  0  0  0  0  0  0  0  0  0  0
    3.3735   -1.8521   -0.2176 C   0  0  0  0  0  0  0  0  0  0  0  0
    3.4743   -0.9207    0.5577 O   0  0  0  0  0  0  0  0  0  0  0  0
    2.0833    1.9092    0.0966 H   0  0  0  0  0  0  0  0  0  0  0  0
    1.6614   -0.0773    2.0888 H   0  0  0  0  0  0  0  0  0  0  0  0
    0.2111    0.4218    2.9933 H   0  0  0  0  0  0  0  0  0  0  0  0
    2.6999    2.1516    2.4329 H   0  0  0  0  0  0  0  0  0  0  0  0
    2.1987    1.5142    3.9971 H   0  0  0  0  0  0  0  0  0  0  0  0
    1.5342    3.9575    3.6930 H   0  0  0  0  0  0  0  0  0  0  0  0
    0.1417    2.9051    3.9750 H   0  0  0  0  0  0  0  0  0  0  0  0
    1.0816    3.9698    1.2433 H   0  0  0  0  0  0  0  0  0  0  0  0
   -0.3945    4.4341    2.0954 H   0  0  0  0  0  0  0  0  0  0  0  0
   -0.8540    2.7092    0.2807 H   0  0  0  0  0  0  0  0  0  0  0  0
   -1.3045    2.1335    1.8969 H   0  0  0  0  0  0  0  0  0  0  0  0
    1.7833    2.5246   -2.3834 H   0  0  0  0  0  0  0  0  0  0  0  0
    3.3744    2.8453   -4.2697 H   0  0  0  0  0  0  0  0  0  0  0  0
    4.9128    0.9815   -4.9173 H   0  0  0  0  0  0  0  0  0  0  0  0
    4.8866   -1.1442   -3.6338 H   0  0  0  0  0  0  0  0  0  0  0  0
    4.2233   -3.3563   -2.6637 H   0  0  0  0  0  0  0  0  0  0  0  0
    2.5321   -3.0006   -3.1069 H   0  0  0  0  0  0  0  0  0  0  0  0
    3.1038   -5.0263   -1.2948 H   0  0  0  0  0  0  0  0  0  0  0  0
    1.6667   -3.9878   -1.1086 H   0  0  0  0  0  0  0  0  0  0  0  0
    4.3462   -3.6707    0.3636 H   0  0  0  0  0  0  0  0  0  0  0  0
    2.7099   -3.4902    1.0298 H   0  0  0  0  0  0  0  0  0  0  0  0
  1  2  2  0
  2  3  1  0
  2 10  1  0
  3  4  1  0
  3 22  1  0
  4  5  1  0
  4  9  1  0
  5  6  1  0
  5 23  1  0
  5 24  1  0
  6  7  1  0
  6 25  1  0
  6 26  1  0
  7  8  1  0
  7 27  1  0
  7 28  1  0
  8  9  1  0
  8 29  1  0
  8 30  1  0
  9 31  1  0
  9 32  1  0
 10 11  2  0
 10 15  1  0
 11 12  1  0
 11 33  1  0
 12 13  2  0
 12 34  1  0
 13 14  1  0
 13 35  1  0
 14 15  2  0
 14 36  1  0
 15 16  1  0
 16 17  1  0
 16 20  1  0
 17 18  1  0
 17 37  1  0
 17 38  1  0
 18 19  1  0
 18 39  1  0
 18 40  1  0
 19 20  1  0
 19 41  1  0
 19 42  1  0
 20 21  2  0
M  END

