
     RDKit          3D

 46 48  0  0  0  0  0  0  0  0999 V2000
    0.8903    1.8678    0.9118 C   0  0  0  0  0  0  0  0  0  0  0  0
    2.1532    1.0375    0.7949 C   0  0  0  0  0  0  0  0  0  0  0  0
    3.1824    1.8950    0.2766 O   0  0  0  0  0  0  0  0  0  0  0  0
    4.4953    1.6276    0.4092 C   0  0  0  0  0  0  0  0  0  0  0  0
    5.3422    2.7394    0.5142 C   0  0  0  0  0  0  0  0  0  0  0  0
    6.7216    2.6000    0.6167 C   0  0  0  0  0  0  0  0  0  0  0  0
    7.7243    4.2275    0.7518 Br  0  0  0  0  0  0  0  0  0  0  0  0
    7.3350    1.3179    0.6303 C   0  0  0  0  0  0  0  0  0  0  0  0
    8.7771    1.2045    0.7454 C   0  0  0  0  0  0  0  0  0  0  0  0
    9.6777    0.1751    0.7828 C   0  0  0  0  0  0  0  0  0  0  0  0
   11.4145    0.5540    0.9348 S   0  0  0  0  0  0  0  0  0  0  0  0
   11.9010   -1.1372    0.8911 C   0  0  0  0  0  0  0  0  0  0  0  0
   13.4600   -1.6345    0.9667 S   0  0  0  0  0  0  0  0  0  0  0  0
   10.7670   -1.9353    0.7935 N   0  0  0  0  0  0  0  0  0  0  0  0
   10.8632   -3.3660    0.6882 C   0  0  0  0  0  0  0  0  0  0  0  0
   10.7813   -3.9389   -0.5882 C   0  0  0  0  0  0  0  0  0  0  0  0
   10.9288   -5.3103   -0.7717 C   0  0  0  0  0  0  0  0  0  0  0  0
   11.1731   -6.1236    0.3416 C   0  0  0  0  0  0  0  0  0  0  0  0
   11.2425   -5.5672    1.6144 C   0  0  0  0  0  0  0  0  0  0  0  0
   11.0787   -4.1849    1.8163 C   0  0  0  0  0  0  0  0  0  0  0  0
   11.1861   -3.7631    3.0984 O   0  0  0  0  0  0  0  0  0  0  0  0
   10.3913   -2.7054    3.6097 C   0  0  0  0  0  0  0  0  0  0  0  0
    9.5116   -1.2962    0.7232 C   0  0  0  0  0  0  0  0  0  0  0  0
    8.4786   -1.9369    0.6446 O   0  0  0  0  0  0  0  0  0  0  0  0
    6.4612    0.2066    0.5182 C   0  0  0  0  0  0  0  0  0  0  0  0
    5.0811    0.3317    0.3958 C   0  0  0  0  0  0  0  0  0  0  0  0
    4.2442   -0.7262    0.2423 O   0  0  0  0  0  0  0  0  0  0  0  0
    4.7861   -2.0339    0.2214 C   0  0  0  0  0  0  0  0  0  0  0  0
    0.0616    1.2428    1.2801 H   0  0  0  0  0  0  0  0  0  0  0  0
    0.6037    2.2783   -0.0688 H   0  0  0  0  0  0  0  0  0  0  0  0
    1.0311    2.7081    1.6089 H   0  0  0  0  0  0  0  0  0  0  0  0
    2.0092    0.1804    0.1212 H   0  0  0  0  0  0  0  0  0  0  0  0
    2.4640    0.6420    1.7766 H   0  0  0  0  0  0  0  0  0  0  0  0
    4.8766    3.7248    0.5147 H   0  0  0  0  0  0  0  0  0  0  0  0
    9.2547    2.1864    0.8167 H   0  0  0  0  0  0  0  0  0  0  0  0
   10.6147   -3.2785   -1.4418 H   0  0  0  0  0  0  0  0  0  0  0  0
   10.8661   -5.7397   -1.7736 H   0  0  0  0  0  0  0  0  0  0  0  0
   11.3015   -7.2018    0.2173 H   0  0  0  0  0  0  0  0  0  0  0  0
   11.4210   -6.1832    2.4978 H   0  0  0  0  0  0  0  0  0  0  0  0
   10.3158   -2.8723    4.6939 H   0  0  0  0  0  0  0  0  0  0  0  0
    9.3778   -2.7155    3.1757 H   0  0  0  0  0  0  0  0  0  0  0  0
   10.8549   -1.7192    3.4452 H   0  0  0  0  0  0  0  0  0  0  0  0
    6.9158   -0.7807    0.5149 H   0  0  0  0  0  0  0  0  0  0  0  0
    3.9368   -2.7173    0.0917 H   0  0  0  0  0  0  0  0  0  0  0  0
    5.3089   -2.2749    1.1626 H   0  0  0  0  0  0  0  0  0  0  0  0
    5.4934   -2.1681   -0.6145 H   0  0  0  0  0  0  0  0  0  0  0  0
  1  2  1  0
  1 29  1  0
  1 30  1  0
  1 31  1  0
  2  3  1  0
  2 32  1  0
  2 33  1  0
  3  4  1  0
  4  5  2  0
  4 26  1  0
  5  6  1  0
  5 34  1  0
  6  7  1  0
  6  8  2  0
  8  9  1  0
  8 25  1  0
  9 10  2  0
  9 35  1  0
 10 11  1  0
 10 23  1  0
 11 12  1  0
 12 13  2  0
 12 14  1  0
 14 15  1  0
 14 23  1  0
 15 16  2  0
 15 20  1  0
 16 17  1  0
 16 36  1  0
 17 18  2  0
 17 37  1  0
 18 19  1  0
 18 38  1  0
 19 20  2  0
 19 39  1  0
 20 21  1  0
 21 22  1  0
 22 40  1  0
 22 41  1  0
 22 42  1  0
 23 24  2  0
 25 26  2  0
 25 43  1  0
 26 27  1  0
 27 28  1  0
 28 44  1  0
 28 45  1  0
 28 46  1  0
M  END

