
     RDKit          3D

 37 37  0  0  0  0  0  0  0  0999 V2000
    2.2467    2.0144   -1.0512 C   0  0  0  0  0  0  0  0  0  0  0  0
    3.3344    1.1461   -0.4169 C   0  0  0  0  0  0  0  0  0  0  0  0
    4.0614    0.2203   -1.4039 C   0  0  1  0  0  0  0  0  0  0  0  0
    4.9142    0.9760   -2.4433 C   0  0  0  0  0  0  0  0  0  0  0  0
    4.9002   -0.8090   -0.6554 C   0  0  0  0  0  0  0  0  0  0  0  0
    5.0493   -0.8208    0.5433 O   0  0  0  0  0  0  0  0  0  0  0  0
    5.5739   -1.9304   -1.4658 C   0  0  1  0  0  0  0  0  0  0  0  0
    4.9381   -2.1409   -2.6855 F   0  0  0  0  0  0  0  0  0  0  0  0
    7.0771   -1.6468   -1.7076 C   0  0  0  0  0  0  0  0  0  0  0  0
    7.5742   -0.6350   -1.2570 O   0  0  0  0  0  0  0  0  0  0  0  0
    7.8737   -2.6510   -2.4759 C   0  0  0  0  0  0  0  0  0  0  0  0
    9.2375   -2.3697   -2.6848 C   0  0  0  0  0  0  0  0  0  0  0  0
   10.0589   -3.2651   -3.3693 C   0  0  0  0  0  0  0  0  0  0  0  0
   11.5231   -2.9767   -3.5967 C   0  0  0  0  0  0  0  0  0  0  0  0
    9.4865   -4.4593   -3.8476 C   0  0  0  0  0  0  0  0  0  0  0  0
    8.1344   -4.7677   -3.6594 C   0  0  0  0  0  0  0  0  0  0  0  0
    7.5400   -6.0530   -4.1841 C   0  0  0  0  0  0  0  0  0  0  0  0
    7.3313   -3.8470   -2.9680 C   0  0  0  0  0  0  0  0  0  0  0  0
    1.7318    2.6161   -0.2856 H   0  0  0  0  0  0  0  0  0  0  0  0
    1.4828    1.3984   -1.5557 H   0  0  0  0  0  0  0  0  0  0  0  0
    2.6508    2.7168   -1.7976 H   0  0  0  0  0  0  0  0  0  0  0  0
    2.8925    0.5269    0.3799 H   0  0  0  0  0  0  0  0  0  0  0  0
    4.0818    1.7801    0.0902 H   0  0  0  0  0  0  0  0  0  0  0  0
    3.3122   -0.3715   -1.9656 H   0  0  0  0  0  0  0  0  0  0  0  0
    5.7333    1.5259   -1.9553 H   0  0  0  0  0  0  0  0  0  0  0  0
    4.2921    1.6967   -2.9943 H   0  0  0  0  0  0  0  0  0  0  0  0
    5.3528    0.2914   -3.1829 H   0  0  0  0  0  0  0  0  0  0  0  0
    5.4792   -2.8524   -0.8667 H   0  0  0  0  0  0  0  0  0  0  0  0
    9.6352   -1.4325   -2.2901 H   0  0  0  0  0  0  0  0  0  0  0  0
   11.8135   -2.0054   -3.1713 H   0  0  0  0  0  0  0  0  0  0  0  0
   11.7647   -2.9613   -4.6726 H   0  0  0  0  0  0  0  0  0  0  0  0
   12.1588   -3.7513   -3.1360 H   0  0  0  0  0  0  0  0  0  0  0  0
   10.1205   -5.1709   -4.3865 H   0  0  0  0  0  0  0  0  0  0  0  0
    8.2870   -6.6564   -4.7201 H   0  0  0  0  0  0  0  0  0  0  0  0
    6.7066   -5.8533   -4.8777 H   0  0  0  0  0  0  0  0  0  0  0  0
    7.1349   -6.6697   -3.3645 H   0  0  0  0  0  0  0  0  0  0  0  0
    6.2710   -4.0677   -2.8360 H   0  0  0  0  0  0  0  0  0  0  0  0
  1  2  1  0
  1 19  1  0
  1 20  1  0
  1 21  1  0
  2  3  1  0
  2 22  1  0
  2 23  1  0
  3  4  1  0
  3  5  1  0
  3 24  1  6
  4 25  1  0
  4 26  1  0
  4 27  1  0
  5  6  2  0
  5  7  1  0
  7  8  1  0
  7  9  1  0
  7 28  1  1
  9 10  2  0
  9 11  1  0
 11 12  2  0
 11 18  1  0
 12 13  1  0
 12 29  1  0
 13 14  1  0
 13 15  2  0
 14 30  1  0
 14 31  1  0
 14 32  1  0
 15 16  1  0
 15 33  1  0
 16 17  1  0
 16 18  2  0
 17 34  1  0
 17 35  1  0
 17 36  1  0
 18 37  1  0
M  END

