
     RDKit          3D

 58 60  0  0  0  0  0  0  0  0999 V2000
    6.4259   -2.6047   -9.3123 C   0  0  0  0  0  0  0  0  0  0  0  0
    6.2602   -1.7988   -8.0192 C   0  0  1  0  0  0  0  0  0  0  0  0
    7.3317   -0.7124   -7.8756 C   0  0  0  0  0  0  0  0  0  0  0  0
    4.8592   -1.1877   -7.9413 C   0  0  0  0  0  0  0  0  0  0  0  0
    6.2902   -2.6937   -6.8607 O   0  0  0  0  0  0  0  0  0  0  0  0
    7.3816   -3.4337   -6.5609 C   0  0  0  0  0  0  0  0  0  0  0  0
    8.4150   -3.4443   -7.2045 O   0  0  0  0  0  0  0  0  0  0  0  0
    7.1837   -4.1766   -5.4251 N   0  0  0  0  0  0  0  0  0  0  0  0
    8.2214   -5.0922   -4.9731 C   0  0  0  0  0  0  0  0  0  0  0  0
    8.4691   -4.9181   -3.4749 C   0  0  0  0  0  0  0  0  0  0  0  0
    7.2261   -5.0721   -2.7275 N   0  0  0  0  0  0  0  0  0  0  0  0
    7.3420   -5.1830   -1.2686 C   0  0  2  0  0  0  0  0  0  0  0  0
    6.3093   -5.1835   -0.8885 H   0  0  0  0  0  0  0  0  0  0  0  0
    8.1407   -4.0471   -0.5463 C   0  0  0  0  0  0  0  0  0  0  0  0
    9.3759   -4.7318    0.0530 C   0  0  0  0  0  0  0  0  0  0  0  0
    8.8522   -6.1225    0.4227 C   0  0  0  0  0  0  0  0  0  0  0  0
    7.9799   -6.5274   -0.7822 C   0  0  1  0  0  0  0  0  0  0  0  0
    8.6628   -6.8991   -1.5807 H   0  0  0  0  0  0  0  0  0  0  0  0
    6.9753   -7.5453   -0.4725 N   0  0  0  0  0  0  0  0  0  0  0  0
    7.5013   -8.7149    0.2289 C   0  0  0  0  0  0  0  0  0  0  0  0
    6.3654   -9.6504    0.6410 C   0  0  0  0  0  0  0  0  0  0  0  0
    5.6074  -10.0527   -0.5328 N   0  0  0  0  0  0  0  0  0  0  0  0
    5.0666   -8.8987   -1.2351 C   0  0  0  0  0  0  0  0  0  0  0  0
    6.2072   -7.9709   -1.6431 C   0  0  0  0  0  0  0  0  0  0  0  0
    6.2367   -4.0964   -3.1657 C   0  0  0  0  0  0  0  0  0  0  0  0
    5.9461   -4.2394   -4.6612 C   0  0  0  0  0  0  0  0  0  0  0  0
    6.2916   -1.9431  -10.1825 H   0  0  0  0  0  0  0  0  0  0  0  0
    5.6652   -3.3993   -9.3675 H   0  0  0  0  0  0  0  0  0  0  0  0
    7.4213   -3.0630   -9.3648 H   0  0  0  0  0  0  0  0  0  0  0  0
    7.2291    0.0212   -8.6907 H   0  0  0  0  0  0  0  0  0  0  0  0
    8.3387   -1.1462   -7.9130 H   0  0  0  0  0  0  0  0  0  0  0  0
    7.2095   -0.1789   -6.9197 H   0  0  0  0  0  0  0  0  0  0  0  0
    4.7024   -0.4853   -8.7739 H   0  0  0  0  0  0  0  0  0  0  0  0
    4.7259   -0.6411   -6.9951 H   0  0  0  0  0  0  0  0  0  0  0  0
    4.0900   -1.9729   -7.9983 H   0  0  0  0  0  0  0  0  0  0  0  0
    9.1317   -4.8887   -5.5500 H   0  0  0  0  0  0  0  0  0  0  0  0
    7.9081   -6.1358   -5.1681 H   0  0  0  0  0  0  0  0  0  0  0  0
    8.9359   -3.9205   -3.3112 H   0  0  0  0  0  0  0  0  0  0  0  0
    9.1951   -5.6770   -3.1478 H   0  0  0  0  0  0  0  0  0  0  0  0
    7.5246   -3.6249    0.2641 H   0  0  0  0  0  0  0  0  0  0  0  0
    8.3884   -3.2113   -1.2182 H   0  0  0  0  0  0  0  0  0  0  0  0
    9.8046   -4.1903    0.9109 H   0  0  0  0  0  0  0  0  0  0  0  0
   10.1750   -4.8194   -0.7039 H   0  0  0  0  0  0  0  0  0  0  0  0
    8.2114   -6.0546    1.3194 H   0  0  0  0  0  0  0  0  0  0  0  0
    9.6564   -6.8419    0.6384 H   0  0  0  0  0  0  0  0  0  0  0  0
    8.0371   -8.3959    1.1339 H   0  0  0  0  0  0  0  0  0  0  0  0
    8.2212   -9.2831   -0.4055 H   0  0  0  0  0  0  0  0  0  0  0  0
    5.7442   -9.1203    1.3989 H   0  0  0  0  0  0  0  0  0  0  0  0
    6.7909  -10.5447    1.1258 H   0  0  0  0  0  0  0  0  0  0  0  0
    4.8692  -10.7074   -0.2824 H   0  0  0  0  0  0  0  0  0  0  0  0
    4.3454   -8.3141   -0.6192 H   0  0  0  0  0  0  0  0  0  0  0  0
    4.5338   -9.2385   -2.1387 H   0  0  0  0  0  0  0  0  0  0  0  0
    5.8107   -7.0894   -2.1629 H   0  0  0  0  0  0  0  0  0  0  0  0
    6.8579   -8.5056   -2.3735 H   0  0  0  0  0  0  0  0  0  0  0  0
    6.5637   -3.0491   -2.9676 H   0  0  0  0  0  0  0  0  0  0  0  0
    5.3025   -4.2575   -2.6032 H   0  0  0  0  0  0  0  0  0  0  0  0
    5.2719   -3.4449   -4.9975 H   0  0  0  0  0  0  0  0  0  0  0  0
    5.4504   -5.2137   -4.8384 H   0  0  0  0  0  0  0  0  0  0  0  0
  1  2  1  0
  1 27  1  0
  1 28  1  0
  1 29  1  0
  2  3  1  0
  2  4  1  0
  2  5  1  1
  3 30  1  0
  3 31  1  0
  3 32  1  0
  4 33  1  0
  4 34  1  0
  4 35  1  0
  5  6  1  0
  6  7  2  0
  6  8  1  0
  8  9  1  0
  8 26  1  0
  9 10  1  0
  9 36  1  0
  9 37  1  0
 10 11  1  0
 10 38  1  0
 10 39  1  0
 11 12  1  0
 11 25  1  0
 12 13  1  1
 12 14  1  0
 12 17  1  0
 14 15  1  0
 14 40  1  0
 14 41  1  0
 15 16  1  0
 15 42  1  0
 15 43  1  0
 16 17  1  0
 16 44  1  0
 16 45  1  0
 17 18  1  6
 17 19  1  0
 19 20  1  0
 19 24  1  0
 20 21  1  0
 20 46  1  0
 20 47  1  0
 21 22  1  0
 21 48  1  0
 21 49  1  0
 22 23  1  0
 22 50  1  0
 23 24  1  0
 23 51  1  0
 23 52  1  0
 24 53  1  0
 24 54  1  0
 25 26  1  0
 25 55  1  0
 25 56  1  0
 26 57  1  0
 26 58  1  0
M  END

