
     RDKit          3D

 35 36  0  0  0  0  0  0  0  0999 V2000
    9.8770   -2.6302    3.7556 C   0  0  0  0  0  0  0  0  0  0  0  0
    8.6146   -2.2468    3.0487 C   0  0  0  0  0  0  0  0  0  0  0  0
    7.9000   -1.1950    3.3376 N   0  0  0  0  0  0  0  0  0  0  0  0
    6.7820   -1.0774    2.5482 C   0  0  0  0  0  0  0  0  0  0  0  0
    5.8826    0.1106    2.7282 C   0  0  0  0  0  0  0  0  0  0  0  0
    6.6118   -2.1024    1.6305 C   0  0  0  0  0  0  0  0  0  0  0  0
    5.5827   -2.1667    0.5532 C   0  0  0  0  0  0  0  0  0  0  0  0
    5.0846   -1.1321    0.1329 O   0  0  0  0  0  0  0  0  0  0  0  0
    5.2724   -3.4239    0.0352 N   0  0  0  0  0  0  0  0  0  0  0  0
    4.5445   -3.4800   -1.2529 C   0  0  1  0  0  0  0  0  0  0  0  0
    5.1560   -2.5869   -2.3347 C   0  0  0  0  0  0  0  0  0  0  0  0
    4.5698   -4.9314   -1.7705 C   0  0  0  0  0  0  0  0  0  0  0  0
    4.1688   -5.8893   -0.8226 O   0  0  0  0  0  0  0  0  0  0  0  0
    5.0057   -5.8518    0.3104 C   0  0  0  0  0  0  0  0  0  0  0  0
    4.9163   -4.4952    1.0071 C   0  0  2  0  0  0  0  0  0  0  0  0
    3.5327   -4.2713    1.6359 C   0  0  0  0  0  0  0  0  0  0  0  0
    7.9532   -3.2140    1.7480 S   0  0  0  0  0  0  0  0  0  0  0  0
   10.1734   -1.8007    4.4115 H   0  0  0  0  0  0  0  0  0  0  0  0
   10.6928   -2.8408    3.0469 H   0  0  0  0  0  0  0  0  0  0  0  0
    9.7323   -3.5303    4.3755 H   0  0  0  0  0  0  0  0  0  0  0  0
    6.1968    0.6674    3.6201 H   0  0  0  0  0  0  0  0  0  0  0  0
    4.8303   -0.1928    2.8387 H   0  0  0  0  0  0  0  0  0  0  0  0
    5.9240    0.7666    1.8461 H   0  0  0  0  0  0  0  0  0  0  0  0
    3.4906   -3.1805   -1.0976 H   0  0  0  0  0  0  0  0  0  0  0  0
    6.2341   -2.7927   -2.4402 H   0  0  0  0  0  0  0  0  0  0  0  0
    5.0255   -1.5241   -2.1077 H   0  0  0  0  0  0  0  0  0  0  0  0
    4.6745   -2.8033   -3.3013 H   0  0  0  0  0  0  0  0  0  0  0  0
    5.5973   -5.1574   -2.1265 H   0  0  0  0  0  0  0  0  0  0  0  0
    3.8857   -5.0183   -2.6276 H   0  0  0  0  0  0  0  0  0  0  0  0
    6.0570   -6.0528    0.0216 H   0  0  0  0  0  0  0  0  0  0  0  0
    4.6723   -6.6507    0.9895 H   0  0  0  0  0  0  0  0  0  0  0  0
    5.6674   -4.4841    1.8067 H   0  0  0  0  0  0  0  0  0  0  0  0
    2.7296   -4.4103    0.8975 H   0  0  0  0  0  0  0  0  0  0  0  0
    3.4471   -3.2589    2.0585 H   0  0  0  0  0  0  0  0  0  0  0  0
    3.3662   -4.9943    2.4502 H   0  0  0  0  0  0  0  0  0  0  0  0
  1  2  1  0
  1 18  1  0
  1 19  1  0
  1 20  1  0
  2  3  2  0
  2 17  1  0
  3  4  1  0
  4  5  1  0
  4  6  2  0
  5 21  1  0
  5 22  1  0
  5 23  1  0
  6  7  1  0
  6 17  1  0
  7  8  2  0
  7  9  1  0
  9 10  1  0
  9 15  1  0
 10 11  1  0
 10 12  1  0
 10 24  1  1
 11 25  1  0
 11 26  1  0
 11 27  1  0
 12 13  1  0
 12 28  1  0
 12 29  1  0
 13 14  1  0
 14 15  1  0
 14 30  1  0
 14 31  1  0
 15 16  1  0
 15 32  1  1
 16 33  1  0
 16 34  1  0
 16 35  1  0
M  END

