
     RDKit          3D

 46 47  0  0  0  0  0  0  0  0999 V2000
    4.6521   -1.6986   -4.2964 C   0  0  0  0  0  0  0  0  0  0  0  0
    4.2674   -2.0681   -2.8631 C   0  0  0  0  0  0  0  0  0  0  0  0
    5.0263   -1.2505   -1.8133 C   0  0  0  0  0  0  0  0  0  0  0  0
    4.6389   -1.5384   -0.3600 C   0  0  0  0  0  0  0  0  0  0  0  0
    4.9542   -2.9087    0.0704 N   0  0  0  0  0  0  0  0  0  0  0  0
    6.2344   -3.1517    0.3203 N   0  0  0  0  0  0  0  0  0  0  0  0
    6.6047   -4.3464    0.7052 C   0  0  0  0  0  0  0  0  0  0  0  0
    8.0662   -4.5974    0.9876 C   0  0  0  0  0  0  0  0  0  0  0  0
    8.4482   -5.7084    1.3307 O   0  0  0  0  0  0  0  0  0  0  0  0
    8.8766   -3.5197    0.8390 N   0  0  0  0  0  0  0  0  0  0  0  0
   10.3114   -3.5885    1.0498 C   0  0  0  0  0  0  0  0  0  0  0  0
   11.1174   -3.9861   -0.2068 C   0  0  1  0  0  0  0  0  0  0  0  0
   10.9248   -3.0162   -1.3904 C   0  0  0  0  0  0  0  0  0  0  0  0
   11.6455   -1.6732   -1.1976 C   0  0  0  0  0  0  0  0  0  0  0  0
   13.1368   -1.8747   -0.8971 C   0  0  0  0  0  0  0  0  0  0  0  0
   13.3462   -2.8047    0.3053 C   0  0  0  0  0  0  0  0  0  0  0  0
   12.6179   -4.1448    0.1163 C   0  0  0  0  0  0  0  0  0  0  0  0
    5.6658   -5.4153    0.8704 C   0  0  0  0  0  0  0  0  0  0  0  0
    4.3525   -5.1731    0.6189 C   0  0  0  0  0  0  0  0  0  0  0  0
    3.8999   -3.8598    0.1771 C   0  0  0  0  0  0  0  0  0  0  0  0
    2.7499   -3.5520   -0.0886 O   0  0  0  0  0  0  0  0  0  0  0  0
    4.0982   -2.3053   -5.0300 H   0  0  0  0  0  0  0  0  0  0  0  0
    5.7285   -1.8575   -4.4784 H   0  0  0  0  0  0  0  0  0  0  0  0
    4.4353   -0.6384   -4.5107 H   0  0  0  0  0  0  0  0  0  0  0  0
    4.4576   -3.1432   -2.6999 H   0  0  0  0  0  0  0  0  0  0  0  0
    3.1822   -1.9344   -2.7159 H   0  0  0  0  0  0  0  0  0  0  0  0
    4.8523   -0.1733   -1.9874 H   0  0  0  0  0  0  0  0  0  0  0  0
    6.1141   -1.4067   -1.9284 H   0  0  0  0  0  0  0  0  0  0  0  0
    3.5592   -1.4130   -0.2098 H   0  0  0  0  0  0  0  0  0  0  0  0
    5.1783   -0.8612    0.3184 H   0  0  0  0  0  0  0  0  0  0  0  0
    8.4375   -2.6568    0.5377 H   0  0  0  0  0  0  0  0  0  0  0  0
   10.4908   -4.3419    1.8316 H   0  0  0  0  0  0  0  0  0  0  0  0
   10.6421   -2.6159    1.4468 H   0  0  0  0  0  0  0  0  0  0  0  0
   10.7289   -4.9742   -0.5062 H   0  0  0  0  0  0  0  0  0  0  0  0
    9.8489   -2.8574   -1.5762 H   0  0  0  0  0  0  0  0  0  0  0  0
   11.3189   -3.5001   -2.3021 H   0  0  0  0  0  0  0  0  0  0  0  0
   11.1811   -1.1083   -0.3680 H   0  0  0  0  0  0  0  0  0  0  0  0
   11.5167   -1.0470   -2.0966 H   0  0  0  0  0  0  0  0  0  0  0  0
   13.6300   -0.9034   -0.7234 H   0  0  0  0  0  0  0  0  0  0  0  0
   13.6261   -2.3164   -1.7854 H   0  0  0  0  0  0  0  0  0  0  0  0
   12.9854   -2.3026    1.2214 H   0  0  0  0  0  0  0  0  0  0  0  0
   14.4224   -2.9852    0.4663 H   0  0  0  0  0  0  0  0  0  0  0  0
   12.7462   -4.7810    1.0090 H   0  0  0  0  0  0  0  0  0  0  0  0
   13.0949   -4.6899   -0.7179 H   0  0  0  0  0  0  0  0  0  0  0  0
    6.0438   -6.3858    1.1964 H   0  0  0  0  0  0  0  0  0  0  0  0
    3.5781   -5.9351    0.7249 H   0  0  0  0  0  0  0  0  0  0  0  0
  1  2  1  0
  1 22  1  0
  1 23  1  0
  1 24  1  0
  2  3  1  0
  2 25  1  0
  2 26  1  0
  3  4  1  0
  3 27  1  0
  3 28  1  0
  4  5  1  0
  4 29  1  0
  4 30  1  0
  5  6  1  0
  5 20  1  0
  6  7  2  0
  7  8  1  0
  7 18  1  0
  8  9  2  0
  8 10  1  0
 10 11  1  0
 10 31  1  0
 11 12  1  0
 11 32  1  0
 11 33  1  0
 12 13  1  0
 12 17  1  0
 12 34  1  6
 13 14  1  0
 13 35  1  0
 13 36  1  0
 14 15  1  0
 14 37  1  0
 14 38  1  0
 15 16  1  0
 15 39  1  0
 15 40  1  0
 16 17  1  0
 16 41  1  0
 16 42  1  0
 17 43  1  0
 17 44  1  0
 18 19  2  0
 18 45  1  0
 19 20  1  0
 19 46  1  0
 20 21  2  0
M  END

