
     RDKit          3D

 47 49  0  0  0  0  0  0  0  0999 V2000
    1.5490    0.3811    0.2568 C   0  0  0  0  0  0  0  0  0  0  0  0
    2.9650   -0.0796    0.1159 C   0  0  0  0  0  0  0  0  0  0  0  0
    3.9377    0.8039   -0.0106 N   0  0  0  0  0  0  0  0  0  0  0  0
    5.0904    0.0912   -0.1279 N   0  0  0  0  0  0  0  0  0  0  0  0
    6.3147    0.8053   -0.2518 C   0  0  0  0  0  0  0  0  0  0  0  0
    6.5006    1.9673    0.5129 C   0  0  0  0  0  0  0  0  0  0  0  0
    7.6829    2.6964    0.4027 C   0  0  0  0  0  0  0  0  0  0  0  0
    8.6766    2.2534   -0.4698 C   0  0  0  0  0  0  0  0  0  0  0  0
    9.8165    2.9486   -0.5707 F   0  0  0  0  0  0  0  0  0  0  0  0
    8.5063    1.1092   -1.2447 C   0  0  0  0  0  0  0  0  0  0  0  0
    7.3140    0.3891   -1.1417 C   0  0  0  0  0  0  0  0  0  0  0  0
    4.8734   -1.2559   -0.0577 C   0  0  0  0  0  0  0  0  0  0  0  0
    5.9520   -2.2904   -0.0867 C   0  0  0  0  0  0  0  0  0  0  0  0
    3.4875   -1.4199    0.0921 C   0  0  0  0  0  0  0  0  0  0  0  0
    2.8162   -2.6923    0.2051 C   0  0  0  0  0  0  0  0  0  0  0  0
    1.4922   -2.9459    0.3342 C   0  0  0  0  0  0  0  0  0  0  0  0
    1.0208   -4.3369    0.4339 C   0  0  0  0  0  0  0  0  0  0  0  0
    1.7166   -5.3328    0.4136 O   0  0  0  0  0  0  0  0  0  0  0  0
   -0.3300   -4.3809    0.5517 O   0  0  0  0  0  0  0  0  0  0  0  0
   -0.9459   -5.6766    0.6353 C   0  0  0  0  0  0  0  0  0  0  0  0
   -1.0720   -6.1581    2.0640 C   0  0  0  0  0  0  0  0  0  0  0  0
   -0.0130   -6.8351    2.6947 C   0  0  0  0  0  0  0  0  0  0  0  0
   -0.1276   -7.2656    4.0198 C   0  0  0  0  0  0  0  0  0  0  0  0
   -1.2987   -7.0293    4.7416 C   0  0  0  0  0  0  0  0  0  0  0  0
   -2.3415   -6.3558    4.1055 C   0  0  0  0  0  0  0  0  0  0  0  0
   -3.5917   -6.1002    4.8544 N   0  0  0  0  0  0  0  0  0  0  0  0
   -3.6453   -6.4857    6.0109 O   0  0  0  0  0  0  0  0  0  0  0  0
   -4.4920   -5.5198    4.2693 O   0  0  0  0  0  0  0  0  0  0  0  0
   -2.2475   -5.9179    2.7846 C   0  0  0  0  0  0  0  0  0  0  0  0
    1.5194    1.4792    0.2460 H   0  0  0  0  0  0  0  0  0  0  0  0
    1.1009    0.0271    1.1996 H   0  0  0  0  0  0  0  0  0  0  0  0
    0.9188    0.0070   -0.5666 H   0  0  0  0  0  0  0  0  0  0  0  0
    5.7033    2.2929    1.1811 H   0  0  0  0  0  0  0  0  0  0  0  0
    7.8483    3.6027    0.9882 H   0  0  0  0  0  0  0  0  0  0  0  0
    9.2965    0.8032   -1.9327 H   0  0  0  0  0  0  0  0  0  0  0  0
    7.1580   -0.4824   -1.7772 H   0  0  0  0  0  0  0  0  0  0  0  0
    6.8628   -1.9382    0.4195 H   0  0  0  0  0  0  0  0  0  0  0  0
    6.2318   -2.5755   -1.1150 H   0  0  0  0  0  0  0  0  0  0  0  0
    5.6122   -3.2035    0.4211 H   0  0  0  0  0  0  0  0  0  0  0  0
    3.4567   -3.5812    0.1822 H   0  0  0  0  0  0  0  0  0  0  0  0
    0.7301   -2.1686    0.3668 H   0  0  0  0  0  0  0  0  0  0  0  0
   -0.3631   -6.3904    0.0365 H   0  0  0  0  0  0  0  0  0  0  0  0
   -1.9405   -5.5479    0.1873 H   0  0  0  0  0  0  0  0  0  0  0  0
    0.9084   -7.0079    2.1347 H   0  0  0  0  0  0  0  0  0  0  0  0
    0.7034   -7.7921    4.4949 H   0  0  0  0  0  0  0  0  0  0  0  0
   -1.4219   -7.3531    5.7746 H   0  0  0  0  0  0  0  0  0  0  0  0
   -3.0964   -5.3985    2.3391 H   0  0  0  0  0  0  0  0  0  0  0  0
  1  2  1  0
  1 30  1  0
  1 31  1  0
  1 32  1  0
  2  3  2  0
  2 14  1  0
  3  4  1  0
  4  5  1  0
  4 12  1  0
  5  6  2  0
  5 11  1  0
  6  7  1  0
  6 33  1  0
  7  8  2  0
  7 34  1  0
  8  9  1  0
  8 10  1  0
 10 11  2  0
 10 35  1  0
 11 36  1  0
 12 13  1  0
 12 14  2  0
 13 37  1  0
 13 38  1  0
 13 39  1  0
 14 15  1  0
 15 16  2  0
 15 40  1  0
 16 17  1  0
 16 41  1  0
 17 18  2  0
 17 19  1  0
 19 20  1  0
 20 21  1  0
 20 42  1  0
 20 43  1  0
 21 22  2  0
 21 29  1  0
 22 23  1  0
 22 44  1  0
 23 24  2  0
 23 45  1  0
 24 25  1  0
 24 46  1  0
 25 26  1  0
 25 29  2  0
 26 27  2  0
 26 28  1  0
 29 47  1  0
M  CHG  2  26   1  28  -1
M  END

