
     RDKit          3D

 66 70  0  0  0  0  0  0  0  0999 V2000
   -1.0242   -0.2198    1.0998 C   0  0  0  0  0  0  0  0  0  0  0  0
    0.4893   -0.4366    1.0709 C   0  0  0  0  0  0  0  0  0  0  0  0
    1.2066    0.3967    2.0308 N   0  0  0  0  0  0  0  0  0  0  0  0
    1.7177    1.6445    1.8148 C   0  0  0  0  0  0  0  0  0  0  0  0
    1.7580    2.4298    0.6691 C   0  0  0  0  0  0  0  0  0  0  0  0
    1.3761    2.3171   -0.6766 C   0  0  0  0  0  0  0  0  0  0  0  0
    0.8119    1.4423   -1.7360 C   0  0  0  0  0  0  0  0  0  0  0  0
    0.3833    0.2972   -1.8348 O   0  0  0  0  0  0  0  0  0  0  0  0
    0.9791    2.5257   -2.7217 C   0  0  0  0  0  0  0  0  0  0  0  0
    0.6339    2.4429   -4.0783 C   0  0  0  0  0  0  0  0  0  0  0  0
    0.7238    3.3522   -5.1226 C   0  0  0  0  0  0  0  0  0  0  0  0
    0.2839    3.0436   -6.3888 N   0  0  0  0  0  0  0  0  0  0  0  0
   -0.3145    1.7788   -6.7968 C   0  0  0  0  0  0  0  0  0  0  0  0
    0.7094    0.7273   -7.2289 C   0  0  0  0  0  0  0  0  0  0  0  0
    0.5161    4.0987   -7.2866 C   0  0  0  0  0  0  0  0  0  0  0  0
    0.2398    4.1650   -8.6543 C   0  0  0  0  0  0  0  0  0  0  0  0
    0.5625    5.3527   -9.3253 C   0  0  0  0  0  0  0  0  0  0  0  0
    1.1434    6.4299   -8.6483 C   0  0  0  0  0  0  0  0  0  0  0  0
    1.4178    6.3387   -7.2738 C   0  0  0  0  0  0  0  0  0  0  0  0
    1.1036    5.1672   -6.5959 C   0  0  0  0  0  0  0  0  0  0  0  0
    1.2842    4.7851   -5.1351 C   0  0  2  0  0  0  0  0  0  0  0  0
    2.7799    4.8135   -4.7405 C   0  0  0  0  0  0  0  0  0  0  0  0
    0.4631    5.7211   -4.2157 C   0  0  0  0  0  0  0  0  0  0  0  0
    1.5458    3.3977   -1.6703 C   0  0  0  0  0  0  0  0  0  0  0  0
    1.9930    4.5364   -1.5862 O   0  0  0  0  0  0  0  0  0  0  0  0
    2.3176    2.1686    3.1389 C   0  0  1  0  0  0  0  0  0  0  0  0
    3.8350    2.4196    2.9944 C   0  0  0  0  0  0  0  0  0  0  0  0
    1.6005    3.4562    3.6022 C   0  0  0  0  0  0  0  0  0  0  0  0
    2.0362    1.0153    4.0831 C   0  0  0  0  0  0  0  0  0  0  0  0
    2.3228    0.8461    5.4320 C   0  0  0  0  0  0  0  0  0  0  0  0
    1.9354   -0.3444    6.0686 C   0  0  0  0  0  0  0  0  0  0  0  0
    1.2681   -1.3420    5.3505 C   0  0  0  0  0  0  0  0  0  0  0  0
    0.9732   -1.1832    3.9894 C   0  0  0  0  0  0  0  0  0  0  0  0
    1.3717    0.0057    3.3733 C   0  0  0  0  0  0  0  0  0  0  0  0
   -1.4965   -0.8578    0.3383 H   0  0  0  0  0  0  0  0  0  0  0  0
   -1.2730    0.8241    0.8553 H   0  0  0  0  0  0  0  0  0  0  0  0
   -1.4595   -0.4611    2.0828 H   0  0  0  0  0  0  0  0  0  0  0  0
    0.8559   -0.2405    0.0559 H   0  0  0  0  0  0  0  0  0  0  0  0
    0.7367   -1.4842    1.3017 H   0  0  0  0  0  0  0  0  0  0  0  0
    2.2161    3.4101    0.8462 H   0  0  0  0  0  0  0  0  0  0  0  0
    0.2198    1.4585   -4.3184 H   0  0  0  0  0  0  0  0  0  0  0  0
   -1.0128    1.9972   -7.6189 H   0  0  0  0  0  0  0  0  0  0  0  0
   -0.9284    1.4041   -5.9651 H   0  0  0  0  0  0  0  0  0  0  0  0
    1.3111    1.0836   -8.0793 H   0  0  0  0  0  0  0  0  0  0  0  0
    0.1948   -0.1967   -7.5359 H   0  0  0  0  0  0  0  0  0  0  0  0
    1.3941    0.4781   -6.4043 H   0  0  0  0  0  0  0  0  0  0  0  0
   -0.2062    3.3289   -9.1953 H   0  0  0  0  0  0  0  0  0  0  0  0
    0.3575    5.4320  -10.3958 H   0  0  0  0  0  0  0  0  0  0  0  0
    1.3875    7.3456   -9.1917 H   0  0  0  0  0  0  0  0  0  0  0  0
    1.8738    7.1816   -6.7478 H   0  0  0  0  0  0  0  0  0  0  0  0
    3.3642    4.0999   -5.3416 H   0  0  0  0  0  0  0  0  0  0  0  0
    2.8985    4.5927   -3.6713 H   0  0  0  0  0  0  0  0  0  0  0  0
    3.1848    5.8217   -4.9224 H   0  0  0  0  0  0  0  0  0  0  0  0
   -0.6120    5.6614   -4.4448 H   0  0  0  0  0  0  0  0  0  0  0  0
    0.7871    6.7619   -4.3745 H   0  0  0  0  0  0  0  0  0  0  0  0
    0.6394    5.4723   -3.1607 H   0  0  0  0  0  0  0  0  0  0  0  0
    4.0344    3.2199    2.2658 H   0  0  0  0  0  0  0  0  0  0  0  0
    4.3584    1.5111    2.6606 H   0  0  0  0  0  0  0  0  0  0  0  0
    4.2612    2.7241    3.9635 H   0  0  0  0  0  0  0  0  0  0  0  0
    1.7644    4.2786    2.8897 H   0  0  0  0  0  0  0  0  0  0  0  0
    1.9893    3.7713    4.5835 H   0  0  0  0  0  0  0  0  0  0  0  0
    0.5164    3.2950    3.6999 H   0  0  0  0  0  0  0  0  0  0  0  0
    2.8422    1.6260    5.9956 H   0  0  0  0  0  0  0  0  0  0  0  0
    2.1539   -0.4907    7.1288 H   0  0  0  0  0  0  0  0  0  0  0  0
    0.9672   -2.2633    5.8556 H   0  0  0  0  0  0  0  0  0  0  0  0
    0.4476   -1.9665    3.4422 H   0  0  0  0  0  0  0  0  0  0  0  0
  1  2  1  0
  1 35  1  0
  1 36  1  0
  1 37  1  0
  2  3  1  0
  2 38  1  0
  2 39  1  0
  3  4  1  0
  3 34  1  0
  4  5  2  0
  4 26  1  0
  5  6  1  0
  5 40  1  0
  6  7  1  0
  6 24  2  0
  7  8  2  0
  7  9  1  0
  9 10  2  0
  9 24  1  0
 10 11  1  0
 10 41  1  0
 11 12  2  0
 11 21  1  0
 12 13  1  0
 12 15  1  0
 13 14  1  0
 13 42  1  0
 13 43  1  0
 14 44  1  0
 14 45  1  0
 14 46  1  0
 15 16  1  0
 15 20  2  0
 16 17  2  0
 16 47  1  0
 17 18  1  0
 17 48  1  0
 18 19  2  0
 18 49  1  0
 19 20  1  0
 19 50  1  0
 20 21  1  0
 21 22  1  1
 21 23  1  0
 22 51  1  0
 22 52  1  0
 22 53  1  0
 23 54  1  0
 23 55  1  0
 23 56  1  0
 24 25  1  0
 26 27  1  6
 26 28  1  0
 26 29  1  0
 27 57  1  0
 27 58  1  0
 27 59  1  0
 28 60  1  0
 28 61  1  0
 28 62  1  0
 29 30  2  0
 29 34  1  0
 30 31  1  0
 30 63  1  0
 31 32  2  0
 31 64  1  0
 32 33  1  0
 32 65  1  0
 33 34  2  0
 33 66  1  0
M  CHG  2  12   1  25  -1
M  END

