
     RDKit          3D

 44 45  0  0  0  0  0  0  0  0999 V2000
    7.6551   -2.0613    6.4371 C   0  0  0  0  0  0  0  0  0  0  0  0
    6.7527   -1.7600    5.2395 C   0  0  0  0  0  0  0  0  0  0  0  0
    6.5724   -0.2606    4.9839 C   0  0  0  0  0  0  0  0  0  0  0  0
    5.7049    0.0527    3.7611 C   0  0  0  0  0  0  0  0  0  0  0  0
    5.5139    1.5380    3.4901 C   0  0  0  0  0  0  0  0  0  0  0  0
    6.7724    2.1316    3.2291 O   0  0  0  0  0  0  0  0  0  0  0  0
    6.7251    3.4996    2.8956 C   0  0  0  0  0  0  0  0  0  0  0  0
    8.1484    3.9667    2.5670 C   0  0  0  0  0  0  0  0  0  0  0  0
    8.4104    4.3380    1.4330 O   0  0  0  0  0  0  0  0  0  0  0  0
    9.0831    3.8893    3.5733 N   0  0  0  0  0  0  0  0  0  0  0  0
   10.5095    4.1447    3.2035 C   0  0  0  0  0  0  0  0  0  0  0  0
   11.5453    2.9398    3.1503 C   0  0  0  0  0  0  0  0  0  0  0  0
   11.4968    1.7819    4.2237 C   0  0  1  0  0  0  0  0  0  0  0  0
   12.0751    1.9730    5.6897 C   0  0  0  0  0  0  0  0  0  0  0  0
   10.8244    2.3383    6.5951 C   0  0  0  0  0  0  0  0  0  0  0  0
    9.9658    2.7879    5.4116 C   0  0  2  0  0  0  0  0  0  0  0  0
    8.7374    3.5779    5.0044 C   0  0  0  0  0  0  0  0  0  0  0  0
   10.0911    1.6027    4.5551 N   0  0  0  0  0  0  0  0  0  0  0  0
    7.7821   -3.1454    6.5881 H   0  0  0  0  0  0  0  0  0  0  0  0
    7.2376   -1.6430    7.3687 H   0  0  0  0  0  0  0  0  0  0  0  0
    8.6560   -1.6202    6.2978 H   0  0  0  0  0  0  0  0  0  0  0  0
    5.7641   -2.2327    5.3882 H   0  0  0  0  0  0  0  0  0  0  0  0
    7.1763   -2.2309    4.3335 H   0  0  0  0  0  0  0  0  0  0  0  0
    7.5655    0.2025    4.8583 H   0  0  0  0  0  0  0  0  0  0  0  0
    6.1239    0.2114    5.8791 H   0  0  0  0  0  0  0  0  0  0  0  0
    4.7037   -0.3990    3.8813 H   0  0  0  0  0  0  0  0  0  0  0  0
    6.1482   -0.4088    2.8609 H   0  0  0  0  0  0  0  0  0  0  0  0
    5.0358    2.0360    4.3611 H   0  0  0  0  0  0  0  0  0  0  0  0
    4.8401    1.6874    2.6222 H   0  0  0  0  0  0  0  0  0  0  0  0
    6.2776    4.1005    3.7156 H   0  0  0  0  0  0  0  0  0  0  0  0
    6.1290    3.6731    1.9827 H   0  0  0  0  0  0  0  0  0  0  0  0
   10.8980    4.9511    3.8483 H   0  0  0  0  0  0  0  0  0  0  0  0
   10.4527    4.5591    2.1895 H   0  0  0  0  0  0  0  0  0  0  0  0
   12.5460    3.4029    3.0858 H   0  0  0  0  0  0  0  0  0  0  0  0
   11.3910    2.4365    2.1803 H   0  0  0  0  0  0  0  0  0  0  0  0
   11.9472    0.8859    3.7649 H   0  0  0  0  0  0  0  0  0  0  0  0
   12.8322    2.7731    5.7287 H   0  0  0  0  0  0  0  0  0  0  0  0
   12.5602    1.0428    6.0200 H   0  0  0  0  0  0  0  0  0  0  0  0
   11.0567    3.1387    7.3142 H   0  0  0  0  0  0  0  0  0  0  0  0
   10.4287    1.4618    7.1281 H   0  0  0  0  0  0  0  0  0  0  0  0
   10.6807    3.5571    5.0880 H   0  0  0  0  0  0  0  0  0  0  0  0
    8.6370    4.5086    5.5904 H   0  0  0  0  0  0  0  0  0  0  0  0
    7.7986    3.0161    5.0397 H   0  0  0  0  0  0  0  0  0  0  0  0
    9.4937    1.6609    3.7323 H   0  0  0  0  0  0  0  0  0  0  0  0
  1  2  1  0
  1 19  1  0
  1 20  1  0
  1 21  1  0
  2  3  1  0
  2 22  1  0
  2 23  1  0
  3  4  1  0
  3 24  1  0
  3 25  1  0
  4  5  1  0
  4 26  1  0
  4 27  1  0
  5  6  1  0
  5 28  1  0
  5 29  1  0
  6  7  1  0
  7  8  1  0
  7 30  1  0
  7 31  1  0
  8  9  2  0
  8 10  1  0
 10 11  1  0
 10 17  1  0
 11 12  1  0
 11 32  1  0
 11 33  1  0
 12 13  1  0
 12 34  1  0
 12 35  1  0
 13 14  1  0
 13 18  1  0
 13 36  1  6
 14 15  1  0
 14 37  1  0
 14 38  1  0
 15 16  1  0
 15 39  1  0
 15 40  1  0
 16 17  1  0
 16 18  1  0
 16 41  1  6
 17 42  1  0
 17 43  1  0
 18 44  1  0
M  END

