
     RDKit          3D

 21 21  0  0  0  0  0  0  0  0999 V2000
    1.2950    0.7261    0.0419 C   0  0  0  0  0  0  0  0  0  0  0  0
    2.6934    0.5283   -0.4994 C   0  0  0  0  0  0  0  0  0  0  0  0
    3.4843    1.4497   -0.5494 O   0  0  0  0  0  0  0  0  0  0  0  0
    3.1196   -0.8400   -0.9884 C   0  0  0  0  0  0  0  0  0  0  0  0
    1.8206   -2.2421   -0.8746 Br  0  0  0  0  0  0  0  0  0  0  0  0
    4.3757   -0.9909   -1.4698 C   0  0  0  0  0  0  0  0  0  0  0  0
    5.1636   -2.0893   -2.0191 C   0  0  0  0  0  0  0  0  0  0  0  0
    6.4872   -1.7804   -2.4118 C   0  0  0  0  0  0  0  0  0  0  0  0
    7.3390   -2.7404   -2.9490 C   0  0  0  0  0  0  0  0  0  0  0  0
    6.8748   -4.0504   -3.1059 C   0  0  0  0  0  0  0  0  0  0  0  0
    7.9282   -5.2673   -3.7769 Cl  0  0  0  0  0  0  0  0  0  0  0  0
    5.5716   -4.3921   -2.7281 C   0  0  0  0  0  0  0  0  0  0  0  0
    4.7280   -3.4225   -2.1917 C   0  0  0  0  0  0  0  0  0  0  0  0
    1.1852    1.7770    0.3372 H   0  0  0  0  0  0  0  0  0  0  0  0
    1.1116    0.0716    0.9086 H   0  0  0  0  0  0  0  0  0  0  0  0
    0.5378    0.4665   -0.7144 H   0  0  0  0  0  0  0  0  0  0  0  0
    4.9137   -0.0363   -1.4250 H   0  0  0  0  0  0  0  0  0  0  0  0
    6.8514   -0.7572   -2.2896 H   0  0  0  0  0  0  0  0  0  0  0  0
    8.3568   -2.4833   -3.2463 H   0  0  0  0  0  0  0  0  0  0  0  0
    5.2235   -5.4183   -2.8562 H   0  0  0  0  0  0  0  0  0  0  0  0
    3.7186   -3.7085   -1.9041 H   0  0  0  0  0  0  0  0  0  0  0  0
  1  2  1  0
  1 14  1  0
  1 15  1  0
  1 16  1  0
  2  3  2  0
  2  4  1  0
  4  5  1  0
  4  6  2  0
  6  7  1  0
  6 17  1  0
  7  8  2  0
  7 13  1  0
  8  9  1  0
  8 18  1  0
  9 10  2  0
  9 19  1  0
 10 11  1  0
 10 12  1  0
 12 13  2  0
 12 20  1  0
 13 21  1  0
M  END

