
     RDKit          3D

 34 35  0  0  0  0  0  0  0  0999 V2000
    1.9337   -0.5142   -1.2150 O   0  0  0  0  0  0  0  0  0  0  0  0
    2.7740   -0.2315   -0.3752 C   0  0  0  0  0  0  0  0  0  0  0  0
    3.0524   -0.9912    0.7161 N   0  0  0  0  0  0  0  0  0  0  0  0
    2.4011   -2.2690    0.9691 C   0  0  0  0  0  0  0  0  0  0  0  0
    3.1841   -3.4676    0.4650 C   0  0  0  0  0  0  0  0  0  0  0  0
    3.8444   -4.3283    1.3519 C   0  0  0  0  0  0  0  0  0  0  0  0
    4.5773   -5.4195    0.8796 C   0  0  0  0  0  0  0  0  0  0  0  0
    4.6709   -5.6762   -0.4960 C   0  0  0  0  0  0  0  0  0  0  0  0
    5.4548   -6.8432   -1.0046 C   0  0  0  0  0  0  0  0  0  0  0  0
    4.3432   -8.4931   -1.1818 Br  0  0  0  0  0  0  0  0  0  0  0  0
    4.0051   -4.8145   -1.3851 C   0  0  0  0  0  0  0  0  0  0  0  0
    3.2729   -3.7264   -0.9140 C   0  0  0  0  0  0  0  0  0  0  0  0
    3.6663    1.0208   -0.5245 C   0  0  1  0  0  0  0  0  0  0  0  0
    2.8979    2.2059   -1.1154 C   0  0  0  0  0  0  0  0  0  0  0  0
    2.0904    2.8376   -0.1437 O   0  0  0  0  0  0  0  0  0  0  0  0
    2.8641    3.2729    0.9542 C   0  0  0  0  0  0  0  0  0  0  0  0
    3.5432    2.0841    1.6142 C   0  0  0  0  0  0  0  0  0  0  0  0
    4.3457    1.3656    0.6785 O   0  0  0  0  0  0  0  0  0  0  0  0
    3.8541   -0.7103    1.2716 H   0  0  0  0  0  0  0  0  0  0  0  0
    1.4239   -2.2230    0.4667 H   0  0  0  0  0  0  0  0  0  0  0  0
    2.2227   -2.3660    2.0515 H   0  0  0  0  0  0  0  0  0  0  0  0
    3.7833   -4.1469    2.4292 H   0  0  0  0  0  0  0  0  0  0  0  0
    5.0805   -6.0827    1.5888 H   0  0  0  0  0  0  0  0  0  0  0  0
    6.2665   -7.1312   -0.3269 H   0  0  0  0  0  0  0  0  0  0  0  0
    5.8552   -6.6738   -2.0107 H   0  0  0  0  0  0  0  0  0  0  0  0
    4.0568   -5.0064   -2.4605 H   0  0  0  0  0  0  0  0  0  0  0  0
    2.7585   -3.0631   -1.6141 H   0  0  0  0  0  0  0  0  0  0  0  0
    4.4568    0.7319   -1.2391 H   0  0  0  0  0  0  0  0  0  0  0  0
    2.2379    1.8419   -1.9138 H   0  0  0  0  0  0  0  0  0  0  0  0
    3.6231    2.9299   -1.5384 H   0  0  0  0  0  0  0  0  0  0  0  0
    2.1855    3.7724    1.6632 H   0  0  0  0  0  0  0  0  0  0  0  0
    3.6283    4.0078    0.6246 H   0  0  0  0  0  0  0  0  0  0  0  0
    2.7709    1.4195    2.0471 H   0  0  0  0  0  0  0  0  0  0  0  0
    4.2196    2.4075    2.4207 H   0  0  0  0  0  0  0  0  0  0  0  0
  1  2  2  0
  2  3  1  0
  2 13  1  0
  3  4  1  0
  3 19  1  0
  4  5  1  0
  4 20  1  0
  4 21  1  0
  5  6  2  0
  5 12  1  0
  6  7  1  0
  6 22  1  0
  7  8  2  0
  7 23  1  0
  8  9  1  0
  8 11  1  0
  9 10  1  0
  9 24  1  0
  9 25  1  0
 11 12  2  0
 11 26  1  0
 12 27  1  0
 13 14  1  0
 13 18  1  0
 13 28  1  6
 14 15  1  0
 14 29  1  0
 14 30  1  0
 15 16  1  0
 16 17  1  0
 16 31  1  0
 16 32  1  0
 17 18  1  0
 17 33  1  0
 17 34  1  0
M  END

