
     RDKit          3D

 44 46  0  0  0  0  0  0  0  0999 V2000
    1.0401   -0.2711    0.0526 C   0  0  0  0  0  0  0  0  0  0  0  0
    2.5720   -0.1893    0.0788 C   0  0  1  0  0  0  0  0  0  0  0  0
    3.1286   -0.7452    1.4122 C   0  0  0  0  0  0  0  0  0  0  0  0
    4.6005   -0.5439    1.6176 C   0  0  0  0  0  0  0  0  0  0  0  0
    5.4971   -1.4676    1.4950 N   0  0  0  0  0  0  0  0  0  0  0  0
    6.7710   -0.9872    1.7394 C   0  0  0  0  0  0  0  0  0  0  0  0
    7.9532   -1.7458    1.6902 C   0  0  0  0  0  0  0  0  0  0  0  0
    9.1686   -1.1243    1.9614 C   0  0  0  0  0  0  0  0  0  0  0  0
    9.2239    0.2457    2.2826 C   0  0  0  0  0  0  0  0  0  0  0  0
    8.0641    1.0177    2.3388 C   0  0  0  0  0  0  0  0  0  0  0  0
    6.8411    0.3931    2.0663 C   0  0  0  0  0  0  0  0  0  0  0  0
    5.2272    1.0632    2.0568 S   0  0  0  0  0  0  0  0  0  0  0  0
    3.1566   -0.8731   -1.0613 N   0  0  0  0  0  0  0  0  0  0  0  0
    3.7534   -0.2136   -2.0971 C   0  0  0  0  0  0  0  0  0  0  0  0
    3.8776    1.0004   -2.1412 O   0  0  0  0  0  0  0  0  0  0  0  0
    4.2193   -1.0917   -3.2665 C   0  0  0  0  0  0  0  0  0  0  0  0
    4.7630   -2.4970   -2.9666 C   0  0  1  0  0  0  0  0  0  0  0  0
    3.7357   -3.3120   -2.3568 O   0  0  0  0  0  0  0  0  0  0  0  0
    5.2978   -3.2219   -4.2163 C   0  0  0  0  0  0  0  0  0  0  0  0
    6.0861   -4.4057   -3.6385 C   0  0  0  0  0  0  0  0  0  0  0  0
    6.7507   -3.8370   -2.3586 C   0  0  0  0  0  0  0  0  0  0  0  0
    5.9687   -2.5417   -2.0080 C   0  0  0  0  0  0  0  0  0  0  0  0
    0.5964    0.2932    0.8885 H   0  0  0  0  0  0  0  0  0  0  0  0
    0.6964   -1.3166    0.1309 H   0  0  0  0  0  0  0  0  0  0  0  0
    0.6519    0.1477   -0.8878 H   0  0  0  0  0  0  0  0  0  0  0  0
    2.8733    0.8640   -0.0272 H   0  0  0  0  0  0  0  0  0  0  0  0
    2.9382   -1.8290    1.4715 H   0  0  0  0  0  0  0  0  0  0  0  0
    2.5776   -0.2703    2.2407 H   0  0  0  0  0  0  0  0  0  0  0  0
    7.8951   -2.8074    1.4421 H   0  0  0  0  0  0  0  0  0  0  0  0
   10.0934   -1.7054    1.9257 H   0  0  0  0  0  0  0  0  0  0  0  0
   10.1895    0.7128    2.4915 H   0  0  0  0  0  0  0  0  0  0  0  0
    8.1117    2.0800    2.5877 H   0  0  0  0  0  0  0  0  0  0  0  0
    3.1041   -1.8894   -1.1308 H   0  0  0  0  0  0  0  0  0  0  0  0
    4.9749   -0.4972   -3.7996 H   0  0  0  0  0  0  0  0  0  0  0  0
    3.3606   -1.1836   -3.9587 H   0  0  0  0  0  0  0  0  0  0  0  0
    3.0661   -3.5001   -3.0303 H   0  0  0  0  0  0  0  0  0  0  0  0
    5.9644   -2.5389   -4.7701 H   0  0  0  0  0  0  0  0  0  0  0  0
    4.4898   -3.5158   -4.9092 H   0  0  0  0  0  0  0  0  0  0  0  0
    6.8109   -4.8244   -4.3534 H   0  0  0  0  0  0  0  0  0  0  0  0
    5.3852   -5.2109   -3.3714 H   0  0  0  0  0  0  0  0  0  0  0  0
    7.8137   -3.6084   -2.5348 H   0  0  0  0  0  0  0  0  0  0  0  0
    6.7197   -4.5675   -1.5366 H   0  0  0  0  0  0  0  0  0  0  0  0
    6.5914   -1.6498   -2.1795 H   0  0  0  0  0  0  0  0  0  0  0  0
    5.6377   -2.5047   -0.9612 H   0  0  0  0  0  0  0  0  0  0  0  0
  1  2  1  0
  1 23  1  0
  1 24  1  0
  1 25  1  0
  2  3  1  0
  2 13  1  0
  2 26  1  6
  3  4  1  0
  3 27  1  0
  3 28  1  0
  4  5  2  0
  4 12  1  0
  5  6  1  0
  6  7  2  0
  6 11  1  0
  7  8  1  0
  7 29  1  0
  8  9  2  0
  8 30  1  0
  9 10  1  0
  9 31  1  0
 10 11  2  0
 10 32  1  0
 11 12  1  0
 13 14  1  0
 13 33  1  0
 14 15  2  0
 14 16  1  0
 16 17  1  0
 16 34  1  0
 16 35  1  0
 17 18  1  1
 17 19  1  0
 17 22  1  0
 18 36  1  0
 19 20  1  0
 19 37  1  0
 19 38  1  0
 20 21  1  0
 20 39  1  0
 20 40  1  0
 21 22  1  0
 21 41  1  0
 21 42  1  0
 22 43  1  0
 22 44  1  0
M  END

