
     RDKit          3D

 64 66  0  0  0  0  0  0  0  0999 V2000
    2.6206    1.2484   -0.7266 C   0  0  0  0  0  0  0  0  0  0  0  0
    2.4068   -0.0398   -1.5222 C   0  0  0  0  0  0  0  0  0  0  0  0
    3.0267   -1.2948   -0.8789 C   0  0  1  0  0  0  0  0  0  0  0  0
    2.6484   -1.3887    0.1516 H   0  0  0  0  0  0  0  0  0  0  0  0
    2.6474   -2.5659   -1.6568 C   0  0  0  0  0  0  0  0  0  0  0  0
    4.5382   -1.1933   -0.7461 C   0  0  0  0  0  0  0  0  0  0  0  0
    5.0625   -1.3657    0.4673 N   0  0  0  0  0  0  0  0  0  0  0  0
    6.4032   -1.3587    0.5664 C   0  0  0  0  0  0  0  0  0  0  0  0
    6.9564   -1.6673    1.9364 C   0  0  0  0  0  0  0  0  0  0  0  0
    7.2444   -1.1333   -0.5378 C   0  0  0  0  0  0  0  0  0  0  0  0
    8.7416   -1.3158   -0.4144 C   0  0  0  0  0  0  0  0  0  0  0  0
    9.5734   -0.1494    0.1152 C   0  0  0  0  0  0  0  0  0  0  0  0
    9.0113    1.0419    0.5897 C   0  0  0  0  0  0  0  0  0  0  0  0
    9.8183    2.0788    1.0751 C   0  0  0  0  0  0  0  0  0  0  0  0
   11.2132    1.9640    1.1052 C   0  0  0  0  0  0  0  0  0  0  0  0
   12.0899    3.0758    1.6280 C   0  0  0  0  0  0  0  0  0  0  0  0
   11.7759    0.7666    0.6276 C   0  0  0  0  0  0  0  0  0  0  0  0
   10.9748   -0.2655    0.1442 C   0  0  0  0  0  0  0  0  0  0  0  0
    6.5785   -0.8808   -1.7759 C   0  0  0  0  0  0  0  0  0  0  0  0
    7.2533   -0.6388   -2.9668 N   0  0  0  0  0  0  0  0  0  0  0  0
    6.5515   -0.8229   -4.2386 C   0  0  0  0  0  0  0  0  0  0  0  0
    6.0397    0.5004   -4.8145 C   0  0  0  0  0  0  0  0  0  0  0  0
    7.1234    1.4919   -4.9003 N   0  0  0  0  0  0  0  0  0  0  0  0
    7.9687    1.6303   -6.3567 S   0  0  1  0  0  0  0  0  0  0  0  0
    9.3903    1.8352   -6.0462 O   0  0  0  0  0  0  0  0  0  0  0  0
    7.5431    0.5456   -7.2518 O   0  0  0  0  0  0  0  0  0  0  0  0
    7.3396    3.1810   -7.0559 C   0  0  0  0  0  0  0  0  0  0  0  0
    7.9887    3.4767   -8.4022 C   0  0  0  0  0  0  0  0  0  0  0  0
    7.8659    1.6612   -3.6467 C   0  0  0  0  0  0  0  0  0  0  0  0
    8.3542    0.3196   -3.0783 C   0  0  0  0  0  0  0  0  0  0  0  0
    5.2399   -0.9486   -1.8528 N   0  0  0  0  0  0  0  0  0  0  0  0
    2.1331    2.1059   -1.2180 H   0  0  0  0  0  0  0  0  0  0  0  0
    3.6912    1.4901   -0.6258 H   0  0  0  0  0  0  0  0  0  0  0  0
    2.2049    1.1668    0.2915 H   0  0  0  0  0  0  0  0  0  0  0  0
    2.8220    0.0738   -2.5382 H   0  0  0  0  0  0  0  0  0  0  0  0
    1.3241   -0.2185   -1.6469 H   0  0  0  0  0  0  0  0  0  0  0  0
    1.5524   -2.6777   -1.7108 H   0  0  0  0  0  0  0  0  0  0  0  0
    3.0564   -3.4674   -1.1737 H   0  0  0  0  0  0  0  0  0  0  0  0
    3.0388   -2.5245   -2.6858 H   0  0  0  0  0  0  0  0  0  0  0  0
    6.1384   -1.6247    2.6667 H   0  0  0  0  0  0  0  0  0  0  0  0
    7.7549   -0.9726    2.2356 H   0  0  0  0  0  0  0  0  0  0  0  0
    7.3830   -2.6853    1.9642 H   0  0  0  0  0  0  0  0  0  0  0  0
    9.1434   -1.6227   -1.3936 H   0  0  0  0  0  0  0  0  0  0  0  0
    8.9271   -2.1786    0.2481 H   0  0  0  0  0  0  0  0  0  0  0  0
    7.9259    1.1686    0.5803 H   0  0  0  0  0  0  0  0  0  0  0  0
    9.3462    2.9963    1.4386 H   0  0  0  0  0  0  0  0  0  0  0  0
   11.4952    3.9451    1.9453 H   0  0  0  0  0  0  0  0  0  0  0  0
   12.8042    3.4187    0.8607 H   0  0  0  0  0  0  0  0  0  0  0  0
   12.6861    2.7429    2.4944 H   0  0  0  0  0  0  0  0  0  0  0  0
   12.8632    0.6433    0.6338 H   0  0  0  0  0  0  0  0  0  0  0  0
   11.4450   -1.1836   -0.2219 H   0  0  0  0  0  0  0  0  0  0  0  0
    5.7178   -1.5181   -4.0911 H   0  0  0  0  0  0  0  0  0  0  0  0
    7.2629   -1.2622   -4.9599 H   0  0  0  0  0  0  0  0  0  0  0  0
    5.2536    0.9128   -4.1607 H   0  0  0  0  0  0  0  0  0  0  0  0
    5.6159    0.3406   -5.8141 H   0  0  0  0  0  0  0  0  0  0  0  0
    7.5542    3.9530   -6.3021 H   0  0  0  0  0  0  0  0  0  0  0  0
    6.2494    3.0522   -7.1303 H   0  0  0  0  0  0  0  0  0  0  0  0
    9.0795    3.5692   -8.2954 H   0  0  0  0  0  0  0  0  0  0  0  0
    7.5965    4.4215   -8.8092 H   0  0  0  0  0  0  0  0  0  0  0  0
    7.7758    2.6718   -9.1210 H   0  0  0  0  0  0  0  0  0  0  0  0
    7.1899    2.1486   -2.9217 H   0  0  0  0  0  0  0  0  0  0  0  0
    8.7226    2.3251   -3.8186 H   0  0  0  0  0  0  0  0  0  0  0  0
    8.8165    0.5012   -2.1032 H   0  0  0  0  0  0  0  0  0  0  0  0
    9.1290   -0.0874   -3.7515 H   0  0  0  0  0  0  0  0  0  0  0  0
  1  2  1  0
  1 32  1  0
  1 33  1  0
  1 34  1  0
  2  3  1  0
  2 35  1  0
  2 36  1  0
  3  4  1  1
  3  5  1  0
  3  6  1  0
  5 37  1  0
  5 38  1  0
  5 39  1  0
  6  7  2  0
  6 31  1  0
  7  8  1  0
  8  9  1  0
  8 10  2  0
  9 40  1  0
  9 41  1  0
  9 42  1  0
 10 11  1  0
 10 19  1  0
 11 12  1  0
 11 43  1  0
 11 44  1  0
 12 13  2  0
 12 18  1  0
 13 14  1  0
 13 45  1  0
 14 15  2  0
 14 46  1  0
 15 16  1  0
 15 17  1  0
 16 47  1  0
 16 48  1  0
 16 49  1  0
 17 18  2  0
 17 50  1  0
 18 51  1  0
 19 20  1  0
 19 31  2  0
 20 21  1  0
 20 30  1  0
 21 22  1  0
 21 52  1  0
 21 53  1  0
 22 23  1  0
 22 54  1  0
 22 55  1  0
 23 24  1  0
 23 29  1  0
 24 25  2  0
 24 26  2  0
 24 27  1  6
 27 28  1  0
 27 56  1  0
 27 57  1  0
 28 58  1  0
 28 59  1  0
 28 60  1  0
 29 30  1  0
 29 61  1  0
 29 62  1  0
 30 63  1  0
 30 64  1  0
M  END

