
     RDKit          3D

 40 41  0  0  0  0  0  0  0  0999 V2000
    5.8644    4.8641    0.2396 C   0  0  0  0  0  0  0  0  0  0  0  0
    4.3984    4.4326    0.2421 C   0  0  0  0  0  0  0  0  0  0  0  0
    4.1308    3.0927   -0.4583 C   0  0  0  0  0  0  0  0  0  0  0  0
    4.7872    1.9505    0.1608 N   0  0  0  0  0  0  0  0  0  0  0  0
    4.3760    1.3250    1.3157 C   0  0  0  0  0  0  0  0  0  0  0  0
    5.2798    0.3265    1.6210 C   0  0  0  0  0  0  0  0  0  0  0  0
    6.2914    0.3429    0.6110 C   0  0  0  0  0  0  0  0  0  0  0  0
    7.4847   -0.5622    0.5132 C   0  0  0  0  0  0  0  0  0  0  0  0
    7.1049   -1.9702    0.5619 N   0  0  0  0  0  0  0  0  0  0  0  0
    8.2081   -2.8966    0.4021 C   0  0  0  0  0  0  0  0  0  0  0  0
    7.7909   -4.3446    0.5682 C   0  0  0  0  0  0  0  0  0  0  0  0
    8.4522   -5.3638   -0.1306 C   0  0  0  0  0  0  0  0  0  0  0  0
    8.1030   -6.7044    0.0490 C   0  0  0  0  0  0  0  0  0  0  0  0
    7.0736   -7.0432    0.9314 C   0  0  0  0  0  0  0  0  0  0  0  0
    6.6682   -8.4785    1.1450 C   0  0  1  0  0  0  0  0  0  0  0  0
    7.3940   -9.3322    0.4022 F   0  0  0  0  0  0  0  0  0  0  0  0
    6.8126   -8.8485    2.4331 F   0  0  0  0  0  0  0  0  0  0  0  0
    5.3724   -8.6804    0.8330 F   0  0  0  0  0  0  0  0  0  0  0  0
    6.3985   -6.0329    1.6306 C   0  0  0  0  0  0  0  0  0  0  0  0
    6.7559   -4.6983    1.4499 C   0  0  0  0  0  0  0  0  0  0  0  0
    5.9501    1.3555   -0.2710 C   0  0  0  0  0  0  0  0  0  0  0  0
    5.9914    5.8342    0.7451 H   0  0  0  0  0  0  0  0  0  0  0  0
    6.2494    4.9719   -0.7886 H   0  0  0  0  0  0  0  0  0  0  0  0
    6.5005    4.1305    0.7592 H   0  0  0  0  0  0  0  0  0  0  0  0
    3.7792    5.1966   -0.2606 H   0  0  0  0  0  0  0  0  0  0  0  0
    4.0265    4.3718    1.2796 H   0  0  0  0  0  0  0  0  0  0  0  0
    4.4680    3.1403   -1.5062 H   0  0  0  0  0  0  0  0  0  0  0  0
    3.0460    2.8973   -0.4824 H   0  0  0  0  0  0  0  0  0  0  0  0
    3.4643    1.6353    1.8234 H   0  0  0  0  0  0  0  0  0  0  0  0
    5.2222   -0.3586    2.4646 H   0  0  0  0  0  0  0  0  0  0  0  0
    8.1748   -0.3792    1.3591 H   0  0  0  0  0  0  0  0  0  0  0  0
    8.0610   -0.3024   -0.4041 H   0  0  0  0  0  0  0  0  0  0  0  0
    6.3775   -2.1562   -0.1287 H   0  0  0  0  0  0  0  0  0  0  0  0
    8.9602   -2.6560    1.1788 H   0  0  0  0  0  0  0  0  0  0  0  0
    8.7465   -2.7863   -0.5672 H   0  0  0  0  0  0  0  0  0  0  0  0
    9.2528   -5.1073   -0.8304 H   0  0  0  0  0  0  0  0  0  0  0  0
    8.6259   -7.4876   -0.5020 H   0  0  0  0  0  0  0  0  0  0  0  0
    5.5907   -6.2933    2.3187 H   0  0  0  0  0  0  0  0  0  0  0  0
    6.2313   -3.9043    1.9844 H   0  0  0  0  0  0  0  0  0  0  0  0
    6.4484    1.6960   -1.1772 H   0  0  0  0  0  0  0  0  0  0  0  0
  1  2  1  0
  1 22  1  0
  1 23  1  0
  1 24  1  0
  2  3  1  0
  2 25  1  0
  2 26  1  0
  3  4  1  0
  3 27  1  0
  3 28  1  0
  4  5  1  0
  4 21  1  0
  5  6  2  0
  5 29  1  0
  6  7  1  0
  6 30  1  0
  7  8  1  0
  7 21  2  0
  8  9  1  0
  8 31  1  0
  8 32  1  0
  9 10  1  0
  9 33  1  0
 10 11  1  0
 10 34  1  0
 10 35  1  0
 11 12  2  0
 11 20  1  0
 12 13  1  0
 12 36  1  0
 13 14  2  0
 13 37  1  0
 14 15  1  0
 14 19  1  0
 15 16  1  6
 15 17  1  0
 15 18  1  0
 19 20  2  0
 19 38  1  0
 20 39  1  0
 21 40  1  0
M  END

