
     RDKit          3D

 32 32  0  0  0  0  0  0  0  0999 V2000
    1.0329   -0.6440    2.8849 C   0  0  0  0  0  0  0  0  0  0  0  0
    2.5535   -0.4808    2.8451 C   0  0  0  0  0  0  0  0  0  0  0  0
    3.0970    0.2326    1.5841 C   0  0  1  0  0  0  0  0  0  0  0  0
    2.5419    1.6531    1.3702 C   0  0  0  0  0  0  0  0  0  0  0  0
    2.8420    2.5595    2.4865 N   0  0  0  0  0  0  0  0  0  0  0  0
    4.6305    0.1220    1.5846 C   0  0  0  0  0  0  0  0  0  0  0  0
    5.1877   -0.9031    1.2219 O   0  0  0  0  0  0  0  0  0  0  0  0
    5.3020    1.2198    2.0444 N   0  0  0  0  0  0  0  0  0  0  0  0
    6.7290    1.2008    2.2336 C   0  0  0  0  0  0  0  0  0  0  0  0
    7.1175    1.3850    3.6814 C   0  0  0  0  0  0  0  0  0  0  0  0
    6.4064    2.0293    4.5589 N   0  0  0  0  0  0  0  0  0  0  0  0
    7.0239    2.0859    5.7863 C   0  0  0  0  0  0  0  0  0  0  0  0
    6.3294    2.7875    6.9113 C   0  0  0  0  0  0  0  0  0  0  0  0
    6.7835    2.8941    8.0202 O   0  0  0  0  0  0  0  0  0  0  0  0
    5.1364    3.2909    6.5547 O   0  0  0  0  0  0  0  0  0  0  0  0
    8.2484    1.4748    5.8592 C   0  0  0  0  0  0  0  0  0  0  0  0
    8.6400    0.7895    4.3260 S   0  0  0  0  0  0  0  0  0  0  0  0
    0.7267   -1.2310    3.7651 H   0  0  0  0  0  0  0  0  0  0  0  0
    0.6635   -1.1710    1.9896 H   0  0  0  0  0  0  0  0  0  0  0  0
    0.5039    0.3219    2.9404 H   0  0  0  0  0  0  0  0  0  0  0  0
    3.0294   -1.4736    2.8849 H   0  0  0  0  0  0  0  0  0  0  0  0
    2.9020    0.0531    3.7476 H   0  0  0  0  0  0  0  0  0  0  0  0
    2.7872   -0.3673    0.7123 H   0  0  0  0  0  0  0  0  0  0  0  0
    1.4582    1.5757    1.1550 H   0  0  0  0  0  0  0  0  0  0  0  0
    3.0036    2.0771    0.4634 H   0  0  0  0  0  0  0  0  0  0  0  0
    2.3092    2.3029    3.3184 H   0  0  0  0  0  0  0  0  0  0  0  0
    2.5702    3.5149    2.2555 H   0  0  0  0  0  0  0  0  0  0  0  0
    4.7352    1.9858    2.4273 H   0  0  0  0  0  0  0  0  0  0  0  0
    7.2182    1.9985    1.6416 H   0  0  0  0  0  0  0  0  0  0  0  0
    7.0998    0.2382    1.8511 H   0  0  0  0  0  0  0  0  0  0  0  0
    5.0030    3.0739    5.6107 H   0  0  0  0  0  0  0  0  0  0  0  0
    8.9006    1.4004    6.7272 H   0  0  0  0  0  0  0  0  0  0  0  0
  1  2  1  0
  1 18  1  0
  1 19  1  0
  1 20  1  0
  2  3  1  0
  2 21  1  0
  2 22  1  0
  3  4  1  0
  3  6  1  0
  3 23  1  6
  4  5  1  0
  4 24  1  0
  4 25  1  0
  5 26  1  0
  5 27  1  0
  6  7  2  0
  6  8  1  0
  8  9  1  0
  8 28  1  0
  9 10  1  0
  9 29  1  0
  9 30  1  0
 10 11  2  0
 10 17  1  0
 11 12  1  0
 12 13  1  0
 12 16  2  0
 13 14  2  0
 13 15  1  0
 15 31  1  0
 16 17  1  0
 16 32  1  0
M  END

