
     RDKit          3D

 25 26  0  0  0  0  0  0  0  0999 V2000
    2.5781    1.7669    0.4060 O   0  0  0  0  0  0  0  0  0  0  0  0
    2.8582    0.6351    0.1053 C   0  0  0  0  0  0  0  0  0  0  0  0
    2.9351   -0.3290    1.0335 O   0  0  0  0  0  0  0  0  0  0  0  0
    3.1347    0.2453   -1.3299 C   0  0  0  0  0  0  0  0  0  0  0  0
    3.0399    1.2623   -2.2965 C   0  0  0  0  0  0  0  0  0  0  0  0
    3.2484    1.0944   -3.6008 N   0  0  0  0  0  0  0  0  0  0  0  0
    3.5732   -0.1326   -4.0136 C   0  0  0  0  0  0  0  0  0  0  0  0
    3.7038   -1.2334   -3.1639 C   0  0  0  0  0  0  0  0  0  0  0  0
    3.4789   -1.0384   -1.7988 C   0  0  0  0  0  0  0  0  0  0  0  0
    3.5932   -2.0504   -0.8742 O   0  0  0  0  0  0  0  0  0  0  0  0
    3.7875   -3.3683   -1.2685 C   0  0  0  0  0  0  0  0  0  0  0  0
    2.6974   -4.1576   -1.7493 C   0  0  0  0  0  0  0  0  0  0  0  0
    2.8852   -5.4729   -2.0636 C   0  0  0  0  0  0  0  0  0  0  0  0
    4.1833   -6.1287   -1.9196 C   0  0  0  0  0  0  0  0  0  0  0  0
    4.4471   -7.2892   -2.1737 O   0  0  0  0  0  0  0  0  0  0  0  0
    5.1849   -5.2593   -1.4240 N   0  0  0  0  0  0  0  0  0  0  0  0
    6.0957   -5.6956   -1.3026 H   0  0  0  0  0  0  0  0  0  0  0  0
    5.0153   -3.9454   -1.1118 C   0  0  0  0  0  0  0  0  0  0  0  0
    3.1722   -1.1798    0.6221 H   0  0  0  0  0  0  0  0  0  0  0  0
    2.7738    2.2643   -1.9457 H   0  0  0  0  0  0  0  0  0  0  0  0
    3.7449   -0.2615   -5.0888 H   0  0  0  0  0  0  0  0  0  0  0  0
    3.9761   -2.2121   -3.5592 H   0  0  0  0  0  0  0  0  0  0  0  0
    1.7142   -3.6910   -1.8542 H   0  0  0  0  0  0  0  0  0  0  0  0
    2.0702   -6.0991   -2.4292 H   0  0  0  0  0  0  0  0  0  0  0  0
    5.8778   -3.3943   -0.7331 H   0  0  0  0  0  0  0  0  0  0  0  0
  1  2  2  0
  2  3  1  0
  2  4  1  0
  3 19  1  0
  4  5  2  0
  4  9  1  0
  5  6  1  0
  5 20  1  0
  6  7  2  0
  7  8  1  0
  7 21  1  0
  8  9  2  0
  8 22  1  0
  9 10  1  0
 10 11  1  0
 11 12  1  0
 11 18  2  0
 12 13  2  0
 12 23  1  0
 13 14  1  0
 13 24  1  0
 14 15  2  0
 14 16  1  0
 16 17  1  0
 16 18  1  0
 18 25  1  0
M  END

