
     RDKit          3D

 34 36  0  0  0  0  0  0  0  0999 V2000
    2.7445   -5.6034    1.5752 C   0  0  0  0  0  0  0  0  0  0  0  0
    2.5459   -4.4108    0.8503 O   0  0  0  0  0  0  0  0  0  0  0  0
    3.4545   -3.3995    0.9595 C   0  0  0  0  0  0  0  0  0  0  0  0
    4.6023   -3.4376    1.7503 C   0  0  0  0  0  0  0  0  0  0  0  0
    5.4730   -2.3399    1.7917 C   0  0  0  0  0  0  0  0  0  0  0  0
    5.1768   -1.2114    1.0331 C   0  0  0  0  0  0  0  0  0  0  0  0
    6.2581    0.1674    1.0769 Cl  0  0  0  0  0  0  0  0  0  0  0  0
    4.0318   -1.1475    0.2312 C   0  0  0  0  0  0  0  0  0  0  0  0
    3.1600   -2.2426    0.1878 C   0  0  0  0  0  0  0  0  0  0  0  0
    1.9916   -2.2865   -0.5769 N   0  0  0  0  0  0  0  0  0  0  0  0
    1.4729   -1.3216   -1.4022 C   0  0  0  0  0  0  0  0  0  0  0  0
    1.9700   -0.2261   -1.6114 O   0  0  0  0  0  0  0  0  0  0  0  0
    0.1958   -1.7311   -2.0569 C   0  0  0  0  0  0  0  0  0  0  0  0
   -0.5671   -0.9517   -2.9553 C   0  0  0  0  0  0  0  0  0  0  0  0
   -1.6552   -1.7546   -3.2877 C   0  0  0  0  0  0  0  0  0  0  0  0
   -2.7862   -1.5126   -4.1672 C   0  0  0  0  0  0  0  0  0  0  0  0
   -3.0436   -0.3834   -4.9199 C   0  0  0  0  0  0  0  0  0  0  0  0
   -4.2468   -0.4745   -5.6761 C   0  0  0  0  0  0  0  0  0  0  0  0
   -4.8999   -1.6679   -5.4982 C   0  0  0  0  0  0  0  0  0  0  0  0
   -4.0505   -2.6995   -4.4003 S   0  0  0  0  0  0  0  0  0  0  0  0
   -1.4703   -2.9192   -2.5863 N   0  0  0  0  0  0  0  0  0  0  0  0
   -2.0712   -3.7360   -2.5869 H   0  0  0  0  0  0  0  0  0  0  0  0
   -0.3646   -2.9238   -1.8420 N   0  0  0  0  0  0  0  0  0  0  0  0
    1.8999   -6.2620    1.3332 H   0  0  0  0  0  0  0  0  0  0  0  0
    2.7578   -5.4213    2.6648 H   0  0  0  0  0  0  0  0  0  0  0  0
    3.6856   -6.1046    1.2861 H   0  0  0  0  0  0  0  0  0  0  0  0
    4.8347   -4.3213    2.3448 H   0  0  0  0  0  0  0  0  0  0  0  0
    6.3710   -2.3682    2.4098 H   0  0  0  0  0  0  0  0  0  0  0  0
    3.8047   -0.2644   -0.3601 H   0  0  0  0  0  0  0  0  0  0  0  0
    1.4567   -3.1496   -0.5070 H   0  0  0  0  0  0  0  0  0  0  0  0
   -0.3389    0.0524   -3.2993 H   0  0  0  0  0  0  0  0  0  0  0  0
   -2.3842    0.4852   -4.9276 H   0  0  0  0  0  0  0  0  0  0  0  0
   -4.6152    0.3176   -6.3296 H   0  0  0  0  0  0  0  0  0  0  0  0
   -5.8326   -2.0056   -5.9473 H   0  0  0  0  0  0  0  0  0  0  0  0
  1  2  1  0
  1 24  1  0
  1 25  1  0
  1 26  1  0
  2  3  1  0
  3  4  2  0
  3  9  1  0
  4  5  1  0
  4 27  1  0
  5  6  2  0
  5 28  1  0
  6  7  1  0
  6  8  1  0
  8  9  2  0
  8 29  1  0
  9 10  1  0
 10 11  1  0
 10 30  1  0
 11 12  2  0
 11 13  1  0
 13 14  1  0
 13 23  2  0
 14 15  2  0
 14 31  1  0
 15 16  1  0
 15 21  1  0
 16 17  2  0
 16 20  1  0
 17 18  1  0
 17 32  1  0
 18 19  2  0
 18 33  1  0
 19 20  1  0
 19 34  1  0
 21 22  1  0
 21 23  1  0
M  END

