
     RDKit          3D

 61 64  0  0  0  0  0  0  0  0999 V2000
   11.1057    6.6100    3.1890 C   0  0  0  0  0  0  0  0  0  0  0  0
   12.1135    7.5080    2.4870 C   0  0  0  0  0  0  0  0  0  0  0  0
   11.9163    7.5432    1.0682 O   0  0  0  0  0  0  0  0  0  0  0  0
   10.9496    8.3723    0.5793 C   0  0  0  0  0  0  0  0  0  0  0  0
    9.8041    7.8311    0.0015 C   0  0  0  0  0  0  0  0  0  0  0  0
    8.8168    8.6423   -0.5865 C   0  0  0  0  0  0  0  0  0  0  0  0
    7.5776    8.0235   -1.1909 C   0  0  0  0  0  0  0  0  0  0  0  0
    6.7289    7.4009   -0.1658 N   0  0  0  0  0  0  0  0  0  0  0  0
    5.4822    6.7831   -0.6364 C   0  0  2  0  0  0  0  0  0  0  0  0
    5.7074    6.3188   -1.6142 H   0  0  0  0  0  0  0  0  0  0  0  0
    4.2911    7.7267   -0.8038 C   0  0  0  0  0  0  0  0  0  0  0  0
    5.1332    5.5898    0.2873 C   0  0  0  0  0  0  0  0  0  0  0  0
    4.0461    5.0747    0.3186 O   0  0  0  0  0  0  0  0  0  0  0  0
    6.1738    5.1727    1.0097 O   0  0  0  0  0  0  0  0  0  0  0  0
    9.0050   10.0257   -0.5687 C   0  0  0  0  0  0  0  0  0  0  0  0
   10.1524   10.5947    0.0012 C   0  0  0  0  0  0  0  0  0  0  0  0
   11.1375    9.7817    0.5730 C   0  0  0  0  0  0  0  0  0  0  0  0
   12.2911   10.2349    1.1209 O   0  0  0  0  0  0  0  0  0  0  0  0
   12.6248   11.6125    1.0344 C   0  0  0  0  0  0  0  0  0  0  0  0
   14.0368   11.8367    1.5772 C   0  0  2  0  0  0  0  0  0  0  0  0
   15.0770   11.0253    0.7667 C   0  0  0  0  0  0  0  0  0  0  0  0
   16.4979   11.2900    1.3001 C   0  0  1  0  0  0  0  0  0  0  0  0
   16.8226   12.7911    1.1711 C   0  0  0  0  0  0  0  0  0  0  0  0
   15.8047   13.6102    1.9892 C   0  0  2  0  0  0  0  0  0  0  0  0
   15.8850   13.1941    3.4711 C   0  0  0  0  0  0  0  0  0  0  0  0
   15.5596   11.6935    3.6015 C   0  0  2  0  0  0  0  0  0  0  0  0
   16.5754   10.8735    2.7820 C   0  0  0  0  0  0  0  0  0  0  0  0
   14.1390   11.4282    3.0671 C   0  0  0  0  0  0  0  0  0  0  0  0
   14.3832   13.3411    1.4571 C   0  0  0  0  0  0  0  0  0  0  0  0
   11.3186    6.5730    4.2699 H   0  0  0  0  0  0  0  0  0  0  0  0
   11.1511    5.5834    2.7932 H   0  0  0  0  0  0  0  0  0  0  0  0
   10.0771    6.9832    3.0616 H   0  0  0  0  0  0  0  0  0  0  0  0
   13.1360    7.1238    2.6252 H   0  0  0  0  0  0  0  0  0  0  0  0
   12.0855    8.5303    2.8979 H   0  0  0  0  0  0  0  0  0  0  0  0
    9.7036    6.7432    0.0067 H   0  0  0  0  0  0  0  0  0  0  0  0
    7.8602    7.2320   -1.9067 H   0  0  0  0  0  0  0  0  0  0  0  0
    7.0344    8.7951   -1.7715 H   0  0  0  0  0  0  0  0  0  0  0  0
    6.5249    8.0865    0.5639 H   0  0  0  0  0  0  0  0  0  0  0  0
    3.4053    7.1583   -1.1189 H   0  0  0  0  0  0  0  0  0  0  0  0
    4.4993    8.5039   -1.5553 H   0  0  0  0  0  0  0  0  0  0  0  0
    4.0458    8.2205    0.1512 H   0  0  0  0  0  0  0  0  0  0  0  0
    6.8890    5.8253    0.7983 H   0  0  0  0  0  0  0  0  0  0  0  0
    8.2531   10.6829   -1.0146 H   0  0  0  0  0  0  0  0  0  0  0  0
   10.2726   11.6778   -0.0132 H   0  0  0  0  0  0  0  0  0  0  0  0
   11.8960   12.2136    1.6120 H   0  0  0  0  0  0  0  0  0  0  0  0
   12.5728   11.9419   -0.0207 H   0  0  0  0  0  0  0  0  0  0  0  0
   15.0151   11.3078   -0.2997 H   0  0  0  0  0  0  0  0  0  0  0  0
   14.8320    9.9530    0.8255 H   0  0  0  0  0  0  0  0  0  0  0  0
   17.2224   10.7018    0.7115 H   0  0  0  0  0  0  0  0  0  0  0  0
   16.7921   13.0967    0.1106 H   0  0  0  0  0  0  0  0  0  0  0  0
   17.8465   12.9926    1.5308 H   0  0  0  0  0  0  0  0  0  0  0  0
   16.0299   14.6860    1.8926 H   0  0  0  0  0  0  0  0  0  0  0  0
   15.1770   13.7904    4.0728 H   0  0  0  0  0  0  0  0  0  0  0  0
   16.8936   13.4015    3.8686 H   0  0  0  0  0  0  0  0  0  0  0  0
   15.6106   11.3939    4.6623 H   0  0  0  0  0  0  0  0  0  0  0  0
   16.3633    9.7951    2.8841 H   0  0  0  0  0  0  0  0  0  0  0  0
   17.5959   11.0362    3.1700 H   0  0  0  0  0  0  0  0  0  0  0  0
   13.3987   11.9966    3.6586 H   0  0  0  0  0  0  0  0  0  0  0  0
   13.8848   10.3617    3.1751 H   0  0  0  0  0  0  0  0  0  0  0  0
   14.3100   13.6592    0.4018 H   0  0  0  0  0  0  0  0  0  0  0  0
   13.6490   13.9422    2.0230 H   0  0  0  0  0  0  0  0  0  0  0  0
  1  2  1  0
  1 30  1  0
  1 31  1  0
  1 32  1  0
  2  3  1  0
  2 33  1  0
  2 34  1  0
  3  4  1  0
  4  5  2  0
  4 17  1  0
  5  6  1  0
  5 35  1  0
  6  7  1  0
  6 15  2  0
  7  8  1  0
  7 36  1  0
  7 37  1  0
  8  9  1  0
  8 38  1  0
  9 10  1  6
  9 11  1  0
  9 12  1  0
 11 39  1  0
 11 40  1  0
 11 41  1  0
 12 13  2  0
 12 14  1  0
 14 42  1  0
 15 16  1  0
 15 43  1  0
 16 17  2  0
 16 44  1  0
 17 18  1  0
 18 19  1  0
 20 19  1  6
 19 45  1  0
 19 46  1  0
 20 21  1  0
 20 28  1  0
 20 29  1  0
 21 22  1  0
 21 47  1  0
 21 48  1  0
 22 23  1  0
 22 27  1  0
 22 49  1  6
 23 24  1  0
 23 50  1  0
 23 51  1  0
 24 25  1  0
 24 29  1  0
 24 52  1  1
 25 26  1  0
 25 53  1  0
 25 54  1  0
 26 27  1  0
 26 28  1  0
 26 55  1  1
 27 56  1  0
 27 57  1  0
 28 58  1  0
 28 59  1  0
 29 60  1  0
 29 61  1  0
M  END

