
     RDKit          3D

 42 44  0  0  0  0  0  0  0  0999 V2000
    2.5498    2.6382    0.1393 N   0  0  0  0  0  0  0  0  0  0  0  0
    3.2531    1.7188    0.0878 C   0  0  0  0  0  0  0  0  0  0  0  0
    4.1734    0.5644    0.0182 C   0  0  1  0  0  0  0  0  0  0  0  0
    4.6839    0.4319   -1.3357 N   0  0  0  0  0  0  0  0  0  0  0  0
    4.4390   -0.6751   -2.0843 C   0  0  0  0  0  0  0  0  0  0  0  0
    3.7978   -1.6413   -1.7086 O   0  0  0  0  0  0  0  0  0  0  0  0
    4.9830   -0.6334   -3.5250 C   0  0  0  0  0  0  0  0  0  0  0  0
    6.2641    0.0314   -3.7011 N   0  0  0  0  0  0  0  0  0  0  0  0
    7.4202   -0.5404   -4.1165 C   0  0  0  0  0  0  0  0  0  0  0  0
    8.3791    0.4815   -4.1388 C   0  0  0  0  0  0  0  0  0  0  0  0
    9.7571    0.5769   -4.4711 C   0  0  0  0  0  0  0  0  0  0  0  0
   10.3675    1.8075   -4.3562 C   0  0  0  0  0  0  0  0  0  0  0  0
    9.6458    2.9612   -3.9181 C   0  0  0  0  0  0  0  0  0  0  0  0
    8.3085    2.9022   -3.5898 C   0  0  0  0  0  0  0  0  0  0  0  0
    7.6561    1.6453   -3.6998 C   0  0  0  0  0  0  0  0  0  0  0  0
    6.3667    1.3458   -3.4417 N   0  0  0  0  0  0  0  0  0  0  0  0
    5.2964    0.6740    1.0952 C   0  0  1  0  0  0  0  0  0  0  0  0
    4.7181    0.8041    2.5203 C   0  0  0  0  0  0  0  0  0  0  0  0
    4.1052   -0.5048    3.0415 C   0  0  0  0  0  0  0  0  0  0  0  0
    5.1022   -1.6685    2.9610 C   0  0  0  0  0  0  0  0  0  0  0  0
    5.6704   -1.8296    1.5446 C   0  0  0  0  0  0  0  0  0  0  0  0
    6.2752   -0.5158    1.0274 C   0  0  0  0  0  0  0  0  0  0  0  0
    3.5711   -0.3408    0.1937 H   0  0  0  0  0  0  0  0  0  0  0  0
    5.2127    1.1931   -1.7720 H   0  0  0  0  0  0  0  0  0  0  0  0
    4.2329   -0.1276   -4.1552 H   0  0  0  0  0  0  0  0  0  0  0  0
    5.0727   -1.6728   -3.8605 H   0  0  0  0  0  0  0  0  0  0  0  0
    7.4748   -1.5971   -4.3680 H   0  0  0  0  0  0  0  0  0  0  0  0
   10.3154   -0.3001   -4.8072 H   0  0  0  0  0  0  0  0  0  0  0  0
   11.4264    1.9123   -4.6046 H   0  0  0  0  0  0  0  0  0  0  0  0
   10.1760    3.9143   -3.8455 H   0  0  0  0  0  0  0  0  0  0  0  0
    7.7553    3.7832   -3.2586 H   0  0  0  0  0  0  0  0  0  0  0  0
    5.8559    1.5974    0.8634 H   0  0  0  0  0  0  0  0  0  0  0  0
    3.9812    1.6224    2.5646 H   0  0  0  0  0  0  0  0  0  0  0  0
    5.5451    1.1019    3.1885 H   0  0  0  0  0  0  0  0  0  0  0  0
    3.1986   -0.7565    2.4618 H   0  0  0  0  0  0  0  0  0  0  0  0
    3.7642   -0.3626    4.0805 H   0  0  0  0  0  0  0  0  0  0  0  0
    4.6249   -2.6059    3.2921 H   0  0  0  0  0  0  0  0  0  0  0  0
    5.9339   -1.4784    3.6651 H   0  0  0  0  0  0  0  0  0  0  0  0
    4.8772   -2.1731    0.8573 H   0  0  0  0  0  0  0  0  0  0  0  0
    6.4416   -2.6181    1.5311 H   0  0  0  0  0  0  0  0  0  0  0  0
    6.6529   -0.6400    0.0004 H   0  0  0  0  0  0  0  0  0  0  0  0
    7.1521   -0.2544    1.6459 H   0  0  0  0  0  0  0  0  0  0  0  0
  1  2  3  0
  2  3  1  0
  3  4  1  0
  3 17  1  0
  3 23  1  1
  4  5  1  0
  4 24  1  0
  5  6  2  0
  5  7  1  0
  7  8  1  0
  7 25  1  0
  7 26  1  0
  8  9  1  0
  8 16  1  0
  9 10  2  0
  9 27  1  0
 10 11  1  0
 10 15  1  0
 11 12  2  0
 11 28  1  0
 12 13  1  0
 12 29  1  0
 13 14  2  0
 13 30  1  0
 14 15  1  0
 14 31  1  0
 15 16  2  0
 17 18  1  0
 17 22  1  0
 17 32  1  6
 18 19  1  0
 18 33  1  0
 18 34  1  0
 19 20  1  0
 19 35  1  0
 19 36  1  0
 20 21  1  0
 20 37  1  0
 20 38  1  0
 21 22  1  0
 21 39  1  0
 21 40  1  0
 22 41  1  0
 22 42  1  0
M  END

