
     RDKit          3D

 57 60  0  0  0  0  0  0  0  0999 V2000
    4.8144    1.7153    4.0305 C   0  0  0  0  0  0  0  0  0  0  0  0
    4.9830    0.3222    3.8977 O   0  0  0  0  0  0  0  0  0  0  0  0
    4.1298   -0.3775    3.1019 C   0  0  0  0  0  0  0  0  0  0  0  0
    3.0911    0.1981    2.3627 C   0  0  0  0  0  0  0  0  0  0  0  0
    2.2456   -0.6169    1.5993 C   0  0  0  0  0  0  0  0  0  0  0  0
    2.4304   -1.9948    1.5708 C   0  0  0  0  0  0  0  0  0  0  0  0
    3.4768   -2.5938    2.2952 C   0  0  0  0  0  0  0  0  0  0  0  0
    3.6433   -4.1027    2.2988 C   0  0  0  0  0  0  0  0  0  0  0  0
    3.4490   -4.7226    0.9859 N   0  0  0  0  0  0  0  0  0  0  0  0
    4.5738   -4.4422    0.0947 C   0  0  0  0  0  0  0  0  0  0  0  0
    4.2824   -4.7105   -1.3666 C   0  0  0  0  0  0  0  0  0  0  0  0
    3.1827   -4.0570   -1.9985 C   0  0  0  0  0  0  0  0  0  0  0  0
    2.9038   -4.2539   -3.3318 C   0  0  0  0  0  0  0  0  0  0  0  0
    3.7086   -5.1225   -4.1234 C   0  0  0  0  0  0  0  0  0  0  0  0
    3.4019   -5.2935   -5.4386 N   0  0  0  0  0  0  0  0  0  0  0  0
    4.1556   -6.0996   -6.1543 C   0  0  0  0  0  0  0  0  0  0  0  0
    5.2740   -6.8065   -5.6382 C   0  0  0  0  0  0  0  0  0  0  0  0
    5.6012   -6.6470   -4.3093 C   0  0  0  0  0  0  0  0  0  0  0  0
    4.8159   -5.7852   -3.4988 C   0  0  0  0  0  0  0  0  0  0  0  0
    5.0735   -5.5587   -2.1177 C   0  0  0  0  0  0  0  0  0  0  0  0
    3.1450   -6.1485    1.0770 C   0  0  0  0  0  0  0  0  0  0  0  0
    1.6981   -6.4514    1.4719 C   0  0  1  0  0  0  0  0  0  0  0  0
    0.6272   -5.9987    0.4693 C   0  0  0  0  0  0  0  0  0  0  0  0
   -0.4574   -7.0671    0.6538 C   0  0  0  0  0  0  0  0  0  0  0  0
    0.3860   -8.3198    0.9081 C   0  0  0  0  0  0  0  0  0  0  0  0
    1.5612   -7.8730    1.5748 O   0  0  0  0  0  0  0  0  0  0  0  0
    4.3312   -1.7825    3.0588 C   0  0  0  0  0  0  0  0  0  0  0  0
    5.3066   -2.3694    3.8193 O   0  0  0  0  0  0  0  0  0  0  0  0
    6.6601   -2.0780    3.5001 C   0  0  0  0  0  0  0  0  0  0  0  0
    5.5904    2.0591    4.7278 H   0  0  0  0  0  0  0  0  0  0  0  0
    3.8226    1.9700    4.4453 H   0  0  0  0  0  0  0  0  0  0  0  0
    4.9412    2.2411    3.0668 H   0  0  0  0  0  0  0  0  0  0  0  0
    2.9264    1.2753    2.3853 H   0  0  0  0  0  0  0  0  0  0  0  0
    1.4327   -0.1596    1.0298 H   0  0  0  0  0  0  0  0  0  0  0  0
    1.7737   -2.6351    0.9794 H   0  0  0  0  0  0  0  0  0  0  0  0
    2.8931   -4.5234    2.9878 H   0  0  0  0  0  0  0  0  0  0  0  0
    4.6276   -4.3640    2.7348 H   0  0  0  0  0  0  0  0  0  0  0  0
    5.4865   -5.0039    0.3968 H   0  0  0  0  0  0  0  0  0  0  0  0
    4.8182   -3.3724    0.2074 H   0  0  0  0  0  0  0  0  0  0  0  0
    2.5609   -3.3884   -1.3993 H   0  0  0  0  0  0  0  0  0  0  0  0
    2.0679   -3.7539   -3.8254 H   0  0  0  0  0  0  0  0  0  0  0  0
    3.8858   -6.2186   -7.2117 H   0  0  0  0  0  0  0  0  0  0  0  0
    5.8546   -7.4603   -6.2931 H   0  0  0  0  0  0  0  0  0  0  0  0
    6.4543   -7.1721   -3.8696 H   0  0  0  0  0  0  0  0  0  0  0  0
    5.9189   -6.0738   -1.6507 H   0  0  0  0  0  0  0  0  0  0  0  0
    3.8212   -6.6740    1.7867 H   0  0  0  0  0  0  0  0  0  0  0  0
    3.3132   -6.6082    0.0914 H   0  0  0  0  0  0  0  0  0  0  0  0
    1.4804   -6.0127    2.4663 H   0  0  0  0  0  0  0  0  0  0  0  0
    1.0321   -6.0275   -0.5562 H   0  0  0  0  0  0  0  0  0  0  0  0
    0.2740   -4.9752    0.6586 H   0  0  0  0  0  0  0  0  0  0  0  0
   -1.1285   -7.1682   -0.2126 H   0  0  0  0  0  0  0  0  0  0  0  0
   -1.0777   -6.8369    1.5361 H   0  0  0  0  0  0  0  0  0  0  0  0
    0.6562   -8.8157   -0.0455 H   0  0  0  0  0  0  0  0  0  0  0  0
   -0.1240   -9.0672    1.5393 H   0  0  0  0  0  0  0  0  0  0  0  0
    7.2789   -2.6992    4.1632 H   0  0  0  0  0  0  0  0  0  0  0  0
    6.9006   -1.0173    3.6675 H   0  0  0  0  0  0  0  0  0  0  0  0
    6.8886   -2.3408    2.4508 H   0  0  0  0  0  0  0  0  0  0  0  0
  1  2  1  0
  1 30  1  0
  1 31  1  0
  1 32  1  0
  2  3  1  0
  3  4  2  0
  3 27  1  0
  4  5  1  0
  4 33  1  0
  5  6  2  0
  5 34  1  0
  6  7  1  0
  6 35  1  0
  7  8  1  0
  7 27  2  0
  8  9  1  0
  8 36  1  0
  8 37  1  0
  9 10  1  0
  9 21  1  0
 10 11  1  0
 10 38  1  0
 10 39  1  0
 11 12  2  0
 11 20  1  0
 12 13  1  0
 12 40  1  0
 13 14  2  0
 13 41  1  0
 14 15  1  0
 14 19  1  0
 15 16  2  0
 16 17  1  0
 16 42  1  0
 17 18  2  0
 17 43  1  0
 18 19  1  0
 18 44  1  0
 19 20  2  0
 20 45  1  0
 21 22  1  0
 21 46  1  0
 21 47  1  0
 22 23  1  0
 22 26  1  0
 22 48  1  1
 23 24  1  0
 23 49  1  0
 23 50  1  0
 24 25  1  0
 24 51  1  0
 24 52  1  0
 25 26  1  0
 25 53  1  0
 25 54  1  0
 27 28  1  0
 28 29  1  0
 29 55  1  0
 29 56  1  0
 29 57  1  0
M  END

