
     RDKit          3D

 40 40  0  0  0  0  0  0  0  0999 V2000
    1.1205    1.3695   -0.7437 C   0  0  0  0  0  0  0  0  0  0  0  0
    2.2806    0.4611   -0.2973 C   0  0  1  0  0  0  0  0  0  0  0  0
    1.8248   -0.4734    0.8413 C   0  0  0  0  0  0  0  0  0  0  0  0
    2.7287   -0.3557   -1.4500 C   0  0  0  0  0  0  0  0  0  0  0  0
    3.0576   -1.0458   -2.3957 C   0  0  0  0  0  0  0  0  0  0  0  0
    3.4429   -1.8456   -3.5158 C   0  0  0  0  0  0  0  0  0  0  0  0
    3.2371   -1.4017   -4.8394 C   0  0  0  0  0  0  0  0  0  0  0  0
    3.6108   -2.1883   -5.9278 C   0  0  0  0  0  0  0  0  0  0  0  0
    4.1943   -3.4426   -5.7219 C   0  0  0  0  0  0  0  0  0  0  0  0
    4.4041   -3.9101   -4.4222 C   0  0  0  0  0  0  0  0  0  0  0  0
    4.0373   -3.1130   -3.3400 C   0  0  0  0  0  0  0  0  0  0  0  0
    4.1864   -3.5920   -2.0387 O   0  0  0  0  0  0  0  0  0  0  0  0
    5.4165   -3.6198   -1.4835 C   0  0  1  0  0  0  0  0  0  0  0  0
    6.0505   -2.4416   -1.5795 F   0  0  0  0  0  0  0  0  0  0  0  0
    5.2789   -3.9255   -0.1993 F   0  0  0  0  0  0  0  0  0  0  0  0
    6.2156   -4.5396   -2.0522 F   0  0  0  0  0  0  0  0  0  0  0  0
    3.3038    1.3261    0.1716 O   0  0  0  0  0  0  0  0  0  0  0  0
    4.9721    1.2286    0.4250 Si  0  0  1  0  0  4  0  0  0  0  0  0
    5.4399   -0.2844    1.4508 C   0  0  0  0  0  0  0  0  0  0  0  0
    5.9111    1.2247   -1.2080 C   0  0  0  0  0  0  0  0  0  0  0  0
    5.3480    2.8035    1.3811 C   0  0  0  0  0  0  0  0  0  0  0  0
    0.2682    0.7772   -1.1087 H   0  0  0  0  0  0  0  0  0  0  0  0
    1.4585    2.0418   -1.5453 H   0  0  0  0  0  0  0  0  0  0  0  0
    0.7967    1.9818    0.1114 H   0  0  0  0  0  0  0  0  0  0  0  0
    0.9756   -1.0964    0.5224 H   0  0  0  0  0  0  0  0  0  0  0  0
    1.5176    0.1367    1.7044 H   0  0  0  0  0  0  0  0  0  0  0  0
    2.6423   -1.1391    1.1517 H   0  0  0  0  0  0  0  0  0  0  0  0
    2.7780   -0.4236   -4.9942 H   0  0  0  0  0  0  0  0  0  0  0  0
    3.4423   -1.8224   -6.9432 H   0  0  0  0  0  0  0  0  0  0  0  0
    4.4824   -4.0640   -6.5730 H   0  0  0  0  0  0  0  0  0  0  0  0
    4.8459   -4.8897   -4.2363 H   0  0  0  0  0  0  0  0  0  0  0  0
    5.2593   -1.2276    0.9120 H   0  0  0  0  0  0  0  0  0  0  0  0
    4.8807   -0.3154    2.4000 H   0  0  0  0  0  0  0  0  0  0  0  0
    6.5149   -0.2506    1.6983 H   0  0  0  0  0  0  0  0  0  0  0  0
    5.7861    0.2747   -1.7489 H   0  0  0  0  0  0  0  0  0  0  0  0
    6.9898    1.3695   -1.0257 H   0  0  0  0  0  0  0  0  0  0  0  0
    5.5672    2.0416   -1.8632 H   0  0  0  0  0  0  0  0  0  0  0  0
    4.8000    2.8284    2.3370 H   0  0  0  0  0  0  0  0  0  0  0  0
    5.0534    3.6939    0.8021 H   0  0  0  0  0  0  0  0  0  0  0  0
    6.4250    2.8851    1.6041 H   0  0  0  0  0  0  0  0  0  0  0  0
  1  2  1  0
  1 22  1  0
  1 23  1  0
  1 24  1  0
  2  3  1  0
  2  4  1  6
  2 17  1  0
  3 25  1  0
  3 26  1  0
  3 27  1  0
  4  5  3  0
  5  6  1  0
  6  7  2  0
  6 11  1  0
  7  8  1  0
  7 28  1  0
  8  9  2  0
  8 29  1  0
  9 10  1  0
  9 30  1  0
 10 11  2  0
 10 31  1  0
 11 12  1  0
 12 13  1  0
 13 14  1  1
 13 15  1  0
 13 16  1  0
 18 17  1  6
 18 19  1  0
 18 20  1  0
 18 21  1  0
 19 32  1  0
 19 33  1  0
 19 34  1  0
 20 35  1  0
 20 36  1  0
 20 37  1  0
 21 38  1  0
 21 39  1  0
 21 40  1  0
M  END

