
     RDKit          3D

 37 39  0  0  0  0  0  0  0  0999 V2000
    2.2090   -0.0757    1.4561 O   0  0  0  0  0  0  0  0  0  0  0  0
    2.3221   -0.6968    0.1404 S   0  0  1  0  0  0  0  0  0  0  0  0
    1.4442   -1.7837   -0.2972 O   0  0  0  0  0  0  0  0  0  0  0  0
    2.1710    0.5224   -0.9703 N   0  0  0  0  0  0  0  0  0  0  0  0
    1.7005    0.3505   -2.3449 C   0  0  1  0  0  0  0  0  0  0  0  0
    1.5959   -0.7382   -2.4838 H   0  0  0  0  0  0  0  0  0  0  0  0
    0.3076    0.9575   -2.5665 C   0  0  0  0  0  0  0  0  0  0  0  0
   -0.4532    1.4476   -1.4983 C   0  0  0  0  0  0  0  0  0  0  0  0
   -1.7400    1.9537   -1.7145 C   0  0  0  0  0  0  0  0  0  0  0  0
   -2.2859    1.9669   -2.9992 C   0  0  0  0  0  0  0  0  0  0  0  0
   -1.5368    1.4668   -4.0702 C   0  0  0  0  0  0  0  0  0  0  0  0
   -0.2511    0.9678   -3.8552 C   0  0  0  0  0  0  0  0  0  0  0  0
    2.7335    0.8719   -3.3247 C   0  0  0  0  0  0  0  0  0  0  0  0
    2.8814    2.1452   -3.8245 C   0  0  0  0  0  0  0  0  0  0  0  0
    4.0363    2.2950   -4.6517 C   0  0  0  0  0  0  0  0  0  0  0  0
    4.7550    1.1329   -4.7714 C   0  0  0  0  0  0  0  0  0  0  0  0
    4.0293   -0.1566   -3.8762 S   0  0  0  0  0  0  0  0  0  0  0  0
    4.0078   -1.3130   -0.0083 C   0  0  0  0  0  0  0  0  0  0  0  0
    4.2309   -2.6760   -0.2230 C   0  0  0  0  0  0  0  0  0  0  0  0
    5.5381   -3.1666   -0.2799 C   0  0  0  0  0  0  0  0  0  0  0  0
    6.6194   -2.2941   -0.1212 C   0  0  0  0  0  0  0  0  0  0  0  0
    6.4047   -0.9284    0.0903 C   0  0  0  0  0  0  0  0  0  0  0  0
    5.0996   -0.4530    0.1489 C   0  0  0  0  0  0  0  0  0  0  0  0
    4.8861    0.8568    0.3346 F   0  0  0  0  0  0  0  0  0  0  0  0
    2.5947    1.4034   -0.6909 H   0  0  0  0  0  0  0  0  0  0  0  0
   -0.0396    1.4197   -0.4892 H   0  0  0  0  0  0  0  0  0  0  0  0
   -2.3181    2.3340   -0.8682 H   0  0  0  0  0  0  0  0  0  0  0  0
   -3.2916    2.3603   -3.1674 H   0  0  0  0  0  0  0  0  0  0  0  0
   -1.9564    1.4653   -5.0796 H   0  0  0  0  0  0  0  0  0  0  0  0
    0.3267    0.5831   -4.6994 H   0  0  0  0  0  0  0  0  0  0  0  0
    2.1737    2.9489   -3.6156 H   0  0  0  0  0  0  0  0  0  0  0  0
    4.3172    3.2283   -5.1426 H   0  0  0  0  0  0  0  0  0  0  0  0
    5.6642    0.9576   -5.3451 H   0  0  0  0  0  0  0  0  0  0  0  0
    3.3671   -3.3320   -0.3436 H   0  0  0  0  0  0  0  0  0  0  0  0
    5.7109   -4.2319   -0.4468 H   0  0  0  0  0  0  0  0  0  0  0  0
    7.6424   -2.6753   -0.1649 H   0  0  0  0  0  0  0  0  0  0  0  0
    7.2304   -0.2245    0.2107 H   0  0  0  0  0  0  0  0  0  0  0  0
  1  2  2  0
  2  3  2  0
  2  4  1  6
  2 18  1  0
  4  5  1  0
  4 25  1  0
  5  6  1  6
  5  7  1  0
  5 13  1  0
  7  8  2  0
  7 12  1  0
  8  9  1  0
  8 26  1  0
  9 10  2  0
  9 27  1  0
 10 11  1  0
 10 28  1  0
 11 12  2  0
 11 29  1  0
 12 30  1  0
 13 14  2  0
 13 17  1  0
 14 15  1  0
 14 31  1  0
 15 16  2  0
 15 32  1  0
 16 17  1  0
 16 33  1  0
 18 19  2  0
 18 23  1  0
 19 20  1  0
 19 34  1  0
 20 21  2  0
 20 35  1  0
 21 22  1  0
 21 36  1  0
 22 23  2  0
 22 37  1  0
 23 24  1  0
M  END

