
     RDKit          3D

 50 52  0  0  0  0  0  0  0  0999 V2000
    2.8719    3.5904    1.1645 C   0  0  0  0  0  0  0  0  0  0  0  0
    2.6955    2.6246    2.3366 C   0  0  0  0  0  0  0  0  0  0  0  0
    3.3119    1.2368    2.1107 C   0  0  0  0  0  0  0  0  0  0  0  0
    4.7555    1.2423    1.9192 N   0  0  0  0  0  0  0  0  0  0  0  0
    5.6218    1.1954    2.9752 C   0  0  0  0  0  0  0  0  0  0  0  0
    5.2446    1.1307    4.1357 O   0  0  0  0  0  0  0  0  0  0  0  0
    7.0931    1.2283    2.6320 C   0  0  0  0  0  0  0  0  0  0  0  0
    7.9755    1.6567    3.6339 C   0  0  0  0  0  0  0  0  0  0  0  0
    9.3499    1.7087    3.3964 C   0  0  0  0  0  0  0  0  0  0  0  0
    9.8381    1.3015    2.1527 C   0  0  0  0  0  0  0  0  0  0  0  0
   11.6044    1.3720    1.8245 S   0  0  1  0  0  0  0  0  0  0  0  0
   11.8003    1.7611    0.4255 O   0  0  0  0  0  0  0  0  0  0  0  0
   12.2198    2.1205    2.9249 O   0  0  0  0  0  0  0  0  0  0  0  0
   12.0568   -0.2509    1.8871 N   0  0  0  0  0  0  0  0  0  0  0  0
   12.4761   -0.8245    3.1684 C   0  0  0  0  0  0  0  0  0  0  0  0
   12.7285   -2.3319    3.0125 C   0  0  0  0  0  0  0  0  0  0  0  0
   13.0991   -3.0047    4.3023 C   0  0  0  0  0  0  0  0  0  0  0  0
   14.3590   -3.3920    4.7019 C   0  0  0  0  0  0  0  0  0  0  0  0
   14.3071   -3.9527    5.9619 N   0  0  0  0  0  0  0  0  0  0  0  0
   15.0993   -4.3216    6.4696 H   0  0  0  0  0  0  0  0  0  0  0  0
   13.0048   -3.9430    6.4117 C   0  0  0  0  0  0  0  0  0  0  0  0
   12.4515   -4.4032    7.6150 C   0  0  0  0  0  0  0  0  0  0  0  0
   11.0775   -4.2629    7.7890 C   0  0  0  0  0  0  0  0  0  0  0  0
   10.2690   -3.6799    6.7882 C   0  0  0  0  0  0  0  0  0  0  0  0
   10.8206   -3.2241    5.5950 C   0  0  0  0  0  0  0  0  0  0  0  0
   12.2092   -3.3487    5.3889 C   0  0  0  0  0  0  0  0  0  0  0  0
    8.9799    0.8593    1.1417 C   0  0  0  0  0  0  0  0  0  0  0  0
    7.6083    0.8225    1.3882 C   0  0  0  0  0  0  0  0  0  0  0  0
    2.3988    4.5627    1.3733 H   0  0  0  0  0  0  0  0  0  0  0  0
    2.4176    3.1932    0.2403 H   0  0  0  0  0  0  0  0  0  0  0  0
    3.9371    3.7870    0.9578 H   0  0  0  0  0  0  0  0  0  0  0  0
    1.6203    2.4825    2.5439 H   0  0  0  0  0  0  0  0  0  0  0  0
    3.1329    3.0521    3.2541 H   0  0  0  0  0  0  0  0  0  0  0  0
    2.8551    0.7563    1.2284 H   0  0  0  0  0  0  0  0  0  0  0  0
    3.1068    0.6004    2.9833 H   0  0  0  0  0  0  0  0  0  0  0  0
    5.1208    1.4566    1.0004 H   0  0  0  0  0  0  0  0  0  0  0  0
    7.5595    1.9481    4.6000 H   0  0  0  0  0  0  0  0  0  0  0  0
   10.0461    2.0661    4.1569 H   0  0  0  0  0  0  0  0  0  0  0  0
   12.6965   -0.4140    1.1080 H   0  0  0  0  0  0  0  0  0  0  0  0
   11.6684   -0.6581    3.8984 H   0  0  0  0  0  0  0  0  0  0  0  0
   13.3755   -0.3278    3.5729 H   0  0  0  0  0  0  0  0  0  0  0  0
   13.5341   -2.4842    2.2727 H   0  0  0  0  0  0  0  0  0  0  0  0
   11.8223   -2.7929    2.5837 H   0  0  0  0  0  0  0  0  0  0  0  0
   15.3056   -3.3118    4.1690 H   0  0  0  0  0  0  0  0  0  0  0  0
   13.0750   -4.8567    8.3899 H   0  0  0  0  0  0  0  0  0  0  0  0
   10.6159   -4.6107    8.7166 H   0  0  0  0  0  0  0  0  0  0  0  0
    9.1934   -3.5867    6.9573 H   0  0  0  0  0  0  0  0  0  0  0  0
   10.1818   -2.7770    4.8287 H   0  0  0  0  0  0  0  0  0  0  0  0
    9.3872    0.5507    0.1774 H   0  0  0  0  0  0  0  0  0  0  0  0
    6.9424    0.4477    0.6071 H   0  0  0  0  0  0  0  0  0  0  0  0
  1  2  1  0
  1 29  1  0
  1 30  1  0
  1 31  1  0
  2  3  1  0
  2 32  1  0
  2 33  1  0
  3  4  1  0
  3 34  1  0
  3 35  1  0
  4  5  1  0
  4 36  1  0
  5  6  2  0
  5  7  1  0
  7  8  2  0
  7 28  1  0
  8  9  1  0
  8 37  1  0
  9 10  2  0
  9 38  1  0
 10 11  1  0
 10 27  1  0
 11 12  2  0
 11 13  2  0
 11 14  1  6
 14 15  1  0
 14 39  1  0
 15 16  1  0
 15 40  1  0
 15 41  1  0
 16 17  1  0
 16 42  1  0
 16 43  1  0
 17 18  2  0
 17 26  1  0
 18 19  1  0
 18 44  1  0
 19 20  1  0
 19 21  1  0
 21 22  1  0
 21 26  2  0
 22 23  2  0
 22 45  1  0
 23 24  1  0
 23 46  1  0
 24 25  2  0
 24 47  1  0
 25 26  1  0
 25 48  1  0
 27 28  2  0
 27 49  1  0
 28 50  1  0
M  END

