
     RDKit          3D

 51 52  0  0  0  0  0  0  0  0999 V2000
    6.8223   -2.8461   -0.9648 C   0  0  0  0  0  0  0  0  0  0  0  0
    5.7983   -1.7130   -1.0370 C   0  0  0  0  0  0  0  0  0  0  0  0
    5.8914   -0.7457    0.0615 N   0  0  0  0  0  0  0  0  0  0  0  0
    6.9141    0.3065    0.0131 C   0  0  0  0  0  0  0  0  0  0  0  0
    6.5063    1.5317   -0.8042 C   0  0  0  0  0  0  0  0  0  0  0  0
    4.7534   -0.7191    1.2779 S   0  0  1  0  0  0  0  0  0  0  0  0
    4.6451    0.6635    1.7506 O   0  0  0  0  0  0  0  0  0  0  0  0
    3.5914   -1.4812    0.8162 O   0  0  0  0  0  0  0  0  0  0  0  0
    5.4669   -1.6583    2.6505 C   0  0  0  0  0  0  0  0  0  0  0  0
    6.1891   -0.9815    3.6406 C   0  0  0  0  0  0  0  0  0  0  0  0
    6.7592   -1.7076    4.6864 C   0  0  0  0  0  0  0  0  0  0  0  0
    6.5776   -3.0933    4.7264 C   0  0  0  0  0  0  0  0  0  0  0  0
    7.3241   -4.0349    6.0588 S   0  0  1  0  0  0  0  0  0  0  0  0
    7.2552   -5.4554    5.7116 O   0  0  0  0  0  0  0  0  0  0  0  0
    8.5917   -3.4124    6.4502 O   0  0  0  0  0  0  0  0  0  0  0  0
    6.2323   -3.5858    7.3652 N   0  0  0  0  0  0  0  0  0  0  0  0
    6.7825   -3.8880    8.6050 N   0  0  0  0  0  0  0  0  0  0  0  0
    6.3802   -5.0196    9.2802 C   0  0  0  0  0  0  0  0  0  0  0  0
    5.5208   -5.7450    8.8028 O   0  0  0  0  0  0  0  0  0  0  0  0
    7.0153   -5.2653   10.6120 C   0  0  0  0  0  0  0  0  0  0  0  0
    7.7487   -4.3049   11.3248 C   0  0  0  0  0  0  0  0  0  0  0  0
    8.3091   -4.6181   12.5647 C   0  0  0  0  0  0  0  0  0  0  0  0
    8.1555   -5.8929   13.1298 C   0  0  0  0  0  0  0  0  0  0  0  0
    8.7633   -6.2398   14.4656 C   0  0  0  0  0  0  0  0  0  0  0  0
    7.4098   -6.8461   12.4129 C   0  0  0  0  0  0  0  0  0  0  0  0
    6.8440   -6.5390   11.1793 C   0  0  0  0  0  0  0  0  0  0  0  0
    5.8435   -3.7717    3.7501 C   0  0  0  0  0  0  0  0  0  0  0  0
    5.2766   -3.0427    2.7024 C   0  0  0  0  0  0  0  0  0  0  0  0
    6.7133   -3.5105   -1.8370 H   0  0  0  0  0  0  0  0  0  0  0  0
    6.6856   -3.4524   -0.0562 H   0  0  0  0  0  0  0  0  0  0  0  0
    7.8567   -2.4662   -0.9640 H   0  0  0  0  0  0  0  0  0  0  0  0
    4.7760   -2.1136   -1.0426 H   0  0  0  0  0  0  0  0  0  0  0  0
    5.9142   -1.1560   -1.9830 H   0  0  0  0  0  0  0  0  0  0  0  0
    7.8300   -0.1502   -0.3979 H   0  0  0  0  0  0  0  0  0  0  0  0
    7.1619    0.6098    1.0410 H   0  0  0  0  0  0  0  0  0  0  0  0
    6.2656    1.2620   -1.8450 H   0  0  0  0  0  0  0  0  0  0  0  0
    7.3285    2.2651   -0.8296 H   0  0  0  0  0  0  0  0  0  0  0  0
    5.6244    2.0090   -0.3539 H   0  0  0  0  0  0  0  0  0  0  0  0
    6.2816    0.1047    3.5958 H   0  0  0  0  0  0  0  0  0  0  0  0
    7.3381   -1.2102    5.4662 H   0  0  0  0  0  0  0  0  0  0  0  0
    5.3807   -4.1581    7.2828 H   0  0  0  0  0  0  0  0  0  0  0  0
    7.5305   -3.2776    8.9075 H   0  0  0  0  0  0  0  0  0  0  0  0
    7.8729   -3.2899   10.9391 H   0  0  0  0  0  0  0  0  0  0  0  0
    8.8718   -3.8532   13.1066 H   0  0  0  0  0  0  0  0  0  0  0  0
    9.2913   -5.3826   14.9080 H   0  0  0  0  0  0  0  0  0  0  0  0
    9.4849   -7.0685   14.3698 H   0  0  0  0  0  0  0  0  0  0  0  0
    7.9914   -6.5691   15.1809 H   0  0  0  0  0  0  0  0  0  0  0  0
    7.2705   -7.8462   12.8337 H   0  0  0  0  0  0  0  0  0  0  0  0
    6.2591   -7.2764   10.6264 H   0  0  0  0  0  0  0  0  0  0  0  0
    5.7248   -4.8546    3.8174 H   0  0  0  0  0  0  0  0  0  0  0  0
    4.6751   -3.5378    1.9382 H   0  0  0  0  0  0  0  0  0  0  0  0
  1  2  1  0
  1 29  1  0
  1 30  1  0
  1 31  1  0
  2  3  1  0
  2 32  1  0
  2 33  1  0
  3  4  1  0
  6  3  1  6
  4  5  1  0
  4 34  1  0
  4 35  1  0
  5 36  1  0
  5 37  1  0
  5 38  1  0
  6  7  2  0
  6  8  2  0
  6  9  1  0
  9 10  2  0
  9 28  1  0
 10 11  1  0
 10 39  1  0
 11 12  2  0
 11 40  1  0
 12 13  1  0
 12 27  1  0
 13 14  2  0
 13 15  2  0
 13 16  1  1
 16 17  1  0
 16 41  1  0
 17 18  1  0
 17 42  1  0
 18 19  2  0
 18 20  1  0
 20 21  2  0
 20 26  1  0
 21 22  1  0
 21 43  1  0
 22 23  2  0
 22 44  1  0
 23 24  1  0
 23 25  1  0
 24 45  1  0
 24 46  1  0
 24 47  1  0
 25 26  2  0
 25 48  1  0
 26 49  1  0
 27 28  2  0
 27 50  1  0
 28 51  1  0
M  END

