
     RDKit          3D

 49 52  0  0  0  0  0  0  0  0999 V2000
    1.1404    0.3653    0.6495 C   0  0  0  0  0  0  0  0  0  0  0  0
    2.5901    0.2130    0.2596 C   0  0  0  0  0  0  0  0  0  0  0  0
    3.1504   -1.0414   -0.0147 C   0  0  0  0  0  0  0  0  0  0  0  0
    4.4949   -1.1744   -0.3714 C   0  0  0  0  0  0  0  0  0  0  0  0
    5.3302   -0.0521   -0.4627 C   0  0  0  0  0  0  0  0  0  0  0  0
    6.7498   -0.1714   -0.8416 C   0  0  0  0  0  0  0  0  0  0  0  0
    7.4380    0.9290   -1.1964 N   0  0  0  0  0  0  0  0  0  0  0  0
    8.6858    0.5351   -1.4807 N   0  0  0  0  0  0  0  0  0  0  0  0
    9.3770    1.2099   -1.7866 H   0  0  0  0  0  0  0  0  0  0  0  0
    8.8240   -0.7977   -1.3234 C   0  0  0  0  0  0  0  0  0  0  0  0
    7.6168   -1.3063   -0.9195 C   0  0  0  0  0  0  0  0  0  0  0  0
    7.7839   -2.7943   -0.6822 C   0  0  2  0  0  0  0  0  0  0  0  0
    7.4611   -3.1912    0.7612 C   0  0  0  0  0  0  0  0  0  0  0  0
    8.2387   -2.6676    1.8072 C   0  0  0  0  0  0  0  0  0  0  0  0
    7.9834   -2.9791    3.1410 C   0  0  0  0  0  0  0  0  0  0  0  0
    6.9236   -3.8330    3.4642 C   0  0  0  0  0  0  0  0  0  0  0  0
    6.1320   -4.3674    2.4493 C   0  0  0  0  0  0  0  0  0  0  0  0
    6.4045   -4.0453    1.1146 C   0  0  0  0  0  0  0  0  0  0  0  0
    5.3729   -4.7798   -0.1117 Cl  0  0  0  0  0  0  0  0  0  0  0  0
    9.2156   -3.0070   -1.0501 N   0  0  0  0  0  0  0  0  0  0  0  0
    9.8505   -4.3456   -1.2823 C   0  0  1  0  0  0  0  0  0  0  0  0
    8.9493   -5.4849   -0.7836 C   0  0  0  0  0  0  0  0  0  0  0  0
   10.0873   -4.5273   -2.7962 C   0  0  0  0  0  0  0  0  0  0  0  0
   11.1848   -4.4123   -0.5119 C   0  0  0  0  0  0  0  0  0  0  0  0
    9.8556   -1.8389   -1.4570 C   0  0  0  0  0  0  0  0  0  0  0  0
   11.0007   -1.7154   -1.8581 O   0  0  0  0  0  0  0  0  0  0  0  0
    4.7707    1.2124   -0.1927 C   0  0  0  0  0  0  0  0  0  0  0  0
    3.4305    1.3372    0.1599 C   0  0  0  0  0  0  0  0  0  0  0  0
    0.6180   -0.6028    0.6538 H   0  0  0  0  0  0  0  0  0  0  0  0
    0.6056    1.0339   -0.0460 H   0  0  0  0  0  0  0  0  0  0  0  0
    1.0400    0.8057    1.6561 H   0  0  0  0  0  0  0  0  0  0  0  0
    2.5265   -1.9377    0.0475 H   0  0  0  0  0  0  0  0  0  0  0  0
    4.8825   -2.1690   -0.5915 H   0  0  0  0  0  0  0  0  0  0  0  0
    7.1420   -3.3757   -1.3601 H   0  0  0  0  0  0  0  0  0  0  0  0
    9.0666   -2.0010    1.5544 H   0  0  0  0  0  0  0  0  0  0  0  0
    8.6092   -2.5541    3.9291 H   0  0  0  0  0  0  0  0  0  0  0  0
    6.7107   -4.0849    4.5059 H   0  0  0  0  0  0  0  0  0  0  0  0
    5.3011   -5.0369    2.6769 H   0  0  0  0  0  0  0  0  0  0  0  0
    7.9647   -5.4983   -1.2721 H   0  0  0  0  0  0  0  0  0  0  0  0
    8.7995   -5.4492    0.3039 H   0  0  0  0  0  0  0  0  0  0  0  0
    9.4429   -6.4395   -1.0193 H   0  0  0  0  0  0  0  0  0  0  0  0
    9.1311   -4.5030   -3.3438 H   0  0  0  0  0  0  0  0  0  0  0  0
   10.5644   -5.5007   -2.9909 H   0  0  0  0  0  0  0  0  0  0  0  0
   10.7401   -3.7377   -3.1908 H   0  0  0  0  0  0  0  0  0  0  0  0
   11.0095   -4.2889    0.5685 H   0  0  0  0  0  0  0  0  0  0  0  0
   11.8759   -3.6305   -0.8492 H   0  0  0  0  0  0  0  0  0  0  0  0
   11.6566   -5.3949   -0.6709 H   0  0  0  0  0  0  0  0  0  0  0  0
    5.4082    2.0951   -0.2642 H   0  0  0  0  0  0  0  0  0  0  0  0
    3.0229    2.3316    0.3665 H   0  0  0  0  0  0  0  0  0  0  0  0
  1  2  1  0
  1 29  1  0
  1 30  1  0
  1 31  1  0
  2  3  2  0
  2 28  1  0
  3  4  1  0
  3 32  1  0
  4  5  2  0
  4 33  1  0
  5  6  1  0
  5 27  1  0
  6  7  2  0
  6 11  1  0
  7  8  1  0
  8  9  1  0
  8 10  1  0
 10 11  2  0
 10 25  1  0
 11 12  1  0
 12 13  1  0
 12 20  1  0
 12 34  1  6
 13 14  2  0
 13 18  1  0
 14 15  1  0
 14 35  1  0
 15 16  2  0
 15 36  1  0
 16 17  1  0
 16 37  1  0
 17 18  2  0
 17 38  1  0
 18 19  1  0
 20 21  1  0
 20 25  1  0
 21 22  1  1
 21 23  1  0
 21 24  1  0
 22 39  1  0
 22 40  1  0
 22 41  1  0
 23 42  1  0
 23 43  1  0
 23 44  1  0
 24 45  1  0
 24 46  1  0
 24 47  1  0
 25 26  2  0
 27 28  2  0
 27 48  1  0
 28 49  1  0
M  END

