
     RDKit          3D

 34 35  0  0  0  0  0  0  0  0999 V2000
    1.0155   -0.3507   -0.7844 C   0  0  0  0  0  0  0  0  0  0  0  0
    2.4236   -0.2556   -0.6674 O   0  0  0  0  0  0  0  0  0  0  0  0
    3.1357   -1.3995   -0.5551 C   0  0  0  0  0  0  0  0  0  0  0  0
    4.5252   -1.2616   -0.4504 C   0  0  0  0  0  0  0  0  0  0  0  0
    5.2772   -2.4376   -0.3133 C   0  0  0  0  0  0  0  0  0  0  0  0
    6.6439   -2.3871   -0.1392 N   0  0  0  0  0  0  0  0  0  0  0  0
    4.6039   -3.6773   -0.3039 C   0  0  0  0  0  0  0  0  0  0  0  0
    3.2041   -3.6962   -0.4475 C   0  0  0  0  0  0  0  0  0  0  0  0
    2.4763   -4.8795   -0.5027 N   0  0  0  0  0  0  0  0  0  0  0  0
    1.0472   -4.8559   -0.1895 C   0  0  0  0  0  0  0  0  0  0  0  0
    0.3156   -6.0033   -0.8943 C   0  0  0  0  0  0  0  0  0  0  0  0
    0.9043   -7.3145   -0.6474 N   0  0  0  0  0  0  0  0  0  0  0  0
    0.5879   -7.9057    0.6391 C   0  0  0  0  0  0  0  0  0  0  0  0
    2.3162   -7.2897   -0.9924 C   0  0  0  0  0  0  0  0  0  0  0  0
    3.1227   -6.1688   -0.3104 C   0  0  0  0  0  0  0  0  0  0  0  0
    2.4913   -2.5558   -0.5554 N   0  0  0  0  0  0  0  0  0  0  0  0
    0.6486    0.6815   -0.8701 H   0  0  0  0  0  0  0  0  0  0  0  0
    0.5660   -0.8332    0.0987 H   0  0  0  0  0  0  0  0  0  0  0  0
    0.7198   -0.9273   -1.6758 H   0  0  0  0  0  0  0  0  0  0  0  0
    4.9800   -0.2706   -0.4585 H   0  0  0  0  0  0  0  0  0  0  0  0
    7.1150   -1.5278   -0.3923 H   0  0  0  0  0  0  0  0  0  0  0  0
    7.1735   -3.2280   -0.3314 H   0  0  0  0  0  0  0  0  0  0  0  0
    5.1806   -4.5896   -0.1622 H   0  0  0  0  0  0  0  0  0  0  0  0
    0.6447   -3.8875   -0.5068 H   0  0  0  0  0  0  0  0  0  0  0  0
    0.8967   -4.9255    0.9092 H   0  0  0  0  0  0  0  0  0  0  0  0
    0.3377   -5.8165   -1.9835 H   0  0  0  0  0  0  0  0  0  0  0  0
   -0.7422   -6.0133   -0.5842 H   0  0  0  0  0  0  0  0  0  0  0  0
   -0.5064   -7.9749    0.7533 H   0  0  0  0  0  0  0  0  0  0  0  0
    0.9771   -7.3618    1.5280 H   0  0  0  0  0  0  0  0  0  0  0  0
    0.9897   -8.9315    0.6824 H   0  0  0  0  0  0  0  0  0  0  0  0
    2.3991   -7.1485   -2.0856 H   0  0  0  0  0  0  0  0  0  0  0  0
    2.7717   -8.2645   -0.7524 H   0  0  0  0  0  0  0  0  0  0  0  0
    4.1219   -6.1517   -0.7664 H   0  0  0  0  0  0  0  0  0  0  0  0
    3.2640   -6.3894    0.7700 H   0  0  0  0  0  0  0  0  0  0  0  0
  1  2  1  0
  1 17  1  0
  1 18  1  0
  1 19  1  0
  2  3  1  0
  3  4  2  0
  3 16  1  0
  4  5  1  0
  4 20  1  0
  5  6  1  0
  5  7  2  0
  6 21  1  0
  6 22  1  0
  7  8  1  0
  7 23  1  0
  8  9  1  0
  8 16  2  0
  9 10  1  0
  9 15  1  0
 10 11  1  0
 10 24  1  0
 10 25  1  0
 11 12  1  0
 11 26  1  0
 11 27  1  0
 12 13  1  0
 12 14  1  0
 13 28  1  0
 13 29  1  0
 13 30  1  0
 14 15  1  0
 14 31  1  0
 14 32  1  0
 15 33  1  0
 15 34  1  0
M  END

