
     RDKit          3D

 60 62  0  0  0  0  0  0  0  0999 V2000
    2.4375   -0.7372    0.7711 C   0  0  0  0  0  0  0  0  0  0  0  0
    2.5314    0.6246    0.0797 C   0  0  0  0  0  0  0  0  0  0  0  0
    3.6512    0.7407   -0.9753 C   0  0  1  0  0  0  0  0  0  0  0  0
    3.6570   -0.1803   -1.5836 H   0  0  0  0  0  0  0  0  0  0  0  0
    3.4158    1.8200   -1.9270 N   0  0  0  0  0  0  0  0  0  0  0  0
    2.8627    1.5659   -3.1684 C   0  0  0  0  0  0  0  0  0  0  0  0
    2.7932    0.4636   -3.6680 O   0  0  0  0  0  0  0  0  0  0  0  0
    2.4566    2.7233   -3.7194 O   0  0  0  0  0  0  0  0  0  0  0  0
    1.8747    2.7832   -5.0686 C   0  0  1  0  0  0  0  0  0  0  0  0
    0.5771    1.9706   -5.1126 C   0  0  0  0  0  0  0  0  0  0  0  0
    1.5895    4.2751   -5.2475 C   0  0  0  0  0  0  0  0  0  0  0  0
    2.8977    2.2959   -6.0991 C   0  0  0  0  0  0  0  0  0  0  0  0
    5.0564    0.8459   -0.3383 C   0  0  0  0  0  0  0  0  0  0  0  0
    5.3034    0.3667    0.7555 O   0  0  0  0  0  0  0  0  0  0  0  0
    5.9806    1.4799   -1.1267 N   0  0  0  0  0  0  0  0  0  0  0  0
    7.3477    1.6868   -0.8840 C   0  0  0  0  0  0  0  0  0  0  0  0
    8.0240    1.2555    0.2761 C   0  0  0  0  0  0  0  0  0  0  0  0
    9.3822    1.5201    0.3953 C   0  0  0  0  0  0  0  0  0  0  0  0
   10.0273    2.2130   -0.6424 C   0  0  0  0  0  0  0  0  0  0  0  0
   11.3492    2.4978   -0.4584 O   0  0  0  0  0  0  0  0  0  0  0  0
   12.1913    2.8916   -1.4790 C   0  0  0  0  0  0  0  0  0  0  0  0
   12.2151    2.2761   -2.7378 C   0  0  0  0  0  0  0  0  0  0  0  0
   13.1711    2.6623   -3.6827 C   0  0  0  0  0  0  0  0  0  0  0  0
   14.1182    3.6522   -3.3932 C   0  0  0  0  0  0  0  0  0  0  0  0
   14.0826    4.2496   -2.1340 C   0  0  0  0  0  0  0  0  0  0  0  0
   13.1251    3.8872   -1.1849 C   0  0  0  0  0  0  0  0  0  0  0  0
   13.3404    4.6882    0.0795 C   0  0  2  0  0  0  0  0  0  0  0  0
   12.1397    5.4912    0.5691 C   0  0  0  0  0  0  0  0  0  0  0  0
   14.4068    5.5870   -0.2539 O   0  0  0  0  0  0  0  0  0  0  0  0
   14.9736    5.3005   -1.5220 C   0  0  0  0  0  0  0  0  0  0  0  0
    9.4032    2.6217   -1.7320 N   0  0  0  0  0  0  0  0  0  0  0  0
    8.1019    2.3642   -1.8542 C   0  0  0  0  0  0  0  0  0  0  0  0
    1.5831   -0.7580    1.4661 H   0  0  0  0  0  0  0  0  0  0  0  0
    3.3523   -0.9563    1.3365 H   0  0  0  0  0  0  0  0  0  0  0  0
    2.2844   -1.5427    0.0334 H   0  0  0  0  0  0  0  0  0  0  0  0
    2.6579    1.4226    0.8324 H   0  0  0  0  0  0  0  0  0  0  0  0
    1.5834    0.8303   -0.4448 H   0  0  0  0  0  0  0  0  0  0  0  0
    3.2302    2.7465   -1.5534 H   0  0  0  0  0  0  0  0  0  0  0  0
   -0.1188    2.3161   -4.3320 H   0  0  0  0  0  0  0  0  0  0  0  0
    0.7738    0.9012   -4.9650 H   0  0  0  0  0  0  0  0  0  0  0  0
    0.0878    2.1080   -6.0893 H   0  0  0  0  0  0  0  0  0  0  0  0
    0.8902    4.6319   -4.4762 H   0  0  0  0  0  0  0  0  0  0  0  0
    1.1426    4.4608   -6.2358 H   0  0  0  0  0  0  0  0  0  0  0  0
    2.5182    4.8604   -5.1692 H   0  0  0  0  0  0  0  0  0  0  0  0
    3.1219    1.2303   -5.9622 H   0  0  0  0  0  0  0  0  0  0  0  0
    3.8329    2.8715   -6.0141 H   0  0  0  0  0  0  0  0  0  0  0  0
    2.4993    2.4444   -7.1147 H   0  0  0  0  0  0  0  0  0  0  0  0
    5.6091    1.8608   -1.9921 H   0  0  0  0  0  0  0  0  0  0  0  0
    7.4768    0.7244    1.0520 H   0  0  0  0  0  0  0  0  0  0  0  0
    9.9501    1.2047    1.2718 H   0  0  0  0  0  0  0  0  0  0  0  0
   11.4876    1.5012   -2.9770 H   0  0  0  0  0  0  0  0  0  0  0  0
   13.1763    2.1745   -4.6609 H   0  0  0  0  0  0  0  0  0  0  0  0
   14.8654    3.9403   -4.1371 H   0  0  0  0  0  0  0  0  0  0  0  0
   13.6764    4.0170    0.8975 H   0  0  0  0  0  0  0  0  0  0  0  0
   11.7528    6.1347   -0.2361 H   0  0  0  0  0  0  0  0  0  0  0  0
   12.4436    6.1321    1.4108 H   0  0  0  0  0  0  0  0  0  0  0  0
   11.3363    4.8209    0.9084 H   0  0  0  0  0  0  0  0  0  0  0  0
   16.0149    4.9323   -1.4126 H   0  0  0  0  0  0  0  0  0  0  0  0
   15.0191    6.2259   -2.1269 H   0  0  0  0  0  0  0  0  0  0  0  0
    7.6179    2.7152   -2.7754 H   0  0  0  0  0  0  0  0  0  0  0  0
  1  2  1  0
  1 33  1  0
  1 34  1  0
  1 35  1  0
  2  3  1  0
  2 36  1  0
  2 37  1  0
  3  4  1  6
  3  5  1  0
  3 13  1  0
  5  6  1  0
  5 38  1  0
  6  7  2  0
  6  8  1  0
  9  8  1  1
  9 10  1  0
  9 11  1  0
  9 12  1  0
 10 39  1  0
 10 40  1  0
 10 41  1  0
 11 42  1  0
 11 43  1  0
 11 44  1  0
 12 45  1  0
 12 46  1  0
 12 47  1  0
 13 14  2  0
 13 15  1  0
 15 16  1  0
 15 48  1  0
 16 17  2  0
 16 32  1  0
 17 18  1  0
 17 49  1  0
 18 19  2  0
 18 50  1  0
 19 20  1  0
 19 31  1  0
 20 21  1  0
 21 22  2  0
 21 26  1  0
 22 23  1  0
 22 51  1  0
 23 24  2  0
 23 52  1  0
 24 25  1  0
 24 53  1  0
 25 26  2  0
 25 30  1  0
 26 27  1  0
 27 28  1  0
 27 29  1  0
 27 54  1  1
 28 55  1  0
 28 56  1  0
 28 57  1  0
 29 30  1  0
 30 58  1  0
 30 59  1  0
 31 32  2  0
 32 60  1  0
M  END

