
     RDKit          3D

 45 46  0  0  0  0  0  0  0  0999 V2000
    5.5431    2.1037   -1.8410 C   0  0  0  0  0  0  0  0  0  0  0  0
    4.8160    1.0003   -1.1118 C   0  0  0  0  0  0  0  0  0  0  0  0
    3.5117    1.1786   -0.6350 C   0  0  0  0  0  0  0  0  0  0  0  0
    2.8254    0.1780    0.0761 C   0  0  0  0  0  0  0  0  0  0  0  0
    1.4207    0.4109    0.5765 C   0  0  0  0  0  0  0  0  0  0  0  0
    3.4754   -1.0385    0.3101 C   0  0  0  0  0  0  0  0  0  0  0  0
    4.7749   -1.2287   -0.1734 C   0  0  0  0  0  0  0  0  0  0  0  0
    5.6390   -2.7779    0.1467 S   0  0  1  0  0  0  0  0  0  0  0  0
    6.9705   -2.6536   -0.4470 O   0  0  0  0  0  0  0  0  0  0  0  0
    5.4866   -3.1120    1.5746 O   0  0  0  0  0  0  0  0  0  0  0  0
    4.7924   -3.9758   -0.6873 N   0  0  0  0  0  0  0  0  0  0  0  0
    4.4608   -3.7396   -2.0958 C   0  0  0  0  0  0  0  0  0  0  0  0
    4.7231   -4.9744   -2.9488 C   0  0  0  0  0  0  0  0  0  0  0  0
    3.7415   -6.4057   -2.3831 S   0  0  0  0  0  0  0  0  0  0  0  0
    4.2739   -6.4380   -0.6014 C   0  0  2  0  0  0  0  0  0  0  0  0
    5.7415   -6.8823   -0.4925 C   0  0  0  0  0  0  0  0  0  0  0  0
    3.3554   -7.4545    0.0897 C   0  0  0  0  0  0  0  0  0  0  0  0
    4.1281   -5.0437    0.0725 C   0  0  2  0  0  0  0  0  0  0  0  0
    2.7111   -4.6024    0.4405 C   0  0  0  0  0  0  0  0  0  0  0  0
    1.7372   -4.5462   -0.3038 O   0  0  0  0  0  0  0  0  0  0  0  0
    2.6048   -4.1851    1.7347 N   0  0  0  0  0  0  0  0  0  0  0  0
    1.4416   -3.4882    2.0446 O   0  0  0  0  0  0  0  0  0  0  0  0
    5.4505   -0.2311   -0.8740 C   0  0  0  0  0  0  0  0  0  0  0  0
    4.8477    2.8707   -2.2123 H   0  0  0  0  0  0  0  0  0  0  0  0
    6.1131    1.7127   -2.6981 H   0  0  0  0  0  0  0  0  0  0  0  0
    6.2660    2.6054   -1.1748 H   0  0  0  0  0  0  0  0  0  0  0  0
    3.0074    2.1322   -0.8210 H   0  0  0  0  0  0  0  0  0  0  0  0
    1.3772    1.2838    1.2485 H   0  0  0  0  0  0  0  0  0  0  0  0
    1.0436   -0.4618    1.1287 H   0  0  0  0  0  0  0  0  0  0  0  0
    0.7295    0.6117   -0.2589 H   0  0  0  0  0  0  0  0  0  0  0  0
    2.9544   -1.8166    0.8673 H   0  0  0  0  0  0  0  0  0  0  0  0
    5.0953   -2.9138   -2.4518 H   0  0  0  0  0  0  0  0  0  0  0  0
    3.4051   -3.4322   -2.1951 H   0  0  0  0  0  0  0  0  0  0  0  0
    5.7973   -5.2169   -2.9645 H   0  0  0  0  0  0  0  0  0  0  0  0
    4.4019   -4.7865   -3.9846 H   0  0  0  0  0  0  0  0  0  0  0  0
    5.8989   -7.8214   -1.0419 H   0  0  0  0  0  0  0  0  0  0  0  0
    6.0133   -7.0467    0.5645 H   0  0  0  0  0  0  0  0  0  0  0  0
    6.4284   -6.1225   -0.8921 H   0  0  0  0  0  0  0  0  0  0  0  0
    3.5179   -8.4592   -0.3297 H   0  0  0  0  0  0  0  0  0  0  0  0
    2.2954   -7.1939   -0.0396 H   0  0  0  0  0  0  0  0  0  0  0  0
    3.5782   -7.4991    1.1688 H   0  0  0  0  0  0  0  0  0  0  0  0
    4.6831   -5.1275    1.0161 H   0  0  0  0  0  0  0  0  0  0  0  0
    3.4221   -3.8190    2.2248 H   0  0  0  0  0  0  0  0  0  0  0  0
    0.9122   -3.6442    1.2285 H   0  0  0  0  0  0  0  0  0  0  0  0
    6.4679   -0.4181   -1.2223 H   0  0  0  0  0  0  0  0  0  0  0  0
  1  2  1  0
  1 24  1  0
  1 25  1  0
  1 26  1  0
  2  3  2  0
  2 23  1  0
  3  4  1  0
  3 27  1  0
  4  5  1  0
  4  6  2  0
  5 28  1  0
  5 29  1  0
  5 30  1  0
  6  7  1  0
  6 31  1  0
  8  7  1  1
  7 23  2  0
  8  9  2  0
  8 10  2  0
  8 11  1  0
 11 12  1  0
 11 18  1  0
 12 13  1  0
 12 32  1  0
 12 33  1  0
 13 14  1  0
 13 34  1  0
 13 35  1  0
 14 15  1  0
 15 16  1  6
 15 17  1  0
 15 18  1  0
 16 36  1  0
 16 37  1  0
 16 38  1  0
 17 39  1  0
 17 40  1  0
 17 41  1  0
 18 19  1  0
 18 42  1  1
 19 20  2  0
 19 21  1  0
 21 22  1  0
 21 43  1  0
 22 44  1  0
 23 45  1  0
M  END

