
     RDKit          3D

 39 43  0  0  0  0  0  0  0  0999 V2000
    1.6537   -0.6831    0.0345 C   0  0  0  0  0  0  0  0  0  0  0  0
    3.1056   -0.3260    0.0844 C   0  0  0  0  0  0  0  0  0  0  0  0
    3.5712    0.8636    0.2618 N   0  0  0  0  0  0  0  0  0  0  0  0
    4.9528    0.8940    0.2626 C   0  0  0  0  0  0  0  0  0  0  0  0
    5.7376    2.0554    0.4348 C   0  0  0  0  0  0  0  0  0  0  0  0
    7.1208    1.9685    0.4179 C   0  0  0  0  0  0  0  0  0  0  0  0
    7.7492    0.7174    0.2284 C   0  0  0  0  0  0  0  0  0  0  0  0
    9.1149    0.5201    0.1945 N   0  0  0  0  0  0  0  0  0  0  0  0
    9.4070   -0.7175    0.0082 C   0  0  0  0  0  0  0  0  0  0  0  0
   10.6728   -1.2704   -0.0777 N   0  0  0  0  0  0  0  0  0  0  0  0
   11.8897   -0.6213    0.0244 C   0  0  0  0  0  0  0  0  0  0  0  0
   12.0635    0.5609    0.1960 O   0  0  0  0  0  0  0  0  0  0  0  0
   13.0902   -1.5687   -0.1095 C   0  0  2  0  0  0  0  0  0  0  0  0
   13.6391   -1.5351    0.8507 H   0  0  0  0  0  0  0  0  0  0  0  0
   14.0267   -1.1063   -1.2240 C   0  0  0  0  0  0  0  0  0  0  0  0
   15.1551   -1.9579   -1.2976 O   0  0  0  0  0  0  0  0  0  0  0  0
   14.8710   -3.2929   -1.2588 C   0  0  0  0  0  0  0  0  0  0  0  0
   15.8467   -4.2068   -1.6710 C   0  0  0  0  0  0  0  0  0  0  0  0
   15.5841   -5.5770   -1.6421 C   0  0  0  0  0  0  0  0  0  0  0  0
   14.3394   -6.0450   -1.2040 C   0  0  0  0  0  0  0  0  0  0  0  0
   13.3647   -5.1403   -0.7795 C   0  0  0  0  0  0  0  0  0  0  0  0
   13.6276   -3.7686   -0.8009 C   0  0  0  0  0  0  0  0  0  0  0  0
   12.6539   -2.8995   -0.3618 O   0  0  0  0  0  0  0  0  0  0  0  0
    8.0167   -1.8393   -0.1555 S   0  0  0  0  0  0  0  0  0  0  0  0
    6.9672   -0.4544    0.0549 C   0  0  0  0  0  0  0  0  0  0  0  0
    5.5721   -0.3692    0.0713 C   0  0  0  0  0  0  0  0  0  0  0  0
    4.3463   -1.5986   -0.1099 S   0  0  0  0  0  0  0  0  0  0  0  0
    1.0624    0.2317    0.1739 H   0  0  0  0  0  0  0  0  0  0  0  0
    1.3902   -1.4038    0.8257 H   0  0  0  0  0  0  0  0  0  0  0  0
    1.3854   -1.1390   -0.9325 H   0  0  0  0  0  0  0  0  0  0  0  0
    5.2302    3.0107    0.5797 H   0  0  0  0  0  0  0  0  0  0  0  0
    7.7497    2.8506    0.5486 H   0  0  0  0  0  0  0  0  0  0  0  0
   10.7445   -2.2726   -0.2359 H   0  0  0  0  0  0  0  0  0  0  0  0
   14.3838   -0.0901   -1.0169 H   0  0  0  0  0  0  0  0  0  0  0  0
   13.4812   -1.1069   -2.1866 H   0  0  0  0  0  0  0  0  0  0  0  0
   16.8046   -3.8125   -2.0166 H   0  0  0  0  0  0  0  0  0  0  0  0
   16.3526   -6.2812   -1.9685 H   0  0  0  0  0  0  0  0  0  0  0  0
   14.1280   -7.1163   -1.1849 H   0  0  0  0  0  0  0  0  0  0  0  0
   12.3910   -5.4782   -0.4181 H   0  0  0  0  0  0  0  0  0  0  0  0
  1  2  1  0
  1 28  1  0
  1 29  1  0
  1 30  1  0
  2  3  2  0
  2 27  1  0
  3  4  1  0
  4  5  2  0
  4 26  1  0
  5  6  1  0
  5 31  1  0
  6  7  2  0
  6 32  1  0
  7  8  1  0
  7 25  1  0
  8  9  2  0
  9 10  1  0
  9 24  1  0
 10 11  1  0
 10 33  1  0
 11 12  2  0
 11 13  1  0
 13 14  1  1
 13 15  1  0
 13 23  1  0
 15 16  1  0
 15 34  1  0
 15 35  1  0
 16 17  1  0
 17 18  2  0
 17 22  1  0
 18 19  1  0
 18 36  1  0
 19 20  2  0
 19 37  1  0
 20 21  1  0
 20 38  1  0
 21 22  2  0
 21 39  1  0
 22 23  1  0
 24 25  1  0
 25 26  2  0
 26 27  1  0
M  END

