
     RDKit          3D

 79 80  0  0  0  0  0  0  0  0999 V2000
    9.0761    6.1297    2.1739 C   0  0  0  0  0  0  0  0  0  0  0  0
    8.4616    6.4596    0.9487 O   0  0  0  0  0  0  0  0  0  0  0  0
    9.2149    6.7414   -0.1420 C   0  0  0  0  0  0  0  0  0  0  0  0
   10.6348    6.7815   -0.0951 C   0  0  0  0  0  0  0  0  0  0  0  0
   11.3561    7.1163   -1.2189 C   0  0  0  0  0  0  0  0  0  0  0  0
   10.7154    7.4461   -2.4402 C   0  0  0  0  0  0  0  0  0  0  0  0
   11.4629    7.7995   -3.5989 C   0  0  0  0  0  0  0  0  0  0  0  0
   10.8299    8.1244   -4.7777 C   0  0  0  0  0  0  0  0  0  0  0  0
    9.4137    8.1098   -4.8379 C   0  0  0  0  0  0  0  0  0  0  0  0
    8.6584    7.7712   -3.7351 C   0  0  0  0  0  0  0  0  0  0  0  0
    9.2794    7.4223   -2.4976 C   0  0  0  0  0  0  0  0  0  0  0  0
    8.5412    7.0365   -1.3311 C   0  0  0  0  0  0  0  0  0  0  0  0
    7.0423    6.9819   -1.3793 C   0  0  0  0  0  0  0  0  0  0  0  0
    6.3357    7.8705   -1.7999 O   0  0  0  0  0  0  0  0  0  0  0  0
    6.5663    5.8036   -0.9416 O   0  0  0  0  0  0  0  0  0  0  0  0
    5.1401    5.6435   -0.8826 C   0  0  0  0  0  0  0  0  0  0  0  0
    4.5603    6.1983    0.4137 C   0  0  0  0  0  0  0  0  0  0  0  0
    3.0549    5.9354    0.5339 C   0  0  0  0  0  0  0  0  0  0  0  0
    2.4230    6.4149    1.8486 C   0  0  0  0  0  0  0  0  0  0  0  0
    2.4138    7.9345    2.0497 C   0  0  0  0  0  0  0  0  0  0  0  0
    1.7217    8.3757    3.3431 C   0  0  0  0  0  0  0  0  0  0  0  0
    1.7047    9.8928    3.5519 C   0  0  0  0  0  0  0  0  0  0  0  0
    1.0123   10.3339    4.8448 C   0  0  0  0  0  0  0  0  0  0  0  0
    0.9936   11.8511    5.0535 C   0  0  0  0  0  0  0  0  0  0  0  0
    0.3005   12.2918    6.3462 C   0  0  0  0  0  0  0  0  0  0  0  0
    0.2809   13.8089    6.5551 C   0  0  0  0  0  0  0  0  0  0  0  0
   -0.4131   14.2492    7.8475 C   0  0  0  0  0  0  0  0  0  0  0  0
   -0.4330   15.7662    8.0568 C   0  0  0  0  0  0  0  0  0  0  0  0
   -1.1290   16.2059    9.3491 C   0  0  0  0  0  0  0  0  0  0  0  0
   -1.1402   17.7248    9.5507 C   0  0  0  0  0  0  0  0  0  0  0  0
   -1.9045   18.2302   10.7893 C   0  0  1  0  0  0  0  0  0  0  0  0
   -1.2866   17.7434   12.1071 C   0  0  0  0  0  0  0  0  0  0  0  0
   -2.0078   19.7610   10.7734 C   0  0  0  0  0  0  0  0  0  0  0  0
    8.2616    5.9264    2.8820 H   0  0  0  0  0  0  0  0  0  0  0  0
    9.6891    6.9603    2.5674 H   0  0  0  0  0  0  0  0  0  0  0  0
    9.7071    5.2271    2.0902 H   0  0  0  0  0  0  0  0  0  0  0  0
   11.1598    6.5504    0.8311 H   0  0  0  0  0  0  0  0  0  0  0  0
   12.4484    7.1388   -1.1735 H   0  0  0  0  0  0  0  0  0  0  0  0
   12.5545    7.8082   -3.5327 H   0  0  0  0  0  0  0  0  0  0  0  0
   11.4115    8.3955   -5.6622 H   0  0  0  0  0  0  0  0  0  0  0  0
    8.9113    8.3757   -5.7717 H   0  0  0  0  0  0  0  0  0  0  0  0
    7.5710    7.7892   -3.7963 H   0  0  0  0  0  0  0  0  0  0  0  0
    4.9761    4.5578   -0.9555 H   0  0  0  0  0  0  0  0  0  0  0  0
    4.6824    6.1344   -1.7549 H   0  0  0  0  0  0  0  0  0  0  0  0
    4.7672    7.2794    0.4509 H   0  0  0  0  0  0  0  0  0  0  0  0
    5.0943    5.7398    1.2644 H   0  0  0  0  0  0  0  0  0  0  0  0
    2.8715    4.8505    0.4299 H   0  0  0  0  0  0  0  0  0  0  0  0
    2.5311    6.4121   -0.3154 H   0  0  0  0  0  0  0  0  0  0  0  0
    2.9460    5.9372    2.6982 H   0  0  0  0  0  0  0  0  0  0  0  0
    1.3826    6.0461    1.8932 H   0  0  0  0  0  0  0  0  0  0  0  0
    1.9128    8.4113    1.1864 H   0  0  0  0  0  0  0  0  0  0  0  0
    3.4479    8.3224    2.0460 H   0  0  0  0  0  0  0  0  0  0  0  0
    2.2202    7.8946    4.2055 H   0  0  0  0  0  0  0  0  0  0  0  0
    0.6832    7.9949    3.3498 H   0  0  0  0  0  0  0  0  0  0  0  0
    1.2070   10.3738    2.6893 H   0  0  0  0  0  0  0  0  0  0  0  0
    2.7432   10.2735    3.5459 H   0  0  0  0  0  0  0  0  0  0  0  0
    1.5106    9.8534    5.7076 H   0  0  0  0  0  0  0  0  0  0  0  0
   -0.0259    9.9524    4.8508 H   0  0  0  0  0  0  0  0  0  0  0  0
    0.4956   12.3315    4.1907 H   0  0  0  0  0  0  0  0  0  0  0  0
    2.0317   12.2327    5.0479 H   0  0  0  0  0  0  0  0  0  0  0  0
    0.7987   11.8115    7.2091 H   0  0  0  0  0  0  0  0  0  0  0  0
   -0.7375   11.9097    6.3517 H   0  0  0  0  0  0  0  0  0  0  0  0
   -0.2170   14.2893    5.6921 H   0  0  0  0  0  0  0  0  0  0  0  0
    1.3188   14.1912    6.5501 H   0  0  0  0  0  0  0  0  0  0  0  0
    0.0848   13.7685    8.7104 H   0  0  0  0  0  0  0  0  0  0  0  0
   -1.4510   13.8669    7.8523 H   0  0  0  0  0  0  0  0  0  0  0  0
   -0.9287   16.2470    7.1929 H   0  0  0  0  0  0  0  0  0  0  0  0
    0.6051   16.1482    8.0541 H   0  0  0  0  0  0  0  0  0  0  0  0
   -0.6348   15.7135   10.2051 H   0  0  0  0  0  0  0  0  0  0  0  0
   -2.1700   15.8313    9.3469 H   0  0  0  0  0  0  0  0  0  0  0  0
   -1.5822   18.1945    8.6530 H   0  0  0  0  0  0  0  0  0  0  0  0
   -0.0981   18.0959    9.5979 H   0  0  0  0  0  0  0  0  0  0  0  0
   -2.9332   17.8247   10.7305 H   0  0  0  0  0  0  0  0  0  0  0  0
   -0.2457   18.0980   12.2079 H   0  0  0  0  0  0  0  0  0  0  0  0
   -1.2734   16.6450   12.1811 H   0  0  0  0  0  0  0  0  0  0  0  0
   -1.8511   18.1243   12.9739 H   0  0  0  0  0  0  0  0  0  0  0  0
   -1.0072   20.2245   10.8253 H   0  0  0  0  0  0  0  0  0  0  0  0
   -2.5908   20.1348   11.6310 H   0  0  0  0  0  0  0  0  0  0  0  0
   -2.4937   20.1241    9.8530 H   0  0  0  0  0  0  0  0  0  0  0  0
  1  2  1  0
  1 34  1  0
  1 35  1  0
  1 36  1  0
  2  3  1  0
  3  4  2  0
  3 12  1  0
  4  5  1  0
  4 37  1  0
  5  6  2  0
  5 38  1  0
  6  7  1  0
  6 11  1  0
  7  8  2  0
  7 39  1  0
  8  9  1  0
  8 40  1  0
  9 10  2  0
  9 41  1  0
 10 11  1  0
 10 42  1  0
 11 12  2  0
 12 13  1  0
 13 14  2  0
 13 15  1  0
 15 16  1  0
 16 17  1  0
 16 43  1  0
 16 44  1  0
 17 18  1  0
 17 45  1  0
 17 46  1  0
 18 19  1  0
 18 47  1  0
 18 48  1  0
 19 20  1  0
 19 49  1  0
 19 50  1  0
 20 21  1  0
 20 51  1  0
 20 52  1  0
 21 22  1  0
 21 53  1  0
 21 54  1  0
 22 23  1  0
 22 55  1  0
 22 56  1  0
 23 24  1  0
 23 57  1  0
 23 58  1  0
 24 25  1  0
 24 59  1  0
 24 60  1  0
 25 26  1  0
 25 61  1  0
 25 62  1  0
 26 27  1  0
 26 63  1  0
 26 64  1  0
 27 28  1  0
 27 65  1  0
 27 66  1  0
 28 29  1  0
 28 67  1  0
 28 68  1  0
 29 30  1  0
 29 69  1  0
 29 70  1  0
 30 31  1  0
 30 71  1  0
 30 72  1  0
 31 32  1  0
 31 33  1  0
 31 73  1  6
 32 74  1  0
 32 75  1  0
 32 76  1  0
 33 77  1  0
 33 78  1  0
 33 79  1  0
M  END

