
     RDKit          3D

 45 47  0  0  0  0  0  0  0  0999 V2000
   -2.1554    7.1425   -8.5474 C   0  0  0  0  0  0  0  0  0  0  0  0
   -0.9413    7.7456   -8.9242 O   0  0  0  0  0  0  0  0  0  0  0  0
    0.2018    7.3932   -8.2729 C   0  0  0  0  0  0  0  0  0  0  0  0
    0.2747    6.4540   -7.2358 C   0  0  0  0  0  0  0  0  0  0  0  0
    1.4993    6.1573   -6.6247 C   0  0  0  0  0  0  0  0  0  0  0  0
    2.6745    6.7982   -7.0430 C   0  0  0  0  0  0  0  0  0  0  0  0
    3.9433    6.5618   -6.4781 N   0  0  0  0  0  0  0  0  0  0  0  0
    4.2895    5.6491   -5.5281 C   0  0  0  0  0  0  0  0  0  0  0  0
    3.5308    4.8852   -4.9524 O   0  0  0  0  0  0  0  0  0  0  0  0
    5.7875    5.6550   -5.1837 C   0  0  0  0  0  0  0  0  0  0  0  0
    6.8724    4.7750   -6.3828 S   0  0  0  0  0  0  0  0  0  0  0  0
    7.1219    6.0494   -7.5703 C   0  0  0  0  0  0  0  0  0  0  0  0
    6.5243    7.2203   -7.6193 N   0  0  0  0  0  0  0  0  0  0  0  0
    7.0159    7.8976   -8.6974 N   0  0  0  0  0  0  0  0  0  0  0  0
    7.9083    7.1339   -9.2884 C   0  0  0  0  0  0  0  0  0  0  0  0
    8.6519    7.5157  -10.5010 C   0  0  0  0  0  0  0  0  0  0  0  0
    7.9940    8.3008  -11.4646 C   0  0  0  0  0  0  0  0  0  0  0  0
    8.6878    8.7012  -12.6067 C   0  0  0  0  0  0  0  0  0  0  0  0
   10.0190    8.3375  -12.8068 C   0  0  0  0  0  0  0  0  0  0  0  0
   10.7001    7.5643  -11.8451 C   0  0  0  0  0  0  0  0  0  0  0  0
   12.0421    7.2590  -11.9986 N   0  0  0  0  0  0  0  0  0  0  0  0
    9.9970    7.1603  -10.6926 C   0  0  0  0  0  0  0  0  0  0  0  0
    8.0100    5.9272   -8.6068 N   0  0  0  0  0  0  0  0  0  0  0  0
    8.7722    4.7345   -8.9368 C   0  0  0  0  0  0  0  0  0  0  0  0
    2.5948    7.7411   -8.0886 C   0  0  0  0  0  0  0  0  0  0  0  0
    1.3798    8.0344   -8.6932 C   0  0  0  0  0  0  0  0  0  0  0  0
   -2.9339    7.5697   -9.1944 H   0  0  0  0  0  0  0  0  0  0  0  0
   -2.4134    7.3535   -7.4930 H   0  0  0  0  0  0  0  0  0  0  0  0
   -2.1359    6.0462   -8.6907 H   0  0  0  0  0  0  0  0  0  0  0  0
   -0.6186    5.9370   -6.8842 H   0  0  0  0  0  0  0  0  0  0  0  0
    1.5508    5.4251   -5.8219 H   0  0  0  0  0  0  0  0  0  0  0  0
    4.7269    7.0864   -6.8891 H   0  0  0  0  0  0  0  0  0  0  0  0
    5.9047    5.0883   -4.2517 H   0  0  0  0  0  0  0  0  0  0  0  0
    6.1871    6.6717   -5.0590 H   0  0  0  0  0  0  0  0  0  0  0  0
    6.9542    8.5854  -11.3029 H   0  0  0  0  0  0  0  0  0  0  0  0
    8.1807    9.3067  -13.3623 H   0  0  0  0  0  0  0  0  0  0  0  0
   10.5470    8.6616  -13.7081 H   0  0  0  0  0  0  0  0  0  0  0  0
   12.4276    7.3288  -12.9324 H   0  0  0  0  0  0  0  0  0  0  0  0
   12.4086    6.4814  -11.4636 H   0  0  0  0  0  0  0  0  0  0  0  0
   10.5354    6.6035   -9.9224 H   0  0  0  0  0  0  0  0  0  0  0  0
    8.9761    4.7187  -10.0143 H   0  0  0  0  0  0  0  0  0  0  0  0
    8.1829    3.8433   -8.6773 H   0  0  0  0  0  0  0  0  0  0  0  0
    9.7261    4.6983   -8.3869 H   0  0  0  0  0  0  0  0  0  0  0  0
    3.5043    8.2446   -8.4283 H   0  0  0  0  0  0  0  0  0  0  0  0
    1.3158    8.7645   -9.5026 H   0  0  0  0  0  0  0  0  0  0  0  0
  1  2  1  0
  1 27  1  0
  1 28  1  0
  1 29  1  0
  2  3  1  0
  3  4  2  0
  3 26  1  0
  4  5  1  0
  4 30  1  0
  5  6  2  0
  5 31  1  0
  6  7  1  0
  6 25  1  0
  7  8  1  0
  7 32  1  0
  8  9  2  0
  8 10  1  0
 10 11  1  0
 10 33  1  0
 10 34  1  0
 11 12  1  0
 12 13  2  0
 12 23  1  0
 13 14  1  0
 14 15  2  0
 15 16  1  0
 15 23  1  0
 16 17  2  0
 16 22  1  0
 17 18  1  0
 17 35  1  0
 18 19  2  0
 18 36  1  0
 19 20  1  0
 19 37  1  0
 20 21  1  0
 20 22  2  0
 21 38  1  0
 21 39  1  0
 22 40  1  0
 23 24  1  0
 24 41  1  0
 24 42  1  0
 24 43  1  0
 25 26  2  0
 25 44  1  0
 26 45  1  0
M  END

