
     RDKit          3D

 34 36  0  0  0  0  0  0  0  0999 V2000
    2.8998   -0.5732    1.4600 C   0  0  0  0  0  0  0  0  0  0  0  0
    2.1464    0.1236    0.3160 C   0  0  0  0  0  0  0  0  0  0  0  0
    2.8228    1.3872   -0.1812 C   0  0  0  0  0  0  0  0  0  0  0  0
    2.3680    2.6319    0.3079 C   0  0  0  0  0  0  0  0  0  0  0  0
    2.9501    3.8376   -0.0655 C   0  0  0  0  0  0  0  0  0  0  0  0
    4.0310    3.8286   -0.9598 C   0  0  0  0  0  0  0  0  0  0  0  0
    4.4846    2.5837   -1.4480 C   0  0  0  0  0  0  0  0  0  0  0  0
    5.8516    2.7592   -2.5606 S   0  0  0  0  0  0  0  0  0  0  0  0
    5.8186    4.5099   -2.3833 C   0  0  0  0  0  0  0  0  0  0  0  0
    6.6707    5.4224   -3.0099 C   0  0  0  0  0  0  0  0  0  0  0  0
    8.1898    4.7549   -4.3272 I   0  0  0  0  0  0  0  0  0  0  0  0
    6.5165    6.8004   -2.7621 C   0  0  0  0  0  0  0  0  0  0  0  0
    7.3666    7.6399   -3.3938 O   0  0  0  0  0  0  0  0  0  0  0  0
    7.2657    9.0319   -3.1896 C   0  0  0  0  0  0  0  0  0  0  0  0
    5.5006    7.2319   -1.8825 C   0  0  0  0  0  0  0  0  0  0  0  0
    4.6553    6.3158   -1.2614 C   0  0  0  0  0  0  0  0  0  0  0  0
    4.7964    4.9431   -1.4979 C   0  0  0  0  0  0  0  0  0  0  0  0
    3.9081    1.3534   -1.0828 C   0  0  0  0  0  0  0  0  0  0  0  0
    4.4790    0.0802   -1.6588 C   0  0  0  0  0  0  0  0  0  0  0  0
    2.3595   -1.4718    1.7998 H   0  0  0  0  0  0  0  0  0  0  0  0
    3.0152    0.1006    2.3239 H   0  0  0  0  0  0  0  0  0  0  0  0
    3.9096   -0.8851    1.1492 H   0  0  0  0  0  0  0  0  0  0  0  0
    1.1323    0.3824    0.6616 H   0  0  0  0  0  0  0  0  0  0  0  0
    2.0055   -0.5877   -0.5146 H   0  0  0  0  0  0  0  0  0  0  0  0
    1.5232    2.6417    1.0022 H   0  0  0  0  0  0  0  0  0  0  0  0
    2.5655    4.7801    0.3317 H   0  0  0  0  0  0  0  0  0  0  0  0
    6.2853    9.4246   -3.5134 H   0  0  0  0  0  0  0  0  0  0  0  0
    8.0531    9.4908   -3.8019 H   0  0  0  0  0  0  0  0  0  0  0  0
    7.4295    9.3049   -2.1318 H   0  0  0  0  0  0  0  0  0  0  0  0
    5.3716    8.2954   -1.6830 H   0  0  0  0  0  0  0  0  0  0  0  0
    3.8777    6.6785   -0.5851 H   0  0  0  0  0  0  0  0  0  0  0  0
    5.4709   -0.1406   -1.2268 H   0  0  0  0  0  0  0  0  0  0  0  0
    4.6220    0.1730   -2.7485 H   0  0  0  0  0  0  0  0  0  0  0  0
    3.8388   -0.7926   -1.4804 H   0  0  0  0  0  0  0  0  0  0  0  0
  1  2  1  0
  1 20  1  0
  1 21  1  0
  1 22  1  0
  2  3  1  0
  2 23  1  0
  2 24  1  0
  3  4  2  0
  3 18  1  0
  4  5  1  0
  4 25  1  0
  5  6  2  0
  5 26  1  0
  6  7  1  0
  6 17  1  0
  7  8  1  0
  7 18  2  0
  8  9  1  0
  9 10  1  0
  9 17  2  0
 10 11  1  0
 10 12  2  0
 12 13  1  0
 12 15  1  0
 13 14  1  0
 14 27  1  0
 14 28  1  0
 14 29  1  0
 15 16  2  0
 15 30  1  0
 16 17  1  0
 16 31  1  0
 18 19  1  0
 19 32  1  0
 19 33  1  0
 19 34  1  0
M  END

