
     RDKit          3D

 30 30  0  0  0  0  0  0  0  0999 V2000
    2.2830    0.6282    0.9985 C   0  0  0  0  0  0  0  0  0  0  0  0
    3.7694    0.9525    1.0182 C   0  0  2  0  0  0  0  0  0  0  0  0
    3.9368    1.8300    1.6735 H   0  0  0  0  0  0  0  0  0  0  0  0
    4.1612    1.2510   -0.3191 O   0  0  0  0  0  0  0  0  0  0  0  0
    4.6388   -0.1904    1.5673 C   0  0  0  0  0  0  0  0  0  0  0  0
    4.5484   -1.3328    0.6703 N   0  0  0  0  0  0  0  0  0  0  0  0
    5.0577   -2.8437    1.0951 S   0  0  1  0  0  0  0  0  0  0  0  0
    4.6762   -3.0570    2.4891 O   0  0  0  0  0  0  0  0  0  0  0  0
    4.6671   -3.7429    0.0175 O   0  0  0  0  0  0  0  0  0  0  0  0
    6.8739   -2.7913    1.0858 C   0  0  0  0  0  0  0  0  0  0  0  0
    7.5818   -3.1371    2.2357 C   0  0  0  0  0  0  0  0  0  0  0  0
    8.9834   -3.1785    2.2148 C   0  0  0  0  0  0  0  0  0  0  0  0
    9.6949   -3.5368    3.4937 C   0  0  0  0  0  0  0  0  0  0  0  0
    9.1870   -3.4172    4.5746 O   0  0  0  0  0  0  0  0  0  0  0  0
   10.9575   -4.0029    3.3698 O   0  0  0  0  0  0  0  0  0  0  0  0
    9.6697   -2.8396    1.0381 C   0  0  0  0  0  0  0  0  0  0  0  0
    8.9575   -2.4771   -0.1003 C   0  0  0  0  0  0  0  0  0  0  0  0
    9.5980   -2.1313   -1.2158 F   0  0  0  0  0  0  0  0  0  0  0  0
    7.5599   -2.4596   -0.0860 C   0  0  0  0  0  0  0  0  0  0  0  0
    6.9065   -2.0919   -1.1857 F   0  0  0  0  0  0  0  0  0  0  0  0
    2.0883   -0.2632    0.3845 H   0  0  0  0  0  0  0  0  0  0  0  0
    1.7238    1.4740    0.5728 H   0  0  0  0  0  0  0  0  0  0  0  0
    1.9130    0.4349    2.0169 H   0  0  0  0  0  0  0  0  0  0  0  0
    5.0147    1.7038   -0.2984 H   0  0  0  0  0  0  0  0  0  0  0  0
    4.2958   -0.4965    2.5662 H   0  0  0  0  0  0  0  0  0  0  0  0
    5.6828    0.1720    1.6710 H   0  0  0  0  0  0  0  0  0  0  0  0
    4.6342   -1.1253   -0.3248 H   0  0  0  0  0  0  0  0  0  0  0  0
    7.0411   -3.3784    3.1521 H   0  0  0  0  0  0  0  0  0  0  0  0
   11.1633   -4.2099    2.4475 H   0  0  0  0  0  0  0  0  0  0  0  0
   10.7604   -2.8077    0.9805 H   0  0  0  0  0  0  0  0  0  0  0  0
  1  2  1  0
  1 21  1  0
  1 22  1  0
  1 23  1  0
  2  3  1  1
  2  4  1  0
  2  5  1  0
  4 24  1  0
  5  6  1  0
  5 25  1  0
  5 26  1  0
  7  6  1  6
  6 27  1  0
  7  8  2  0
  7  9  2  0
  7 10  1  0
 10 11  2  0
 10 19  1  0
 11 12  1  0
 11 28  1  0
 12 13  1  0
 12 16  2  0
 13 14  2  0
 13 15  1  0
 15 29  1  0
 16 17  1  0
 16 30  1  0
 17 18  1  0
 17 19  2  0
 19 20  1  0
M  END

