
     RDKit          3D

 43 46  0  0  0  0  0  0  0  0999 V2000
    1.8222    1.1838    3.6036 C   0  0  0  0  0  0  0  0  0  0  0  0
    2.6736    0.7113    2.4807 C   0  0  0  0  0  0  0  0  0  0  0  0
    3.8244    1.1631    2.0795 N   0  0  0  0  0  0  0  0  0  0  0  0
    4.1108    0.3575    1.0025 C   0  0  0  0  0  0  0  0  0  0  0  0
    5.3844    0.4463    0.1991 C   0  0  1  0  0  0  0  0  0  0  0  0
    5.7809    1.9136   -0.1281 C   0  0  0  0  0  0  0  0  0  0  0  0
    7.2918    1.9747    0.1435 C   0  0  0  0  0  0  0  0  0  0  0  0
    7.4677    0.9933    1.3042 C   0  0  0  0  0  0  0  0  0  0  0  0
    6.5280   -0.0793    0.9619 N   0  0  0  0  0  0  0  0  0  0  0  0
    6.9512   -1.3850    0.9840 C   0  0  0  0  0  0  0  0  0  0  0  0
    7.9432   -1.7395    1.5918 O   0  0  0  0  0  0  0  0  0  0  0  0
    6.0345   -2.4482    0.3462 C   0  0  0  0  0  0  0  0  0  0  0  0
    6.0159   -2.5851   -1.1242 N   0  0  0  0  0  0  0  0  0  0  0  0
    6.9678   -1.9294   -1.9011 C   0  0  0  0  0  0  0  0  0  0  0  0
    7.7891   -1.1532   -1.4520 O   0  0  0  0  0  0  0  0  0  0  0  0
    6.9144   -2.1928   -3.2627 N   0  0  0  0  0  0  0  0  0  0  0  0
    7.6155   -1.7034   -3.8135 H   0  0  0  0  0  0  0  0  0  0  0  0
    6.0648   -3.0491   -3.9566 C   0  0  0  0  0  0  0  0  0  0  0  0
    6.1483   -3.1804   -5.1612 O   0  0  0  0  0  0  0  0  0  0  0  0
    5.1032   -3.7425   -3.0798 C   0  0  0  0  0  0  0  0  0  0  0  0
    4.1978   -4.6484   -3.6501 C   0  0  0  0  0  0  0  0  0  0  0  0
    3.2892   -5.3372   -2.8561 C   0  0  0  0  0  0  0  0  0  0  0  0
    3.2966   -5.1139   -1.4735 C   0  0  0  0  0  0  0  0  0  0  0  0
    4.1885   -4.2175   -0.8882 C   0  0  0  0  0  0  0  0  0  0  0  0
    5.1081   -3.5049   -1.6848 C   0  0  0  0  0  0  0  0  0  0  0  0
    3.1927   -0.5426    0.7533 N   0  0  0  0  0  0  0  0  0  0  0  0
    2.2327   -0.3130    1.7331 O   0  0  0  0  0  0  0  0  0  0  0  0
    2.3812    1.9151    4.1997 H   0  0  0  0  0  0  0  0  0  0  0  0
    1.5151    0.3409    4.2405 H   0  0  0  0  0  0  0  0  0  0  0  0
    0.9075    1.6619    3.2173 H   0  0  0  0  0  0  0  0  0  0  0  0
    5.2307   -0.1360   -0.7196 H   0  0  0  0  0  0  0  0  0  0  0  0
    5.2447    2.5927    0.5508 H   0  0  0  0  0  0  0  0  0  0  0  0
    5.5086    2.1809   -1.1593 H   0  0  0  0  0  0  0  0  0  0  0  0
    7.6383    2.9917    0.3807 H   0  0  0  0  0  0  0  0  0  0  0  0
    7.8545    1.6058   -0.7278 H   0  0  0  0  0  0  0  0  0  0  0  0
    7.1957    1.4558    2.2700 H   0  0  0  0  0  0  0  0  0  0  0  0
    8.4742    0.5671    1.3982 H   0  0  0  0  0  0  0  0  0  0  0  0
    5.0013   -2.2638    0.6715 H   0  0  0  0  0  0  0  0  0  0  0  0
    6.3752   -3.3980    0.7839 H   0  0  0  0  0  0  0  0  0  0  0  0
    4.2430   -4.7877   -4.7321 H   0  0  0  0  0  0  0  0  0  0  0  0
    2.5837   -6.0422   -3.3003 H   0  0  0  0  0  0  0  0  0  0  0  0
    2.5930   -5.6490   -0.8308 H   0  0  0  0  0  0  0  0  0  0  0  0
    4.1555   -4.0769    0.1893 H   0  0  0  0  0  0  0  0  0  0  0  0
  1  2  1  0
  1 28  1  0
  1 29  1  0
  1 30  1  0
  2  3  2  0
  2 27  1  0
  3  4  1  0
  4  5  1  0
  4 26  2  0
  5  6  1  0
  5  9  1  0
  5 31  1  6
  6  7  1  0
  6 32  1  0
  6 33  1  0
  7  8  1  0
  7 34  1  0
  7 35  1  0
  8  9  1  0
  8 36  1  0
  8 37  1  0
  9 10  1  0
 10 11  2  0
 10 12  1  0
 12 13  1  0
 12 38  1  0
 12 39  1  0
 13 14  1  0
 13 25  1  0
 14 15  2  0
 14 16  1  0
 16 17  1  0
 16 18  1  0
 18 19  2  0
 18 20  1  0
 20 21  1  0
 20 25  2  0
 21 22  2  0
 21 40  1  0
 22 23  1  0
 22 41  1  0
 23 24  2  0
 23 42  1  0
 24 25  1  0
 24 43  1  0
 26 27  1  0
M  END

