
     RDKit          3D

 61 63  0  0  0  0  0  0  0  0999 V2000
   18.0380   -2.4653   -8.7648 C   0  0  0  0  0  0  0  0  0  0  0  0
   16.6882   -2.5061   -9.1584 O   0  0  0  0  0  0  0  0  0  0  0  0
   15.8556   -1.5038   -8.7598 C   0  0  0  0  0  0  0  0  0  0  0  0
   16.2362   -0.4090   -7.9808 C   0  0  0  0  0  0  0  0  0  0  0  0
   15.2806    0.5564   -7.6298 C   0  0  0  0  0  0  0  0  0  0  0  0
   13.9504    0.4467   -8.0422 C   0  0  0  0  0  0  0  0  0  0  0  0
   12.9915    1.3667   -7.7369 O   0  0  0  0  0  0  0  0  0  0  0  0
   13.3421    2.5207   -7.0127 C   0  0  0  0  0  0  0  0  0  0  0  0
   13.5482   -0.6638   -8.8367 C   0  0  0  0  0  0  0  0  0  0  0  0
   12.1541   -0.8288   -9.3359 C   0  0  0  0  0  0  0  0  0  0  0  0
   11.0413   -0.6059   -8.5026 C   0  0  0  0  0  0  0  0  0  0  0  0
    9.7361   -0.8124   -8.9577 C   0  0  0  0  0  0  0  0  0  0  0  0
    8.3671   -0.5475   -7.9069 Cl  0  0  0  0  0  0  0  0  0  0  0  0
    9.5373   -1.2416  -10.2710 C   0  0  0  0  0  0  0  0  0  0  0  0
   10.6313   -1.4641  -11.1149 C   0  0  0  0  0  0  0  0  0  0  0  0
   11.9284   -1.2594  -10.6625 C   0  0  0  0  0  0  0  0  0  0  0  0
   10.0818   -1.8576  -12.4681 C   0  0  0  0  0  0  0  0  0  0  0  0
    8.5816   -2.0796  -12.1547 C   0  0  2  0  0  0  0  0  0  0  0  0
    8.3576   -3.1530  -12.0503 H   0  0  0  0  0  0  0  0  0  0  0  0
    7.6184   -1.4772  -13.1726 C   0  0  0  0  0  0  0  0  0  0  0  0
    6.2253   -1.6252  -12.8074 N   0  0  0  0  0  0  0  0  0  0  0  0
    5.6071   -2.8300  -12.8523 C   0  0  0  0  0  0  0  0  0  0  0  0
    6.1592   -3.8558  -13.2297 O   0  0  0  0  0  0  0  0  0  0  0  0
    4.1439   -2.8667  -12.3533 C   0  0  2  0  0  0  0  0  0  0  0  0
    3.8401   -3.9013  -12.5681 H   0  0  0  0  0  0  0  0  0  0  0  0
    3.2394   -2.0193  -13.1467 N   0  0  0  0  0  0  0  0  0  0  0  0
    3.1975   -0.6590  -13.1506 C   0  0  0  0  0  0  0  0  0  0  0  0
    2.0932   -0.0350  -13.9871 C   0  0  0  0  0  0  0  0  0  0  0  0
    3.9831    0.0444  -12.5210 O   0  0  0  0  0  0  0  0  0  0  0  0
    4.0012   -2.6369  -10.8228 C   0  0  1  0  0  0  0  0  0  0  0  0
    2.5860   -3.0086  -10.3622 C   0  0  0  0  0  0  0  0  0  0  0  0
    5.0646   -3.4145  -10.0361 C   0  0  0  0  0  0  0  0  0  0  0  0
    8.3407   -1.4715  -10.8544 O   0  0  0  0  0  0  0  0  0  0  0  0
   14.5179   -1.6130   -9.1737 C   0  0  0  0  0  0  0  0  0  0  0  0
   18.5174   -3.3593   -9.1868 H   0  0  0  0  0  0  0  0  0  0  0  0
   18.1497   -2.4875   -7.6647 H   0  0  0  0  0  0  0  0  0  0  0  0
   18.5559   -1.5680   -9.1519 H   0  0  0  0  0  0  0  0  0  0  0  0
   17.2621   -0.2855   -7.6336 H   0  0  0  0  0  0  0  0  0  0  0  0
   15.6007    1.4056   -7.0262 H   0  0  0  0  0  0  0  0  0  0  0  0
   12.4252    3.1170   -6.9111 H   0  0  0  0  0  0  0  0  0  0  0  0
   14.1040    3.1233   -7.5407 H   0  0  0  0  0  0  0  0  0  0  0  0
   13.7226    2.2778   -6.0033 H   0  0  0  0  0  0  0  0  0  0  0  0
   11.1860   -0.2740   -7.4762 H   0  0  0  0  0  0  0  0  0  0  0  0
   12.7763   -1.4128  -11.3338 H   0  0  0  0  0  0  0  0  0  0  0  0
   10.5491   -2.7636  -12.8826 H   0  0  0  0  0  0  0  0  0  0  0  0
   10.2264   -1.0473  -13.2066 H   0  0  0  0  0  0  0  0  0  0  0  0
    7.8314   -0.4032  -13.2876 H   0  0  0  0  0  0  0  0  0  0  0  0
    7.8063   -1.9725  -14.1408 H   0  0  0  0  0  0  0  0  0  0  0  0
    5.6818   -0.8172  -12.4953 H   0  0  0  0  0  0  0  0  0  0  0  0
    2.5727   -2.5030  -13.7343 H   0  0  0  0  0  0  0  0  0  0  0  0
    1.5068   -0.7590  -14.5709 H   0  0  0  0  0  0  0  0  0  0  0  0
    2.5433    0.7034  -14.6668 H   0  0  0  0  0  0  0  0  0  0  0  0
    1.4167    0.5155  -13.3151 H   0  0  0  0  0  0  0  0  0  0  0  0
    4.1540   -1.5622  -10.6360 H   0  0  0  0  0  0  0  0  0  0  0  0
    2.4017   -4.0905  -10.4829 H   0  0  0  0  0  0  0  0  0  0  0  0
    1.8133   -2.4682  -10.9309 H   0  0  0  0  0  0  0  0  0  0  0  0
    2.4460   -2.7645   -9.2975 H   0  0  0  0  0  0  0  0  0  0  0  0
    5.0585   -4.4865  -10.2955 H   0  0  0  0  0  0  0  0  0  0  0  0
    4.8722   -3.3281   -8.9552 H   0  0  0  0  0  0  0  0  0  0  0  0
    6.0754   -3.0208  -10.2165 H   0  0  0  0  0  0  0  0  0  0  0  0
   14.2417   -2.4900   -9.7616 H   0  0  0  0  0  0  0  0  0  0  0  0
  1  2  1  0
  1 35  1  0
  1 36  1  0
  1 37  1  0
  2  3  1  0
  3  4  2  0
  3 34  1  0
  4  5  1  0
  4 38  1  0
  5  6  2  0
  5 39  1  0
  6  7  1  0
  6  9  1  0
  7  8  1  0
  8 40  1  0
  8 41  1  0
  8 42  1  0
  9 10  1  0
  9 34  2  0
 10 11  2  0
 10 16  1  0
 11 12  1  0
 11 43  1  0
 12 13  1  0
 12 14  2  0
 14 15  1  0
 14 33  1  0
 15 16  2  0
 15 17  1  0
 16 44  1  0
 17 18  1  0
 17 45  1  0
 17 46  1  0
 18 19  1  1
 18 20  1  0
 18 33  1  0
 20 21  1  0
 20 47  1  0
 20 48  1  0
 21 22  1  0
 21 49  1  0
 22 23  2  0
 22 24  1  0
 24 25  1  1
 24 26  1  0
 24 30  1  0
 26 27  1  0
 26 50  1  0
 27 28  1  0
 27 29  2  0
 28 51  1  0
 28 52  1  0
 28 53  1  0
 30 31  1  0
 30 32  1  0
 30 54  1  6
 31 55  1  0
 31 56  1  0
 31 57  1  0
 32 58  1  0
 32 59  1  0
 32 60  1  0
 34 61  1  0
M  END

