
     RDKit          3D

 80 85  0  0  0  0  0  0  0  0999 V2000
    1.0330    0.2054    0.4233 C   0  0  0  0  0  0  0  0  0  0  0  0
    2.5566    0.1423    0.2103 C   0  0  1  0  0  0  0  0  0  0  0  0
    3.2656    1.1816    1.0944 C   0  0  0  0  0  0  0  0  0  0  0  0
    3.2328   -1.6521    0.3684 Si  0  0  1  0  0  4  0  0  0  0  0  0
    2.7140   -2.3276    2.0139 C   0  0  0  0  0  0  0  0  0  0  0  0
    2.3758   -2.7668    3.1089 C   0  0  0  0  0  0  0  0  0  0  0  0
    1.9797   -3.2746    4.3771 C   0  0  0  0  0  0  0  0  0  0  0  0
    1.5378   -2.3768    5.3953 C   0  0  0  0  0  0  0  0  0  0  0  0
    1.4888   -0.9805    5.1791 C   0  0  0  0  0  0  0  0  0  0  0  0
    1.0606   -0.0891    6.1608 C   0  0  0  0  0  0  0  0  0  0  0  0
    1.0116    1.3297    5.9418 C   0  0  0  0  0  0  0  0  0  0  0  0
    0.5859    2.1789    6.9282 C   0  0  0  0  0  0  0  0  0  0  0  0
    0.1791    1.6676    8.2038 C   0  0  0  0  0  0  0  0  0  0  0  0
    0.2098    0.3220    8.4560 C   0  0  0  0  0  0  0  0  0  0  0  0
    0.6489   -0.6067    7.4523 C   0  0  0  0  0  0  0  0  0  0  0  0
    0.6933   -1.9816    7.6761 C   0  0  0  0  0  0  0  0  0  0  0  0
    1.1261   -2.8951    6.6888 C   0  0  0  0  0  0  0  0  0  0  0  0
    1.1650   -4.3024    6.9370 C   0  0  0  0  0  0  0  0  0  0  0  0
    0.7607   -4.8093    8.1983 C   0  0  0  0  0  0  0  0  0  0  0  0
    0.4119   -5.2463    9.2863 C   0  0  0  0  0  0  0  0  0  0  0  0
    0.0054   -5.7554   10.5545 C   0  0  0  0  0  0  0  0  0  0  0  0
    0.0297   -7.1442   10.8165 C   0  0  0  0  0  0  0  0  0  0  0  0
   -0.3686   -7.6372   12.0578 C   0  0  0  0  0  0  0  0  0  0  0  0
   -0.7981   -6.7619   13.0617 C   0  0  0  0  0  0  0  0  0  0  0  0
   -0.8269   -5.3846   12.8152 C   0  0  0  0  0  0  0  0  0  0  0  0
   -0.4306   -4.8822   11.5770 C   0  0  0  0  0  0  0  0  0  0  0  0
    1.6107   -5.2000    5.9176 C   0  0  0  0  0  0  0  0  0  0  0  0
    1.6624   -6.5957    6.1319 C   0  0  0  0  0  0  0  0  0  0  0  0
    2.0949   -7.4857    5.1504 C   0  0  0  0  0  0  0  0  0  0  0  0
    2.1471   -8.9044    5.3681 C   0  0  0  0  0  0  0  0  0  0  0  0
    2.5781   -9.7516    4.3824 C   0  0  0  0  0  0  0  0  0  0  0  0
    2.9876   -9.2382    3.1085 C   0  0  0  0  0  0  0  0  0  0  0  0
    2.9543   -7.8925    2.8572 C   0  0  0  0  0  0  0  0  0  0  0  0
    2.5094   -6.9659    3.8607 C   0  0  0  0  0  0  0  0  0  0  0  0
    2.4628   -5.5912    3.6377 C   0  0  0  0  0  0  0  0  0  0  0  0
    2.0235   -4.6798    4.6253 C   0  0  0  0  0  0  0  0  0  0  0  0
    2.3694   -2.7060   -0.9887 C   0  0  1  0  0  0  0  0  0  0  0  0
    2.7774   -2.2965   -2.4160 C   0  0  0  0  0  0  0  0  0  0  0  0
    2.4559   -4.2289   -0.7903 C   0  0  0  0  0  0  0  0  0  0  0  0
    5.1570   -1.6744    0.2839 C   0  0  1  0  0  0  0  0  0  0  0  0
    5.8157   -1.2578    1.6130 C   0  0  0  0  0  0  0  0  0  0  0  0
    5.7550   -3.0110   -0.1898 C   0  0  0  0  0  0  0  0  0  0  0  0
    0.6574    1.2316    0.2660 H   0  0  0  0  0  0  0  0  0  0  0  0
    0.7591   -0.0921    1.4492 H   0  0  0  0  0  0  0  0  0  0  0  0
    0.4803   -0.4519   -0.2659 H   0  0  0  0  0  0  0  0  0  0  0  0
    2.7594    0.4155   -0.8438 H   0  0  0  0  0  0  0  0  0  0  0  0
    3.1697    0.9380    2.1662 H   0  0  0  0  0  0  0  0  0  0  0  0
    2.8237    2.1830    0.9483 H   0  0  0  0  0  0  0  0  0  0  0  0
    4.3392    1.2646    0.8673 H   0  0  0  0  0  0  0  0  0  0  0  0
    1.8005   -0.5933    4.2077 H   0  0  0  0  0  0  0  0  0  0  0  0
    1.3222    1.7178    4.9681 H   0  0  0  0  0  0  0  0  0  0  0  0
    0.5533    3.2565    6.7488 H   0  0  0  0  0  0  0  0  0  0  0  0
   -0.1572    2.3637    8.9764 H   0  0  0  0  0  0  0  0  0  0  0  0
   -0.1002   -0.0695    9.4287 H   0  0  0  0  0  0  0  0  0  0  0  0
    0.3841   -2.3718    8.6471 H   0  0  0  0  0  0  0  0  0  0  0  0
    0.3645   -7.8280   10.0338 H   0  0  0  0  0  0  0  0  0  0  0  0
   -0.3440   -8.7138   12.2446 H   0  0  0  0  0  0  0  0  0  0  0  0
   -1.1096   -7.1521   14.0338 H   0  0  0  0  0  0  0  0  0  0  0  0
   -1.1615   -4.6962   13.5955 H   0  0  0  0  0  0  0  0  0  0  0  0
   -0.4534   -3.8075   11.3857 H   0  0  0  0  0  0  0  0  0  0  0  0
    1.3519   -6.9856    7.1026 H   0  0  0  0  0  0  0  0  0  0  0  0
    1.8344   -9.2946    6.3404 H   0  0  0  0  0  0  0  0  0  0  0  0
    2.6129  -10.8293    4.5609 H   0  0  0  0  0  0  0  0  0  0  0  0
    3.3278   -9.9328    2.3363 H   0  0  0  0  0  0  0  0  0  0  0  0
    3.2657   -7.4990    1.8860 H   0  0  0  0  0  0  0  0  0  0  0  0
    2.7771   -5.1980    2.6695 H   0  0  0  0  0  0  0  0  0  0  0  0
    1.3049   -2.4333   -0.8635 H   0  0  0  0  0  0  0  0  0  0  0  0
    3.8343   -2.5307   -2.6259 H   0  0  0  0  0  0  0  0  0  0  0  0
    2.6368   -1.2193   -2.6015 H   0  0  0  0  0  0  0  0  0  0  0  0
    2.1743   -2.8362   -3.1670 H   0  0  0  0  0  0  0  0  0  0  0  0
    3.4818   -4.6075   -0.9208 H   0  0  0  0  0  0  0  0  0  0  0  0
    1.8220   -4.7533   -1.5270 H   0  0  0  0  0  0  0  0  0  0  0  0
    2.1133   -4.5291    0.2121 H   0  0  0  0  0  0  0  0  0  0  0  0
    5.4067   -0.9077   -0.4759 H   0  0  0  0  0  0  0  0  0  0  0  0
    5.6105   -1.9984    2.4028 H   0  0  0  0  0  0  0  0  0  0  0  0
    5.4642   -0.2840    1.9826 H   0  0  0  0  0  0  0  0  0  0  0  0
    6.9119   -1.1917    1.4977 H   0  0  0  0  0  0  0  0  0  0  0  0
    5.5044   -3.8332    0.5014 H   0  0  0  0  0  0  0  0  0  0  0  0
    6.8568   -2.9489   -0.2288 H   0  0  0  0  0  0  0  0  0  0  0  0
    5.4094   -3.3012   -1.1931 H   0  0  0  0  0  0  0  0  0  0  0  0
  1  2  1  0
  1 43  1  0
  1 44  1  0
  1 45  1  0
  2  3  1  0
  2  4  1  0
  2 46  1  6
  3 47  1  0
  3 48  1  0
  3 49  1  0
  4  5  1  1
  4 37  1  0
  4 40  1  0
  5  6  3  0
  6  7  1  0
  7  8  2  0
  7 36  1  0
  8  9  1  0
  8 17  1  0
  9 10  2  0
  9 50  1  0
 10 11  1  0
 10 15  1  0
 11 12  2  0
 11 51  1  0
 12 13  1  0
 12 52  1  0
 13 14  2  0
 13 53  1  0
 14 15  1  0
 14 54  1  0
 15 16  2  0
 16 17  1  0
 16 55  1  0
 17 18  2  0
 18 19  1  0
 18 27  1  0
 19 20  3  0
 20 21  1  0
 21 22  2  0
 21 26  1  0
 22 23  1  0
 22 56  1  0
 23 24  2  0
 23 57  1  0
 24 25  1  0
 24 58  1  0
 25 26  2  0
 25 59  1  0
 26 60  1  0
 27 28  1  0
 27 36  2  0
 28 29  2  0
 28 61  1  0
 29 30  1  0
 29 34  1  0
 30 31  2  0
 30 62  1  0
 31 32  1  0
 31 63  1  0
 32 33  2  0
 32 64  1  0
 33 34  1  0
 33 65  1  0
 34 35  2  0
 35 36  1  0
 35 66  1  0
 37 38  1  0
 37 39  1  0
 37 67  1  6
 38 68  1  0
 38 69  1  0
 38 70  1  0
 39 71  1  0
 39 72  1  0
 39 73  1  0
 40 41  1  0
 40 42  1  0
 40 74  1  6
 41 75  1  0
 41 76  1  0
 41 77  1  0
 42 78  1  0
 42 79  1  0
 42 80  1  0
M  END

