
     RDKit          3D

 53 55  0  0  0  0  0  0  0  0999 V2000
    9.0739   -3.9204   -1.0867 C   0  0  0  0  0  0  0  0  0  0  0  0
    8.6428   -2.5714   -0.5093 C   0  0  0  0  0  0  0  0  0  0  0  0
    8.6667   -1.3725   -1.4934 C   0  0  1  0  0  0  0  0  0  0  0  0
   10.0204   -1.0811   -2.0079 N   0  0  0  0  0  0  0  0  0  0  0  0
    7.7619   -1.6000   -2.7269 C   0  0  0  0  0  0  0  0  0  0  0  0
    6.2722   -1.8161   -2.4554 C   0  0  0  0  0  0  0  0  0  0  0  0
    8.2341   -0.1098   -0.7072 C   0  0  0  0  0  0  0  0  0  0  0  0
    8.3387    1.0840   -1.5155 N   0  0  0  0  0  0  0  0  0  0  0  0
    7.3288    1.9816   -1.6641 C   0  0  0  0  0  0  0  0  0  0  0  0
    6.2695    1.9050   -1.0547 O   0  0  0  0  0  0  0  0  0  0  0  0
    7.5807    3.1251   -2.6251 C   0  0  0  0  0  0  0  0  0  0  0  0
    8.5911    3.1128   -3.6053 C   0  0  0  0  0  0  0  0  0  0  0  0
    8.7742    4.1900   -4.4847 C   0  0  0  0  0  0  0  0  0  0  0  0
    7.9207    5.2773   -4.3565 C   0  0  0  0  0  0  0  0  0  0  0  0
    6.9085    5.2951   -3.3908 C   0  0  0  0  0  0  0  0  0  0  0  0
    6.7150    4.2320   -2.5222 C   0  0  0  0  0  0  0  0  0  0  0  0
    6.1708    6.5929   -3.5148 C   0  0  0  0  0  0  0  0  0  0  0  0
    5.2354    7.0065   -2.8709 O   0  0  0  0  0  0  0  0  0  0  0  0
    6.7999    7.2834   -4.5644 N   0  0  0  0  0  0  0  0  0  0  0  0
    6.3736    8.5967   -5.0388 C   0  0  0  0  0  0  0  0  0  0  0  0
    5.3306    8.5362   -6.1400 C   0  0  0  0  0  0  0  0  0  0  0  0
    3.9637    8.5023   -5.8238 C   0  0  0  0  0  0  0  0  0  0  0  0
    3.0040    8.4317   -6.8372 C   0  0  0  0  0  0  0  0  0  0  0  0
    3.4001    8.3930   -8.1778 C   0  0  0  0  0  0  0  0  0  0  0  0
    4.7603    8.4221   -8.5006 C   0  0  0  0  0  0  0  0  0  0  0  0
    5.7205    8.4924   -7.4874 C   0  0  0  0  0  0  0  0  0  0  0  0
    7.8604    6.5596   -5.1263 C   0  0  0  0  0  0  0  0  0  0  0  0
    8.5608    6.9342   -6.0389 O   0  0  0  0  0  0  0  0  0  0  0  0
    9.1307   -4.6832   -0.2947 H   0  0  0  0  0  0  0  0  0  0  0  0
   10.0708   -3.8598   -1.5537 H   0  0  0  0  0  0  0  0  0  0  0  0
    8.3706   -4.2921   -1.8483 H   0  0  0  0  0  0  0  0  0  0  0  0
    9.3041   -2.3156    0.3389 H   0  0  0  0  0  0  0  0  0  0  0  0
    7.6327   -2.6624   -0.0748 H   0  0  0  0  0  0  0  0  0  0  0  0
   10.2960   -1.7547   -2.7220 H   0  0  0  0  0  0  0  0  0  0  0  0
   10.7120   -1.1524   -1.2593 H   0  0  0  0  0  0  0  0  0  0  0  0
    8.1612   -2.4641   -3.2870 H   0  0  0  0  0  0  0  0  0  0  0  0
    7.8890   -0.7316   -3.3933 H   0  0  0  0  0  0  0  0  0  0  0  0
    6.0862   -2.6943   -1.8164 H   0  0  0  0  0  0  0  0  0  0  0  0
    5.7351   -1.9848   -3.4021 H   0  0  0  0  0  0  0  0  0  0  0  0
    5.8099   -0.9412   -1.9724 H   0  0  0  0  0  0  0  0  0  0  0  0
    8.8814   -0.0194    0.1862 H   0  0  0  0  0  0  0  0  0  0  0  0
    7.2006   -0.1843   -0.3455 H   0  0  0  0  0  0  0  0  0  0  0  0
    9.1953    1.1528   -2.0539 H   0  0  0  0  0  0  0  0  0  0  0  0
    9.2423    2.2420   -3.7125 H   0  0  0  0  0  0  0  0  0  0  0  0
    9.5551    4.1757   -5.2480 H   0  0  0  0  0  0  0  0  0  0  0  0
    5.9212    4.2238   -1.7737 H   0  0  0  0  0  0  0  0  0  0  0  0
    7.2754    9.1139   -5.3950 H   0  0  0  0  0  0  0  0  0  0  0  0
    5.9770    9.1346   -4.1664 H   0  0  0  0  0  0  0  0  0  0  0  0
    3.6554    8.5226   -4.7751 H   0  0  0  0  0  0  0  0  0  0  0  0
    1.9421    8.4082   -6.5787 H   0  0  0  0  0  0  0  0  0  0  0  0
    2.6491    8.3406   -8.9704 H   0  0  0  0  0  0  0  0  0  0  0  0
    5.0761    8.3912   -9.5468 H   0  0  0  0  0  0  0  0  0  0  0  0
    6.7844    8.5047   -7.7381 H   0  0  0  0  0  0  0  0  0  0  0  0
  1  2  1  0
  1 29  1  0
  1 30  1  0
  1 31  1  0
  2  3  1  0
  2 32  1  0
  2 33  1  0
  3  4  1  6
  3  5  1  0
  3  7  1  0
  4 34  1  0
  4 35  1  0
  5  6  1  0
  5 36  1  0
  5 37  1  0
  6 38  1  0
  6 39  1  0
  6 40  1  0
  7  8  1  0
  7 41  1  0
  7 42  1  0
  8  9  1  0
  8 43  1  0
  9 10  2  0
  9 11  1  0
 11 12  2  0
 11 16  1  0
 12 13  1  0
 12 44  1  0
 13 14  2  0
 13 45  1  0
 14 15  1  0
 14 27  1  0
 15 16  2  0
 15 17  1  0
 16 46  1  0
 17 18  2  0
 17 19  1  0
 19 20  1  0
 19 27  1  0
 20 21  1  0
 20 47  1  0
 20 48  1  0
 21 22  2  0
 21 26  1  0
 22 23  1  0
 22 49  1  0
 23 24  2  0
 23 50  1  0
 24 25  1  0
 24 51  1  0
 25 26  2  0
 25 52  1  0
 26 53  1  0
 27 28  2  0
M  END

