
     RDKit          3D

 42 43  0  0  0  0  0  0  0  0999 V2000
    4.4995    0.9625    0.6790 C   0  0  0  0  0  0  0  0  0  0  0  0
    2.9563    0.1054   -0.0124 Si  0  0  1  0  0  4  0  0  0  0  0  0
    2.1226   -0.8104    1.4200 C   0  0  0  0  0  0  0  0  0  0  0  0
    1.7247    1.3923   -0.6617 C   0  0  0  0  0  0  0  0  0  0  0  0
    3.4201   -1.1547   -1.3717 C   0  0  0  0  0  0  0  0  0  0  0  0
    3.1119   -2.4900   -1.1615 C   0  0  0  0  0  0  0  0  0  0  0  0
    3.4184   -3.4974   -2.1084 C   0  0  0  0  0  0  0  0  0  0  0  0
    4.0487   -3.2188   -3.3115 C   0  0  0  0  0  0  0  0  0  0  0  0
    4.4067   -4.6700   -4.5018 Si  0  0  1  0  0  4  0  0  0  0  0  0
    3.4983   -4.4432   -6.1503 C   0  0  0  0  0  0  0  0  0  0  0  0
    6.2687   -4.8679   -4.7979 C   0  0  0  0  0  0  0  0  0  0  0  0
    3.7796   -6.2776   -3.7221 C   0  0  0  0  0  0  0  0  0  0  0  0
    4.3890   -1.8423   -3.5757 C   0  0  0  0  0  0  0  0  0  0  0  0
    5.0383   -1.4515   -4.7835 C   0  0  0  0  0  0  0  0  0  0  0  0
    5.3678   -0.1386   -5.0477 C   0  0  0  0  0  0  0  0  0  0  0  0
    5.0604    0.8665   -4.1039 C   0  0  0  0  0  0  0  0  0  0  0  0
    4.4330    0.5293   -2.9229 C   0  0  0  0  0  0  0  0  0  0  0  0
    4.0757   -0.8152   -2.6107 C   0  0  0  0  0  0  0  0  0  0  0  0
    4.2206    1.6300    1.5120 H   0  0  0  0  0  0  0  0  0  0  0  0
    5.0315    1.5677   -0.0708 H   0  0  0  0  0  0  0  0  0  0  0  0
    5.2127    0.2183    1.0703 H   0  0  0  0  0  0  0  0  0  0  0  0
    1.8540   -0.0866    2.2076 H   0  0  0  0  0  0  0  0  0  0  0  0
    2.7864   -1.5629    1.8758 H   0  0  0  0  0  0  0  0  0  0  0  0
    1.1951   -1.3173    1.1077 H   0  0  0  0  0  0  0  0  0  0  0  0
    1.4116    2.0628    0.1565 H   0  0  0  0  0  0  0  0  0  0  0  0
    0.8207    0.8990   -1.0555 H   0  0  0  0  0  0  0  0  0  0  0  0
    2.1372    2.0183   -1.4677 H   0  0  0  0  0  0  0  0  0  0  0  0
    2.6146   -2.7995   -0.2390 H   0  0  0  0  0  0  0  0  0  0  0  0
    3.1389   -4.5242   -1.8605 H   0  0  0  0  0  0  0  0  0  0  0  0
    3.8237   -3.5503   -6.7055 H   0  0  0  0  0  0  0  0  0  0  0  0
    2.4122   -4.3516   -5.9836 H   0  0  0  0  0  0  0  0  0  0  0  0
    3.6654   -5.3203   -6.7983 H   0  0  0  0  0  0  0  0  0  0  0  0
    6.7282   -3.9874   -5.2723 H   0  0  0  0  0  0  0  0  0  0  0  0
    6.4584   -5.7376   -5.4498 H   0  0  0  0  0  0  0  0  0  0  0  0
    6.7949   -5.0424   -3.8448 H   0  0  0  0  0  0  0  0  0  0  0  0
    2.6927   -6.2569   -3.5410 H   0  0  0  0  0  0  0  0  0  0  0  0
    4.2812   -6.5004   -2.7664 H   0  0  0  0  0  0  0  0  0  0  0  0
    3.9844   -7.1180   -4.4063 H   0  0  0  0  0  0  0  0  0  0  0  0
    5.2836   -2.2128   -5.5241 H   0  0  0  0  0  0  0  0  0  0  0  0
    5.8653    0.1235   -5.9849 H   0  0  0  0  0  0  0  0  0  0  0  0
    5.3190    1.9084   -4.3090 H   0  0  0  0  0  0  0  0  0  0  0  0
    4.2040    1.3187   -2.2068 H   0  0  0  0  0  0  0  0  0  0  0  0
  2  1  1  1
  1 19  1  0
  1 20  1  0
  1 21  1  0
  2  3  1  0
  2  4  1  0
  2  5  1  0
  3 22  1  0
  3 23  1  0
  3 24  1  0
  4 25  1  0
  4 26  1  0
  4 27  1  0
  5  6  2  0
  5 18  1  0
  6  7  1  0
  6 28  1  0
  7  8  2  0
  7 29  1  0
  8  9  1  0
  8 13  1  0
  9 10  1  6
  9 11  1  0
  9 12  1  0
 10 30  1  0
 10 31  1  0
 10 32  1  0
 11 33  1  0
 11 34  1  0
 11 35  1  0
 12 36  1  0
 12 37  1  0
 12 38  1  0
 13 14  1  0
 13 18  2  0
 14 15  2  0
 14 39  1  0
 15 16  1  0
 15 40  1  0
 16 17  2  0
 16 41  1  0
 17 18  1  0
 17 42  1  0
M  END

