
     RDKit          3D

 34 35  0  0  0  0  0  0  0  0999 V2000
    2.4983    0.6773    1.8631 C   0  0  0  0  0  0  0  0  0  0  0  0
    3.0762    0.1442    0.6431 N   0  0  0  0  0  0  0  0  0  0  0  0
    4.2897   -0.6375    0.8848 C   0  0  0  0  0  0  0  0  0  0  0  0
    3.0947    0.9887   -0.4867 C   0  0  0  0  0  0  0  0  0  0  0  0
    3.0890    2.3878   -0.4142 C   0  0  0  0  0  0  0  0  0  0  0  0
    3.1050    3.1404   -1.5918 C   0  0  0  0  0  0  0  0  0  0  0  0
    3.1416    2.5962   -2.8058 N   0  0  0  0  0  0  0  0  0  0  0  0
    3.1266    1.2631   -2.8990 C   0  0  0  0  0  0  0  0  0  0  0  0
    3.0718    0.4107   -1.7861 C   0  0  0  0  0  0  0  0  0  0  0  0
    2.9802   -0.9980   -1.8457 N   0  0  0  0  0  0  0  0  0  0  0  0
    2.6296   -1.9448   -3.1760 S   0  0  1  0  0  0  0  0  0  0  0  0
    3.3717   -1.4344   -4.3262 O   0  0  0  0  0  0  0  0  0  0  0  0
    2.7596   -3.3231   -2.7265 O   0  0  0  0  0  0  0  0  0  0  0  0
    0.8833   -1.6684   -3.5567 C   0  0  0  0  0  0  0  0  0  0  0  0
    0.4957   -1.1259   -4.8143 C   0  0  0  0  0  0  0  0  0  0  0  0
   -0.8679   -1.0553   -4.9522 C   0  0  0  0  0  0  0  0  0  0  0  0
   -1.6883   -1.6450   -3.5566 S   0  0  0  0  0  0  0  0  0  0  0  0
   -0.1870   -2.0195   -2.7512 C   0  0  0  0  0  0  0  0  0  0  0  0
   -0.1630   -2.5913   -1.3748 C   0  0  0  0  0  0  0  0  0  0  0  0
    0.7382   -2.4070   -0.5971 O   0  0  0  0  0  0  0  0  0  0  0  0
   -1.2355   -3.3204   -1.0130 O   0  0  0  0  0  0  0  0  0  0  0  0
    2.2923   -0.1548    2.5544 H   0  0  0  0  0  0  0  0  0  0  0  0
    1.5463    1.1818    1.6444 H   0  0  0  0  0  0  0  0  0  0  0  0
    3.1615    1.3941    2.3927 H   0  0  0  0  0  0  0  0  0  0  0  0
    4.0661   -1.4571    1.5857 H   0  0  0  0  0  0  0  0  0  0  0  0
    5.0999   -0.0181    1.3222 H   0  0  0  0  0  0  0  0  0  0  0  0
    4.6622   -1.0801   -0.0481 H   0  0  0  0  0  0  0  0  0  0  0  0
    3.0897    2.8929    0.5527 H   0  0  0  0  0  0  0  0  0  0  0  0
    3.1026    4.2358   -1.5395 H   0  0  0  0  0  0  0  0  0  0  0  0
    3.1591    0.8377   -3.9041 H   0  0  0  0  0  0  0  0  0  0  0  0
    2.5480   -1.4092   -1.0084 H   0  0  0  0  0  0  0  0  0  0  0  0
    1.2145   -0.8126   -5.5707 H   0  0  0  0  0  0  0  0  0  0  0  0
   -1.4386   -0.6678   -5.7955 H   0  0  0  0  0  0  0  0  0  0  0  0
   -1.7977   -3.5273   -1.7746 H   0  0  0  0  0  0  0  0  0  0  0  0
  1  2  1  0
  1 22  1  0
  1 23  1  0
  1 24  1  0
  2  3  1  0
  2  4  1  0
  3 25  1  0
  3 26  1  0
  3 27  1  0
  4  5  2  0
  4  9  1  0
  5  6  1  0
  5 28  1  0
  6  7  2  0
  6 29  1  0
  7  8  1  0
  8  9  2  0
  8 30  1  0
  9 10  1  0
 11 10  1  1
 10 31  1  0
 11 12  2  0
 11 13  2  0
 11 14  1  0
 14 15  2  0
 14 18  1  0
 15 16  1  0
 15 32  1  0
 16 17  2  0
 16 33  1  0
 17 18  1  0
 18 19  2  0
 19 20  1  0
 19 21  1  0
 21 34  1  0
M  CHG  2  17   1  20  -1
M  END

