
     RDKit          3D

 48 51  0  0  0  0  0  0  0  0999 V2000
    1.4445   -2.5766   -0.5203 O   0  0  0  0  0  0  0  0  0  0  0  0
    2.4390   -2.0264   -0.1330 C   0  0  0  0  0  0  0  0  0  0  0  0
    3.1420   -2.4991    0.9131 O   0  0  0  0  0  0  0  0  0  0  0  0
    3.0023   -0.7288   -0.7477 C   0  0  2  0  0  0  0  0  0  0  0  0
    2.6827    0.0876   -0.0756 H   0  0  0  0  0  0  0  0  0  0  0  0
    2.4532   -0.4588   -2.1613 C   0  0  0  0  0  0  0  0  0  0  0  0
    1.0330    0.1513   -2.1739 C   0  0  1  0  0  0  0  0  0  0  0  0
    1.0076    1.6313   -1.7268 C   0  0  0  0  0  0  0  0  0  0  0  0
    1.5733    2.5964   -2.7803 C   0  0  0  0  0  0  0  0  0  0  0  0
    0.8896    2.4203   -4.1425 C   0  0  0  0  0  0  0  0  0  0  0  0
    0.9453    0.9611   -4.6137 C   0  0  0  0  0  0  0  0  0  0  0  0
    0.3611    0.0133   -3.5567 C   0  0  0  0  0  0  0  0  0  0  0  0
    4.4564   -0.7108   -0.6476 N   0  0  0  0  0  0  0  0  0  0  0  0
    5.3365   -1.5824   -1.4232 C   0  0  0  0  0  0  0  0  0  0  0  0
    6.6914   -0.9592   -1.2352 C   0  0  0  0  0  0  0  0  0  0  0  0
    6.5578    0.1605   -0.5078 C   0  0  0  0  0  0  0  0  0  0  0  0
    7.5381    1.0036   -0.1295 O   0  0  0  0  0  0  0  0  0  0  0  0
    8.8095    0.6760   -0.5346 C   0  0  0  0  0  0  0  0  0  0  0  0
    9.8399    1.5537   -0.1483 C   0  0  0  0  0  0  0  0  0  0  0  0
    9.4557    2.9650    0.7933 Cl  0  0  0  0  0  0  0  0  0  0  0  0
   11.1604    1.2972   -0.5159 C   0  0  0  0  0  0  0  0  0  0  0  0
   11.4595    0.1615   -1.2720 C   0  0  0  0  0  0  0  0  0  0  0  0
   10.4389   -0.7081   -1.6546 C   0  0  0  0  0  0  0  0  0  0  0  0
    9.1045   -0.4714   -1.2969 C   0  0  0  0  0  0  0  0  0  0  0  0
    8.0134   -1.4429   -1.7311 C   0  0  0  0  0  0  0  0  0  0  0  0
    5.1330    0.4062   -0.1488 C   0  0  0  0  0  0  0  0  0  0  0  0
    4.6319    1.3388    0.4390 O   0  0  0  0  0  0  0  0  0  0  0  0
    3.9191   -1.9281    1.0400 H   0  0  0  0  0  0  0  0  0  0  0  0
    2.4421   -1.4031   -2.7293 H   0  0  0  0  0  0  0  0  0  0  0  0
    3.1614    0.2157   -2.6683 H   0  0  0  0  0  0  0  0  0  0  0  0
    0.4344   -0.4391   -1.4626 H   0  0  0  0  0  0  0  0  0  0  0  0
    1.5473    1.7654   -0.7738 H   0  0  0  0  0  0  0  0  0  0  0  0
   -0.0419    1.9072   -1.5198 H   0  0  0  0  0  0  0  0  0  0  0  0
    2.6607    2.4345   -2.8935 H   0  0  0  0  0  0  0  0  0  0  0  0
    1.4634    3.6354   -2.4270 H   0  0  0  0  0  0  0  0  0  0  0  0
    1.3482    3.0871   -4.8923 H   0  0  0  0  0  0  0  0  0  0  0  0
   -0.1690    2.7301   -4.0586 H   0  0  0  0  0  0  0  0  0  0  0  0
    1.9939    0.6856   -4.8310 H   0  0  0  0  0  0  0  0  0  0  0  0
    0.3990    0.8442   -5.5650 H   0  0  0  0  0  0  0  0  0  0  0  0
    0.4197   -1.0343   -3.8977 H   0  0  0  0  0  0  0  0  0  0  0  0
   -0.7147    0.2376   -3.4409 H   0  0  0  0  0  0  0  0  0  0  0  0
    5.0438   -1.6055   -2.4899 H   0  0  0  0  0  0  0  0  0  0  0  0
    5.2996   -2.6259   -1.0565 H   0  0  0  0  0  0  0  0  0  0  0  0
   11.9405    1.9932   -0.2039 H   0  0  0  0  0  0  0  0  0  0  0  0
   12.4929   -0.0415   -1.5612 H   0  0  0  0  0  0  0  0  0  0  0  0
   10.6741   -1.5969   -2.2465 H   0  0  0  0  0  0  0  0  0  0  0  0
    8.2324   -2.4580   -1.3466 H   0  0  0  0  0  0  0  0  0  0  0  0
    8.0103   -1.5428   -2.8337 H   0  0  0  0  0  0  0  0  0  0  0  0
  1  2  2  0
  2  3  1  0
  2  4  1  0
  3 28  1  0
  4  5  1  1
  4  6  1  0
  4 13  1  0
  6  7  1  0
  6 29  1  0
  6 30  1  0
  7  8  1  0
  7 12  1  0
  7 31  1  1
  8  9  1  0
  8 32  1  0
  8 33  1  0
  9 10  1  0
  9 34  1  0
  9 35  1  0
 10 11  1  0
 10 36  1  0
 10 37  1  0
 11 12  1  0
 11 38  1  0
 11 39  1  0
 12 40  1  0
 12 41  1  0
 13 14  1  0
 13 26  1  0
 14 15  1  0
 14 42  1  0
 14 43  1  0
 15 16  2  0
 15 25  1  0
 16 17  1  0
 16 26  1  0
 17 18  1  0
 18 19  2  0
 18 24  1  0
 19 20  1  0
 19 21  1  0
 21 22  2  0
 21 44  1  0
 22 23  1  0
 22 45  1  0
 23 24  2  0
 23 46  1  0
 24 25  1  0
 25 47  1  0
 25 48  1  0
 26 27  2  0
M  END

