
     RDKit          3D

 34 35  0  0  0  0  0  0  0  0999 V2000
    6.5112    4.8685   -3.5173 C   0  0  0  0  0  0  0  0  0  0  0  0
    6.5228    3.4872   -2.9189 C   0  0  0  0  0  0  0  0  0  0  0  0
    5.3452    2.7334   -2.7635 C   0  0  0  0  0  0  0  0  0  0  0  0
    5.4215    1.4645   -2.2022 C   0  0  0  0  0  0  0  0  0  0  0  0
    6.6687    0.9580   -1.8012 C   0  0  0  0  0  0  0  0  0  0  0  0
    6.7202   -0.4224   -1.2005 C   0  0  0  0  0  0  0  0  0  0  0  0
    5.6966   -1.0819   -1.1429 O   0  0  0  0  0  0  0  0  0  0  0  0
    8.0499   -0.9523   -0.6701 C   0  0  1  0  0  0  0  0  0  0  0  0
    8.3539   -0.3696    0.7366 C   0  0  0  0  0  0  0  0  0  0  0  0
    7.4931   -1.0031    1.8357 C   0  0  0  0  0  0  0  0  0  0  0  0
    7.6547   -2.5279    1.8515 C   0  0  0  0  0  0  0  0  0  0  0  0
    7.3260   -3.1366    0.4815 C   0  0  0  0  0  0  0  0  0  0  0  0
    8.1354   -2.5124   -0.6698 C   0  0  2  0  0  0  0  0  0  0  0  0
    9.5109   -3.0110   -0.6409 N   0  0  0  0  0  0  0  0  0  0  0  0
    7.7835    1.7913   -2.0025 C   0  0  0  0  0  0  0  0  0  0  0  0
    7.7170    3.0078   -2.5395 N   0  0  0  0  0  0  0  0  0  0  0  0
    5.4988    5.1915   -3.7977 H   0  0  0  0  0  0  0  0  0  0  0  0
    7.1555    4.8982   -4.4108 H   0  0  0  0  0  0  0  0  0  0  0  0
    6.9320    5.5933   -2.8019 H   0  0  0  0  0  0  0  0  0  0  0  0
    4.3847    3.1454   -3.0816 H   0  0  0  0  0  0  0  0  0  0  0  0
    4.5361    0.8406   -2.0624 H   0  0  0  0  0  0  0  0  0  0  0  0
    8.8367   -0.5918   -1.3539 H   0  0  0  0  0  0  0  0  0  0  0  0
    8.2383    0.7265    0.7316 H   0  0  0  0  0  0  0  0  0  0  0  0
    9.4197   -0.5610    0.9565 H   0  0  0  0  0  0  0  0  0  0  0  0
    6.4311   -0.7493    1.6701 H   0  0  0  0  0  0  0  0  0  0  0  0
    7.7680   -0.5724    2.8133 H   0  0  0  0  0  0  0  0  0  0  0  0
    7.0050   -2.9738    2.6228 H   0  0  0  0  0  0  0  0  0  0  0  0
    8.6897   -2.7824    2.1481 H   0  0  0  0  0  0  0  0  0  0  0  0
    6.2583   -2.9825    0.2681 H   0  0  0  0  0  0  0  0  0  0  0  0
    7.5181   -4.2212    0.4837 H   0  0  0  0  0  0  0  0  0  0  0  0
    7.6922   -2.8657   -1.6157 H   0  0  0  0  0  0  0  0  0  0  0  0
    9.9962   -2.7200    0.2074 H   0  0  0  0  0  0  0  0  0  0  0  0
   10.0506   -2.6432   -1.4245 H   0  0  0  0  0  0  0  0  0  0  0  0
    8.7872    1.4574   -1.7179 H   0  0  0  0  0  0  0  0  0  0  0  0
  1  2  1  0
  1 17  1  0
  1 18  1  0
  1 19  1  0
  2  3  2  0
  2 16  1  0
  3  4  1  0
  3 20  1  0
  4  5  2  0
  4 21  1  0
  5  6  1  0
  5 15  1  0
  6  7  2  0
  6  8  1  0
  8  9  1  0
  8 13  1  0
  8 22  1  6
  9 10  1  0
  9 23  1  0
  9 24  1  0
 10 11  1  0
 10 25  1  0
 10 26  1  0
 11 12  1  0
 11 27  1  0
 11 28  1  0
 12 13  1  0
 12 29  1  0
 12 30  1  0
 13 14  1  0
 13 31  1  6
 14 32  1  0
 14 33  1  0
 15 16  2  0
 15 34  1  0
M  END

