
     RDKit          3D

 40 39  0  0  0  0  0  0  0  0999 V2000
    2.5443    0.6203    1.9627 C   0  0  0  0  0  0  0  0  0  0  0  0
    2.4316    0.2655    0.4669 C   0  0  1  0  0  0  0  0  0  0  0  0
    0.9991   -0.1560    0.0771 C   0  0  0  0  0  0  0  0  0  0  0  0
    0.4191   -1.3133    0.8958 C   0  0  0  0  0  0  0  0  0  0  0  0
   -0.9464   -1.7678    0.3749 C   0  0  0  0  0  0  0  0  0  0  0  0
   -1.5451   -2.9045    1.1723 C   0  0  1  0  0  0  0  0  0  0  0  0
   -1.7279   -2.5674    2.4641 F   0  0  0  0  0  0  0  0  0  0  0  0
   -2.7414   -3.2703    0.6813 F   0  0  0  0  0  0  0  0  0  0  0  0
   -0.7549   -3.9963    1.1570 F   0  0  0  0  0  0  0  0  0  0  0  0
    2.9172    1.3114   -0.4724 N   0  0  0  0  0  0  0  0  0  0  0  0
    2.4657    2.6680   -0.1669 C   0  0  0  0  0  0  0  0  0  0  0  0
    1.6890    3.3228   -1.3228 C   0  0  0  0  0  0  0  0  0  0  0  0
    1.3967    4.4883   -1.3451 O   0  0  0  0  0  0  0  0  0  0  0  0
    1.3326    2.4461   -2.2690 O   0  0  0  0  0  0  0  0  0  0  0  0
    4.3260    1.1775   -0.9856 C   0  0  1  0  0  0  0  0  0  0  0  0
    4.4832   -0.1760   -1.7080 C   0  0  0  0  0  0  0  0  0  0  0  0
    4.6024    2.2783   -2.0314 C   0  0  0  0  0  0  0  0  0  0  0  0
    5.3770    1.2860    0.1402 C   0  0  0  0  0  0  0  0  0  0  0  0
    2.4251   -0.2825    2.5806 H   0  0  0  0  0  0  0  0  0  0  0  0
    1.7689    1.3335    2.2854 H   0  0  0  0  0  0  0  0  0  0  0  0
    3.5236    1.0559    2.2036 H   0  0  0  0  0  0  0  0  0  0  0  0
    3.0698   -0.6130    0.3028 H   0  0  0  0  0  0  0  0  0  0  0  0
    1.0105   -0.4419   -0.9888 H   0  0  0  0  0  0  0  0  0  0  0  0
    0.3257    0.7176    0.1498 H   0  0  0  0  0  0  0  0  0  0  0  0
    0.3122   -1.0244    1.9532 H   0  0  0  0  0  0  0  0  0  0  0  0
    1.1137   -2.1709    0.8756 H   0  0  0  0  0  0  0  0  0  0  0  0
   -0.8795   -2.1084   -0.6709 H   0  0  0  0  0  0  0  0  0  0  0  0
   -1.6730   -0.9399    0.3987 H   0  0  0  0  0  0  0  0  0  0  0  0
    3.2658    3.3601    0.1414 H   0  0  0  0  0  0  0  0  0  0  0  0
    1.7593    2.6548    0.6758 H   0  0  0  0  0  0  0  0  0  0  0  0
    1.7645    1.6045   -1.9802 H   0  0  0  0  0  0  0  0  0  0  0  0
    3.7183   -0.2925   -2.4917 H   0  0  0  0  0  0  0  0  0  0  0  0
    4.4151   -1.0389   -1.0297 H   0  0  0  0  0  0  0  0  0  0  0  0
    5.4718   -0.2273   -2.1888 H   0  0  0  0  0  0  0  0  0  0  0  0
    3.8896    2.2326   -2.8673 H   0  0  0  0  0  0  0  0  0  0  0  0
    5.6129    2.1388   -2.4430 H   0  0  0  0  0  0  0  0  0  0  0  0
    4.5660    3.2915   -1.6066 H   0  0  0  0  0  0  0  0  0  0  0  0
    5.2897    0.4603    0.8624 H   0  0  0  0  0  0  0  0  0  0  0  0
    5.2831    2.2362    0.6898 H   0  0  0  0  0  0  0  0  0  0  0  0
    6.3945    1.2478   -0.2795 H   0  0  0  0  0  0  0  0  0  0  0  0
  1  2  1  0
  1 19  1  0
  1 20  1  0
  1 21  1  0
  2  3  1  0
  2 10  1  0
  2 22  1  1
  3  4  1  0
  3 23  1  0
  3 24  1  0
  4  5  1  0
  4 25  1  0
  4 26  1  0
  5  6  1  0
  5 27  1  0
  5 28  1  0
  6  7  1  1
  6  8  1  0
  6  9  1  0
 10 11  1  0
 15 10  1  1
 11 12  1  0
 11 29  1  0
 11 30  1  0
 12 13  2  0
 12 14  1  0
 14 31  1  0
 15 16  1  0
 15 17  1  0
 15 18  1  0
 16 32  1  0
 16 33  1  0
 16 34  1  0
 17 35  1  0
 17 36  1  0
 17 37  1  0
 18 38  1  0
 18 39  1  0
 18 40  1  0
M  END

