
     RDKit          3D

 69 73  0  0  0  0  0  0  0  0999 V2000
    1.1794   -0.1005    0.7492 F   0  0  0  0  0  0  0  0  0  0  0  0
    2.4388   -0.0895    0.2839 C   0  0  0  0  0  0  0  0  0  0  0  0
    3.3988    0.6873    0.9252 C   0  0  0  0  0  0  0  0  0  0  0  0
    4.7101    0.6904    0.4429 C   0  0  0  0  0  0  0  0  0  0  0  0
    5.0647   -0.0636   -0.6914 C   0  0  0  0  0  0  0  0  0  0  0  0
    6.3753   -0.0520   -1.2098 N   0  0  0  0  0  0  0  0  0  0  0  0
    7.1831   -1.2057   -1.3306 C   0  0  0  0  0  0  0  0  0  0  0  0
    6.8506   -2.5495   -1.1413 C   0  0  0  0  0  0  0  0  0  0  0  0
    7.8541   -3.5201   -1.2877 C   0  0  0  0  0  0  0  0  0  0  0  0
    9.1519   -3.1397   -1.6119 C   0  0  0  0  0  0  0  0  0  0  0  0
   10.1026   -4.0840   -1.7427 F   0  0  0  0  0  0  0  0  0  0  0  0
    9.5017   -1.7983   -1.8055 C   0  0  0  0  0  0  0  0  0  0  0  0
    8.5108   -0.8378   -1.6558 C   0  0  0  0  0  0  0  0  0  0  0  0
    8.5085    0.6536   -1.8737 C   0  0  2  0  0  0  0  0  0  0  0  0
    8.2407    0.8237   -2.9354 H   0  0  0  0  0  0  0  0  0  0  0  0
    9.6935    1.5630   -1.5836 C   0  0  0  0  0  0  0  0  0  0  0  0
    9.3101    2.9349   -1.9208 N   0  0  0  0  0  0  0  0  0  0  0  0
   10.4077    3.8921   -1.8404 C   0  0  0  0  0  0  0  0  0  0  0  0
   11.4798    3.7165   -2.9198 C   0  0  0  0  0  0  0  0  0  0  0  0
   12.5327    4.8291   -2.8998 C   0  0  0  0  0  0  0  0  0  0  0  0
   13.6158    4.6672   -3.9697 C   0  0  0  0  0  0  0  0  0  0  0  0
   14.6687    5.7776   -3.9575 C   0  0  0  0  0  0  0  0  0  0  0  0
   15.7126    5.6570   -5.0773 C   0  0  0  0  0  0  0  0  0  0  0  0
   15.1320    5.7507   -6.4143 N   0  0  0  0  0  0  0  0  0  0  0  0
   14.8237    7.1041   -6.8739 C   0  0  0  0  0  0  0  0  0  0  0  0
   16.0415    7.8322   -7.4621 C   0  0  0  0  0  0  0  0  0  0  0  0
   16.6131    7.0195   -8.5300 N   0  0  0  0  0  0  0  0  0  0  0  0
   17.0194    5.7003   -8.0587 C   0  0  0  0  0  0  0  0  0  0  0  0
   15.7942    4.9884   -7.4691 C   0  0  0  0  0  0  0  0  0  0  0  0
    8.1110    3.3975   -1.2231 C   0  0  0  0  0  0  0  0  0  0  0  0
    6.8874    2.4875   -1.4385 C   0  0  0  0  0  0  0  0  0  0  0  0
    7.2976    1.0805   -1.0335 C   0  0  1  0  0  0  0  0  0  0  0  0
    7.6263    1.1118    0.0304 H   0  0  0  0  0  0  0  0  0  0  0  0
    4.0654   -0.8267   -1.3275 C   0  0  0  0  0  0  0  0  0  0  0  0
    2.7601   -0.8523   -0.8376 C   0  0  0  0  0  0  0  0  0  0  0  0
    3.1161    1.2722    1.8028 H   0  0  0  0  0  0  0  0  0  0  0  0
    5.4648    1.2795    0.9656 H   0  0  0  0  0  0  0  0  0  0  0  0
    5.8394   -2.8526   -0.8684 H   0  0  0  0  0  0  0  0  0  0  0  0
    7.6347   -4.5794   -1.1394 H   0  0  0  0  0  0  0  0  0  0  0  0
   10.5313   -1.5415   -2.0634 H   0  0  0  0  0  0  0  0  0  0  0  0
   10.5582    1.2725   -2.1985 H   0  0  0  0  0  0  0  0  0  0  0  0
   10.0052    1.4624   -0.5168 H   0  0  0  0  0  0  0  0  0  0  0  0
   10.8888    3.8788   -0.8331 H   0  0  0  0  0  0  0  0  0  0  0  0
    9.9729    4.8999   -1.9509 H   0  0  0  0  0  0  0  0  0  0  0  0
   10.9802    3.6863   -3.9037 H   0  0  0  0  0  0  0  0  0  0  0  0
   11.9896    2.7444   -2.8025 H   0  0  0  0  0  0  0  0  0  0  0  0
   13.0050    4.8701   -1.9001 H   0  0  0  0  0  0  0  0  0  0  0  0
   12.0332    5.8070   -3.0336 H   0  0  0  0  0  0  0  0  0  0  0  0
   13.1531    4.6340   -4.9704 H   0  0  0  0  0  0  0  0  0  0  0  0
   14.1180    3.6903   -3.8362 H   0  0  0  0  0  0  0  0  0  0  0  0
   15.2025    5.7819   -2.9896 H   0  0  0  0  0  0  0  0  0  0  0  0
   14.1675    6.7606   -4.0225 H   0  0  0  0  0  0  0  0  0  0  0  0
   16.1994    4.6705   -4.9946 H   0  0  0  0  0  0  0  0  0  0  0  0
   16.5156    6.4046   -4.8981 H   0  0  0  0  0  0  0  0  0  0  0  0
   14.3941    7.6874   -6.0448 H   0  0  0  0  0  0  0  0  0  0  0  0
   14.0515    7.0376   -7.6613 H   0  0  0  0  0  0  0  0  0  0  0  0
   16.7710    8.0478   -6.6467 H   0  0  0  0  0  0  0  0  0  0  0  0
   15.7253    8.8053   -7.8742 H   0  0  0  0  0  0  0  0  0  0  0  0
   17.3917    7.5017   -8.9737 H   0  0  0  0  0  0  0  0  0  0  0  0
   17.8247    5.7437   -7.2879 H   0  0  0  0  0  0  0  0  0  0  0  0
   17.4155    5.1170   -8.9071 H   0  0  0  0  0  0  0  0  0  0  0  0
   16.0737    3.9964   -7.0802 H   0  0  0  0  0  0  0  0  0  0  0  0
   15.0688    4.8314   -8.2883 H   0  0  0  0  0  0  0  0  0  0  0  0
    7.8767    4.4110   -1.5853 H   0  0  0  0  0  0  0  0  0  0  0  0
    8.2901    3.4927   -0.1245 H   0  0  0  0  0  0  0  0  0  0  0  0
    6.5816    2.5006   -2.4971 H   0  0  0  0  0  0  0  0  0  0  0  0
    6.0451    2.8705   -0.8417 H   0  0  0  0  0  0  0  0  0  0  0  0
    4.3173   -1.3905   -2.2275 H   0  0  0  0  0  0  0  0  0  0  0  0
    1.9814   -1.4409   -1.3267 H   0  0  0  0  0  0  0  0  0  0  0  0
  1  2  1  0
  2  3  2  0
  2 35  1  0
  3  4  1  0
  3 36  1  0
  4  5  2  0
  4 37  1  0
  5  6  1  0
  5 34  1  0
  6  7  1  0
  6 32  1  0
  7  8  2  0
  7 13  1  0
  8  9  1  0
  8 38  1  0
  9 10  2  0
  9 39  1  0
 10 11  1  0
 10 12  1  0
 12 13  2  0
 12 40  1  0
 13 14  1  0
 14 15  1  6
 14 16  1  0
 14 32  1  0
 16 17  1  0
 16 41  1  0
 16 42  1  0
 17 18  1  0
 17 30  1  0
 18 19  1  0
 18 43  1  0
 18 44  1  0
 19 20  1  0
 19 45  1  0
 19 46  1  0
 20 21  1  0
 20 47  1  0
 20 48  1  0
 21 22  1  0
 21 49  1  0
 21 50  1  0
 22 23  1  0
 22 51  1  0
 22 52  1  0
 23 24  1  0
 23 53  1  0
 23 54  1  0
 24 25  1  0
 24 29  1  0
 25 26  1  0
 25 55  1  0
 25 56  1  0
 26 27  1  0
 26 57  1  0
 26 58  1  0
 27 28  1  0
 27 59  1  0
 28 29  1  0
 28 60  1  0
 28 61  1  0
 29 62  1  0
 29 63  1  0
 30 31  1  0
 30 64  1  0
 30 65  1  0
 31 32  1  0
 31 66  1  0
 31 67  1  0
 32 33  1  1
 34 35  2  0
 34 68  1  0
 35 69  1  0
M  END

