
     RDKit          3D

 35 39  0  0  0  0  0  0  0  0999 V2000
    0.7195   -0.0420   -1.0407 O   0  0  0  0  0  0  0  0  0  0  0  0
    1.8895   -0.0110   -0.7937 C   0  0  0  0  0  0  0  0  0  0  0  0
    2.5087    1.2392   -0.7900 O   0  0  0  0  0  0  0  0  0  0  0  0
    3.7615    1.4378   -0.3250 C   0  0  0  0  0  0  0  0  0  0  0  0
    4.1356    2.7641   -0.0664 C   0  0  0  0  0  0  0  0  0  0  0  0
    5.3729    3.0262    0.5087 C   0  0  0  0  0  0  0  0  0  0  0  0
    6.2325    1.9672    0.8452 C   0  0  0  0  0  0  0  0  0  0  0  0
    5.8708    0.6592    0.5515 C   0  0  0  0  0  0  0  0  0  0  0  0
    4.6431    0.3616   -0.0852 C   0  0  0  0  0  0  0  0  0  0  0  0
    4.1640   -0.9923   -0.3840 C   0  0  0  0  0  0  0  0  0  0  0  0
    2.7883   -1.1542   -0.5506 C   0  0  0  0  0  0  0  0  0  0  0  0
    2.1677   -2.4840   -0.4800 C   0  0  0  0  0  0  0  0  0  0  0  0
    1.0341   -2.8026   -0.6793 O   0  0  0  0  0  0  0  0  0  0  0  0
    3.0374   -3.4842   -0.0067 O   0  0  0  0  0  0  0  0  0  0  0  0
    4.3757   -3.3832   -0.0901 C   0  0  0  0  0  0  0  0  0  0  0  0
    5.0865   -4.5743    0.1764 C   0  0  0  0  0  0  0  0  0  0  0  0
    6.4562   -4.5985    0.0301 C   0  0  0  0  0  0  0  0  0  0  0  0
    7.2000   -5.6902    0.2963 O   0  0  0  0  0  0  0  0  0  0  0  0
    7.1531   -3.4553   -0.4961 C   0  0  0  0  0  0  0  0  0  0  0  0
    8.5289   -3.5478   -0.8256 C   0  0  0  0  0  0  0  0  0  0  0  0
    9.1743   -2.5025   -1.4563 C   0  0  0  0  0  0  0  0  0  0  0  0
    8.4456   -1.3438   -1.7967 C   0  0  0  0  0  0  0  0  0  0  0  0
    7.1098   -1.2225   -1.4579 C   0  0  0  0  0  0  0  0  0  0  0  0
    6.4222   -2.2505   -0.7575 C   0  0  0  0  0  0  0  0  0  0  0  0
    5.0135   -2.1747   -0.4059 C   0  0  0  0  0  0  0  0  0  0  0  0
    3.4222    3.5570   -0.2967 H   0  0  0  0  0  0  0  0  0  0  0  0
    5.6616    4.0576    0.7254 H   0  0  0  0  0  0  0  0  0  0  0  0
    7.1837    2.1681    1.3424 H   0  0  0  0  0  0  0  0  0  0  0  0
    6.5362   -0.1548    0.8336 H   0  0  0  0  0  0  0  0  0  0  0  0
    4.5185   -5.4561    0.4803 H   0  0  0  0  0  0  0  0  0  0  0  0
    6.6346   -6.4069    0.6160 H   0  0  0  0  0  0  0  0  0  0  0  0
    9.0567   -4.4736   -0.5947 H   0  0  0  0  0  0  0  0  0  0  0  0
   10.2319   -2.5840   -1.7174 H   0  0  0  0  0  0  0  0  0  0  0  0
    8.9345   -0.5347   -2.3452 H   0  0  0  0  0  0  0  0  0  0  0  0
    6.5696   -0.3267   -1.7595 H   0  0  0  0  0  0  0  0  0  0  0  0
  1  2  2  0
  2  3  1  0
  2 11  1  0
  3  4  1  0
  4  5  2  0
  4  9  1  0
  5  6  1  0
  5 26  1  0
  6  7  2  0
  6 27  1  0
  7  8  1  0
  7 28  1  0
  8  9  2  0
  8 29  1  0
  9 10  1  0
 10 11  2  0
 10 25  1  0
 11 12  1  0
 12 13  2  0
 12 14  1  0
 14 15  1  0
 15 16  1  0
 15 25  2  0
 16 17  2  0
 16 30  1  0
 17 18  1  0
 17 19  1  0
 18 31  1  0
 19 20  1  0
 19 24  2  0
 20 21  2  0
 20 32  1  0
 21 22  1  0
 21 33  1  0
 22 23  2  0
 22 34  1  0
 23 24  1  0
 23 35  1  0
 24 25  1  0
M  END

