
     RDKit          3D

 58 62  0  0  0  0  0  0  0  0999 V2000
    2.8149   -2.1819   -0.7269 C   0  0  0  0  0  0  0  0  0  0  0  0
    2.5220   -0.9871    0.1841 C   0  0  0  0  0  0  0  0  0  0  0  0
    3.1019   -0.9775    1.6383 C   0  0  1  0  0  0  0  0  0  0  0  0
    2.8665    0.4794    2.2223 C   0  0  0  0  0  0  0  0  0  0  0  0
    1.5653    0.6725    2.9990 C   0  0  0  0  0  0  0  0  0  0  0  0
    1.5976   -0.1643    4.2877 C   0  0  1  0  0  0  0  0  0  0  0  0
    2.2589    0.6133    5.2708 O   0  0  0  0  0  0  0  0  0  0  0  0
    0.1700   -0.4214    4.8023 C   0  0  1  0  0  0  0  0  0  0  0  0
   -0.5360    0.7084    4.9224 F   0  0  0  0  0  0  0  0  0  0  0  0
   -0.5227   -1.2465    3.9917 F   0  0  0  0  0  0  0  0  0  0  0  0
    0.2069   -1.0040    6.0220 F   0  0  0  0  0  0  0  0  0  0  0  0
    2.3401   -1.5001    4.0292 C   0  0  0  0  0  0  0  0  0  0  0  0
    2.2551   -1.9378    2.5470 C   0  0  2  0  0  0  0  0  0  0  0  0
    1.2153   -1.7251    2.2613 H   0  0  0  0  0  0  0  0  0  0  0  0
    2.3697   -3.4649    2.3448 C   0  0  0  0  0  0  0  0  0  0  0  0
    3.7703   -4.0476    2.1606 C   0  0  0  0  0  0  0  0  0  0  0  0
    4.8568   -3.3447    2.9801 C   0  0  0  0  0  0  0  0  0  0  0  0
    5.4619   -2.1252    2.3021 C   0  0  0  0  0  0  0  0  0  0  0  0
    4.6586   -1.1515    1.5994 C   0  0  0  0  0  0  0  0  0  0  0  0
    5.3138   -0.1779    0.8428 C   0  0  0  0  0  0  0  0  0  0  0  0
    6.7076   -0.0802    0.8153 C   0  0  0  0  0  0  0  0  0  0  0  0
    7.6453    0.7752    0.1571 C   0  0  0  0  0  0  0  0  0  0  0  0
    8.8770    0.4751    0.4964 N   0  0  0  0  0  0  0  0  0  0  0  0
    8.8155   -0.5672    1.3713 N   0  0  0  0  0  0  0  0  0  0  0  0
   10.0465   -0.9945    1.9571 C   0  0  0  0  0  0  0  0  0  0  0  0
   10.3031   -0.7693    3.3147 C   0  0  0  0  0  0  0  0  0  0  0  0
   11.5262   -1.1481    3.8682 C   0  0  0  0  0  0  0  0  0  0  0  0
   12.4872   -1.7322    3.0448 C   0  0  0  0  0  0  0  0  0  0  0  0
   13.6646   -2.0937    3.5719 F   0  0  0  0  0  0  0  0  0  0  0  0
   12.2580   -1.9443    1.6864 C   0  0  0  0  0  0  0  0  0  0  0  0
   11.0278   -1.5722    1.1438 C   0  0  0  0  0  0  0  0  0  0  0  0
    7.5041   -0.9567    1.5907 C   0  0  0  0  0  0  0  0  0  0  0  0
    6.8679   -1.9948    2.3011 C   0  0  0  0  0  0  0  0  0  0  0  0
    7.9867   -3.2595    3.2222 Br  0  0  0  0  0  0  0  0  0  0  0  0
    2.4183   -1.9859   -1.7362 H   0  0  0  0  0  0  0  0  0  0  0  0
    2.3531   -3.1156   -0.3774 H   0  0  0  0  0  0  0  0  0  0  0  0
    3.8975   -2.3553   -0.8288 H   0  0  0  0  0  0  0  0  0  0  0  0
    1.4292   -0.8485    0.2636 H   0  0  0  0  0  0  0  0  0  0  0  0
    2.8843   -0.0843   -0.3326 H   0  0  0  0  0  0  0  0  0  0  0  0
    2.9136    1.2127    1.4038 H   0  0  0  0  0  0  0  0  0  0  0  0
    3.6911    0.7336    2.9035 H   0  0  0  0  0  0  0  0  0  0  0  0
    1.4459    1.7262    3.2905 H   0  0  0  0  0  0  0  0  0  0  0  0
    0.6895    0.4070    2.3881 H   0  0  0  0  0  0  0  0  0  0  0  0
    2.3472    0.0788    6.0728 H   0  0  0  0  0  0  0  0  0  0  0  0
    1.9467   -2.2888    4.6890 H   0  0  0  0  0  0  0  0  0  0  0  0
    3.3823   -1.3239    4.3320 H   0  0  0  0  0  0  0  0  0  0  0  0
    1.7408   -3.7671    1.4931 H   0  0  0  0  0  0  0  0  0  0  0  0
    1.8970   -3.9354    3.2241 H   0  0  0  0  0  0  0  0  0  0  0  0
    4.0639   -4.0222    1.0990 H   0  0  0  0  0  0  0  0  0  0  0  0
    3.7472   -5.1149    2.4369 H   0  0  0  0  0  0  0  0  0  0  0  0
    5.6634   -4.0610    3.1644 H   0  0  0  0  0  0  0  0  0  0  0  0
    4.4764   -3.0877    3.9832 H   0  0  0  0  0  0  0  0  0  0  0  0
    4.7411    0.5521    0.2714 H   0  0  0  0  0  0  0  0  0  0  0  0
    7.4489    1.5915   -0.5384 H   0  0  0  0  0  0  0  0  0  0  0  0
    9.5414   -0.2973    3.9376 H   0  0  0  0  0  0  0  0  0  0  0  0
   11.7495   -0.9885    4.9246 H   0  0  0  0  0  0  0  0  0  0  0  0
   13.0397   -2.3979    1.0743 H   0  0  0  0  0  0  0  0  0  0  0  0
   10.8213   -1.7231    0.0830 H   0  0  0  0  0  0  0  0  0  0  0  0
  1  2  1  0
  1 35  1  0
  1 36  1  0
  1 37  1  0
  3  2  1  6
  2 38  1  0
  2 39  1  0
  3  4  1  0
  3 13  1  0
  3 19  1  0
  4  5  1  0
  4 40  1  0
  4 41  1  0
  5  6  1  0
  5 42  1  0
  5 43  1  0
  6  7  1  1
  6  8  1  0
  6 12  1  0
  7 44  1  0
  8  9  1  1
  8 10  1  0
  8 11  1  0
 12 13  1  0
 12 45  1  0
 12 46  1  0
 13 14  1  6
 13 15  1  0
 15 16  1  0
 15 47  1  0
 15 48  1  0
 16 17  1  0
 16 49  1  0
 16 50  1  0
 17 18  1  0
 17 51  1  0
 17 52  1  0
 18 19  2  0
 18 33  1  0
 19 20  1  0
 20 21  2  0
 20 53  1  0
 21 22  1  0
 21 32  1  0
 22 23  2  0
 22 54  1  0
 23 24  1  0
 24 25  1  0
 24 32  1  0
 25 26  2  0
 25 31  1  0
 26 27  1  0
 26 55  1  0
 27 28  2  0
 27 56  1  0
 28 29  1  0
 28 30  1  0
 30 31  2  0
 30 57  1  0
 31 58  1  0
 32 33  2  0
 33 34  1  0
M  END

