
     RDKit          3D

 54 55  0  0  0  0  0  0  0  0999 V2000
    7.3456   -2.6371    4.9368 C   0  0  0  0  0  0  0  0  0  0  0  0
    7.3125   -2.3461    3.4562 C   0  0  0  0  0  0  0  0  0  0  0  0
    8.4617   -1.9599    2.7536 C   0  0  0  0  0  0  0  0  0  0  0  0
    8.4112   -1.6635    1.3882 C   0  0  0  0  0  0  0  0  0  0  0  0
    7.2189   -1.7423    0.6536 C   0  0  0  0  0  0  0  0  0  0  0  0
    7.1164   -1.3812   -0.8239 C   0  0  1  0  0  0  0  0  0  0  0  0
    6.4991    0.0204   -1.0026 C   0  0  0  0  0  0  0  0  0  0  0  0
    8.4457   -1.4997   -1.5793 C   0  0  0  0  0  0  0  0  0  0  0  0
    6.0772   -2.1397    1.3736 C   0  0  0  0  0  0  0  0  0  0  0  0
    4.8538   -2.1593    0.7132 O   0  0  0  0  0  0  0  0  0  0  0  0
    4.2609   -3.3171    0.3489 C   0  0  0  0  0  0  0  0  0  0  0  0
    4.8741   -4.5752    0.4803 C   0  0  0  0  0  0  0  0  0  0  0  0
    4.2077   -5.7381    0.1027 C   0  0  0  0  0  0  0  0  0  0  0  0
    2.8982   -5.7049   -0.4043 C   0  0  0  0  0  0  0  0  0  0  0  0
    2.1993   -6.9729   -0.8612 C   0  0  0  0  0  0  0  0  0  0  0  0
    2.4587   -8.1244   -0.0074 N   0  0  0  0  0  0  0  0  0  0  0  0
    1.7972   -8.0068    1.2838 C   0  0  0  0  0  0  0  0  0  0  0  0
    2.1835   -9.4038   -0.6515 C   0  0  0  0  0  0  0  0  0  0  0  0
    3.2358   -9.8000   -1.6875 C   0  0  0  0  0  0  0  0  0  0  0  0
    3.0469  -11.2244   -2.1938 C   0  0  0  0  0  0  0  0  0  0  0  0
    2.2532  -12.0048   -1.7460 O   0  0  0  0  0  0  0  0  0  0  0  0
    3.8666  -11.5889   -3.2082 O   0  0  0  0  0  0  0  0  0  0  0  0
    2.2789   -4.4608   -0.5197 C   0  0  0  0  0  0  0  0  0  0  0  0
    2.9493   -3.2841   -0.1727 C   0  0  0  0  0  0  0  0  0  0  0  0
    2.2251   -2.0179   -0.3718 N   0  0  0  0  0  0  0  0  0  0  0  0
    2.8688   -1.0226   -0.6560 O   0  0  0  0  0  0  0  0  0  0  0  0
    1.0068   -2.0557   -0.2682 O   0  0  0  0  0  0  0  0  0  0  0  0
    6.1112   -2.4306    2.7369 C   0  0  0  0  0  0  0  0  0  0  0  0
    8.3777   -2.7183    5.3083 H   0  0  0  0  0  0  0  0  0  0  0  0
    6.8225   -3.5768    5.1765 H   0  0  0  0  0  0  0  0  0  0  0  0
    6.8479   -1.8364    5.5105 H   0  0  0  0  0  0  0  0  0  0  0  0
    9.4160   -1.8854    3.2821 H   0  0  0  0  0  0  0  0  0  0  0  0
    9.3313   -1.3634    0.8837 H   0  0  0  0  0  0  0  0  0  0  0  0
    6.4134   -2.0991   -1.2800 H   0  0  0  0  0  0  0  0  0  0  0  0
    7.1348    0.7898   -0.5339 H   0  0  0  0  0  0  0  0  0  0  0  0
    5.4963    0.0728   -0.5559 H   0  0  0  0  0  0  0  0  0  0  0  0
    6.4036    0.2647   -2.0733 H   0  0  0  0  0  0  0  0  0  0  0  0
    9.1731   -0.7376   -1.2546 H   0  0  0  0  0  0  0  0  0  0  0  0
    8.2806   -1.3469   -2.6574 H   0  0  0  0  0  0  0  0  0  0  0  0
    8.9098   -2.4899   -1.4452 H   0  0  0  0  0  0  0  0  0  0  0  0
    5.8839   -4.6289    0.8883 H   0  0  0  0  0  0  0  0  0  0  0  0
    4.7001   -6.7062    0.2179 H   0  0  0  0  0  0  0  0  0  0  0  0
    2.5556   -7.2107   -1.8779 H   0  0  0  0  0  0  0  0  0  0  0  0
    1.1091   -6.7695   -0.9654 H   0  0  0  0  0  0  0  0  0  0  0  0
    2.0772   -7.0595    1.7679 H   0  0  0  0  0  0  0  0  0  0  0  0
    2.1092   -8.8299    1.9447 H   0  0  0  0  0  0  0  0  0  0  0  0
    0.6870   -8.0308    1.2061 H   0  0  0  0  0  0  0  0  0  0  0  0
    1.1750   -9.4334   -1.1198 H   0  0  0  0  0  0  0  0  0  0  0  0
    2.1708  -10.1848    0.1222 H   0  0  0  0  0  0  0  0  0  0  0  0
    4.2412   -9.7217   -1.2354 H   0  0  0  0  0  0  0  0  0  0  0  0
    3.2360   -9.1184   -2.5564 H   0  0  0  0  0  0  0  0  0  0  0  0
    4.4477  -10.8564   -3.4577 H   0  0  0  0  0  0  0  0  0  0  0  0
    1.2543   -4.3697   -0.8833 H   0  0  0  0  0  0  0  0  0  0  0  0
    5.1821   -2.7184    3.2355 H   0  0  0  0  0  0  0  0  0  0  0  0
  1  2  1  0
  1 29  1  0
  1 30  1  0
  1 31  1  0
  2  3  2  0
  2 28  1  0
  3  4  1  0
  3 32  1  0
  4  5  2  0
  4 33  1  0
  5  6  1  0
  5  9  1  0
  6  7  1  0
  6  8  1  0
  6 34  1  6
  7 35  1  0
  7 36  1  0
  7 37  1  0
  8 38  1  0
  8 39  1  0
  8 40  1  0
  9 10  1  0
  9 28  2  0
 10 11  1  0
 11 12  2  0
 11 24  1  0
 12 13  1  0
 12 41  1  0
 13 14  2  0
 13 42  1  0
 14 15  1  0
 14 23  1  0
 15 16  1  0
 15 43  1  0
 15 44  1  0
 16 17  1  0
 16 18  1  0
 17 45  1  0
 17 46  1  0
 17 47  1  0
 18 19  1  0
 18 48  1  0
 18 49  1  0
 19 20  1  0
 19 50  1  0
 19 51  1  0
 20 21  2  0
 20 22  1  0
 22 52  1  0
 23 24  2  0
 23 53  1  0
 24 25  1  0
 25 26  2  0
 25 27  1  0
 28 54  1  0
M  CHG  2  25   1  27  -1
M  END

