
     RDKit          3D

 62 65  0  0  0  0  0  0  0  0999 V2000
    4.9416   -0.4640    3.0238 C   0  0  0  0  0  0  0  0  0  0  0  0
    5.1239    0.9347    2.4364 C   0  0  0  0  0  0  0  0  0  0  0  0
    4.0557    1.3664    1.5150 N   0  0  0  0  0  0  0  0  0  0  0  0
    4.1292    0.8654    0.2346 C   0  0  0  0  0  0  0  0  0  0  0  0
    4.9335   -0.0041   -0.0654 O   0  0  0  0  0  0  0  0  0  0  0  0
    3.1752    1.4397   -0.8030 C   0  0  0  0  0  0  0  0  0  0  0  0
    2.8075    2.8915   -0.5274 C   0  0  0  0  0  0  0  0  0  0  0  0
    2.2276    2.9992    0.8906 C   0  0  2  0  0  0  0  0  0  0  0  0
    1.3511    2.3378    0.9489 H   0  0  0  0  0  0  0  0  0  0  0  0
    1.8263    4.4537    1.1993 C   0  0  0  0  0  0  0  0  0  0  0  0
    2.6420    5.2180    1.7015 O   0  0  0  0  0  0  0  0  0  0  0  0
    0.5640    4.8726    0.8596 N   0  0  0  0  0  0  0  0  0  0  0  0
    0.1829    6.2578    1.1312 C   0  0  0  0  0  0  0  0  0  0  0  0
   -0.2694    6.9466   -0.1544 C   0  0  0  0  0  0  0  0  0  0  0  0
   -1.3866    6.1750   -0.8665 C   0  0  1  0  0  0  0  0  0  0  0  0
   -2.2820    6.1790   -0.2178 H   0  0  0  0  0  0  0  0  0  0  0  0
   -1.7908    6.8535   -2.0416 O   0  0  0  0  0  0  0  0  0  0  0  0
   -0.9886    4.6994   -1.1027 C   0  0  2  0  0  0  0  0  0  0  0  0
   -0.1320    4.6962   -1.8076 H   0  0  0  0  0  0  0  0  0  0  0  0
   -2.1134    3.8334   -1.7068 C   0  0  1  0  0  0  0  0  0  0  0  0
   -2.5924    4.2082   -3.1244 C   0  0  0  0  0  0  0  0  0  0  0  0
   -3.4344    2.9994   -3.5542 C   0  0  0  0  0  0  0  0  0  0  0  0
   -2.7105    1.7693   -2.9517 C   0  0  0  0  0  0  0  0  0  0  0  0
   -1.7545    2.3331   -1.8657 C   0  0  0  0  0  0  0  0  0  0  0  0
   -0.4884    4.0866    0.2281 C   0  0  0  0  0  0  0  0  0  0  0  0
    3.2484    2.5205    1.9510 C   0  0  1  0  0  0  0  0  0  0  0  0
    3.9287    3.3698    2.1251 H   0  0  0  0  0  0  0  0  0  0  0  0
    2.5189    2.2401    3.2634 C   0  0  0  0  0  0  0  0  0  0  0  0
    1.7653    1.0734    3.4552 C   0  0  0  0  0  0  0  0  0  0  0  0
    1.0728    0.8990    4.6561 C   0  0  0  0  0  0  0  0  0  0  0  0
    1.0821    1.7902    5.6517 N   0  0  0  0  0  0  0  0  0  0  0  0
    1.7978    2.9018    5.4697 C   0  0  0  0  0  0  0  0  0  0  0  0
    2.5264    3.1743    4.3063 C   0  0  0  0  0  0  0  0  0  0  0  0
    5.8027   -0.7100    3.6663 H   0  0  0  0  0  0  0  0  0  0  0  0
    4.8947   -1.2092    2.2178 H   0  0  0  0  0  0  0  0  0  0  0  0
    4.0312   -0.5366    3.6367 H   0  0  0  0  0  0  0  0  0  0  0  0
    6.0753    0.9665    1.8820 H   0  0  0  0  0  0  0  0  0  0  0  0
    5.1824    1.6817    3.2422 H   0  0  0  0  0  0  0  0  0  0  0  0
    2.2671    0.8103   -0.8200 H   0  0  0  0  0  0  0  0  0  0  0  0
    3.6670    1.3054   -1.7767 H   0  0  0  0  0  0  0  0  0  0  0  0
    2.0796    3.2588   -1.2687 H   0  0  0  0  0  0  0  0  0  0  0  0
    3.6958    3.5408   -0.6073 H   0  0  0  0  0  0  0  0  0  0  0  0
    1.0452    6.7613    1.5822 H   0  0  0  0  0  0  0  0  0  0  0  0
   -0.6407    6.2607    1.8704 H   0  0  0  0  0  0  0  0  0  0  0  0
    0.5948    7.0377   -0.8380 H   0  0  0  0  0  0  0  0  0  0  0  0
   -0.6217    7.9680    0.0604 H   0  0  0  0  0  0  0  0  0  0  0  0
   -1.0398    6.8784   -2.6507 H   0  0  0  0  0  0  0  0  0  0  0  0
   -2.9882    3.9066   -1.0310 H   0  0  0  0  0  0  0  0  0  0  0  0
   -1.7124    4.3144   -3.7867 H   0  0  0  0  0  0  0  0  0  0  0  0
   -3.1358    5.1604   -3.1571 H   0  0  0  0  0  0  0  0  0  0  0  0
   -3.5582    2.9314   -4.6460 H   0  0  0  0  0  0  0  0  0  0  0  0
   -4.4467    3.0908   -3.1259 H   0  0  0  0  0  0  0  0  0  0  0  0
   -2.1425    1.2233   -3.7210 H   0  0  0  0  0  0  0  0  0  0  0  0
   -3.4272    1.0491   -2.5280 H   0  0  0  0  0  0  0  0  0  0  0  0
   -0.7065    2.2479   -2.2041 H   0  0  0  0  0  0  0  0  0  0  0  0
   -1.8283    1.7752   -0.9195 H   0  0  0  0  0  0  0  0  0  0  0  0
   -0.1379    3.0670    0.0518 H   0  0  0  0  0  0  0  0  0  0  0  0
   -1.3457    4.0105    0.9260 H   0  0  0  0  0  0  0  0  0  0  0  0
    1.7273    0.3004    2.6836 H   0  0  0  0  0  0  0  0  0  0  0  0
    0.4824   -0.0109    4.8196 H   0  0  0  0  0  0  0  0  0  0  0  0
    1.7973    3.6249    6.2944 H   0  0  0  0  0  0  0  0  0  0  0  0
    3.0801    4.1103    4.2052 H   0  0  0  0  0  0  0  0  0  0  0  0
  1  2  1  0
  1 34  1  0
  1 35  1  0
  1 36  1  0
  2  3  1  0
  2 37  1  0
  2 38  1  0
  3  4  1  0
  3 26  1  0
  4  5  2  0
  4  6  1  0
  6  7  1  0
  6 39  1  0
  6 40  1  0
  7  8  1  0
  7 41  1  0
  7 42  1  0
  8  9  1  6
  8 10  1  0
  8 26  1  0
 10 11  2  0
 10 12  1  0
 12 13  1  0
 12 25  1  0
 13 14  1  0
 13 43  1  0
 13 44  1  0
 14 15  1  0
 14 45  1  0
 14 46  1  0
 15 16  1  1
 15 17  1  0
 15 18  1  0
 17 47  1  0
 18 19  1  6
 18 20  1  0
 18 25  1  0
 20 21  1  0
 20 24  1  0
 20 48  1  1
 21 22  1  0
 21 49  1  0
 21 50  1  0
 22 23  1  0
 22 51  1  0
 22 52  1  0
 23 24  1  0
 23 53  1  0
 23 54  1  0
 24 55  1  0
 24 56  1  0
 25 57  1  0
 25 58  1  0
 26 27  1  1
 26 28  1  0
 28 29  2  0
 28 33  1  0
 29 30  1  0
 29 59  1  0
 30 31  2  0
 30 60  1  0
 31 32  1  0
 32 33  2  0
 32 61  1  0
 33 62  1  0
M  END

