
     RDKit          3D

 33 35  0  0  0  0  0  0  0  0999 V2000
    2.6148   -4.7424    1.1878 C   0  0  0  0  0  0  0  0  0  0  0  0
    3.2498   -3.5308    1.8222 C   0  0  0  0  0  0  0  0  0  0  0  0
    3.9089   -3.6318    3.0547 C   0  0  0  0  0  0  0  0  0  0  0  0
    4.4920   -2.5063    3.6362 C   0  0  0  0  0  0  0  0  0  0  0  0
    4.3985   -1.2925    2.9547 C   0  0  0  0  0  0  0  0  0  0  0  0
    3.7788   -1.1734    1.7796 N   0  0  0  0  0  0  0  0  0  0  0  0
    3.2166   -2.2514    1.2201 C   0  0  0  0  0  0  0  0  0  0  0  0
    2.5468   -2.0030   -0.1257 C   0  0  0  0  0  0  0  0  0  0  0  0
    1.0889   -1.9804   -0.0926 N   0  0  0  0  0  0  0  0  0  0  0  0
    0.2520   -2.8836   -0.7156 C   0  0  0  0  0  0  0  0  0  0  0  0
   -1.0668   -2.5430   -0.5233 C   0  0  0  0  0  0  0  0  0  0  0  0
   -1.0657   -1.3446    0.2605 C   0  0  0  0  0  0  0  0  0  0  0  0
   -2.0403   -0.4694    0.7917 C   0  0  0  0  0  0  0  0  0  0  0  0
   -3.4712   -0.7291    0.5911 N   0  0  0  0  0  0  0  0  0  0  0  0
   -3.7840   -1.7257   -0.0472 O   0  0  0  0  0  0  0  0  0  0  0  0
   -4.2733    0.0596    1.0706 O   0  0  0  0  0  0  0  0  0  0  0  0
   -1.6700    0.6617    1.5147 C   0  0  0  0  0  0  0  0  0  0  0  0
   -0.3137    0.9530    1.7307 C   0  0  0  0  0  0  0  0  0  0  0  0
    0.6913    0.1216    1.2356 C   0  0  0  0  0  0  0  0  0  0  0  0
    0.3045   -1.0133    0.5123 C   0  0  0  0  0  0  0  0  0  0  0  0
    2.8535   -5.6532    1.7557 H   0  0  0  0  0  0  0  0  0  0  0  0
    2.9646   -4.8944    0.1532 H   0  0  0  0  0  0  0  0  0  0  0  0
    1.5177   -4.6510    1.1465 H   0  0  0  0  0  0  0  0  0  0  0  0
    3.9651   -4.6020    3.5568 H   0  0  0  0  0  0  0  0  0  0  0  0
    5.0092   -2.5685    4.5962 H   0  0  0  0  0  0  0  0  0  0  0  0
    4.8412   -0.3804    3.3710 H   0  0  0  0  0  0  0  0  0  0  0  0
    2.8373   -2.7758   -0.8521 H   0  0  0  0  0  0  0  0  0  0  0  0
    2.9190   -1.0367   -0.4979 H   0  0  0  0  0  0  0  0  0  0  0  0
    0.6715   -3.7202   -1.2722 H   0  0  0  0  0  0  0  0  0  0  0  0
   -1.9374   -3.0697   -0.8969 H   0  0  0  0  0  0  0  0  0  0  0  0
   -2.4572    1.3067    1.9029 H   0  0  0  0  0  0  0  0  0  0  0  0
   -0.0435    1.8455    2.2991 H   0  0  0  0  0  0  0  0  0  0  0  0
    1.7462    0.3371    1.4150 H   0  0  0  0  0  0  0  0  0  0  0  0
  1  2  1  0
  1 21  1  0
  1 22  1  0
  1 23  1  0
  2  3  2  0
  2  7  1  0
  3  4  1  0
  3 24  1  0
  4  5  2  0
  4 25  1  0
  5  6  1  0
  5 26  1  0
  6  7  2  0
  7  8  1  0
  8  9  1  0
  8 27  1  0
  8 28  1  0
  9 10  1  0
  9 20  1  0
 10 11  2  0
 10 29  1  0
 11 12  1  0
 11 30  1  0
 12 13  1  0
 12 20  2  0
 13 14  1  0
 13 17  2  0
 14 15  2  0
 14 16  1  0
 17 18  1  0
 17 31  1  0
 18 19  2  0
 18 32  1  0
 19 20  1  0
 19 33  1  0
M  CHG  2  14   1  16  -1
M  END

