
     RDKit          3D

 54 58  0  0  0  0  0  0  0  0999 V2000
    6.6840    1.3472   -0.3748 C   0  0  0  0  0  0  0  0  0  0  0  0
    5.4410    0.7377    0.2018 C   0  0  0  0  0  0  0  0  0  0  0  0
    4.4973    1.3888    0.9594 C   0  0  0  0  0  0  0  0  0  0  0  0
    3.2339    0.2974    1.4136 S   0  0  0  0  0  0  0  0  0  0  0  0
    4.0642   -0.9782    0.5435 C   0  0  0  0  0  0  0  0  0  0  0  0
    3.4975   -2.3663    0.4472 C   0  0  1  0  0  0  0  0  0  0  0  0
    3.0186   -2.7612   -0.9707 C   0  0  0  0  0  0  0  0  0  0  0  0
    2.9439   -4.2890   -0.9066 C   0  0  0  0  0  0  0  0  0  0  0  0
    3.9991   -4.6328    0.0480 N   0  0  0  0  0  0  0  0  0  0  0  0
    4.4269   -5.9168    0.1817 C   0  0  0  0  0  0  0  0  0  0  0  0
    3.9699   -6.8617   -0.4308 O   0  0  0  0  0  0  0  0  0  0  0  0
    5.4342   -6.0049    1.0917 O   0  0  0  0  0  0  0  0  0  0  0  0
    5.9816   -7.3169    1.3347 C   0  0  1  0  0  0  0  0  0  0  0  0
    7.0767   -7.6692    0.3105 C   0  0  2  0  0  0  0  0  0  0  0  0
    7.5828   -9.0923    0.6151 C   0  0  0  0  0  0  0  0  0  0  0  0
    8.1739   -9.1325    2.0365 C   0  0  2  0  0  0  0  0  0  0  0  0
    7.0781   -8.7567    3.0518 C   0  0  0  0  0  0  0  0  0  0  0  0
    6.5693   -7.3329    2.7536 C   0  0  1  0  0  0  0  0  0  0  0  0
    7.7351   -6.3307    2.8591 C   0  0  0  0  0  0  0  0  0  0  0  0
    8.8513   -6.6980    1.8425 C   0  0  1  0  0  0  0  0  0  0  0  0
   10.0369   -5.7210    1.9657 C   0  0  0  0  0  0  0  0  0  0  0  0
    9.7618   -4.4130    1.6797 N   0  0  0  0  0  0  0  0  0  0  0  0
   11.1522   -6.0776    2.3043 O   0  0  0  0  0  0  0  0  0  0  0  0
    9.3400   -8.1326    2.1405 C   0  0  0  0  0  0  0  0  0  0  0  0
    8.2400   -6.6653    0.4150 C   0  0  0  0  0  0  0  0  0  0  0  0
    4.5206   -3.4757    0.7725 C   0  0  0  0  0  0  0  0  0  0  0  0
    5.1735   -0.5952   -0.0182 N   0  0  0  0  0  0  0  0  0  0  0  0
    6.7651    2.4135   -0.1214 H   0  0  0  0  0  0  0  0  0  0  0  0
    6.6916    1.2464   -1.4724 H   0  0  0  0  0  0  0  0  0  0  0  0
    7.5810    0.8291    0.0018 H   0  0  0  0  0  0  0  0  0  0  0  0
    4.4853    2.4325    1.2681 H   0  0  0  0  0  0  0  0  0  0  0  0
    2.6460   -2.4519    1.1424 H   0  0  0  0  0  0  0  0  0  0  0  0
    3.7768   -2.4383   -1.7016 H   0  0  0  0  0  0  0  0  0  0  0  0
    2.0610   -2.2932   -1.2415 H   0  0  0  0  0  0  0  0  0  0  0  0
    3.1212   -4.7773   -1.8765 H   0  0  0  0  0  0  0  0  0  0  0  0
    1.9595   -4.6383   -0.5442 H   0  0  0  0  0  0  0  0  0  0  0  0
    5.1591   -8.0423    1.2478 H   0  0  0  0  0  0  0  0  0  0  0  0
    6.6346   -7.6344   -0.6975 H   0  0  0  0  0  0  0  0  0  0  0  0
    8.3474   -9.3805   -0.1260 H   0  0  0  0  0  0  0  0  0  0  0  0
    6.7571   -9.8180    0.5196 H   0  0  0  0  0  0  0  0  0  0  0  0
    8.5457  -10.1479    2.2545 H   0  0  0  0  0  0  0  0  0  0  0  0
    7.4774   -8.7994    4.0793 H   0  0  0  0  0  0  0  0  0  0  0  0
    6.2444   -9.4782    3.0022 H   0  0  0  0  0  0  0  0  0  0  0  0
    5.7759   -7.0538    3.4670 H   0  0  0  0  0  0  0  0  0  0  0  0
    8.1473   -6.3416    3.8821 H   0  0  0  0  0  0  0  0  0  0  0  0
    7.3625   -5.3112    2.6746 H   0  0  0  0  0  0  0  0  0  0  0  0
    8.8505   -4.0950    1.3818 H   0  0  0  0  0  0  0  0  0  0  0  0
   10.5177   -3.7423    1.7480 H   0  0  0  0  0  0  0  0  0  0  0  0
    9.7929   -8.1623    3.1437 H   0  0  0  0  0  0  0  0  0  0  0  0
   10.1445   -8.3985    1.4367 H   0  0  0  0  0  0  0  0  0  0  0  0
    9.0164   -6.9106   -0.3291 H   0  0  0  0  0  0  0  0  0  0  0  0
    7.8732   -5.6554    0.1715 H   0  0  0  0  0  0  0  0  0  0  0  0
    5.5198   -3.1807    0.4084 H   0  0  0  0  0  0  0  0  0  0  0  0
    4.5962   -3.6763    1.8516 H   0  0  0  0  0  0  0  0  0  0  0  0
  1  2  1  0
  1 28  1  0
  1 29  1  0
  1 30  1  0
  2  3  2  0
  2 27  1  0
  3  4  1  0
  3 31  1  0
  4  5  1  0
  5  6  1  0
  5 27  2  0
  6  7  1  0
  6 26  1  0
  6 32  1  1
  7  8  1  0
  7 33  1  0
  7 34  1  0
  8  9  1  0
  8 35  1  0
  8 36  1  0
  9 10  1  0
  9 26  1  0
 10 11  2  0
 10 12  1  0
 12 13  1  0
 13 14  1  0
 13 18  1  0
 13 37  1  1
 14 15  1  0
 14 25  1  0
 14 38  1  6
 15 16  1  0
 15 39  1  0
 15 40  1  0
 16 17  1  0
 16 24  1  0
 16 41  1  1
 17 18  1  0
 17 42  1  0
 17 43  1  0
 18 19  1  0
 18 44  1  1
 19 20  1  0
 19 45  1  0
 19 46  1  0
 20 21  1  6
 20 24  1  0
 20 25  1  0
 21 22  1  0
 21 23  2  0
 22 47  1  0
 22 48  1  0
 24 49  1  0
 24 50  1  0
 25 51  1  0
 25 52  1  0
 26 53  1  0
 26 54  1  0
M  END

