
     RDKit          3D

 36 37  0  0  0  0  0  0  0  0999 V2000
    1.7274    0.8256    0.5407 N   0  0  0  0  0  0  0  0  0  0  0  0
    3.0604    0.4523    0.4603 C   0  0  0  0  0  0  0  0  0  0  0  0
    3.4062   -1.0219    0.5291 C   0  0  0  0  0  0  0  0  0  0  0  0
    2.2226   -2.0048    0.5065 C   0  0  1  0  0  0  0  0  0  0  0  0
    1.5285   -1.8804   -0.7699 N   0  0  0  0  0  0  0  0  0  0  0  0
    0.3135   -2.4872   -1.0651 C   0  0  0  0  0  0  0  0  0  0  0  0
   -0.5136   -3.0555   -0.0740 C   0  0  0  0  0  0  0  0  0  0  0  0
   -1.7512   -3.6034   -0.4137 C   0  0  0  0  0  0  0  0  0  0  0  0
   -2.1998   -3.6128   -1.7358 C   0  0  0  0  0  0  0  0  0  0  0  0
   -3.8785   -4.3612   -2.2100 Br  0  0  0  0  0  0  0  0  0  0  0  0
   -1.3731   -3.0576   -2.7193 C   0  0  0  0  0  0  0  0  0  0  0  0
   -1.7644   -3.0520   -3.9961 F   0  0  0  0  0  0  0  0  0  0  0  0
   -0.1399   -2.5045   -2.4005 C   0  0  0  0  0  0  0  0  0  0  0  0
    2.6982   -3.4197    0.8443 C   0  0  0  0  0  0  0  0  0  0  0  0
    2.7281   -3.8427    2.1815 C   0  0  0  0  0  0  0  0  0  0  0  0
    3.2097   -5.1095    2.5222 C   0  0  0  0  0  0  0  0  0  0  0  0
    3.6670   -5.9760    1.5249 C   0  0  0  0  0  0  0  0  0  0  0  0
    3.6375   -5.5663    0.1888 C   0  0  0  0  0  0  0  0  0  0  0  0
    3.1566   -4.2976   -0.1473 C   0  0  0  0  0  0  0  0  0  0  0  0
    3.9559    1.3751    0.4241 N   0  0  0  0  0  0  0  0  0  0  0  0
    5.2511    0.8308    0.4995 O   0  0  0  0  0  0  0  0  0  0  0  0
    1.1055    0.2691   -0.0421 H   0  0  0  0  0  0  0  0  0  0  0  0
    1.5883    1.8270    0.4327 H   0  0  0  0  0  0  0  0  0  0  0  0
    3.9893   -1.1819    1.4500 H   0  0  0  0  0  0  0  0  0  0  0  0
    4.1157   -1.2590   -0.2827 H   0  0  0  0  0  0  0  0  0  0  0  0
    1.5230   -1.6888    1.2981 H   0  0  0  0  0  0  0  0  0  0  0  0
    2.1269   -1.7097   -1.5709 H   0  0  0  0  0  0  0  0  0  0  0  0
   -0.1930   -3.0849    0.9665 H   0  0  0  0  0  0  0  0  0  0  0  0
   -2.3801   -4.0408    0.3639 H   0  0  0  0  0  0  0  0  0  0  0  0
    0.4596   -2.0803   -3.2094 H   0  0  0  0  0  0  0  0  0  0  0  0
    2.3676   -3.1716    2.9676 H   0  0  0  0  0  0  0  0  0  0  0  0
    3.2223   -5.4228    3.5693 H   0  0  0  0  0  0  0  0  0  0  0  0
    4.0400   -6.9691    1.7876 H   0  0  0  0  0  0  0  0  0  0  0  0
    3.9876   -6.2393   -0.5982 H   0  0  0  0  0  0  0  0  0  0  0  0
    3.1287   -3.9942   -1.1970 H   0  0  0  0  0  0  0  0  0  0  0  0
    5.8061    1.6191    0.4670 H   0  0  0  0  0  0  0  0  0  0  0  0
  1  2  1  0
  1 22  1  0
  1 23  1  0
  2  3  1  0
  2 20  2  0
  3  4  1  0
  3 24  1  0
  3 25  1  0
  4  5  1  0
  4 14  1  0
  4 26  1  1
  5  6  1  0
  5 27  1  0
  6  7  2  0
  6 13  1  0
  7  8  1  0
  7 28  1  0
  8  9  2  0
  8 29  1  0
  9 10  1  0
  9 11  1  0
 11 12  1  0
 11 13  2  0
 13 30  1  0
 14 15  2  0
 14 19  1  0
 15 16  1  0
 15 31  1  0
 16 17  2  0
 16 32  1  0
 17 18  1  0
 17 33  1  0
 18 19  2  0
 18 34  1  0
 19 35  1  0
 20 21  1  0
 21 36  1  0
M  END

