
     RDKit          3D

 35 36  0  0  0  0  0  0  0  0999 V2000
    0.9758    0.1582   -0.3979 C   0  0  0  0  0  0  0  0  0  0  0  0
    2.1805    0.0740    0.3346 O   0  0  0  0  0  0  0  0  0  0  0  0
    3.0031    1.1456    0.3877 C   0  0  0  0  0  0  0  0  0  0  0  0
    2.7491    2.3734   -0.2398 C   0  0  0  0  0  0  0  0  0  0  0  0
    3.6852    3.3998   -0.1044 C   0  0  0  0  0  0  0  0  0  0  0  0
    4.8629    3.2573    0.6408 C   0  0  0  0  0  0  0  0  0  0  0  0
    5.7974    4.4077    0.8149 C   0  0  0  0  0  0  0  0  0  0  0  0
    6.4342    4.6351    1.8344 O   0  0  0  0  0  0  0  0  0  0  0  0
    5.8759    5.2556   -0.2821 N   0  0  0  0  0  0  0  0  0  0  0  0
    6.5824    6.4309   -0.3075 C   0  0  0  0  0  0  0  0  0  0  0  0
    7.3373    6.8873    0.7137 N   0  0  0  0  0  0  0  0  0  0  0  0
    7.4428    6.3864    1.5938 H   0  0  0  0  0  0  0  0  0  0  0  0
    7.9338    8.0712    0.4465 N   0  0  0  0  0  0  0  0  0  0  0  0
    7.5518    8.3761   -0.7770 C   0  0  0  0  0  0  0  0  0  0  0  0
    6.6841    7.3859   -1.3441 C   0  0  0  0  0  0  0  0  0  0  0  0
    6.0464    7.3516   -2.6469 C   0  0  0  0  0  0  0  0  0  0  0  0
    6.2997    8.3913   -3.4714 N   0  0  0  0  0  0  0  0  0  0  0  0
    5.0273    6.1115   -3.1717 S   0  0  0  0  0  0  0  0  0  0  0  0
    5.1105    2.0006    1.2662 C   0  0  0  0  0  0  0  0  0  0  0  0
    6.2670    1.8647    1.9406 O   0  0  0  0  0  0  0  0  0  0  0  0
    6.5704    0.6462    2.5829 C   0  0  0  0  0  0  0  0  0  0  0  0
    4.1822    0.9650    1.1317 C   0  0  0  0  0  0  0  0  0  0  0  0
    0.4835   -0.8183   -0.3001 H   0  0  0  0  0  0  0  0  0  0  0  0
    1.1607    0.3616   -1.4675 H   0  0  0  0  0  0  0  0  0  0  0  0
    0.3065    0.9393    0.0039 H   0  0  0  0  0  0  0  0  0  0  0  0
    1.8437    2.5445   -0.8198 H   0  0  0  0  0  0  0  0  0  0  0  0
    3.4731    4.3581   -0.5843 H   0  0  0  0  0  0  0  0  0  0  0  0
    5.4095    5.0529   -1.1776 H   0  0  0  0  0  0  0  0  0  0  0  0
    7.9069    9.3044   -1.2267 H   0  0  0  0  0  0  0  0  0  0  0  0
    6.9165    9.1512   -3.2152 H   0  0  0  0  0  0  0  0  0  0  0  0
    5.8743    8.3909   -4.3905 H   0  0  0  0  0  0  0  0  0  0  0  0
    7.5444    0.7891    3.0690 H   0  0  0  0  0  0  0  0  0  0  0  0
    6.6448   -0.1897    1.8645 H   0  0  0  0  0  0  0  0  0  0  0  0
    5.8194    0.3911    3.3513 H   0  0  0  0  0  0  0  0  0  0  0  0
    4.3408   -0.0108    1.5869 H   0  0  0  0  0  0  0  0  0  0  0  0
  1  2  1  0
  1 23  1  0
  1 24  1  0
  1 25  1  0
  2  3  1  0
  3  4  2  0
  3 22  1  0
  4  5  1  0
  4 26  1  0
  5  6  2  0
  5 27  1  0
  6  7  1  0
  6 19  1  0
  7  8  2  0
  7  9  1  0
  9 10  1  0
  9 28  1  0
 10 11  1  0
 10 15  2  0
 11 12  1  0
 11 13  1  0
 13 14  2  0
 14 15  1  0
 14 29  1  0
 15 16  1  0
 16 17  1  0
 16 18  2  0
 17 30  1  0
 17 31  1  0
 19 20  1  0
 19 22  2  0
 20 21  1  0
 21 32  1  0
 21 33  1  0
 21 34  1  0
 22 35  1  0
M  END

