
     RDKit          3D

 41 43  0  0  0  0  0  0  0  0999 V2000
    0.4977   -0.5872   -0.3932 C   0  0  0  0  0  0  0  0  0  0  0  0
    1.9617   -0.2213   -0.1781 C   0  0  0  0  0  0  0  0  0  0  0  0
    2.8483   -1.2264   -0.7495 N   0  0  0  0  0  0  0  0  0  0  0  0
    4.2747   -0.9843   -0.5705 C   0  0  1  0  0  0  0  0  0  0  0  0
    4.6542   -1.3485    0.8391 C   0  0  0  0  0  0  0  0  0  0  0  0
    4.2048   -2.3160    1.6926 C   0  0  0  0  0  0  0  0  0  0  0  0
    4.9845   -2.1850    2.8971 C   0  0  0  0  0  0  0  0  0  0  0  0
    5.0283   -2.8567    4.1483 C   0  0  0  0  0  0  0  0  0  0  0  0
    5.9371   -2.4328    5.0919 C   0  0  0  0  0  0  0  0  0  0  0  0
    5.9795   -3.2761    6.6331 Cl  0  0  0  0  0  0  0  0  0  0  0  0
    6.8456   -1.3364    4.8693 C   0  0  0  0  0  0  0  0  0  0  0  0
    7.7852   -0.8912    5.8361 C   0  0  0  0  0  0  0  0  0  0  0  0
    8.6337    0.1673    5.5722 C   0  0  0  0  0  0  0  0  0  0  0  0
    8.5851    0.8350    4.3261 C   0  0  0  0  0  0  0  0  0  0  0  0
    7.6862    0.4333    3.3585 C   0  0  0  0  0  0  0  0  0  0  0  0
    6.8044   -0.6508    3.6036 C   0  0  0  0  0  0  0  0  0  0  0  0
    5.8573   -1.1229    2.6647 C   0  0  0  0  0  0  0  0  0  0  0  0
    5.6565   -0.6123    1.4205 O   0  0  0  0  0  0  0  0  0  0  0  0
    5.0937   -1.7705   -1.6390 C   0  0  1  0  0  0  0  0  0  0  0  0
    4.8642   -1.1989   -3.0465 C   0  0  0  0  0  0  0  0  0  0  0  0
    6.5943   -1.8085   -1.3272 C   0  0  0  0  0  0  0  0  0  0  0  0
   -0.1671    0.1658    0.0579 H   0  0  0  0  0  0  0  0  0  0  0  0
    0.2708   -1.5675    0.0539 H   0  0  0  0  0  0  0  0  0  0  0  0
    0.2525   -0.6430   -1.4681 H   0  0  0  0  0  0  0  0  0  0  0  0
    2.1692   -0.1554    0.9034 H   0  0  0  0  0  0  0  0  0  0  0  0
    2.1580    0.7959   -0.5881 H   0  0  0  0  0  0  0  0  0  0  0  0
    2.6356   -1.3506   -1.7361 H   0  0  0  0  0  0  0  0  0  0  0  0
    4.5386    0.0919   -0.6934 H   0  0  0  0  0  0  0  0  0  0  0  0
    3.4065   -3.0208    1.4761 H   0  0  0  0  0  0  0  0  0  0  0  0
    4.3615   -3.6918    4.3665 H   0  0  0  0  0  0  0  0  0  0  0  0
    7.8261   -1.4026    6.7983 H   0  0  0  0  0  0  0  0  0  0  0  0
    9.3479    0.4909    6.3333 H   0  0  0  0  0  0  0  0  0  0  0  0
    9.2614    1.6710    4.1306 H   0  0  0  0  0  0  0  0  0  0  0  0
    7.6374    0.9399    2.3925 H   0  0  0  0  0  0  0  0  0  0  0  0
    4.7093   -2.8065   -1.6117 H   0  0  0  0  0  0  0  0  0  0  0  0
    5.2417   -0.1644   -3.1152 H   0  0  0  0  0  0  0  0  0  0  0  0
    3.8032   -1.1845   -3.3426 H   0  0  0  0  0  0  0  0  0  0  0  0
    5.3983   -1.7986   -3.8003 H   0  0  0  0  0  0  0  0  0  0  0  0
    7.0164   -0.7918   -1.2610 H   0  0  0  0  0  0  0  0  0  0  0  0
    7.1351   -2.3428   -2.1244 H   0  0  0  0  0  0  0  0  0  0  0  0
    6.8083   -2.3221   -0.3788 H   0  0  0  0  0  0  0  0  0  0  0  0
  1  2  1  0
  1 22  1  0
  1 23  1  0
  1 24  1  0
  2  3  1  0
  2 25  1  0
  2 26  1  0
  3  4  1  0
  3 27  1  0
  4  5  1  0
  4 19  1  0
  4 28  1  6
  5  6  2  0
  5 18  1  0
  6  7  1  0
  6 29  1  0
  7  8  2  0
  7 17  1  0
  8  9  1  0
  8 30  1  0
  9 10  1  0
  9 11  2  0
 11 12  1  0
 11 16  1  0
 12 13  2  0
 12 31  1  0
 13 14  1  0
 13 32  1  0
 14 15  2  0
 14 33  1  0
 15 16  1  0
 15 34  1  0
 16 17  2  0
 17 18  1  0
 19 20  1  0
 19 21  1  0
 19 35  1  6
 20 36  1  0
 20 37  1  0
 20 38  1  0
 21 39  1  0
 21 40  1  0
 21 41  1  0
M  END

