
     RDKit          3D

 71 76  0  0  0  0  0  0  0  0999 V2000
    1.1347   -1.9779   -2.1379 C   0  0  0  0  0  0  0  0  0  0  0  0
    2.5123   -1.9197   -1.6923 N   0  0  0  0  0  0  0  0  0  0  0  0
    2.9750   -0.9255   -0.8738 C   0  0  0  0  0  0  0  0  0  0  0  0
    2.2395   -0.0464   -0.4414 O   0  0  0  0  0  0  0  0  0  0  0  0
    4.4283   -1.0377   -0.5445 C   0  0  0  0  0  0  0  0  0  0  0  0
    5.3693   -0.0256   -0.4201 C   0  0  0  0  0  0  0  0  0  0  0  0
    5.3683    1.4354   -0.5384 C   0  0  0  0  0  0  0  0  0  0  0  0
    6.5881    2.1002   -0.7954 C   0  0  0  0  0  0  0  0  0  0  0  0
    6.6389    3.4865   -0.9111 C   0  0  0  0  0  0  0  0  0  0  0  0
    5.4614    4.2189   -0.7649 C   0  0  0  0  0  0  0  0  0  0  0  0
    5.5058    5.5526   -0.8748 F   0  0  0  0  0  0  0  0  0  0  0  0
    4.2439    3.5952   -0.5023 C   0  0  0  0  0  0  0  0  0  0  0  0
    4.1975    2.2069   -0.3851 C   0  0  0  0  0  0  0  0  0  0  0  0
    6.6104   -0.5629   -0.1721 O   0  0  0  0  0  0  0  0  0  0  0  0
    6.4831   -1.9119   -0.1133 C   0  0  0  0  0  0  0  0  0  0  0  0
    7.4935   -2.8242    0.1532 C   0  0  0  0  0  0  0  0  0  0  0  0
    7.1559   -4.1828    0.1778 C   0  0  0  0  0  0  0  0  0  0  0  0
    8.1858   -5.1312    0.4895 N   0  0  0  0  0  0  0  0  0  0  0  0
    8.2123   -5.7730    1.8049 C   0  0  0  0  0  0  0  0  0  0  0  0
    9.2494   -5.6391   -0.7047 S   0  0  1  0  0  0  0  0  0  0  0  0
   10.8082   -4.8134   -0.3534 C   0  0  0  0  0  0  0  0  0  0  0  0
    9.5119   -7.0790   -0.5171 O   0  0  0  0  0  0  0  0  0  0  0  0
    8.7519   -5.1383   -1.9851 O   0  0  0  0  0  0  0  0  0  0  0  0
    5.8083   -4.6081   -0.0331 C   0  0  0  0  0  0  0  0  0  0  0  0
    5.4113   -6.0472    0.0191 C   0  0  0  0  0  0  0  0  0  0  0  0
    4.3487   -6.4427    0.8409 C   0  0  0  0  0  0  0  0  0  0  0  0
    3.9497   -7.7904    0.8917 C   0  0  0  0  0  0  0  0  0  0  0  0
    2.9110   -8.0654    1.7216 O   0  0  0  0  0  0  0  0  0  0  0  0
    2.4480   -9.3925    1.8338 C   0  0  0  0  0  0  0  0  0  0  0  0
    4.6339   -8.7516    0.1399 C   0  0  0  0  0  0  0  0  0  0  0  0
    5.7044   -8.3656   -0.6926 C   0  0  0  0  0  0  0  0  0  0  0  0
    6.4385   -9.3743   -1.4664 C   0  0  0  0  0  0  0  0  0  0  0  0
    6.0038  -10.5753   -2.0051 C   0  0  0  0  0  0  0  0  0  0  0  0
    7.1214  -11.1749   -2.6718 C   0  0  0  0  0  0  0  0  0  0  0  0
    7.3172  -12.3666   -3.4002 C   0  0  0  0  0  0  0  0  0  0  0  0
    8.5796  -12.6463   -3.9113 C   0  0  0  0  0  0  0  0  0  0  0  0
    9.6615  -11.7574   -3.7129 C   0  0  0  0  0  0  0  0  0  0  0  0
    9.4999  -10.5702   -3.0049 C   0  0  0  0  0  0  0  0  0  0  0  0
    8.2246  -10.2849   -2.4943 C   0  0  0  0  0  0  0  0  0  0  0  0
    7.7776   -9.2018   -1.7767 N   0  0  0  0  0  0  0  0  0  0  0  0
    8.3741   -8.4692   -1.3901 H   0  0  0  0  0  0  0  0  0  0  0  0
    6.0682   -7.0118   -0.7641 C   0  0  0  0  0  0  0  0  0  0  0  0
    4.8161   -3.6462   -0.2705 C   0  0  0  0  0  0  0  0  0  0  0  0
    5.1465   -2.2820   -0.3321 C   0  0  0  0  0  0  0  0  0  0  0  0
    0.7774   -3.0192   -2.1481 H   0  0  0  0  0  0  0  0  0  0  0  0
    1.0065   -1.5525   -3.1491 H   0  0  0  0  0  0  0  0  0  0  0  0
    0.5232   -1.3903   -1.4414 H   0  0  0  0  0  0  0  0  0  0  0  0
    3.1898   -2.5281   -2.1361 H   0  0  0  0  0  0  0  0  0  0  0  0
    7.5031    1.5189   -0.9106 H   0  0  0  0  0  0  0  0  0  0  0  0
    7.5752    4.0093   -1.1154 H   0  0  0  0  0  0  0  0  0  0  0  0
    3.3449    4.2029   -0.3823 H   0  0  0  0  0  0  0  0  0  0  0  0
    3.2548    1.7040   -0.1685 H   0  0  0  0  0  0  0  0  0  0  0  0
    8.5140   -2.4945    0.3494 H   0  0  0  0  0  0  0  0  0  0  0  0
    7.2340   -6.2233    2.0335 H   0  0  0  0  0  0  0  0  0  0  0  0
    8.4656   -5.0433    2.5923 H   0  0  0  0  0  0  0  0  0  0  0  0
    8.9554   -6.5811    1.8003 H   0  0  0  0  0  0  0  0  0  0  0  0
   11.1370   -5.0794    0.6596 H   0  0  0  0  0  0  0  0  0  0  0  0
   10.6628   -3.7311   -0.4584 H   0  0  0  0  0  0  0  0  0  0  0  0
   11.5280   -5.1811   -1.0975 H   0  0  0  0  0  0  0  0  0  0  0  0
    3.8207   -5.7253    1.4718 H   0  0  0  0  0  0  0  0  0  0  0  0
    1.6010   -9.3701    2.5328 H   0  0  0  0  0  0  0  0  0  0  0  0
    3.2249  -10.0677    2.2359 H   0  0  0  0  0  0  0  0  0  0  0  0
    2.1012   -9.7911    0.8634 H   0  0  0  0  0  0  0  0  0  0  0  0
    4.3763   -9.8076    0.2076 H   0  0  0  0  0  0  0  0  0  0  0  0
    4.9857  -10.9573   -1.9645 H   0  0  0  0  0  0  0  0  0  0  0  0
    6.4877  -13.0616   -3.5568 H   0  0  0  0  0  0  0  0  0  0  0  0
    8.7436  -13.5681   -4.4755 H   0  0  0  0  0  0  0  0  0  0  0  0
   10.6424  -12.0073   -4.1258 H   0  0  0  0  0  0  0  0  0  0  0  0
   10.3333   -9.8803   -2.8524 H   0  0  0  0  0  0  0  0  0  0  0  0
    6.8352   -6.6973   -1.4695 H   0  0  0  0  0  0  0  0  0  0  0  0
    3.7873   -3.9765   -0.4198 H   0  0  0  0  0  0  0  0  0  0  0  0
  1  2  1  0
  1 45  1  0
  1 46  1  0
  1 47  1  0
  2  3  1  0
  2 48  1  0
  3  4  2  0
  3  5  1  0
  5  6  2  0
  5 44  1  0
  6  7  1  0
  6 14  1  0
  7  8  2  0
  7 13  1  0
  8  9  1  0
  8 49  1  0
  9 10  2  0
  9 50  1  0
 10 11  1  0
 10 12  1  0
 12 13  2  0
 12 51  1  0
 13 52  1  0
 14 15  1  0
 15 16  1  0
 15 44  2  0
 16 17  2  0
 16 53  1  0
 17 18  1  0
 17 24  1  0
 18 19  1  0
 20 18  1  1
 19 54  1  0
 19 55  1  0
 19 56  1  0
 20 21  1  0
 20 22  2  0
 20 23  2  0
 21 57  1  0
 21 58  1  0
 21 59  1  0
 24 25  1  0
 24 43  2  0
 25 26  2  0
 25 42  1  0
 26 27  1  0
 26 60  1  0
 27 28  1  0
 27 30  2  0
 28 29  1  0
 29 61  1  0
 29 62  1  0
 29 63  1  0
 30 31  1  0
 30 64  1  0
 31 32  1  0
 31 42  2  0
 32 33  2  0
 32 40  1  0
 33 34  1  0
 33 65  1  0
 34 35  2  0
 34 39  1  0
 35 36  1  0
 35 66  1  0
 36 37  2  0
 36 67  1  0
 37 38  1  0
 37 68  1  0
 38 39  2  0
 38 69  1  0
 39 40  1  0
 40 41  1  0
 42 70  1  0
 43 44  1  0
 43 71  1  0
M  END

