
     RDKit          3D

 43 45  0  0  0  0  0  0  0  0999 V2000
    1.9416   -0.6965    0.8654 C   0  0  0  0  0  0  0  0  0  0  0  0
    3.3235   -0.4211    0.2474 C   0  0  0  0  0  0  0  0  0  0  0  0
    3.4457   -0.8397   -1.1904 C   0  0  0  0  0  0  0  0  0  0  0  0
    3.5922   -0.0569   -2.2972 C   0  0  0  0  0  0  0  0  0  0  0  0
    3.6948    1.4265   -2.3153 C   0  0  0  0  0  0  0  0  0  0  0  0
    4.7726    2.0897   -1.6994 C   0  0  0  0  0  0  0  0  0  0  0  0
    4.8594    3.4847   -1.7079 C   0  0  0  0  0  0  0  0  0  0  0  0
    3.8710    4.2473   -2.3366 C   0  0  0  0  0  0  0  0  0  0  0  0
    2.7941    3.6038   -2.9543 C   0  0  0  0  0  0  0  0  0  0  0  0
    2.7076    2.2093   -2.9436 C   0  0  0  0  0  0  0  0  0  0  0  0
    3.6027   -0.9109   -3.5160 C   0  0  0  0  0  0  0  0  0  0  0  0
    3.8877   -0.3759   -4.8959 C   0  0  0  0  0  0  0  0  0  0  0  0
    5.3492    0.0692   -5.0773 C   0  0  0  0  0  0  0  0  0  0  0  0
    3.4522   -2.2164   -3.1402 C   0  0  0  0  0  0  0  0  0  0  0  0
    3.3911   -3.4315   -3.9763 C   0  0  0  0  0  0  0  0  0  0  0  0
    4.1142   -4.5893   -3.6199 C   0  0  0  0  0  0  0  0  0  0  0  0
    4.0478   -5.7515   -4.3908 C   0  0  0  0  0  0  0  0  0  0  0  0
    3.2512   -5.7924   -5.5391 C   0  0  0  0  0  0  0  0  0  0  0  0
    2.5151   -4.6602   -5.9014 C   0  0  0  0  0  0  0  0  0  0  0  0
    2.5792   -3.4992   -5.1282 C   0  0  0  0  0  0  0  0  0  0  0  0
    3.3574   -2.2750   -1.6338 C   0  0  0  0  0  0  0  0  0  0  0  0
    1.9095   -0.3638    1.9154 H   0  0  0  0  0  0  0  0  0  0  0  0
    1.6922   -1.7697    0.8508 H   0  0  0  0  0  0  0  0  0  0  0  0
    1.1500   -0.1619    0.3164 H   0  0  0  0  0  0  0  0  0  0  0  0
    4.0893   -0.9484    0.8472 H   0  0  0  0  0  0  0  0  0  0  0  0
    3.5500    0.6523    0.3363 H   0  0  0  0  0  0  0  0  0  0  0  0
    5.5556    1.4981   -1.2183 H   0  0  0  0  0  0  0  0  0  0  0  0
    5.7068    3.9779   -1.2241 H   0  0  0  0  0  0  0  0  0  0  0  0
    3.9391    5.3381   -2.3453 H   0  0  0  0  0  0  0  0  0  0  0  0
    2.0127    4.1914   -3.4436 H   0  0  0  0  0  0  0  0  0  0  0  0
    1.8531    1.7163   -3.4142 H   0  0  0  0  0  0  0  0  0  0  0  0
    3.2256    0.4799   -5.1117 H   0  0  0  0  0  0  0  0  0  0  0  0
    3.6555   -1.1442   -5.6464 H   0  0  0  0  0  0  0  0  0  0  0  0
    5.6231    0.8648   -4.3677 H   0  0  0  0  0  0  0  0  0  0  0  0
    5.5145    0.4567   -6.0956 H   0  0  0  0  0  0  0  0  0  0  0  0
    6.0381   -0.7758   -4.9194 H   0  0  0  0  0  0  0  0  0  0  0  0
    4.7528   -4.5719   -2.7334 H   0  0  0  0  0  0  0  0  0  0  0  0
    4.6262   -6.6306   -4.0941 H   0  0  0  0  0  0  0  0  0  0  0  0
    3.1988   -6.7020   -6.1428 H   0  0  0  0  0  0  0  0  0  0  0  0
    1.8743   -4.6844   -6.7870 H   0  0  0  0  0  0  0  0  0  0  0  0
    1.9689   -2.6359   -5.4016 H   0  0  0  0  0  0  0  0  0  0  0  0
    4.1732   -2.8794   -1.1926 H   0  0  0  0  0  0  0  0  0  0  0  0
    2.4195   -2.7590   -1.3037 H   0  0  0  0  0  0  0  0  0  0  0  0
  1  2  1  0
  1 22  1  0
  1 23  1  0
  1 24  1  0
  2  3  1  0
  2 25  1  0
  2 26  1  0
  3  4  2  0
  3 21  1  0
  4  5  1  0
  4 11  1  0
  5  6  2  0
  5 10  1  0
  6  7  1  0
  6 27  1  0
  7  8  2  0
  7 28  1  0
  8  9  1  0
  8 29  1  0
  9 10  2  0
  9 30  1  0
 10 31  1  0
 11 12  1  0
 11 14  2  0
 12 13  1  0
 12 32  1  0
 12 33  1  0
 13 34  1  0
 13 35  1  0
 13 36  1  0
 14 15  1  0
 14 21  1  0
 15 16  2  0
 15 20  1  0
 16 17  1  0
 16 37  1  0
 17 18  2  0
 17 38  1  0
 18 19  1  0
 18 39  1  0
 19 20  2  0
 19 40  1  0
 20 41  1  0
 21 42  1  0
 21 43  1  0
M  END

