
     RDKit          3D

 44 44  0  0  0  0  0  0  0  0999 V2000
    1.6144   -0.2875   -1.1704 C   0  0  0  0  0  0  0  0  0  0  0  0
    2.6129   -0.0238   -0.0295 C   0  0  1  0  0  0  0  0  0  0  0  0
    3.2051   -1.3766    0.3850 C   0  0  0  0  0  0  0  0  0  0  0  0
    3.9090   -2.0469   -0.3631 O   0  0  0  0  0  0  0  0  0  0  0  0
    2.8521   -1.8081    1.6318 N   0  0  0  0  0  0  0  0  0  0  0  0
    3.1767   -3.1263    2.1308 C   0  0  0  0  0  0  0  0  0  0  0  0
    4.2018   -3.1563    3.2934 C   0  0  1  0  0  0  0  0  0  0  0  0
    3.5736   -2.4087    4.4876 C   0  0  0  0  0  0  0  0  0  0  0  0
    2.5009   -1.8596    4.4463 O   0  0  0  0  0  0  0  0  0  0  0  0
    4.2896   -2.3760    5.6292 O   0  0  0  0  0  0  0  0  0  0  0  0
    4.4916   -4.6354    3.6799 C   0  0  0  0  0  0  0  0  0  0  0  0
    5.3766   -5.3418    2.6465 C   0  0  0  0  0  0  0  0  0  0  0  0
    6.5757   -4.6367    2.4193 O   0  0  0  0  0  0  0  0  0  0  0  0
    6.3471   -3.3330    1.9116 C   0  0  0  0  0  0  0  0  0  0  0  0
    5.5477   -2.4845    2.9025 C   0  0  0  0  0  0  0  0  0  0  0  0
    3.7091    1.0549   -0.3505 C   0  0  1  0  0  0  0  0  0  0  0  0
    3.0360    2.4405   -0.4230 C   0  0  0  0  0  0  0  0  0  0  0  0
    4.7451    1.0842    0.7909 C   0  0  0  0  0  0  0  0  0  0  0  0
    4.4332    0.7687   -1.6800 C   0  0  0  0  0  0  0  0  0  0  0  0
    0.7988   -0.9409   -0.8214 H   0  0  0  0  0  0  0  0  0  0  0  0
    2.1074   -0.7935   -2.0125 H   0  0  0  0  0  0  0  0  0  0  0  0
    1.1584    0.6440   -1.5365 H   0  0  0  0  0  0  0  0  0  0  0  0
    2.0450    0.3691    0.8324 H   0  0  0  0  0  0  0  0  0  0  0  0
    2.2826   -1.2248    2.2341 H   0  0  0  0  0  0  0  0  0  0  0  0
    3.5580   -3.6981    1.2760 H   0  0  0  0  0  0  0  0  0  0  0  0
    2.2541   -3.6153    2.4827 H   0  0  0  0  0  0  0  0  0  0  0  0
    5.1265   -2.8513    5.5253 H   0  0  0  0  0  0  0  0  0  0  0  0
    3.5463   -5.1882    3.8137 H   0  0  0  0  0  0  0  0  0  0  0  0
    5.0180   -4.6757    4.6491 H   0  0  0  0  0  0  0  0  0  0  0  0
    4.8256   -5.4867    1.6953 H   0  0  0  0  0  0  0  0  0  0  0  0
    5.6580   -6.3406    3.0142 H   0  0  0  0  0  0  0  0  0  0  0  0
    5.8289   -3.3726    0.9346 H   0  0  0  0  0  0  0  0  0  0  0  0
    7.3379   -2.8844    1.7441 H   0  0  0  0  0  0  0  0  0  0  0  0
    5.3588   -1.4842    2.4844 H   0  0  0  0  0  0  0  0  0  0  0  0
    6.1687   -2.3413    3.8040 H   0  0  0  0  0  0  0  0  0  0  0  0
    2.5396    2.6984    0.5275 H   0  0  0  0  0  0  0  0  0  0  0  0
    2.2821    2.4946   -1.2234 H   0  0  0  0  0  0  0  0  0  0  0  0
    3.7870    3.2202   -0.6293 H   0  0  0  0  0  0  0  0  0  0  0  0
    4.2634    1.2265    1.7729 H   0  0  0  0  0  0  0  0  0  0  0  0
    5.4555    1.9141    0.6465 H   0  0  0  0  0  0  0  0  0  0  0  0
    5.3308    0.1529    0.8249 H   0  0  0  0  0  0  0  0  0  0  0  0
    3.7507    0.8533   -2.5400 H   0  0  0  0  0  0  0  0  0  0  0  0
    4.8626   -0.2427   -1.6858 H   0  0  0  0  0  0  0  0  0  0  0  0
    5.2442    1.4998   -1.8332 H   0  0  0  0  0  0  0  0  0  0  0  0
  1  2  1  0
  1 20  1  0
  1 21  1  0
  1 22  1  0
  2  3  1  0
  2 16  1  0
  2 23  1  1
  3  4  2  0
  3  5  1  0
  5  6  1  0
  5 24  1  0
  6  7  1  0
  6 25  1  0
  6 26  1  0
  7  8  1  1
  7 11  1  0
  7 15  1  0
  8  9  2  0
  8 10  1  0
 10 27  1  0
 11 12  1  0
 11 28  1  0
 11 29  1  0
 12 13  1  0
 12 30  1  0
 12 31  1  0
 13 14  1  0
 14 15  1  0
 14 32  1  0
 14 33  1  0
 15 34  1  0
 15 35  1  0
 16 17  1  6
 16 18  1  0
 16 19  1  0
 17 36  1  0
 17 37  1  0
 17 38  1  0
 18 39  1  0
 18 40  1  0
 18 41  1  0
 19 42  1  0
 19 43  1  0
 19 44  1  0
M  END

