
     RDKit          3D

 24 24  0  0  0  0  0  0  0  0999 V2000
    0.9075   -0.1821    0.0249 C   0  0  0  0  0  0  0  0  0  0  0  0
    2.4132    0.0722   -0.0557 C   0  0  0  0  0  0  0  0  0  0  0  0
    2.9539    0.8687    1.1350 C   0  0  0  0  0  0  0  0  0  0  0  0
    4.4608    1.1147    1.0346 C   0  0  0  0  0  0  0  0  0  0  0  0
    5.0021    1.8726    2.1645 N   0  0  0  0  0  0  0  0  0  0  0  0
    5.5150    3.1524    2.0501 C   0  0  0  0  0  0  0  0  0  0  0  0
    5.4536    3.8452    1.0623 O   0  0  0  0  0  0  0  0  0  0  0  0
    6.2216    3.5360    3.3576 C   0  0  0  0  0  0  0  0  0  0  0  0
    5.9368    2.5193    4.3742 N   0  0  0  0  0  0  0  0  0  0  0  0
    5.4615    1.0829    3.6252 S   0  0  1  0  0  0  0  0  0  0  0  0
    4.2962    0.5522    4.3191 O   0  0  0  0  0  0  0  0  0  0  0  0
    6.6030    0.2325    3.3358 O   0  0  0  0  0  0  0  0  0  0  0  0
    0.5499   -0.7598   -0.8419 H   0  0  0  0  0  0  0  0  0  0  0  0
    0.3422    0.7644    0.0510 H   0  0  0  0  0  0  0  0  0  0  0  0
    0.6461   -0.7479    0.9345 H   0  0  0  0  0  0  0  0  0  0  0  0
    2.6485    0.6096   -0.9924 H   0  0  0  0  0  0  0  0  0  0  0  0
    2.9472   -0.8934   -0.1204 H   0  0  0  0  0  0  0  0  0  0  0  0
    2.7365    0.3365    2.0762 H   0  0  0  0  0  0  0  0  0  0  0  0
    2.4395    1.8435    1.1998 H   0  0  0  0  0  0  0  0  0  0  0  0
    4.7041    1.7069    0.1385 H   0  0  0  0  0  0  0  0  0  0  0  0
    5.0144    0.1627    0.9652 H   0  0  0  0  0  0  0  0  0  0  0  0
    5.8772    4.5259    3.6877 H   0  0  0  0  0  0  0  0  0  0  0  0
    7.3027    3.6069    3.1539 H   0  0  0  0  0  0  0  0  0  0  0  0
    5.1889    2.7805    5.0170 H   0  0  0  0  0  0  0  0  0  0  0  0
  1  2  1  0
  1 13  1  0
  1 14  1  0
  1 15  1  0
  2  3  1  0
  2 16  1  0
  2 17  1  0
  3  4  1  0
  3 18  1  0
  3 19  1  0
  4  5  1  0
  4 20  1  0
  4 21  1  0
  5  6  1  0
 10  5  1  6
  6  7  2  0
  6  8  1  0
  8  9  1  0
  8 22  1  0
  8 23  1  0
  9 10  1  0
  9 24  1  0
 10 11  2  0
 10 12  2  0
M  END

