
     RDKit          3D

 43 45  0  0  0  0  0  0  0  0999 V2000
    1.3985   -0.0470   -1.2562 O   0  0  0  0  0  0  0  0  0  0  0  0
    2.1702   -0.2310   -0.3233 C   0  0  0  0  0  0  0  0  0  0  0  0
    2.4211   -1.4757    0.1849 N   0  0  0  0  0  0  0  0  0  0  0  0
    1.7926   -2.6779   -0.3623 C   0  0  1  0  0  0  0  0  0  0  0  0
    2.7058   -3.8993   -0.1583 C   0  0  0  0  0  0  0  0  0  0  0  0
    2.7685   -4.3585    1.3072 C   0  0  0  0  0  0  0  0  0  0  0  0
    1.3673   -4.6050    1.8840 C   0  0  0  0  0  0  0  0  0  0  0  0
    0.4610   -3.3784    1.7065 C   0  0  0  0  0  0  0  0  0  0  0  0
    0.3948   -2.9360    0.2393 C   0  0  0  0  0  0  0  0  0  0  0  0
    2.8919    0.9149    0.3240 C   0  0  0  0  0  0  0  0  0  0  0  0
    2.4192    2.2180    0.0937 C   0  0  0  0  0  0  0  0  0  0  0  0
    3.0647    3.3096    0.6542 C   0  0  0  0  0  0  0  0  0  0  0  0
    4.2149    3.0742    1.4440 C   0  0  0  0  0  0  0  0  0  0  0  0
    4.9455    4.0545    2.0860 N   0  0  0  0  0  0  0  0  0  0  0  0
    4.9107    5.4444    2.0100 C   0  0  0  0  0  0  0  0  0  0  0  0
    4.4699    6.1983    0.9070 C   0  0  0  0  0  0  0  0  0  0  0  0
    4.5014    7.5960    0.9385 C   0  0  0  0  0  0  0  0  0  0  0  0
    4.9884    8.2777    2.0554 C   0  0  0  0  0  0  0  0  0  0  0  0
    5.4593    7.5479    3.1531 C   0  0  0  0  0  0  0  0  0  0  0  0
    5.4120    6.1636    3.1155 C   0  0  0  0  0  0  0  0  0  0  0  0
    5.8746    5.4498    4.1621 F   0  0  0  0  0  0  0  0  0  0  0  0
    4.6756    1.8317    1.6667 N   0  0  0  0  0  0  0  0  0  0  0  0
    4.0371    0.8003    1.1252 C   0  0  0  0  0  0  0  0  0  0  0  0
    2.9397   -1.5526    1.0501 H   0  0  0  0  0  0  0  0  0  0  0  0
    1.6706   -2.4800   -1.4372 H   0  0  0  0  0  0  0  0  0  0  0  0
    3.7144   -3.6779   -0.5450 H   0  0  0  0  0  0  0  0  0  0  0  0
    2.3064   -4.7247   -0.7728 H   0  0  0  0  0  0  0  0  0  0  0  0
    3.2869   -3.5975    1.9222 H   0  0  0  0  0  0  0  0  0  0  0  0
    3.3856   -5.2689    1.3873 H   0  0  0  0  0  0  0  0  0  0  0  0
    1.4356   -4.8852    2.9486 H   0  0  0  0  0  0  0  0  0  0  0  0
    0.9122   -5.4686    1.3644 H   0  0  0  0  0  0  0  0  0  0  0  0
    0.8452   -2.5458    2.3246 H   0  0  0  0  0  0  0  0  0  0  0  0
   -0.5527   -3.5921    2.0839 H   0  0  0  0  0  0  0  0  0  0  0  0
   -0.2185   -2.0295    0.1199 H   0  0  0  0  0  0  0  0  0  0  0  0
   -0.0924   -3.7269   -0.3594 H   0  0  0  0  0  0  0  0  0  0  0  0
    1.5317    2.3450   -0.5298 H   0  0  0  0  0  0  0  0  0  0  0  0
    2.6716    4.3140    0.5108 H   0  0  0  0  0  0  0  0  0  0  0  0
    5.5972    3.6655    2.7609 H   0  0  0  0  0  0  0  0  0  0  0  0
    4.1293    5.6902    0.0061 H   0  0  0  0  0  0  0  0  0  0  0  0
    4.1504    8.1538    0.0672 H   0  0  0  0  0  0  0  0  0  0  0  0
    5.0130    9.3691    2.0749 H   0  0  0  0  0  0  0  0  0  0  0  0
    5.8595    8.0346    4.0448 H   0  0  0  0  0  0  0  0  0  0  0  0
    4.4850   -0.1814    1.3250 H   0  0  0  0  0  0  0  0  0  0  0  0
  1  2  2  0
  2  3  1  0
  2 10  1  0
  3  4  1  0
  3 24  1  0
  4  5  1  0
  4  9  1  0
  4 25  1  6
  5  6  1  0
  5 26  1  0
  5 27  1  0
  6  7  1  0
  6 28  1  0
  6 29  1  0
  7  8  1  0
  7 30  1  0
  7 31  1  0
  8  9  1  0
  8 32  1  0
  8 33  1  0
  9 34  1  0
  9 35  1  0
 10 11  2  0
 10 23  1  0
 11 12  1  0
 11 36  1  0
 12 13  2  0
 12 37  1  0
 13 14  1  0
 13 22  1  0
 14 15  1  0
 14 38  1  0
 15 16  2  0
 15 20  1  0
 16 17  1  0
 16 39  1  0
 17 18  2  0
 17 40  1  0
 18 19  1  0
 18 41  1  0
 19 20  2  0
 19 42  1  0
 20 21  1  0
 22 23  2  0
 23 43  1  0
M  END

