
     RDKit          3D

 40 41  0  0  0  0  0  0  0  0999 V2000
    0.0492    0.6472    1.0615 C   0  0  0  0  0  0  0  0  0  0  0  0
    1.5446    0.3607    0.9280 C   0  0  0  0  0  0  0  0  0  0  0  0
    2.4238    1.5641    1.2654 C   0  0  0  0  0  0  0  0  0  0  0  0
    3.8374    1.2407    1.1688 N   0  0  0  0  0  0  0  0  0  0  0  0
    4.7370    2.3328    1.4882 C   0  0  0  0  0  0  0  0  0  0  0  0
    6.1954    1.9162    1.4670 C   0  0  0  0  0  0  0  0  0  0  0  0
    6.5625    0.6153    1.8529 C   0  0  0  0  0  0  0  0  0  0  0  0
    7.9097    0.2841    1.8647 C   0  0  0  0  0  0  0  0  0  0  0  0
    8.2745   -0.9557    2.2306 F   0  0  0  0  0  0  0  0  0  0  0  0
    8.9193    1.1819    1.5125 C   0  0  0  0  0  0  0  0  0  0  0  0
    8.5425    2.4759    1.1253 C   0  0  0  0  0  0  0  0  0  0  0  0
    9.4210    3.4440    0.7538 O   0  0  0  0  0  0  0  0  0  0  0  0
   10.8192    3.1533    0.7420 C   0  0  0  0  0  0  0  0  0  0  0  0
   11.5806    4.3622    0.3326 C   0  0  0  0  0  0  0  0  0  0  0  0
   12.4964    5.1373    1.0185 C   0  0  0  0  0  0  0  0  0  0  0  0
   12.9616    6.1532    0.2301 N   0  0  0  0  0  0  0  0  0  0  0  0
   12.3407    6.0083   -0.9190 C   0  0  0  0  0  0  0  0  0  0  0  0
   11.4897    4.9383   -0.9238 N   0  0  0  0  0  0  0  0  0  0  0  0
   10.6475    4.5029   -2.0211 C   0  0  0  0  0  0  0  0  0  0  0  0
    7.1827    2.8334    1.1006 C   0  0  0  0  0  0  0  0  0  0  0  0
   -0.5530   -0.2389    0.8065 H   0  0  0  0  0  0  0  0  0  0  0  0
   -0.2674    1.4666    0.3945 H   0  0  0  0  0  0  0  0  0  0  0  0
   -0.2129    0.9405    2.0919 H   0  0  0  0  0  0  0  0  0  0  0  0
    1.7661    0.0323   -0.1048 H   0  0  0  0  0  0  0  0  0  0  0  0
    1.8368   -0.4774    1.5832 H   0  0  0  0  0  0  0  0  0  0  0  0
    2.2178    1.8885    2.3023 H   0  0  0  0  0  0  0  0  0  0  0  0
    2.1326    2.4254    0.6185 H   0  0  0  0  0  0  0  0  0  0  0  0
    4.0525    0.8750    0.2407 H   0  0  0  0  0  0  0  0  0  0  0  0
    4.4873    2.6834    2.5082 H   0  0  0  0  0  0  0  0  0  0  0  0
    4.6078    3.2229    0.8317 H   0  0  0  0  0  0  0  0  0  0  0  0
    5.8050   -0.1171    2.1313 H   0  0  0  0  0  0  0  0  0  0  0  0
    9.9536    0.8444    1.5487 H   0  0  0  0  0  0  0  0  0  0  0  0
   11.0065    2.3039    0.0562 H   0  0  0  0  0  0  0  0  0  0  0  0
   11.1590    2.8474    1.7466 H   0  0  0  0  0  0  0  0  0  0  0  0
   12.8357    4.9999    2.0457 H   0  0  0  0  0  0  0  0  0  0  0  0
   12.4544    6.6505   -1.7941 H   0  0  0  0  0  0  0  0  0  0  0  0
   10.7538    5.2089   -2.8558 H   0  0  0  0  0  0  0  0  0  0  0  0
    9.5942    4.4680   -1.7083 H   0  0  0  0  0  0  0  0  0  0  0  0
   10.9420    3.5013   -2.3748 H   0  0  0  0  0  0  0  0  0  0  0  0
    6.9228    3.8479    0.7910 H   0  0  0  0  0  0  0  0  0  0  0  0
  1  2  1  0
  1 21  1  0
  1 22  1  0
  1 23  1  0
  2  3  1  0
  2 24  1  0
  2 25  1  0
  3  4  1  0
  3 26  1  0
  3 27  1  0
  4  5  1  0
  4 28  1  0
  5  6  1  0
  5 29  1  0
  5 30  1  0
  6  7  2  0
  6 20  1  0
  7  8  1  0
  7 31  1  0
  8  9  1  0
  8 10  2  0
 10 11  1  0
 10 32  1  0
 11 12  1  0
 11 20  2  0
 12 13  1  0
 13 14  1  0
 13 33  1  0
 13 34  1  0
 14 15  2  0
 14 18  1  0
 15 16  1  0
 15 35  1  0
 16 17  2  0
 17 18  1  0
 17 36  1  0
 18 19  1  0
 19 37  1  0
 19 38  1  0
 19 39  1  0
 20 40  1  0
M  END

