
     RDKit          3D

226242  0  0  0  0  0  0  0  0999 V2000
   23.6422   13.6875    4.2866 C   0  0  0  0  0  0  0  0  0  0  0  0
   22.3679   14.1949    3.6100 C   0  0  0  0  0  0  0  0  0  0  0  0
   21.2180   13.1829    3.6284 C   0  0  0  0  0  0  0  0  0  0  0  0
   19.9380   13.6826    2.9523 C   0  0  0  0  0  0  0  0  0  0  0  0
   18.7890   12.6702    2.9706 C   0  0  0  0  0  0  0  0  0  0  0  0
   17.5096   13.1694    2.2926 C   0  0  0  0  0  0  0  0  0  0  0  0
   16.3620   12.1554    2.3096 C   0  0  0  0  0  0  0  0  0  0  0  0
   15.0836   12.6535    1.6290 C   0  0  0  0  0  0  0  0  0  0  0  0
   13.9400   11.6335    1.6463 C   0  0  0  0  0  0  0  0  0  0  0  0
   12.6774   12.1436    0.9461 C   0  0  0  0  0  0  0  0  0  0  0  0
   11.4461   11.1917    0.9527 C   0  0  2  0  0  0  0  0  0  0  0  0
   10.3049   11.8655    0.1370 C   0  0  0  0  0  0  0  0  0  0  0  0
    8.9945   11.0829    0.0167 C   0  0  0  0  0  0  0  0  0  0  0  0
    7.9318   11.8215   -0.8040 C   0  0  0  0  0  0  0  0  0  0  0  0
    6.6123   11.0550   -0.9350 C   0  0  0  0  0  0  0  0  0  0  0  0
    5.5475   11.7883   -1.7560 C   0  0  0  0  0  0  0  0  0  0  0  0
    4.2277   11.0223   -1.8863 C   0  0  0  0  0  0  0  0  0  0  0  0
    3.1624   11.7546   -2.7077 C   0  0  0  0  0  0  0  0  0  0  0  0
    1.8426   10.9890   -2.8379 C   0  0  0  0  0  0  0  0  0  0  0  0
    0.7767   11.7210   -3.6594 C   0  0  0  0  0  0  0  0  0  0  0  0
   -0.5380   10.9495   -3.7843 C   0  0  0  0  0  0  0  0  0  0  0  0
   11.0003   10.8457    2.3743 C   0  0  0  0  0  0  0  0  0  0  0  0
   10.5586   11.6991    3.3746 C   0  0  0  0  0  0  0  0  0  0  0  0
   10.1882   11.1709    4.6316 C   0  0  0  0  0  0  0  0  0  0  0  0
    9.7235   12.0954    5.6748 C   0  0  0  0  0  0  0  0  0  0  0  0
    9.6258   13.3807    5.5188 N   0  0  0  0  0  0  0  0  0  0  0  0
    9.1649   14.0109    6.6515 C   0  0  0  0  0  0  0  0  0  0  0  0
    8.9549   15.3952    6.7902 C   0  0  0  0  0  0  0  0  0  0  0  0
    8.4830   15.8910    8.0012 C   0  0  0  0  0  0  0  0  0  0  0  0
    8.2155   15.0276    9.0816 C   0  0  0  0  0  0  0  0  0  0  0  0
    8.4158   13.6519    8.9685 C   0  0  0  0  0  0  0  0  0  0  0  0
    8.8906   13.1519    7.7506 C   0  0  0  0  0  0  0  0  0  0  0  0
    9.2415   11.5040    7.2904 S   0  0  0  0  0  0  0  0  0  0  0  0
   10.2732    9.7813    4.8501 C   0  0  0  0  0  0  0  0  0  0  0  0
   10.7171    8.9205    3.8463 C   0  0  0  0  0  0  0  0  0  0  0  0
   11.0818    9.4535    2.6052 C   0  0  0  0  0  0  0  0  0  0  0  0
   11.5800    8.8083    1.3858 C   0  0  0  0  0  0  0  0  0  0  0  0
   11.8495    7.4653    1.1006 C   0  0  0  0  0  0  0  0  0  0  0  0
   12.3474    7.1265   -0.1586 C   0  0  0  0  0  0  0  0  0  0  0  0
   12.5633    8.1196   -1.1214 C   0  0  0  0  0  0  0  0  0  0  0  0
   13.0981    7.7567   -2.4136 N   0  0  0  0  0  0  0  0  0  0  0  0
   12.2384    7.0947   -3.3149 C   0  0  0  0  0  0  0  0  0  0  0  0
   11.0886    6.8448   -3.0147 O   0  0  0  0  0  0  0  0  0  0  0  0
   12.8172    6.7274   -4.6350 C   0  0  0  0  0  0  0  0  0  0  0  0
   12.0205    6.0734   -5.5629 C   0  0  0  0  0  0  0  0  0  0  0  0
   12.5372    5.7122   -6.8142 C   0  0  0  0  0  0  0  0  0  0  0  0
   13.8588    5.9911   -7.1771 C   0  0  0  0  0  0  0  0  0  0  0  0
   14.4106    5.6132   -8.4888 C   0  0  0  0  0  0  0  0  0  0  0  0
   13.6498    4.9479   -9.4556 C   0  0  0  0  0  0  0  0  0  0  0  0
   14.1829    4.5906  -10.7010 C   0  0  0  0  0  0  0  0  0  0  0  0
   15.4996    4.8926  -11.0155 C   0  0  0  0  0  0  0  0  0  0  0  0
   16.3103    5.5684  -10.0681 C   0  0  0  0  0  0  0  0  0  0  0  0
   17.6557    5.8782  -10.3922 C   0  0  0  0  0  0  0  0  0  0  0  0
   18.4514    6.5354   -9.4657 C   0  0  0  0  0  0  0  0  0  0  0  0
   17.9350    6.8954   -8.2140 C   0  0  0  0  0  0  0  0  0  0  0  0
   16.6144    6.6132   -7.8498 C   0  0  0  0  0  0  0  0  0  0  0  0
   16.0635    6.9885   -6.5370 C   0  0  0  0  0  0  0  0  0  0  0  0
   16.8255    7.6501   -5.5687 C   0  0  0  0  0  0  0  0  0  0  0  0
   16.2931    8.0052   -4.3223 C   0  0  0  0  0  0  0  0  0  0  0  0
   14.9757    7.7054   -4.0088 C   0  0  0  0  0  0  0  0  0  0  0  0
   14.1637    7.0338   -4.9580 C   0  0  0  0  0  0  0  0  0  0  0  0
   14.6998    6.6681   -6.2346 C   0  0  0  0  0  0  0  0  0  0  0  0
   14.4413    8.0972   -2.6772 C   0  0  0  0  0  0  0  0  0  0  0  0
   15.1151    8.6784   -1.8502 O   0  0  0  0  0  0  0  0  0  0  0  0
   15.7739    5.9347   -8.7917 C   0  0  0  0  0  0  0  0  0  0  0  0
   18.2346    5.5111  -11.7124 C   0  0  0  0  0  0  0  0  0  0  0  0
   19.3829    5.7649  -12.0149 O   0  0  0  0  0  0  0  0  0  0  0  0
   17.3766    4.8435  -12.6108 N   0  0  0  0  0  0  0  0  0  0  0  0
   17.9133    4.4775  -13.9015 C   0  0  0  0  0  0  0  0  0  0  0  0
   18.0901    5.4616  -14.8812 C   0  0  0  0  0  0  0  0  0  0  0  0
   18.5927    5.1195  -16.1377 C   0  0  0  0  0  0  0  0  0  0  0  0
   18.9081    3.7823  -16.4021 C   0  0  0  0  0  0  0  0  0  0  0  0
   18.7308    2.7933  -15.4107 C   0  0  0  0  0  0  0  0  0  0  0  0
   18.2376    3.1397  -14.1578 C   0  0  0  0  0  0  0  0  0  0  0  0
   19.1319    1.4132  -15.9295 C   0  0  1  0  0  0  0  0  0  0  0  0
   20.3011    0.7989  -15.1063 C   0  0  0  0  0  0  0  0  0  0  0  0
   21.5801    1.6344  -15.0046 C   0  0  0  0  0  0  0  0  0  0  0  0
   22.6743    0.9519  -14.1767 C   0  0  0  0  0  0  0  0  0  0  0  0
   23.9630    1.7720  -14.0645 C   0  0  0  0  0  0  0  0  0  0  0  0
   25.0596    1.0947  -13.2374 C   0  0  0  0  0  0  0  0  0  0  0  0
   26.3487    1.9143  -13.1266 C   0  0  0  0  0  0  0  0  0  0  0  0
   27.4462    1.2380  -12.2996 C   0  0  0  0  0  0  0  0  0  0  0  0
   28.7354    2.0572  -12.1892 C   0  0  0  0  0  0  0  0  0  0  0  0
   29.8337    1.3815  -11.3623 C   0  0  0  0  0  0  0  0  0  0  0  0
   31.1173    2.2063  -11.2574 C   0  0  0  0  0  0  0  0  0  0  0  0
   17.9389    0.4144  -15.9018 C   0  0  0  0  0  0  0  0  0  0  0  0
   16.6582    0.8580  -16.6144 C   0  0  0  0  0  0  0  0  0  0  0  0
   15.5560   -0.2058  -16.5735 C   0  0  0  0  0  0  0  0  0  0  0  0
   14.2636    0.2193  -17.2770 C   0  0  0  0  0  0  0  0  0  0  0  0
   13.1591   -0.8409  -17.2377 C   0  0  0  0  0  0  0  0  0  0  0  0
   11.8681   -0.4196  -17.9459 C   0  0  0  0  0  0  0  0  0  0  0  0
   10.7633   -1.4795  -17.9061 C   0  0  0  0  0  0  0  0  0  0  0  0
    9.4732   -1.0607  -18.6170 C   0  0  0  0  0  0  0  0  0  0  0  0
    8.3681   -2.1208  -18.5772 C   0  0  0  0  0  0  0  0  0  0  0  0
    7.0840   -1.6953  -19.2907 C   0  0  0  0  0  0  0  0  0  0  0  0
   19.5599    1.7513  -17.3585 C   0  0  0  0  0  0  0  0  0  0  0  0
   20.0304    0.8980  -18.3457 C   0  0  0  0  0  0  0  0  0  0  0  0
   20.3774    1.4183  -19.6127 C   0  0  0  0  0  0  0  0  0  0  0  0
   20.8733    0.4943  -20.6418 C   0  0  0  0  0  0  0  0  0  0  0  0
   21.0186   -0.7838  -20.4647 N   0  0  0  0  0  0  0  0  0  0  0  0
   21.4995   -1.4155  -21.5882 C   0  0  0  0  0  0  0  0  0  0  0  0
   21.7600   -2.7933  -21.7044 C   0  0  0  0  0  0  0  0  0  0  0  0
   22.2468   -3.2917  -22.9085 C   0  0  0  0  0  0  0  0  0  0  0  0
   22.4798   -2.4372  -24.0039 C   0  0  0  0  0  0  0  0  0  0  0  0
   22.2294   -1.0682  -23.9131 C   0  0  0  0  0  0  0  0  0  0  0  0
   21.7395   -0.5656  -22.7022 C   0  0  0  0  0  0  0  0  0  0  0  0
   21.3294    1.0759  -22.2684 S   0  0  0  0  0  0  0  0  0  0  0  0
   20.2400    2.7999  -19.8543 C   0  0  0  0  0  0  0  0  0  0  0  0
   19.7670    3.6605  -18.8636 C   0  0  0  0  0  0  0  0  0  0  0  0
   19.4259    3.1353  -17.6125 C   0  0  0  0  0  0  0  0  0  0  0  0
   16.0352    4.4981  -12.3459 C   0  0  0  0  0  0  0  0  0  0  0  0
   15.3643    3.9105  -13.1708 O   0  0  0  0  0  0  0  0  0  0  0  0
   12.2829    9.4634   -0.8450 C   0  0  0  0  0  0  0  0  0  0  0  0
   11.7965    9.8064    0.4114 C   0  0  0  0  0  0  0  0  0  0  0  0
   24.4465   14.4399    4.2546 H   0  0  0  0  0  0  0  0  0  0  0  0
   24.0209   12.7750    3.7958 H   0  0  0  0  0  0  0  0  0  0  0  0
   23.4618   13.4387    5.3461 H   0  0  0  0  0  0  0  0  0  0  0  0
   22.5911   14.4710    2.5631 H   0  0  0  0  0  0  0  0  0  0  0  0
   22.0368   15.1287    4.1002 H   0  0  0  0  0  0  0  0  0  0  0  0
   20.9936   12.9064    4.6758 H   0  0  0  0  0  0  0  0  0  0  0  0
   21.5485   12.2477    3.1383 H   0  0  0  0  0  0  0  0  0  0  0  0
   20.1633   13.9594    1.9052 H   0  0  0  0  0  0  0  0  0  0  0  0
   19.6080   14.6176    3.4427 H   0  0  0  0  0  0  0  0  0  0  0  0
   18.5628   12.3943    4.0175 H   0  0  0  0  0  0  0  0  0  0  0  0
   19.1191   11.7349    2.4812 H   0  0  0  0  0  0  0  0  0  0  0  0
   17.7362   13.4457    1.2457 H   0  0  0  0  0  0  0  0  0  0  0  0
   17.1785   14.1043    2.7823 H   0  0  0  0  0  0  0  0  0  0  0  0
   16.1337   11.8803    3.3562 H   0  0  0  0  0  0  0  0  0  0  0  0
   16.6928   11.2206    1.8205 H   0  0  0  0  0  0  0  0  0  0  0  0
   15.3131   12.9282    0.5823 H   0  0  0  0  0  0  0  0  0  0  0  0
   14.7506   13.5884    2.1176 H   0  0  0  0  0  0  0  0  0  0  0  0
   13.7053   11.3706    2.6926 H   0  0  0  0  0  0  0  0  0  0  0  0
   14.2806   10.7020    1.1626 H   0  0  0  0  0  0  0  0  0  0  0  0
   12.9180   12.3792   -0.1062 H   0  0  0  0  0  0  0  0  0  0  0  0
   12.3654   13.1001    1.4020 H   0  0  0  0  0  0  0  0  0  0  0  0
   10.6939   12.0801   -0.8746 H   0  0  0  0  0  0  0  0  0  0  0  0
   10.1012   12.8509    0.5927 H   0  0  0  0  0  0  0  0  0  0  0  0
    8.5928   10.8738    1.0234 H   0  0  0  0  0  0  0  0  0  0  0  0
    9.1894   10.0993   -0.4448 H   0  0  0  0  0  0  0  0  0  0  0  0
    8.3304   12.0345   -1.8137 H   0  0  0  0  0  0  0  0  0  0  0  0
    7.7354   12.8093   -0.3465 H   0  0  0  0  0  0  0  0  0  0  0  0
    6.2130   10.8432    0.0743 H   0  0  0  0  0  0  0  0  0  0  0  0
    6.8092   10.0671   -1.3911 H   0  0  0  0  0  0  0  0  0  0  0  0
    5.9470   12.0001   -2.7656 H   0  0  0  0  0  0  0  0  0  0  0  0
    5.3517   12.7769   -1.3000 H   0  0  0  0  0  0  0  0  0  0  0  0
    3.8282   10.8108   -0.8769 H   0  0  0  0  0  0  0  0  0  0  0  0
    4.4238   10.0337   -2.3418 H   0  0  0  0  0  0  0  0  0  0  0  0
    3.5621   11.9661   -3.7172 H   0  0  0  0  0  0  0  0  0  0  0  0
    2.9667   12.7433   -2.2520 H   0  0  0  0  0  0  0  0  0  0  0  0
    1.4422   10.7775   -1.8285 H   0  0  0  0  0  0  0  0  0  0  0  0
    2.0376   10.0000   -3.2937 H   0  0  0  0  0  0  0  0  0  0  0  0
    1.1778   11.9320   -4.6677 H   0  0  0  0  0  0  0  0  0  0  0  0
    0.5827   12.7090   -3.2032 H   0  0  0  0  0  0  0  0  0  0  0  0
   -0.3846    9.9718   -4.2716 H   0  0  0  0  0  0  0  0  0  0  0  0
   -1.2799   11.5049   -4.3804 H   0  0  0  0  0  0  0  0  0  0  0  0
   -0.9848   10.7557   -2.7945 H   0  0  0  0  0  0  0  0  0  0  0  0
   10.4851   12.7781    3.2263 H   0  0  0  0  0  0  0  0  0  0  0  0
    9.1668   16.0513    5.9437 H   0  0  0  0  0  0  0  0  0  0  0  0
    8.3168   16.9647    8.1183 H   0  0  0  0  0  0  0  0  0  0  0  0
    7.8453   15.4398   10.0235 H   0  0  0  0  0  0  0  0  0  0  0  0
    8.2071   12.9865    9.8089 H   0  0  0  0  0  0  0  0  0  0  0  0
    9.9881    9.3648    5.8195 H   0  0  0  0  0  0  0  0  0  0  0  0
   10.7760    7.8460    4.0358 H   0  0  0  0  0  0  0  0  0  0  0  0
   11.6825    6.6867    1.8487 H   0  0  0  0  0  0  0  0  0  0  0  0
   12.5714    6.0863   -0.4022 H   0  0  0  0  0  0  0  0  0  0  0  0
   10.9867    5.8474   -5.2954 H   0  0  0  0  0  0  0  0  0  0  0  0
   11.8748    5.1996   -7.5110 H   0  0  0  0  0  0  0  0  0  0  0  0
   12.6107    4.6906   -9.2526 H   0  0  0  0  0  0  0  0  0  0  0  0
   13.5756    4.0702  -11.4437 H   0  0  0  0  0  0  0  0  0  0  0  0
   19.4842    6.7643   -9.7344 H   0  0  0  0  0  0  0  0  0  0  0  0
   18.5966    7.4101   -7.5179 H   0  0  0  0  0  0  0  0  0  0  0  0
   17.8651    7.9059   -5.7710 H   0  0  0  0  0  0  0  0  0  0  0  0
   16.9017    8.5220   -3.5781 H   0  0  0  0  0  0  0  0  0  0  0  0
   17.8318    6.4972  -14.6527 H   0  0  0  0  0  0  0  0  0  0  0  0
   18.7292    5.8911  -16.8991 H   0  0  0  0  0  0  0  0  0  0  0  0
   18.0882    2.3904  -13.3774 H   0  0  0  0  0  0  0  0  0  0  0  0
   20.5420   -0.1855  -15.5457 H   0  0  0  0  0  0  0  0  0  0  0  0
   19.9238    0.5869  -14.0897 H   0  0  0  0  0  0  0  0  0  0  0  0
   21.3482    2.6170  -14.5584 H   0  0  0  0  0  0  0  0  0  0  0  0
   21.9694    1.8424  -16.0163 H   0  0  0  0  0  0  0  0  0  0  0  0
   22.9077   -0.0348  -14.6188 H   0  0  0  0  0  0  0  0  0  0  0  0
   22.2884    0.7402  -13.1617 H   0  0  0  0  0  0  0  0  0  0  0  0
   23.7291    2.7586  -13.6233 H   0  0  0  0  0  0  0  0  0  0  0  0
   24.3491    1.9830  -15.0791 H   0  0  0  0  0  0  0  0  0  0  0  0
   25.2923    0.1074  -13.6784 H   0  0  0  0  0  0  0  0  0  0  0  0
   24.6735    0.8839  -12.2224 H   0  0  0  0  0  0  0  0  0  0  0  0
   26.1159    2.9016  -12.6858 H   0  0  0  0  0  0  0  0  0  0  0  0
   26.7346    2.1251  -14.1414 H   0  0  0  0  0  0  0  0  0  0  0  0
   27.6786    0.2506  -12.7405 H   0  0  0  0  0  0  0  0  0  0  0  0
   27.0603    1.0273  -11.2846 H   0  0  0  0  0  0  0  0  0  0  0  0
   28.5036    3.0450  -11.7482 H   0  0  0  0  0  0  0  0  0  0  0  0
   29.1219    2.2681  -13.2041 H   0  0  0  0  0  0  0  0  0  0  0  0
   30.0643    0.3946  -11.8037 H   0  0  0  0  0  0  0  0  0  0  0  0
   29.4465    1.1711  -10.3484 H   0  0  0  0  0  0  0  0  0  0  0  0
   31.5510    2.4016  -12.2527 H   0  0  0  0  0  0  0  0  0  0  0  0
   31.8837    1.6905  -10.6567 H   0  0  0  0  0  0  0  0  0  0  0  0
   30.9277    3.1849  -10.7849 H   0  0  0  0  0  0  0  0  0  0  0  0
   17.7065    0.1929  -14.8447 H   0  0  0  0  0  0  0  0  0  0  0  0
   18.2887   -0.5391  -16.3361 H   0  0  0  0  0  0  0  0  0  0  0  0
   16.8843    1.1046  -17.6665 H   0  0  0  0  0  0  0  0  0  0  0  0
   16.2806    1.7871  -16.1539 H   0  0  0  0  0  0  0  0  0  0  0  0
   15.3302   -0.4590  -15.5207 H   0  0  0  0  0  0  0  0  0  0  0  0
   15.9298   -1.1404  -17.0323 H   0  0  0  0  0  0  0  0  0  0  0  0
   14.4889    0.4724  -18.3298 H   0  0  0  0  0  0  0  0  0  0  0  0
   13.8904    1.1536  -16.8184 H   0  0  0  0  0  0  0  0  0  0  0  0
   12.9318   -1.0918  -16.1846 H   0  0  0  0  0  0  0  0  0  0  0  0
   13.5350   -1.7767  -17.6922 H   0  0  0  0  0  0  0  0  0  0  0  0
   12.0954   -0.1695  -18.9990 H   0  0  0  0  0  0  0  0  0  0  0  0
   11.4923    0.5165  -17.4922 H   0  0  0  0  0  0  0  0  0  0  0  0
   10.5346   -1.7283  -16.8528 H   0  0  0  0  0  0  0  0  0  0  0  0
   11.1405   -2.4161  -18.3578 H   0  0  0  0  0  0  0  0  0  0  0  0
    9.7013   -0.8124  -19.6707 H   0  0  0  0  0  0  0  0  0  0  0  0
    9.0952   -0.1239  -18.1660 H   0  0  0  0  0  0  0  0  0  0  0  0
    8.1404   -2.3677  -17.5240 H   0  0  0  0  0  0  0  0  0  0  0  0
    8.7473   -3.0566  -19.0272 H   0  0  0  0  0  0  0  0  0  0  0  0
    6.6581   -0.7829  -18.8399 H   0  0  0  0  0  0  0  0  0  0  0  0
    6.3127   -2.4807  -19.2420 H   0  0  0  0  0  0  0  0  0  0  0  0
    7.2703   -1.4780  -20.3560 H   0  0  0  0  0  0  0  0  0  0  0  0
   20.1445   -0.1747  -18.1795 H   0  0  0  0  0  0  0  0  0  0  0  0
   21.5743   -3.4425  -20.8466 H   0  0  0  0  0  0  0  0  0  0  0  0
   22.4520   -4.3603  -23.0082 H   0  0  0  0  0  0  0  0  0  0  0  0
   22.8625   -2.8513  -24.9399 H   0  0  0  0  0  0  0  0  0  0  0  0
   22.4115   -0.4096  -24.7650 H   0  0  0  0  0  0  0  0  0  0  0  0
   20.5066    3.2102  -20.8315 H   0  0  0  0  0  0  0  0  0  0  0  0
   19.6675    4.7286  -19.0710 H   0  0  0  0  0  0  0  0  0  0  0  0
   12.4629   10.2199   -1.6118 H   0  0  0  0  0  0  0  0  0  0  0  0
  1  2  1  0
  1115  1  0
  1116  1  0
  1117  1  0
  2  3  1  0
  2118  1  0
  2119  1  0
  3  4  1  0
  3120  1  0
  3121  1  0
  4  5  1  0
  4122  1  0
  4123  1  0
  5  6  1  0
  5124  1  0
  5125  1  0
  6  7  1  0
  6126  1  0
  6127  1  0
  7  8  1  0
  7128  1  0
  7129  1  0
  8  9  1  0
  8130  1  0
  8131  1  0
  9 10  1  0
  9132  1  0
  9133  1  0
 11 10  1  1
 10134  1  0
 10135  1  0
 11 12  1  0
 11 22  1  0
 11114  1  0
 12 13  1  0
 12136  1  0
 12137  1  0
 13 14  1  0
 13138  1  0
 13139  1  0
 14 15  1  0
 14140  1  0
 14141  1  0
 15 16  1  0
 15142  1  0
 15143  1  0
 16 17  1  0
 16144  1  0
 16145  1  0
 17 18  1  0
 17146  1  0
 17147  1  0
 18 19  1  0
 18148  1  0
 18149  1  0
 19 20  1  0
 19150  1  0
 19151  1  0
 20 21  1  0
 20152  1  0
 20153  1  0
 21154  1  0
 21155  1  0
 21156  1  0
 22 23  2  0
 22 36  1  0
 23 24  1  0
 23157  1  0
 24 25  2  0
 24 34  1  0
 25 26  1  0
 25 33  1  0
 26 27  2  0
 27 28  1  0
 27 32  1  0
 28 29  2  0
 28158  1  0
 29 30  1  0
 29159  1  0
 30 31  2  0
 30160  1  0
 31 32  1  0
 31161  1  0
 32 33  2  0
 34 35  2  0
 34162  1  0
 35 36  1  0
 35163  1  0
 36 37  2  0
 37 38  1  0
 37114  1  0
 38 39  2  0
 38164  1  0
 39 40  1  0
 39165  1  0
 40 41  2  0
 40113  1  0
 41 42  1  0
 41 63  1  0
 42 43  2  0
 42 44  1  0
 44 45  2  0
 44 61  1  0
 45 46  1  0
 45166  1  0
 46 47  2  0
 46167  1  0
 47 48  1  0
 47 62  1  0
 48 49  1  0
 48 65  2  0
 49 50  2  0
 49168  1  0
 50 51  1  0
 50169  1  0
 51 52  1  0
 51111  2  0
 52 53  2  0
 52 65  1  0
 53 54  1  0
 53 66  1  0
 54 55  2  0
 54170  1  0
 55 56  1  0
 55171  1  0
 56 57  2  0
 56 65  1  0
 57 58  1  0
 57 62  1  0
 58 59  2  0
 58172  1  0
 59 60  1  0
 59173  1  0
 60 61  1  0
 60 63  2  0
 61 62  2  0
 63 64  1  0
 66 67  2  0
 66 68  1  0
 68 69  1  0
 68111  1  0
 69 70  2  0
 69 74  1  0
 70 71  1  0
 70174  1  0
 71 72  2  0
 71175  1  0
 72 73  1  0
 72110  1  0
 73 74  2  0
 73 75  1  0
 74176  1  0
 75 76  1  1
 75 86  1  0
 75 96  1  0
 76 77  1  0
 76177  1  0
 76178  1  0
 77 78  1  0
 77179  1  0
 77180  1  0
 78 79  1  0
 78181  1  0
 78182  1  0
 79 80  1  0
 79183  1  0
 79184  1  0
 80 81  1  0
 80185  1  0
 80186  1  0
 81 82  1  0
 81187  1  0
 81188  1  0
 82 83  1  0
 82189  1  0
 82190  1  0
 83 84  1  0
 83191  1  0
 83192  1  0
 84 85  1  0
 84193  1  0
 84194  1  0
 85195  1  0
 85196  1  0
 85197  1  0
 86 87  1  0
 86198  1  0
 86199  1  0
 87 88  1  0
 87200  1  0
 87201  1  0
 88 89  1  0
 88202  1  0
 88203  1  0
 89 90  1  0
 89204  1  0
 89205  1  0
 90 91  1  0
 90206  1  0
 90207  1  0
 91 92  1  0
 91208  1  0
 91209  1  0
 92 93  1  0
 92210  1  0
 92211  1  0
 93 94  1  0
 93212  1  0
 93213  1  0
 94 95  1  0
 94214  1  0
 94215  1  0
 95216  1  0
 95217  1  0
 95218  1  0
 96 97  1  0
 96110  2  0
 97 98  2  0
 97219  1  0
 98 99  1  0
 98108  1  0
 99100  2  0
 99107  1  0
100101  1  0
101102  2  0
101106  1  0
102103  1  0
102220  1  0
103104  2  0
103221  1  0
104105  1  0
104222  1  0
105106  2  0
105223  1  0
106107  1  0
108109  2  0
108224  1  0
109110  1  0
109225  1  0
111112  1  0
113114  2  0
113226  1  0
M  CHG  4  33   1  41   1  64  -1 112  -1
M  END

