
     RDKit          3D

 38 39  0  0  0  0  0  0  0  0999 V2000
    0.8370   -1.5367   -1.1348 C   0  0  0  0  0  0  0  0  0  0  0  0
    2.3011   -1.5017   -1.5362 C   0  0  0  0  0  0  0  0  0  0  0  0
    3.0561   -1.1209   -0.4000 O   0  0  0  0  0  0  0  0  0  0  0  0
    4.4751   -1.2585   -0.4445 C   0  0  1  0  0  0  0  0  0  0  0  0
    5.0939   -0.4463   -1.5882 C   0  0  0  0  0  0  0  0  0  0  0  0
    4.9271   -0.7456    0.9425 C   0  0  0  0  0  0  0  0  0  0  0  0
    6.4271   -0.7891    1.2288 C   0  0  0  0  0  0  0  0  0  0  0  0
    4.8243   -2.7345   -0.5706 C   0  0  0  0  0  0  0  0  0  0  0  0
    5.6716   -3.2018   -1.4506 N   0  0  0  0  0  0  0  0  0  0  0  0
    5.6947   -4.5726   -1.1980 O   0  0  0  0  0  0  0  0  0  0  0  0
    4.8459   -4.8055   -0.1806 C   0  0  0  0  0  0  0  0  0  0  0  0
    4.6571   -6.1607    0.2987 C   0  0  0  0  0  0  0  0  0  0  0  0
    5.3770   -7.2213   -0.2891 C   0  0  0  0  0  0  0  0  0  0  0  0
    5.2303   -8.5337    0.1337 C   0  0  0  0  0  0  0  0  0  0  0  0
    4.3299   -8.7897    1.1817 C   0  0  0  0  0  0  0  0  0  0  0  0
    4.1035  -10.5825    1.7887 Br  0  0  0  0  0  0  0  0  0  0  0  0
    3.6004   -7.7793    1.7885 C   0  0  0  0  0  0  0  0  0  0  0  0
    3.7411   -6.4331    1.3656 C   0  0  0  0  0  0  0  0  0  0  0  0
    3.0241   -5.4480    1.9603 N   0  0  0  0  0  0  0  0  0  0  0  0
    4.2825   -3.6976    0.2441 N   0  0  0  0  0  0  0  0  0  0  0  0
    0.2051   -1.8015   -1.9972 H   0  0  0  0  0  0  0  0  0  0  0  0
    0.5172   -0.5529   -0.7573 H   0  0  0  0  0  0  0  0  0  0  0  0
    0.6734   -2.2784   -0.3379 H   0  0  0  0  0  0  0  0  0  0  0  0
    2.4504   -0.7857   -2.3672 H   0  0  0  0  0  0  0  0  0  0  0  0
    2.6176   -2.4962   -1.9069 H   0  0  0  0  0  0  0  0  0  0  0  0
    4.7928    0.6072   -1.4855 H   0  0  0  0  0  0  0  0  0  0  0  0
    4.7698   -0.8154   -2.5709 H   0  0  0  0  0  0  0  0  0  0  0  0
    6.1900   -0.5089   -1.5707 H   0  0  0  0  0  0  0  0  0  0  0  0
    4.3791   -1.3417    1.6889 H   0  0  0  0  0  0  0  0  0  0  0  0
    4.5457    0.2851    1.0283 H   0  0  0  0  0  0  0  0  0  0  0  0
    6.8380   -1.8068    1.1303 H   0  0  0  0  0  0  0  0  0  0  0  0
    6.6258   -0.4536    2.2586 H   0  0  0  0  0  0  0  0  0  0  0  0
    7.0006   -0.1327    0.5559 H   0  0  0  0  0  0  0  0  0  0  0  0
    6.0690   -6.9906   -1.1011 H   0  0  0  0  0  0  0  0  0  0  0  0
    5.7936   -9.3433   -0.3296 H   0  0  0  0  0  0  0  0  0  0  0  0
    2.9092   -8.0128    2.6002 H   0  0  0  0  0  0  0  0  0  0  0  0
    2.3839   -5.6700    2.7088 H   0  0  0  0  0  0  0  0  0  0  0  0
    3.1412   -4.4873    1.6406 H   0  0  0  0  0  0  0  0  0  0  0  0
  1  2  1  0
  1 21  1  0
  1 22  1  0
  1 23  1  0
  2  3  1  0
  2 24  1  0
  2 25  1  0
  4  3  1  1
  4  5  1  0
  4  6  1  0
  4  8  1  0
  5 26  1  0
  5 27  1  0
  5 28  1  0
  6  7  1  0
  6 29  1  0
  6 30  1  0
  7 31  1  0
  7 32  1  0
  7 33  1  0
  8  9  2  0
  8 20  1  0
  9 10  1  0
 10 11  1  0
 11 12  1  0
 11 20  2  0
 12 13  2  0
 12 18  1  0
 13 14  1  0
 13 34  1  0
 14 15  2  0
 14 35  1  0
 15 16  1  0
 15 17  1  0
 17 18  2  0
 17 36  1  0
 18 19  1  0
 19 37  1  0
 19 38  1  0
M  END

