
     RDKit          3D

 62 65  0  0  0  0  0  0  0  0999 V2000
    1.2809    1.2609    1.1008 C   0  0  0  0  0  0  0  0  0  0  0  0
    2.6192    0.7522    0.9653 N   0  0  0  0  0  0  0  0  0  0  0  0
    3.0317   -0.2397    1.6631 C   0  0  0  0  0  0  0  0  0  0  0  0
    4.3895   -0.5254    1.7143 N   0  0  0  0  0  0  0  0  0  0  0  0
    5.3449    0.2767    0.9730 C   0  0  0  0  0  0  0  0  0  0  0  0
    6.7781   -0.0295    1.4253 C   0  0  0  0  0  0  0  0  0  0  0  0
    7.7946    0.8390    0.7457 C   0  0  0  0  0  0  0  0  0  0  0  0
    8.8238    0.4421   -0.0967 C   0  0  0  0  0  0  0  0  0  0  0  0
    9.4706    1.6008   -0.4735 N   0  0  0  0  0  0  0  0  0  0  0  0
   10.5543    1.8140   -1.2897 C   0  0  0  0  0  0  0  0  0  0  0  0
   10.9894    3.0957   -1.4903 C   0  0  0  0  0  0  0  0  0  0  0  0
   10.3271    4.1908   -0.8615 C   0  0  0  0  0  0  0  0  0  0  0  0
    9.2363    3.9938   -0.0384 C   0  0  0  0  0  0  0  0  0  0  0  0
    8.4943    5.1023    0.6505 C   0  0  0  0  0  0  0  0  0  0  0  0
    8.7917    2.6538    0.1636 C   0  0  0  0  0  0  0  0  0  0  0  0
    7.7845    2.1945    0.8964 N   0  0  0  0  0  0  0  0  0  0  0  0
    2.2274   -1.0765    2.4717 N   0  0  0  0  0  0  0  0  0  0  0  0
    2.8020   -1.7517    3.6317 C   0  0  0  0  0  0  0  0  0  0  0  0
    1.7163   -2.0412    4.6727 C   0  0  0  0  0  0  0  0  0  0  0  0
    0.5505   -2.8418    4.0707 C   0  0  2  0  0  0  0  0  0  0  0  0
    0.9478   -4.1523    3.6805 O   0  0  0  0  0  0  0  0  0  0  0  0
    1.0751   -5.0973    4.7163 C   0  0  0  0  0  0  0  0  0  0  0  0
    1.2816   -6.4700    4.0912 C   0  0  1  0  0  0  0  0  0  0  0  0
    2.5807   -6.6485    3.2962 C   0  0  0  0  0  0  0  0  0  0  0  0
    2.8524   -8.1471    3.4748 C   0  0  0  0  0  0  0  0  0  0  0  0
    2.3769   -8.3781    4.9137 C   0  0  0  0  0  0  0  0  0  0  0  0
    1.3356   -7.4334    5.1430 O   0  0  0  0  0  0  0  0  0  0  0  0
    0.0256   -2.1357    2.8185 C   0  0  0  0  0  0  0  0  0  0  0  0
    1.1521   -1.8330    1.8284 C   0  0  0  0  0  0  0  0  0  0  0  0
    1.2918    2.3594    0.9912 H   0  0  0  0  0  0  0  0  0  0  0  0
    0.8017    1.0187    2.0712 H   0  0  0  0  0  0  0  0  0  0  0  0
    0.6108    0.8858    0.3018 H   0  0  0  0  0  0  0  0  0  0  0  0
    4.6206   -1.5103    1.8007 H   0  0  0  0  0  0  0  0  0  0  0  0
    5.1136    1.3358    1.1494 H   0  0  0  0  0  0  0  0  0  0  0  0
    5.2496    0.1266   -0.1204 H   0  0  0  0  0  0  0  0  0  0  0  0
    7.0216   -1.0899    1.2365 H   0  0  0  0  0  0  0  0  0  0  0  0
    6.8393    0.1262    2.5163 H   0  0  0  0  0  0  0  0  0  0  0  0
    9.1419   -0.5365   -0.4468 H   0  0  0  0  0  0  0  0  0  0  0  0
   11.0130    0.9322   -1.7392 H   0  0  0  0  0  0  0  0  0  0  0  0
   11.8498    3.2690   -2.1386 H   0  0  0  0  0  0  0  0  0  0  0  0
   10.6919    5.2059   -1.0370 H   0  0  0  0  0  0  0  0  0  0  0  0
    8.9340    6.0831    0.4195 H   0  0  0  0  0  0  0  0  0  0  0  0
    8.5012    4.9562    1.7428 H   0  0  0  0  0  0  0  0  0  0  0  0
    7.4340    5.1069    0.3501 H   0  0  0  0  0  0  0  0  0  0  0  0
    3.5822   -1.1095    4.0615 H   0  0  0  0  0  0  0  0  0  0  0  0
    3.2850   -2.7137    3.3508 H   0  0  0  0  0  0  0  0  0  0  0  0
    1.3217   -1.0874    5.0608 H   0  0  0  0  0  0  0  0  0  0  0  0
    2.1545   -2.5803    5.5285 H   0  0  0  0  0  0  0  0  0  0  0  0
   -0.2637   -2.9246    4.8184 H   0  0  0  0  0  0  0  0  0  0  0  0
    0.1643   -5.1189    5.3477 H   0  0  0  0  0  0  0  0  0  0  0  0
    1.9315   -4.8775    5.3852 H   0  0  0  0  0  0  0  0  0  0  0  0
    0.4114   -6.6824    3.4376 H   0  0  0  0  0  0  0  0  0  0  0  0
    3.3881   -6.0526    3.7563 H   0  0  0  0  0  0  0  0  0  0  0  0
    2.4834   -6.3319    2.2484 H   0  0  0  0  0  0  0  0  0  0  0  0
    3.9055   -8.4268    3.3203 H   0  0  0  0  0  0  0  0  0  0  0  0
    2.2414   -8.7332    2.7684 H   0  0  0  0  0  0  0  0  0  0  0  0
    3.1989   -8.2114    5.6373 H   0  0  0  0  0  0  0  0  0  0  0  0
    1.9867   -9.3962    5.0821 H   0  0  0  0  0  0  0  0  0  0  0  0
   -0.4592   -1.1930    3.1211 H   0  0  0  0  0  0  0  0  0  0  0  0
   -0.7358   -2.7713    2.3395 H   0  0  0  0  0  0  0  0  0  0  0  0
    0.7654   -1.2617    0.9757 H   0  0  0  0  0  0  0  0  0  0  0  0
    1.5419   -2.7917    1.4267 H   0  0  0  0  0  0  0  0  0  0  0  0
  1  2  1  0
  1 30  1  0
  1 31  1  0
  1 32  1  0
  2  3  2  0
  3  4  1  0
  3 17  1  0
  4  5  1  0
  4 33  1  0
  5  6  1  0
  5 34  1  0
  5 35  1  0
  6  7  1  0
  6 36  1  0
  6 37  1  0
  7  8  2  0
  7 16  1  0
  8  9  1  0
  8 38  1  0
  9 10  1  0
  9 15  1  0
 10 11  2  0
 10 39  1  0
 11 12  1  0
 11 40  1  0
 12 13  2  0
 12 41  1  0
 13 14  1  0
 13 15  1  0
 14 42  1  0
 14 43  1  0
 14 44  1  0
 15 16  2  0
 17 18  1  0
 17 29  1  0
 18 19  1  0
 18 45  1  0
 18 46  1  0
 19 20  1  0
 19 47  1  0
 19 48  1  0
 20 21  1  0
 20 28  1  0
 20 49  1  1
 21 22  1  0
 22 23  1  0
 22 50  1  0
 22 51  1  0
 23 24  1  0
 23 27  1  0
 23 52  1  6
 24 25  1  0
 24 53  1  0
 24 54  1  0
 25 26  1  0
 25 55  1  0
 25 56  1  0
 26 27  1  0
 26 57  1  0
 26 58  1  0
 28 29  1  0
 28 59  1  0
 28 60  1  0
 29 61  1  0
 29 62  1  0
M  END

