
     RDKit          3D

 22 22  0  0  0  0  0  0  0  0999 V2000
    1.6755   -0.8715   -1.8162 C   0  0  0  0  0  0  0  0  0  0  0  0
    2.7822   -0.1885   -1.9723 C   0  0  0  0  0  0  0  0  0  0  0  0
    3.8878    0.4989   -2.1322 C   0  0  0  0  0  0  0  0  0  0  0  0
    4.6051    1.2411   -1.0158 C   0  0  1  0  0  0  0  0  0  0  0  0
    3.9412    1.1398    0.2283 O   0  0  0  0  0  0  0  0  0  0  0  0
    6.0780    0.8515   -0.8885 C   0  0  0  0  0  0  0  0  0  0  0  0
    6.9935    1.7885   -0.3791 C   0  0  0  0  0  0  0  0  0  0  0  0
    8.3252    1.4264   -0.1798 C   0  0  0  0  0  0  0  0  0  0  0  0
    8.7645    0.1329   -0.4795 C   0  0  0  0  0  0  0  0  0  0  0  0
    7.8565   -0.8063   -0.9851 C   0  0  0  0  0  0  0  0  0  0  0  0
    8.2147   -2.0789   -1.2993 O   0  0  0  0  0  0  0  0  0  0  0  0
    6.5168   -0.4416   -1.1888 C   0  0  0  0  0  0  0  0  0  0  0  0
    0.6928   -0.3958   -1.9147 H   0  0  0  0  0  0  0  0  0  0  0  0
    1.6899   -1.9425   -1.5823 H   0  0  0  0  0  0  0  0  0  0  0  0
    4.3364    0.5697   -3.1318 H   0  0  0  0  0  0  0  0  0  0  0  0
    4.5701    2.3165   -1.2644 H   0  0  0  0  0  0  0  0  0  0  0  0
    3.9731    0.2126    0.5042 H   0  0  0  0  0  0  0  0  0  0  0  0
    6.6550    2.7984   -0.1347 H   0  0  0  0  0  0  0  0  0  0  0  0
    9.0378    2.1563    0.2133 H   0  0  0  0  0  0  0  0  0  0  0  0
    9.8116   -0.1469   -0.3244 H   0  0  0  0  0  0  0  0  0  0  0  0
    9.1559   -2.2028   -1.1194 H   0  0  0  0  0  0  0  0  0  0  0  0
    5.8319   -1.1908   -1.5915 H   0  0  0  0  0  0  0  0  0  0  0  0
  1  2  2  0
  1 13  1  0
  1 14  1  0
  2  3  2  0
  3  4  1  0
  3 15  1  0
  4  5  1  0
  4  6  1  0
  4 16  1  6
  5 17  1  0
  6  7  2  0
  6 12  1  0
  7  8  1  0
  7 18  1  0
  8  9  2  0
  8 19  1  0
  9 10  1  0
  9 20  1  0
 10 11  1  0
 10 12  2  0
 11 21  1  0
 12 22  1  0
M  END

