
     RDKit          3D

 39 41  0  0  0  0  0  0  0  0999 V2000
    3.4436    1.8389    1.8451 C   0  0  0  0  0  0  0  0  0  0  0  0
    3.7940    0.9533    0.6730 C   0  0  0  0  0  0  0  0  0  0  0  0
    3.5405    1.3588   -0.6443 C   0  0  0  0  0  0  0  0  0  0  0  0
    3.8843    0.5558   -1.7419 C   0  0  0  0  0  0  0  0  0  0  0  0
    3.6141    1.0066   -3.1578 C   0  0  0  0  0  0  0  0  0  0  0  0
    4.4921   -0.6821   -1.4949 C   0  0  0  0  0  0  0  0  0  0  0  0
    4.7515   -1.1184   -0.1873 C   0  0  0  0  0  0  0  0  0  0  0  0
    5.3621   -2.4987   -0.0152 C   0  0  1  0  0  0  0  0  0  0  0  0
    6.3503   -2.6214    1.5392 Cl  0  0  0  0  0  0  0  0  0  0  0  0
    4.3769   -3.6459   -0.0636 C   0  0  0  0  0  0  0  0  0  0  0  0
    4.7291   -4.8393   -0.7094 C   0  0  0  0  0  0  0  0  0  0  0  0
    3.8477   -5.9188   -0.7535 C   0  0  0  0  0  0  0  0  0  0  0  0
    2.5941   -5.8265   -0.1343 C   0  0  0  0  0  0  0  0  0  0  0  0
    2.2251   -4.6406    0.5369 C   0  0  0  0  0  0  0  0  0  0  0  0
    3.1172   -3.5690    0.5515 C   0  0  0  0  0  0  0  0  0  0  0  0
    0.8902   -4.6209    1.2446 C   0  0  0  0  0  0  0  0  0  0  0  0
   -0.1543   -5.4413    0.4801 C   0  0  0  0  0  0  0  0  0  0  0  0
    0.3413   -6.8325    0.1141 C   0  0  0  0  0  0  0  0  0  0  0  0
   -0.3733   -7.8101    0.0274 O   0  0  0  0  0  0  0  0  0  0  0  0
    1.6951   -6.9006   -0.1633 N   0  0  0  0  0  0  0  0  0  0  0  0
    4.4019   -0.2933    0.8870 C   0  0  0  0  0  0  0  0  0  0  0  0
    2.8685    2.7219    1.5294 H   0  0  0  0  0  0  0  0  0  0  0  0
    4.3525    2.1972    2.3580 H   0  0  0  0  0  0  0  0  0  0  0  0
    2.8469    1.2957    2.5960 H   0  0  0  0  0  0  0  0  0  0  0  0
    3.0694    2.3304   -0.8222 H   0  0  0  0  0  0  0  0  0  0  0  0
    3.1563    2.0063   -3.1842 H   0  0  0  0  0  0  0  0  0  0  0  0
    2.9331    0.3112   -3.6767 H   0  0  0  0  0  0  0  0  0  0  0  0
    4.5436    1.0464   -3.7500 H   0  0  0  0  0  0  0  0  0  0  0  0
    4.7660   -1.3219   -2.3400 H   0  0  0  0  0  0  0  0  0  0  0  0
    6.1133   -2.6503   -0.8007 H   0  0  0  0  0  0  0  0  0  0  0  0
    5.7073   -4.9276   -1.1899 H   0  0  0  0  0  0  0  0  0  0  0  0
    4.1289   -6.8375   -1.2754 H   0  0  0  0  0  0  0  0  0  0  0  0
    2.8245   -2.6480    1.0615 H   0  0  0  0  0  0  0  0  0  0  0  0
    0.5424   -3.5865    1.3868 H   0  0  0  0  0  0  0  0  0  0  0  0
    1.0147   -5.0489    2.2576 H   0  0  0  0  0  0  0  0  0  0  0  0
   -0.4121   -4.9365   -0.4693 H   0  0  0  0  0  0  0  0  0  0  0  0
   -1.0891   -5.5642    1.0437 H   0  0  0  0  0  0  0  0  0  0  0  0
    2.0168   -7.8029   -0.5019 H   0  0  0  0  0  0  0  0  0  0  0  0
    4.6283   -0.6197    1.9042 H   0  0  0  0  0  0  0  0  0  0  0  0
  1  2  1  0
  1 22  1  0
  1 23  1  0
  1 24  1  0
  2  3  2  0
  2 21  1  0
  3  4  1  0
  3 25  1  0
  4  5  1  0
  4  6  2  0
  5 26  1  0
  5 27  1  0
  5 28  1  0
  6  7  1  0
  6 29  1  0
  7  8  1  0
  7 21  2  0
  8  9  1  0
  8 10  1  0
  8 30  1  6
 10 11  2  0
 10 15  1  0
 11 12  1  0
 11 31  1  0
 12 13  2  0
 12 32  1  0
 13 14  1  0
 13 20  1  0
 14 15  2  0
 14 16  1  0
 15 33  1  0
 16 17  1  0
 16 34  1  0
 16 35  1  0
 17 18  1  0
 17 36  1  0
 17 37  1  0
 18 19  2  0
 18 20  1  0
 20 38  1  0
 21 39  1  0
M  END

