
     RDKit          3D

 32 34  0  0  0  0  0  0  0  0999 V2000
    2.0446    0.3316    2.4048 C   0  0  0  0  0  0  0  0  0  0  0  0
    2.9312    0.3240    1.1867 C   0  0  0  0  0  0  0  0  0  0  0  0
    3.7566    1.4107    0.8658 C   0  0  0  0  0  0  0  0  0  0  0  0
    4.5791    1.3772   -0.2640 C   0  0  0  0  0  0  0  0  0  0  0  0
    5.5931    2.7538   -0.6281 Cl  0  0  0  0  0  0  0  0  0  0  0  0
    4.6079    0.2581   -1.0997 C   0  0  0  0  0  0  0  0  0  0  0  0
    3.7946   -0.8336   -0.7915 C   0  0  0  0  0  0  0  0  0  0  0  0
    2.9684   -0.7899    0.3312 C   0  0  0  0  0  0  0  0  0  0  0  0
    2.2171   -1.9106    0.6641 O   0  0  0  0  0  0  0  0  0  0  0  0
    0.9921   -2.0958    0.1406 C   0  0  0  0  0  0  0  0  0  0  0  0
    0.3705   -1.2803   -0.7462 C   0  0  0  0  0  0  0  0  0  0  0  0
   -0.9751   -1.5689   -1.2685 C   0  0  0  0  0  0  0  0  0  0  0  0
   -1.5176   -0.8196   -2.0660 O   0  0  0  0  0  0  0  0  0  0  0  0
   -1.6517   -2.8172   -0.7852 C   0  0  0  0  0  0  0  0  0  0  0  0
   -2.9290   -3.1367   -1.2585 C   0  0  0  0  0  0  0  0  0  0  0  0
   -3.5694   -4.2959   -0.8161 C   0  0  0  0  0  0  0  0  0  0  0  0
   -2.9368   -5.1430    0.1034 C   0  0  0  0  0  0  0  0  0  0  0  0
   -1.6635   -4.8307    0.5807 C   0  0  0  0  0  0  0  0  0  0  0  0
   -1.0151   -3.6688    0.1396 C   0  0  0  0  0  0  0  0  0  0  0  0
    0.3446   -3.3543    0.6648 C   0  0  0  0  0  0  0  0  0  0  0  0
    0.9195   -4.0547    1.4728 O   0  0  0  0  0  0  0  0  0  0  0  0
    2.2650    1.1941    3.0491 H   0  0  0  0  0  0  0  0  0  0  0  0
    2.1736   -0.5904    2.9924 H   0  0  0  0  0  0  0  0  0  0  0  0
    0.9793    0.3849    2.1233 H   0  0  0  0  0  0  0  0  0  0  0  0
    3.7636    2.2941    1.5070 H   0  0  0  0  0  0  0  0  0  0  0  0
    5.2614    0.2410   -1.9728 H   0  0  0  0  0  0  0  0  0  0  0  0
    3.8022   -1.7294   -1.4156 H   0  0  0  0  0  0  0  0  0  0  0  0
    0.8411   -0.3701   -1.1212 H   0  0  0  0  0  0  0  0  0  0  0  0
   -3.3984   -2.4585   -1.9738 H   0  0  0  0  0  0  0  0  0  0  0  0
   -4.5670   -4.5427   -1.1881 H   0  0  0  0  0  0  0  0  0  0  0  0
   -3.4406   -6.0496    0.4477 H   0  0  0  0  0  0  0  0  0  0  0  0
   -1.1488   -5.4732    1.2979 H   0  0  0  0  0  0  0  0  0  0  0  0
  1  2  1  0
  1 22  1  0
  1 23  1  0
  1 24  1  0
  2  3  2  0
  2  8  1  0
  3  4  1  0
  3 25  1  0
  4  5  1  0
  4  6  2  0
  6  7  1  0
  6 26  1  0
  7  8  2  0
  7 27  1  0
  8  9  1  0
  9 10  1  0
 10 11  2  0
 10 20  1  0
 11 12  1  0
 11 28  1  0
 12 13  2  0
 12 14  1  0
 14 15  2  0
 14 19  1  0
 15 16  1  0
 15 29  1  0
 16 17  2  0
 16 30  1  0
 17 18  1  0
 17 31  1  0
 18 19  2  0
 18 32  1  0
 19 20  1  0
 20 21  2  0
M  END

