
     RDKit          3D

 38 39  0  0  0  0  0  0  0  0999 V2000
    2.0552    0.2654   -0.3530 C   0  0  0  0  0  0  0  0  0  0  0  0
    3.4644    0.1395    0.2458 C   0  0  1  0  0  0  0  0  0  0  0  0
    3.4181   -0.2447    1.7327 C   0  0  0  0  0  0  0  0  0  0  0  0
    4.7792   -0.1941    2.4494 C   0  0  0  0  0  0  0  0  0  0  0  0
    4.6960   -0.5899    3.9077 C   0  0  0  0  0  0  0  0  0  0  0  0
    4.8730   -1.9253    4.3040 C   0  0  0  0  0  0  0  0  0  0  0  0
    4.7587   -2.3002    5.6456 C   0  0  0  0  0  0  0  0  0  0  0  0
    4.4644   -1.3413    6.6194 C   0  0  0  0  0  0  0  0  0  0  0  0
    4.2882   -0.0071    6.2407 C   0  0  0  0  0  0  0  0  0  0  0  0
    4.4032    0.3622    4.8977 C   0  0  0  0  0  0  0  0  0  0  0  0
    4.2883   -0.8212   -0.4813 N   0  0  0  0  0  0  0  0  0  0  0  0
    4.9152   -0.6138   -1.6824 C   0  0  0  0  0  0  0  0  0  0  0  0
    5.5255   -1.7113   -2.3468 C   0  0  0  0  0  0  0  0  0  0  0  0
    6.1969   -1.5432   -3.5460 C   0  0  0  0  0  0  0  0  0  0  0  0
    6.2757   -0.2675   -4.1192 C   0  0  0  0  0  0  0  0  0  0  0  0
    6.9811   -0.0858   -5.3853 N   0  0  0  0  0  0  0  0  0  0  0  0
    7.4870   -1.0733   -5.9034 O   0  0  0  0  0  0  0  0  0  0  0  0
    7.0274    1.0431   -5.8572 O   0  0  0  0  0  0  0  0  0  0  0  0
    5.6818    0.8314   -3.4929 C   0  0  0  0  0  0  0  0  0  0  0  0
    5.0055    0.6639   -2.2910 C   0  0  0  0  0  0  0  0  0  0  0  0
    1.4749    1.0453    0.1653 H   0  0  0  0  0  0  0  0  0  0  0  0
    1.5065   -0.6863   -0.2585 H   0  0  0  0  0  0  0  0  0  0  0  0
    2.0994    0.5256   -1.4214 H   0  0  0  0  0  0  0  0  0  0  0  0
    3.9660    1.1196    0.1737 H   0  0  0  0  0  0  0  0  0  0  0  0
    2.9835   -1.2575    1.8307 H   0  0  0  0  0  0  0  0  0  0  0  0
    2.7113    0.4295    2.2433 H   0  0  0  0  0  0  0  0  0  0  0  0
    5.1868    0.8279    2.3657 H   0  0  0  0  0  0  0  0  0  0  0  0
    5.4889   -0.8530    1.9241 H   0  0  0  0  0  0  0  0  0  0  0  0
    5.1120   -2.6825    3.5508 H   0  0  0  0  0  0  0  0  0  0  0  0
    4.9053   -3.3449    5.9323 H   0  0  0  0  0  0  0  0  0  0  0  0
    4.3782   -1.6316    7.6695 H   0  0  0  0  0  0  0  0  0  0  0  0
    4.0647    0.7515    6.9954 H   0  0  0  0  0  0  0  0  0  0  0  0
    4.2704    1.4105    4.6128 H   0  0  0  0  0  0  0  0  0  0  0  0
    4.1720   -1.7910   -0.2083 H   0  0  0  0  0  0  0  0  0  0  0  0
    5.4658   -2.7060   -1.8961 H   0  0  0  0  0  0  0  0  0  0  0  0
    6.6671   -2.3833   -4.0568 H   0  0  0  0  0  0  0  0  0  0  0  0
    5.7564    1.8107   -3.9656 H   0  0  0  0  0  0  0  0  0  0  0  0
    4.5437    1.5323   -1.8216 H   0  0  0  0  0  0  0  0  0  0  0  0
  1  2  1  0
  1 21  1  0
  1 22  1  0
  1 23  1  0
  2  3  1  0
  2 11  1  0
  2 24  1  1
  3  4  1  0
  3 25  1  0
  3 26  1  0
  4  5  1  0
  4 27  1  0
  4 28  1  0
  5  6  2  0
  5 10  1  0
  6  7  1  0
  6 29  1  0
  7  8  2  0
  7 30  1  0
  8  9  1  0
  8 31  1  0
  9 10  2  0
  9 32  1  0
 10 33  1  0
 11 12  1  0
 11 34  1  0
 12 13  2  0
 12 20  1  0
 13 14  1  0
 13 35  1  0
 14 15  2  0
 14 36  1  0
 15 16  1  0
 15 19  1  0
 16 17  2  0
 16 18  1  0
 19 20  2  0
 19 37  1  0
 20 38  1  0
M  CHG  2  16   1  18  -1
M  END

