
     RDKit          3D

 18 18  0  0  0  0  0  0  0  0999 V2000
    2.3553    2.4210   -1.0016 F   0  0  0  0  0  0  0  0  0  0  0  0
    2.0121    1.8042    0.1245 C   0  0  1  0  0  0  0  0  0  0  0  0
    1.8249    2.7153    1.0759 F   0  0  0  0  0  0  0  0  0  0  0  0
    0.8665    1.1619   -0.0753 F   0  0  0  0  0  0  0  0  0  0  0  0
    2.9243    0.8495    0.4942 O   0  0  0  0  0  0  0  0  0  0  0  0
    4.2306    1.1630    0.7848 C   0  0  0  0  0  0  0  0  0  0  0  0
    4.6234    2.4141    0.7084 N   0  0  0  0  0  0  0  0  0  0  0  0
    5.8922    2.6989    0.9941 C   0  0  0  0  0  0  0  0  0  0  0  0
    6.8198    1.7252    1.3722 C   0  0  0  0  0  0  0  0  0  0  0  0
    8.5934    2.2676    1.7513 Br  0  0  0  0  0  0  0  0  0  0  0  0
    6.3859    0.3876    1.4488 C   0  0  0  0  0  0  0  0  0  0  0  0
    7.5930   -0.9877    1.9349 Br  0  0  0  0  0  0  0  0  0  0  0  0
    5.0465    0.0735    1.1598 C   0  0  0  0  0  0  0  0  0  0  0  0
    4.4918   -1.3186    1.1888 C   0  0  0  0  0  0  0  0  0  0  0  0
    4.7376   -2.1602   -0.4043 Cl  0  0  0  0  0  0  0  0  0  0  0  0
    6.1994    3.7465    0.9227 H   0  0  0  0  0  0  0  0  0  0  0  0
    3.4123   -1.3045    1.3688 H   0  0  0  0  0  0  0  0  0  0  0  0
    4.9907   -1.9325    1.9463 H   0  0  0  0  0  0  0  0  0  0  0  0
  2  1  1  6
  2  3  1  0
  2  4  1  0
  2  5  1  0
  5  6  1  0
  6  7  2  0
  6 13  1  0
  7  8  1  0
  8  9  2  0
  8 16  1  0
  9 10  1  0
  9 11  1  0
 11 12  1  0
 11 13  2  0
 13 14  1  0
 14 15  1  0
 14 17  1  0
 14 18  1  0
M  END

