
     RDKit          3D

 59 62  0  0  0  0  0  0  0  0999 V2000
    0.4645  -11.5834   -0.1555 C   0  0  0  0  0  0  0  0  0  0  0  0
    1.7390  -11.1071   -0.5173 O   0  0  0  0  0  0  0  0  0  0  0  0
    2.1065   -9.8510   -0.1478 C   0  0  0  0  0  0  0  0  0  0  0  0
    3.3974   -9.4440   -0.5340 C   0  0  0  0  0  0  0  0  0  0  0  0
    3.8622   -8.1774   -0.2009 C   0  0  0  0  0  0  0  0  0  0  0  0
    3.0648   -7.2725    0.5256 C   0  0  0  0  0  0  0  0  0  0  0  0
    3.5960   -5.9071    0.9200 C   0  0  0  0  0  0  0  0  0  0  0  0
    4.1845   -5.1728   -0.2011 N   0  0  0  0  0  0  0  0  0  0  0  0
    3.2767   -4.8491   -1.2799 C   0  0  0  0  0  0  0  0  0  0  0  0
    2.1732   -3.8278   -0.9323 C   0  0  0  0  0  0  0  0  0  0  0  0
    2.1688   -3.2474    0.1457 O   0  0  0  0  0  0  0  0  0  0  0  0
    1.1947   -3.6006   -1.8811 N   0  0  0  0  0  0  0  0  0  0  0  0
    0.0552   -2.7499   -1.4932 C   0  0  0  0  0  0  0  0  0  0  0  0
   -1.1297   -3.5161   -0.9375 C   0  0  0  0  0  0  0  0  0  0  0  0
   -1.1209   -3.9923    0.3892 C   0  0  0  0  0  0  0  0  0  0  0  0
   -2.1967   -4.7074    0.9020 C   0  0  0  0  0  0  0  0  0  0  0  0
   -3.3240   -4.9704    0.1018 C   0  0  0  0  0  0  0  0  0  0  0  0
   -4.3252   -5.6746    0.6913 O   0  0  0  0  0  0  0  0  0  0  0  0
   -5.4919   -5.9601   -0.0440 C   0  0  0  0  0  0  0  0  0  0  0  0
   -3.3519   -4.5000   -1.2182 C   0  0  0  0  0  0  0  0  0  0  0  0
   -2.2580   -3.7816   -1.7194 C   0  0  0  0  0  0  0  0  0  0  0  0
    1.0629   -4.4125   -3.0639 C   0  0  1  0  0  0  0  0  0  0  0  0
    0.6888   -3.7608   -4.3723 C   0  0  0  0  0  0  0  0  0  0  0  0
    2.0717   -4.3172   -4.1839 C   0  0  0  0  0  0  0  0  0  0  0  0
    5.0921   -4.1218    0.1727 C   0  0  1  0  0  0  0  0  0  0  0  0
    6.4827   -4.5073    0.6041 C   0  0  0  0  0  0  0  0  0  0  0  0
    6.2649   -3.8476   -0.7351 C   0  0  0  0  0  0  0  0  0  0  0  0
    1.7819   -7.6873    0.8932 C   0  0  0  0  0  0  0  0  0  0  0  0
    1.2955   -8.9621    0.5699 C   0  0  0  0  0  0  0  0  0  0  0  0
    0.3887  -12.6076   -0.5459 H   0  0  0  0  0  0  0  0  0  0  0  0
   -0.3457  -10.9735   -0.5958 H   0  0  0  0  0  0  0  0  0  0  0  0
    0.3285  -11.6089    0.9413 H   0  0  0  0  0  0  0  0  0  0  0  0
    4.0149  -10.1486   -1.0955 H   0  0  0  0  0  0  0  0  0  0  0  0
    4.8619   -7.8661   -0.5149 H   0  0  0  0  0  0  0  0  0  0  0  0
    4.4007   -6.0364    1.6636 H   0  0  0  0  0  0  0  0  0  0  0  0
    2.7955   -5.3322    1.4237 H   0  0  0  0  0  0  0  0  0  0  0  0
    2.8012   -5.7751   -1.6421 H   0  0  0  0  0  0  0  0  0  0  0  0
    3.8604   -4.4581   -2.1282 H   0  0  0  0  0  0  0  0  0  0  0  0
   -0.2580   -2.1729   -2.3749 H   0  0  0  0  0  0  0  0  0  0  0  0
    0.4376   -2.0485   -0.7413 H   0  0  0  0  0  0  0  0  0  0  0  0
   -0.2519   -3.7881    1.0193 H   0  0  0  0  0  0  0  0  0  0  0  0
   -2.1978   -5.0718    1.9316 H   0  0  0  0  0  0  0  0  0  0  0  0
   -6.1550   -6.5252    0.6252 H   0  0  0  0  0  0  0  0  0  0  0  0
   -5.2777   -6.5760   -0.9368 H   0  0  0  0  0  0  0  0  0  0  0  0
   -6.0120   -5.0398   -0.3673 H   0  0  0  0  0  0  0  0  0  0  0  0
   -4.2127   -4.6802   -1.8627 H   0  0  0  0  0  0  0  0  0  0  0  0
   -2.2972   -3.4165   -2.7502 H   0  0  0  0  0  0  0  0  0  0  0  0
    0.6259   -5.4063   -2.8956 H   0  0  0  0  0  0  0  0  0  0  0  0
    0.5889   -2.6726   -4.3922 H   0  0  0  0  0  0  0  0  0  0  0  0
   -0.0168   -4.2908   -5.0176 H   0  0  0  0  0  0  0  0  0  0  0  0
    2.8826   -3.5940   -4.0676 H   0  0  0  0  0  0  0  0  0  0  0  0
    2.3550   -5.2406   -4.6966 H   0  0  0  0  0  0  0  0  0  0  0  0
    4.6499   -3.2487    0.6733 H   0  0  0  0  0  0  0  0  0  0  0  0
    6.7294   -5.5727    0.5998 H   0  0  0  0  0  0  0  0  0  0  0  0
    6.9533   -3.9311    1.4057 H   0  0  0  0  0  0  0  0  0  0  0  0
    6.3678   -4.4808   -1.6209 H   0  0  0  0  0  0  0  0  0  0  0  0
    6.5839   -2.8104   -0.8723 H   0  0  0  0  0  0  0  0  0  0  0  0
    1.1342   -7.0012    1.4467 H   0  0  0  0  0  0  0  0  0  0  0  0
    0.2874   -9.2409    0.8776 H   0  0  0  0  0  0  0  0  0  0  0  0
  1  2  1  0
  1 30  1  0
  1 31  1  0
  1 32  1  0
  2  3  1  0
  3  4  2  0
  3 29  1  0
  4  5  1  0
  4 33  1  0
  5  6  2  0
  5 34  1  0
  6  7  1  0
  6 28  1  0
  7  8  1  0
  7 35  1  0
  7 36  1  0
  8  9  1  0
  8 25  1  0
  9 10  1  0
  9 37  1  0
  9 38  1  0
 10 11  2  0
 10 12  1  0
 12 13  1  0
 12 22  1  0
 13 14  1  0
 13 39  1  0
 13 40  1  0
 14 15  2  0
 14 21  1  0
 15 16  1  0
 15 41  1  0
 16 17  2  0
 16 42  1  0
 17 18  1  0
 17 20  1  0
 18 19  1  0
 19 43  1  0
 19 44  1  0
 19 45  1  0
 20 21  2  0
 20 46  1  0
 21 47  1  0
 22 23  1  0
 22 24  1  0
 22 48  1  1
 23 24  1  0
 23 49  1  0
 23 50  1  0
 24 51  1  0
 24 52  1  0
 25 26  1  0
 25 27  1  0
 25 53  1  1
 26 27  1  0
 26 54  1  0
 26 55  1  0
 27 56  1  0
 27 57  1  0
 28 29  2  0
 28 58  1  0
 29 59  1  0
M  END

