
     RDKit          3D

 51 54  0  0  0  0  0  0  0  0999 V2000
    0.2950   -0.5309    0.6659 C   0  0  0  0  0  0  0  0  0  0  0  0
    1.7857   -0.7554    0.4058 C   0  0  1  0  0  0  0  0  0  0  0  0
    2.6819    0.3456    1.0156 C   0  0  0  0  0  0  0  0  0  0  0  0
    3.1346   -0.2634    2.3192 C   0  0  0  0  0  0  0  0  0  0  0  0
    3.7125    0.3399    3.4300 C   0  0  0  0  0  0  0  0  0  0  0  0
    4.0633   -0.4439    4.5388 C   0  0  0  0  0  0  0  0  0  0  0  0
    3.8200   -1.8186    4.5163 C   0  0  0  0  0  0  0  0  0  0  0  0
    3.2329   -2.4379    3.4041 C   0  0  0  0  0  0  0  0  0  0  0  0
    2.8999   -1.6545    2.2917 C   0  0  0  0  0  0  0  0  0  0  0  0
    2.2766   -1.9995    1.0695 N   0  0  0  0  0  0  0  0  0  0  0  0
    2.0506   -3.2050    0.4227 C   0  0  0  0  0  0  0  0  0  0  0  0
    1.3242   -3.2216   -0.5599 O   0  0  0  0  0  0  0  0  0  0  0  0
    2.7420   -4.4804    0.9249 C   0  0  1  0  0  0  0  0  0  0  0  0
    2.2651   -5.7196    0.1451 C   0  0  0  0  0  0  0  0  0  0  0  0
    2.8532   -5.7744   -1.2692 C   0  0  0  0  0  0  0  0  0  0  0  0
    4.3674   -5.5688   -1.2601 C   0  0  0  0  0  0  0  0  0  0  0  0
    4.7296   -4.3532   -0.5390 N   0  0  0  0  0  0  0  0  0  0  0  0
    6.1362   -4.0050   -0.6949 C   0  0  0  0  0  0  0  0  0  0  0  0
    6.4347   -2.5551   -0.3666 C   0  0  0  0  0  0  0  0  0  0  0  0
    7.1518   -2.1515    0.7765 C   0  0  0  0  0  0  0  0  0  0  0  0
    7.7332   -3.3414    1.9319 Cl  0  0  0  0  0  0  0  0  0  0  0  0
    7.4331   -0.8107    1.0571 C   0  0  0  0  0  0  0  0  0  0  0  0
    6.9933    0.1778    0.1793 C   0  0  0  0  0  0  0  0  0  0  0  0
    6.2788   -0.1714   -0.9674 C   0  0  0  0  0  0  0  0  0  0  0  0
    6.0073   -1.5178   -1.2223 C   0  0  0  0  0  0  0  0  0  0  0  0
    5.1215   -1.8980   -2.6842 Cl  0  0  0  0  0  0  0  0  0  0  0  0
    4.2799   -4.3800    0.8440 C   0  0  0  0  0  0  0  0  0  0  0  0
   -0.0417    0.3878    0.1589 H   0  0  0  0  0  0  0  0  0  0  0  0
    0.0930   -0.4206    1.7441 H   0  0  0  0  0  0  0  0  0  0  0  0
   -0.2896   -1.3748    0.2754 H   0  0  0  0  0  0  0  0  0  0  0  0
    1.9491   -0.8750   -0.6731 H   0  0  0  0  0  0  0  0  0  0  0  0
    2.1381    1.2936    1.1464 H   0  0  0  0  0  0  0  0  0  0  0  0
    3.5533    0.5500    0.3685 H   0  0  0  0  0  0  0  0  0  0  0  0
    3.8876    1.4193    3.4381 H   0  0  0  0  0  0  0  0  0  0  0  0
    4.5156    0.0194    5.4186 H   0  0  0  0  0  0  0  0  0  0  0  0
    4.0804   -2.4311    5.3833 H   0  0  0  0  0  0  0  0  0  0  0  0
    3.0381   -3.5077    3.4366 H   0  0  0  0  0  0  0  0  0  0  0  0
    2.4667   -4.6199    1.9818 H   0  0  0  0  0  0  0  0  0  0  0  0
    1.1662   -5.7392    0.1009 H   0  0  0  0  0  0  0  0  0  0  0  0
    2.5859   -6.6115    0.7128 H   0  0  0  0  0  0  0  0  0  0  0  0
    2.3887   -4.9862   -1.8780 H   0  0  0  0  0  0  0  0  0  0  0  0
    2.6203   -6.7445   -1.7395 H   0  0  0  0  0  0  0  0  0  0  0  0
    4.7377   -5.4831   -2.2945 H   0  0  0  0  0  0  0  0  0  0  0  0
    4.8701   -6.4613   -0.8123 H   0  0  0  0  0  0  0  0  0  0  0  0
    6.3954   -4.1665   -1.7526 H   0  0  0  0  0  0  0  0  0  0  0  0
    6.8012   -4.6589   -0.0966 H   0  0  0  0  0  0  0  0  0  0  0  0
    7.9892   -0.5579    1.9603 H   0  0  0  0  0  0  0  0  0  0  0  0
    7.2108    1.2279    0.3880 H   0  0  0  0  0  0  0  0  0  0  0  0
    5.9338    0.5867   -1.6718 H   0  0  0  0  0  0  0  0  0  0  0  0
    4.6388   -3.4762    1.3543 H   0  0  0  0  0  0  0  0  0  0  0  0
    4.7158   -5.2447    1.3993 H   0  0  0  0  0  0  0  0  0  0  0  0
  1  2  1  0
  1 28  1  0
  1 29  1  0
  1 30  1  0
  2  3  1  0
  2 10  1  0
  2 31  1  6
  3  4  1  0
  3 32  1  0
  3 33  1  0
  4  5  2  0
  4  9  1  0
  5  6  1  0
  5 34  1  0
  6  7  2  0
  6 35  1  0
  7  8  1  0
  7 36  1  0
  8  9  2  0
  8 37  1  0
  9 10  1  0
 10 11  1  0
 11 12  2  0
 11 13  1  0
 13 14  1  0
 13 27  1  0
 13 38  1  1
 14 15  1  0
 14 39  1  0
 14 40  1  0
 15 16  1  0
 15 41  1  0
 15 42  1  0
 16 17  1  0
 16 43  1  0
 16 44  1  0
 17 18  1  0
 17 27  1  0
 18 19  1  0
 18 45  1  0
 18 46  1  0
 19 20  2  0
 19 25  1  0
 20 21  1  0
 20 22  1  0
 22 23  2  0
 22 47  1  0
 23 24  1  0
 23 48  1  0
 24 25  2  0
 24 49  1  0
 25 26  1  0
 27 50  1  0
 27 51  1  0
M  END

