
     RDKit          3D

216220  0  0  0  0  0  0  0  0999 V2000
   20.4374   -4.0527    2.5274 C   0  0  0  0  0  0  0  0  0  0  0  0
   19.9181   -2.6155    2.5864 C   0  0  0  0  0  0  0  0  0  0  0  0
   18.4111   -2.5179    2.8441 C   0  0  0  0  0  0  0  0  0  0  0  0
   17.8826   -1.0819    2.9047 C   0  0  0  0  0  0  0  0  0  0  0  0
   16.3762   -0.9865    3.1627 C   0  0  0  0  0  0  0  0  0  0  0  0
   15.8484    0.4502    3.2229 C   0  0  0  0  0  0  0  0  0  0  0  0
   14.3419    0.5357    3.4823 C   0  0  0  0  0  0  0  0  0  0  0  0
   13.8295    1.9666    3.5392 C   0  0  0  0  0  0  0  0  0  0  0  0
   12.4341    1.9311    3.7835 O   0  0  0  0  0  0  0  0  0  0  0  0
   11.7242    3.0877    3.8866 C   0  0  0  0  0  0  0  0  0  0  0  0
   12.2926    4.3557    3.7574 C   0  0  0  0  0  0  0  0  0  0  0  0
   11.5490    5.5505    3.8736 C   0  0  0  0  0  0  0  0  0  0  0  0
   12.2915    6.7998    3.7268 C   0  0  0  0  0  0  0  0  0  0  0  0
   11.8671    8.0720    3.9539 C   0  0  0  0  0  0  0  0  0  0  0  0
   12.6059    9.3251    3.8283 C   0  0  0  0  0  0  0  0  0  0  0  0
   11.9326   10.4995    4.2356 C   0  0  0  0  0  0  0  0  0  0  0  0
   12.4930   11.7755    4.1737 C   0  0  0  0  0  0  0  0  0  0  0  0
   11.8236   12.8966    4.5559 O   0  0  0  0  0  0  0  0  0  0  0  0
   10.4825   12.8081    5.0122 C   0  0  0  0  0  0  0  0  0  0  0  0
    9.9440   14.2144    5.2292 C   0  0  0  0  0  0  0  0  0  0  0  0
    9.8215   15.0403    3.9452 C   0  0  0  0  0  0  0  0  0  0  0  0
    9.2892   16.4572    4.1749 C   0  0  0  0  0  0  0  0  0  0  0  0
    9.1510   17.2786    2.8898 C   0  0  0  0  0  0  0  0  0  0  0  0
    8.6278   18.7002    3.1132 C   0  0  0  0  0  0  0  0  0  0  0  0
    8.4914   19.5217    1.8273 C   0  0  0  0  0  0  0  0  0  0  0  0
    7.9691   20.9403    2.0588 C   0  0  0  0  0  0  0  0  0  0  0  0
   13.8177   11.9345    3.6811 C   0  0  0  0  0  0  0  0  0  0  0  0
   14.5404   13.1959    3.5611 C   0  0  0  0  0  0  0  0  0  0  0  0
   14.2267   14.4259    4.0447 C   0  0  0  0  0  0  0  0  0  0  0  0
   15.0307   15.6320    3.8584 C   0  0  0  0  0  0  0  0  0  0  0  0
   16.0265   15.7432    2.8691 C   0  0  0  0  0  0  0  0  0  0  0  0
   16.7901   16.9004    2.7045 C   0  0  0  0  0  0  0  0  0  0  0  0
   17.7535   17.0331    1.7518 O   0  0  0  0  0  0  0  0  0  0  0  0
   18.0331   15.9655    0.8635 C   0  0  0  0  0  0  0  0  0  0  0  0
   19.1481   16.4009   -0.0749 C   0  0  0  0  0  0  0  0  0  0  0  0
   19.5336   15.3177   -1.0858 C   0  0  0  0  0  0  0  0  0  0  0  0
   20.6538   15.7434   -2.0399 C   0  0  0  0  0  0  0  0  0  0  0  0
   21.0446   14.6648   -3.0543 C   0  0  0  0  0  0  0  0  0  0  0  0
   22.1634   15.0889   -4.0101 C   0  0  0  0  0  0  0  0  0  0  0  0
   22.5552   14.0108   -5.0255 C   0  0  0  0  0  0  0  0  0  0  0  0
   23.6724   14.4422   -5.9765 C   0  0  0  0  0  0  0  0  0  0  0  0
   16.5715   18.0239    3.5476 C   0  0  0  0  0  0  0  0  0  0  0  0
   17.3744   19.2274    3.3592 C   0  0  0  0  0  0  0  0  0  0  0  0
   17.3058   20.3772    4.0717 C   0  0  0  0  0  0  0  0  0  0  0  0
   18.1243   21.5729    3.8628 C   0  0  0  0  0  0  0  0  0  0  0  0
   19.1130   21.6948    2.8637 C   0  0  0  0  0  0  0  0  0  0  0  0
   19.8354   22.8812    2.7530 C   0  0  0  0  0  0  0  0  0  0  0  0
   19.6578   23.9452    3.5456 N   0  0  0  0  0  0  0  0  0  0  0  0
   18.7242   23.8396    4.4942 C   0  0  0  0  0  0  0  0  0  0  0  0
   17.9449   22.6983    4.6916 C   0  0  0  0  0  0  0  0  0  0  0  0
   15.5689   17.9162    4.5329 C   0  0  0  0  0  0  0  0  0  0  0  0
   14.8074   16.7604    4.6975 C   0  0  0  0  0  0  0  0  0  0  0  0
   13.8393   16.6268    5.6459 O   0  0  0  0  0  0  0  0  0  0  0  0
   13.5945   17.6791    6.5612 C   0  0  0  0  0  0  0  0  0  0  0  0
   12.5072   17.2356    7.5279 C   0  0  0  0  0  0  0  0  0  0  0  0
   12.1714   18.2988    8.5771 C   0  0  0  0  0  0  0  0  0  0  0  0
   11.0760   17.8656    9.5563 C   0  0  0  0  0  0  0  0  0  0  0  0
   10.7353   18.9229   10.6105 C   0  0  0  0  0  0  0  0  0  0  0  0
    9.6394   18.4915   11.5892 C   0  0  0  0  0  0  0  0  0  0  0  0
    9.2975   19.5481   12.6445 C   0  0  0  0  0  0  0  0  0  0  0  0
    8.2022   19.1097   13.6176 C   0  0  0  0  0  0  0  0  0  0  0  0
   14.4868   10.7633    3.2598 C   0  0  0  0  0  0  0  0  0  0  0  0
   13.9266    9.4873    3.3248 C   0  0  0  0  0  0  0  0  0  0  0  0
   14.5913    8.3696    2.9184 O   0  0  0  0  0  0  0  0  0  0  0  0
   15.8915    8.4737    2.3657 C   0  0  0  0  0  0  0  0  0  0  0  0
   16.3657    7.0807    1.9794 C   0  0  0  0  0  0  0  0  0  0  0  0
   17.7642    7.0791    1.3558 C   0  0  0  0  0  0  0  0  0  0  0  0
   18.2566    5.6828    0.9631 C   0  0  0  0  0  0  0  0  0  0  0  0
   19.6543    5.6731    0.3374 C   0  0  0  0  0  0  0  0  0  0  0  0
   20.1478    4.2778   -0.0561 C   0  0  0  0  0  0  0  0  0  0  0  0
   21.5459    4.2668   -0.6821 C   0  0  0  0  0  0  0  0  0  0  0  0
   22.0311    2.8700   -1.0724 C   0  0  0  0  0  0  0  0  0  0  0  0
   10.1485    5.4182    4.1119 C   0  0  0  0  0  0  0  0  0  0  0  0
    9.4143    6.5626    4.1928 O   0  0  0  0  0  0  0  0  0  0  0  0
    8.0055    6.5010    4.3509 C   0  0  0  0  0  0  0  0  0  0  0  0
    7.4424    7.9129    4.2763 C   0  0  0  0  0  0  0  0  0  0  0  0
    7.6160    8.5863    2.9113 C   0  0  0  0  0  0  0  0  0  0  0  0
    7.0882   10.0228    2.8642 C   0  0  0  0  0  0  0  0  0  0  0  0
    7.2330   10.6879    1.4921 C   0  0  0  0  0  0  0  0  0  0  0  0
    6.7290   12.1331    1.4447 C   0  0  0  0  0  0  0  0  0  0  0  0
    6.8559   12.7907    0.0669 C   0  0  0  0  0  0  0  0  0  0  0  0
    6.3587   14.2365    0.0296 C   0  0  0  0  0  0  0  0  0  0  0  0
    9.5820    4.1513    4.2431 C   0  0  0  0  0  0  0  0  0  0  0  0
   10.3332    2.9625    4.1405 C   0  0  0  0  0  0  0  0  0  0  0  0
    9.7450    1.6350    4.2799 C   0  0  0  0  0  0  0  0  0  0  0  0
    8.4470    1.3356    4.5248 C   0  0  0  0  0  0  0  0  0  0  0  0
    7.8811   -0.0077    4.6605 C   0  0  0  0  0  0  0  0  0  0  0  0
    8.6283   -1.1996    4.5528 C   0  0  0  0  0  0  0  0  0  0  0  0
    7.9872   -2.4281    4.6994 C   0  0  0  0  0  0  0  0  0  0  0  0
    6.6781   -2.5678    4.9417 N   0  0  0  0  0  0  0  0  0  0  0  0
    5.9624   -1.4454    5.0453 C   0  0  0  0  0  0  0  0  0  0  0  0
    6.5043   -0.1654    4.9157 C   0  0  0  0  0  0  0  0  0  0  0  0
   21.5228   -4.0846    2.3412 H   0  0  0  0  0  0  0  0  0  0  0  0
   19.9451   -4.6244    1.7227 H   0  0  0  0  0  0  0  0  0  0  0  0
   20.2466   -4.5872    3.4733 H   0  0  0  0  0  0  0  0  0  0  0  0
   20.1582   -2.0972    1.6399 H   0  0  0  0  0  0  0  0  0  0  0  0
   20.4574   -2.0603    3.3756 H   0  0  0  0  0  0  0  0  0  0  0  0
   18.1695   -3.0359    3.7912 H   0  0  0  0  0  0  0  0  0  0  0  0
   17.8701   -3.0729    2.0548 H   0  0  0  0  0  0  0  0  0  0  0  0
   18.1240   -0.5643    1.9574 H   0  0  0  0  0  0  0  0  0  0  0  0
   18.4237   -0.5273    3.6941 H   0  0  0  0  0  0  0  0  0  0  0  0
   16.1339   -1.5026    4.1101 H   0  0  0  0  0  0  0  0  0  0  0  0
   15.8341   -1.5401    2.3739 H   0  0  0  0  0  0  0  0  0  0  0  0
   16.0897    0.9657    2.2747 H   0  0  0  0  0  0  0  0  0  0  0  0
   16.3907    1.0035    4.0121 H   0  0  0  0  0  0  0  0  0  0  0  0
   14.0919    0.0357    4.4340 H   0  0  0  0  0  0  0  0  0  0  0  0
   13.7898   -0.0035    2.6931 H   0  0  0  0  0  0  0  0  0  0  0  0
   14.0360    2.4905    2.5860 H   0  0  0  0  0  0  0  0  0  0  0  0
   14.3421    2.5305    4.3422 H   0  0  0  0  0  0  0  0  0  0  0  0
   13.3604    4.4541    3.5654 H   0  0  0  0  0  0  0  0  0  0  0  0
   13.3269    6.6609    3.4180 H   0  0  0  0  0  0  0  0  0  0  0  0
   10.8410    8.2039    4.2948 H   0  0  0  0  0  0  0  0  0  0  0  0
   10.9203   10.3756    4.6175 H   0  0  0  0  0  0  0  0  0  0  0  0
   10.4447   12.2264    5.9525 H   0  0  0  0  0  0  0  0  0  0  0  0
    9.8640   12.2747    4.2652 H   0  0  0  0  0  0  0  0  0  0  0  0
   10.5949   14.7337    5.9539 H   0  0  0  0  0  0  0  0  0  0  0  0
    8.9545   14.1203    5.7114 H   0  0  0  0  0  0  0  0  0  0  0  0
    9.1560   14.5101    3.2381 H   0  0  0  0  0  0  0  0  0  0  0  0
   10.8078   15.0906    3.4544 H   0  0  0  0  0  0  0  0  0  0  0  0
    9.9610   16.9876    4.8753 H   0  0  0  0  0  0  0  0  0  0  0  0
    8.3076   16.4049    4.6828 H   0  0  0  0  0  0  0  0  0  0  0  0
    8.4777   16.7484    2.1902 H   0  0  0  0  0  0  0  0  0  0  0  0
   10.1319   17.3254    2.3819 H   0  0  0  0  0  0  0  0  0  0  0  0
    9.3003   19.2305    3.8136 H   0  0  0  0  0  0  0  0  0  0  0  0
    7.6460   18.6532    3.6210 H   0  0  0  0  0  0  0  0  0  0  0  0
    7.8199   18.9908    1.1280 H   0  0  0  0  0  0  0  0  0  0  0  0
    9.4730   19.5677    1.3213 H   0  0  0  0  0  0  0  0  0  0  0  0
    6.9714   20.9289    2.5293 H   0  0  0  0  0  0  0  0  0  0  0  0
    7.8841   21.5006    1.1139 H   0  0  0  0  0  0  0  0  0  0  0  0
    8.6390   21.5109    2.7240 H   0  0  0  0  0  0  0  0  0  0  0  0
   15.4919   13.0890    3.0278 H   0  0  0  0  0  0  0  0  0  0  0  0
   13.3298   14.5448    4.6470 H   0  0  0  0  0  0  0  0  0  0  0  0
   16.1791   14.8989    2.1996 H   0  0  0  0  0  0  0  0  0  0  0  0
   17.1248   15.7006    0.2886 H   0  0  0  0  0  0  0  0  0  0  0  0
   18.3354   15.0656    1.4335 H   0  0  0  0  0  0  0  0  0  0  0  0
   20.0260   16.6850    0.5308 H   0  0  0  0  0  0  0  0  0  0  0  0
   18.8252   17.3148   -0.6029 H   0  0  0  0  0  0  0  0  0  0  0  0
   18.6437   15.0304   -1.6761 H   0  0  0  0  0  0  0  0  0  0  0  0
   19.8442   14.4034   -0.5465 H   0  0  0  0  0  0  0  0  0  0  0  0
   21.5439   16.0313   -1.4504 H   0  0  0  0  0  0  0  0  0  0  0  0
   20.3440   16.6577   -2.5790 H   0  0  0  0  0  0  0  0  0  0  0  0
   20.1529   14.3766   -3.6418 H   0  0  0  0  0  0  0  0  0  0  0  0
   21.3539   13.7507   -2.5137 H   0  0  0  0  0  0  0  0  0  0  0  0
   23.0554   15.3775   -3.4230 H   0  0  0  0  0  0  0  0  0  0  0  0
   21.8543   16.0031   -4.5509 H   0  0  0  0  0  0  0  0  0  0  0  0
   21.6628   13.7230   -5.6109 H   0  0  0  0  0  0  0  0  0  0  0  0
   22.8637   13.0979   -4.4838 H   0  0  0  0  0  0  0  0  0  0  0  0
   23.3804   15.3309   -6.5611 H   0  0  0  0  0  0  0  0  0  0  0  0
   23.9275   13.6437   -6.6914 H   0  0  0  0  0  0  0  0  0  0  0  0
   24.5918   14.7004   -5.4245 H   0  0  0  0  0  0  0  0  0  0  0  0
   18.1001   19.1562    2.5472 H   0  0  0  0  0  0  0  0  0  0  0  0
   16.5846   20.4619    4.8910 H   0  0  0  0  0  0  0  0  0  0  0  0
   19.3217   20.8746    2.1742 H   0  0  0  0  0  0  0  0  0  0  0  0
   20.6040   22.9765    1.9763 H   0  0  0  0  0  0  0  0  0  0  0  0
   18.5824   24.7142    5.1411 H   0  0  0  0  0  0  0  0  0  0  0  0
   17.1970   22.6802    5.4891 H   0  0  0  0  0  0  0  0  0  0  0  0
   15.3927   18.7713    5.1824 H   0  0  0  0  0  0  0  0  0  0  0  0
   13.2814   18.5931    6.0196 H   0  0  0  0  0  0  0  0  0  0  0  0
   14.5226   17.9264    7.1121 H   0  0  0  0  0  0  0  0  0  0  0  0
   12.8360   16.3046    8.0208 H   0  0  0  0  0  0  0  0  0  0  0  0
   11.6045   16.9781    6.9472 H   0  0  0  0  0  0  0  0  0  0  0  0
   11.8582   19.2311    8.0714 H   0  0  0  0  0  0  0  0  0  0  0  0
   13.0843   18.5575    9.1451 H   0  0  0  0  0  0  0  0  0  0  0  0
   11.3881   16.9327   10.0611 H   0  0  0  0  0  0  0  0  0  0  0  0
   10.1627   17.6073    8.9890 H   0  0  0  0  0  0  0  0  0  0  0  0
   10.4254   19.8561   10.1041 H   0  0  0  0  0  0  0  0  0  0  0  0
   11.6496   19.1804   11.1771 H   0  0  0  0  0  0  0  0  0  0  0  0
    9.9490   17.5580   12.0956 H   0  0  0  0  0  0  0  0  0  0  0  0
    8.7248   18.2338   11.0227 H   0  0  0  0  0  0  0  0  0  0  0  0
    8.9890   20.4804   12.1372 H   0  0  0  0  0  0  0  0  0  0  0  0
   10.2121   19.8048   13.2098 H   0  0  0  0  0  0  0  0  0  0  0  0
    7.2621   18.8822   13.0873 H   0  0  0  0  0  0  0  0  0  0  0  0
    7.9829   19.8927   14.3610 H   0  0  0  0  0  0  0  0  0  0  0  0
    8.4959   18.2007   14.1691 H   0  0  0  0  0  0  0  0  0  0  0  0
   15.4985   10.8859    2.8749 H   0  0  0  0  0  0  0  0  0  0  0  0
   16.5842    8.9266    3.1011 H   0  0  0  0  0  0  0  0  0  0  0  0
   15.8756    9.1354    1.4783 H   0  0  0  0  0  0  0  0  0  0  0  0
   15.6361    6.6440    1.2756 H   0  0  0  0  0  0  0  0  0  0  0  0
   16.3535    6.4421    2.8799 H   0  0  0  0  0  0  0  0  0  0  0  0
   18.4840    7.5326    2.0624 H   0  0  0  0  0  0  0  0  0  0  0  0
   17.7698    7.7304    0.4621 H   0  0  0  0  0  0  0  0  0  0  0  0
   17.5367    5.2288    0.2572 H   0  0  0  0  0  0  0  0  0  0  0  0
   18.2515    5.0310    1.8564 H   0  0  0  0  0  0  0  0  0  0  0  0
   20.3732    6.1284    1.0439 H   0  0  0  0  0  0  0  0  0  0  0  0
   19.6586    6.3265   -0.5550 H   0  0  0  0  0  0  0  0  0  0  0  0
   19.4289    3.8224   -0.7630 H   0  0  0  0  0  0  0  0  0  0  0  0
   20.1434    3.6240    0.8362 H   0  0  0  0  0  0  0  0  0  0  0  0
   22.2631    4.7224    0.0249 H   0  0  0  0  0  0  0  0  0  0  0  0
   21.5491    4.9208   -1.5732 H   0  0  0  0  0  0  0  0  0  0  0  0
   22.0759    2.2014   -0.1961 H   0  0  0  0  0  0  0  0  0  0  0  0
   23.0381    2.9004   -1.5184 H   0  0  0  0  0  0  0  0  0  0  0  0
   21.3558    2.4017   -1.8082 H   0  0  0  0  0  0  0  0  0  0  0  0
    7.7563    6.0356    5.3231 H   0  0  0  0  0  0  0  0  0  0  0  0
    7.5646    5.8702    3.5555 H   0  0  0  0  0  0  0  0  0  0  0  0
    7.9168    8.5233    5.0652 H   0  0  0  0  0  0  0  0  0  0  0  0
    6.3697    7.8577    4.5343 H   0  0  0  0  0  0  0  0  0  0  0  0
    7.1000    7.9813    2.1426 H   0  0  0  0  0  0  0  0  0  0  0  0
    8.6842    8.5757    2.6363 H   0  0  0  0  0  0  0  0  0  0  0  0
    7.6192   10.6301    3.6216 H   0  0  0  0  0  0  0  0  0  0  0  0
    6.0240   10.0354    3.1663 H   0  0  0  0  0  0  0  0  0  0  0  0
    6.6898   10.0876    0.7387 H   0  0  0  0  0  0  0  0  0  0  0  0
    8.2950   10.6611    1.1856 H   0  0  0  0  0  0  0  0  0  0  0  0
    7.2835   12.7377    2.1874 H   0  0  0  0  0  0  0  0  0  0  0  0
    5.6709   12.1631    1.7664 H   0  0  0  0  0  0  0  0  0  0  0  0
    6.2974   12.1894   -0.6736 H   0  0  0  0  0  0  0  0  0  0  0  0
    7.9124   12.7553   -0.2556 H   0  0  0  0  0  0  0  0  0  0  0  0
    5.2956   14.3031    0.3161 H   0  0  0  0  0  0  0  0  0  0  0  0
    6.4596   14.6742   -0.9764 H   0  0  0  0  0  0  0  0  0  0  0  0
    6.9276   14.8745    0.7272 H   0  0  0  0  0  0  0  0  0  0  0  0
    8.5143    4.0645    4.4327 H   0  0  0  0  0  0  0  0  0  0  0  0
   10.4600    0.8179    4.1687 H   0  0  0  0  0  0  0  0  0  0  0  0
    7.7190    2.1453    4.6393 H   0  0  0  0  0  0  0  0  0  0  0  0
    9.7018   -1.1761    4.3564 H   0  0  0  0  0  0  0  0  0  0  0  0
    8.5677   -3.3550    4.6158 H   0  0  0  0  0  0  0  0  0  0  0  0
    4.8901   -1.5652    5.2440 H   0  0  0  0  0  0  0  0  0  0  0  0
    5.8589    0.7120    5.0125 H   0  0  0  0  0  0  0  0  0  0  0  0
  1  2  1  0
  1 93  1  0
  1 94  1  0
  1 95  1  0
  2  3  1  0
  2 96  1  0
  2 97  1  0
  3  4  1  0
  3 98  1  0
  3 99  1  0
  4  5  1  0
  4100  1  0
  4101  1  0
  5  6  1  0
  5102  1  0
  5103  1  0
  6  7  1  0
  6104  1  0
  6105  1  0
  7  8  1  0
  7106  1  0
  7107  1  0
  8  9  1  0
  8108  1  0
  8109  1  0
  9 10  1  0
 10 11  2  0
 10 84  1  0
 11 12  1  0
 11110  1  0
 12 13  1  0
 12 73  2  0
 13 14  2  0
 13111  1  0
 14 15  1  0
 14112  1  0
 15 16  2  0
 15 63  1  0
 16 17  1  0
 16113  1  0
 17 18  1  0
 17 27  2  0
 18 19  1  0
 19 20  1  0
 19114  1  0
 19115  1  0
 20 21  1  0
 20116  1  0
 20117  1  0
 21 22  1  0
 21118  1  0
 21119  1  0
 22 23  1  0
 22120  1  0
 22121  1  0
 23 24  1  0
 23122  1  0
 23123  1  0
 24 25  1  0
 24124  1  0
 24125  1  0
 25 26  1  0
 25126  1  0
 25127  1  0
 26128  1  0
 26129  1  0
 26130  1  0
 27 28  1  0
 27 62  1  0
 28 29  2  0
 28131  1  0
 29 30  1  0
 29132  1  0
 30 31  2  0
 30 52  1  0
 31 32  1  0
 31133  1  0
 32 33  1  0
 32 42  2  0
 33 34  1  0
 34 35  1  0
 34134  1  0
 34135  1  0
 35 36  1  0
 35136  1  0
 35137  1  0
 36 37  1  0
 36138  1  0
 36139  1  0
 37 38  1  0
 37140  1  0
 37141  1  0
 38 39  1  0
 38142  1  0
 38143  1  0
 39 40  1  0
 39144  1  0
 39145  1  0
 40 41  1  0
 40146  1  0
 40147  1  0
 41148  1  0
 41149  1  0
 41150  1  0
 42 43  1  0
 42 51  1  0
 43 44  2  0
 43151  1  0
 44 45  1  0
 44152  1  0
 45 46  2  0
 45 50  1  0
 46 47  1  0
 46153  1  0
 47 48  2  0
 47154  1  0
 48 49  1  0
 49 50  2  0
 49155  1  0
 50156  1  0
 51 52  2  0
 51157  1  0
 52 53  1  0
 53 54  1  0
 54 55  1  0
 54158  1  0
 54159  1  0
 55 56  1  0
 55160  1  0
 55161  1  0
 56 57  1  0
 56162  1  0
 56163  1  0
 57 58  1  0
 57164  1  0
 57165  1  0
 58 59  1  0
 58166  1  0
 58167  1  0
 59 60  1  0
 59168  1  0
 59169  1  0
 60 61  1  0
 60170  1  0
 60171  1  0
 61172  1  0
 61173  1  0
 61174  1  0
 62 63  2  0
 62175  1  0
 63 64  1  0
 64 65  1  0
 65 66  1  0
 65176  1  0
 65177  1  0
 66 67  1  0
 66178  1  0
 66179  1  0
 67 68  1  0
 67180  1  0
 67181  1  0
 68 69  1  0
 68182  1  0
 68183  1  0
 69 70  1  0
 69184  1  0
 69185  1  0
 70 71  1  0
 70186  1  0
 70187  1  0
 71 72  1  0
 71188  1  0
 71189  1  0
 72190  1  0
 72191  1  0
 72192  1  0
 73 74  1  0
 73 83  1  0
 74 75  1  0
 75 76  1  0
 75193  1  0
 75194  1  0
 76 77  1  0
 76195  1  0
 76196  1  0
 77 78  1  0
 77197  1  0
 77198  1  0
 78 79  1  0
 78199  1  0
 78200  1  0
 79 80  1  0
 79201  1  0
 79202  1  0
 80 81  1  0
 80203  1  0
 80204  1  0
 81 82  1  0
 81205  1  0
 81206  1  0
 82207  1  0
 82208  1  0
 82209  1  0
 83 84  2  0
 83210  1  0
 84 85  1  0
 85 86  2  0
 85211  1  0
 86 87  1  0
 86212  1  0
 87 88  2  0
 87 92  1  0
 88 89  1  0
 88213  1  0
 89 90  2  0
 89214  1  0
 90 91  1  0
 91 92  2  0
 91215  1  0
 92216  1  0
M  END

