
     RDKit          3D

 40 41  0  0  0  0  0  0  0  0999 V2000
    1.0452    0.5124   -0.1351 C   0  0  0  0  0  0  0  0  0  0  0  0
    2.5398    0.1601   -0.0036 C   0  0  1  0  0  0  0  0  0  0  0  0
    3.0069    0.1081    1.3905 N   0  0  0  0  0  0  0  0  0  0  0  0
    2.3331   -0.8007    2.3027 C   0  0  0  0  0  0  0  0  0  0  0  0
    2.9842   -0.8417    3.6731 C   0  0  0  0  0  0  0  0  0  0  0  0
    2.2337   -1.2255    4.7978 C   0  0  0  0  0  0  0  0  0  0  0  0
    2.8205   -1.3145    6.0570 C   0  0  0  0  0  0  0  0  0  0  0  0
    4.1764   -0.9957    6.2344 C   0  0  0  0  0  0  0  0  0  0  0  0
    4.7494   -1.1136    7.6186 C   0  0  0  0  0  0  0  0  0  0  0  0
    4.2120   -1.7242    8.5050 O   0  0  0  0  0  0  0  0  0  0  0  0
    5.9263   -0.4832    7.8423 O   0  0  0  0  0  0  0  0  0  0  0  0
    4.9307   -0.6171    5.1132 C   0  0  0  0  0  0  0  0  0  0  0  0
    4.3428   -0.5412    3.8489 C   0  0  0  0  0  0  0  0  0  0  0  0
    2.9181   -1.1342   -0.7787 C   0  0  1  0  0  0  0  0  0  0  0  0
    2.5831   -1.0589   -2.2867 C   0  0  0  0  0  0  0  0  0  0  0  0
    3.4293   -0.0587   -3.0791 C   0  0  0  0  0  0  0  0  0  0  0  0
    5.2231   -0.4352   -3.0239 S   0  0  0  0  0  0  0  0  0  0  0  0
    5.4092   -0.5977   -1.2057 C   0  0  0  0  0  0  0  0  0  0  0  0
    4.3913   -1.5518   -0.5784 C   0  0  0  0  0  0  0  0  0  0  0  0
    0.7952    1.3661    0.5161 H   0  0  0  0  0  0  0  0  0  0  0  0
    0.3945   -0.3308    0.1496 H   0  0  0  0  0  0  0  0  0  0  0  0
    0.7801    0.8008   -1.1630 H   0  0  0  0  0  0  0  0  0  0  0  0
    3.1070    0.9951   -0.4484 H   0  0  0  0  0  0  0  0  0  0  0  0
    3.0004    1.0484    1.7833 H   0  0  0  0  0  0  0  0  0  0  0  0
    2.3769   -1.8194    1.8755 H   0  0  0  0  0  0  0  0  0  0  0  0
    1.2519   -0.5874    2.4411 H   0  0  0  0  0  0  0  0  0  0  0  0
    1.1714   -1.4592    4.6813 H   0  0  0  0  0  0  0  0  0  0  0  0
    2.2427   -1.6244    6.9297 H   0  0  0  0  0  0  0  0  0  0  0  0
    6.1644    0.0667    7.0832 H   0  0  0  0  0  0  0  0  0  0  0  0
    6.0012   -0.4052    5.2015 H   0  0  0  0  0  0  0  0  0  0  0  0
    4.9347   -0.2488    2.9801 H   0  0  0  0  0  0  0  0  0  0  0  0
    2.2950   -1.9491   -0.3676 H   0  0  0  0  0  0  0  0  0  0  0  0
    1.5166   -0.8196   -2.4316 H   0  0  0  0  0  0  0  0  0  0  0  0
    2.7351   -2.0605   -2.7222 H   0  0  0  0  0  0  0  0  0  0  0  0
    3.2615    0.9771   -2.7386 H   0  0  0  0  0  0  0  0  0  0  0  0
    3.1626   -0.0892   -4.1467 H   0  0  0  0  0  0  0  0  0  0  0  0
    5.3637    0.3997   -0.7382 H   0  0  0  0  0  0  0  0  0  0  0  0
    6.4335   -0.9734   -1.0579 H   0  0  0  0  0  0  0  0  0  0  0  0
    4.6061   -1.6331    0.4980 H   0  0  0  0  0  0  0  0  0  0  0  0
    4.5325   -2.5536   -1.0182 H   0  0  0  0  0  0  0  0  0  0  0  0
  1  2  1  0
  1 20  1  0
  1 21  1  0
  1 22  1  0
  2  3  1  0
  2 14  1  0
  2 23  1  6
  3  4  1  0
  3 24  1  0
  4  5  1  0
  4 25  1  0
  4 26  1  0
  5  6  2  0
  5 13  1  0
  6  7  1  0
  6 27  1  0
  7  8  2  0
  7 28  1  0
  8  9  1  0
  8 12  1  0
  9 10  2  0
  9 11  1  0
 11 29  1  0
 12 13  2  0
 12 30  1  0
 13 31  1  0
 14 15  1  0
 14 19  1  0
 14 32  1  1
 15 16  1  0
 15 33  1  0
 15 34  1  0
 16 17  1  0
 16 35  1  0
 16 36  1  0
 17 18  1  0
 18 19  1  0
 18 37  1  0
 18 38  1  0
 19 39  1  0
 19 40  1  0
M  END

