
     RDKit          3D

 49 52  0  0  0  0  0  0  0  0999 V2000
    0.5896   -1.3952   -4.0146 C   0  0  0  0  0  0  0  0  0  0  0  0
    0.6853   -2.7788   -4.6096 C   0  0  0  0  0  0  0  0  0  0  0  0
    0.8265   -2.9521   -5.9909 C   0  0  0  0  0  0  0  0  0  0  0  0
    0.9370   -4.2136   -6.5794 C   0  0  0  0  0  0  0  0  0  0  0  0
    0.9056   -5.3346   -5.7510 C   0  0  0  0  0  0  0  0  0  0  0  0
    1.0462   -6.9322   -6.4552 Cl  0  0  0  0  0  0  0  0  0  0  0  0
    0.7636   -5.2165   -4.3682 C   0  0  0  0  0  0  0  0  0  0  0  0
    0.6486   -3.9391   -3.7934 C   0  0  0  0  0  0  0  0  0  0  0  0
    0.4967   -3.7592   -2.4032 N   0  0  0  0  0  0  0  0  0  0  0  0
    0.5027   -4.7061   -1.4112 C   0  0  0  0  0  0  0  0  0  0  0  0
    0.6744   -5.8987   -1.5698 O   0  0  0  0  0  0  0  0  0  0  0  0
    0.2738   -4.1084    0.0083 C   0  0  2  0  0  0  0  0  0  0  0  0
    0.8003   -3.1454    0.0613 H   0  0  0  0  0  0  0  0  0  0  0  0
    0.7789   -5.0541    1.0867 C   0  0  0  0  0  0  0  0  0  0  0  0
   -1.1582   -3.7542    0.1867 N   0  0  0  0  0  0  0  0  0  0  0  0
   -1.9257   -4.7219    0.7316 N   0  0  0  0  0  0  0  0  0  0  0  0
   -3.1641   -4.5139    0.9470 N   0  0  0  0  0  0  0  0  0  0  0  0
   -3.6817   -3.3012    0.6279 C   0  0  0  0  0  0  0  0  0  0  0  0
   -5.3502   -2.8927    0.8983 S   0  0  0  0  0  0  0  0  0  0  0  0
   -5.0858   -1.2894    0.2456 C   0  0  0  0  0  0  0  0  0  0  0  0
   -3.7882   -1.0791   -0.1671 C   0  0  0  0  0  0  0  0  0  0  0  0
   -2.9776   -2.2397    0.0578 C   0  0  0  0  0  0  0  0  0  0  0  0
   -1.5849   -2.4747   -0.2398 C   0  0  0  0  0  0  0  0  0  0  0  0
   -0.8050   -1.7063   -0.8016 O   0  0  0  0  0  0  0  0  0  0  0  0
   -3.3404    0.2371   -0.7514 C   0  0  0  0  0  0  0  0  0  0  0  0
   -4.5355    1.1108   -1.1574 C   0  0  0  0  0  0  0  0  0  0  0  0
   -5.6350    1.1421   -0.0826 C   0  0  1  0  0  0  0  0  0  0  0  0
   -5.1659    1.4684    0.8649 H   0  0  0  0  0  0  0  0  0  0  0  0
   -6.7558    2.1257   -0.4247 C   0  0  0  0  0  0  0  0  0  0  0  0
   -6.1922   -0.2782    0.1460 C   0  0  0  0  0  0  0  0  0  0  0  0
    0.6170   -0.6299   -4.8028 H   0  0  0  0  0  0  0  0  0  0  0  0
    1.4253   -1.1875   -3.3233 H   0  0  0  0  0  0  0  0  0  0  0  0
   -0.3382   -1.2471   -3.4367 H   0  0  0  0  0  0  0  0  0  0  0  0
    0.8551   -2.0652   -6.6299 H   0  0  0  0  0  0  0  0  0  0  0  0
    1.0485   -4.3266   -7.6584 H   0  0  0  0  0  0  0  0  0  0  0  0
    0.7444   -6.0977   -3.7333 H   0  0  0  0  0  0  0  0  0  0  0  0
    0.2984   -2.8107   -2.0833 H   0  0  0  0  0  0  0  0  0  0  0  0
    0.5508   -4.6581    2.0868 H   0  0  0  0  0  0  0  0  0  0  0  0
    1.8697   -5.1535    0.9865 H   0  0  0  0  0  0  0  0  0  0  0  0
    0.3316   -6.0484    0.9788 H   0  0  0  0  0  0  0  0  0  0  0  0
   -2.6710    0.0567   -1.6057 H   0  0  0  0  0  0  0  0  0  0  0  0
   -2.7185    0.7651   -0.0055 H   0  0  0  0  0  0  0  0  0  0  0  0
   -4.9709    0.7292   -2.0995 H   0  0  0  0  0  0  0  0  0  0  0  0
   -4.1884    2.1352   -1.3689 H   0  0  0  0  0  0  0  0  0  0  0  0
   -7.2366    1.8617   -1.3821 H   0  0  0  0  0  0  0  0  0  0  0  0
   -6.3691    3.1528   -0.5179 H   0  0  0  0  0  0  0  0  0  0  0  0
   -7.5385    2.1313    0.3513 H   0  0  0  0  0  0  0  0  0  0  0  0
   -6.8636   -0.5490   -0.6915 H   0  0  0  0  0  0  0  0  0  0  0  0
   -6.8197   -0.3003    1.0533 H   0  0  0  0  0  0  0  0  0  0  0  0
  1  2  1  0
  1 31  1  0
  1 32  1  0
  1 33  1  0
  2  3  2  0
  2  8  1  0
  3  4  1  0
  3 34  1  0
  4  5  2  0
  4 35  1  0
  5  6  1  0
  5  7  1  0
  7  8  2  0
  7 36  1  0
  8  9  1  0
  9 10  1  0
  9 37  1  0
 10 11  2  0
 10 12  1  0
 12 13  1  6
 12 14  1  0
 12 15  1  0
 14 38  1  0
 14 39  1  0
 14 40  1  0
 15 16  1  0
 15 23  1  0
 16 17  2  0
 17 18  1  0
 18 19  2  0
 18 22  1  0
 19 20  1  0
 20 21  2  0
 20 30  1  0
 21 22  1  0
 21 25  1  0
 22 23  2  0
 23 24  1  0
 25 26  1  0
 25 41  1  0
 25 42  1  0
 26 27  1  0
 26 43  1  0
 26 44  1  0
 27 28  1  1
 27 29  1  0
 27 30  1  0
 29 45  1  0
 29 46  1  0
 29 47  1  0
 30 48  1  0
 30 49  1  0
M  CHG  2  19   1  24  -1
M  END

