
     RDKit          3D

 27 29  0  0  0  0  0  0  0  0999 V2000
    1.2551    0.5226    0.1020 O   0  0  0  0  0  0  0  0  0  0  0  0
    2.4063    0.1976    0.0929 C   0  0  0  0  0  0  0  0  0  0  0  0
    3.4406    1.1243    0.0820 O   0  0  0  0  0  0  0  0  0  0  0  0
    4.6694    0.4930    0.0679 C   0  0  0  0  0  0  0  0  0  0  0  0
    5.8221    1.1825    0.0578 C   0  0  0  0  0  0  0  0  0  0  0  0
    5.9359    2.6654    0.0606 C   0  0  0  0  0  0  0  0  0  0  0  0
    6.0155    3.3750    1.2708 C   0  0  0  0  0  0  0  0  0  0  0  0
    6.1448    4.7664    1.2727 C   0  0  0  0  0  0  0  0  0  0  0  0
    6.1985    5.4691    0.0656 C   0  0  0  0  0  0  0  0  0  0  0  0
    6.1208    4.7729   -1.1440 C   0  0  0  0  0  0  0  0  0  0  0  0
    5.9915    3.3815   -1.1470 C   0  0  0  0  0  0  0  0  0  0  0  0
    4.4320   -0.9569    0.0661 C   0  0  0  0  0  0  0  0  0  0  0  0
    5.2898   -2.0617    0.0532 C   0  0  0  0  0  0  0  0  0  0  0  0
    4.7150   -3.3357    0.0546 C   0  0  0  0  0  0  0  0  0  0  0  0
    3.3188   -3.5119    0.0683 C   0  0  0  0  0  0  0  0  0  0  0  0
    2.4634   -2.4081    0.0811 C   0  0  0  0  0  0  0  0  0  0  0  0
    3.0443   -1.1400    0.0801 C   0  0  0  0  0  0  0  0  0  0  0  0
    6.7439    0.5904    0.0466 H   0  0  0  0  0  0  0  0  0  0  0  0
    5.9695    2.8290    2.2163 H   0  0  0  0  0  0  0  0  0  0  0  0
    6.2003    5.3037    2.2230 H   0  0  0  0  0  0  0  0  0  0  0  0
    6.2984    6.5575    0.0675 H   0  0  0  0  0  0  0  0  0  0  0  0
    6.1574    5.3153   -2.0923 H   0  0  0  0  0  0  0  0  0  0  0  0
    5.9267    2.8406   -2.0944 H   0  0  0  0  0  0  0  0  0  0  0  0
    6.3754   -1.9421    0.0420 H   0  0  0  0  0  0  0  0  0  0  0  0
    5.3635   -4.2154    0.0446 H   0  0  0  0  0  0  0  0  0  0  0  0
    2.9050   -4.5230    0.0690 H   0  0  0  0  0  0  0  0  0  0  0  0
    1.3769   -2.5202    0.0922 H   0  0  0  0  0  0  0  0  0  0  0  0
  1  2  2  0
  2  3  1  0
  2 17  1  0
  3  4  1  0
  4  5  2  0
  4 12  1  0
  5  6  1  0
  5 18  1  0
  6  7  2  0
  6 11  1  0
  7  8  1  0
  7 19  1  0
  8  9  2  0
  8 20  1  0
  9 10  1  0
  9 21  1  0
 10 11  2  0
 10 22  1  0
 11 23  1  0
 12 13  2  0
 12 17  1  0
 13 14  1  0
 13 24  1  0
 14 15  2  0
 14 25  1  0
 15 16  1  0
 15 26  1  0
 16 17  2  0
 16 27  1  0
M  END

