
     RDKit          3D

 49 52  0  0  0  0  0  0  0  0999 V2000
    1.6996    1.1229   -6.0404 C   0  0  0  0  0  0  0  0  0  0  0  0
    1.7752    1.7346   -4.3453 S   0  0  1  0  0  0  0  0  0  0  0  0
    2.4546    3.0415   -4.3726 O   0  0  0  0  0  0  0  0  0  0  0  0
    0.4560    1.5778   -3.7226 O   0  0  0  0  0  0  0  0  0  0  0  0
    2.9248    0.5935   -3.4998 C   0  0  0  0  0  0  0  0  0  0  0  0
    4.2384    0.7330   -4.0620 N   0  0  0  0  0  0  0  0  0  0  0  0
    5.2454   -0.1746   -3.5344 C   0  0  0  0  0  0  0  0  0  0  0  0
    6.5295   -0.0565   -4.3443 C   0  0  0  0  0  0  0  0  0  0  0  0
    7.4645   -0.9619   -3.7896 O   0  0  0  0  0  0  0  0  0  0  0  0
    8.7129   -1.0508   -4.3067 C   0  0  0  0  0  0  0  0  0  0  0  0
    9.1673   -0.3136   -5.4118 C   0  0  0  0  0  0  0  0  0  0  0  0
   10.4790   -0.4801   -5.8633 C   0  0  0  0  0  0  0  0  0  0  0  0
   11.3411   -1.3713   -5.2235 C   0  0  0  0  0  0  0  0  0  0  0  0
   12.6832   -1.5434   -5.6985 N   0  0  0  0  0  0  0  0  0  0  0  0
   13.8202   -0.8059   -5.3831 C   0  0  0  0  0  0  0  0  0  0  0  0
   13.8682    0.3185   -4.4631 C   0  0  0  0  0  0  0  0  0  0  0  0
   12.8725    0.7883   -3.7503 N   0  0  0  0  0  0  0  0  0  0  0  0
   13.3673    1.8074   -3.0303 O   0  0  0  0  0  0  0  0  0  0  0  0
   14.7140    2.0123   -3.2720 N   0  0  0  0  0  0  0  0  0  0  0  0
   15.0494    1.1029   -4.1601 C   0  0  0  0  0  0  0  0  0  0  0  0
   16.2738    0.9470   -4.7089 N   0  0  0  0  0  0  0  0  0  0  0  0
   14.9006   -1.2324   -6.0080 N   0  0  0  0  0  0  0  0  0  0  0  0
   14.4868   -2.2983   -6.7749 C   0  0  0  0  0  0  0  0  0  0  0  0
   15.1873   -3.1473   -7.6490 C   0  0  0  0  0  0  0  0  0  0  0  0
   14.5702   -4.1284   -8.2961 N   0  0  0  0  0  0  0  0  0  0  0  0
   13.2476   -4.3133   -8.1119 C   0  0  0  0  0  0  0  0  0  0  0  0
   12.4418   -3.5413   -7.2743 C   0  0  0  0  0  0  0  0  0  0  0  0
   13.0997   -2.5111   -6.5961 C   0  0  0  0  0  0  0  0  0  0  0  0
   10.8856   -2.1118   -4.1235 C   0  0  0  0  0  0  0  0  0  0  0  0
    9.5824   -1.9547   -3.6693 C   0  0  0  0  0  0  0  0  0  0  0  0
    1.1542    1.8936   -6.6018 H   0  0  0  0  0  0  0  0  0  0  0  0
    1.1539    0.1707   -6.0551 H   0  0  0  0  0  0  0  0  0  0  0  0
    2.7264    1.0163   -6.4121 H   0  0  0  0  0  0  0  0  0  0  0  0
    2.5313   -0.4281   -3.6239 H   0  0  0  0  0  0  0  0  0  0  0  0
    2.8010    0.8829   -2.4341 H   0  0  0  0  0  0  0  0  0  0  0  0
    4.5300    1.7085   -3.9804 H   0  0  0  0  0  0  0  0  0  0  0  0
    4.8745   -1.2100   -3.6161 H   0  0  0  0  0  0  0  0  0  0  0  0
    5.4803   -0.0069   -2.4623 H   0  0  0  0  0  0  0  0  0  0  0  0
    6.9201    0.9785   -4.2982 H   0  0  0  0  0  0  0  0  0  0  0  0
    6.3262   -0.2921   -5.4046 H   0  0  0  0  0  0  0  0  0  0  0  0
    8.5151    0.3923   -5.9253 H   0  0  0  0  0  0  0  0  0  0  0  0
   10.8368    0.0966   -6.7188 H   0  0  0  0  0  0  0  0  0  0  0  0
   17.0579    1.4651   -4.3379 H   0  0  0  0  0  0  0  0  0  0  0  0
   16.4075    0.1319   -5.3015 H   0  0  0  0  0  0  0  0  0  0  0  0
   16.2629   -3.0149   -7.8141 H   0  0  0  0  0  0  0  0  0  0  0  0
   12.7983   -5.1392   -8.6750 H   0  0  0  0  0  0  0  0  0  0  0  0
   11.3740   -3.7365   -7.1628 H   0  0  0  0  0  0  0  0  0  0  0  0
   11.5634   -2.8057   -3.6219 H   0  0  0  0  0  0  0  0  0  0  0  0
    9.2103   -2.5172   -2.8112 H   0  0  0  0  0  0  0  0  0  0  0  0
  2  1  1  6
  1 31  1  0
  1 32  1  0
  1 33  1  0
  2  3  2  0
  2  4  2  0
  2  5  1  0
  5  6  1  0
  5 34  1  0
  5 35  1  0
  6  7  1  0
  6 36  1  0
  7  8  1  0
  7 37  1  0
  7 38  1  0
  8  9  1  0
  8 39  1  0
  8 40  1  0
  9 10  1  0
 10 11  2  0
 10 30  1  0
 11 12  1  0
 11 41  1  0
 12 13  2  0
 12 42  1  0
 13 14  1  0
 13 29  1  0
 14 15  1  0
 14 28  1  0
 15 16  1  0
 15 22  2  0
 16 17  2  0
 16 20  1  0
 17 18  1  0
 18 19  1  0
 19 20  2  0
 20 21  1  0
 21 43  1  0
 21 44  1  0
 22 23  1  0
 23 24  2  0
 23 28  1  0
 24 25  1  0
 24 45  1  0
 25 26  2  0
 26 27  1  0
 26 46  1  0
 27 28  2  0
 27 47  1  0
 29 30  2  0
 29 48  1  0
 30 49  1  0
M  END

