
     RDKit          3D

 46 48  0  0  0  0  0  0  0  0999 V2000
    2.1558   -1.3507    0.4286 C   0  0  0  0  0  0  0  0  0  0  0  0
    3.2281   -1.6061   -0.6416 C   0  0  1  0  0  0  0  0  0  0  0  0
    2.7584   -2.5891   -1.7348 C   0  0  0  0  0  0  0  0  0  0  0  0
    1.7411   -1.9672   -2.7011 C   0  0  0  0  0  0  0  0  0  0  0  0
    2.2868   -0.6829   -3.3413 C   0  0  0  0  0  0  0  0  0  0  0  0
    2.7190    0.3202   -2.2595 C   0  0  2  0  0  0  0  0  0  0  0  0
    3.1888    1.6052   -2.8283 N   0  0  0  0  0  0  0  0  0  0  0  0
    4.2870    1.5304   -3.7917 C   0  0  0  0  0  0  0  0  0  0  0  0
    5.3473    2.6243   -3.6708 C   0  0  0  0  0  0  0  0  0  0  0  0
    4.9355    3.8947   -4.3902 C   0  0  0  0  0  0  0  0  0  0  0  0
    5.6629    4.4632   -5.1845 O   0  0  0  0  0  0  0  0  0  0  0  0
    3.6372    4.2942   -4.1839 N   0  0  0  0  0  0  0  0  0  0  0  0
    2.8223    4.1736   -2.9607 C   0  0  2  0  0  0  0  0  0  0  0  0
    1.4400    4.7357   -3.3485 C   0  0  0  0  0  0  0  0  0  0  0  0
    3.4995    4.9599   -1.8181 C   0  0  1  0  0  0  0  0  0  0  0  0
    3.4018    6.4606   -1.6786 C   0  0  0  0  0  0  0  0  0  0  0  0
    2.7692    5.5571   -0.6498 C   0  0  0  0  0  0  0  0  0  0  0  0
    2.5342    2.7368   -2.4063 C   0  0  0  0  0  0  0  0  0  0  0  0
    1.6680    2.6819   -1.5416 O   0  0  0  0  0  0  0  0  0  0  0  0
    3.7421   -0.3016   -1.2916 C   0  0  0  0  0  0  0  0  0  0  0  0
    1.8526   -2.2944    0.9107 H   0  0  0  0  0  0  0  0  0  0  0  0
    1.2463   -0.8833    0.0198 H   0  0  0  0  0  0  0  0  0  0  0  0
    2.5379   -0.6811    1.2158 H   0  0  0  0  0  0  0  0  0  0  0  0
    4.0873   -2.0711   -0.1262 H   0  0  0  0  0  0  0  0  0  0  0  0
    2.3379   -3.4964   -1.2687 H   0  0  0  0  0  0  0  0  0  0  0  0
    3.6393   -2.9204   -2.3149 H   0  0  0  0  0  0  0  0  0  0  0  0
    0.8028   -1.7387   -2.1664 H   0  0  0  0  0  0  0  0  0  0  0  0
    1.4748   -2.6934   -3.4870 H   0  0  0  0  0  0  0  0  0  0  0  0
    1.5268   -0.2197   -3.9925 H   0  0  0  0  0  0  0  0  0  0  0  0
    3.1429   -0.9458   -3.9888 H   0  0  0  0  0  0  0  0  0  0  0  0
    1.8314    0.5948   -1.6779 H   0  0  0  0  0  0  0  0  0  0  0  0
    3.9059    1.5013   -4.8284 H   0  0  0  0  0  0  0  0  0  0  0  0
    4.7818    0.5654   -3.6213 H   0  0  0  0  0  0  0  0  0  0  0  0
    6.2828    2.2985   -4.1459 H   0  0  0  0  0  0  0  0  0  0  0  0
    5.5698    2.8206   -2.6084 H   0  0  0  0  0  0  0  0  0  0  0  0
    3.4395    5.1446   -4.7068 H   0  0  0  0  0  0  0  0  0  0  0  0
    1.5267    5.7770   -3.6948 H   0  0  0  0  0  0  0  0  0  0  0  0
    0.7480    4.6867   -2.5017 H   0  0  0  0  0  0  0  0  0  0  0  0
    1.0198    4.1392   -4.1719 H   0  0  0  0  0  0  0  0  0  0  0  0
    4.4864    4.5492   -1.5780 H   0  0  0  0  0  0  0  0  0  0  0  0
    2.7355    7.0115   -2.3480 H   0  0  0  0  0  0  0  0  0  0  0  0
    4.3129    7.0068   -1.4191 H   0  0  0  0  0  0  0  0  0  0  0  0
    1.6802    5.4828   -0.6318 H   0  0  0  0  0  0  0  0  0  0  0  0
    3.2331    5.4734    0.3370 H   0  0  0  0  0  0  0  0  0  0  0  0
    3.9966    0.4356   -0.5122 H   0  0  0  0  0  0  0  0  0  0  0  0
    4.6784   -0.5290   -1.8329 H   0  0  0  0  0  0  0  0  0  0  0  0
  1  2  1  0
  1 21  1  0
  1 22  1  0
  1 23  1  0
  2  3  1  0
  2 20  1  0
  2 24  1  1
  3  4  1  0
  3 25  1  0
  3 26  1  0
  4  5  1  0
  4 27  1  0
  4 28  1  0
  5  6  1  0
  5 29  1  0
  5 30  1  0
  6  7  1  0
  6 20  1  0
  6 31  1  1
  7  8  1  0
  7 18  1  0
  8  9  1  0
  8 32  1  0
  8 33  1  0
  9 10  1  0
  9 34  1  0
  9 35  1  0
 10 11  2  0
 10 12  1  0
 12 13  1  0
 12 36  1  0
 13 14  1  6
 13 15  1  0
 13 18  1  0
 14 37  1  0
 14 38  1  0
 14 39  1  0
 15 16  1  0
 15 17  1  0
 15 40  1  1
 16 17  1  0
 16 41  1  0
 16 42  1  0
 17 43  1  0
 17 44  1  0
 18 19  2  0
 20 45  1  0
 20 46  1  0
M  END

