
     RDKit          3D

 73 76  0  0  0  0  0  0  0  0999 V2000
    7.6827   -4.3972   -1.2368 C   0  0  0  0  0  0  0  0  0  0  0  0
    7.6649   -5.8061   -1.2639 O   0  0  0  0  0  0  0  0  0  0  0  0
    6.4793   -6.4585   -1.1624 C   0  0  0  0  0  0  0  0  0  0  0  0
    6.5382   -7.8583   -1.2200 C   0  0  0  0  0  0  0  0  0  0  0  0
    5.3774   -8.6232   -1.1187 C   0  0  0  0  0  0  0  0  0  0  0  0
    5.4831   -9.9822   -1.1211 O   0  0  0  0  0  0  0  0  0  0  0  0
    5.1526  -10.6396   -2.3376 C   0  0  0  0  0  0  0  0  0  0  0  0
    4.1313   -7.9809   -0.9599 C   0  0  0  0  0  0  0  0  0  0  0  0
    2.7015   -8.9607   -0.7305 Cl  0  0  0  0  0  0  0  0  0  0  0  0
    4.0536   -6.5808   -0.9188 C   0  0  0  0  0  0  0  0  0  0  0  0
    2.7540   -5.8758   -0.7473 C   0  0  0  0  0  0  0  0  0  0  0  0
    2.4781   -5.1168    0.3509 C   0  0  0  0  0  0  0  0  0  0  0  0
    1.2307   -4.4341    0.4914 C   0  0  0  0  0  0  0  0  0  0  0  0
    0.8608   -3.6392    1.5917 C   0  0  0  0  0  0  0  0  0  0  0  0
   -0.3054   -3.0330    1.6989 N   0  0  0  0  0  0  0  0  0  0  0  0
   -1.1699   -3.2094    0.6663 C   0  0  0  0  0  0  0  0  0  0  0  0
   -2.3617   -2.5860    0.7892 N   0  0  0  0  0  0  0  0  0  0  0  0
   -0.9340   -3.9299   -0.4427 N   0  0  0  0  0  0  0  0  0  0  0  0
    0.2485   -4.5457   -0.5316 C   0  0  0  0  0  0  0  0  0  0  0  0
    0.5317   -5.3118   -1.6426 N   0  0  0  0  0  0  0  0  0  0  0  0
   -0.4568   -5.4384   -2.7195 C   0  0  0  0  0  0  0  0  0  0  0  0
   -0.2464   -4.4161   -3.8598 C   0  0  0  0  0  0  0  0  0  0  0  0
   -1.5279   -4.1258   -4.6098 C   0  0  0  0  0  0  0  0  0  0  0  0
   -1.7358   -4.4749   -5.9518 C   0  0  0  0  0  0  0  0  0  0  0  0
   -2.9577   -4.1859   -6.5711 C   0  0  0  0  0  0  0  0  0  0  0  0
   -3.9993   -3.5598   -5.8817 C   0  0  0  0  0  0  0  0  0  0  0  0
   -3.7970   -3.2158   -4.5348 C   0  0  0  0  0  0  0  0  0  0  0  0
   -4.7642   -2.6088   -3.7110 N   0  0  0  0  0  0  0  0  0  0  0  0
   -6.0618   -2.2753   -3.9654 C   0  0  0  0  0  0  0  0  0  0  0  0
   -6.6215   -2.3788   -5.0418 O   0  0  0  0  0  0  0  0  0  0  0  0
   -6.8013   -1.7379   -2.7383 C   0  0  0  0  0  0  0  0  0  0  0  0
   -6.0938   -1.7524   -1.4913 C   0  0  0  0  0  0  0  0  0  0  0  0
   -5.4113   -1.8256   -0.5514 N   0  0  0  0  0  0  0  0  0  0  0  0
   -8.0747   -1.3130   -2.8990 C   0  0  0  0  0  0  0  0  0  0  0  0
   -9.0447   -0.7555   -1.8728 C   0  0  1  0  0  0  0  0  0  0  0  0
   -8.4572    0.5123   -1.2092 C   0  0  0  0  0  0  0  0  0  0  0  0
  -10.3562   -0.3881   -2.5948 C   0  0  0  0  0  0  0  0  0  0  0  0
   -9.3396   -1.8245   -0.7931 C   0  0  0  0  0  0  0  0  0  0  0  0
   -2.5677   -3.4926   -3.9219 C   0  0  0  0  0  0  0  0  0  0  0  0
    1.7737   -5.9653   -1.8468 C   0  0  0  0  0  0  0  0  0  0  0  0
    1.9798   -6.5485   -2.8980 O   0  0  0  0  0  0  0  0  0  0  0  0
    5.2375   -5.8262   -1.0165 C   0  0  0  0  0  0  0  0  0  0  0  0
    8.7339   -4.0955   -1.3384 H   0  0  0  0  0  0  0  0  0  0  0  0
    7.2877   -3.9979   -0.2849 H   0  0  0  0  0  0  0  0  0  0  0  0
    7.1036   -3.9616   -2.0711 H   0  0  0  0  0  0  0  0  0  0  0  0
    7.5013   -8.3574   -1.3338 H   0  0  0  0  0  0  0  0  0  0  0  0
    5.2969  -11.7151   -2.1644 H   0  0  0  0  0  0  0  0  0  0  0  0
    5.8166  -10.3141   -3.1587 H   0  0  0  0  0  0  0  0  0  0  0  0
    4.1046  -10.4593   -2.6287 H   0  0  0  0  0  0  0  0  0  0  0  0
    3.2145   -5.0354    1.1564 H   0  0  0  0  0  0  0  0  0  0  0  0
    1.5698   -3.5067    2.4199 H   0  0  0  0  0  0  0  0  0  0  0  0
   -2.5410   -2.0688    1.6391 H   0  0  0  0  0  0  0  0  0  0  0  0
   -3.1101   -2.6979    0.1174 H   0  0  0  0  0  0  0  0  0  0  0  0
   -1.4408   -5.2986   -2.2616 H   0  0  0  0  0  0  0  0  0  0  0  0
   -0.3809   -6.4594   -3.1139 H   0  0  0  0  0  0  0  0  0  0  0  0
    0.5394   -4.7793   -4.5374 H   0  0  0  0  0  0  0  0  0  0  0  0
    0.1196   -3.4761   -3.4142 H   0  0  0  0  0  0  0  0  0  0  0  0
   -0.9407   -4.9717   -6.5138 H   0  0  0  0  0  0  0  0  0  0  0  0
   -3.1073   -4.4588   -7.6191 H   0  0  0  0  0  0  0  0  0  0  0  0
   -4.9518   -3.3411   -6.3605 H   0  0  0  0  0  0  0  0  0  0  0  0
   -4.4404   -2.4442   -2.7643 H   0  0  0  0  0  0  0  0  0  0  0  0
   -8.4254   -1.4073   -3.9343 H   0  0  0  0  0  0  0  0  0  0  0  0
   -8.2317    1.2861   -1.9597 H   0  0  0  0  0  0  0  0  0  0  0  0
   -7.5344    0.2965   -0.6510 H   0  0  0  0  0  0  0  0  0  0  0  0
   -9.1879    0.9319   -0.4994 H   0  0  0  0  0  0  0  0  0  0  0  0
  -10.1831    0.3719   -3.3735 H   0  0  0  0  0  0  0  0  0  0  0  0
  -11.0909    0.0188   -1.8830 H   0  0  0  0  0  0  0  0  0  0  0  0
  -10.8059   -1.2705   -3.0778 H   0  0  0  0  0  0  0  0  0  0  0  0
   -8.4361   -2.0983   -0.2284 H   0  0  0  0  0  0  0  0  0  0  0  0
   -9.7545   -2.7405   -1.2422 H   0  0  0  0  0  0  0  0  0  0  0  0
  -10.0793   -1.4337   -0.0761 H   0  0  0  0  0  0  0  0  0  0  0  0
   -2.4166   -3.2205   -2.8719 H   0  0  0  0  0  0  0  0  0  0  0  0
    5.1574   -4.7402   -0.9929 H   0  0  0  0  0  0  0  0  0  0  0  0
  1  2  1  0
  1 43  1  0
  1 44  1  0
  1 45  1  0
  2  3  1  0
  3  4  2  0
  3 42  1  0
  4  5  1  0
  4 46  1  0
  5  6  1  0
  5  8  2  0
  6  7  1  0
  7 47  1  0
  7 48  1  0
  7 49  1  0
  8  9  1  0
  8 10  1  0
 10 11  1  0
 10 42  2  0
 11 12  2  0
 11 40  1  0
 12 13  1  0
 12 50  1  0
 13 14  2  0
 13 19  1  0
 14 15  1  0
 14 51  1  0
 15 16  2  0
 16 17  1  0
 16 18  1  0
 17 52  1  0
 17 53  1  0
 18 19  2  0
 19 20  1  0
 20 21  1  0
 20 40  1  0
 21 22  1  0
 21 54  1  0
 21 55  1  0
 22 23  1  0
 22 56  1  0
 22 57  1  0
 23 24  2  0
 23 39  1  0
 24 25  1  0
 24 58  1  0
 25 26  2  0
 25 59  1  0
 26 27  1  0
 26 60  1  0
 27 28  1  0
 27 39  2  0
 28 29  1  0
 28 61  1  0
 29 30  2  0
 29 31  1  0
 31 32  1  0
 31 34  2  0
 32 33  3  0
 35 34  1  6
 34 62  1  0
 35 36  1  0
 35 37  1  0
 35 38  1  0
 36 63  1  0
 36 64  1  0
 36 65  1  0
 37 66  1  0
 37 67  1  0
 37 68  1  0
 38 69  1  0
 38 70  1  0
 38 71  1  0
 39 72  1  0
 40 41  2  0
 42 73  1  0
M  END

