
     RDKit          3D

 39 40  0  0  0  0  0  0  0  0999 V2000
    0.9461   -0.2829   -2.6252 C   0  0  0  0  0  0  0  0  0  0  0  0
    2.0940   -0.3336   -1.7367 N   0  0  0  0  0  0  0  0  0  0  0  0
    2.9950   -1.4610   -1.9400 C   0  0  0  0  0  0  0  0  0  0  0  0
    4.3391   -1.3230   -1.2126 C   0  0  2  0  0  0  0  0  0  0  0  0
    5.0923   -2.5604   -1.3015 N   0  0  0  0  0  0  0  0  0  0  0  0
    6.1858   -2.7061   -2.1016 C   0  0  0  0  0  0  0  0  0  0  0  0
    6.6629   -1.8213   -2.7919 O   0  0  0  0  0  0  0  0  0  0  0  0
    6.8043   -4.1187   -2.0640 C   0  0  0  0  0  0  0  0  0  0  0  0
    5.9819   -5.1467   -2.6860 N   0  0  0  0  0  0  0  0  0  0  0  0
    4.9501   -5.7458   -2.0273 C   0  0  0  0  0  0  0  0  0  0  0  0
    4.6185   -5.4059   -0.8931 O   0  0  0  0  0  0  0  0  0  0  0  0
    4.2320   -6.8439   -2.7552 C   0  0  0  0  0  0  0  0  0  0  0  0
    4.7844   -7.5862   -3.8085 C   0  0  0  0  0  0  0  0  0  0  0  0
    4.0211   -8.5943   -4.3963 C   0  0  0  0  0  0  0  0  0  0  0  0
    2.7321   -8.8255   -3.9046 C   0  0  0  0  0  0  0  0  0  0  0  0
    2.1965   -8.1354   -2.8938 N   0  0  0  0  0  0  0  0  0  0  0  0
    2.9323   -7.1773   -2.3331 C   0  0  0  0  0  0  0  0  0  0  0  0
    4.0973   -0.8845    0.2310 C   0  0  0  0  0  0  0  0  0  0  0  0
    3.3758    0.4612    0.2322 C   0  0  0  0  0  0  0  0  0  0  0  0
    2.1588    0.5552   -0.6847 C   0  0  0  0  0  0  0  0  0  0  0  0
    1.3148    1.4185   -0.5051 O   0  0  0  0  0  0  0  0  0  0  0  0
    1.2717   -0.1886   -3.6757 H   0  0  0  0  0  0  0  0  0  0  0  0
    0.3337    0.5838   -2.3510 H   0  0  0  0  0  0  0  0  0  0  0  0
    0.3352   -1.2001   -2.5372 H   0  0  0  0  0  0  0  0  0  0  0  0
    3.1812   -1.5710   -3.0224 H   0  0  0  0  0  0  0  0  0  0  0  0
    2.5053   -2.4011   -1.6099 H   0  0  0  0  0  0  0  0  0  0  0  0
    4.9463   -0.5619   -1.7265 H   0  0  0  0  0  0  0  0  0  0  0  0
    4.7594   -3.3922   -0.8094 H   0  0  0  0  0  0  0  0  0  0  0  0
    6.9863   -4.4134   -1.0189 H   0  0  0  0  0  0  0  0  0  0  0  0
    7.7626   -4.0592   -2.5948 H   0  0  0  0  0  0  0  0  0  0  0  0
    6.0972   -5.3109   -3.6783 H   0  0  0  0  0  0  0  0  0  0  0  0
    5.8064   -7.4050   -4.1526 H   0  0  0  0  0  0  0  0  0  0  0  0
    4.4190   -9.1993   -5.2139 H   0  0  0  0  0  0  0  0  0  0  0  0
    2.1074   -9.6112   -4.3460 H   0  0  0  0  0  0  0  0  0  0  0  0
    2.4920   -6.6239   -1.4974 H   0  0  0  0  0  0  0  0  0  0  0  0
    5.0540   -0.8163    0.7723 H   0  0  0  0  0  0  0  0  0  0  0  0
    3.4886   -1.6477    0.7500 H   0  0  0  0  0  0  0  0  0  0  0  0
    4.0660    1.2600   -0.0934 H   0  0  0  0  0  0  0  0  0  0  0  0
    3.0297    0.7492    1.2351 H   0  0  0  0  0  0  0  0  0  0  0  0
  1  2  1  0
  1 22  1  0
  1 23  1  0
  1 24  1  0
  2  3  1  0
  2 20  1  0
  3  4  1  0
  3 25  1  0
  3 26  1  0
  4  5  1  0
  4 18  1  0
  4 27  1  6
  5  6  1  0
  5 28  1  0
  6  7  2  0
  6  8  1  0
  8  9  1  0
  8 29  1  0
  8 30  1  0
  9 10  1  0
  9 31  1  0
 10 11  2  0
 10 12  1  0
 12 13  2  0
 12 17  1  0
 13 14  1  0
 13 32  1  0
 14 15  2  0
 14 33  1  0
 15 16  1  0
 15 34  1  0
 16 17  2  0
 17 35  1  0
 18 19  1  0
 18 36  1  0
 18 37  1  0
 19 20  1  0
 19 38  1  0
 19 39  1  0
 20 21  2  0
M  END

