
     RDKit          3D

 58 61  0  0  0  0  0  0  0  0999 V2000
    2.9130   -5.6645   -6.2843 C   0  0  0  0  0  0  0  0  0  0  0  0
    2.3679   -5.6199   -4.8771 C   0  0  0  0  0  0  0  0  0  0  0  0
    1.2194   -6.3366   -4.5132 C   0  0  0  0  0  0  0  0  0  0  0  0
    0.7348   -6.2846   -3.2022 C   0  0  0  0  0  0  0  0  0  0  0  0
    1.3717   -5.5134   -2.2308 C   0  0  0  0  0  0  0  0  0  0  0  0
    2.5335   -4.8026   -2.5774 C   0  0  0  0  0  0  0  0  0  0  0  0
    3.1959   -3.9803   -1.6298 N   0  0  0  0  0  0  0  0  0  0  0  0
    3.7212   -4.4892   -0.1039 S   0  0  1  0  0  0  0  0  0  0  0  0
    4.3917   -3.3136    0.4470 O   0  0  0  0  0  0  0  0  0  0  0  0
    2.5905   -5.1382    0.5588 O   0  0  0  0  0  0  0  0  0  0  0  0
    4.9676   -5.7518   -0.3810 C   0  0  0  0  0  0  0  0  0  0  0  0
    6.3085   -5.3849   -0.5047 C   0  0  0  0  0  0  0  0  0  0  0  0
    7.2564   -6.3798   -0.7427 C   0  0  0  0  0  0  0  0  0  0  0  0
    6.9076   -7.7358   -0.8611 C   0  0  0  0  0  0  0  0  0  0  0  0
    7.9838   -8.7544   -1.1379 C   0  0  0  0  0  0  0  0  0  0  0  0
    5.5430   -8.0884   -0.7020 C   0  0  0  0  0  0  0  0  0  0  0  0
    5.1031   -9.5298   -0.8275 C   0  0  0  0  0  0  0  0  0  0  0  0
    5.6019  -10.2873   -1.6429 O   0  0  0  0  0  0  0  0  0  0  0  0
    4.1032   -9.8885    0.0485 N   0  0  0  0  0  0  0  0  0  0  0  0
    3.4246  -11.1190    0.1701 C   0  0  0  0  0  0  0  0  0  0  0  0
    3.6715  -12.2267   -0.6585 C   0  0  0  0  0  0  0  0  0  0  0  0
    2.9346  -13.3939   -0.4486 C   0  0  0  0  0  0  0  0  0  0  0  0
    1.9657  -13.5034    0.5497 C   0  0  0  0  0  0  0  0  0  0  0  0
    1.7203  -12.3931    1.3777 C   0  0  0  0  0  0  0  0  0  0  0  0
    0.7659  -12.3939    2.4121 N   0  0  0  0  0  0  0  0  0  0  0  0
   -0.0778  -13.4061    2.8191 C   0  0  0  0  0  0  0  0  0  0  0  0
   -0.1155  -14.5125    2.3067 O   0  0  0  0  0  0  0  0  0  0  0  0
   -0.9677  -13.0317    3.9696 C   0  0  1  0  0  0  0  0  0  0  0  0
   -2.3539  -13.6498    3.9999 C   0  0  0  0  0  0  0  0  0  0  0  0
   -1.3163  -14.1296    4.9585 C   0  0  0  0  0  0  0  0  0  0  0  0
    2.4525  -11.2122    1.1786 C   0  0  0  0  0  0  0  0  0  0  0  0
    4.5853   -7.0909   -0.4688 C   0  0  0  0  0  0  0  0  0  0  0  0
    3.0217   -4.8664   -3.8903 C   0  0  0  0  0  0  0  0  0  0  0  0
    2.2646   -6.2535   -6.9491 H   0  0  0  0  0  0  0  0  0  0  0  0
    3.9183   -6.1178   -6.3091 H   0  0  0  0  0  0  0  0  0  0  0  0
    3.0052   -4.6522   -6.7116 H   0  0  0  0  0  0  0  0  0  0  0  0
    0.6975   -6.9371   -5.2629 H   0  0  0  0  0  0  0  0  0  0  0  0
   -0.1677   -6.8411   -2.9364 H   0  0  0  0  0  0  0  0  0  0  0  0
    0.9841   -5.4457   -1.2149 H   0  0  0  0  0  0  0  0  0  0  0  0
    3.8544   -3.3042   -2.0102 H   0  0  0  0  0  0  0  0  0  0  0  0
    6.6012   -4.3387   -0.3977 H   0  0  0  0  0  0  0  0  0  0  0  0
    8.3089   -6.0987   -0.8334 H   0  0  0  0  0  0  0  0  0  0  0  0
    8.9798   -8.2936   -1.0729 H   0  0  0  0  0  0  0  0  0  0  0  0
    7.8537   -9.1939   -2.1376 H   0  0  0  0  0  0  0  0  0  0  0  0
    7.9398   -9.5985   -0.4330 H   0  0  0  0  0  0  0  0  0  0  0  0
    3.8461   -9.1893    0.7350 H   0  0  0  0  0  0  0  0  0  0  0  0
    4.4255  -12.1609   -1.4379 H   0  0  0  0  0  0  0  0  0  0  0  0
    3.1250  -14.2573   -1.0916 H   0  0  0  0  0  0  0  0  0  0  0  0
    1.4012  -14.4195    0.7006 H   0  0  0  0  0  0  0  0  0  0  0  0
    0.6904  -11.5252    2.9274 H   0  0  0  0  0  0  0  0  0  0  0  0
   -0.8650  -12.0168    4.3660 H   0  0  0  0  0  0  0  0  0  0  0  0
   -2.6012  -14.3023    3.1586 H   0  0  0  0  0  0  0  0  0  0  0  0
   -3.1716  -13.0256    4.3701 H   0  0  0  0  0  0  0  0  0  0  0  0
   -0.8642  -15.1053    4.7628 H   0  0  0  0  0  0  0  0  0  0  0  0
   -1.3946  -13.8476    6.0119 H   0  0  0  0  0  0  0  0  0  0  0  0
    2.2603  -10.3456    1.8203 H   0  0  0  0  0  0  0  0  0  0  0  0
    3.5291   -7.3435   -0.3628 H   0  0  0  0  0  0  0  0  0  0  0  0
    3.9307   -4.3136   -4.1486 H   0  0  0  0  0  0  0  0  0  0  0  0
  1  2  1  0
  1 34  1  0
  1 35  1  0
  1 36  1  0
  2  3  2  0
  2 33  1  0
  3  4  1  0
  3 37  1  0
  4  5  2  0
  4 38  1  0
  5  6  1  0
  5 39  1  0
  6  7  1  0
  6 33  2  0
  8  7  1  6
  7 40  1  0
  8  9  2  0
  8 10  2  0
  8 11  1  0
 11 12  2  0
 11 32  1  0
 12 13  1  0
 12 41  1  0
 13 14  2  0
 13 42  1  0
 14 15  1  0
 14 16  1  0
 15 43  1  0
 15 44  1  0
 15 45  1  0
 16 17  1  0
 16 32  2  0
 17 18  2  0
 17 19  1  0
 19 20  1  0
 19 46  1  0
 20 21  2  0
 20 31  1  0
 21 22  1  0
 21 47  1  0
 22 23  2  0
 22 48  1  0
 23 24  1  0
 23 49  1  0
 24 25  1  0
 24 31  2  0
 25 26  1  0
 25 50  1  0
 26 27  2  0
 26 28  1  0
 28 29  1  0
 28 30  1  0
 28 51  1  1
 29 30  1  0
 29 52  1  0
 29 53  1  0
 30 54  1  0
 30 55  1  0
 31 56  1  0
 32 57  1  0
 33 58  1  0
M  END

