
     RDKit          3D

 31 31  0  0  0  0  0  0  0  0999 V2000
    0.7372    0.4010   -0.3281 C   0  0  0  0  0  0  0  0  0  0  0  0
    2.2813   -0.1038    0.5163 S   0  0  0  0  0  0  0  0  0  0  0  0
    2.9278    1.4935    1.0195 C   0  0  0  0  0  0  0  0  0  0  0  0
    2.5678    2.0525    2.2551 C   0  0  0  0  0  0  0  0  0  0  0  0
    3.0954    3.2821    2.6542 C   0  0  0  0  0  0  0  0  0  0  0  0
    4.0013    3.9839    1.8414 C   0  0  0  0  0  0  0  0  0  0  0  0
    4.6018    5.2927    2.3006 C   0  0  0  0  0  0  0  0  0  0  0  0
    5.8866    5.1137    3.1289 C   0  0  0  0  0  0  0  0  0  0  0  0
    6.4472    6.4347    3.6456 C   0  0  1  0  0  0  0  0  0  0  0  0
    5.4826    7.0661    4.4554 O   0  0  0  0  0  0  0  0  0  0  0  0
    7.7391    6.2581    4.4575 C   0  0  0  0  0  0  0  0  0  0  0  0
    8.0725    7.5365    5.0879 N   0  0  0  0  0  0  0  0  0  0  0  0
    4.3609    3.4108    0.6109 C   0  0  0  0  0  0  0  0  0  0  0  0
    3.8358    2.1825    0.2024 C   0  0  0  0  0  0  0  0  0  0  0  0
    0.2572   -0.5255   -0.6769 H   0  0  0  0  0  0  0  0  0  0  0  0
    0.9489    1.0442   -1.1947 H   0  0  0  0  0  0  0  0  0  0  0  0
    0.0563    0.9197    0.3625 H   0  0  0  0  0  0  0  0  0  0  0  0
    1.8699    1.5155    2.9020 H   0  0  0  0  0  0  0  0  0  0  0  0
    2.7988    3.7076    3.6176 H   0  0  0  0  0  0  0  0  0  0  0  0
    3.8773    5.8477    2.9156 H   0  0  0  0  0  0  0  0  0  0  0  0
    4.8245    5.9254    1.4242 H   0  0  0  0  0  0  0  0  0  0  0  0
    6.6557    4.6026    2.5233 H   0  0  0  0  0  0  0  0  0  0  0  0
    5.6738    4.4624    3.9945 H   0  0  0  0  0  0  0  0  0  0  0  0
    6.6888    7.0768    2.7646 H   0  0  0  0  0  0  0  0  0  0  0  0
    6.0041    7.6756    5.0115 H   0  0  0  0  0  0  0  0  0  0  0  0
    8.5396    5.8400    3.8145 H   0  0  0  0  0  0  0  0  0  0  0  0
    7.5465    5.5251    5.2588 H   0  0  0  0  0  0  0  0  0  0  0  0
    8.5341    8.1642    4.4287 H   0  0  0  0  0  0  0  0  0  0  0  0
    8.7054    7.4160    5.8764 H   0  0  0  0  0  0  0  0  0  0  0  0
    5.0639    3.9371   -0.0421 H   0  0  0  0  0  0  0  0  0  0  0  0
    4.1275    1.7486   -0.7570 H   0  0  0  0  0  0  0  0  0  0  0  0
  1  2  1  0
  1 15  1  0
  1 16  1  0
  1 17  1  0
  2  3  1  0
  3  4  2  0
  3 14  1  0
  4  5  1  0
  4 18  1  0
  5  6  2  0
  5 19  1  0
  6  7  1  0
  6 13  1  0
  7  8  1  0
  7 20  1  0
  7 21  1  0
  8  9  1  0
  8 22  1  0
  8 23  1  0
  9 10  1  0
  9 11  1  0
  9 24  1  6
 10 25  1  0
 11 12  1  0
 11 26  1  0
 11 27  1  0
 12 28  1  0
 12 29  1  0
 13 14  2  0
 13 30  1  0
 14 31  1  0
M  END

