
     RDKit          3D

 32 31  0  0  0  0  0  0  0  0999 V2000
    0.4842    1.2056   -1.1011 C   0  0  0  0  0  0  0  0  0  0  0  0
    1.8838    1.4503   -0.5368 C   0  0  0  0  0  0  0  0  0  0  0  0
    2.9901    0.7557   -1.3548 C   0  0  0  0  0  0  0  0  0  0  0  0
    4.3822    1.0433   -0.8308 C   0  0  0  0  0  0  0  0  0  0  0  0
    5.0003    0.4128    0.2127 C   0  0  0  0  0  0  0  0  0  0  0  0
    4.6798   -0.7653    0.8456 N   0  0  0  0  0  0  0  0  0  0  0  0
    4.0744   -1.8911    0.1497 C   0  0  0  0  0  0  0  0  0  0  0  0
    5.3403   -1.1393    2.0072 N   0  0  0  0  0  0  0  0  0  0  0  0
    5.4389   -0.3128    2.9901 C   0  0  0  0  0  0  0  0  0  0  0  0
    4.7908    1.0468    3.1158 C   0  0  0  0  0  0  0  0  0  0  0  0
    6.2425   -0.7872    4.1721 C   0  0  0  0  0  0  0  0  0  0  0  0
    4.9968    2.2952   -1.3531 C   0  0  0  0  0  0  0  0  0  0  0  0
    4.3652    3.1629   -1.9070 O   0  0  0  0  0  0  0  0  0  0  0  0
    6.3405    2.4581   -1.1774 O   0  0  0  0  0  0  0  0  0  0  0  0
   -0.2871    1.7114   -0.4984 H   0  0  0  0  0  0  0  0  0  0  0  0
    0.2371    0.1302   -1.1223 H   0  0  0  0  0  0  0  0  0  0  0  0
    0.3998    1.5837   -2.1334 H   0  0  0  0  0  0  0  0  0  0  0  0
    1.9309    1.0983    0.5098 H   0  0  0  0  0  0  0  0  0  0  0  0
    2.0967    2.5309   -0.5163 H   0  0  0  0  0  0  0  0  0  0  0  0
    2.9304    1.1161   -2.3934 H   0  0  0  0  0  0  0  0  0  0  0  0
    2.7863   -0.3242   -1.3854 H   0  0  0  0  0  0  0  0  0  0  0  0
    5.8915    0.8765    0.6501 H   0  0  0  0  0  0  0  0  0  0  0  0
    4.3247   -1.8646   -0.9213 H   0  0  0  0  0  0  0  0  0  0  0  0
    2.9770   -1.9132    0.2595 H   0  0  0  0  0  0  0  0  0  0  0  0
    4.4874   -2.8042    0.5994 H   0  0  0  0  0  0  0  0  0  0  0  0
    3.9308    1.1612    2.4426 H   0  0  0  0  0  0  0  0  0  0  0  0
    5.4974    1.8661    2.9004 H   0  0  0  0  0  0  0  0  0  0  0  0
    4.4528    1.1889    4.1543 H   0  0  0  0  0  0  0  0  0  0  0  0
    6.6398   -1.7932    3.9845 H   0  0  0  0  0  0  0  0  0  0  0  0
    5.6224   -0.8015    5.0850 H   0  0  0  0  0  0  0  0  0  0  0  0
    7.0840   -0.1008    4.3714 H   0  0  0  0  0  0  0  0  0  0  0  0
    6.7431    1.6043   -0.9684 H   0  0  0  0  0  0  0  0  0  0  0  0
  1  2  1  0
  1 15  1  0
  1 16  1  0
  1 17  1  0
  2  3  1  0
  2 18  1  0
  2 19  1  0
  3  4  1  0
  3 20  1  0
  3 21  1  0
  4  5  2  0
  4 12  1  0
  5  6  1  0
  5 22  1  0
  6  7  1  0
  6  8  1  0
  7 23  1  0
  7 24  1  0
  7 25  1  0
  8  9  2  0
  9 10  1  0
  9 11  1  0
 10 26  1  0
 10 27  1  0
 10 28  1  0
 11 29  1  0
 11 30  1  0
 11 31  1  0
 12 13  2  0
 12 14  1  0
 14 32  1  0
M  END

