
     RDKit          3D

 38 38  0  0  0  0  0  0  0  0999 V2000
    2.6195    2.0352   -0.4456 C   0  0  0  0  0  0  0  0  0  0  0  0
    2.3977    0.6421    0.1549 C   0  0  1  0  0  0  0  0  0  0  0  0
    0.9026    0.3345    0.2064 C   0  0  0  0  0  0  0  0  0  0  0  0
    0.1342    0.5297   -0.7246 O   0  0  0  0  0  0  0  0  0  0  0  0
    0.4699   -0.2338    1.3746 N   0  0  0  0  0  0  0  0  0  0  0  0
   -0.8581   -0.6149    1.5771 N   0  0  0  0  0  0  0  0  0  0  0  0
    3.1487   -0.5317   -0.5837 C   0  0  1  0  0  0  0  0  0  0  0  0
    2.9288   -0.5019   -2.1055 C   0  0  0  0  0  0  0  0  0  0  0  0
    4.5381   -0.6492   -0.1829 N   0  0  0  0  0  0  0  0  0  0  0  0
    5.5967    0.2078   -0.6972 C   0  0  0  0  0  0  0  0  0  0  0  0
    6.8695   -0.6341   -0.5438 C   0  0  0  0  0  0  0  0  0  0  0  0
    6.5485   -1.5060    0.6732 C   0  0  0  0  0  0  0  0  0  0  0  0
    5.0458   -1.8465    0.5160 C   0  0  1  0  0  0  0  0  0  0  0  0
    4.3794   -2.0355    1.8915 C   0  0  0  0  0  0  0  0  0  0  0  0
    4.8653   -3.1373   -0.3171 C   0  0  0  0  0  0  0  0  0  0  0  0
    2.1954    2.8120    0.2108 H   0  0  0  0  0  0  0  0  0  0  0  0
    2.1172    2.1215   -1.4195 H   0  0  0  0  0  0  0  0  0  0  0  0
    3.6883    2.2553   -0.5763 H   0  0  0  0  0  0  0  0  0  0  0  0
    2.7896    0.6296    1.1851 H   0  0  0  0  0  0  0  0  0  0  0  0
    1.0921   -0.3497    2.1657 H   0  0  0  0  0  0  0  0  0  0  0  0
   -1.1118   -1.2851    0.8467 H   0  0  0  0  0  0  0  0  0  0  0  0
   -1.4535    0.1990    1.4005 H   0  0  0  0  0  0  0  0  0  0  0  0
    2.6613   -1.4501   -0.2186 H   0  0  0  0  0  0  0  0  0  0  0  0
    3.4203    0.3612   -2.5791 H   0  0  0  0  0  0  0  0  0  0  0  0
    1.8560   -0.4345   -2.3369 H   0  0  0  0  0  0  0  0  0  0  0  0
    3.3378   -1.4147   -2.5655 H   0  0  0  0  0  0  0  0  0  0  0  0
    5.6958    1.1538   -0.1221 H   0  0  0  0  0  0  0  0  0  0  0  0
    5.4264    0.5013   -1.7480 H   0  0  0  0  0  0  0  0  0  0  0  0
    7.7741   -0.0211   -0.4115 H   0  0  0  0  0  0  0  0  0  0  0  0
    7.0228   -1.2606   -1.4376 H   0  0  0  0  0  0  0  0  0  0  0  0
    6.6979   -0.9242    1.5984 H   0  0  0  0  0  0  0  0  0  0  0  0
    7.1734   -2.4092    0.7470 H   0  0  0  0  0  0  0  0  0  0  0  0
    4.4922   -1.1274    2.5043 H   0  0  0  0  0  0  0  0  0  0  0  0
    4.8341   -2.8789    2.4366 H   0  0  0  0  0  0  0  0  0  0  0  0
    3.3030   -2.2544    1.7946 H   0  0  0  0  0  0  0  0  0  0  0  0
    5.3962   -3.0679   -1.2792 H   0  0  0  0  0  0  0  0  0  0  0  0
    3.8021   -3.3263   -0.5354 H   0  0  0  0  0  0  0  0  0  0  0  0
    5.2502   -4.0165    0.2251 H   0  0  0  0  0  0  0  0  0  0  0  0
  1  2  1  0
  1 16  1  0
  1 17  1  0
  1 18  1  0
  2  3  1  0
  2  7  1  0
  2 19  1  1
  3  4  2  0
  3  5  1  0
  5  6  1  0
  5 20  1  0
  6 21  1  0
  6 22  1  0
  7  8  1  0
  7  9  1  0
  7 23  1  1
  8 24  1  0
  8 25  1  0
  8 26  1  0
  9 10  1  0
  9 13  1  0
 10 11  1  0
 10 27  1  0
 10 28  1  0
 11 12  1  0
 11 29  1  0
 11 30  1  0
 12 13  1  0
 12 31  1  0
 12 32  1  0
 13 14  1  1
 13 15  1  0
 14 33  1  0
 14 34  1  0
 14 35  1  0
 15 36  1  0
 15 37  1  0
 15 38  1  0
M  END

