
     RDKit          3D

 34 37  0  0  0  0  0  0  0  0999 V2000
    2.7249    0.4275   -4.4408 Cl  0  0  0  0  0  0  0  0  0  0  0  0
    3.7434    0.1830   -3.0342 C   0  0  0  0  0  0  0  0  0  0  0  0
    4.2268   -1.1151   -2.7633 C   0  0  0  0  0  0  0  0  0  0  0  0
    5.0386   -1.3416   -1.6579 C   0  0  0  0  0  0  0  0  0  0  0  0
    5.3728   -0.2691   -0.8095 C   0  0  0  0  0  0  0  0  0  0  0  0
    6.1728   -0.1359    0.3767 C   0  0  0  0  0  0  0  0  0  0  0  0
    6.1244    1.1863    0.7410 C   0  0  0  0  0  0  0  0  0  0  0  0
    5.3365    1.9037   -0.1474 N   0  0  0  0  0  0  0  0  0  0  0  0
    5.0282    3.3162   -0.0569 C   0  0  0  0  0  0  0  0  0  0  0  0
    3.6553    3.6048    0.5586 C   0  0  1  0  0  0  0  0  0  0  0  0
    3.4853    3.2457    2.0571 C   0  0  0  0  0  0  0  0  0  0  0  0
    2.8082    4.4849    2.5961 C   0  0  0  0  0  0  0  0  0  0  0  0
    2.2467    4.7824    3.8343 C   0  0  0  0  0  0  0  0  0  0  0  0
    1.7279    6.0681    4.0555 C   0  0  0  0  0  0  0  0  0  0  0  0
    1.7833    7.0357    3.0454 C   0  0  0  0  0  0  0  0  0  0  0  0
    2.3475    6.7490    1.7944 C   0  0  0  0  0  0  0  0  0  0  0  0
    2.8519    5.4659    1.5978 C   0  0  0  0  0  0  0  0  0  0  0  0
    3.4331    5.0284    0.4459 O   0  0  0  0  0  0  0  0  0  0  0  0
    4.8644    1.0293   -1.1100 C   0  0  0  0  0  0  0  0  0  0  0  0
    4.0463    1.2732   -2.2240 C   0  0  0  0  0  0  0  0  0  0  0  0
    3.9545   -1.9319   -3.4332 H   0  0  0  0  0  0  0  0  0  0  0  0
    5.4138   -2.3475   -1.4534 H   0  0  0  0  0  0  0  0  0  0  0  0
    6.7237   -0.9218    0.8889 H   0  0  0  0  0  0  0  0  0  0  0  0
    6.6055    1.6969    1.5735 H   0  0  0  0  0  0  0  0  0  0  0  0
    5.0645    3.7659   -1.0617 H   0  0  0  0  0  0  0  0  0  0  0  0
    5.8060    3.8108    0.5447 H   0  0  0  0  0  0  0  0  0  0  0  0
    2.8757    3.1017   -0.0408 H   0  0  0  0  0  0  0  0  0  0  0  0
    4.4611    3.0798    2.5487 H   0  0  0  0  0  0  0  0  0  0  0  0
    2.8969    2.3261    2.1930 H   0  0  0  0  0  0  0  0  0  0  0  0
    2.2079    4.0281    4.6250 H   0  0  0  0  0  0  0  0  0  0  0  0
    1.2784    6.3141    5.0202 H   0  0  0  0  0  0  0  0  0  0  0  0
    1.3752    8.0329    3.2297 H   0  0  0  0  0  0  0  0  0  0  0  0
    2.3919    7.4933    0.9973 H   0  0  0  0  0  0  0  0  0  0  0  0
    3.6560    2.2629   -2.4630 H   0  0  0  0  0  0  0  0  0  0  0  0
  1  2  1  0
  2  3  2  0
  2 20  1  0
  3  4  1  0
  3 21  1  0
  4  5  2  0
  4 22  1  0
  5  6  1  0
  5 19  1  0
  6  7  2  0
  6 23  1  0
  7  8  1  0
  7 24  1  0
  8  9  1  0
  8 19  1  0
  9 10  1  0
  9 25  1  0
  9 26  1  0
 10 11  1  0
 10 18  1  0
 10 27  1  6
 11 12  1  0
 11 28  1  0
 11 29  1  0
 12 13  1  0
 12 17  2  0
 13 14  2  0
 13 30  1  0
 14 15  1  0
 14 31  1  0
 15 16  2  0
 15 32  1  0
 16 17  1  0
 16 33  1  0
 17 18  1  0
 19 20  2  0
 20 34  1  0
M  END

