
     RDKit          3D

 49 51  0  0  0  0  0  0  0  0999 V2000
    1.4288   -0.1685   -0.2145 C   0  0  0  0  0  0  0  0  0  0  0  0
    2.9234   -0.1663   -0.2451 C   0  0  0  0  0  0  0  0  0  0  0  0
    3.7800    0.8947   -0.0447 C   0  0  0  0  0  0  0  0  0  0  0  0
    3.4820    2.2998    0.3368 C   0  0  0  0  0  0  0  0  0  0  0  0
    2.4357    2.5493    0.9274 O   0  0  0  0  0  0  0  0  0  0  0  0
    4.4002    3.2841    0.0389 N   0  0  0  0  0  0  0  0  0  0  0  0
    5.4978    3.1731   -0.9050 C   0  0  0  0  0  0  0  0  0  0  0  0
    4.1869    4.6071    0.5990 C   0  0  0  0  0  0  0  0  0  0  0  0
    5.0952    0.4745   -0.1399 O   0  0  0  0  0  0  0  0  0  0  0  0
    5.0765   -0.8430   -0.4039 C   0  0  0  0  0  0  0  0  0  0  0  0
    3.7840   -1.3031   -0.4897 C   0  0  0  0  0  0  0  0  0  0  0  0
    3.4966   -2.7141   -0.7386 C   0  0  0  0  0  0  0  0  0  0  0  0
    2.2657   -3.0898   -0.8150 N   0  0  0  0  0  0  0  0  0  0  0  0
    1.9707   -4.3955   -0.9930 N   0  0  0  0  0  0  0  0  0  0  0  0
    0.6587   -4.8075   -1.1460 C   0  0  0  0  0  0  0  0  0  0  0  0
   -0.2917   -4.0603   -1.1488 O   0  0  0  0  0  0  0  0  0  0  0  0
    0.4841   -6.3341   -1.2735 C   0  0  0  0  0  0  0  0  0  0  0  0
    1.6897   -7.1444   -1.6909 C   0  0  0  0  0  0  0  0  0  0  0  0
    2.4727   -7.8241   -0.7423 C   0  0  0  0  0  0  0  0  0  0  0  0
    3.6039   -8.5503   -1.1296 C   0  0  0  0  0  0  0  0  0  0  0  0
    3.9718   -8.6096   -2.4765 C   0  0  0  0  0  0  0  0  0  0  0  0
    3.2001   -7.9400   -3.4326 C   0  0  0  0  0  0  0  0  0  0  0  0
    2.0713   -7.2155   -3.0427 C   0  0  0  0  0  0  0  0  0  0  0  0
    4.7178   -3.6253   -0.8296 C   0  0  0  0  0  0  0  0  0  0  0  0
    5.9795   -2.9114   -1.3516 C   0  0  0  0  0  0  0  0  0  0  0  0
    6.3239   -1.6386   -0.5586 C   0  0  0  0  0  0  0  0  0  0  0  0
    1.0394    0.8405   -0.0382 H   0  0  0  0  0  0  0  0  0  0  0  0
    1.0671   -0.8329    0.5866 H   0  0  0  0  0  0  0  0  0  0  0  0
    1.0201   -0.5894   -1.1454 H   0  0  0  0  0  0  0  0  0  0  0  0
    5.3785    2.3011   -1.5557 H   0  0  0  0  0  0  0  0  0  0  0  0
    6.4785    3.0957   -0.4010 H   0  0  0  0  0  0  0  0  0  0  0  0
    5.5158    4.0727   -1.5439 H   0  0  0  0  0  0  0  0  0  0  0  0
    3.3898    4.5526    1.3489 H   0  0  0  0  0  0  0  0  0  0  0  0
    3.8845    5.3303   -0.1810 H   0  0  0  0  0  0  0  0  0  0  0  0
    5.1157    4.9779    1.0668 H   0  0  0  0  0  0  0  0  0  0  0  0
    2.7031   -5.1031   -1.0281 H   0  0  0  0  0  0  0  0  0  0  0  0
   -0.3481   -6.4665   -1.9810 H   0  0  0  0  0  0  0  0  0  0  0  0
    0.1102   -6.6786   -0.2946 H   0  0  0  0  0  0  0  0  0  0  0  0
    2.1861   -7.7911    0.3131 H   0  0  0  0  0  0  0  0  0  0  0  0
    4.1948   -9.0774   -0.3759 H   0  0  0  0  0  0  0  0  0  0  0  0
    4.8525   -9.1802   -2.7819 H   0  0  0  0  0  0  0  0  0  0  0  0
    3.4762   -7.9869   -4.4893 H   0  0  0  0  0  0  0  0  0  0  0  0
    1.4720   -6.6979   -3.7973 H   0  0  0  0  0  0  0  0  0  0  0  0
    4.5088   -4.4850   -1.4872 H   0  0  0  0  0  0  0  0  0  0  0  0
    4.9173   -4.0460    0.1750 H   0  0  0  0  0  0  0  0  0  0  0  0
    5.8178   -2.6364   -2.4075 H   0  0  0  0  0  0  0  0  0  0  0  0
    6.8299   -3.6106   -1.3319 H   0  0  0  0  0  0  0  0  0  0  0  0
    7.1017   -1.0510   -1.0735 H   0  0  0  0  0  0  0  0  0  0  0  0
    6.7389   -1.8998    0.4339 H   0  0  0  0  0  0  0  0  0  0  0  0
  1  2  1  0
  1 27  1  0
  1 28  1  0
  1 29  1  0
  2  3  2  0
  2 11  1  0
  3  4  1  0
  3  9  1  0
  4  5  2  0
  4  6  1  0
  6  7  1  0
  6  8  1  0
  7 30  1  0
  7 31  1  0
  7 32  1  0
  8 33  1  0
  8 34  1  0
  8 35  1  0
  9 10  1  0
 10 11  2  0
 10 26  1  0
 11 12  1  0
 12 13  2  0
 12 24  1  0
 13 14  1  0
 14 15  1  0
 14 36  1  0
 15 16  2  0
 15 17  1  0
 17 18  1  0
 17 37  1  0
 17 38  1  0
 18 19  2  0
 18 23  1  0
 19 20  1  0
 19 39  1  0
 20 21  2  0
 20 40  1  0
 21 22  1  0
 21 41  1  0
 22 23  2  0
 22 42  1  0
 23 43  1  0
 24 25  1  0
 24 44  1  0
 24 45  1  0
 25 26  1  0
 25 46  1  0
 25 47  1  0
 26 48  1  0
 26 49  1  0
M  END

