
     RDKit          3D

 57 62  0  0  0  0  0  0  0  0999 V2000
    7.4561    6.8404   -0.2783 Cl  0  0  0  0  0  0  0  0  0  0  0  0
    7.6224    5.1058   -0.4441 C   0  0  0  0  0  0  0  0  0  0  0  0
    6.5261    4.2769   -0.1840 C   0  0  0  0  0  0  0  0  0  0  0  0
    6.6640    2.8965   -0.3163 C   0  0  0  0  0  0  0  0  0  0  0  0
    7.8854    2.3177   -0.7092 C   0  0  0  0  0  0  0  0  0  0  0  0
    8.0515    0.8579   -0.8616 C   0  0  0  0  0  0  0  0  0  0  0  0
    7.0602   -0.0905   -0.7666 C   0  0  0  0  0  0  0  0  0  0  0  0
    7.7019   -1.6900   -1.0206 S   0  0  0  0  0  0  0  0  0  0  0  0
    9.2828   -0.9436   -1.2441 C   0  0  0  0  0  0  0  0  0  0  0  0
   10.3867   -1.7033   -1.5121 N   0  0  0  0  0  0  0  0  0  0  0  0
   10.3185   -3.0605   -1.4936 N   0  0  0  0  0  0  0  0  0  0  0  0
   11.5098   -3.5576   -1.5704 C   0  0  0  0  0  0  0  0  0  0  0  0
   11.7627   -5.0000   -1.5860 C   0  0  0  0  0  0  0  0  0  0  0  0
   13.0757   -5.5041   -1.6468 C   0  0  0  0  0  0  0  0  0  0  0  0
   13.2976   -6.8788   -1.6573 C   0  0  0  0  0  0  0  0  0  0  0  0
   12.2377   -7.7972   -1.6087 C   0  0  0  0  0  0  0  0  0  0  0  0
   10.9149   -7.3023   -1.5440 C   0  0  0  0  0  0  0  0  0  0  0  0
   10.7007   -5.9209   -1.5354 C   0  0  0  0  0  0  0  0  0  0  0  0
    9.7268   -8.2445   -1.4457 C   0  0  0  0  0  0  0  0  0  0  0  0
   10.0478   -9.6813   -1.8679 C   0  0  0  0  0  0  0  0  0  0  0  0
   11.3468  -10.1547   -1.2113 C   0  0  0  0  0  0  0  0  0  0  0  0
   12.5237   -9.2865   -1.6667 C   0  0  0  0  0  0  0  0  0  0  0  0
   12.5842   -2.4837   -1.6147 C   0  0  0  0  0  0  0  0  0  0  0  0
   11.7547   -1.1681   -1.6756 C   0  0  1  0  0  0  0  0  0  0  0  0
   11.9398   -0.3807   -2.9631 C   0  0  0  0  0  0  0  0  0  0  0  0
   11.3526   -0.8057   -4.1640 C   0  0  0  0  0  0  0  0  0  0  0  0
   11.5798   -0.1049   -5.3508 C   0  0  0  0  0  0  0  0  0  0  0  0
   12.3991    1.0287   -5.3537 C   0  0  0  0  0  0  0  0  0  0  0  0
   12.9857    1.4598   -4.1608 C   0  0  0  0  0  0  0  0  0  0  0  0
   12.7541    0.7594   -2.9733 C   0  0  0  0  0  0  0  0  0  0  0  0
    9.3089    0.3519   -1.1325 N   0  0  0  0  0  0  0  0  0  0  0  0
    8.9720    3.1749   -0.9619 C   0  0  0  0  0  0  0  0  0  0  0  0
    8.8475    4.5582   -0.8328 C   0  0  0  0  0  0  0  0  0  0  0  0
    5.5750    4.7152    0.1230 H   0  0  0  0  0  0  0  0  0  0  0  0
    5.8006    2.2637   -0.1006 H   0  0  0  0  0  0  0  0  0  0  0  0
    5.9997    0.0480   -0.5715 H   0  0  0  0  0  0  0  0  0  0  0  0
   13.9289   -4.8234   -1.6860 H   0  0  0  0  0  0  0  0  0  0  0  0
   14.3240   -7.2548   -1.7060 H   0  0  0  0  0  0  0  0  0  0  0  0
    9.6803   -5.5331   -1.4880 H   0  0  0  0  0  0  0  0  0  0  0  0
    8.8883   -7.8421   -2.0377 H   0  0  0  0  0  0  0  0  0  0  0  0
    9.3740   -8.2492   -0.3969 H   0  0  0  0  0  0  0  0  0  0  0  0
   10.1554   -9.7335   -2.9668 H   0  0  0  0  0  0  0  0  0  0  0  0
    9.2091  -10.3459   -1.6039 H   0  0  0  0  0  0  0  0  0  0  0  0
   11.5464  -11.2119   -1.4504 H   0  0  0  0  0  0  0  0  0  0  0  0
   11.2418  -10.0957   -0.1126 H   0  0  0  0  0  0  0  0  0  0  0  0
   12.7807   -9.5503   -2.7106 H   0  0  0  0  0  0  0  0  0  0  0  0
   13.4268   -9.5120   -1.0749 H   0  0  0  0  0  0  0  0  0  0  0  0
   13.2420   -2.5903   -2.4902 H   0  0  0  0  0  0  0  0  0  0  0  0
   13.2238   -2.5337   -0.7182 H   0  0  0  0  0  0  0  0  0  0  0  0
   11.9788   -0.5056   -0.8258 H   0  0  0  0  0  0  0  0  0  0  0  0
   10.7012   -1.6837   -4.1681 H   0  0  0  0  0  0  0  0  0  0  0  0
   11.1106   -0.4435   -6.2782 H   0  0  0  0  0  0  0  0  0  0  0  0
   12.5739    1.5780   -6.2823 H   0  0  0  0  0  0  0  0  0  0  0  0
   13.6201    2.3500   -4.1517 H   0  0  0  0  0  0  0  0  0  0  0  0
   13.2062    1.1079   -2.0401 H   0  0  0  0  0  0  0  0  0  0  0  0
    9.9219    2.7347   -1.2675 H   0  0  0  0  0  0  0  0  0  0  0  0
    9.6957    5.2150   -1.0336 H   0  0  0  0  0  0  0  0  0  0  0  0
  1  2  1  0
  2  3  2  0
  2 33  1  0
  3  4  1  0
  3 34  1  0
  4  5  2  0
  4 35  1  0
  5  6  1  0
  5 32  1  0
  6  7  2  0
  6 31  1  0
  7  8  1  0
  7 36  1  0
  8  9  1  0
  9 10  1  0
  9 31  2  0
 10 11  1  0
 10 24  1  0
 11 12  2  0
 12 13  1  0
 12 23  1  0
 13 14  2  0
 13 18  1  0
 14 15  1  0
 14 37  1  0
 15 16  2  0
 15 38  1  0
 16 17  1  0
 16 22  1  0
 17 18  2  0
 17 19  1  0
 18 39  1  0
 19 20  1  0
 19 40  1  0
 19 41  1  0
 20 21  1  0
 20 42  1  0
 20 43  1  0
 21 22  1  0
 21 44  1  0
 21 45  1  0
 22 46  1  0
 22 47  1  0
 23 24  1  0
 23 48  1  0
 23 49  1  0
 24 25  1  0
 24 50  1  1
 25 26  2  0
 25 30  1  0
 26 27  1  0
 26 51  1  0
 27 28  2  0
 27 52  1  0
 28 29  1  0
 28 53  1  0
 29 30  2  0
 29 54  1  0
 30 55  1  0
 32 33  2  0
 32 56  1  0
 33 57  1  0
M  END

