
     RDKit          3D

 27 29  0  0  0  0  0  0  0  0999 V2000
    2.5006    1.1396   -0.0573 F   0  0  0  0  0  0  0  0  0  0  0  0
    2.2623   -0.1609   -0.3079 C   0  0  1  0  0  0  0  0  0  0  0  0
    0.9472   -0.3021   -0.5060 F   0  0  0  0  0  0  0  0  0  0  0  0
    2.8873   -0.4762   -1.4475 F   0  0  0  0  0  0  0  0  0  0  0  0
    2.7407   -1.0400    0.8406 C   0  0  0  0  0  0  0  0  0  0  0  0
    3.3444   -0.4696    1.9790 C   0  0  0  0  0  0  0  0  0  0  0  0
    3.7715   -1.3036    3.0138 C   0  0  0  0  0  0  0  0  0  0  0  0
    3.5663   -2.6749    2.8451 C   0  0  0  0  0  0  0  0  0  0  0  0
    3.7990   -3.9147    3.5548 C   0  0  0  0  0  0  0  0  0  0  0  0
    4.3879   -4.0147    4.7874 N   0  0  0  0  0  0  0  0  0  0  0  0
    4.6574   -5.1518    5.5558 C   0  0  0  0  0  0  0  0  0  0  0  0
    4.3510   -6.4685    5.1646 C   0  0  0  0  0  0  0  0  0  0  0  0
    4.6745   -7.5124    6.0278 C   0  0  0  0  0  0  0  0  0  0  0  0
    5.2907   -7.2069    7.2477 C   0  0  0  0  0  0  0  0  0  0  0  0
    5.7035   -8.5090    8.3453 Cl  0  0  0  0  0  0  0  0  0  0  0  0
    5.5827   -5.9761    7.6238 N   0  0  0  0  0  0  0  0  0  0  0  0
    5.2779   -4.9744    6.8071 C   0  0  0  0  0  0  0  0  0  0  0  0
    3.3664   -4.9404    2.8530 N   0  0  0  0  0  0  0  0  0  0  0  0
    2.8310   -4.4432    1.6573 O   0  0  0  0  0  0  0  0  0  0  0  0
    2.9501   -3.1069    1.6552 C   0  0  0  0  0  0  0  0  0  0  0  0
    2.5376   -2.3442    0.6636 N   0  0  0  0  0  0  0  0  0  0  0  0
    3.4712    0.6104    2.0400 H   0  0  0  0  0  0  0  0  0  0  0  0
    4.2424   -0.8834    3.9062 H   0  0  0  0  0  0  0  0  0  0  0  0
    4.6681   -3.1357    5.2036 H   0  0  0  0  0  0  0  0  0  0  0  0
    3.8711   -6.6597    4.2061 H   0  0  0  0  0  0  0  0  0  0  0  0
    4.4543   -8.5470    5.7624 H   0  0  0  0  0  0  0  0  0  0  0  0
    5.5353   -3.9633    7.1517 H   0  0  0  0  0  0  0  0  0  0  0  0
  2  1  1  1
  2  3  1  0
  2  4  1  0
  2  5  1  0
  5  6  2  0
  5 21  1  0
  6  7  1  0
  6 22  1  0
  7  8  2  0
  7 23  1  0
  8  9  1  0
  8 20  1  0
  9 10  1  0
  9 18  2  0
 10 11  1  0
 10 24  1  0
 11 12  2  0
 11 17  1  0
 12 13  1  0
 12 25  1  0
 13 14  2  0
 13 26  1  0
 14 15  1  0
 14 16  1  0
 16 17  2  0
 17 27  1  0
 18 19  1  0
 19 20  1  0
 20 21  2  0
M  END

