
     RDKit          3D

 31 33  0  0  0  0  0  0  0  0999 V2000
    1.0607   -3.6817   -0.0482 N   0  0  0  0  0  0  0  0  0  0  0  0
    2.4206   -3.5375   -0.2186 C   0  0  0  0  0  0  0  0  0  0  0  0
    2.9211   -3.8897   -1.4489 N   0  0  0  0  0  0  0  0  0  0  0  0
    3.1288   -3.0856    0.7786 N   0  0  0  0  0  0  0  0  0  0  0  0
    4.4416   -2.8547    0.4526 N   0  0  0  0  0  0  0  0  0  0  0  0
    5.1470   -2.3729    1.4237 C   0  0  0  0  0  0  0  0  0  0  0  0
    6.5541   -2.0894    1.3127 C   0  0  0  0  0  0  0  0  0  0  0  0
    7.4432   -1.4402    2.1929 C   0  0  0  0  0  0  0  0  0  0  0  0
    7.2233   -0.8265    3.4952 C   0  0  0  0  0  0  0  0  0  0  0  0
    8.2215   -0.3810    4.3435 C   0  0  0  0  0  0  0  0  0  0  0  0
    7.7263    0.1953    5.5464 C   0  0  0  0  0  0  0  0  0  0  0  0
    6.3550    0.1947    5.6120 C   0  0  0  0  0  0  0  0  0  0  0  0
    5.6514   -0.5073    4.1954 S   0  0  0  0  0  0  0  0  0  0  0  0
    8.7235   -1.4380    1.6690 N   0  0  0  0  0  0  0  0  0  0  0  0
    8.6210   -2.0518    0.5224 C   0  0  0  0  0  0  0  0  0  0  0  0
    7.3567   -2.4785    0.2439 N   0  0  0  0  0  0  0  0  0  0  0  0
    7.1323   -3.0770   -1.0593 C   0  0  0  0  0  0  0  0  0  0  0  0
    8.5253   -3.5431   -1.5248 C   0  0  0  0  0  0  0  0  0  0  0  0
    9.7698   -2.3920   -0.7746 S   0  0  0  0  0  0  0  0  0  0  0  0
    0.6401   -4.4934   -0.4905 H   0  0  0  0  0  0  0  0  0  0  0  0
    0.7715   -3.5429    0.9154 H   0  0  0  0  0  0  0  0  0  0  0  0
    2.3128   -3.7296   -2.2448 H   0  0  0  0  0  0  0  0  0  0  0  0
    3.8789   -3.5685   -1.5665 H   0  0  0  0  0  0  0  0  0  0  0  0
    4.6615   -2.1688    2.3884 H   0  0  0  0  0  0  0  0  0  0  0  0
    9.2744   -0.4793    4.0812 H   0  0  0  0  0  0  0  0  0  0  0  0
    8.3634    0.5968    6.3362 H   0  0  0  0  0  0  0  0  0  0  0  0
    5.7131    0.5666    6.4092 H   0  0  0  0  0  0  0  0  0  0  0  0
    6.7026   -2.3295   -1.7496 H   0  0  0  0  0  0  0  0  0  0  0  0
    6.4274   -3.9153   -0.9836 H   0  0  0  0  0  0  0  0  0  0  0  0
    8.6283   -3.5173   -2.6176 H   0  0  0  0  0  0  0  0  0  0  0  0
    8.7399   -4.5627   -1.1707 H   0  0  0  0  0  0  0  0  0  0  0  0
  1  2  1  0
  1 20  1  0
  1 21  1  0
  2  3  1  0
  2  4  2  0
  3 22  1  0
  3 23  1  0
  4  5  1  0
  5  6  2  0
  6  7  1  0
  6 24  1  0
  7  8  2  0
  7 16  1  0
  8  9  1  0
  8 14  1  0
  9 10  2  0
  9 13  1  0
 10 11  1  0
 10 25  1  0
 11 12  2  0
 11 26  1  0
 12 13  1  0
 12 27  1  0
 14 15  2  0
 15 16  1  0
 15 19  1  0
 16 17  1  0
 17 18  1  0
 17 28  1  0
 17 29  1  0
 18 19  1  0
 18 30  1  0
 18 31  1  0
M  END

