
     RDKit          3D

 46 45  0  0  0  0  0  0  0  0999 V2000
    1.8079   -0.4434    0.2123 C   0  0  0  0  0  0  0  0  0  0  0  0
    1.7519    0.1262    1.6338 C   0  0  1  0  0  0  0  0  0  0  0  0
    0.3092    0.2878    2.1284 C   0  0  0  0  0  0  0  0  0  0  0  0
    2.5352   -0.7365    2.6269 C   0  0  0  0  0  0  0  0  0  0  0  0
    3.9187   -0.8873    2.2498 O   0  0  0  0  0  0  0  0  0  0  0  0
    4.7907    0.0309    2.6897 C   0  0  0  0  0  0  0  0  0  0  0  0
    4.4927    0.9852    3.3697 O   0  0  0  0  0  0  0  0  0  0  0  0
    6.2230   -0.2727    2.2534 C   0  0  1  0  0  0  0  0  0  0  0  0
    6.2020   -0.8940    1.3469 H   0  0  0  0  0  0  0  0  0  0  0  0
    6.8514    0.9849    1.9010 N   0  0  0  0  0  0  0  0  0  0  0  0
    7.4081    1.2092    0.6723 C   0  0  0  0  0  0  0  0  0  0  0  0
    7.5477    0.3591   -0.1855 O   0  0  0  0  0  0  0  0  0  0  0  0
    7.7821    2.5033    0.5780 O   0  0  0  0  0  0  0  0  0  0  0  0
    8.4384    3.0341   -0.6184 C   0  0  1  0  0  0  0  0  0  0  0  0
    7.5041    2.9142   -1.8274 C   0  0  0  0  0  0  0  0  0  0  0  0
    8.6691    4.5028   -0.2561 C   0  0  0  0  0  0  0  0  0  0  0  0
    9.7727    2.3163   -0.8486 C   0  0  0  0  0  0  0  0  0  0  0  0
    6.9951   -1.0352    3.3713 C   0  0  1  0  0  0  0  0  0  0  0  0
    6.3020   -2.3471    3.7604 C   0  0  0  0  0  0  0  0  0  0  0  0
    8.4464   -1.2854    2.9476 C   0  0  0  0  0  0  0  0  0  0  0  0
    1.2892    0.2202   -0.4979 H   0  0  0  0  0  0  0  0  0  0  0  0
    1.3195   -1.4322    0.1632 H   0  0  0  0  0  0  0  0  0  0  0  0
    2.8456   -0.5646   -0.1326 H   0  0  0  0  0  0  0  0  0  0  0  0
    2.2260    1.1236    1.6346 H   0  0  0  0  0  0  0  0  0  0  0  0
   -0.2082   -0.6861    2.1765 H   0  0  0  0  0  0  0  0  0  0  0  0
   -0.2675    0.9338    1.4479 H   0  0  0  0  0  0  0  0  0  0  0  0
    0.2698    0.7404    3.1324 H   0  0  0  0  0  0  0  0  0  0  0  0
    2.1360   -1.7624    2.6507 H   0  0  0  0  0  0  0  0  0  0  0  0
    2.4871   -0.3025    3.6362 H   0  0  0  0  0  0  0  0  0  0  0  0
    6.6753    1.7832    2.5024 H   0  0  0  0  0  0  0  0  0  0  0  0
    6.5409    3.4049   -1.6163 H   0  0  0  0  0  0  0  0  0  0  0  0
    7.3184    1.8623   -2.0784 H   0  0  0  0  0  0  0  0  0  0  0  0
    7.9570    3.4128   -2.6987 H   0  0  0  0  0  0  0  0  0  0  0  0
    7.7123    5.0046   -0.0465 H   0  0  0  0  0  0  0  0  0  0  0  0
    9.1648    5.0279   -1.0867 H   0  0  0  0  0  0  0  0  0  0  0  0
    9.3044    4.5856    0.6388 H   0  0  0  0  0  0  0  0  0  0  0  0
    9.6140    1.2572   -1.0881 H   0  0  0  0  0  0  0  0  0  0  0  0
   10.4051    2.3867    0.0505 H   0  0  0  0  0  0  0  0  0  0  0  0
   10.3122    2.7919   -1.6827 H   0  0  0  0  0  0  0  0  0  0  0  0
    6.9997   -0.3710    4.2557 H   0  0  0  0  0  0  0  0  0  0  0  0
    6.2115   -3.0205    2.8916 H   0  0  0  0  0  0  0  0  0  0  0  0
    5.2909   -2.1889    4.1645 H   0  0  0  0  0  0  0  0  0  0  0  0
    6.8872   -2.8728    4.5312 H   0  0  0  0  0  0  0  0  0  0  0  0
    8.4929   -1.9248    2.0509 H   0  0  0  0  0  0  0  0  0  0  0  0
    9.0010   -1.7900    3.7548 H   0  0  0  0  0  0  0  0  0  0  0  0
    8.9677   -0.3454    2.7164 H   0  0  0  0  0  0  0  0  0  0  0  0
  1  2  1  0
  1 21  1  0
  1 22  1  0
  1 23  1  0
  2  3  1  0
  2  4  1  0
  2 24  1  6
  3 25  1  0
  3 26  1  0
  3 27  1  0
  4  5  1  0
  4 28  1  0
  4 29  1  0
  5  6  1  0
  6  7  2  0
  6  8  1  0
  8  9  1  6
  8 10  1  0
  8 18  1  0
 10 11  1  0
 10 30  1  0
 11 12  2  0
 11 13  1  0
 14 13  1  1
 14 15  1  0
 14 16  1  0
 14 17  1  0
 15 31  1  0
 15 32  1  0
 15 33  1  0
 16 34  1  0
 16 35  1  0
 16 36  1  0
 17 37  1  0
 17 38  1  0
 17 39  1  0
 18 19  1  0
 18 20  1  0
 18 40  1  1
 19 41  1  0
 19 42  1  0
 19 43  1  0
 20 44  1  0
 20 45  1  0
 20 46  1  0
M  END

