
     RDKit          3D

 41 42  0  0  0  0  0  0  0  0999 V2000
    2.0004    0.4839   -2.1391 C   0  0  0  0  0  0  0  0  0  0  0  0
    1.7474   -1.0295   -2.2214 C   0  0  0  0  0  0  0  0  0  0  0  0
    2.6824   -1.8518   -1.3646 C   0  0  0  0  0  0  0  0  0  0  0  0
    4.0618   -2.0576   -1.7084 C   0  0  0  0  0  0  0  0  0  0  0  0
    4.7448   -2.8251   -0.8047 C   0  0  0  0  0  0  0  0  0  0  0  0
    3.7174   -3.3250    0.4920 S   0  0  0  0  0  0  0  0  0  0  0  0
    2.3415   -2.4779   -0.1803 C   0  0  0  0  0  0  0  0  0  0  0  0
    0.9736   -2.5320    0.4928 C   0  0  1  0  0  0  0  0  0  0  0  0
    0.7712   -3.6429    1.4397 N   0  0  0  0  0  0  0  0  0  0  0  0
    1.3443   -3.5651    2.7250 N   0  0  0  0  0  0  0  0  0  0  0  0
    0.5377   -1.2209    1.1515 C   0  0  0  0  0  0  0  0  0  0  0  0
    1.4805   -0.3131    1.6497 C   0  0  0  0  0  0  0  0  0  0  0  0
    1.1219    0.8709    2.3079 C   0  0  0  0  0  0  0  0  0  0  0  0
    2.1826    1.8116    2.8254 C   0  0  0  0  0  0  0  0  0  0  0  0
   -0.2496    1.1603    2.4723 C   0  0  0  0  0  0  0  0  0  0  0  0
   -0.6985    2.4222    3.1669 C   0  0  0  0  0  0  0  0  0  0  0  0
   -1.1904    0.2483    1.9763 C   0  0  0  0  0  0  0  0  0  0  0  0
   -0.8358   -0.9404    1.3230 C   0  0  0  0  0  0  0  0  0  0  0  0
   -1.9079   -1.8820    0.8281 C   0  0  0  0  0  0  0  0  0  0  0  0
    1.3117    1.0338   -2.8008 H   0  0  0  0  0  0  0  0  0  0  0  0
    3.0297    0.7342   -2.4433 H   0  0  0  0  0  0  0  0  0  0  0  0
    1.8547    0.8531   -1.1125 H   0  0  0  0  0  0  0  0  0  0  0  0
    1.8542   -1.3555   -3.2714 H   0  0  0  0  0  0  0  0  0  0  0  0
    0.7020   -1.2363   -1.9435 H   0  0  0  0  0  0  0  0  0  0  0  0
    4.5194   -1.6532   -2.6141 H   0  0  0  0  0  0  0  0  0  0  0  0
    5.7866   -3.1408   -0.8327 H   0  0  0  0  0  0  0  0  0  0  0  0
    0.2612   -2.7345   -0.3252 H   0  0  0  0  0  0  0  0  0  0  0  0
    1.0214   -4.5338    1.0153 H   0  0  0  0  0  0  0  0  0  0  0  0
    0.7506   -2.9817    3.3130 H   0  0  0  0  0  0  0  0  0  0  0  0
    2.2776   -3.1420    2.7261 H   0  0  0  0  0  0  0  0  0  0  0  0
    2.5425   -0.5331    1.5146 H   0  0  0  0  0  0  0  0  0  0  0  0
    3.1927    1.4319    2.6133 H   0  0  0  0  0  0  0  0  0  0  0  0
    2.1016    1.9593    3.9161 H   0  0  0  0  0  0  0  0  0  0  0  0
    2.0986    2.8129    2.3689 H   0  0  0  0  0  0  0  0  0  0  0  0
   -0.3260    3.3249    2.6528 H   0  0  0  0  0  0  0  0  0  0  0  0
   -0.3193    2.4749    4.2020 H   0  0  0  0  0  0  0  0  0  0  0  0
   -1.7954    2.4894    3.2084 H   0  0  0  0  0  0  0  0  0  0  0  0
   -2.2539    0.4723    2.1072 H   0  0  0  0  0  0  0  0  0  0  0  0
   -2.9064   -1.5500    1.1479 H   0  0  0  0  0  0  0  0  0  0  0  0
   -1.7352   -2.9030    1.2011 H   0  0  0  0  0  0  0  0  0  0  0  0
   -1.9186   -1.9414   -0.2748 H   0  0  0  0  0  0  0  0  0  0  0  0
  1  2  1  0
  1 20  1  0
  1 21  1  0
  1 22  1  0
  2  3  1  0
  2 23  1  0
  2 24  1  0
  3  4  1  0
  3  7  2  0
  4  5  2  0
  4 25  1  0
  5  6  1  0
  5 26  1  0
  6  7  1  0
  7  8  1  0
  8  9  1  0
  8 11  1  0
  8 27  1  6
  9 10  1  0
  9 28  1  0
 10 29  1  0
 10 30  1  0
 11 12  2  0
 11 18  1  0
 12 13  1  0
 12 31  1  0
 13 14  1  0
 13 15  2  0
 14 32  1  0
 14 33  1  0
 14 34  1  0
 15 16  1  0
 15 17  1  0
 16 35  1  0
 16 36  1  0
 16 37  1  0
 17 18  2  0
 17 38  1  0
 18 19  1  0
 19 39  1  0
 19 40  1  0
 19 41  1  0
M  END

