
     RDKit          3D

 46 49  0  0  0  0  0  0  0  0999 V2000
    0.5720   -0.0667    0.4090 O   0  0  0  0  0  0  0  0  0  0  0  0
    1.7308   -0.0088    0.0430 C   0  0  0  0  0  0  0  0  0  0  0  0
    2.8202    0.5851    0.9409 C   0  0  0  0  0  0  0  0  0  0  0  0
    2.3403    0.5486    2.3145 N   0  0  0  0  0  0  0  0  0  0  0  0
    2.9541    1.4638    3.1751 N   0  0  0  0  0  0  0  0  0  0  0  0
    3.6498    1.0090    4.3009 C   0  0  0  0  0  0  0  0  0  0  0  0
    3.8199   -0.4526    4.5555 C   0  0  0  0  0  0  0  0  0  0  0  0
    4.1477   -1.3969    3.5680 C   0  0  0  0  0  0  0  0  0  0  0  0
    4.3600   -2.7341    3.9076 C   0  0  0  0  0  0  0  0  0  0  0  0
    4.2357   -3.1549    5.2347 C   0  0  0  0  0  0  0  0  0  0  0  0
    3.9170   -2.2228    6.2266 C   0  0  0  0  0  0  0  0  0  0  0  0
    3.7230   -0.8826    5.8917 C   0  0  0  0  0  0  0  0  0  0  0  0
    4.1447    1.8248    5.1797 N   0  0  0  0  0  0  0  0  0  0  0  0
    3.9990    3.1846    5.0232 C   0  0  0  0  0  0  0  0  0  0  0  0
    4.5698    4.0566    5.9782 C   0  0  0  0  0  0  0  0  0  0  0  0
    4.4302    5.4300    5.8388 C   0  0  0  0  0  0  0  0  0  0  0  0
    3.7185    5.9766    4.7512 C   0  0  0  0  0  0  0  0  0  0  0  0
    3.1477    5.1359    3.8056 C   0  0  0  0  0  0  0  0  0  0  0  0
    3.2893    3.7417    3.9341 C   0  0  0  0  0  0  0  0  0  0  0  0
    2.6768    2.8404    2.9574 C   0  0  0  0  0  0  0  0  0  0  0  0
    1.9751    3.1776    2.0186 O   0  0  0  0  0  0  0  0  0  0  0  0
    2.1878   -0.4182   -1.1849 N   0  0  0  0  0  0  0  0  0  0  0  0
    1.4598   -0.9335   -2.2758 C   0  0  0  0  0  0  0  0  0  0  0  0
    0.0689   -1.1382   -2.2475 C   0  0  0  0  0  0  0  0  0  0  0  0
   -0.5659   -1.6554   -3.3787 C   0  0  0  0  0  0  0  0  0  0  0  0
    0.1422   -1.9768   -4.5389 C   0  0  0  0  0  0  0  0  0  0  0  0
    1.5235   -1.7680   -4.5503 C   0  0  0  0  0  0  0  0  0  0  0  0
    2.4494   -2.1569   -5.9833 Cl  0  0  0  0  0  0  0  0  0  0  0  0
    2.1859   -1.2526   -3.4373 C   0  0  0  0  0  0  0  0  0  0  0  0
    3.0106    1.6130    0.5805 H   0  0  0  0  0  0  0  0  0  0  0  0
    3.7560    0.0065    0.8374 H   0  0  0  0  0  0  0  0  0  0  0  0
    1.3307    0.7162    2.2977 H   0  0  0  0  0  0  0  0  0  0  0  0
    4.2626   -1.0899    2.5306 H   0  0  0  0  0  0  0  0  0  0  0  0
    4.6246   -3.4525    3.1276 H   0  0  0  0  0  0  0  0  0  0  0  0
    4.3921   -4.2048    5.4951 H   0  0  0  0  0  0  0  0  0  0  0  0
    3.8226   -2.5396    7.2683 H   0  0  0  0  0  0  0  0  0  0  0  0
    3.4951   -0.1456    6.6629 H   0  0  0  0  0  0  0  0  0  0  0  0
    5.1150    3.6149    6.8143 H   0  0  0  0  0  0  0  0  0  0  0  0
    4.8761    6.0967    6.5817 H   0  0  0  0  0  0  0  0  0  0  0  0
    3.6161    7.0601    4.6562 H   0  0  0  0  0  0  0  0  0  0  0  0
    2.5846    5.5244    2.9547 H   0  0  0  0  0  0  0  0  0  0  0  0
    3.1838   -0.3167   -1.3447 H   0  0  0  0  0  0  0  0  0  0  0  0
   -0.4910   -0.8921   -1.3490 H   0  0  0  0  0  0  0  0  0  0  0  0
   -1.6472   -1.8123   -3.3525 H   0  0  0  0  0  0  0  0  0  0  0  0
   -0.3589   -2.3807   -5.4193 H   0  0  0  0  0  0  0  0  0  0  0  0
    3.2668   -1.1006   -3.4795 H   0  0  0  0  0  0  0  0  0  0  0  0
  1  2  2  0
  2  3  1  0
  2 22  1  0
  3  4  1  0
  3 30  1  0
  3 31  1  0
  4  5  1  0
  4 32  1  0
  5  6  1  0
  5 20  1  0
  6  7  1  0
  6 13  2  0
  7  8  2  0
  7 12  1  0
  8  9  1  0
  8 33  1  0
  9 10  2  0
  9 34  1  0
 10 11  1  0
 10 35  1  0
 11 12  2  0
 11 36  1  0
 12 37  1  0
 13 14  1  0
 14 15  2  0
 14 19  1  0
 15 16  1  0
 15 38  1  0
 16 17  2  0
 16 39  1  0
 17 18  1  0
 17 40  1  0
 18 19  2  0
 18 41  1  0
 19 20  1  0
 20 21  2  0
 22 23  1  0
 22 42  1  0
 23 24  2  0
 23 29  1  0
 24 25  1  0
 24 43  1  0
 25 26  2  0
 25 44  1  0
 26 27  1  0
 26 45  1  0
 27 28  1  0
 27 29  2  0
 29 46  1  0
M  END

