
     RDKit          3D

 98105  0  0  0  0  0  0  0  0999 V2000
    9.0766    3.7917    3.6757 C   0  0  0  0  0  0  0  0  0  0  0  0
    8.7695    2.8295    2.5543 C   0  0  0  0  0  0  0  0  0  0  0  0
    8.9097    1.4435    2.7146 C   0  0  0  0  0  0  0  0  0  0  0  0
    8.6322    0.5584    1.6698 C   0  0  0  0  0  0  0  0  0  0  0  0
    8.1986    1.0254    0.4165 C   0  0  0  0  0  0  0  0  0  0  0  0
    7.8896    0.0889   -0.6964 C   0  0  0  0  0  0  0  0  0  0  0  0
    6.7992    0.3134   -1.5529 C   0  0  0  0  0  0  0  0  0  0  0  0
    6.5050   -0.5889   -2.5717 C   0  0  0  0  0  0  0  0  0  0  0  0
    7.2776   -1.7419   -2.7968 C   0  0  0  0  0  0  0  0  0  0  0  0
    6.8590   -2.6506   -3.9057 C   0  0  0  0  0  0  0  0  0  0  0  0
    7.6943   -2.9467   -4.9937 C   0  0  0  0  0  0  0  0  0  0  0  0
    7.2550   -3.7578   -6.0426 C   0  0  0  0  0  0  0  0  0  0  0  0
    5.9664   -4.3105   -6.0467 C   0  0  0  0  0  0  0  0  0  0  0  0
    5.4994   -5.2138   -7.1620 C   0  0  0  0  0  0  0  0  0  0  0  0
    5.1267   -4.0070   -4.9628 C   0  0  0  0  0  0  0  0  0  0  0  0
    5.5603   -3.1919   -3.9176 C   0  0  0  0  0  0  0  0  0  0  0  0
    8.3958   -1.9760   -1.9522 C   0  0  0  0  0  0  0  0  0  0  0  0
    9.2319   -3.2217   -2.0386 C   0  0  0  0  0  0  0  0  0  0  0  0
   10.5935   -3.1881   -2.1570 C   0  0  0  0  0  0  0  0  0  0  0  0
   11.4455   -4.4172   -2.0870 C   0  0  0  0  0  0  0  0  0  0  0  0
   12.4457   -4.6383   -3.0530 C   0  0  0  0  0  0  0  0  0  0  0  0
   13.2619   -5.7715   -3.0002 C   0  0  0  0  0  0  0  0  0  0  0  0
   13.1074   -6.7017   -1.9683 C   0  0  0  0  0  0  0  0  0  0  0  0
   12.1294   -6.4863   -0.9912 C   0  0  0  0  0  0  0  0  0  0  0  0
   11.3089   -5.3596   -1.0500 C   0  0  0  0  0  0  0  0  0  0  0  0
   11.3360   -1.9118   -2.4643 C   0  0  0  0  0  0  0  0  0  0  0  0
   11.1482   -1.3361   -3.7315 C   0  0  0  0  0  0  0  0  0  0  0  0
   11.7849   -0.1541   -4.1447 C   0  0  0  0  0  0  0  0  0  0  0  0
   11.5549    0.4105   -5.5004 C   0  0  0  0  0  0  0  0  0  0  0  0
   11.4984    1.7993   -5.7118 C   0  0  0  0  0  0  0  0  0  0  0  0
   11.2842    2.3292   -6.9858 C   0  0  0  0  0  0  0  0  0  0  0  0
   11.1166    1.4986   -8.1032 C   0  0  0  0  0  0  0  0  0  0  0  0
   10.8689    2.0645   -9.4801 C   0  0  0  0  0  0  0  0  0  0  0  0
   11.1753    0.1107   -7.8939 C   0  0  0  0  0  0  0  0  0  0  0  0
   11.3886   -0.4225   -6.6237 C   0  0  0  0  0  0  0  0  0  0  0  0
   12.6414    0.4709   -3.2246 C   0  0  0  0  0  0  0  0  0  0  0  0
   12.8464   -0.0838   -1.9635 C   0  0  0  0  0  0  0  0  0  0  0  0
   12.2243   -1.2773   -1.5566 C   0  0  0  0  0  0  0  0  0  0  0  0
   12.5096   -1.7565   -0.1658 C   0  0  0  0  0  0  0  0  0  0  0  0
   12.0593   -1.0090    0.9361 C   0  0  0  0  0  0  0  0  0  0  0  0
   12.3700   -1.3900    2.2443 C   0  0  0  0  0  0  0  0  0  0  0  0
   13.1529   -2.5238    2.5041 C   0  0  0  0  0  0  0  0  0  0  0  0
   13.4714   -2.9547    3.9153 C   0  0  0  0  0  0  0  0  0  0  0  0
   13.6223   -3.2553    1.4014 C   0  0  0  0  0  0  0  0  0  0  0  0
   13.3089   -2.8834    0.0931 C   0  0  0  0  0  0  0  0  0  0  0  0
    8.4561   -4.4974   -1.8978 C   0  0  0  0  0  0  0  0  0  0  0  0
    7.5312   -4.6411   -0.8470 C   0  0  0  0  0  0  0  0  0  0  0  0
    6.7964   -5.8192   -0.6913 C   0  0  0  0  0  0  0  0  0  0  0  0
    6.9564   -6.8717   -1.5969 C   0  0  0  0  0  0  0  0  0  0  0  0
    7.8571   -6.7344   -2.6581 C   0  0  0  0  0  0  0  0  0  0  0  0
    8.5994   -5.5620   -2.8054 C   0  0  0  0  0  0  0  0  0  0  0  0
    8.6655   -1.0603   -0.9206 C   0  0  0  0  0  0  0  0  0  0  0  0
    8.0556    2.4175    0.2575 C   0  0  0  0  0  0  0  0  0  0  0  0
    8.3357    3.2968    1.3023 C   0  0  0  0  0  0  0  0  0  0  0  0
    9.3171    3.2621    4.6095 H   0  0  0  0  0  0  0  0  0  0  0  0
    8.2237    4.4611    3.8771 H   0  0  0  0  0  0  0  0  0  0  0  0
    9.9370    4.4361    3.4262 H   0  0  0  0  0  0  0  0  0  0  0  0
    9.2326    1.0446    3.6808 H   0  0  0  0  0  0  0  0  0  0  0  0
    8.7324   -0.5159    1.8401 H   0  0  0  0  0  0  0  0  0  0  0  0
    6.1573    1.1847   -1.4038 H   0  0  0  0  0  0  0  0  0  0  0  0
    5.6503   -0.3979   -3.2253 H   0  0  0  0  0  0  0  0  0  0  0  0
    8.6951   -2.5163   -5.0354 H   0  0  0  0  0  0  0  0  0  0  0  0
    7.9287   -3.9582   -6.8810 H   0  0  0  0  0  0  0  0  0  0  0  0
    5.5235   -6.2735   -6.8523 H   0  0  0  0  0  0  0  0  0  0  0  0
    6.1356   -5.1179   -8.0547 H   0  0  0  0  0  0  0  0  0  0  0  0
    4.4619   -4.9892   -7.4572 H   0  0  0  0  0  0  0  0  0  0  0  0
    4.1134   -4.4190   -4.9349 H   0  0  0  0  0  0  0  0  0  0  0  0
    4.8869   -2.9815   -3.0831 H   0  0  0  0  0  0  0  0  0  0  0  0
   12.5845   -3.9121   -3.8570 H   0  0  0  0  0  0  0  0  0  0  0  0
   14.0250   -5.9251   -3.7679 H   0  0  0  0  0  0  0  0  0  0  0  0
   13.7490   -7.5855   -1.9215 H   0  0  0  0  0  0  0  0  0  0  0  0
   12.0081   -7.1995   -0.1715 H   0  0  0  0  0  0  0  0  0  0  0  0
   10.5617   -5.1952   -0.2727 H   0  0  0  0  0  0  0  0  0  0  0  0
   10.4547   -1.8249   -4.4149 H   0  0  0  0  0  0  0  0  0  0  0  0
   11.6002    2.4784   -4.8621 H   0  0  0  0  0  0  0  0  0  0  0  0
   11.2385    3.4149   -7.1121 H   0  0  0  0  0  0  0  0  0  0  0  0
   11.0050    3.1560   -9.5000 H   0  0  0  0  0  0  0  0  0  0  0  0
    9.8410    1.8511   -9.8212 H   0  0  0  0  0  0  0  0  0  0  0  0
   11.5514    1.6242  -10.2255 H   0  0  0  0  0  0  0  0  0  0  0  0
   11.0607   -0.5668   -8.7456 H   0  0  0  0  0  0  0  0  0  0  0  0
   11.4537   -1.5068   -6.5047 H   0  0  0  0  0  0  0  0  0  0  0  0
   13.1749    1.3821   -3.5044 H   0  0  0  0  0  0  0  0  0  0  0  0
   13.5254    0.4121   -1.2653 H   0  0  0  0  0  0  0  0  0  0  0  0
   11.4603   -0.1106    0.7686 H   0  0  0  0  0  0  0  0  0  0  0  0
   11.9998   -0.7857    3.0779 H   0  0  0  0  0  0  0  0  0  0  0  0
   13.3256   -2.1331    4.6329 H   0  0  0  0  0  0  0  0  0  0  0  0
   14.5116   -3.3061    4.0057 H   0  0  0  0  0  0  0  0  0  0  0  0
   12.8213   -3.7887    4.2338 H   0  0  0  0  0  0  0  0  0  0  0  0
   14.2524   -4.1342    1.5671 H   0  0  0  0  0  0  0  0  0  0  0  0
   13.7062   -3.4658   -0.7389 H   0  0  0  0  0  0  0  0  0  0  0  0
    7.3932   -3.8203   -0.1392 H   0  0  0  0  0  0  0  0  0  0  0  0
    6.0925   -5.9126    0.1401 H   0  0  0  0  0  0  0  0  0  0  0  0
    6.3770   -7.7915   -1.4812 H   0  0  0  0  0  0  0  0  0  0  0  0
    7.9804   -7.5457   -3.3803 H   0  0  0  0  0  0  0  0  0  0  0  0
    9.2937   -5.4624   -3.6410 H   0  0  0  0  0  0  0  0  0  0  0  0
    9.5147   -1.2627   -0.2676 H   0  0  0  0  0  0  0  0  0  0  0  0
    7.7410    2.8183   -0.7091 H   0  0  0  0  0  0  0  0  0  0  0  0
    8.2215    4.3730    1.1401 H   0  0  0  0  0  0  0  0  0  0  0  0
  1  2  1  0
  1 55  1  0
  1 56  1  0
  1 57  1  0
  2  3  2  0
  2 54  1  0
  3  4  1  0
  3 58  1  0
  4  5  2  0
  4 59  1  0
  5  6  1  0
  5 53  1  0
  6  7  2  0
  6 52  1  0
  7  8  1  0
  7 60  1  0
  8  9  2  0
  8 61  1  0
  9 10  1  0
  9 17  1  0
 10 11  2  0
 10 16  1  0
 11 12  1  0
 11 62  1  0
 12 13  2  0
 12 63  1  0
 13 14  1  0
 13 15  1  0
 14 64  1  0
 14 65  1  0
 14 66  1  0
 15 16  2  0
 15 67  1  0
 16 68  1  0
 17 18  1  0
 17 52  2  0
 18 19  2  0
 18 46  1  0
 19 20  1  0
 19 26  1  0
 20 21  2  0
 20 25  1  0
 21 22  1  0
 21 69  1  0
 22 23  2  0
 22 70  1  0
 23 24  1  0
 23 71  1  0
 24 25  2  0
 24 72  1  0
 25 73  1  0
 26 27  2  0
 26 38  1  0
 27 28  1  0
 27 74  1  0
 28 29  1  0
 28 36  2  0
 29 30  2  0
 29 35  1  0
 30 31  1  0
 30 75  1  0
 31 32  2  0
 31 76  1  0
 32 33  1  0
 32 34  1  0
 33 77  1  0
 33 78  1  0
 33 79  1  0
 34 35  2  0
 34 80  1  0
 35 81  1  0
 36 37  1  0
 36 82  1  0
 37 38  2  0
 37 83  1  0
 38 39  1  0
 39 40  2  0
 39 45  1  0
 40 41  1  0
 40 84  1  0
 41 42  2  0
 41 85  1  0
 42 43  1  0
 42 44  1  0
 43 86  1  0
 43 87  1  0
 43 88  1  0
 44 45  2  0
 44 89  1  0
 45 90  1  0
 46 47  2  0
 46 51  1  0
 47 48  1  0
 47 91  1  0
 48 49  2  0
 48 92  1  0
 49 50  1  0
 49 93  1  0
 50 51  2  0
 50 94  1  0
 51 95  1  0
 52 96  1  0
 53 54  2  0
 53 97  1  0
 54 98  1  0
M  END

