
     RDKit          3D

 56 58  0  0  0  0  0  0  0  0999 V2000
    0.9517    0.8015    0.9407 C   0  0  0  0  0  0  0  0  0  0  0  0
    2.3235    0.6023    0.3402 C   0  0  0  0  0  0  0  0  0  0  0  0
    3.2432    1.6675    0.3703 C   0  0  0  0  0  0  0  0  0  0  0  0
    4.5185    1.6076   -0.1851 C   0  0  0  0  0  0  0  0  0  0  0  0
    4.9411    0.4294   -0.8280 C   0  0  0  0  0  0  0  0  0  0  0  0
    6.1952    0.2714   -1.4383 N   0  0  0  0  0  0  0  0  0  0  0  0
    7.2390    1.1881   -1.5053 C   0  0  0  0  0  0  0  0  0  0  0  0
    7.2001    2.2994   -1.0037 O   0  0  0  0  0  0  0  0  0  0  0  0
    8.3321    0.7184   -2.2003 N   0  0  0  0  0  0  0  0  0  0  0  0
    9.5320    1.5146   -2.3756 C   0  0  0  0  0  0  0  0  0  0  0  0
   10.7486    1.0390   -1.5590 C   0  0  1  0  0  0  0  0  0  0  0  0
   10.4386    1.0283   -0.0535 C   0  0  0  0  0  0  0  0  0  0  0  0
   11.3054   -0.3283   -2.0277 C   0  0  0  0  0  0  0  0  0  0  0  0
   12.8010   -0.2499   -1.6694 C   0  0  0  0  0  0  0  0  0  0  0  0
   13.1120    1.1320   -1.5223 O   0  0  0  0  0  0  0  0  0  0  0  0
   11.9821    1.9186   -1.8489 C   0  0  0  0  0  0  0  0  0  0  0  0
    4.0535   -0.6533   -0.8711 C   0  0  0  0  0  0  0  0  0  0  0  0
    2.7832   -0.5711   -0.2924 C   0  0  0  0  0  0  0  0  0  0  0  0
    1.7997   -2.0805   -0.4698 S   0  0  1  0  0  0  0  0  0  0  0  0
    0.4044   -1.7782   -0.1216 O   0  0  0  0  0  0  0  0  0  0  0  0
    2.1112   -2.6694   -1.7781 O   0  0  0  0  0  0  0  0  0  0  0  0
    2.5009   -3.1110    0.6757 N   0  0  0  0  0  0  0  0  0  0  0  0
    2.1410   -2.8865    2.0827 C   0  0  0  0  0  0  0  0  0  0  0  0
    0.9023   -3.6822    2.5138 C   0  0  0  0  0  0  0  0  0  0  0  0
    1.0586   -5.1702    2.1706 C   0  0  0  0  0  0  0  0  0  0  0  0
    1.4187   -5.3612    0.6908 C   0  0  0  0  0  0  0  0  0  0  0  0
    2.6490   -4.5286    0.3120 C   0  0  0  0  0  0  0  0  0  0  0  0
    0.8800    1.8087    1.3756 H   0  0  0  0  0  0  0  0  0  0  0  0
    0.7237    0.0692    1.7292 H   0  0  0  0  0  0  0  0  0  0  0  0
    0.1611    0.6824    0.1863 H   0  0  0  0  0  0  0  0  0  0  0  0
    2.9348    2.5996    0.8518 H   0  0  0  0  0  0  0  0  0  0  0  0
    5.1919    2.4599   -0.1373 H   0  0  0  0  0  0  0  0  0  0  0  0
    6.3333   -0.6248   -1.8897 H   0  0  0  0  0  0  0  0  0  0  0  0
    8.3157   -0.2122   -2.5988 H   0  0  0  0  0  0  0  0  0  0  0  0
    9.2645    2.5397   -2.0809 H   0  0  0  0  0  0  0  0  0  0  0  0
    9.7996    1.5365   -3.4473 H   0  0  0  0  0  0  0  0  0  0  0  0
    9.6656    0.2819    0.1867 H   0  0  0  0  0  0  0  0  0  0  0  0
   10.0662    2.0097    0.2784 H   0  0  0  0  0  0  0  0  0  0  0  0
   11.3394    0.7878    0.5314 H   0  0  0  0  0  0  0  0  0  0  0  0
   11.1801   -0.4284   -3.1196 H   0  0  0  0  0  0  0  0  0  0  0  0
   10.8027   -1.1854   -1.5531 H   0  0  0  0  0  0  0  0  0  0  0  0
   13.4370   -0.7031   -2.4515 H   0  0  0  0  0  0  0  0  0  0  0  0
   13.0272   -0.7673   -0.7199 H   0  0  0  0  0  0  0  0  0  0  0  0
   12.0022    2.2184   -2.9187 H   0  0  0  0  0  0  0  0  0  0  0  0
   12.0076    2.8378   -1.2416 H   0  0  0  0  0  0  0  0  0  0  0  0
    4.3382   -1.5800   -1.3745 H   0  0  0  0  0  0  0  0  0  0  0  0
    2.0050   -1.8084    2.2525 H   0  0  0  0  0  0  0  0  0  0  0  0
    3.0164   -3.1876    2.6871 H   0  0  0  0  0  0  0  0  0  0  0  0
    0.0238   -3.2674    1.9937 H   0  0  0  0  0  0  0  0  0  0  0  0
    0.7392   -3.5467    3.5965 H   0  0  0  0  0  0  0  0  0  0  0  0
    0.1347   -5.7189    2.4168 H   0  0  0  0  0  0  0  0  0  0  0  0
    1.8576   -5.6096    2.7977 H   0  0  0  0  0  0  0  0  0  0  0  0
    0.5719   -5.0507    0.0542 H   0  0  0  0  0  0  0  0  0  0  0  0
    1.6130   -6.4246    0.4700 H   0  0  0  0  0  0  0  0  0  0  0  0
    2.8619   -4.5897   -0.7625 H   0  0  0  0  0  0  0  0  0  0  0  0
    3.5392   -4.9016    0.8519 H   0  0  0  0  0  0  0  0  0  0  0  0
  1  2  1  0
  1 28  1  0
  1 29  1  0
  1 30  1  0
  2  3  2  0
  2 18  1  0
  3  4  1  0
  3 31  1  0
  4  5  2  0
  4 32  1  0
  5  6  1  0
  5 17  1  0
  6  7  1  0
  6 33  1  0
  7  8  2  0
  7  9  1  0
  9 10  1  0
  9 34  1  0
 11 10  1  6
 10 35  1  0
 10 36  1  0
 11 12  1  0
 11 13  1  0
 11 16  1  0
 12 37  1  0
 12 38  1  0
 12 39  1  0
 13 14  1  0
 13 40  1  0
 13 41  1  0
 14 15  1  0
 14 42  1  0
 14 43  1  0
 15 16  1  0
 16 44  1  0
 16 45  1  0
 17 18  2  0
 17 46  1  0
 19 18  1  6
 19 20  2  0
 19 21  2  0
 19 22  1  0
 22 23  1  0
 22 27  1  0
 23 24  1  0
 23 47  1  0
 23 48  1  0
 24 25  1  0
 24 49  1  0
 24 50  1  0
 25 26  1  0
 25 51  1  0
 25 52  1  0
 26 27  1  0
 26 53  1  0
 26 54  1  0
 27 55  1  0
 27 56  1  0
M  END

