
     RDKit          3D

 40 42  0  0  0  0  0  0  0  0999 V2000
    1.2193    1.2479   -0.0425 C   0  0  0  0  0  0  0  0  0  0  0  0
    2.6250    0.9992   -0.0499 O   0  0  0  0  0  0  0  0  0  0  0  0
    3.1214    0.4574   -1.1860 C   0  0  0  0  0  0  0  0  0  0  0  0
    2.4337    0.1920   -2.1397 O   0  0  0  0  0  0  0  0  0  0  0  0
    4.5975    0.2731   -1.1148 C   0  0  0  0  0  0  0  0  0  0  0  0
    5.3322   -0.8374   -1.6404 C   0  0  0  0  0  0  0  0  0  0  0  0
    4.8829   -2.1420   -2.1505 C   0  0  0  0  0  0  0  0  0  0  0  0
    5.5931   -2.9194   -2.7583 O   0  0  0  0  0  0  0  0  0  0  0  0
    3.6060   -2.4148   -1.8343 O   0  0  0  0  0  0  0  0  0  0  0  0
    3.0742   -3.6357   -2.3383 C   0  0  0  0  0  0  0  0  0  0  0  0
    6.6900   -0.5260   -1.4949 C   0  0  0  0  0  0  0  0  0  0  0  0
    7.9159   -1.1596   -1.7944 C   0  0  0  0  0  0  0  0  0  0  0  0
    9.0819   -0.5068   -1.4830 C   0  0  0  0  0  0  0  0  0  0  0  0
    9.0335    0.7914   -0.8647 C   0  0  0  0  0  0  0  0  0  0  0  0
   10.2729    1.5415   -0.5200 C   0  0  0  0  0  0  0  0  0  0  0  0
   10.2194    2.9316   -0.3033 C   0  0  0  0  0  0  0  0  0  0  0  0
   11.3707    3.6470    0.0221 C   0  0  0  0  0  0  0  0  0  0  0  0
   12.6004    2.9899    0.1428 C   0  0  0  0  0  0  0  0  0  0  0  0
   12.6661    1.6098   -0.0630 C   0  0  0  0  0  0  0  0  0  0  0  0
   11.5138    0.8919   -0.3926 C   0  0  0  0  0  0  0  0  0  0  0  0
    7.8933    1.3900   -0.5847 N   0  0  0  0  0  0  0  0  0  0  0  0
    6.7647    0.7367   -0.8925 N   0  0  0  0  0  0  0  0  0  0  0  0
    5.5039    1.2320   -0.6504 C   0  0  0  0  0  0  0  0  0  0  0  0
    5.3271    2.5825   -0.0462 C   0  0  0  0  0  0  0  0  0  0  0  0
    0.9914    1.6868    0.9368 H   0  0  0  0  0  0  0  0  0  0  0  0
    0.6576    0.3119   -0.1811 H   0  0  0  0  0  0  0  0  0  0  0  0
    0.9369    1.9419   -0.8491 H   0  0  0  0  0  0  0  0  0  0  0  0
    2.0251   -3.6657   -2.0191 H   0  0  0  0  0  0  0  0  0  0  0  0
    3.6223   -4.5011   -1.9346 H   0  0  0  0  0  0  0  0  0  0  0  0
    3.1373   -3.6675   -3.4367 H   0  0  0  0  0  0  0  0  0  0  0  0
    7.8879   -2.1348   -2.2804 H   0  0  0  0  0  0  0  0  0  0  0  0
   10.0432   -0.9541   -1.7304 H   0  0  0  0  0  0  0  0  0  0  0  0
    9.2595    3.4402   -0.3992 H   0  0  0  0  0  0  0  0  0  0  0  0
   11.3097    4.7269    0.1800 H   0  0  0  0  0  0  0  0  0  0  0  0
   13.5026    3.5518    0.3973 H   0  0  0  0  0  0  0  0  0  0  0  0
   13.6191    1.0844    0.0374 H   0  0  0  0  0  0  0  0  0  0  0  0
   11.5876   -0.1885   -0.5284 H   0  0  0  0  0  0  0  0  0  0  0  0
    5.7693    3.3649   -0.6853 H   0  0  0  0  0  0  0  0  0  0  0  0
    5.8403    2.6428    0.9274 H   0  0  0  0  0  0  0  0  0  0  0  0
    4.2633    2.7943    0.1050 H   0  0  0  0  0  0  0  0  0  0  0  0
  1  2  1  0
  1 25  1  0
  1 26  1  0
  1 27  1  0
  2  3  1  0
  3  4  2  0
  3  5  1  0
  5  6  1  0
  5 23  2  0
  6  7  1  0
  6 11  2  0
  7  8  2  0
  7  9  1  0
  9 10  1  0
 10 28  1  0
 10 29  1  0
 10 30  1  0
 11 12  1  0
 11 22  1  0
 12 13  2  0
 12 31  1  0
 13 14  1  0
 13 32  1  0
 14 15  1  0
 14 21  2  0
 15 16  2  0
 15 20  1  0
 16 17  1  0
 16 33  1  0
 17 18  2  0
 17 34  1  0
 18 19  1  0
 18 35  1  0
 19 20  2  0
 19 36  1  0
 20 37  1  0
 21 22  1  0
 22 23  1  0
 23 24  1  0
 24 38  1  0
 24 39  1  0
 24 40  1  0
M  END

