
     RDKit          3D

 46 48  0  0  0  0  0  0  0  0999 V2000
    1.5105   -0.3546    1.2387 O   0  0  0  0  0  0  0  0  0  0  0  0
    1.8393   -0.2395    0.0668 C   0  0  0  0  0  0  0  0  0  0  0  0
    1.4594    0.8495   -0.6945 N   0  0  0  0  0  0  0  0  0  0  0  0
    0.6689    1.9154   -0.1033 C   0  0  0  0  0  0  0  0  0  0  0  0
    1.4848    2.9320    0.7002 C   0  0  1  0  0  0  0  0  0  0  0  0
    2.5174    3.7463   -0.0906 C   0  0  0  0  0  0  0  0  0  0  0  0
    2.5899    5.0383    0.7321 C   0  0  0  0  0  0  0  0  0  0  0  0
    1.1316    5.2061    1.1800 C   0  0  0  0  0  0  0  0  0  0  0  0
    0.5774    3.8962    1.2347 O   0  0  0  0  0  0  0  0  0  0  0  0
    2.5928   -1.2101   -0.5850 N   0  0  0  0  0  0  0  0  0  0  0  0
    3.2538   -2.2345    0.2167 C   0  0  0  0  0  0  0  0  0  0  0  0
    3.0444   -3.6260   -0.3741 C   0  0  0  0  0  0  0  0  0  0  0  0
    3.4420   -3.6318   -1.7818 N   0  0  0  0  0  0  0  0  0  0  0  0
    4.1025   -4.7384   -2.2782 C   0  0  0  0  0  0  0  0  0  0  0  0
    4.3091   -5.7289   -1.5940 O   0  0  0  0  0  0  0  0  0  0  0  0
    4.6194   -4.6891   -3.6944 C   0  0  0  0  0  0  0  0  0  0  0  0
    5.3270   -3.5925   -4.2114 C   0  0  0  0  0  0  0  0  0  0  0  0
    5.8825   -3.6368   -5.4918 C   0  0  0  0  0  0  0  0  0  0  0  0
    5.7210   -4.7884   -6.2677 C   0  0  0  0  0  0  0  0  0  0  0  0
    6.3996   -4.8463   -7.8763 Cl  0  0  0  0  0  0  0  0  0  0  0  0
    5.0324   -5.8982   -5.7663 C   0  0  0  0  0  0  0  0  0  0  0  0
    4.5004   -5.8470   -4.4786 C   0  0  0  0  0  0  0  0  0  0  0  0
    2.7160   -2.6478   -2.5739 C   0  0  0  0  0  0  0  0  0  0  0  0
    2.9017   -1.2354   -2.0033 C   0  0  0  0  0  0  0  0  0  0  0  0
    1.9970    1.0808   -1.5193 H   0  0  0  0  0  0  0  0  0  0  0  0
   -0.0739    1.4611    0.5657 H   0  0  0  0  0  0  0  0  0  0  0  0
    0.1255    2.4450   -0.9035 H   0  0  0  0  0  0  0  0  0  0  0  0
    1.9824    2.3911    1.5286 H   0  0  0  0  0  0  0  0  0  0  0  0
    2.1372    3.9606   -1.1062 H   0  0  0  0  0  0  0  0  0  0  0  0
    3.4869    3.2354   -0.1888 H   0  0  0  0  0  0  0  0  0  0  0  0
    2.9681    5.9028    0.1659 H   0  0  0  0  0  0  0  0  0  0  0  0
    3.2474    4.8941    1.6050 H   0  0  0  0  0  0  0  0  0  0  0  0
    0.5588    5.8207    0.4585 H   0  0  0  0  0  0  0  0  0  0  0  0
    1.0416    5.6863    2.1696 H   0  0  0  0  0  0  0  0  0  0  0  0
    2.8413   -2.1768    1.2311 H   0  0  0  0  0  0  0  0  0  0  0  0
    4.3413   -2.0267    0.2683 H   0  0  0  0  0  0  0  0  0  0  0  0
    1.9798   -3.9150   -0.2839 H   0  0  0  0  0  0  0  0  0  0  0  0
    3.6426   -4.3778    0.1545 H   0  0  0  0  0  0  0  0  0  0  0  0
    5.4739   -2.6998   -3.5989 H   0  0  0  0  0  0  0  0  0  0  0  0
    6.4445   -2.7896   -5.8882 H   0  0  0  0  0  0  0  0  0  0  0  0
    4.9273   -6.7941   -6.3804 H   0  0  0  0  0  0  0  0  0  0  0  0
    3.9896   -6.7172   -4.0615 H   0  0  0  0  0  0  0  0  0  0  0  0
    1.6353   -2.8909   -2.5517 H   0  0  0  0  0  0  0  0  0  0  0  0
    3.0409   -2.6781   -3.6201 H   0  0  0  0  0  0  0  0  0  0  0  0
    2.2223   -0.5653   -2.5469 H   0  0  0  0  0  0  0  0  0  0  0  0
    3.9428   -0.8990   -2.1915 H   0  0  0  0  0  0  0  0  0  0  0  0
  1  2  2  0
  2  3  1  0
  2 10  1  0
  3  4  1  0
  3 25  1  0
  4  5  1  0
  4 26  1  0
  4 27  1  0
  5  6  1  0
  5  9  1  0
  5 28  1  1
  6  7  1  0
  6 29  1  0
  6 30  1  0
  7  8  1  0
  7 31  1  0
  7 32  1  0
  8  9  1  0
  8 33  1  0
  8 34  1  0
 10 11  1  0
 10 24  1  0
 11 12  1  0
 11 35  1  0
 11 36  1  0
 12 13  1  0
 12 37  1  0
 12 38  1  0
 13 14  1  0
 13 23  1  0
 14 15  2  0
 14 16  1  0
 16 17  2  0
 16 22  1  0
 17 18  1  0
 17 39  1  0
 18 19  2  0
 18 40  1  0
 19 20  1  0
 19 21  1  0
 21 22  2  0
 21 41  1  0
 22 42  1  0
 23 24  1  0
 23 43  1  0
 23 44  1  0
 24 45  1  0
 24 46  1  0
M  END

