
     RDKit          3D

 40 41  0  0  0  0  0  0  0  0999 V2000
    0.8848    0.9739   -1.0208 C   0  0  0  0  0  0  0  0  0  0  0  0
    2.1419    0.1683   -1.2937 C   0  0  0  0  0  0  0  0  0  0  0  0
    3.2664    0.9936   -1.0338 O   0  0  0  0  0  0  0  0  0  0  0  0
    4.5450    0.4295   -1.2760 C   0  0  1  0  0  0  0  0  0  0  0  0
    4.7605    0.2164   -2.7928 C   0  0  0  0  0  0  0  0  0  0  0  0
    5.3195   -0.7664   -3.2250 O   0  0  0  0  0  0  0  0  0  0  0  0
    4.2717    1.3306   -3.7311 C   0  0  0  0  0  0  0  0  0  0  0  0
    5.3848    1.9393   -4.5435 C   0  0  0  0  0  0  0  0  0  0  0  0
    6.2811    1.3256   -5.3837 C   0  0  0  0  0  0  0  0  0  0  0  0
    7.2058    2.2367   -5.9809 C   0  0  0  0  0  0  0  0  0  0  0  0
    7.0228    3.5454   -5.6028 C   0  0  0  0  0  0  0  0  0  0  0  0
    7.8093    4.7603   -6.0118 C   0  0  0  0  0  0  0  0  0  0  0  0
    8.6689    5.3693   -4.8933 C   0  0  0  0  0  0  0  0  0  0  0  0
    5.6839    3.6587   -4.4857 S   0  0  0  0  0  0  0  0  0  0  0  0
    5.6151    1.4247   -0.7692 C   0  0  0  0  0  0  0  0  0  0  0  0
    6.8839    0.5785   -0.5973 C   0  0  0  0  0  0  0  0  0  0  0  0
    6.3865   -0.8469   -0.2280 C   0  0  0  0  0  0  0  0  0  0  0  0
    4.8568   -0.8483   -0.4670 C   0  0  0  0  0  0  0  0  0  0  0  0
   -0.0123    0.3582   -1.1906 H   0  0  0  0  0  0  0  0  0  0  0  0
    0.8321    1.8553   -1.6786 H   0  0  0  0  0  0  0  0  0  0  0  0
    0.8739    1.3263    0.0222 H   0  0  0  0  0  0  0  0  0  0  0  0
    2.1489   -0.1893   -2.3439 H   0  0  0  0  0  0  0  0  0  0  0  0
    2.1657   -0.7321   -0.6513 H   0  0  0  0  0  0  0  0  0  0  0  0
    3.7350    2.0964   -3.1569 H   0  0  0  0  0  0  0  0  0  0  0  0
    3.5372    0.8556   -4.4063 H   0  0  0  0  0  0  0  0  0  0  0  0
    6.2789    0.2484   -5.5533 H   0  0  0  0  0  0  0  0  0  0  0  0
    7.9884    1.9330   -6.6798 H   0  0  0  0  0  0  0  0  0  0  0  0
    7.1261    5.5334   -6.4064 H   0  0  0  0  0  0  0  0  0  0  0  0
    8.4549    4.4664   -6.8560 H   0  0  0  0  0  0  0  0  0  0  0  0
    8.0476    5.6953   -4.0439 H   0  0  0  0  0  0  0  0  0  0  0  0
    9.2251    6.2469   -5.2602 H   0  0  0  0  0  0  0  0  0  0  0  0
    9.3969    4.6366   -4.5109 H   0  0  0  0  0  0  0  0  0  0  0  0
    5.2395    1.8035    0.1960 H   0  0  0  0  0  0  0  0  0  0  0  0
    5.7488    2.2937   -1.4316 H   0  0  0  0  0  0  0  0  0  0  0  0
    7.5594    1.0048    0.1598 H   0  0  0  0  0  0  0  0  0  0  0  0
    7.4475    0.5501   -1.5429 H   0  0  0  0  0  0  0  0  0  0  0  0
    6.6160   -1.0977    0.8193 H   0  0  0  0  0  0  0  0  0  0  0  0
    6.8808   -1.6029   -0.8542 H   0  0  0  0  0  0  0  0  0  0  0  0
    4.3126   -0.7633    0.4872 H   0  0  0  0  0  0  0  0  0  0  0  0
    4.5152   -1.7598   -0.9764 H   0  0  0  0  0  0  0  0  0  0  0  0
  1  2  1  0
  1 19  1  0
  1 20  1  0
  1 21  1  0
  2  3  1  0
  2 22  1  0
  2 23  1  0
  4  3  1  6
  4  5  1  0
  4 15  1  0
  4 18  1  0
  5  6  2  0
  5  7  1  0
  7  8  1  0
  7 24  1  0
  7 25  1  0
  8  9  2  0
  8 14  1  0
  9 10  1  0
  9 26  1  0
 10 11  2  0
 10 27  1  0
 11 12  1  0
 11 14  1  0
 12 13  1  0
 12 28  1  0
 12 29  1  0
 13 30  1  0
 13 31  1  0
 13 32  1  0
 15 16  1  0
 15 33  1  0
 15 34  1  0
 16 17  1  0
 16 35  1  0
 16 36  1  0
 17 18  1  0
 17 37  1  0
 17 38  1  0
 18 39  1  0
 18 40  1  0
M  END

