
     RDKit          3D

 25 25  0  0  0  0  0  0  0  0999 V2000
    1.0765    0.0242   -0.1151 C   0  0  0  0  0  0  0  0  0  0  0  0
    2.5191    0.0585    0.0340 N   0  0  0  0  0  0  0  0  0  0  0  0
    3.2066    0.0681   -1.2019 N   0  0  0  0  0  0  0  0  0  0  0  0
    2.9901    1.1416    0.8860 C   0  0  0  0  0  0  0  0  0  0  0  0
    4.4558    0.9551    1.3041 C   0  0  0  0  0  0  0  0  0  0  0  0
    4.9679    2.0874    2.1643 C   0  0  0  0  0  0  0  0  0  0  0  0
    5.5317    3.2369    1.5865 C   0  0  0  0  0  0  0  0  0  0  0  0
    5.9701    4.2974    2.3833 C   0  0  0  0  0  0  0  0  0  0  0  0
    5.8575    4.2369    3.7747 C   0  0  0  0  0  0  0  0  0  0  0  0
    5.2979    3.0936    4.3505 C   0  0  0  0  0  0  0  0  0  0  0  0
    5.1519    2.9896    6.0940 Cl  0  0  0  0  0  0  0  0  0  0  0  0
    4.8557    2.0284    3.5624 C   0  0  0  0  0  0  0  0  0  0  0  0
    0.7821   -0.8710   -0.6863 H   0  0  0  0  0  0  0  0  0  0  0  0
    0.6725    0.9176   -0.6487 H   0  0  0  0  0  0  0  0  0  0  0  0
    0.5898   -0.0291    0.8714 H   0  0  0  0  0  0  0  0  0  0  0  0
    2.7410    0.6919   -1.8778 H   0  0  0  0  0  0  0  0  0  0  0  0
    3.1895   -0.8720   -1.5968 H   0  0  0  0  0  0  0  0  0  0  0  0
    2.3516    1.1634    1.7842 H   0  0  0  0  0  0  0  0  0  0  0  0
    2.8685    2.1340    0.3920 H   0  0  0  0  0  0  0  0  0  0  0  0
    5.0573    0.8662    0.3875 H   0  0  0  0  0  0  0  0  0  0  0  0
    4.5399   -0.0038    1.8402 H   0  0  0  0  0  0  0  0  0  0  0  0
    5.6335    3.2959    0.4994 H   0  0  0  0  0  0  0  0  0  0  0  0
    6.4107    5.1834    1.9187 H   0  0  0  0  0  0  0  0  0  0  0  0
    6.2000    5.0565    4.4083 H   0  0  0  0  0  0  0  0  0  0  0  0
    4.4284    1.1466    4.0449 H   0  0  0  0  0  0  0  0  0  0  0  0
  1  2  1  0
  1 13  1  0
  1 14  1  0
  1 15  1  0
  2  3  1  0
  2  4  1  0
  3 16  1  0
  3 17  1  0
  4  5  1  0
  4 18  1  0
  4 19  1  0
  5  6  1  0
  5 20  1  0
  5 21  1  0
  6  7  2  0
  6 12  1  0
  7  8  1  0
  7 22  1  0
  8  9  2  0
  8 23  1  0
  9 10  1  0
  9 24  1  0
 10 11  1  0
 10 12  2  0
 12 25  1  0
M  END

