
     RDKit          3D

 37 38  0  0  0  0  0  0  0  0999 V2000
    1.3750   -0.6739    1.5633 C   0  0  0  0  0  0  0  0  0  0  0  0
    2.8648   -0.6671    1.3423 C   0  0  0  0  0  0  0  0  0  0  0  0
    3.7561   -0.1384    2.2923 C   0  0  0  0  0  0  0  0  0  0  0  0
    5.1221   -0.1535    2.0274 C   0  0  0  0  0  0  0  0  0  0  0  0
    5.5803   -0.6843    0.8145 C   0  0  0  0  0  0  0  0  0  0  0  0
    7.0648   -0.6934    0.5597 C   0  0  0  0  0  0  0  0  0  0  0  0
    7.8627   -0.5279    1.4719 O   0  0  0  0  0  0  0  0  0  0  0  0
    7.4598   -0.8773   -0.7353 N   0  0  0  0  0  0  0  0  0  0  0  0
    8.8656   -0.9197   -1.1135 C   0  0  0  0  0  0  0  0  0  0  0  0
    9.4786   -2.3279   -1.0947 C   0  0  0  0  0  0  0  0  0  0  0  0
    8.8407   -3.3344   -2.0547 C   0  0  1  0  0  0  0  0  0  0  0  0
    8.9835   -3.0194   -3.5566 C   0  0  0  0  0  0  0  0  0  0  0  0
    8.6407   -4.3444   -4.2733 C   0  0  0  0  0  0  0  0  0  0  0  0
    8.9277   -5.4720   -3.2373 C   0  0  0  0  0  0  0  0  0  0  0  0
    9.4316   -4.7533   -1.9678 C   0  0  0  0  0  0  0  0  0  0  0  0
    4.6113   -1.2071   -0.0564 C   0  0  0  0  0  0  0  0  0  0  0  0
    3.3038   -1.1990    0.1915 N   0  0  0  0  0  0  0  0  0  0  0  0
    1.0963   -0.2172    2.5234 H   0  0  0  0  0  0  0  0  0  0  0  0
    0.9927   -1.7071    1.5368 H   0  0  0  0  0  0  0  0  0  0  0  0
    0.8689   -0.1292    0.7501 H   0  0  0  0  0  0  0  0  0  0  0  0
    3.3761    0.2775    3.2283 H   0  0  0  0  0  0  0  0  0  0  0  0
    5.8549    0.2347    2.7380 H   0  0  0  0  0  0  0  0  0  0  0  0
    6.7576   -0.9297   -1.4607 H   0  0  0  0  0  0  0  0  0  0  0  0
    9.4105   -0.2806   -0.4036 H   0  0  0  0  0  0  0  0  0  0  0  0
    8.9635   -0.4680   -2.1139 H   0  0  0  0  0  0  0  0  0  0  0  0
    9.4199   -2.7119   -0.0622 H   0  0  0  0  0  0  0  0  0  0  0  0
   10.5548   -2.2326   -1.3299 H   0  0  0  0  0  0  0  0  0  0  0  0
    7.7610   -3.4039   -1.8175 H   0  0  0  0  0  0  0  0  0  0  0  0
   10.0312   -2.7325   -3.7608 H   0  0  0  0  0  0  0  0  0  0  0  0
    8.3532   -2.1813   -3.8960 H   0  0  0  0  0  0  0  0  0  0  0  0
    9.2207   -4.4677   -5.2010 H   0  0  0  0  0  0  0  0  0  0  0  0
    7.5791   -4.3568   -4.5679 H   0  0  0  0  0  0  0  0  0  0  0  0
    9.6573   -6.2079   -3.6093 H   0  0  0  0  0  0  0  0  0  0  0  0
    8.0048   -6.0326   -3.0185 H   0  0  0  0  0  0  0  0  0  0  0  0
   10.5341   -4.6803   -1.9800 H   0  0  0  0  0  0  0  0  0  0  0  0
    9.1566   -5.2751   -1.0373 H   0  0  0  0  0  0  0  0  0  0  0  0
    4.9066   -1.6835   -1.0005 H   0  0  0  0  0  0  0  0  0  0  0  0
  1  2  1  0
  1 18  1  0
  1 19  1  0
  1 20  1  0
  2  3  2  0
  2 17  1  0
  3  4  1  0
  3 21  1  0
  4  5  2  0
  4 22  1  0
  5  6  1  0
  5 16  1  0
  6  7  2  0
  6  8  1  0
  8  9  1  0
  8 23  1  0
  9 10  1  0
  9 24  1  0
  9 25  1  0
 10 11  1  0
 10 26  1  0
 10 27  1  0
 11 12  1  0
 11 15  1  0
 11 28  1  1
 12 13  1  0
 12 29  1  0
 12 30  1  0
 13 14  1  0
 13 31  1  0
 13 32  1  0
 14 15  1  0
 14 33  1  0
 14 34  1  0
 15 35  1  0
 15 36  1  0
 16 17  2  0
 16 37  1  0
M  END

