
     RDKit          3D

 68 70  0  0  0  0  0  0  0  0999 V2000
    2.6276    2.1200    0.5679 C   0  0  0  0  0  0  0  0  0  0  0  0
    2.5871    0.5995    0.4050 C   0  0  1  0  0  0  0  0  0  0  0  0
    3.1121    0.1710   -0.9893 C   0  0  0  0  0  0  0  0  0  0  0  0
    3.0464    0.9342   -1.9362 O   0  0  0  0  0  0  0  0  0  0  0  0
    3.5267   -1.1245   -1.0925 N   0  0  0  0  0  0  0  0  0  0  0  0
    4.0923   -1.6775   -2.3067 C   0  0  1  0  0  0  0  0  0  0  0  0
    5.6179   -1.8808   -2.2865 C   0  0  0  0  0  0  0  0  0  0  0  0
    5.8613   -2.7615   -3.5188 C   0  0  0  0  0  0  0  0  0  0  0  0
    4.6287   -3.7082   -3.5907 C   0  0  0  0  0  0  0  0  0  0  0  0
    3.5518   -3.0769   -2.6699 C   0  0  0  0  0  0  0  0  0  0  0  0
    3.2013   -0.1512    1.5210 N   0  0  0  0  0  0  0  0  0  0  0  0
    2.2918   -0.8704    2.4180 C   0  0  0  0  0  0  0  0  0  0  0  0
    1.4321    0.0087    3.3148 C   0  0  0  0  0  0  0  0  0  0  0  0
    2.0026    0.9826    4.1520 C   0  0  0  0  0  0  0  0  0  0  0  0
    1.2029    1.7557    4.9961 C   0  0  0  0  0  0  0  0  0  0  0  0
   -0.1817    1.5592    5.0065 C   0  0  0  0  0  0  0  0  0  0  0  0
   -1.2761    2.6150    6.1572 Br  0  0  0  0  0  0  0  0  0  0  0  0
   -0.7715    0.5997    4.1820 C   0  0  0  0  0  0  0  0  0  0  0  0
    0.0421   -0.1664    3.3418 C   0  0  0  0  0  0  0  0  0  0  0  0
    4.5513   -0.0183    1.7333 C   0  0  0  0  0  0  0  0  0  0  0  0
    5.2575    0.6275    0.9739 O   0  0  0  0  0  0  0  0  0  0  0  0
    5.1666   -0.7558    2.9429 C   0  0  0  0  0  0  0  0  0  0  0  0
    6.5311   -0.3312    3.2030 N   0  0  0  0  0  0  0  0  0  0  0  0
    7.6353   -1.1207    2.7710 C   0  0  0  0  0  0  0  0  0  0  0  0
    8.4314   -0.7346    1.6849 C   0  0  0  0  0  0  0  0  0  0  0  0
    9.5191   -1.5170    1.2898 C   0  0  0  0  0  0  0  0  0  0  0  0
    9.8162   -2.6990    1.9769 C   0  0  0  0  0  0  0  0  0  0  0  0
    9.0254   -3.1089    3.0539 C   0  0  0  0  0  0  0  0  0  0  0  0
    7.9476   -2.3166    3.4378 C   0  0  0  0  0  0  0  0  0  0  0  0
    7.1641   -2.7154    4.4459 F   0  0  0  0  0  0  0  0  0  0  0  0
    6.7916    0.8125    4.4216 S   0  0  1  0  0  0  0  0  0  0  0  0
    5.4622    1.3857    4.6722 O   0  0  0  0  0  0  0  0  0  0  0  0
    7.5596    0.2259    5.5156 O   0  0  0  0  0  0  0  0  0  0  0  0
    7.8041    1.9122    3.6681 N   0  0  0  0  0  0  0  0  0  0  0  0
    7.1717    2.8011    2.6959 C   0  0  0  0  0  0  0  0  0  0  0  0
    8.8772    2.4909    4.4735 C   0  0  0  0  0  0  0  0  0  0  0  0
    2.1175    2.5821   -0.2873 H   0  0  0  0  0  0  0  0  0  0  0  0
    3.6634    2.4815    0.5821 H   0  0  0  0  0  0  0  0  0  0  0  0
    2.1222    2.4192    1.4971 H   0  0  0  0  0  0  0  0  0  0  0  0
    1.5281    0.2911    0.4028 H   0  0  0  0  0  0  0  0  0  0  0  0
    3.6456   -1.6487   -0.2338 H   0  0  0  0  0  0  0  0  0  0  0  0
    3.8418   -0.9583   -3.1012 H   0  0  0  0  0  0  0  0  0  0  0  0
    5.9026   -2.4151   -1.3610 H   0  0  0  0  0  0  0  0  0  0  0  0
    6.1706   -0.9294   -2.2976 H   0  0  0  0  0  0  0  0  0  0  0  0
    6.8161   -3.3075   -3.4759 H   0  0  0  0  0  0  0  0  0  0  0  0
    5.8994   -2.1258   -4.4189 H   0  0  0  0  0  0  0  0  0  0  0  0
    4.8858   -4.7232   -3.2495 H   0  0  0  0  0  0  0  0  0  0  0  0
    4.2695   -3.8121   -4.6259 H   0  0  0  0  0  0  0  0  0  0  0  0
    3.4426   -3.6684   -1.7437 H   0  0  0  0  0  0  0  0  0  0  0  0
    2.5544   -3.0276   -3.1327 H   0  0  0  0  0  0  0  0  0  0  0  0
    2.8746   -1.5678    3.0350 H   0  0  0  0  0  0  0  0  0  0  0  0
    1.6305   -1.5019    1.8021 H   0  0  0  0  0  0  0  0  0  0  0  0
    3.0820    1.1574    4.1606 H   0  0  0  0  0  0  0  0  0  0  0  0
    1.6577    2.5064    5.6444 H   0  0  0  0  0  0  0  0  0  0  0  0
   -1.8528    0.4540    4.1909 H   0  0  0  0  0  0  0  0  0  0  0  0
   -0.4233   -0.9165    2.6953 H   0  0  0  0  0  0  0  0  0  0  0  0
    5.1742   -1.8384    2.7352 H   0  0  0  0  0  0  0  0  0  0  0  0
    4.5587   -0.6127    3.8439 H   0  0  0  0  0  0  0  0  0  0  0  0
    8.1644    0.1805    1.1561 H   0  0  0  0  0  0  0  0  0  0  0  0
   10.1331   -1.2066    0.4415 H   0  0  0  0  0  0  0  0  0  0  0  0
   10.6670   -3.3128    1.6710 H   0  0  0  0  0  0  0  0  0  0  0  0
    9.2287   -4.0296    3.6042 H   0  0  0  0  0  0  0  0  0  0  0  0
    6.4845    2.2316    2.0558 H   0  0  0  0  0  0  0  0  0  0  0  0
    7.9608    3.2242    2.0551 H   0  0  0  0  0  0  0  0  0  0  0  0
    6.6231    3.6303    3.1791 H   0  0  0  0  0  0  0  0  0  0  0  0
    9.3066    1.7235    5.1269 H   0  0  0  0  0  0  0  0  0  0  0  0
    8.5333    3.3407    5.0936 H   0  0  0  0  0  0  0  0  0  0  0  0
    9.6598    2.8539    3.7891 H   0  0  0  0  0  0  0  0  0  0  0  0
  1  2  1  0
  1 37  1  0
  1 38  1  0
  1 39  1  0
  2  3  1  0
  2 11  1  0
  2 40  1  6
  3  4  2  0
  3  5  1  0
  5  6  1  0
  5 41  1  0
  6  7  1  0
  6 10  1  0
  6 42  1  6
  7  8  1  0
  7 43  1  0
  7 44  1  0
  8  9  1  0
  8 45  1  0
  8 46  1  0
  9 10  1  0
  9 47  1  0
  9 48  1  0
 10 49  1  0
 10 50  1  0
 11 12  1  0
 11 20  1  0
 12 13  1  0
 12 51  1  0
 12 52  1  0
 13 14  2  0
 13 19  1  0
 14 15  1  0
 14 53  1  0
 15 16  2  0
 15 54  1  0
 16 17  1  0
 16 18  1  0
 18 19  2  0
 18 55  1  0
 19 56  1  0
 20 21  2  0
 20 22  1  0
 22 23  1  0
 22 57  1  0
 22 58  1  0
 23 24  1  0
 31 23  1  6
 24 25  2  0
 24 29  1  0
 25 26  1  0
 25 59  1  0
 26 27  2  0
 26 60  1  0
 27 28  1  0
 27 61  1  0
 28 29  2  0
 28 62  1  0
 29 30  1  0
 31 32  2  0
 31 33  2  0
 31 34  1  0
 34 35  1  0
 34 36  1  0
 35 63  1  0
 35 64  1  0
 35 65  1  0
 36 66  1  0
 36 67  1  0
 36 68  1  0
M  END

