
     RDKit          3D

 67 71  0  0  0  0  0  0  0  0999 V2000
    7.8346    0.1855    1.2478 C   0  0  0  0  0  0  0  0  0  0  0  0
    8.2609   -0.3435   -0.1006 C   0  0  0  0  0  0  0  0  0  0  0  0
    9.0691    0.4146   -0.9601 C   0  0  0  0  0  0  0  0  0  0  0  0
    9.4714   -0.0965   -2.1975 C   0  0  0  0  0  0  0  0  0  0  0  0
    9.0721   -1.3734   -2.5936 C   0  0  0  0  0  0  0  0  0  0  0  0
    8.2550   -2.1450   -1.7543 C   0  0  0  0  0  0  0  0  0  0  0  0
    7.7767   -3.4999   -2.2213 C   0  0  0  0  0  0  0  0  0  0  0  0
    7.5574   -4.3474   -1.1043 O   0  0  0  0  0  0  0  0  0  0  0  0
    7.0994   -5.6046   -1.2908 C   0  0  0  0  0  0  0  0  0  0  0  0
    6.9001   -6.3723   -0.1274 C   0  0  0  0  0  0  0  0  0  0  0  0
    6.4259   -7.6749   -0.2072 C   0  0  0  0  0  0  0  0  0  0  0  0
    6.1409   -8.2589   -1.4605 C   0  0  0  0  0  0  0  0  0  0  0  0
    5.6840   -9.6631   -1.6056 C   0  0  0  0  0  0  0  0  0  0  0  0
    6.3558  -10.3988   -2.5111 O   0  0  0  0  0  0  0  0  0  0  0  0
    4.6426  -10.2414   -0.9361 C   0  0  0  0  0  0  0  0  0  0  0  0
    4.2906  -11.6681   -0.9908 C   0  0  0  0  0  0  0  0  0  0  0  0
    4.7513  -12.5737   -1.6491 O   0  0  0  0  0  0  0  0  0  0  0  0
    3.1633  -11.8648    0.0487 C   0  0  0  0  0  0  0  0  0  0  0  0
    2.6212  -12.9126    0.3437 O   0  0  0  0  0  0  0  0  0  0  0  0
    2.9212  -10.6366    0.6000 N   0  0  0  0  0  0  0  0  0  0  0  0
    1.9185  -10.3879    1.6260 C   0  0  0  0  0  0  0  0  0  0  0  0
    1.9774  -11.3273    2.8420 C   0  0  0  0  0  0  0  0  0  0  0  0
    3.3715  -11.5701    3.4353 C   0  0  0  0  0  0  0  0  0  0  0  0
    4.1811  -10.3657    3.5934 N   0  0  0  0  0  0  0  0  0  0  0  0
    3.9027   -9.2527    4.3597 C   0  0  0  0  0  0  0  0  0  0  0  0
    4.9096   -8.3505    4.0866 C   0  0  0  0  0  0  0  0  0  0  0  0
    5.7916   -8.8809    3.1781 N   0  0  0  0  0  0  0  0  0  0  0  0
    5.3293  -10.0843    2.9102 C   0  0  0  0  0  0  0  0  0  0  0  0
    3.6628   -9.5240   -0.0164 C   0  0  2  0  0  0  0  0  0  0  0  0
    2.7351   -8.5401   -0.7308 C   0  0  0  0  0  0  0  0  0  0  0  0
    2.6943   -7.1944   -0.3443 C   0  0  0  0  0  0  0  0  0  0  0  0
    1.8490   -6.2823   -0.9853 C   0  0  0  0  0  0  0  0  0  0  0  0
    1.0364   -6.7357   -2.0192 C   0  0  0  0  0  0  0  0  0  0  0  0
    0.2203   -5.8714   -2.6405 F   0  0  0  0  0  0  0  0  0  0  0  0
    1.0486   -8.0704   -2.4258 C   0  0  0  0  0  0  0  0  0  0  0  0
    1.9006   -8.9644   -1.7781 C   0  0  0  0  0  0  0  0  0  0  0  0
    6.3616   -7.4904   -2.6172 C   0  0  0  0  0  0  0  0  0  0  0  0
    6.8266   -6.1757   -2.5450 C   0  0  0  0  0  0  0  0  0  0  0  0
    7.8589   -1.6228   -0.5181 C   0  0  0  0  0  0  0  0  0  0  0  0
    8.1266    1.2375    1.3816 H   0  0  0  0  0  0  0  0  0  0  0  0
    8.2930   -0.3957    2.0660 H   0  0  0  0  0  0  0  0  0  0  0  0
    6.7423    0.1172    1.3793 H   0  0  0  0  0  0  0  0  0  0  0  0
    9.3915    1.4143   -0.6555 H   0  0  0  0  0  0  0  0  0  0  0  0
   10.1077    0.5030   -2.8535 H   0  0  0  0  0  0  0  0  0  0  0  0
    9.3988   -1.7731   -3.5582 H   0  0  0  0  0  0  0  0  0  0  0  0
    8.5218   -3.9502   -2.9025 H   0  0  0  0  0  0  0  0  0  0  0  0
    6.8334   -3.3934   -2.7928 H   0  0  0  0  0  0  0  0  0  0  0  0
    7.1387   -5.9260    0.8399 H   0  0  0  0  0  0  0  0  0  0  0  0
    6.3095   -8.2379    0.7222 H   0  0  0  0  0  0  0  0  0  0  0  0
    7.1591   -9.9227   -2.7669 H   0  0  0  0  0  0  0  0  0  0  0  0
    0.9047  -10.4473    1.1906 H   0  0  0  0  0  0  0  0  0  0  0  0
    2.0562   -9.3473    1.9553 H   0  0  0  0  0  0  0  0  0  0  0  0
    1.5737  -12.3119    2.5667 H   0  0  0  0  0  0  0  0  0  0  0  0
    1.3065  -10.9025    3.6083 H   0  0  0  0  0  0  0  0  0  0  0  0
    3.9371  -12.2505    2.7835 H   0  0  0  0  0  0  0  0  0  0  0  0
    3.2729  -12.0726    4.4114 H   0  0  0  0  0  0  0  0  0  0  0  0
    3.0406   -9.2043    5.0207 H   0  0  0  0  0  0  0  0  0  0  0  0
    5.0433   -7.3531    4.5045 H   0  0  0  0  0  0  0  0  0  0  0  0
    5.7729  -10.8026    2.2200 H   0  0  0  0  0  0  0  0  0  0  0  0
    4.1816   -8.9718    0.7818 H   0  0  0  0  0  0  0  0  0  0  0  0
    3.3372   -6.8467    0.4686 H   0  0  0  0  0  0  0  0  0  0  0  0
    1.8120   -5.2311   -0.6932 H   0  0  0  0  0  0  0  0  0  0  0  0
    0.3950   -8.3887   -3.2404 H   0  0  0  0  0  0  0  0  0  0  0  0
    1.9148  -10.0099   -2.0973 H   0  0  0  0  0  0  0  0  0  0  0  0
    6.1381   -7.9149   -3.5999 H   0  0  0  0  0  0  0  0  0  0  0  0
    6.9654   -5.6102   -3.4660 H   0  0  0  0  0  0  0  0  0  0  0  0
    7.2329   -2.2330    0.1369 H   0  0  0  0  0  0  0  0  0  0  0  0
  1  2  1  0
  1 40  1  0
  1 41  1  0
  1 42  1  0
  2  3  2  0
  2 39  1  0
  3  4  1  0
  3 43  1  0
  4  5  2  0
  4 44  1  0
  5  6  1  0
  5 45  1  0
  6  7  1  0
  6 39  2  0
  7  8  1  0
  7 46  1  0
  7 47  1  0
  8  9  1  0
  9 10  2  0
  9 38  1  0
 10 11  1  0
 10 48  1  0
 11 12  2  0
 11 49  1  0
 12 13  1  0
 12 37  1  0
 13 14  1  0
 13 15  2  0
 14 50  1  0
 15 16  1  0
 15 29  1  0
 16 17  2  0
 16 18  1  0
 18 19  2  0
 18 20  1  0
 20 21  1  0
 20 29  1  0
 21 22  1  0
 21 51  1  0
 21 52  1  0
 22 23  1  0
 22 53  1  0
 22 54  1  0
 23 24  1  0
 23 55  1  0
 23 56  1  0
 24 25  1  0
 24 28  1  0
 25 26  2  0
 25 57  1  0
 26 27  1  0
 26 58  1  0
 27 28  2  0
 28 59  1  0
 29 30  1  0
 29 60  1  1
 30 31  2  0
 30 36  1  0
 31 32  1  0
 31 61  1  0
 32 33  2  0
 32 62  1  0
 33 34  1  0
 33 35  1  0
 35 36  2  0
 35 63  1  0
 36 64  1  0
 37 38  2  0
 37 65  1  0
 38 66  1  0
 39 67  1  0
M  END

