
     RDKit          3D

 66 68  0  0  0  0  0  0  0  0999 V2000
    1.2991   -0.5654    1.0921 C   0  0  0  0  0  0  0  0  0  0  0  0
    2.1852    0.5422    0.4857 C   0  0  1  0  0  0  0  0  0  0  0  0
    3.2211    1.0170    1.5346 C   0  0  0  0  0  0  0  0  0  0  0  0
    4.2261   -0.0119    2.0609 C   0  0  0  0  0  0  0  0  0  0  0  0
    4.2475   -1.1726    1.6744 O   0  0  0  0  0  0  0  0  0  0  0  0
    5.1314    0.4317    3.0062 N   0  0  0  0  0  0  0  0  0  0  0  0
    6.1077   -0.5085    3.5489 C   0  0  0  0  0  0  0  0  0  0  0  0
    7.5349    0.0333    3.4309 C   0  0  0  0  0  0  0  0  0  0  0  0
    7.7257    1.4487    4.0198 C   0  0  2  0  0  0  0  0  0  0  0  0
    9.0100    1.9664    3.5575 N   0  0  0  0  0  0  0  0  0  0  0  0
    7.6494    1.3697    5.5839 C   0  0  0  0  0  0  0  0  0  0  0  0
    7.6989    2.7275    6.2695 C   0  0  0  0  0  0  0  0  0  0  0  0
    8.5622    3.5552    6.0251 O   0  0  0  0  0  0  0  0  0  0  0  0
    6.6852    2.9468    7.1823 N   0  0  0  0  0  0  0  0  0  0  0  0
    6.4558    4.0697    7.9956 C   0  0  0  0  0  0  0  0  0  0  0  0
    7.2506    5.2275    7.9550 C   0  0  0  0  0  0  0  0  0  0  0  0
    6.9497    6.2977    8.8032 C   0  0  0  0  0  0  0  0  0  0  0  0
    7.8575    7.5078    8.7925 C   0  0  1  0  0  0  0  0  0  0  0  0
    8.3054    7.7815    7.5572 F   0  0  0  0  0  0  0  0  0  0  0  0
    7.2308    8.6040    9.2517 F   0  0  0  0  0  0  0  0  0  0  0  0
    8.9375    7.3130    9.5710 F   0  0  0  0  0  0  0  0  0  0  0  0
    5.8702    6.2486    9.6864 C   0  0  0  0  0  0  0  0  0  0  0  0
    5.0801    5.0955    9.7177 C   0  0  0  0  0  0  0  0  0  0  0  0
    3.8710    5.0433   10.6226 C   0  0  1  0  0  0  0  0  0  0  0  0
    4.0870    5.6955   11.7753 F   0  0  0  0  0  0  0  0  0  0  0  0
    2.7993    5.6122   10.0410 F   0  0  0  0  0  0  0  0  0  0  0  0
    3.5294    3.7783   10.9263 F   0  0  0  0  0  0  0  0  0  0  0  0
    5.3692    4.0150    8.8865 C   0  0  0  0  0  0  0  0  0  0  0  0
    6.6145    2.3558    3.4420 C   0  0  0  0  0  0  0  0  0  0  0  0
    5.2039    1.7705    3.5755 C   0  0  0  0  0  0  0  0  0  0  0  0
    2.9007    0.0566   -0.8039 C   0  0  0  0  0  0  0  0  0  0  0  0
    1.9540   -0.1676   -1.9912 C   0  0  0  0  0  0  0  0  0  0  0  0
    1.1166    1.0789   -2.2993 C   0  0  0  0  0  0  0  0  0  0  0  0
    0.3642    1.5625   -1.0538 C   0  0  0  0  0  0  0  0  0  0  0  0
    1.3180    1.7820    0.1280 C   0  0  0  0  0  0  0  0  0  0  0  0
    1.9029   -1.4441    1.3538 H   0  0  0  0  0  0  0  0  0  0  0  0
    0.5092   -0.8868    0.3979 H   0  0  0  0  0  0  0  0  0  0  0  0
    0.7986   -0.2031    2.0067 H   0  0  0  0  0  0  0  0  0  0  0  0
    2.6740    1.4385    2.3971 H   0  0  0  0  0  0  0  0  0  0  0  0
    3.7914    1.8605    1.1066 H   0  0  0  0  0  0  0  0  0  0  0  0
    5.9985   -1.4483    2.9948 H   0  0  0  0  0  0  0  0  0  0  0  0
    5.8557   -0.7259    4.6058 H   0  0  0  0  0  0  0  0  0  0  0  0
    7.8170    0.0884    2.3673 H   0  0  0  0  0  0  0  0  0  0  0  0
    8.2345   -0.6723    3.9131 H   0  0  0  0  0  0  0  0  0  0  0  0
    9.7582    1.3167    3.8062 H   0  0  0  0  0  0  0  0  0  0  0  0
    9.2204    2.8382    4.0472 H   0  0  0  0  0  0  0  0  0  0  0  0
    8.5312    0.8026    5.9271 H   0  0  0  0  0  0  0  0  0  0  0  0
    6.7650    0.8026    5.9138 H   0  0  0  0  0  0  0  0  0  0  0  0
    6.0337    2.1821    7.3131 H   0  0  0  0  0  0  0  0  0  0  0  0
    8.0889    5.2775    7.2649 H   0  0  0  0  0  0  0  0  0  0  0  0
    5.6472    7.0928   10.3386 H   0  0  0  0  0  0  0  0  0  0  0  0
    4.7448    3.1199    8.9346 H   0  0  0  0  0  0  0  0  0  0  0  0
    6.8465    2.4988    2.3752 H   0  0  0  0  0  0  0  0  0  0  0  0
    6.6508    3.3549    3.9077 H   0  0  0  0  0  0  0  0  0  0  0  0
    4.4880    2.4336    3.0791 H   0  0  0  0  0  0  0  0  0  0  0  0
    4.9011    1.7342    4.6422 H   0  0  0  0  0  0  0  0  0  0  0  0
    3.4678   -0.8579   -0.5811 H   0  0  0  0  0  0  0  0  0  0  0  0
    3.6437    0.8244   -1.0932 H   0  0  0  0  0  0  0  0  0  0  0  0
    1.2822   -1.0188   -1.7815 H   0  0  0  0  0  0  0  0  0  0  0  0
    2.5426   -0.4607   -2.8771 H   0  0  0  0  0  0  0  0  0  0  0  0
    0.4102    0.8792   -3.1229 H   0  0  0  0  0  0  0  0  0  0  0  0
    1.7857    1.8860   -2.6530 H   0  0  0  0  0  0  0  0  0  0  0  0
   -0.4106    0.8241   -0.7824 H   0  0  0  0  0  0  0  0  0  0  0  0
   -0.1747    2.5006   -1.2704 H   0  0  0  0  0  0  0  0  0  0  0  0
    0.7504    2.1042    1.0195 H   0  0  0  0  0  0  0  0  0  0  0  0
    1.9945    2.6202   -0.1239 H   0  0  0  0  0  0  0  0  0  0  0  0
  2  1  1  1
  1 36  1  0
  1 37  1  0
  1 38  1  0
  2  3  1  0
  2 31  1  0
  2 35  1  0
  3  4  1  0
  3 39  1  0
  3 40  1  0
  4  5  2  0
  4  6  1  0
  6  7  1  0
  6 30  1  0
  7  8  1  0
  7 41  1  0
  7 42  1  0
  8  9  1  0
  8 43  1  0
  8 44  1  0
  9 10  1  1
  9 11  1  0
  9 29  1  0
 10 45  1  0
 10 46  1  0
 11 12  1  0
 11 47  1  0
 11 48  1  0
 12 13  2  0
 12 14  1  0
 14 15  1  0
 14 49  1  0
 15 16  2  0
 15 28  1  0
 16 17  1  0
 16 50  1  0
 17 18  1  0
 17 22  2  0
 18 19  1  6
 18 20  1  0
 18 21  1  0
 22 23  1  0
 22 51  1  0
 23 24  1  0
 23 28  2  0
 24 25  1  1
 24 26  1  0
 24 27  1  0
 28 52  1  0
 29 30  1  0
 29 53  1  0
 29 54  1  0
 30 55  1  0
 30 56  1  0
 31 32  1  0
 31 57  1  0
 31 58  1  0
 32 33  1  0
 32 59  1  0
 32 60  1  0
 33 34  1  0
 33 61  1  0
 33 62  1  0
 34 35  1  0
 34 63  1  0
 34 64  1  0
 35 65  1  0
 35 66  1  0
M  END

