
     RDKit          3D

 71 74  0  0  0  0  0  0  0  0999 V2000
   13.6375    3.2120   -4.2338 O   0  0  0  0  0  0  0  0  0  0  0  0
   13.4011    2.0517   -4.5291 N   0  0  0  0  0  0  0  0  0  0  0  0
   14.1980    1.1294   -4.3843 O   0  0  0  0  0  0  0  0  0  0  0  0
   12.0876    1.7323   -5.0924 C   0  0  0  0  0  0  0  0  0  0  0  0
   11.1827    2.7922   -5.2510 C   0  0  0  0  0  0  0  0  0  0  0  0
    9.9239    2.5648   -5.7770 C   0  0  0  0  0  0  0  0  0  0  0  0
    9.5522    1.2597   -6.1557 C   0  0  0  0  0  0  0  0  0  0  0  0
    8.3142    1.1288   -6.6750 O   0  0  0  0  0  0  0  0  0  0  0  0
    7.7922   -0.1452   -7.0943 C   0  0  1  0  0  0  0  0  0  0  0  0
    7.2349   -0.9286   -5.8996 C   0  0  0  0  0  0  0  0  0  0  0  0
    6.0004   -0.2506   -5.2994 C   0  0  0  0  0  0  0  0  0  0  0  0
    4.9698   -0.0227   -6.3182 N   0  0  0  0  0  0  0  0  0  0  0  0
    3.7086   -0.5182   -6.1919 C   0  0  0  0  0  0  0  0  0  0  0  0
    3.2133   -1.4716   -4.9091 S   0  0  0  0  0  0  0  0  0  0  0  0
    2.7032   -0.1857   -7.2882 C   0  0  0  0  0  0  0  0  0  0  0  0
    2.7821   -1.0715   -8.5509 C   0  0  0  0  0  0  0  0  0  0  0  0
    2.3541   -2.5290   -8.3330 C   0  0  0  0  0  0  0  0  0  0  0  0
    2.3944   -3.2913   -9.5814 N   0  0  0  0  0  0  0  0  0  0  0  0
    3.6903   -3.8542   -9.9320 C   0  0  0  0  0  0  0  0  0  0  0  0
    4.0285   -5.1627   -9.1972 C   0  0  0  0  0  0  0  0  0  0  0  0
    2.9576   -6.1395   -9.3589 N   0  0  0  0  0  0  0  0  0  0  0  0
    3.2320   -7.4940   -9.1361 C   0  0  0  0  0  0  0  0  0  0  0  0
    2.2631   -8.4901   -9.4088 C   0  0  0  0  0  0  0  0  0  0  0  0
    2.5430   -9.8404   -9.2215 C   0  0  0  0  0  0  0  0  0  0  0  0
    3.7942  -10.2634   -8.7633 C   0  0  0  0  0  0  0  0  0  0  0  0
    4.7600   -9.2926   -8.4907 C   0  0  0  0  0  0  0  0  0  0  0  0
    6.1400   -9.7104   -8.0464 C   0  0  1  0  0  0  0  0  0  0  0  0
    6.1228  -10.8723   -7.3704 F   0  0  0  0  0  0  0  0  0  0  0  0
    6.9682   -9.8830   -9.0972 F   0  0  0  0  0  0  0  0  0  0  0  0
    6.7165   -8.7899   -7.2492 F   0  0  0  0  0  0  0  0  0  0  0  0
    4.4868   -7.9311   -8.6600 C   0  0  0  0  0  0  0  0  0  0  0  0
    1.6366   -5.6083   -9.0113 C   0  0  0  0  0  0  0  0  0  0  0  0
    1.3606   -4.2997   -9.7622 C   0  0  0  0  0  0  0  0  0  0  0  0
    5.4580    0.8038   -7.4267 C   0  0  0  0  0  0  0  0  0  0  0  0
    6.6798    0.1610   -8.0975 C   0  0  0  0  0  0  0  0  0  0  0  0
   10.4623    0.2036   -5.9901 C   0  0  0  0  0  0  0  0  0  0  0  0
   11.7410    0.4162   -5.4606 C   0  0  0  0  0  0  0  0  0  0  0  0
   12.6554   -0.7846   -5.3206 C   0  0  0  0  0  0  0  0  0  0  0  0
   12.0170   -1.9265   -5.7707 F   0  0  0  0  0  0  0  0  0  0  0  0
   11.5012    3.7897   -4.9505 H   0  0  0  0  0  0  0  0  0  0  0  0
    9.2080    3.3772   -5.9109 H   0  0  0  0  0  0  0  0  0  0  0  0
    8.5917   -0.7134   -7.5969 H   0  0  0  0  0  0  0  0  0  0  0  0
    8.0049   -1.0450   -5.1211 H   0  0  0  0  0  0  0  0  0  0  0  0
    6.9686   -1.9432   -6.2405 H   0  0  0  0  0  0  0  0  0  0  0  0
    6.2811    0.7262   -4.8671 H   0  0  0  0  0  0  0  0  0  0  0  0
    5.5566   -0.8652   -4.5071 H   0  0  0  0  0  0  0  0  0  0  0  0
    2.7937    0.8726   -7.5832 H   0  0  0  0  0  0  0  0  0  0  0  0
    1.7087   -0.2976   -6.8369 H   0  0  0  0  0  0  0  0  0  0  0  0
    3.8013   -1.0470   -8.9741 H   0  0  0  0  0  0  0  0  0  0  0  0
    2.1263   -0.6393   -9.3244 H   0  0  0  0  0  0  0  0  0  0  0  0
    1.3177   -2.5335   -7.9586 H   0  0  0  0  0  0  0  0  0  0  0  0
    2.9579   -2.9812   -7.5226 H   0  0  0  0  0  0  0  0  0  0  0  0
    4.4843   -3.1162   -9.7361 H   0  0  0  0  0  0  0  0  0  0  0  0
    3.7011   -4.0570  -11.0182 H   0  0  0  0  0  0  0  0  0  0  0  0
    4.2324   -4.9604   -8.1230 H   0  0  0  0  0  0  0  0  0  0  0  0
    4.9546   -5.5681   -9.6300 H   0  0  0  0  0  0  0  0  0  0  0  0
    1.2834   -8.2067   -9.7945 H   0  0  0  0  0  0  0  0  0  0  0  0
    1.7700  -10.5798   -9.4462 H   0  0  0  0  0  0  0  0  0  0  0  0
    4.0127  -11.3216   -8.6164 H   0  0  0  0  0  0  0  0  0  0  0  0
    5.2606   -7.2143   -8.3938 H   0  0  0  0  0  0  0  0  0  0  0  0
    1.5676   -5.4374   -7.9150 H   0  0  0  0  0  0  0  0  0  0  0  0
    0.8579   -6.3370   -9.2688 H   0  0  0  0  0  0  0  0  0  0  0  0
    0.3876   -3.8916   -9.4463 H   0  0  0  0  0  0  0  0  0  0  0  0
    1.2861   -4.5299  -10.8410 H   0  0  0  0  0  0  0  0  0  0  0  0
    5.7437    1.7938   -7.0289 H   0  0  0  0  0  0  0  0  0  0  0  0
    4.6704    0.9643   -8.1674 H   0  0  0  0  0  0  0  0  0  0  0  0
    7.0664    0.8296   -8.8825 H   0  0  0  0  0  0  0  0  0  0  0  0
    6.3804   -0.7833   -8.5811 H   0  0  0  0  0  0  0  0  0  0  0  0
   10.2021   -0.8148   -6.2664 H   0  0  0  0  0  0  0  0  0  0  0  0
   12.9492   -0.9352   -4.2709 H   0  0  0  0  0  0  0  0  0  0  0  0
   13.5796   -0.6449   -5.9013 H   0  0  0  0  0  0  0  0  0  0  0  0
  1  2  2  0
  2  3  1  0
  2  4  1  0
  4  5  2  0
  4 37  1  0
  5  6  1  0
  5 40  1  0
  6  7  2  0
  6 41  1  0
  7  8  1  0
  7 36  1  0
  8  9  1  0
  9 10  1  0
  9 35  1  0
  9 42  1  6
 10 11  1  0
 10 43  1  0
 10 44  1  0
 11 12  1  0
 11 45  1  0
 11 46  1  0
 12 13  1  0
 12 34  1  0
 13 14  2  0
 13 15  1  0
 15 16  1  0
 15 47  1  0
 15 48  1  0
 16 17  1  0
 16 49  1  0
 16 50  1  0
 17 18  1  0
 17 51  1  0
 17 52  1  0
 18 19  1  0
 18 33  1  0
 19 20  1  0
 19 53  1  0
 19 54  1  0
 20 21  1  0
 20 55  1  0
 20 56  1  0
 21 22  1  0
 21 32  1  0
 22 23  2  0
 22 31  1  0
 23 24  1  0
 23 57  1  0
 24 25  2  0
 24 58  1  0
 25 26  1  0
 25 59  1  0
 26 27  1  0
 26 31  2  0
 27 28  1  1
 27 29  1  0
 27 30  1  0
 31 60  1  0
 32 33  1  0
 32 61  1  0
 32 62  1  0
 33 63  1  0
 33 64  1  0
 34 35  1  0
 34 65  1  0
 34 66  1  0
 35 67  1  0
 35 68  1  0
 36 37  2  0
 36 69  1  0
 37 38  1  0
 38 39  1  0
 38 70  1  0
 38 71  1  0
M  CHG  2   2   1   3  -1
M  END

