
     RDKit          3D

 37 38  0  0  0  0  0  0  0  0999 V2000
    3.6316   -0.7833   -0.8534 N   0  0  0  0  0  0  0  0  0  0  0  0
    2.7048    0.0583   -0.3234 C   0  0  0  0  0  0  0  0  0  0  0  0
    1.5043    0.0050   -0.5207 O   0  0  0  0  0  0  0  0  0  0  0  0
    3.2337    1.0454    0.5176 N   0  0  0  0  0  0  0  0  0  0  0  0
    4.5569    1.1534    0.7456 N   0  0  0  0  0  0  0  0  0  0  0  0
    5.0447    2.0386    1.5406 C   0  0  0  0  0  0  0  0  0  0  0  0
    6.5565    2.1082    1.6434 C   0  0  0  0  0  0  0  0  0  0  0  0
    7.0688    2.4370    3.0563 C   0  0  0  0  0  0  0  0  0  0  0  0
    6.2528    3.5519    3.7539 C   0  0  2  0  0  0  0  0  0  0  0  0
    6.6452    3.6739    4.7747 H   0  0  0  0  0  0  0  0  0  0  0  0
    4.7805    3.1166    3.7956 C   0  0  0  0  0  0  0  0  0  0  0  0
    4.2327    3.0366    2.3571 C   0  0  1  0  0  0  0  0  0  0  0  0
    3.1869    2.6946    2.4086 H   0  0  0  0  0  0  0  0  0  0  0  0
    4.2252    4.4633    1.7587 C   0  0  0  0  0  0  0  0  0  0  0  0
    5.5892    5.1849    1.8155 C   0  0  0  0  0  0  0  0  0  0  0  0
    6.3974    4.9033    3.0710 C   0  0  0  0  0  0  0  0  0  0  0  0
    7.2519    5.7176    3.5819 N   0  0  0  0  0  0  0  0  0  0  0  0
    7.5071    6.9136    3.0176 N   0  0  0  0  0  0  0  0  0  0  0  0
    8.4120    7.8226    3.5821 C   0  0  0  0  0  0  0  0  0  0  0  0
    8.9617    7.4109    4.7552 N   0  0  0  0  0  0  0  0  0  0  0  0
    8.6417    8.8799    3.0241 O   0  0  0  0  0  0  0  0  0  0  0  0
    3.3121   -1.4876   -1.5026 H   0  0  0  0  0  0  0  0  0  0  0  0
    4.6155   -0.6371   -0.6674 H   0  0  0  0  0  0  0  0  0  0  0  0
    2.5398    1.6762    0.9145 H   0  0  0  0  0  0  0  0  0  0  0  0
    6.9207    2.8786    0.9396 H   0  0  0  0  0  0  0  0  0  0  0  0
    6.9728    1.1562    1.2820 H   0  0  0  0  0  0  0  0  0  0  0  0
    8.1324    2.7198    3.0142 H   0  0  0  0  0  0  0  0  0  0  0  0
    7.0031    1.5336    3.6875 H   0  0  0  0  0  0  0  0  0  0  0  0
    4.1763    3.8325    4.3778 H   0  0  0  0  0  0  0  0  0  0  0  0
    4.6938    2.1386    4.2966 H   0  0  0  0  0  0  0  0  0  0  0  0
    3.4912    5.0513    2.3355 H   0  0  0  0  0  0  0  0  0  0  0  0
    3.8626    4.4453    0.7187 H   0  0  0  0  0  0  0  0  0  0  0  0
    5.4066    6.2687    1.7224 H   0  0  0  0  0  0  0  0  0  0  0  0
    6.1969    4.9128    0.9331 H   0  0  0  0  0  0  0  0  0  0  0  0
    7.1067    7.2134    2.1308 H   0  0  0  0  0  0  0  0  0  0  0  0
    8.7449    6.4939    5.1240 H   0  0  0  0  0  0  0  0  0  0  0  0
    9.6526    8.0075    5.1869 H   0  0  0  0  0  0  0  0  0  0  0  0
  1  2  1  0
  1 22  1  0
  1 23  1  0
  2  3  2  0
  2  4  1  0
  4  5  1  0
  4 24  1  0
  5  6  2  0
  6  7  1  0
  6 12  1  0
  7  8  1  0
  7 25  1  0
  7 26  1  0
  8  9  1  0
  8 27  1  0
  8 28  1  0
  9 10  1  1
  9 11  1  0
  9 16  1  0
 11 12  1  0
 11 29  1  0
 11 30  1  0
 12 13  1  1
 12 14  1  0
 14 15  1  0
 14 31  1  0
 14 32  1  0
 15 16  1  0
 15 33  1  0
 15 34  1  0
 16 17  2  0
 17 18  1  0
 18 19  1  0
 18 35  1  0
 19 20  1  0
 19 21  2  0
 20 36  1  0
 20 37  1  0
M  END

