
     RDKit          3D

 45 45  0  0  0  0  0  0  0  0999 V2000
    0.6742   -0.3183    0.2210 C   0  0  0  0  0  0  0  0  0  0  0  0
    2.1239   -0.1849    0.2377 N   0  0  0  0  0  0  0  0  0  0  0  0
    2.5068    1.2124    0.4699 C   0  0  0  0  0  0  0  0  0  0  0  0
    2.1746    2.2712   -0.6106 C   0  0  1  0  0  0  0  0  0  0  0  0
    2.4029    3.6657    0.0203 C   0  0  0  0  0  0  0  0  0  0  0  0
    1.1771    4.2015    1.2887 S   0  0  0  0  0  0  0  0  0  0  0  0
    2.9177    2.1092   -1.9936 C   0  0  1  0  0  0  0  0  0  0  0  0
    2.4054    0.8442   -2.7145 C   0  0  0  0  0  0  0  0  0  0  0  0
    2.6074    3.3082   -2.9188 C   0  0  0  0  0  0  0  0  0  0  0  0
    4.4460    2.0088   -1.8207 C   0  0  0  0  0  0  0  0  0  0  0  0
    2.7913   -1.0857    1.2062 C   0  0  1  0  0  0  0  0  0  0  0  0
    2.2019   -2.5124    1.2327 C   0  0  0  0  0  0  0  0  0  0  0  0
    2.4792   -3.3101   -0.0486 C   0  0  0  0  0  0  0  0  0  0  0  0
    3.9842   -3.3945   -0.3315 C   0  0  0  0  0  0  0  0  0  0  0  0
    4.6272   -2.0023   -0.3441 C   0  0  0  0  0  0  0  0  0  0  0  0
    4.3083   -1.2158    0.9350 C   0  0  0  0  0  0  0  0  0  0  0  0
    0.2393    0.4187   -0.4666 H   0  0  0  0  0  0  0  0  0  0  0  0
    0.2092   -0.1509    1.2196 H   0  0  0  0  0  0  0  0  0  0  0  0
    0.3640   -1.3077   -0.1405 H   0  0  0  0  0  0  0  0  0  0  0  0
    3.5897    1.2519    0.6471 H   0  0  0  0  0  0  0  0  0  0  0  0
    2.0362    1.5581    1.4174 H   0  0  0  0  0  0  0  0  0  0  0  0
    1.0964    2.2236   -0.8384 H   0  0  0  0  0  0  0  0  0  0  0  0
    2.3115    4.4510   -0.7389 H   0  0  0  0  0  0  0  0  0  0  0  0
    3.4122    3.7611    0.4499 H   0  0  0  0  0  0  0  0  0  0  0  0
    1.6786    3.5214    2.3436 H   0  0  0  0  0  0  0  0  0  0  0  0
    1.3287    0.9293   -2.9384 H   0  0  0  0  0  0  0  0  0  0  0  0
    2.5508   -0.0524   -2.0995 H   0  0  0  0  0  0  0  0  0  0  0  0
    2.9319    0.7127   -3.6745 H   0  0  0  0  0  0  0  0  0  0  0  0
    1.5239    3.5081   -2.9712 H   0  0  0  0  0  0  0  0  0  0  0  0
    2.9510    3.0876   -3.9422 H   0  0  0  0  0  0  0  0  0  0  0  0
    3.1109    4.2362   -2.6073 H   0  0  0  0  0  0  0  0  0  0  0  0
    4.7425    1.0955   -1.2840 H   0  0  0  0  0  0  0  0  0  0  0  0
    4.8582    2.8738   -1.2755 H   0  0  0  0  0  0  0  0  0  0  0  0
    4.9393    1.9802   -2.8061 H   0  0  0  0  0  0  0  0  0  0  0  0
    2.6615   -0.6643    2.2314 H   0  0  0  0  0  0  0  0  0  0  0  0
    1.1268   -2.4974    1.4635 H   0  0  0  0  0  0  0  0  0  0  0  0
    2.6768   -3.0321    2.0832 H   0  0  0  0  0  0  0  0  0  0  0  0
    1.9733   -2.8300   -0.9043 H   0  0  0  0  0  0  0  0  0  0  0  0
    2.0490   -4.3220    0.0416 H   0  0  0  0  0  0  0  0  0  0  0  0
    4.1694   -3.9123   -1.2878 H   0  0  0  0  0  0  0  0  0  0  0  0
    4.4643   -4.0097    0.4525 H   0  0  0  0  0  0  0  0  0  0  0  0
    4.2594   -1.4396   -1.2182 H   0  0  0  0  0  0  0  0  0  0  0  0
    5.7206   -2.0879   -0.4643 H   0  0  0  0  0  0  0  0  0  0  0  0
    4.7968   -0.2301    0.9046 H   0  0  0  0  0  0  0  0  0  0  0  0
    4.7520   -1.7360    1.8026 H   0  0  0  0  0  0  0  0  0  0  0  0
  1  2  1  0
  1 17  1  0
  1 18  1  0
  1 19  1  0
  2  3  1  0
  2 11  1  0
  3  4  1  0
  3 20  1  0
  3 21  1  0
  4  5  1  0
  4  7  1  0
  4 22  1  6
  5  6  1  0
  5 23  1  0
  5 24  1  0
  6 25  1  0
  7  8  1  6
  7  9  1  0
  7 10  1  0
  8 26  1  0
  8 27  1  0
  8 28  1  0
  9 29  1  0
  9 30  1  0
  9 31  1  0
 10 32  1  0
 10 33  1  0
 10 34  1  0
 11 12  1  0
 11 16  1  0
 11 35  1  1
 12 13  1  0
 12 36  1  0
 12 37  1  0
 13 14  1  0
 13 38  1  0
 13 39  1  0
 14 15  1  0
 14 40  1  0
 14 41  1  0
 15 16  1  0
 15 42  1  0
 15 43  1  0
 16 44  1  0
 16 45  1  0
M  END

