
     RDKit          3D

 41 42  0  0  0  0  0  0  0  0999 V2000
    1.1355   -0.0597    0.6448 N   0  0  0  0  0  0  0  0  0  0  0  0
    2.5048    0.0177    0.4153 C   0  0  0  0  0  0  0  0  0  0  0  0
    3.4271   -0.1002    1.4741 C   0  0  0  0  0  0  0  0  0  0  0  0
    4.7993   -0.0716    1.2315 C   0  0  0  0  0  0  0  0  0  0  0  0
    5.3185    0.0761   -0.0650 C   0  0  0  0  0  0  0  0  0  0  0  0
    6.8101    0.0670   -0.3191 C   0  0  0  0  0  0  0  0  0  0  0  0
    7.4171   -1.3451   -0.3761 C   0  0  0  0  0  0  0  0  0  0  0  0
    8.9239   -1.3441   -0.6458 C   0  0  0  0  0  0  0  0  0  0  0  0
    9.5426   -2.7336   -0.5086 C   0  0  0  0  0  0  0  0  0  0  0  0
    9.2198   -3.5008    0.3848 O   0  0  0  0  0  0  0  0  0  0  0  0
   10.4946   -3.0397   -1.4405 N   0  0  0  0  0  0  0  0  0  0  0  0
   11.2296   -4.2853   -1.4542 C   0  0  0  0  0  0  0  0  0  0  0  0
   11.1550   -4.9801   -2.8123 C   0  0  1  0  0  0  0  0  0  0  0  0
    9.7718   -5.4422   -3.2779 C   0  0  0  0  0  0  0  0  0  0  0  0
    9.9409   -5.4465   -4.8017 C   0  0  0  0  0  0  0  0  0  0  0  0
   10.8621   -4.2377   -5.0271 C   0  0  0  0  0  0  0  0  0  0  0  0
   11.5934   -4.0548   -3.8149 O   0  0  0  0  0  0  0  0  0  0  0  0
    4.3939    0.1948   -1.1134 C   0  0  0  0  0  0  0  0  0  0  0  0
    3.0175    0.1684   -0.8874 C   0  0  0  0  0  0  0  0  0  0  0  0
    0.8273    0.1584    1.5854 H   0  0  0  0  0  0  0  0  0  0  0  0
    0.5396    0.3491   -0.0659 H   0  0  0  0  0  0  0  0  0  0  0  0
    3.0584   -0.2158    2.4978 H   0  0  0  0  0  0  0  0  0  0  0  0
    5.4866   -0.1623    2.0785 H   0  0  0  0  0  0  0  0  0  0  0  0
    7.3246    0.6419    0.4719 H   0  0  0  0  0  0  0  0  0  0  0  0
    7.0225    0.5943   -1.2659 H   0  0  0  0  0  0  0  0  0  0  0  0
    6.9010   -1.9338   -1.1546 H   0  0  0  0  0  0  0  0  0  0  0  0
    7.2365   -1.8742    0.5728 H   0  0  0  0  0  0  0  0  0  0  0  0
    9.4283   -0.7002    0.0982 H   0  0  0  0  0  0  0  0  0  0  0  0
    9.1485   -0.9093   -1.6352 H   0  0  0  0  0  0  0  0  0  0  0  0
   10.7165   -2.3775   -2.1745 H   0  0  0  0  0  0  0  0  0  0  0  0
   10.8082   -4.9270   -0.6672 H   0  0  0  0  0  0  0  0  0  0  0  0
   12.2923   -4.1064   -1.2098 H   0  0  0  0  0  0  0  0  0  0  0  0
   11.8470   -5.8474   -2.7853 H   0  0  0  0  0  0  0  0  0  0  0  0
    9.0101   -4.7070   -2.9707 H   0  0  0  0  0  0  0  0  0  0  0  0
    9.4896   -6.4204   -2.8615 H   0  0  0  0  0  0  0  0  0  0  0  0
    8.9913   -5.3658   -5.3516 H   0  0  0  0  0  0  0  0  0  0  0  0
   10.4374   -6.3753   -5.1279 H   0  0  0  0  0  0  0  0  0  0  0  0
   10.2808   -3.3207   -5.2403 H   0  0  0  0  0  0  0  0  0  0  0  0
   11.5653   -4.3880   -5.8646 H   0  0  0  0  0  0  0  0  0  0  0  0
    4.7578    0.3182   -2.1384 H   0  0  0  0  0  0  0  0  0  0  0  0
    2.3260    0.2652   -1.7299 H   0  0  0  0  0  0  0  0  0  0  0  0
  1  2  1  0
  1 20  1  0
  1 21  1  0
  2  3  2  0
  2 19  1  0
  3  4  1  0
  3 22  1  0
  4  5  2  0
  4 23  1  0
  5  6  1  0
  5 18  1  0
  6  7  1  0
  6 24  1  0
  6 25  1  0
  7  8  1  0
  7 26  1  0
  7 27  1  0
  8  9  1  0
  8 28  1  0
  8 29  1  0
  9 10  2  0
  9 11  1  0
 11 12  1  0
 11 30  1  0
 12 13  1  0
 12 31  1  0
 12 32  1  0
 13 14  1  0
 13 17  1  0
 13 33  1  1
 14 15  1  0
 14 34  1  0
 14 35  1  0
 15 16  1  0
 15 36  1  0
 15 37  1  0
 16 17  1  0
 16 38  1  0
 16 39  1  0
 18 19  2  0
 18 40  1  0
 19 41  1  0
M  END

