
     RDKit          3D

 31 32  0  0  0  0  0  0  0  0999 V2000
    3.3988    2.6693    0.2419 C   0  0  0  0  0  0  0  0  0  0  0  0
    3.5054    1.1732    0.2096 C   0  0  0  0  0  0  0  0  0  0  0  0
    2.4671    0.2876    0.3874 C   0  0  0  0  0  0  0  0  0  0  0  0
    3.0367   -1.3396    0.2696 S   0  0  0  0  0  0  0  0  0  0  0  0
    4.6641   -0.7173   -0.0161 C   0  0  0  0  0  0  0  0  0  0  0  0
    5.8017   -1.6230   -0.2232 C   0  0  0  0  0  0  0  0  0  0  0  0
    7.0338   -1.1189   -0.4412 C   0  0  0  0  0  0  0  0  0  0  0  0
    8.2656   -1.9554   -0.6087 C   0  0  0  0  0  0  0  0  0  0  0  0
    8.0179   -3.3717   -0.3714 N   0  0  0  0  0  0  0  0  0  0  0  0
    8.9754   -4.1016    0.2861 C   0  0  0  0  0  0  0  0  0  0  0  0
   10.0416   -3.6102    0.6299 O   0  0  0  0  0  0  0  0  0  0  0  0
    8.6743   -5.5723    0.6048 C   0  0  0  0  0  0  0  0  0  0  0  0
    7.5096   -5.7161    1.4765 N   0  0  0  0  0  0  0  0  0  0  0  0
    6.7357   -3.8648   -0.8565 C   0  0  0  0  0  0  0  0  0  0  0  0
    5.5803   -3.1198   -0.1832 C   0  0  0  0  0  0  0  0  0  0  0  0
    4.7242    0.5881   -0.0120 N   0  0  0  0  0  0  0  0  0  0  0  0
    2.3668    2.9968    0.4316 H   0  0  0  0  0  0  0  0  0  0  0  0
    3.7334    3.1016   -0.7152 H   0  0  0  0  0  0  0  0  0  0  0  0
    4.0493    3.0863    1.0278 H   0  0  0  0  0  0  0  0  0  0  0  0
    1.4187    0.5082    0.5791 H   0  0  0  0  0  0  0  0  0  0  0  0
    7.1568   -0.0337   -0.4948 H   0  0  0  0  0  0  0  0  0  0  0  0
    9.0563   -1.6357    0.0878 H   0  0  0  0  0  0  0  0  0  0  0  0
    8.6889   -1.7954   -1.6240 H   0  0  0  0  0  0  0  0  0  0  0  0
    9.6205   -5.9632    1.0206 H   0  0  0  0  0  0  0  0  0  0  0  0
    8.4810   -6.1196   -0.3344 H   0  0  0  0  0  0  0  0  0  0  0  0
    7.7002   -5.2952    2.3866 H   0  0  0  0  0  0  0  0  0  0  0  0
    7.3179   -6.7026    1.6512 H   0  0  0  0  0  0  0  0  0  0  0  0
    6.6463   -4.9351   -0.6540 H   0  0  0  0  0  0  0  0  0  0  0  0
    6.6863   -3.7102   -1.9513 H   0  0  0  0  0  0  0  0  0  0  0  0
    5.4858   -3.4741    0.8585 H   0  0  0  0  0  0  0  0  0  0  0  0
    4.6364   -3.3812   -0.6925 H   0  0  0  0  0  0  0  0  0  0  0  0
  1  2  1  0
  1 17  1  0
  1 18  1  0
  1 19  1  0
  2  3  2  0
  2 16  1  0
  3  4  1  0
  3 20  1  0
  4  5  1  0
  5  6  1  0
  5 16  2  0
  6  7  2  0
  6 15  1  0
  7  8  1  0
  7 21  1  0
  8  9  1  0
  8 22  1  0
  8 23  1  0
  9 10  1  0
  9 14  1  0
 10 11  2  0
 10 12  1  0
 12 13  1  0
 12 24  1  0
 12 25  1  0
 13 26  1  0
 13 27  1  0
 14 15  1  0
 14 28  1  0
 14 29  1  0
 15 30  1  0
 15 31  1  0
M  END

