
     RDKit          3D

 21 22  0  0  0  0  0  0  0  0999 V2000
    1.1596   -0.0547   -0.0032 C   0  0  0  0  0  0  0  0  0  0  0  0
    2.6450    0.1188   -0.0030 C   0  0  0  0  0  0  0  0  0  0  0  0
    3.3805    1.3194   -0.0034 C   0  0  0  0  0  0  0  0  0  0  0  0
    4.7196    0.9300   -0.0030 C   0  0  0  0  0  0  0  0  0  0  0  0
    5.8884    1.5862   -0.0031 N   0  0  0  0  0  0  0  0  0  0  0  0
    7.0066    0.8832   -0.0026 C   0  0  0  0  0  0  0  0  0  0  0  0
    8.3028    1.6653   -0.0028 C   0  0  0  0  0  0  0  0  0  0  0  0
    9.3808    1.1303   -0.0034 O   0  0  0  0  0  0  0  0  0  0  0  0
    8.1258    2.9860   -0.0001 O   0  0  0  0  0  0  0  0  0  0  0  0
    7.0424   -0.5362   -0.0021 C   0  0  0  0  0  0  0  0  0  0  0  0
    5.8445   -1.2217   -0.0021 C   0  0  0  0  0  0  0  0  0  0  0  0
    5.7427   -2.6505   -0.0017 C   0  0  0  0  0  0  0  0  0  0  0  0
    5.7113   -3.8098   -0.0014 N   0  0  0  0  0  0  0  0  0  0  0  0
    4.6847   -0.4870   -0.0025 N   0  0  0  0  0  0  0  0  0  0  0  0
    3.4472   -0.9666   -0.0025 N   0  0  0  0  0  0  0  0  0  0  0  0
    0.6478    0.9170   -0.0037 H   0  0  0  0  0  0  0  0  0  0  0  0
    0.8355   -0.6228    0.8831 H   0  0  0  0  0  0  0  0  0  0  0  0
    0.8358   -0.6238   -0.8889 H   0  0  0  0  0  0  0  0  0  0  0  0
    3.0059    2.3390   -0.0038 H   0  0  0  0  0  0  0  0  0  0  0  0
    7.1593    3.1454    0.0010 H   0  0  0  0  0  0  0  0  0  0  0  0
    7.9982   -1.0578   -0.0018 H   0  0  0  0  0  0  0  0  0  0  0  0
  1  2  1  0
  1 16  1  0
  1 17  1  0
  1 18  1  0
  2  3  1  0
  2 15  2  0
  3  4  2  0
  3 19  1  0
  4  5  1  0
  4 14  1  0
  5  6  2  0
  6  7  1  0
  6 10  1  0
  7  8  2  0
  7  9  1  0
  9 20  1  0
 10 11  2  0
 10 21  1  0
 11 12  1  0
 11 14  1  0
 12 13  3  0
 14 15  1  0
M  END

