
     RDKit          3D

 11 11  0  0  0  0  0  0  0  0999 V2000
    1.0614    0.0630    0.0448 F   0  0  0  0  0  0  0  0  0  0  0  0
    2.3965    0.0544    0.0496 C   0  0  0  0  0  0  0  0  0  0  0  0
    3.0997    1.2578    0.0532 C   0  0  0  0  0  0  0  0  0  0  0  0
    4.4331    1.2786    0.0580 N   0  0  0  0  0  0  0  0  0  0  0  0
    5.0942    0.1461    0.0593 C   0  0  0  0  0  0  0  0  0  0  0  0
    6.4201    0.2296    0.0642 F   0  0  0  0  0  0  0  0  0  0  0  0
    4.4812   -1.1156    0.0560 C   0  0  0  0  0  0  0  0  0  0  0  0
    5.6319   -2.8897    0.0585 I   0  0  0  0  0  0  0  0  0  0  0  0
    3.0856   -1.1579    0.0510 C   0  0  0  0  0  0  0  0  0  0  0  0
    2.5629    2.2128    0.0521 H   0  0  0  0  0  0  0  0  0  0  0  0
    2.5352   -2.1006    0.0481 H   0  0  0  0  0  0  0  0  0  0  0  0
  1  2  1  0
  2  3  2  0
  2  9  1  0
  3  4  1  0
  3 10  1  0
  4  5  2  0
  5  6  1  0
  5  7  1  0
  7  8  1  0
  7  9  2  0
  9 11  1  0
M  END

