
     RDKit          3D

 38 39  0  0  0  0  0  0  0  0999 V2000
    1.3223    0.2479    0.4100 C   0  0  0  0  0  0  0  0  0  0  0  0
    2.8122    0.2235    0.1776 C   0  0  0  0  0  0  0  0  0  0  0  0
    3.5896    1.3735    0.3798 C   0  0  0  0  0  0  0  0  0  0  0  0
    4.9631    1.3876    0.1432 C   0  0  0  0  0  0  0  0  0  0  0  0
    5.6186    0.2278   -0.3126 C   0  0  0  0  0  0  0  0  0  0  0  0
    7.0269    0.2276   -0.5722 C   0  0  0  0  0  0  0  0  0  0  0  0
    8.2250    0.2339   -0.7799 C   0  0  0  0  0  0  0  0  0  0  0  0
    9.6609    0.2294   -1.0745 C   0  0  0  0  0  0  0  0  0  0  0  0
   10.1068    1.4990   -1.6494 N   0  0  0  0  0  0  0  0  0  0  0  0
    4.8481   -0.9365   -0.5035 C   0  0  0  0  0  0  0  0  0  0  0  0
    3.4714   -0.9480   -0.2598 C   0  0  0  0  0  0  0  0  0  0  0  0
    2.6683   -2.1847   -0.5959 C   0  0  0  0  0  0  0  0  0  0  0  0
    1.8287   -2.1430   -1.4894 O   0  0  0  0  0  0  0  0  0  0  0  0
    2.9175   -3.3393    0.1020 N   0  0  0  0  0  0  0  0  0  0  0  0
    3.8421   -3.4931    1.2139 C   0  0  0  0  0  0  0  0  0  0  0  0
    2.2095   -4.5453   -0.3382 C   0  0  0  0  0  0  0  0  0  0  0  0
    2.9627   -5.3104   -1.3973 C   0  0  0  0  0  0  0  0  0  0  0  0
    2.7771   -5.1746   -2.7522 C   0  0  0  0  0  0  0  0  0  0  0  0
    3.8773   -6.1959   -3.6069 S   0  0  0  0  0  0  0  0  0  0  0  0
    4.5148   -6.7298   -2.0747 C   0  0  0  0  0  0  0  0  0  0  0  0
    3.9548   -6.1939   -1.0320 N   0  0  0  0  0  0  0  0  0  0  0  0
    0.9975    1.2218    0.8034 H   0  0  0  0  0  0  0  0  0  0  0  0
    1.0119   -0.5302    1.1272 H   0  0  0  0  0  0  0  0  0  0  0  0
    0.7825    0.0416   -0.5265 H   0  0  0  0  0  0  0  0  0  0  0  0
    3.1002    2.2869    0.7292 H   0  0  0  0  0  0  0  0  0  0  0  0
    5.5409    2.2998    0.3056 H   0  0  0  0  0  0  0  0  0  0  0  0
    9.8744   -0.6650   -1.7018 H   0  0  0  0  0  0  0  0  0  0  0  0
   10.2140    0.0674   -0.1310 H   0  0  0  0  0  0  0  0  0  0  0  0
    9.6467    1.6535   -2.5472 H   0  0  0  0  0  0  0  0  0  0  0  0
   11.1083    1.4548   -1.8390 H   0  0  0  0  0  0  0  0  0  0  0  0
    5.3429   -1.8431   -0.8593 H   0  0  0  0  0  0  0  0  0  0  0  0
    4.2504   -2.5223    1.5145 H   0  0  0  0  0  0  0  0  0  0  0  0
    4.6740   -4.1674    0.9500 H   0  0  0  0  0  0  0  0  0  0  0  0
    3.3175   -3.9314    2.0806 H   0  0  0  0  0  0  0  0  0  0  0  0
    1.2318   -4.2370   -0.7272 H   0  0  0  0  0  0  0  0  0  0  0  0
    2.0639   -5.1963    0.5365 H   0  0  0  0  0  0  0  0  0  0  0  0
    2.0774   -4.5158   -3.2629 H   0  0  0  0  0  0  0  0  0  0  0  0
    5.3217   -7.4653   -2.0328 H   0  0  0  0  0  0  0  0  0  0  0  0
  1  2  1  0
  1 22  1  0
  1 23  1  0
  1 24  1  0
  2  3  2  0
  2 11  1  0
  3  4  1  0
  3 25  1  0
  4  5  2  0
  4 26  1  0
  5  6  1  0
  5 10  1  0
  6  7  3  0
  7  8  1  0
  8  9  1  0
  8 27  1  0
  8 28  1  0
  9 29  1  0
  9 30  1  0
 10 11  2  0
 10 31  1  0
 11 12  1  0
 12 13  2  0
 12 14  1  0
 14 15  1  0
 14 16  1  0
 15 32  1  0
 15 33  1  0
 15 34  1  0
 16 17  1  0
 16 35  1  0
 16 36  1  0
 17 18  2  0
 17 21  1  0
 18 19  1  0
 18 37  1  0
 19 20  1  0
 20 21  2  0
 20 38  1  0
M  END

