
     RDKit          3D

 32 32  0  0  0  0  0  0  0  0999 V2000
    4.6755    0.7371   -0.5284 C   0  0  0  0  0  0  0  0  0  0  0  0
    4.2175   -0.0815    0.6772 C   0  0  1  0  0  0  0  0  0  0  0  0
    5.2828   -0.4688    1.5227 O   0  0  0  0  0  0  0  0  0  0  0  0
    3.1239    0.6118    1.5143 C   0  0  1  0  0  0  0  0  0  0  0  0
    2.6555   -0.3294    2.5293 N   0  0  0  0  0  0  0  0  0  0  0  0
    1.4660   -0.1763    3.1480 C   0  0  0  0  0  0  0  0  0  0  0  0
    0.7504    0.8104    2.9264 O   0  0  0  0  0  0  0  0  0  0  0  0
    1.0021   -1.2349    4.1094 C   0  0  0  0  0  0  0  0  0  0  0  0
   -0.2630   -1.0457    4.6931 C   0  0  0  0  0  0  0  0  0  0  0  0
   -0.7906   -1.9685    5.5915 C   0  0  0  0  0  0  0  0  0  0  0  0
   -2.1534   -1.7638    6.2092 C   0  0  1  0  0  0  0  0  0  0  0  0
   -2.7235   -0.6183    5.8117 F   0  0  0  0  0  0  0  0  0  0  0  0
   -2.9891   -2.7685    5.8858 F   0  0  0  0  0  0  0  0  0  0  0  0
   -2.0792   -1.7386    7.5528 F   0  0  0  0  0  0  0  0  0  0  0  0
   -0.0544   -3.1129    5.9353 C   0  0  0  0  0  0  0  0  0  0  0  0
    1.2017   -3.3225    5.3755 C   0  0  0  0  0  0  0  0  0  0  0  0
    1.7101   -2.3882    4.4751 C   0  0  0  0  0  0  0  0  0  0  0  0
    2.9299   -2.6294    3.9616 F   0  0  0  0  0  0  0  0  0  0  0  0
    3.6238    1.9098    2.1963 C   0  0  0  0  0  0  0  0  0  0  0  0
    4.7933    2.2205    2.2370 O   0  0  0  0  0  0  0  0  0  0  0  0
    2.6750    2.6496    2.7538 O   0  0  0  0  0  0  0  0  0  0  0  0
    5.4331    0.1652   -1.0842 H   0  0  0  0  0  0  0  0  0  0  0  0
    5.1231    1.6916   -0.2162 H   0  0  0  0  0  0  0  0  0  0  0  0
    3.8350    0.9486   -1.2093 H   0  0  0  0  0  0  0  0  0  0  0  0
    3.7723   -1.0229    0.3107 H   0  0  0  0  0  0  0  0  0  0  0  0
    5.6534    0.3614    1.8721 H   0  0  0  0  0  0  0  0  0  0  0  0
    2.2632    0.8762    0.8773 H   0  0  0  0  0  0  0  0  0  0  0  0
    3.3116   -1.0558    2.8044 H   0  0  0  0  0  0  0  0  0  0  0  0
   -0.8152   -0.1481    4.4141 H   0  0  0  0  0  0  0  0  0  0  0  0
   -0.4625   -3.8385    6.6421 H   0  0  0  0  0  0  0  0  0  0  0  0
    1.8040   -4.1986    5.6211 H   0  0  0  0  0  0  0  0  0  0  0  0
    1.8078    2.1664    2.7303 H   0  0  0  0  0  0  0  0  0  0  0  0
  1  2  1  0
  1 22  1  0
  1 23  1  0
  1 24  1  0
  2  3  1  0
  2  4  1  0
  2 25  1  6
  3 26  1  0
  4  5  1  0
  4 19  1  0
  4 27  1  6
  5  6  1  0
  5 28  1  0
  6  7  2  0
  6  8  1  0
  8  9  2  0
  8 17  1  0
  9 10  1  0
  9 29  1  0
 10 11  1  0
 10 15  2  0
 11 12  1  6
 11 13  1  0
 11 14  1  0
 15 16  1  0
 15 30  1  0
 16 17  2  0
 16 31  1  0
 17 18  1  0
 19 20  2  0
 19 21  1  0
 21 32  1  0
M  END

