
     RDKit          3D

 31 32  0  0  0  0  0  0  0  0999 V2000
    0.8982   -0.1408    0.1861 C   0  0  0  0  0  0  0  0  0  0  0  0
    2.4266   -0.2184    0.0911 C   0  0  1  0  0  0  0  0  0  0  0  0
    2.8420   -1.3970   -0.8014 C   0  0  0  0  0  0  0  0  0  0  0  0
    4.2801   -1.5630   -0.9043 N   0  0  0  0  0  0  0  0  0  0  0  0
    4.9874   -0.5369   -1.6596 C   0  0  0  0  0  0  0  0  0  0  0  0
    5.4279    0.6341   -0.7762 C   0  0  0  0  0  0  0  0  0  0  0  0
    6.6037    0.8944   -0.6065 O   0  0  0  0  0  0  0  0  0  0  0  0
    4.4171    1.3576   -0.1671 N   0  0  0  0  0  0  0  0  0  0  0  0
    4.7927    2.3656    0.7726 C   0  0  0  0  0  0  0  0  0  0  0  0
    5.3008    1.9943    2.0266 C   0  0  0  0  0  0  0  0  0  0  0  0
    5.6632    2.9527    2.9720 C   0  0  0  0  0  0  0  0  0  0  0  0
    5.5161    4.3112    2.6772 C   0  0  0  0  0  0  0  0  0  0  0  0
    5.0194    4.7058    1.4338 C   0  0  0  0  0  0  0  0  0  0  0  0
    4.6706    3.7371    0.4876 C   0  0  0  0  0  0  0  0  0  0  0  0
    4.0442    4.3188   -1.2199 Br  0  0  0  0  0  0  0  0  0  0  0  0
    2.9867    1.1263   -0.4132 C   0  0  0  0  0  0  0  0  0  0  0  0
    0.4707   -1.0961    0.5302 H   0  0  0  0  0  0  0  0  0  0  0  0
    0.4466    0.0898   -0.7940 H   0  0  0  0  0  0  0  0  0  0  0  0
    0.5791    0.6424    0.8918 H   0  0  0  0  0  0  0  0  0  0  0  0
    2.8428   -0.3961    1.0980 H   0  0  0  0  0  0  0  0  0  0  0  0
    2.3595   -1.2555   -1.7993 H   0  0  0  0  0  0  0  0  0  0  0  0
    2.4221   -2.3246   -0.3788 H   0  0  0  0  0  0  0  0  0  0  0  0
    4.5030   -2.4808   -1.2785 H   0  0  0  0  0  0  0  0  0  0  0  0
    4.4031   -0.1560   -2.5281 H   0  0  0  0  0  0  0  0  0  0  0  0
    5.9245   -0.9527   -2.0506 H   0  0  0  0  0  0  0  0  0  0  0  0
    5.4131    0.9298    2.2412 H   0  0  0  0  0  0  0  0  0  0  0  0
    6.0589    2.6385    3.9406 H   0  0  0  0  0  0  0  0  0  0  0  0
    5.7932    5.0708    3.4122 H   0  0  0  0  0  0  0  0  0  0  0  0
    4.9106    5.7631    1.1873 H   0  0  0  0  0  0  0  0  0  0  0  0
    2.7647    1.2403   -1.4892 H   0  0  0  0  0  0  0  0  0  0  0  0
    2.4522    1.9428    0.0902 H   0  0  0  0  0  0  0  0  0  0  0  0
  1  2  1  0
  1 17  1  0
  1 18  1  0
  1 19  1  0
  2  3  1  0
  2 16  1  0
  2 20  1  1
  3  4  1  0
  3 21  1  0
  3 22  1  0
  4  5  1  0
  4 23  1  0
  5  6  1  0
  5 24  1  0
  5 25  1  0
  6  7  2  0
  6  8  1  0
  8  9  1  0
  8 16  1  0
  9 10  2  0
  9 14  1  0
 10 11  1  0
 10 26  1  0
 11 12  2  0
 11 27  1  0
 12 13  1  0
 12 28  1  0
 13 14  2  0
 13 29  1  0
 14 15  1  0
 16 30  1  0
 16 31  1  0
M  END

