
     RDKit          3D

 57 59  0  0  0  0  0  0  0  0999 V2000
    2.5743   -0.0837   -0.4606 C   0  0  0  0  0  0  0  0  0  0  0  0
    2.3506   -0.2583    1.0325 C   0  0  0  0  0  0  0  0  0  0  0  0
    2.8791    0.8480    1.7845 O   0  0  0  0  0  0  0  0  0  0  0  0
    4.1833    0.8035    2.1242 C   0  0  0  0  0  0  0  0  0  0  0  0
    4.9179   -0.1141    1.8330 O   0  0  0  0  0  0  0  0  0  0  0  0
    4.6111    2.0052    2.8987 C   0  0  0  0  0  0  0  0  0  0  0  0
    3.7308    3.0534    3.2159 C   0  0  0  0  0  0  0  0  0  0  0  0
    4.1792    4.1527    3.9407 C   0  0  0  0  0  0  0  0  0  0  0  0
    5.5241    4.2339    4.3695 C   0  0  0  0  0  0  0  0  0  0  0  0
    5.9845    5.3595    5.1112 C   0  0  0  0  0  0  0  0  0  0  0  0
    6.3891    6.3210    5.7483 C   0  0  0  0  0  0  0  0  0  0  0  0
    6.8228    7.4507    6.4839 C   0  0  0  0  0  0  0  0  0  0  0  0
    8.0886    7.6104    6.9514 C   0  0  0  0  0  0  0  0  0  0  0  0
    8.6294    8.7269    7.7334 C   0  0  0  0  0  0  0  0  0  0  0  0
    8.2803   10.0378    7.6051 C   0  0  0  0  0  0  0  0  0  0  0  0
    7.3549   10.5714    6.5430 C   0  0  0  0  0  0  0  0  0  0  0  0
    8.8464   11.1101    8.5127 C   0  0  0  0  0  0  0  0  0  0  0  0
    9.5808   10.5816    9.7432 C   0  0  0  0  0  0  0  0  0  0  0  0
   10.5015    9.4363    9.3340 C   0  0  0  0  0  0  0  0  0  0  0  0
    9.6957    8.2923    8.7261 C   0  0  1  0  0  0  0  0  0  0  0  0
    9.0083    7.5511    9.7756 O   0  0  0  0  0  0  0  0  0  0  0  0
    9.6782    6.5474   10.3774 C   0  0  0  0  0  0  0  0  0  0  0  0
   10.8174    6.2441   10.1004 O   0  0  0  0  0  0  0  0  0  0  0  0
    8.8581    5.8574   11.4195 C   0  0  0  0  0  0  0  0  0  0  0  0
    9.4592    4.8175   12.1466 C   0  0  0  0  0  0  0  0  0  0  0  0
    8.7365    4.1406   13.1289 C   0  0  0  0  0  0  0  0  0  0  0  0
    7.4085    4.4969   13.3900 C   0  0  0  0  0  0  0  0  0  0  0  0
    6.8048    5.5310   12.6665 C   0  0  0  0  0  0  0  0  0  0  0  0
    7.5252    6.2117   11.6831 C   0  0  0  0  0  0  0  0  0  0  0  0
    6.4027    3.1737    4.0455 C   0  0  0  0  0  0  0  0  0  0  0  0
    5.9490    2.0781    3.3208 C   0  0  0  0  0  0  0  0  0  0  0  0
    2.0894   -0.9065   -1.0103 H   0  0  0  0  0  0  0  0  0  0  0  0
    3.6480   -0.0998   -0.6987 H   0  0  0  0  0  0  0  0  0  0  0  0
    2.1458    0.8667   -0.8153 H   0  0  0  0  0  0  0  0  0  0  0  0
    2.8152   -1.1881    1.3925 H   0  0  0  0  0  0  0  0  0  0  0  0
    1.2782   -0.2741    1.2761 H   0  0  0  0  0  0  0  0  0  0  0  0
    2.6923    2.9969    2.8879 H   0  0  0  0  0  0  0  0  0  0  0  0
    3.4934    4.9660    4.1861 H   0  0  0  0  0  0  0  0  0  0  0  0
    6.0612    8.2075    6.6970 H   0  0  0  0  0  0  0  0  0  0  0  0
    8.7858    6.7818    6.7773 H   0  0  0  0  0  0  0  0  0  0  0  0
    7.2746    9.9075    5.6720 H   0  0  0  0  0  0  0  0  0  0  0  0
    7.7063   11.5591    6.1997 H   0  0  0  0  0  0  0  0  0  0  0  0
    6.3359   10.7287    6.9410 H   0  0  0  0  0  0  0  0  0  0  0  0
    8.0224   11.7845    8.8095 H   0  0  0  0  0  0  0  0  0  0  0  0
    9.5257   11.7447    7.9085 H   0  0  0  0  0  0  0  0  0  0  0  0
    8.8528   10.2112   10.4847 H   0  0  0  0  0  0  0  0  0  0  0  0
   10.1470   11.3925   10.2286 H   0  0  0  0  0  0  0  0  0  0  0  0
   11.0927    9.0503   10.1777 H   0  0  0  0  0  0  0  0  0  0  0  0
   11.2254    9.7863    8.5768 H   0  0  0  0  0  0  0  0  0  0  0  0
   10.3826    7.5829    8.2401 H   0  0  0  0  0  0  0  0  0  0  0  0
   10.4955    4.5569   11.9229 H   0  0  0  0  0  0  0  0  0  0  0  0
    9.2078    3.3320   13.6932 H   0  0  0  0  0  0  0  0  0  0  0  0
    6.8416    3.9658   14.1593 H   0  0  0  0  0  0  0  0  0  0  0  0
    5.7669    5.8068   12.8690 H   0  0  0  0  0  0  0  0  0  0  0  0
    7.0631    7.0171   11.1113 H   0  0  0  0  0  0  0  0  0  0  0  0
    7.4430    3.2264    4.3723 H   0  0  0  0  0  0  0  0  0  0  0  0
    6.6204    1.2557    3.0667 H   0  0  0  0  0  0  0  0  0  0  0  0
  1  2  1  0
  1 32  1  0
  1 33  1  0
  1 34  1  0
  2  3  1  0
  2 35  1  0
  2 36  1  0
  3  4  1  0
  4  5  2  0
  4  6  1  0
  6  7  2  0
  6 31  1  0
  7  8  1  0
  7 37  1  0
  8  9  2  0
  8 38  1  0
  9 10  1  0
  9 30  1  0
 10 11  3  0
 11 12  1  0
 12 13  2  0
 12 39  1  0
 13 14  1  0
 13 40  1  0
 14 15  2  0
 14 20  1  0
 15 16  1  0
 15 17  1  0
 16 41  1  0
 16 42  1  0
 16 43  1  0
 17 18  1  0
 17 44  1  0
 17 45  1  0
 18 19  1  0
 18 46  1  0
 18 47  1  0
 19 20  1  0
 19 48  1  0
 19 49  1  0
 20 21  1  0
 20 50  1  6
 21 22  1  0
 22 23  2  0
 22 24  1  0
 24 25  2  0
 24 29  1  0
 25 26  1  0
 25 51  1  0
 26 27  2  0
 26 52  1  0
 27 28  1  0
 27 53  1  0
 28 29  2  0
 28 54  1  0
 29 55  1  0
 30 31  2  0
 30 56  1  0
 31 57  1  0
M  END

