
     RDKit          3D

 48 48  0  0  0  0  0  0  0  0999 V2000
    5.4330   -1.4437    5.8008 C   0  0  0  0  0  0  0  0  0  0  0  0
    6.5082   -2.4078    6.3030 C   0  0  0  0  0  0  0  0  0  0  0  0
    7.4589   -2.9097    5.2072 C   0  0  0  0  0  0  0  0  0  0  0  0
    8.2187   -1.8547    4.5552 N   0  0  0  0  0  0  0  0  0  0  0  0
    9.4456   -1.4904    4.9935 C   0  0  0  0  0  0  0  0  0  0  0  0
   10.0708   -2.0095    5.8991 O   0  0  0  0  0  0  0  0  0  0  0  0
   10.0361   -0.3877    4.2995 N   0  0  0  0  0  0  0  0  0  0  0  0
    9.4778    0.4438    3.3685 C   0  0  0  0  0  0  0  0  0  0  0  0
    8.3684    0.2970    2.8772 O   0  0  0  0  0  0  0  0  0  0  0  0
   10.3635    1.6232    2.9460 C   0  0  0  0  0  0  0  0  0  0  0  0
   10.6292    2.5309    4.0271 O   0  0  0  0  0  0  0  0  0  0  0  0
   11.7069    2.2999    4.8089 C   0  0  0  0  0  0  0  0  0  0  0  0
   12.3900    1.3081    4.7125 O   0  0  0  0  0  0  0  0  0  0  0  0
   11.9008    3.4052    5.8383 C   0  0  1  0  0  0  0  0  0  0  0  0
   11.6807    4.7073    5.2400 N   0  0  0  0  0  0  0  0  0  0  0  0
   12.6757    5.6513    5.1546 C   0  0  0  0  0  0  0  0  0  0  0  0
   13.7996    5.4677    5.5949 O   0  0  0  0  0  0  0  0  0  0  0  0
   12.3117    6.9357    4.4953 C   0  0  0  0  0  0  0  0  0  0  0  0
   13.2081    7.9470    4.2258 C   0  0  0  0  0  0  0  0  0  0  0  0
   12.6100    9.0696    3.5884 C   0  0  0  0  0  0  0  0  0  0  0  0
   11.2612    8.9040    3.3821 C   0  0  0  0  0  0  0  0  0  0  0  0
   10.7062    7.3775    3.9667 S   0  0  0  0  0  0  0  0  0  0  0  0
   11.0128    3.1569    7.0974 C   0  0  1  0  0  0  0  0  0  0  0  0
   11.2673    1.7768    7.7184 C   0  0  0  0  0  0  0  0  0  0  0  0
   11.2326    4.2716    8.1264 C   0  0  0  0  0  0  0  0  0  0  0  0
    4.7824   -1.1047    6.6223 H   0  0  0  0  0  0  0  0  0  0  0  0
    4.7883   -1.9191    5.0417 H   0  0  0  0  0  0  0  0  0  0  0  0
    5.8801   -0.5464    5.3424 H   0  0  0  0  0  0  0  0  0  0  0  0
    6.0338   -3.2898    6.7683 H   0  0  0  0  0  0  0  0  0  0  0  0
    7.1105   -1.9290    7.0940 H   0  0  0  0  0  0  0  0  0  0  0  0
    6.8881   -3.4449    4.4290 H   0  0  0  0  0  0  0  0  0  0  0  0
    8.1802   -3.6186    5.6383 H   0  0  0  0  0  0  0  0  0  0  0  0
    7.8138   -1.2953    3.8045 H   0  0  0  0  0  0  0  0  0  0  0  0
   10.9919   -0.1910    4.6013 H   0  0  0  0  0  0  0  0  0  0  0  0
    9.8060    2.1941    2.1956 H   0  0  0  0  0  0  0  0  0  0  0  0
   11.3150    1.2582    2.5285 H   0  0  0  0  0  0  0  0  0  0  0  0
   12.9588    3.3715    6.1344 H   0  0  0  0  0  0  0  0  0  0  0  0
   10.7920    4.8615    4.7772 H   0  0  0  0  0  0  0  0  0  0  0  0
   14.2620    7.8561    4.4898 H   0  0  0  0  0  0  0  0  0  0  0  0
   13.1536    9.9685    3.2941 H   0  0  0  0  0  0  0  0  0  0  0  0
   10.5577    9.5986    2.9245 H   0  0  0  0  0  0  0  0  0  0  0  0
    9.9596    3.1977    6.7605 H   0  0  0  0  0  0  0  0  0  0  0  0
   12.3260    1.6618    8.0039 H   0  0  0  0  0  0  0  0  0  0  0  0
   11.0130    0.9428    7.0480 H   0  0  0  0  0  0  0  0  0  0  0  0
   10.6610    1.6568    8.6295 H   0  0  0  0  0  0  0  0  0  0  0  0
   12.2766    4.2816    8.4799 H   0  0  0  0  0  0  0  0  0  0  0  0
   10.5800    4.1178    9.0000 H   0  0  0  0  0  0  0  0  0  0  0  0
   11.0095    5.2639    7.7085 H   0  0  0  0  0  0  0  0  0  0  0  0
  1  2  1  0
  1 26  1  0
  1 27  1  0
  1 28  1  0
  2  3  1  0
  2 29  1  0
  2 30  1  0
  3  4  1  0
  3 31  1  0
  3 32  1  0
  4  5  1  0
  4 33  1  0
  5  6  2  0
  5  7  1  0
  7  8  1  0
  7 34  1  0
  8  9  2  0
  8 10  1  0
 10 11  1  0
 10 35  1  0
 10 36  1  0
 11 12  1  0
 12 13  2  0
 12 14  1  0
 14 15  1  0
 14 23  1  0
 14 37  1  1
 15 16  1  0
 15 38  1  0
 16 17  2  0
 16 18  1  0
 18 19  2  0
 18 22  1  0
 19 20  1  0
 19 39  1  0
 20 21  2  0
 20 40  1  0
 21 22  1  0
 21 41  1  0
 23 24  1  0
 23 25  1  0
 23 42  1  6
 24 43  1  0
 24 44  1  0
 24 45  1  0
 25 46  1  0
 25 47  1  0
 25 48  1  0
M  END

