
     RDKit          3D

 38 39  0  0  0  0  0  0  0  0999 V2000
    0.7566    0.2473    1.2103 N   0  0  0  0  0  0  0  0  0  0  0  0
    2.0405    0.1949    1.9025 C   0  0  0  0  0  0  0  0  0  0  0  0
    2.7625    1.4688    1.8023 C   0  0  0  0  0  0  0  0  0  0  0  0
    3.3689    2.5168    1.6734 C   0  0  0  0  0  0  0  0  0  0  0  0
    3.9834    3.8033    1.5390 C   0  0  0  0  0  0  0  0  0  0  0  0
    3.1239    4.9311    1.5619 C   0  0  0  0  0  0  0  0  0  0  0  0
    3.5291    6.1868    1.4321 N   0  0  0  0  0  0  0  0  0  0  0  0
    4.8381    6.4028    1.2623 C   0  0  0  0  0  0  0  0  0  0  0  0
    5.7782    5.3756    1.2175 C   0  0  0  0  0  0  0  0  0  0  0  0
    5.3701    4.0438    1.3628 C   0  0  0  0  0  0  0  0  0  0  0  0
    6.4846    3.0139    1.2965 C   0  0  0  0  0  0  0  0  0  0  0  0
    7.6016    3.3413    0.9171 O   0  0  0  0  0  0  0  0  0  0  0  0
    6.2018    1.7480    1.7050 N   0  0  0  0  0  0  0  0  0  0  0  0
    7.2093    0.7049    1.6593 C   0  0  0  0  0  0  0  0  0  0  0  0
    7.3113    0.0149    0.2922 C   0  0  0  0  0  0  0  0  0  0  0  0
    8.4177   -1.0444    0.2610 C   0  0  0  0  0  0  0  0  0  0  0  0
    8.5150   -1.7416   -1.0113 N   0  0  0  0  0  0  0  0  0  0  0  0
    9.0451   -1.2518   -2.1879 C   0  0  0  0  0  0  0  0  0  0  0  0
    8.8588   -2.2486   -3.1214 C   0  0  0  0  0  0  0  0  0  0  0  0
    8.2300   -3.3270   -2.5528 N   0  0  0  0  0  0  0  0  0  0  0  0
    8.0368   -2.9930   -1.2977 C   0  0  0  0  0  0  0  0  0  0  0  0
    0.2513   -0.6270    1.3522 H   0  0  0  0  0  0  0  0  0  0  0  0
    0.8994    0.3478    0.2051 H   0  0  0  0  0  0  0  0  0  0  0  0
    2.7264   -0.6131    1.5606 H   0  0  0  0  0  0  0  0  0  0  0  0
    1.8484   -0.0123    2.9709 H   0  0  0  0  0  0  0  0  0  0  0  0
    2.0490    4.7634    1.6924 H   0  0  0  0  0  0  0  0  0  0  0  0
    5.1547    7.4466    1.1554 H   0  0  0  0  0  0  0  0  0  0  0  0
    6.8394    5.5775    1.0664 H   0  0  0  0  0  0  0  0  0  0  0  0
    5.2477    1.5088    1.9549 H   0  0  0  0  0  0  0  0  0  0  0  0
    6.9775   -0.0326    2.4460 H   0  0  0  0  0  0  0  0  0  0  0  0
    8.1771    1.1667    1.9094 H   0  0  0  0  0  0  0  0  0  0  0  0
    7.5126    0.7802   -0.4739 H   0  0  0  0  0  0  0  0  0  0  0  0
    6.3477   -0.4567    0.0341 H   0  0  0  0  0  0  0  0  0  0  0  0
    8.2438   -1.8051    1.0394 H   0  0  0  0  0  0  0  0  0  0  0  0
    9.3930   -0.5810    0.4852 H   0  0  0  0  0  0  0  0  0  0  0  0
    9.5008   -0.2661   -2.2496 H   0  0  0  0  0  0  0  0  0  0  0  0
    9.1525   -2.2416   -4.1708 H   0  0  0  0  0  0  0  0  0  0  0  0
    7.5643   -3.6122   -0.5333 H   0  0  0  0  0  0  0  0  0  0  0  0
  1  2  1  0
  1 22  1  0
  1 23  1  0
  2  3  1  0
  2 24  1  0
  2 25  1  0
  3  4  3  0
  4  5  1  0
  5  6  2  0
  5 10  1  0
  6  7  1  0
  6 26  1  0
  7  8  2  0
  8  9  1  0
  8 27  1  0
  9 10  2  0
  9 28  1  0
 10 11  1  0
 11 12  2  0
 11 13  1  0
 13 14  1  0
 13 29  1  0
 14 15  1  0
 14 30  1  0
 14 31  1  0
 15 16  1  0
 15 32  1  0
 15 33  1  0
 16 17  1  0
 16 34  1  0
 16 35  1  0
 17 18  1  0
 17 21  1  0
 18 19  2  0
 18 36  1  0
 19 20  1  0
 19 37  1  0
 20 21  2  0
 21 38  1  0
M  END

