
     RDKit          3D

 50 50  0  0  0  0  0  0  0  0999 V2000
    1.2358   -2.4556    0.0113 C   0  0  0  0  0  0  0  0  0  0  0  0
    1.5710   -0.9743    0.2541 C   0  0  0  0  0  0  0  0  0  0  0  0
    2.5078   -0.3578   -0.6714 N   0  0  0  0  0  0  0  0  0  0  0  0
    2.0426   -0.2146   -2.0396 C   0  0  0  0  0  0  0  0  0  0  0  0
    2.7986    0.8424   -2.8653 C   0  0  0  0  0  0  0  0  0  0  0  0
    2.8899    2.1376   -2.2179 N   0  0  0  0  0  0  0  0  0  0  0  0
    1.7775    2.9544   -2.3616 N   0  0  0  0  0  0  0  0  0  0  0  0
    0.9476    3.1490   -1.1758 C   0  0  0  0  0  0  0  0  0  0  0  0
    1.5640    3.5919   -3.5705 C   0  0  0  0  0  0  0  0  0  0  0  0
    0.3434    4.4977   -3.6474 C   0  0  0  0  0  0  0  0  0  0  0  0
    2.3090    3.4293   -4.5218 O   0  0  0  0  0  0  0  0  0  0  0  0
    4.1809    2.7992   -2.1088 C   0  0  0  0  0  0  0  0  0  0  0  0
    5.1873    2.0089   -1.2550 C   0  0  0  0  0  0  0  0  0  0  0  0
    4.6821    1.6430    0.0645 N   0  0  0  0  0  0  0  0  0  0  0  0
    5.0170    2.5274    1.0914 N   0  0  0  0  0  0  0  0  0  0  0  0
    3.8882    3.2295    1.6786 C   0  0  0  0  0  0  0  0  0  0  0  0
    6.3310    2.5999    1.5178 C   0  0  0  0  0  0  0  0  0  0  0  0
    6.6541    3.5668    2.6503 C   0  0  0  0  0  0  0  0  0  0  0  0
    7.2032    1.9259    0.9945 O   0  0  0  0  0  0  0  0  0  0  0  0
    4.6884    0.2382    0.4651 C   0  0  0  0  0  0  0  0  0  0  0  0
    3.9065   -0.7002   -0.4709 C   0  0  0  0  0  0  0  0  0  0  0  0
    0.5444   -2.8271    0.7854 H   0  0  0  0  0  0  0  0  0  0  0  0
    2.1369   -3.0898    0.0408 H   0  0  0  0  0  0  0  0  0  0  0  0
    0.7517   -2.6070   -0.9669 H   0  0  0  0  0  0  0  0  0  0  0  0
    1.9741   -0.8592    1.2757 H   0  0  0  0  0  0  0  0  0  0  0  0
    0.6328   -0.3895    0.2376 H   0  0  0  0  0  0  0  0  0  0  0  0
    0.9778    0.0748   -1.9939 H   0  0  0  0  0  0  0  0  0  0  0  0
    2.0707   -1.1643   -2.6250 H   0  0  0  0  0  0  0  0  0  0  0  0
    2.3234    0.9208   -3.8604 H   0  0  0  0  0  0  0  0  0  0  0  0
    3.8224    0.4941   -3.0664 H   0  0  0  0  0  0  0  0  0  0  0  0
    1.0807    4.1485   -0.7212 H   0  0  0  0  0  0  0  0  0  0  0  0
    1.2574    2.3910   -0.4468 H   0  0  0  0  0  0  0  0  0  0  0  0
   -0.1243    3.0170   -1.3943 H   0  0  0  0  0  0  0  0  0  0  0  0
   -0.5894    3.9264   -3.5135 H   0  0  0  0  0  0  0  0  0  0  0  0
    0.3369    4.9665   -4.6389 H   0  0  0  0  0  0  0  0  0  0  0  0
    0.3634    5.2810   -2.8732 H   0  0  0  0  0  0  0  0  0  0  0  0
    3.9989    3.7745   -1.6298 H   0  0  0  0  0  0  0  0  0  0  0  0
    4.6403    3.0130   -3.0964 H   0  0  0  0  0  0  0  0  0  0  0  0
    6.1206    2.5902   -1.1733 H   0  0  0  0  0  0  0  0  0  0  0  0
    5.4812    1.0888   -1.7824 H   0  0  0  0  0  0  0  0  0  0  0  0
    3.1443    2.5106    2.0632 H   0  0  0  0  0  0  0  0  0  0  0  0
    3.3861    3.8601    0.9271 H   0  0  0  0  0  0  0  0  0  0  0  0
    4.2084    3.8688    2.5096 H   0  0  0  0  0  0  0  0  0  0  0  0
    6.3704    4.6020    2.4037 H   0  0  0  0  0  0  0  0  0  0  0  0
    7.7375    3.5213    2.8148 H   0  0  0  0  0  0  0  0  0  0  0  0
    6.1399    3.2889    3.5841 H   0  0  0  0  0  0  0  0  0  0  0  0
    4.2295    0.1962    1.4673 H   0  0  0  0  0  0  0  0  0  0  0  0
    5.7184   -0.1604    0.5676 H   0  0  0  0  0  0  0  0  0  0  0  0
    4.0240   -1.7214   -0.0539 H   0  0  0  0  0  0  0  0  0  0  0  0
    4.4159   -0.7459   -1.4452 H   0  0  0  0  0  0  0  0  0  0  0  0
  1  2  1  0
  1 22  1  0
  1 23  1  0
  1 24  1  0
  2  3  1  0
  2 25  1  0
  2 26  1  0
  3  4  1  0
  3 21  1  0
  4  5  1  0
  4 27  1  0
  4 28  1  0
  5  6  1  0
  5 29  1  0
  5 30  1  0
  6  7  1  0
  6 12  1  0
  7  8  1  0
  7  9  1  0
  8 31  1  0
  8 32  1  0
  8 33  1  0
  9 10  1  0
  9 11  2  0
 10 34  1  0
 10 35  1  0
 10 36  1  0
 12 13  1  0
 12 37  1  0
 12 38  1  0
 13 14  1  0
 13 39  1  0
 13 40  1  0
 14 15  1  0
 14 20  1  0
 15 16  1  0
 15 17  1  0
 16 41  1  0
 16 42  1  0
 16 43  1  0
 17 18  1  0
 17 19  2  0
 18 44  1  0
 18 45  1  0
 18 46  1  0
 20 21  1  0
 20 47  1  0
 20 48  1  0
 21 49  1  0
 21 50  1  0
M  END

