
     RDKit          3D

 25 27  0  0  0  0  0  0  0  0999 V2000
    0.9879   -0.1056   -0.0665 C   0  0  0  0  0  0  0  0  0  0  0  0
    2.4844   -0.1197   -0.0570 C   0  0  0  0  0  0  0  0  0  0  0  0
    3.1470   -1.2303   -0.0535 N   0  0  0  0  0  0  0  0  0  0  0  0
    4.5258   -1.2100   -0.0451 C   0  0  0  0  0  0  0  0  0  0  0  0
    5.2165    0.0020   -0.0409 C   0  0  0  0  0  0  0  0  0  0  0  0
    6.6298    0.0633   -0.0329 C   0  0  0  0  0  0  0  0  0  0  0  0
    7.3480   -1.1095   -0.0290 C   0  0  0  0  0  0  0  0  0  0  0  0
    6.7010   -2.3828   -0.0328 C   0  0  0  0  0  0  0  0  0  0  0  0
    7.4383   -3.5985   -0.0288 C   0  0  0  0  0  0  0  0  0  0  0  0
    6.7905   -4.8167   -0.0326 C   0  0  0  0  0  0  0  0  0  0  0  0
    5.3749   -4.8687   -0.0407 C   0  0  0  0  0  0  0  0  0  0  0  0
    4.6284   -3.7066   -0.0448 C   0  0  0  0  0  0  0  0  0  0  0  0
    5.2708   -2.4422   -0.0410 C   0  0  0  0  0  0  0  0  0  0  0  0
    4.5306    1.1732   -0.0445 O   0  0  0  0  0  0  0  0  0  0  0  0
    3.1522    1.2123   -0.0509 C   0  0  0  0  0  0  0  0  0  0  0  0
    2.5910    2.2745   -0.0574 O   0  0  0  0  0  0  0  0  0  0  0  0
    0.6056   -1.1338   -0.0701 H   0  0  0  0  0  0  0  0  0  0  0  0
    0.6110    0.4389   -0.9483 H   0  0  0  0  0  0  0  0  0  0  0  0
    0.5998    0.4368    0.8118 H   0  0  0  0  0  0  0  0  0  0  0  0
    7.1096    1.0435   -0.0301 H   0  0  0  0  0  0  0  0  0  0  0  0
    8.4407   -1.0790   -0.0228 H   0  0  0  0  0  0  0  0  0  0  0  0
    8.5306   -3.5496   -0.0226 H   0  0  0  0  0  0  0  0  0  0  0  0
    7.3663   -5.7455   -0.0295 H   0  0  0  0  0  0  0  0  0  0  0  0
    4.8725   -5.8394   -0.0437 H   0  0  0  0  0  0  0  0  0  0  0  0
    3.5380   -3.7291   -0.0511 H   0  0  0  0  0  0  0  0  0  0  0  0
  1  2  1  0
  1 17  1  0
  1 18  1  0
  1 19  1  0
  2  3  2  0
  2 15  1  0
  3  4  1  0
  4  5  2  0
  4 13  1  0
  5  6  1  0
  5 14  1  0
  6  7  2  0
  6 20  1  0
  7  8  1  0
  7 21  1  0
  8  9  1  0
  8 13  2  0
  9 10  2  0
  9 22  1  0
 10 11  1  0
 10 23  1  0
 11 12  2  0
 11 24  1  0
 12 13  1  0
 12 25  1  0
 14 15  1  0
 15 16  2  0
M  END

