
     RDKit          3D

 39 41  0  0  0  0  0  0  0  0999 V2000
    2.2997    0.0062   -2.1704 O   0  0  0  0  0  0  0  0  0  0  0  0
    2.0580    0.5860   -1.1072 C   0  0  0  0  0  0  0  0  0  0  0  0
    0.6874    0.7538   -0.5740 C   0  0  0  0  0  0  0  0  0  0  0  0
   -0.3717    0.2930   -1.2746 C   0  0  0  0  0  0  0  0  0  0  0  0
   -1.7511    0.3793   -0.8848 C   0  0  0  0  0  0  0  0  0  0  0  0
   -2.9078   -0.0446   -1.5065 C   0  0  0  0  0  0  0  0  0  0  0  0
   -3.9893    0.3143   -0.6482 C   0  0  0  0  0  0  0  0  0  0  0  0
   -3.4182    0.9294    0.4337 C   0  0  0  0  0  0  0  0  0  0  0  0
   -2.0743    0.9746    0.3033 O   0  0  0  0  0  0  0  0  0  0  0  0
    3.0579    1.1092   -0.3391 N   0  0  0  0  0  0  0  0  0  0  0  0
    4.4547    0.9604   -0.6990 C   0  0  0  0  0  0  0  0  0  0  0  0
    4.9776    1.9930   -1.7407 C   0  0  2  0  0  0  0  0  0  0  0  0
    4.1795    1.9369   -2.9049 O   0  0  0  0  0  0  0  0  0  0  0  0
    6.4416    1.6676   -2.0971 C   0  0  0  0  0  0  0  0  0  0  0  0
    7.4008    2.0032   -0.9655 C   0  0  0  0  0  0  0  0  0  0  0  0
    7.3014    3.3559   -0.5350 O   0  0  0  0  0  0  0  0  0  0  0  0
    6.0914    3.9788   -0.5832 C   0  0  0  0  0  0  0  0  0  0  0  0
    6.0425    5.2727   -0.0392 C   0  0  0  0  0  0  0  0  0  0  0  0
    4.8607    6.0082   -0.0842 C   0  0  0  0  0  0  0  0  0  0  0  0
    3.7179    5.4672   -0.6863 C   0  0  0  0  0  0  0  0  0  0  0  0
    3.7727    4.1826   -1.2286 C   0  0  0  0  0  0  0  0  0  0  0  0
    4.9417    3.4092   -1.1690 C   0  0  0  0  0  0  0  0  0  0  0  0
    0.5456    1.2514    0.3894 H   0  0  0  0  0  0  0  0  0  0  0  0
   -0.1691   -0.1962   -2.2323 H   0  0  0  0  0  0  0  0  0  0  0  0
   -2.9627   -0.5523   -2.4674 H   0  0  0  0  0  0  0  0  0  0  0  0
   -5.0510    0.1406   -0.8093 H   0  0  0  0  0  0  0  0  0  0  0  0
   -3.8278    1.3699    1.3396 H   0  0  0  0  0  0  0  0  0  0  0  0
    2.8174    1.6816    0.4606 H   0  0  0  0  0  0  0  0  0  0  0  0
    4.5798   -0.0472   -1.1288 H   0  0  0  0  0  0  0  0  0  0  0  0
    5.0522    1.0135    0.2217 H   0  0  0  0  0  0  0  0  0  0  0  0
    3.6324    1.1277   -2.8885 H   0  0  0  0  0  0  0  0  0  0  0  0
    6.6917    2.2561   -2.9940 H   0  0  0  0  0  0  0  0  0  0  0  0
    6.5426    0.6034   -2.3679 H   0  0  0  0  0  0  0  0  0  0  0  0
    8.4459    1.8643   -1.2810 H   0  0  0  0  0  0  0  0  0  0  0  0
    7.2373    1.3396   -0.0943 H   0  0  0  0  0  0  0  0  0  0  0  0
    6.9542    5.6796    0.4033 H   0  0  0  0  0  0  0  0  0  0  0  0
    4.8357    7.0148    0.3418 H   0  0  0  0  0  0  0  0  0  0  0  0
    2.7954    6.0498   -0.7458 H   0  0  0  0  0  0  0  0  0  0  0  0
    2.9077    3.7589   -1.7413 H   0  0  0  0  0  0  0  0  0  0  0  0
  1  2  2  0
  2  3  1  0
  2 10  1  0
  3  4  2  0
  3 23  1  0
  4  5  1  0
  4 24  1  0
  5  6  2  0
  5  9  1  0
  6  7  1  0
  6 25  1  0
  7  8  2  0
  7 26  1  0
  8  9  1  0
  8 27  1  0
 10 11  1  0
 10 28  1  0
 11 12  1  0
 11 29  1  0
 11 30  1  0
 12 13  1  6
 12 14  1  0
 12 22  1  0
 13 31  1  0
 14 15  1  0
 14 32  1  0
 14 33  1  0
 15 16  1  0
 15 34  1  0
 15 35  1  0
 16 17  1  0
 17 18  2  0
 17 22  1  0
 18 19  1  0
 18 36  1  0
 19 20  2  0
 19 37  1  0
 20 21  1  0
 20 38  1  0
 21 22  2  0
 21 39  1  0
M  END

