
     RDKit          3D

 29 30  0  0  0  0  0  0  0  0999 V2000
    0.7815   -1.5173    1.6461 C   0  0  0  0  0  0  0  0  0  0  0  0
    2.1984   -1.1883    2.0797 C   0  0  0  0  0  0  0  0  0  0  0  0
    3.0017   -1.0564    0.9116 O   0  0  0  0  0  0  0  0  0  0  0  0
    4.4232   -1.0045    1.0681 C   0  0  1  0  0  0  0  0  0  0  0  0
    4.9087   -2.4068    1.3762 C   0  0  0  0  0  0  0  0  0  0  0  0
    5.9504   -2.7599    2.0770 N   0  0  0  0  0  0  0  0  0  0  0  0
    5.9937   -4.1362    2.0686 C   0  0  0  0  0  0  0  0  0  0  0  0
    7.0413   -5.1799    2.7582 S   0  0  0  0  0  0  0  0  0  0  0  0
    4.9046   -4.6072    1.3112 O   0  0  0  0  0  0  0  0  0  0  0  0
    4.2849   -3.4735    0.8244 N   0  0  0  0  0  0  0  0  0  0  0  0
    3.3032   -3.5719    0.5835 H   0  0  0  0  0  0  0  0  0  0  0  0
    4.9713   -0.5693   -0.3106 C   0  0  0  0  0  0  0  0  0  0  0  0
    4.6454    0.9004   -0.5817 C   0  0  0  0  0  0  0  0  0  0  0  0
    5.1479    1.7404    0.4359 O   0  0  0  0  0  0  0  0  0  0  0  0
    4.6026    1.4390    1.7028 C   0  0  0  0  0  0  0  0  0  0  0  0
    4.9084    0.0009    2.1278 C   0  0  0  0  0  0  0  0  0  0  0  0
    0.1196   -1.5883    2.5229 H   0  0  0  0  0  0  0  0  0  0  0  0
    0.7403   -2.4764    1.1057 H   0  0  0  0  0  0  0  0  0  0  0  0
    0.3912   -0.7347    0.9777 H   0  0  0  0  0  0  0  0  0  0  0  0
    2.5962   -1.9824    2.7425 H   0  0  0  0  0  0  0  0  0  0  0  0
    2.2064   -0.2503    2.6634 H   0  0  0  0  0  0  0  0  0  0  0  0
    4.5331   -1.2126   -1.0898 H   0  0  0  0  0  0  0  0  0  0  0  0
    6.0626   -0.7156   -0.3180 H   0  0  0  0  0  0  0  0  0  0  0  0
    3.5489    1.0227   -0.6808 H   0  0  0  0  0  0  0  0  0  0  0  0
    5.1122    1.2265   -1.5234 H   0  0  0  0  0  0  0  0  0  0  0  0
    3.5067    1.6136    1.6982 H   0  0  0  0  0  0  0  0  0  0  0  0
    5.0490    2.1474    2.4166 H   0  0  0  0  0  0  0  0  0  0  0  0
    4.4708   -0.2175    3.1138 H   0  0  0  0  0  0  0  0  0  0  0  0
    5.9945   -0.1331    2.2368 H   0  0  0  0  0  0  0  0  0  0  0  0
  1  2  1  0
  1 17  1  0
  1 18  1  0
  1 19  1  0
  2  3  1  0
  2 20  1  0
  2 21  1  0
  4  3  1  6
  4  5  1  0
  4 12  1  0
  4 16  1  0
  5  6  2  0
  5 10  1  0
  6  7  1  0
  7  8  2  0
  7  9  1  0
  9 10  1  0
 10 11  1  0
 12 13  1  0
 12 22  1  0
 12 23  1  0
 13 14  1  0
 13 24  1  0
 13 25  1  0
 14 15  1  0
 15 16  1  0
 15 26  1  0
 15 27  1  0
 16 28  1  0
 16 29  1  0
M  END

