
     RDKit          3D

 67 74  0  0  0  0  0  0  0  0999 V2000
   -1.2710   -0.1634    0.3780 C   0  0  0  0  0  0  0  0  0  0  0  0
   -0.6815    1.0977    0.2382 C   0  0  0  0  0  0  0  0  0  0  0  0
    0.6921    1.2089    0.0220 C   0  0  0  0  0  0  0  0  0  0  0  0
    1.4949    0.0573   -0.0570 C   0  0  0  0  0  0  0  0  0  0  0  0
    2.9586    0.1744   -0.2871 C   0  0  0  0  0  0  0  0  0  0  0  0
    3.4811    1.4010   -0.4214 N   0  0  0  0  0  0  0  0  0  0  0  0
    4.8027    1.4652   -0.6239 C   0  0  0  0  0  0  0  0  0  0  0  0
    5.4246    2.8077   -0.7736 C   0  0  0  0  0  0  0  0  0  0  0  0
    4.6324    3.9676   -0.7316 C   0  0  0  0  0  0  0  0  0  0  0  0
    5.2288    5.2187   -0.8830 C   0  0  0  0  0  0  0  0  0  0  0  0
    6.6083    5.3270   -1.0740 C   0  0  0  0  0  0  0  0  0  0  0  0
    7.4247    4.1801   -1.1157 C   0  0  0  0  0  0  0  0  0  0  0  0
    8.8957    4.2918   -1.3084 C   0  0  0  0  0  0  0  0  0  0  0  0
    9.4401    5.2892   -2.1739 C   0  0  0  0  0  0  0  0  0  0  0  0
   10.7986    5.4073   -2.3633 C   0  0  0  0  0  0  0  0  0  0  0  0
   11.7121    4.5417   -1.6996 C   0  0  0  0  0  0  0  0  0  0  0  0
   13.1213    4.6363   -1.8691 C   0  0  0  0  0  0  0  0  0  0  0  0
   13.9718    3.7784   -1.2029 C   0  0  0  0  0  0  0  0  0  0  0  0
   13.4495    2.7853   -0.3348 C   0  0  0  0  0  0  0  0  0  0  0  0
   12.0879    2.6675   -0.1505 C   0  0  0  0  0  0  0  0  0  0  0  0
   11.1820    3.5350   -0.8254 C   0  0  0  0  0  0  0  0  0  0  0  0
    9.7745    3.4390   -0.6553 C   0  0  0  0  0  0  0  0  0  0  0  0
    6.8094    2.9266   -0.9664 C   0  0  0  0  0  0  0  0  0  0  0  0
    5.5958    0.3883   -0.6980 N   0  0  0  0  0  0  0  0  0  0  0  0
    4.9969   -0.8014   -0.5575 C   0  0  0  0  0  0  0  0  0  0  0  0
    5.8381   -2.0214   -0.6385 C   0  0  0  0  0  0  0  0  0  0  0  0
    7.2301   -1.9232   -0.8826 C   0  0  0  0  0  0  0  0  0  0  0  0
    8.0139   -3.0583   -0.9606 C   0  0  0  0  0  0  0  0  0  0  0  0
    7.4649   -4.3559   -0.8000 C   0  0  0  0  0  0  0  0  0  0  0  0
    6.0605   -4.4562   -0.5528 C   0  0  0  0  0  0  0  0  0  0  0  0
    5.4578   -5.7508   -0.3824 C   0  0  0  0  0  0  0  0  0  0  0  0
    6.2029   -6.8889   -0.4526 C   0  0  0  0  0  0  0  0  0  0  0  0
    7.6183   -6.8384   -0.6999 C   0  0  0  0  0  0  0  0  0  0  0  0
    8.3847   -8.0278   -0.7718 C   0  0  0  0  0  0  0  0  0  0  0  0
    9.7469   -7.9867   -1.0100 C   0  0  0  0  0  0  0  0  0  0  0  0
   10.3867   -6.7430   -1.1846 C   0  0  0  0  0  0  0  0  0  0  0  0
    9.6585   -5.5665   -1.1184 C   0  0  0  0  0  0  0  0  0  0  0  0
    8.2621   -5.5737   -0.8759 C   0  0  0  0  0  0  0  0  0  0  0  0
    5.2764   -3.2837   -0.4783 C   0  0  0  0  0  0  0  0  0  0  0  0
    3.6817   -0.9503   -0.3489 N   0  0  0  0  0  0  0  0  0  0  0  0
    0.8947   -1.2063    0.0846 C   0  0  0  0  0  0  0  0  0  0  0  0
   -0.4792   -1.3144    0.3005 C   0  0  0  0  0  0  0  0  0  0  0  0
   -2.3476   -0.2494    0.5473 H   0  0  0  0  0  0  0  0  0  0  0  0
   -1.2968    1.9991    0.2982 H   0  0  0  0  0  0  0  0  0  0  0  0
    1.1638    2.1856   -0.0883 H   0  0  0  0  0  0  0  0  0  0  0  0
    3.5572    3.8694   -0.5823 H   0  0  0  0  0  0  0  0  0  0  0  0
    4.6153    6.1223   -0.8448 H   0  0  0  0  0  0  0  0  0  0  0  0
    7.0614    6.3166   -1.1678 H   0  0  0  0  0  0  0  0  0  0  0  0
    8.7620    5.9528   -2.7149 H   0  0  0  0  0  0  0  0  0  0  0  0
   11.1923    6.1706   -3.0401 H   0  0  0  0  0  0  0  0  0  0  0  0
   13.5211    5.4036   -2.5379 H   0  0  0  0  0  0  0  0  0  0  0  0
   15.0529    3.8615   -1.3406 H   0  0  0  0  0  0  0  0  0  0  0  0
   14.1331    2.1122    0.1889 H   0  0  0  0  0  0  0  0  0  0  0  0
   11.6845    1.9026    0.5189 H   0  0  0  0  0  0  0  0  0  0  0  0
    9.3878    2.6828    0.0324 H   0  0  0  0  0  0  0  0  0  0  0  0
    7.4016    2.0134   -1.0196 H   0  0  0  0  0  0  0  0  0  0  0  0
    7.6712   -0.9347   -1.0102 H   0  0  0  0  0  0  0  0  0  0  0  0
    9.0809   -2.9399   -1.1519 H   0  0  0  0  0  0  0  0  0  0  0  0
    4.3822   -5.8010   -0.1943 H   0  0  0  0  0  0  0  0  0  0  0  0
    5.7338   -7.8677   -0.3215 H   0  0  0  0  0  0  0  0  0  0  0  0
    7.8774   -8.9867   -0.6351 H   0  0  0  0  0  0  0  0  0  0  0  0
   10.3252   -8.9125   -1.0630 H   0  0  0  0  0  0  0  0  0  0  0  0
   11.4625   -6.7048   -1.3734 H   0  0  0  0  0  0  0  0  0  0  0  0
   10.1805   -4.6192   -1.2578 H   0  0  0  0  0  0  0  0  0  0  0  0
    4.2049   -3.3650   -0.2906 H   0  0  0  0  0  0  0  0  0  0  0  0
    1.5227   -2.0953    0.0218 H   0  0  0  0  0  0  0  0  0  0  0  0
   -0.9362   -2.3013    0.4091 H   0  0  0  0  0  0  0  0  0  0  0  0
  1  2  2  0
  1 42  1  0
  1 43  1  0
  2  3  1  0
  2 44  1  0
  3  4  2  0
  3 45  1  0
  4  5  1  0
  4 41  1  0
  5  6  2  0
  5 40  1  0
  6  7  1  0
  7  8  1  0
  7 24  2  0
  8  9  2  0
  8 23  1  0
  9 10  1  0
  9 46  1  0
 10 11  2  0
 10 47  1  0
 11 12  1  0
 11 48  1  0
 12 13  1  0
 12 23  2  0
 13 14  2  0
 13 22  1  0
 14 15  1  0
 14 49  1  0
 15 16  2  0
 15 50  1  0
 16 17  1  0
 16 21  1  0
 17 18  2  0
 17 51  1  0
 18 19  1  0
 18 52  1  0
 19 20  2  0
 19 53  1  0
 20 21  1  0
 20 54  1  0
 21 22  2  0
 22 55  1  0
 23 56  1  0
 24 25  1  0
 25 26  1  0
 25 40  2  0
 26 27  2  0
 26 39  1  0
 27 28  1  0
 27 57  1  0
 28 29  2  0
 28 58  1  0
 29 30  1  0
 29 38  1  0
 30 31  1  0
 30 39  2  0
 31 32  2  0
 31 59  1  0
 32 33  1  0
 32 60  1  0
 33 34  1  0
 33 38  2  0
 34 35  2  0
 34 61  1  0
 35 36  1  0
 35 62  1  0
 36 37  2  0
 36 63  1  0
 37 38  1  0
 37 64  1  0
 39 65  1  0
 41 42  2  0
 41 66  1  0
 42 67  1  0
M  END

