
     RDKit          3D

 52 54  0  0  0  0  0  0  0  0999 V2000
    3.1449    1.3149    0.5046 C   0  0  0  0  0  0  0  0  0  0  0  0
    4.6345    1.2141    0.8829 C   0  0  1  0  0  0  0  0  0  0  0  0
    5.4926    1.7992   -0.2586 C   0  0  0  0  0  0  0  0  0  0  0  0
    4.8690    2.0889    2.1356 C   0  0  0  0  0  0  0  0  0  0  0  0
    5.0935   -0.2230    1.2820 C   0  0  0  0  0  0  0  0  0  0  0  0
    4.8209   -1.5055    0.4321 C   0  0  1  0  0  0  0  0  0  0  0  0
    3.3606   -1.9789    0.5403 C   0  0  0  0  0  0  0  0  0  0  0  0
    5.2115   -1.3843   -1.0521 C   0  0  0  0  0  0  0  0  0  0  0  0
    5.6183   -2.5940    1.0553 N   0  0  0  0  0  0  0  0  0  0  0  0
    6.9692   -2.6749    1.0912 C   0  0  0  0  0  0  0  0  0  0  0  0
    7.7522   -1.8402    0.6599 O   0  0  0  0  0  0  0  0  0  0  0  0
    7.5058   -3.9662    1.7506 C   0  0  0  0  0  0  0  0  0  0  0  0
    7.3655   -5.1507    0.8959 N   0  0  0  0  0  0  0  0  0  0  0  0
    8.4082   -5.5408    0.0905 C   0  0  0  0  0  0  0  0  0  0  0  0
    8.3994   -6.5781   -0.6884 N   0  0  0  0  0  0  0  0  0  0  0  0
    7.2556   -7.3014   -0.6791 C   0  0  0  0  0  0  0  0  0  0  0  0
    7.0377   -8.7470   -1.6493 S   0  0  0  0  0  0  0  0  0  0  0  0
    5.4315   -8.9498   -1.0043 C   0  0  0  0  0  0  0  0  0  0  0  0
    5.0769   -7.9741   -0.1129 C   0  0  0  0  0  0  0  0  0  0  0  0
    6.1162   -7.0142    0.0872 C   0  0  0  0  0  0  0  0  0  0  0  0
    6.1285   -5.8432    0.9337 C   0  0  0  0  0  0  0  0  0  0  0  0
    5.2045   -5.4309    1.6322 O   0  0  0  0  0  0  0  0  0  0  0  0
    3.6613   -8.1648    0.3656 C   0  0  0  0  0  0  0  0  0  0  0  0
    3.3360   -9.6083   -0.1189 C   0  0  0  0  0  0  0  0  0  0  0  0
    4.3296   -9.9355   -1.2748 C   0  0  0  0  0  0  0  0  0  0  0  0
    2.8564    2.3715    0.3768 H   0  0  0  0  0  0  0  0  0  0  0  0
    2.4959    0.8874    1.2860 H   0  0  0  0  0  0  0  0  0  0  0  0
    2.9194    0.8036   -0.4439 H   0  0  0  0  0  0  0  0  0  0  0  0
    5.2498    2.8640   -0.4108 H   0  0  0  0  0  0  0  0  0  0  0  0
    5.3293    1.2877   -1.2167 H   0  0  0  0  0  0  0  0  0  0  0  0
    6.5668    1.7306   -0.0226 H   0  0  0  0  0  0  0  0  0  0  0  0
    4.6259    3.1442    1.9301 H   0  0  0  0  0  0  0  0  0  0  0  0
    5.9210    2.0440    2.4613 H   0  0  0  0  0  0  0  0  0  0  0  0
    4.2423    1.7572    2.9798 H   0  0  0  0  0  0  0  0  0  0  0  0
    4.6758   -0.4414    2.2804 H   0  0  0  0  0  0  0  0  0  0  0  0
    6.1844   -0.1690    1.4135 H   0  0  0  0  0  0  0  0  0  0  0  0
    2.6752   -1.2851    0.0397 H   0  0  0  0  0  0  0  0  0  0  0  0
    3.0483   -2.0664    1.5936 H   0  0  0  0  0  0  0  0  0  0  0  0
    3.2440   -2.9672    0.0667 H   0  0  0  0  0  0  0  0  0  0  0  0
    4.5515   -0.6781   -1.5758 H   0  0  0  0  0  0  0  0  0  0  0  0
    5.1062   -2.3657   -1.5417 H   0  0  0  0  0  0  0  0  0  0  0  0
    6.2519   -1.0534   -1.1631 H   0  0  0  0  0  0  0  0  0  0  0  0
    5.1169   -3.4067    1.4164 H   0  0  0  0  0  0  0  0  0  0  0  0
    6.9773   -4.1727    2.6914 H   0  0  0  0  0  0  0  0  0  0  0  0
    8.5705   -3.7994    1.9494 H   0  0  0  0  0  0  0  0  0  0  0  0
    9.2971   -4.9031    0.1377 H   0  0  0  0  0  0  0  0  0  0  0  0
    2.9952   -7.4133   -0.0955 H   0  0  0  0  0  0  0  0  0  0  0  0
    3.5530   -8.0439    1.4540 H   0  0  0  0  0  0  0  0  0  0  0  0
    2.2864   -9.7260   -0.4267 H   0  0  0  0  0  0  0  0  0  0  0  0
    3.5115  -10.3131    0.7094 H   0  0  0  0  0  0  0  0  0  0  0  0
    3.8792   -9.7587   -2.2693 H   0  0  0  0  0  0  0  0  0  0  0  0
    4.6600  -10.9868   -1.2608 H   0  0  0  0  0  0  0  0  0  0  0  0
  2  1  1  6
  1 26  1  0
  1 27  1  0
  1 28  1  0
  2  3  1  0
  2  4  1  0
  2  5  1  0
  3 29  1  0
  3 30  1  0
  3 31  1  0
  4 32  1  0
  4 33  1  0
  4 34  1  0
  5  6  1  0
  5 35  1  0
  5 36  1  0
  6  7  1  0
  6  8  1  0
  6  9  1  1
  7 37  1  0
  7 38  1  0
  7 39  1  0
  8 40  1  0
  8 41  1  0
  8 42  1  0
  9 10  1  0
  9 43  1  0
 10 11  2  0
 10 12  1  0
 12 13  1  0
 12 44  1  0
 12 45  1  0
 13 14  1  0
 13 21  1  0
 14 15  2  0
 14 46  1  0
 15 16  1  0
 16 17  2  0
 16 20  1  0
 17 18  1  0
 18 19  2  0
 18 25  1  0
 19 20  1  0
 19 23  1  0
 20 21  2  0
 21 22  1  0
 23 24  1  0
 23 47  1  0
 23 48  1  0
 24 25  1  0
 24 49  1  0
 24 50  1  0
 25 51  1  0
 25 52  1  0
M  CHG  2  17   1  22  -1
M  END

