
     RDKit          3D

 50 53  0  0  0  0  0  0  0  0999 V2000
    0.0127   -0.6128    0.5996 C   0  0  0  0  0  0  0  0  0  0  0  0
    1.4034   -0.0096    0.3807 C   0  0  0  0  0  0  0  0  0  0  0  0
    2.4457   -0.6100    1.2193 N   0  0  0  0  0  0  0  0  0  0  0  0
    2.5291   -2.0468    1.2770 C   0  0  0  0  0  0  0  0  0  0  0  0
    2.4993   -2.7310   -0.0159 C   0  0  0  0  0  0  0  0  0  0  0  0
    3.1500   -2.1652   -1.1473 C   0  0  0  0  0  0  0  0  0  0  0  0
    3.1320   -2.7853   -2.3946 C   0  0  0  0  0  0  0  0  0  0  0  0
    2.4596   -4.0003   -2.5818 C   0  0  0  0  0  0  0  0  0  0  0  0
    1.7943   -4.5701   -1.4897 C   0  0  0  0  0  0  0  0  0  0  0  0
    1.8036   -3.9500   -0.2401 C   0  0  0  0  0  0  0  0  0  0  0  0
    2.7841   -2.6280    2.5258 C   0  0  0  0  0  0  0  0  0  0  0  0
    2.8760   -4.0465    2.7545 C   0  0  0  0  0  0  0  0  0  0  0  0
    3.0529   -4.5884    4.0138 C   0  0  0  0  0  0  0  0  0  0  0  0
    3.0473   -5.9687    4.2237 N   0  0  0  0  0  0  0  0  0  0  0  0
    3.1887   -3.7230    5.1460 C   0  0  0  0  0  0  0  0  0  0  0  0
    3.2383   -2.3619    4.9443 C   0  0  0  0  0  0  0  0  0  0  0  0
    3.0937   -1.7676    3.6650 C   0  0  0  0  0  0  0  0  0  0  0  0
    3.3946   -0.3769    3.4365 C   0  0  0  0  0  0  0  0  0  0  0  0
    3.9508    0.4944    4.4112 C   0  0  0  0  0  0  0  0  0  0  0  0
    4.2113    1.8417    4.1548 C   0  0  0  0  0  0  0  0  0  0  0  0
    3.9889    2.3509    2.8716 C   0  0  0  0  0  0  0  0  0  0  0  0
    4.2089    3.7296    2.5705 N   0  0  0  0  0  0  0  0  0  0  0  0
    5.3718    4.3744    2.6755 C   0  0  0  0  0  0  0  0  0  0  0  0
    6.4464    3.7630    3.2224 N   0  0  0  0  0  0  0  0  0  0  0  0
    5.4649    5.6784    2.2958 N   0  0  0  0  0  0  0  0  0  0  0  0
    4.8043    6.0435    1.6171 H   0  0  0  0  0  0  0  0  0  0  0  0
    6.3574    6.1508    2.3521 H   0  0  0  0  0  0  0  0  0  0  0  0
    3.4657    1.5120    1.8577 C   0  0  0  0  0  0  0  0  0  0  0  0
    3.1121    0.1818    2.1415 C   0  0  0  0  0  0  0  0  0  0  0  0
   -0.7293   -0.0483    0.0102 H   0  0  0  0  0  0  0  0  0  0  0  0
   -0.2747   -0.5614    1.6616 H   0  0  0  0  0  0  0  0  0  0  0  0
   -0.0331   -1.6637    0.2832 H   0  0  0  0  0  0  0  0  0  0  0  0
    1.3671    1.0613    0.6298 H   0  0  0  0  0  0  0  0  0  0  0  0
    1.6640   -0.0745   -0.6917 H   0  0  0  0  0  0  0  0  0  0  0  0
    3.7071   -1.2339   -1.0174 H   0  0  0  0  0  0  0  0  0  0  0  0
    3.6627   -2.3215   -3.2321 H   0  0  0  0  0  0  0  0  0  0  0  0
    2.4471   -4.4873   -3.5601 H   0  0  0  0  0  0  0  0  0  0  0  0
    1.2409   -5.5057   -1.6170 H   0  0  0  0  0  0  0  0  0  0  0  0
    1.2281   -4.3925    0.5742 H   0  0  0  0  0  0  0  0  0  0  0  0
    2.7870   -4.7267    1.9077 H   0  0  0  0  0  0  0  0  0  0  0  0
    3.2195   -6.5300    3.3961 H   0  0  0  0  0  0  0  0  0  0  0  0
    3.5985   -6.2842    5.0151 H   0  0  0  0  0  0  0  0  0  0  0  0
    3.2671   -4.1468    6.1506 H   0  0  0  0  0  0  0  0  0  0  0  0
    3.3943   -1.7177    5.8131 H   0  0  0  0  0  0  0  0  0  0  0  0
    4.1479    0.1147    5.4139 H   0  0  0  0  0  0  0  0  0  0  0  0
    4.5461    2.4963    4.9645 H   0  0  0  0  0  0  0  0  0  0  0  0
    3.4499    4.2314    2.1073 H   0  0  0  0  0  0  0  0  0  0  0  0
    6.3271    2.7671    3.4187 H   0  0  0  0  0  0  0  0  0  0  0  0
    7.3727    4.0746    2.9436 H   0  0  0  0  0  0  0  0  0  0  0  0
    3.3523    1.8991    0.8441 H   0  0  0  0  0  0  0  0  0  0  0  0
  1  2  1  0
  1 30  1  0
  1 31  1  0
  1 32  1  0
  2  3  1  0
  2 33  1  0
  2 34  1  0
  3  4  1  0
  3 29  2  0
  4  5  1  0
  4 11  1  0
  5  6  2  0
  5 10  1  0
  6  7  1  0
  6 35  1  0
  7  8  2  0
  7 36  1  0
  8  9  1  0
  8 37  1  0
  9 10  2  0
  9 38  1  0
 10 39  1  0
 11 12  2  0
 11 17  1  0
 12 13  1  0
 12 40  1  0
 13 14  2  0
 13 15  1  0
 14 41  1  0
 14 42  1  0
 15 16  2  0
 15 43  1  0
 16 17  1  0
 16 44  1  0
 17 18  2  0
 18 19  1  0
 18 29  1  0
 19 20  2  0
 19 45  1  0
 20 21  1  0
 20 46  1  0
 21 22  1  0
 21 28  2  0
 22 23  1  0
 22 47  1  0
 23 24  1  0
 23 25  1  0
 24 48  1  0
 24 49  1  0
 25 26  1  0
 25 27  1  0
 28 29  1  0
 28 50  1  0
M  CHG  4   3   1   4  -1  14   1  23  -1
M  END

