
     RDKit          3D

 54 56  0  0  0  0  0  0  0  0999 V2000
    1.4364   -0.2153   -1.6163 C   0  0  0  0  0  0  0  0  0  0  0  0
    2.5758   -0.1999   -0.6450 C   0  0  0  0  0  0  0  0  0  0  0  0
    3.1935   -1.3300   -0.3393 N   0  0  0  0  0  0  0  0  0  0  0  0
    4.1738   -1.0465    0.5472 N   0  0  0  0  0  0  0  0  0  0  0  0
    5.0343   -2.0820    1.0700 C   0  0  0  0  0  0  0  0  0  0  0  0
    4.2065    0.2828    0.8388 C   0  0  0  0  0  0  0  0  0  0  0  0
    5.0662    0.8877    1.6619 N   0  0  0  0  0  0  0  0  0  0  0  0
    4.8888    2.1951    1.7545 C   0  0  0  0  0  0  0  0  0  0  0  0
    3.8968    2.9598    1.0757 C   0  0  0  0  0  0  0  0  0  0  0  0
    3.7809    4.4107    1.4602 C   0  0  0  0  0  0  0  0  0  0  0  0
    2.7066    4.9496    1.6913 O   0  0  0  0  0  0  0  0  0  0  0  0
    4.9753    5.0717    1.5779 N   0  0  0  0  0  0  0  0  0  0  0  0
    5.0790    6.4539    2.0052 C   0  0  0  0  0  0  0  0  0  0  0  0
    5.8456    7.3257    0.9928 C   0  0  0  0  0  0  0  0  0  0  0  0
    7.2868    6.9103    0.7899 C   0  0  0  0  0  0  0  0  0  0  0  0
    7.6852    6.2348   -0.3045 C   0  0  0  0  0  0  0  0  0  0  0  0
    9.1061    5.8059   -0.5746 C   0  0  0  0  0  0  0  0  0  0  0  0
   10.1145    6.5007    0.3494 C   0  0  0  0  0  0  0  0  0  0  0  0
    9.5992    6.5359    1.7910 C   0  0  0  0  0  0  0  0  0  0  0  0
    8.2692    7.2938    1.8800 C   0  0  0  0  0  0  0  0  0  0  0  0
    3.0002    2.3007    0.2003 C   0  0  0  0  0  0  0  0  0  0  0  0
    1.6551    2.9795   -0.7315 S   0  0  0  0  0  0  0  0  0  0  0  0
    2.0543    4.7121   -1.2569 C   0  0  1  0  0  0  0  0  0  0  0  0
    3.3654    4.7988   -2.0338 C   0  0  0  0  0  0  0  0  0  0  0  0
    0.8492    5.1539   -2.0919 C   0  0  0  0  0  0  0  0  0  0  0  0
    3.1704    0.8960    0.0825 C   0  0  0  0  0  0  0  0  0  0  0  0
    1.2947   -1.2417   -1.9826 H   0  0  0  0  0  0  0  0  0  0  0  0
    1.6263    0.4511   -2.4715 H   0  0  0  0  0  0  0  0  0  0  0  0
    0.4989    0.1262   -1.1491 H   0  0  0  0  0  0  0  0  0  0  0  0
    4.4432   -2.8399    1.6072 H   0  0  0  0  0  0  0  0  0  0  0  0
    5.7445   -1.6102    1.7612 H   0  0  0  0  0  0  0  0  0  0  0  0
    5.5844   -2.5753    0.2535 H   0  0  0  0  0  0  0  0  0  0  0  0
    5.5530    2.7184    2.4517 H   0  0  0  0  0  0  0  0  0  0  0  0
    5.8225    4.6148    1.2595 H   0  0  0  0  0  0  0  0  0  0  0  0
    5.5655    6.5086    2.9968 H   0  0  0  0  0  0  0  0  0  0  0  0
    4.0514    6.8223    2.1293 H   0  0  0  0  0  0  0  0  0  0  0  0
    5.8122    8.3682    1.3579 H   0  0  0  0  0  0  0  0  0  0  0  0
    5.3072    7.3032    0.0317 H   0  0  0  0  0  0  0  0  0  0  0  0
    6.9402    5.9851   -1.0700 H   0  0  0  0  0  0  0  0  0  0  0  0
    9.3553    6.0026   -1.6323 H   0  0  0  0  0  0  0  0  0  0  0  0
    9.1836    4.7064   -0.4624 H   0  0  0  0  0  0  0  0  0  0  0  0
   10.2763    7.5362   -0.0005 H   0  0  0  0  0  0  0  0  0  0  0  0
   11.0928    5.9957    0.2955 H   0  0  0  0  0  0  0  0  0  0  0  0
   10.3431    6.9967    2.4613 H   0  0  0  0  0  0  0  0  0  0  0  0
    9.4550    5.5005    2.1501 H   0  0  0  0  0  0  0  0  0  0  0  0
    8.4484    8.3852    1.8176 H   0  0  0  0  0  0  0  0  0  0  0  0
    7.8087    7.1378    2.8717 H   0  0  0  0  0  0  0  0  0  0  0  0
    2.1000    5.3157   -0.3420 H   0  0  0  0  0  0  0  0  0  0  0  0
    3.3309    4.1779   -2.9434 H   0  0  0  0  0  0  0  0  0  0  0  0
    4.2256    4.4734   -1.4306 H   0  0  0  0  0  0  0  0  0  0  0  0
    3.5480    5.8439   -2.3381 H   0  0  0  0  0  0  0  0  0  0  0  0
    0.7354    4.5393   -2.9999 H   0  0  0  0  0  0  0  0  0  0  0  0
    0.9872    6.2011   -2.4062 H   0  0  0  0  0  0  0  0  0  0  0  0
   -0.0861    5.0957   -1.5146 H   0  0  0  0  0  0  0  0  0  0  0  0
  1  2  1  0
  1 27  1  0
  1 28  1  0
  1 29  1  0
  2  3  2  0
  2 26  1  0
  3  4  1  0
  4  5  1  0
  4  6  1  0
  5 30  1  0
  5 31  1  0
  5 32  1  0
  6  7  1  0
  6 26  2  0
  7  8  2  0
  8  9  1  0
  8 33  1  0
  9 10  1  0
  9 21  2  0
 10 11  2  0
 10 12  1  0
 12 13  1  0
 12 34  1  0
 13 14  1  0
 13 35  1  0
 13 36  1  0
 14 15  1  0
 14 37  1  0
 14 38  1  0
 15 16  2  0
 15 20  1  0
 16 17  1  0
 16 39  1  0
 17 18  1  0
 17 40  1  0
 17 41  1  0
 18 19  1  0
 18 42  1  0
 18 43  1  0
 19 20  1  0
 19 44  1  0
 19 45  1  0
 20 46  1  0
 20 47  1  0
 21 22  1  0
 21 26  1  0
 22 23  1  0
 23 24  1  0
 23 25  1  0
 23 48  1  1
 24 49  1  0
 24 50  1  0
 24 51  1  0
 25 52  1  0
 25 53  1  0
 25 54  1  0
M  END

