
     RDKit          3D

 26 27  0  0  0  0  0  0  0  0999 V2000
    0.9673   -0.2812    0.6542 N   0  0  0  0  0  0  0  0  0  0  0  0
    2.3058   -0.1125    0.3649 C   0  0  0  0  0  0  0  0  0  0  0  0
    2.9008    1.1560    0.3774 C   0  0  0  0  0  0  0  0  0  0  0  0
    4.2751    1.3457    0.1267 C   0  0  0  0  0  0  0  0  0  0  0  0
    4.8402    2.7468    0.0917 C   0  0  0  0  0  0  0  0  0  0  0  0
    4.7112    3.4653   -1.2621 C   0  0  0  0  0  0  0  0  0  0  0  0
    4.6243    4.6578   -1.3622 O   0  0  0  0  0  0  0  0  0  0  0  0
    4.7479    2.6728   -2.3503 O   0  0  0  0  0  0  0  0  0  0  0  0
    5.0950    0.2481   -0.1613 C   0  0  0  0  0  0  0  0  0  0  0  0
    4.5108   -1.0283   -0.1770 C   0  0  0  0  0  0  0  0  0  0  0  0
    5.3296   -2.5434   -0.4845 S   0  0  0  0  0  0  0  0  0  0  0  0
    3.8426   -3.4515   -0.2493 C   0  0  0  0  0  0  0  0  0  0  0  0
    3.8245   -4.9326   -0.3772 C   0  0  0  0  0  0  0  0  0  0  0  0
    3.9421   -5.4980   -2.1107 Cl  0  0  0  0  0  0  0  0  0  0  0  0
    2.7862   -2.6319    0.0384 C   0  0  0  0  0  0  0  0  0  0  0  0
    3.1351   -1.2384    0.0861 C   0  0  0  0  0  0  0  0  0  0  0  0
    0.3855    0.5478    0.6356 H   0  0  0  0  0  0  0  0  0  0  0  0
    0.5065   -1.1080    0.2953 H   0  0  0  0  0  0  0  0  0  0  0  0
    2.2762    2.0285    0.5889 H   0  0  0  0  0  0  0  0  0  0  0  0
    5.9183    2.7301    0.3274 H   0  0  0  0  0  0  0  0  0  0  0  0
    4.3652    3.4020    0.8347 H   0  0  0  0  0  0  0  0  0  0  0  0
    4.7614    1.7389   -2.0781 H   0  0  0  0  0  0  0  0  0  0  0  0
    6.1656    0.3775   -0.3364 H   0  0  0  0  0  0  0  0  0  0  0  0
    2.8846   -5.3357    0.0205 H   0  0  0  0  0  0  0  0  0  0  0  0
    4.6650   -5.4075    0.1461 H   0  0  0  0  0  0  0  0  0  0  0  0
    1.7856   -3.0263    0.2259 H   0  0  0  0  0  0  0  0  0  0  0  0
  1  2  1  0
  1 17  1  0
  1 18  1  0
  2  3  2  0
  2 16  1  0
  3  4  1  0
  3 19  1  0
  4  5  1  0
  4  9  2  0
  5  6  1  0
  5 20  1  0
  5 21  1  0
  6  7  2  0
  6  8  1  0
  8 22  1  0
  9 10  1  0
  9 23  1  0
 10 11  1  0
 10 16  2  0
 11 12  1  0
 12 13  1  0
 12 15  2  0
 13 14  1  0
 13 24  1  0
 13 25  1  0
 15 16  1  0
 15 26  1  0
M  END

