
     RDKit          3D

 42 43  0  0  0  0  0  0  0  0999 V2000
    1.1930    1.7293   -0.1902 C   0  0  0  0  0  0  0  0  0  0  0  0
    2.4350    0.9155    0.1331 C   0  0  0  0  0  0  0  0  0  0  0  0
    3.3361    1.6287    0.9993 O   0  0  0  0  0  0  0  0  0  0  0  0
    4.1791    2.4979    0.4123 C   0  0  0  0  0  0  0  0  0  0  0  0
    4.1895    2.7619   -0.7660 O   0  0  0  0  0  0  0  0  0  0  0  0
    4.9691    3.1286    1.3616 N   0  0  0  0  0  0  0  0  0  0  0  0
    6.1436    2.8157    1.7144 C   0  0  0  0  0  0  0  0  0  0  0  0
    6.7306    3.6987    2.5969 O   0  0  0  0  0  0  0  0  0  0  0  0
    8.0016    3.5915    3.0558 C   0  0  0  0  0  0  0  0  0  0  0  0
    8.4479    4.5826    3.9193 C   0  0  0  0  0  0  0  0  0  0  0  0
    9.7684    4.5472    4.4366 C   0  0  0  0  0  0  0  0  0  0  0  0
   10.2387    5.5401    5.2624 N   0  0  0  0  0  0  0  0  0  0  0  0
    9.3785    6.6511    5.6724 C   0  0  0  0  0  0  0  0  0  0  0  0
    8.4347    6.3487    6.8410 C   0  0  0  0  0  0  0  0  0  0  0  0
   11.5959    5.4987    5.8071 C   0  0  0  0  0  0  0  0  0  0  0  0
   11.7718    4.6284    7.0560 C   0  0  0  0  0  0  0  0  0  0  0  0
   10.5956    3.4433    4.0510 C   0  0  0  0  0  0  0  0  0  0  0  0
   10.1291    2.4670    3.1934 C   0  0  0  0  0  0  0  0  0  0  0  0
    8.8199    2.5067    2.6655 C   0  0  0  0  0  0  0  0  0  0  0  0
    8.2537    1.5333    1.7963 C   0  0  0  0  0  0  0  0  0  0  0  0
    6.9665    1.6535    1.3302 C   0  0  0  0  0  0  0  0  0  0  0  0
    6.4147    0.6303    0.4985 C   0  0  0  0  0  0  0  0  0  0  0  0
    5.9979   -0.2312   -0.1608 N   0  0  0  0  0  0  0  0  0  0  0  0
    0.4921    1.1221   -0.7859 H   0  0  0  0  0  0  0  0  0  0  0  0
    1.4556    2.6227   -0.7753 H   0  0  0  0  0  0  0  0  0  0  0  0
    0.6781    2.0453    0.7307 H   0  0  0  0  0  0  0  0  0  0  0  0
    2.9736    0.6283   -0.7820 H   0  0  0  0  0  0  0  0  0  0  0  0
    2.1809    0.0043    0.6940 H   0  0  0  0  0  0  0  0  0  0  0  0
    7.7437    5.3717    4.1700 H   0  0  0  0  0  0  0  0  0  0  0  0
    8.8004    6.9977    4.8009 H   0  0  0  0  0  0  0  0  0  0  0  0
   10.0391    7.4892    5.9418 H   0  0  0  0  0  0  0  0  0  0  0  0
    7.7610    5.5090    6.6124 H   0  0  0  0  0  0  0  0  0  0  0  0
    7.8124    7.2309    7.0611 H   0  0  0  0  0  0  0  0  0  0  0  0
    8.9938    6.0935    7.7540 H   0  0  0  0  0  0  0  0  0  0  0  0
   11.8821    6.5357    6.0402 H   0  0  0  0  0  0  0  0  0  0  0  0
   12.2914    5.1715    5.0180 H   0  0  0  0  0  0  0  0  0  0  0  0
   11.1561    4.9946    7.8914 H   0  0  0  0  0  0  0  0  0  0  0  0
   12.8246    4.6416    7.3813 H   0  0  0  0  0  0  0  0  0  0  0  0
   11.4891    3.5821    6.8639 H   0  0  0  0  0  0  0  0  0  0  0  0
   11.6099    3.3551    4.4334 H   0  0  0  0  0  0  0  0  0  0  0  0
   10.7846    1.6372    2.9160 H   0  0  0  0  0  0  0  0  0  0  0  0
    8.8514    0.6676    1.4998 H   0  0  0  0  0  0  0  0  0  0  0  0
  1  2  1  0
  1 24  1  0
  1 25  1  0
  1 26  1  0
  2  3  1  0
  2 27  1  0
  2 28  1  0
  3  4  1  0
  4  5  2  0
  4  6  1  0
  6  7  2  0
  7  8  1  0
  7 21  1  0
  8  9  1  0
  9 10  2  0
  9 19  1  0
 10 11  1  0
 10 29  1  0
 11 12  1  0
 11 17  2  0
 12 13  1  0
 12 15  1  0
 13 14  1  0
 13 30  1  0
 13 31  1  0
 14 32  1  0
 14 33  1  0
 14 34  1  0
 15 16  1  0
 15 35  1  0
 15 36  1  0
 16 37  1  0
 16 38  1  0
 16 39  1  0
 17 18  1  0
 17 40  1  0
 18 19  2  0
 18 41  1  0
 19 20  1  0
 20 21  2  0
 20 42  1  0
 21 22  1  0
 22 23  3  0
M  END

