
     RDKit          3D

 35 37  0  0  0  0  0  0  0  0999 V2000
    0.7188   -0.0892    0.3737 C   0  0  0  0  0  0  0  0  0  0  0  0
    2.2122   -0.0682    0.1462 C   0  0  0  0  0  0  0  0  0  0  0  0
    2.9378    1.1554   -0.0850 C   0  0  0  0  0  0  0  0  0  0  0  0
    2.2561    2.4794   -0.2193 C   0  0  0  0  0  0  0  0  0  0  0  0
    2.7973    3.5990    0.4378 C   0  0  0  0  0  0  0  0  0  0  0  0
    2.2216    4.8616    0.3081 C   0  0  0  0  0  0  0  0  0  0  0  0
    1.0963    5.0221   -0.5070 C   0  0  0  0  0  0  0  0  0  0  0  0
    0.3703    6.6018   -0.6799 Cl  0  0  0  0  0  0  0  0  0  0  0  0
    0.5513    3.9315   -1.1890 C   0  0  0  0  0  0  0  0  0  0  0  0
    1.1298    2.6698   -1.0378 C   0  0  0  0  0  0  0  0  0  0  0  0
    4.2540    1.1930   -0.1703 N   0  0  0  0  0  0  0  0  0  0  0  0
    5.0010    0.0681   -0.0862 C   0  0  0  0  0  0  0  0  0  0  0  0
    6.4316    0.1867   -0.1989 C   0  0  0  0  0  0  0  0  0  0  0  0
    7.0792    1.5278   -0.4004 C   0  0  0  0  0  0  0  0  0  0  0  0
    7.1710   -0.9835   -0.1167 C   0  0  0  0  0  0  0  0  0  0  0  0
    8.9168   -0.9241   -0.2422 Cl  0  0  0  0  0  0  0  0  0  0  0  0
    6.5766   -2.2557    0.0672 C   0  0  0  0  0  0  0  0  0  0  0  0
    5.2101   -2.3718    0.1749 C   0  0  0  0  0  0  0  0  0  0  0  0
    4.3896   -1.2141    0.1021 C   0  0  0  0  0  0  0  0  0  0  0  0
    2.9657   -1.2332    0.2129 C   0  0  0  0  0  0  0  0  0  0  0  0
    2.3060   -2.5586    0.4554 C   0  0  0  0  0  0  0  0  0  0  0  0
    2.4093   -3.2435    1.4175 O   0  0  0  0  0  0  0  0  0  0  0  0
    1.3237   -3.1111   -0.9659 Cl  0  0  0  0  0  0  0  0  0  0  0  0
    0.3735    0.8526    0.8199 H   0  0  0  0  0  0  0  0  0  0  0  0
    0.4280   -0.9062    1.0497 H   0  0  0  0  0  0  0  0  0  0  0  0
    0.1625   -0.2379   -0.5659 H   0  0  0  0  0  0  0  0  0  0  0  0
    3.6853    3.4682    1.0586 H   0  0  0  0  0  0  0  0  0  0  0  0
    2.6401    5.7231    0.8312 H   0  0  0  0  0  0  0  0  0  0  0  0
   -0.3148    4.0734   -1.8375 H   0  0  0  0  0  0  0  0  0  0  0  0
    0.7083    1.8318   -1.5954 H   0  0  0  0  0  0  0  0  0  0  0  0
    6.3173    2.3090   -0.4952 H   0  0  0  0  0  0  0  0  0  0  0  0
    7.7118    1.5229   -1.3024 H   0  0  0  0  0  0  0  0  0  0  0  0
    7.7440    1.7708    0.4450 H   0  0  0  0  0  0  0  0  0  0  0  0
    7.2189   -3.1356    0.1243 H   0  0  0  0  0  0  0  0  0  0  0  0
    4.7655   -3.3558    0.3287 H   0  0  0  0  0  0  0  0  0  0  0  0
  1  2  1  0
  1 24  1  0
  1 25  1  0
  1 26  1  0
  2  3  2  0
  2 20  1  0
  3  4  1  0
  3 11  1  0
  4  5  2  0
  4 10  1  0
  5  6  1  0
  5 27  1  0
  6  7  2  0
  6 28  1  0
  7  8  1  0
  7  9  1  0
  9 10  2  0
  9 29  1  0
 10 30  1  0
 11 12  2  0
 12 13  1  0
 12 19  1  0
 13 14  1  0
 13 15  2  0
 14 31  1  0
 14 32  1  0
 14 33  1  0
 15 16  1  0
 15 17  1  0
 17 18  2  0
 17 34  1  0
 18 19  1  0
 18 35  1  0
 19 20  2  0
 20 21  1  0
 21 22  2  0
 21 23  1  0
M  END

