
     RDKit          3D

 86 96  0  0  0  0  0  0  0  0999 V2000
    6.1429    0.5505    0.1924 C   0  0  0  0  0  0  0  0  0  0  0  0
    5.3001    0.3167    1.4650 C   0  0  1  0  0  0  0  0  0  0  0  0
    6.0922    0.7613    2.7139 C   0  0  0  0  0  0  0  0  0  0  0  0
    3.9516    1.0346    1.3782 C   0  0  0  0  0  0  0  0  0  0  0  0
    3.6961    2.3986    1.2574 C   0  0  0  0  0  0  0  0  0  0  0  0
    2.3681    2.8449    1.1946 C   0  0  0  0  0  0  0  0  0  0  0  0
    1.3090    1.9301    1.2531 C   0  0  0  0  0  0  0  0  0  0  0  0
    1.5589    0.5590    1.3746 C   0  0  0  0  0  0  0  0  0  0  0  0
    2.8839    0.1129    1.4372 C   0  0  0  0  0  0  0  0  0  0  0  0
    3.4380   -1.2420    1.5634 C   0  0  0  0  0  0  0  0  0  0  0  0
    2.7994   -2.4779    1.6665 C   0  0  0  0  0  0  0  0  0  0  0  0
    3.5935   -3.6282    1.7779 C   0  0  0  0  0  0  0  0  0  0  0  0
    3.2865   -5.0388    1.9189 C   0  0  0  0  0  0  0  0  0  0  0  0
    2.0853   -5.7607    1.9671 C   0  0  0  0  0  0  0  0  0  0  0  0
    2.1533   -7.1484    2.0913 C   0  0  0  0  0  0  0  0  0  0  0  0
    3.4041   -7.8193    2.1593 C   0  0  0  0  0  0  0  0  0  0  0  0
    4.6057   -7.1215    2.1133 C   0  0  0  0  0  0  0  0  0  0  0  0
    4.5324   -5.7239    2.0014 C   0  0  0  0  0  0  0  0  0  0  0  0
    5.5697   -4.7902    1.9155 N   0  0  0  0  0  0  0  0  0  0  0  0
    6.9586   -5.0852    1.9528 C   0  0  0  0  0  0  0  0  0  0  0  0
    7.7909   -4.7339    0.8784 C   0  0  0  0  0  0  0  0  0  0  0  0
    9.1441   -5.0435    0.9291 C   0  0  0  0  0  0  0  0  0  0  0  0
    9.7222   -5.7099    2.0289 C   0  0  0  0  0  0  0  0  0  0  0  0
    8.8777   -6.0727    3.1104 C   0  0  0  0  0  0  0  0  0  0  0  0
    7.5102   -5.7493    3.0486 C   0  0  0  0  0  0  0  0  0  0  0  0
    9.4330   -6.8008    4.2737 C   0  0  0  0  0  0  0  0  0  0  0  0
   10.7847   -7.4060    4.1356 C   0  0  0  0  0  0  0  0  0  0  0  0
   11.6845   -6.8686    3.0906 C   0  0  0  0  0  0  0  0  0  0  0  0
   13.0645   -7.1517    3.1038 C   0  0  0  0  0  0  0  0  0  0  0  0
   13.9255   -6.6434    2.1371 C   0  0  0  0  0  0  0  0  0  0  0  0
   13.4191   -5.8128    1.1314 C   0  0  0  0  0  0  0  0  0  0  0  0
   12.0619   -5.5088    1.1101 C   0  0  0  0  0  0  0  0  0  0  0  0
   11.1689   -6.0260    2.0712 C   0  0  0  0  0  0  0  0  0  0  0  0
   11.1308   -8.4177    4.9701 C   0  0  0  0  0  0  0  0  0  0  0  0
   10.1991   -8.8961    6.0498 C   0  0  0  0  0  0  0  0  0  0  0  0
    9.3592   -7.7350    6.5851 C   0  0  0  0  0  0  0  0  0  0  0  0
    8.7716   -6.9437    5.4491 C   0  0  0  0  0  0  0  0  0  0  0  0
    5.0132   -3.5153    1.7788 C   0  0  0  0  0  0  0  0  0  0  0  0
    5.6600   -2.2726    1.6885 C   0  0  0  0  0  0  0  0  0  0  0  0
    4.8556   -1.1440    1.5787 C   0  0  0  0  0  0  0  0  0  0  0  0
    3.2030   -9.3323    2.2799 C   0  0  1  0  0  0  0  0  0  0  0  0
    3.8175  -10.0781    1.0753 C   0  0  0  0  0  0  0  0  0  0  0  0
    3.7974   -9.8750    3.5978 C   0  0  0  0  0  0  0  0  0  0  0  0
    1.6763   -9.4330    2.2758 C   0  0  0  0  0  0  0  0  0  0  0  0
    0.8772  -10.5707    2.3622 C   0  0  0  0  0  0  0  0  0  0  0  0
   -0.5183  -10.4325    2.3389 C   0  0  0  0  0  0  0  0  0  0  0  0
   -1.1035   -9.1647    2.2297 C   0  0  0  0  0  0  0  0  0  0  0  0
   -0.3066   -8.0182    2.1424 C   0  0  0  0  0  0  0  0  0  0  0  0
    1.0860   -8.1554    2.1657 C   0  0  0  0  0  0  0  0  0  0  0  0
    6.4014    1.6164    0.0849 H   0  0  0  0  0  0  0  0  0  0  0  0
    5.5945    0.2387   -0.7093 H   0  0  0  0  0  0  0  0  0  0  0  0
    7.0846   -0.0205    0.2365 H   0  0  0  0  0  0  0  0  0  0  0  0
    6.3498    1.8310    2.6530 H   0  0  0  0  0  0  0  0  0  0  0  0
    7.0324    0.1936    2.8041 H   0  0  0  0  0  0  0  0  0  0  0  0
    5.5066    0.6020    3.6320 H   0  0  0  0  0  0  0  0  0  0  0  0
    4.5162    3.1208    1.2112 H   0  0  0  0  0  0  0  0  0  0  0  0
    2.1581    3.9134    1.0996 H   0  0  0  0  0  0  0  0  0  0  0  0
    0.2782    2.2908    1.2031 H   0  0  0  0  0  0  0  0  0  0  0  0
    0.7276   -0.1496    1.4195 H   0  0  0  0  0  0  0  0  0  0  0  0
    1.7090   -2.5526    1.6653 H   0  0  0  0  0  0  0  0  0  0  0  0
    1.1237   -5.2452    1.9038 H   0  0  0  0  0  0  0  0  0  0  0  0
    5.5687   -7.6337    2.1568 H   0  0  0  0  0  0  0  0  0  0  0  0
    7.3676   -4.2424    0.0006 H   0  0  0  0  0  0  0  0  0  0  0  0
    9.7602   -4.7791    0.0699 H   0  0  0  0  0  0  0  0  0  0  0  0
    6.8472   -6.0324    3.8658 H   0  0  0  0  0  0  0  0  0  0  0  0
   13.4769   -7.7659    3.9056 H   0  0  0  0  0  0  0  0  0  0  0  0
   14.9920   -6.8782    2.1777 H   0  0  0  0  0  0  0  0  0  0  0  0
   14.0838   -5.3911    0.3735 H   0  0  0  0  0  0  0  0  0  0  0  0
   11.6944   -4.8400    0.3317 H   0  0  0  0  0  0  0  0  0  0  0  0
   12.0841   -8.9361    4.8463 H   0  0  0  0  0  0  0  0  0  0  0  0
    9.5305   -9.6800    5.6351 H   0  0  0  0  0  0  0  0  0  0  0  0
   10.7639   -9.3786    6.8632 H   0  0  0  0  0  0  0  0  0  0  0  0
    9.9964   -7.0672    7.2027 H   0  0  0  0  0  0  0  0  0  0  0  0
    8.5644   -8.1008    7.2542 H   0  0  0  0  0  0  0  0  0  0  0  0
    7.8115   -6.4487    5.6110 H   0  0  0  0  0  0  0  0  0  0  0  0
    6.7492   -2.2015    1.7086 H   0  0  0  0  0  0  0  0  0  0  0  0
    4.9114   -9.9469    1.0500 H   0  0  0  0  0  0  0  0  0  0  0  0
    3.4058   -9.7043    0.1257 H   0  0  0  0  0  0  0  0  0  0  0  0
    3.6098  -11.1586    1.1373 H   0  0  0  0  0  0  0  0  0  0  0  0
    4.8910   -9.7394    3.6188 H   0  0  0  0  0  0  0  0  0  0  0  0
    3.5903  -10.9519    3.7058 H   0  0  0  0  0  0  0  0  0  0  0  0
    3.3703   -9.3553    4.4688 H   0  0  0  0  0  0  0  0  0  0  0  0
    1.3246  -11.5652    2.4473 H   0  0  0  0  0  0  0  0  0  0  0  0
   -1.1531  -11.3198    2.4063 H   0  0  0  0  0  0  0  0  0  0  0  0
   -2.1925   -9.0704    2.2126 H   0  0  0  0  0  0  0  0  0  0  0  0
   -0.7699   -7.0317    2.0574 H   0  0  0  0  0  0  0  0  0  0  0  0
  2  1  1  6
  1 50  1  0
  1 51  1  0
  1 52  1  0
  2  3  1  0
  2  4  1  0
  2 40  1  0
  3 53  1  0
  3 54  1  0
  3 55  1  0
  4  5  2  0
  4  9  1  0
  5  6  1  0
  5 56  1  0
  6  7  2  0
  6 57  1  0
  7  8  1  0
  7 58  1  0
  8  9  2  0
  8 59  1  0
  9 10  1  0
 10 11  2  0
 10 40  1  0
 11 12  1  0
 11 60  1  0
 12 13  1  0
 12 38  2  0
 13 14  2  0
 13 18  1  0
 14 15  1  0
 14 61  1  0
 15 16  2  0
 15 49  1  0
 16 17  1  0
 16 41  1  0
 17 18  2  0
 17 62  1  0
 18 19  1  0
 19 20  1  0
 19 38  1  0
 20 21  2  0
 20 25  1  0
 21 22  1  0
 21 63  1  0
 22 23  2  0
 22 64  1  0
 23 24  1  0
 23 33  1  0
 24 25  2  0
 24 26  1  0
 25 65  1  0
 26 27  1  0
 26 37  2  0
 27 28  1  0
 27 34  2  0
 28 29  1  0
 28 33  2  0
 29 30  2  0
 29 66  1  0
 30 31  1  0
 30 67  1  0
 31 32  2  0
 31 68  1  0
 32 33  1  0
 32 69  1  0
 34 35  1  0
 34 70  1  0
 35 36  1  0
 35 71  1  0
 35 72  1  0
 36 37  1  0
 36 73  1  0
 36 74  1  0
 37 75  1  0
 38 39  1  0
 39 40  2  0
 39 76  1  0
 41 42  1  6
 41 43  1  0
 41 44  1  0
 42 77  1  0
 42 78  1  0
 42 79  1  0
 43 80  1  0
 43 81  1  0
 43 82  1  0
 44 45  1  0
 44 49  2  0
 45 46  2  0
 45 83  1  0
 46 47  1  0
 46 84  1  0
 47 48  2  0
 47 85  1  0
 48 49  1  0
 48 86  1  0
M  END

