
     RDKit          3D

 30 32  0  0  0  0  0  0  0  0999 V2000
    0.8725    0.3037   -0.0552 O   0  0  0  0  0  0  0  0  0  0  0  0
    2.0923    0.2065   -0.1200 C   0  0  0  0  0  0  0  0  0  0  0  0
    2.7461   -1.0560   -0.4494 C   0  0  0  0  0  0  0  0  0  0  0  0
    4.1075   -1.1927   -0.5174 C   0  0  0  0  0  0  0  0  0  0  0  0
    4.8459   -2.2994   -0.8031 N   0  0  0  0  0  0  0  0  0  0  0  0
    4.4942   -3.5991   -1.1876 C   0  0  0  0  0  0  0  0  0  0  0  0
    3.2887   -3.9244   -1.8359 C   0  0  0  0  0  0  0  0  0  0  0  0
    3.0312   -5.2464   -2.2084 C   0  0  0  0  0  0  0  0  0  0  0  0
    3.9587   -6.2594   -1.9545 C   0  0  0  0  0  0  0  0  0  0  0  0
    5.1661   -5.9358   -1.3253 C   0  0  0  0  0  0  0  0  0  0  0  0
    5.4323   -4.6230   -0.9439 C   0  0  0  0  0  0  0  0  0  0  0  0
    5.0080   -0.0126   -0.2089 C   0  0  0  0  0  0  0  0  0  0  0  0
    6.2200   -0.1680   -0.2239 O   0  0  0  0  0  0  0  0  0  0  0  0
    4.3705    1.2872    0.1035 C   0  0  0  0  0  0  0  0  0  0  0  0
    5.1751    2.4070    0.3628 C   0  0  0  0  0  0  0  0  0  0  0  0
    4.5830    3.6351    0.6570 C   0  0  0  0  0  0  0  0  0  0  0  0
    3.1868    3.7480    0.6963 C   0  0  0  0  0  0  0  0  0  0  0  0
    2.3822    2.6348    0.4419 C   0  0  0  0  0  0  0  0  0  0  0  0
    2.9669    1.4005    0.1434 C   0  0  0  0  0  0  0  0  0  0  0  0
    2.0659   -1.8879   -0.6185 H   0  0  0  0  0  0  0  0  0  0  0  0
    5.8422   -2.1206   -0.6687 H   0  0  0  0  0  0  0  0  0  0  0  0
    2.5657   -3.1499   -2.0836 H   0  0  0  0  0  0  0  0  0  0  0  0
    2.0908   -5.4803   -2.7138 H   0  0  0  0  0  0  0  0  0  0  0  0
    3.7467   -7.2899   -2.2480 H   0  0  0  0  0  0  0  0  0  0  0  0
    5.9069   -6.7136   -1.1238 H   0  0  0  0  0  0  0  0  0  0  0  0
    6.3735   -4.3768   -0.4445 H   0  0  0  0  0  0  0  0  0  0  0  0
    6.2600    2.2913    0.3273 H   0  0  0  0  0  0  0  0  0  0  0  0
    5.2085    4.5085    0.8571 H   0  0  0  0  0  0  0  0  0  0  0  0
    2.7251    4.7112    0.9283 H   0  0  0  0  0  0  0  0  0  0  0  0
    1.2924    2.6929    0.4695 H   0  0  0  0  0  0  0  0  0  0  0  0
  1  2  2  0
  2  3  1  0
  2 19  1  0
  3  4  2  0
  3 20  1  0
  4  5  1  0
  4 12  1  0
  5  6  1  0
  5 21  1  0
  6  7  2  0
  6 11  1  0
  7  8  1  0
  7 22  1  0
  8  9  2  0
  8 23  1  0
  9 10  1  0
  9 24  1  0
 10 11  2  0
 10 25  1  0
 11 26  1  0
 12 13  2  0
 12 14  1  0
 14 15  1  0
 14 19  2  0
 15 16  2  0
 15 27  1  0
 16 17  1  0
 16 28  1  0
 17 18  2  0
 17 29  1  0
 18 19  1  0
 18 30  1  0
M  END

