
     RDKit          3D

 35 37  0  0  0  0  0  0  0  0999 V2000
    1.7725    0.2944    1.6245 N   0  0  0  0  0  0  0  0  0  0  0  0
    2.9900    0.0597    1.1316 C   0  0  0  0  0  0  0  0  0  0  0  0
    4.0583    0.8521    1.1803 N   0  0  0  0  0  0  0  0  0  0  0  0
    4.8267   -0.1431    0.5191 C   0  0  0  0  0  0  0  0  0  0  0  0
    6.3862   -0.2251    0.0760 S   0  0  0  0  0  0  0  0  0  0  0  0
    3.6413   -1.0634    0.4188 C   0  0  0  0  0  0  0  0  0  0  0  0
    3.4310   -2.2979   -0.0672 C   0  0  0  0  0  0  0  0  0  0  0  0
    2.1808   -3.0601   -0.1298 C   0  0  0  0  0  0  0  0  0  0  0  0
    0.9157   -2.4531   -0.2318 C   0  0  0  0  0  0  0  0  0  0  0  0
   -0.2615   -3.2049   -0.2808 C   0  0  0  0  0  0  0  0  0  0  0  0
   -0.1953   -4.6073   -0.2365 C   0  0  0  0  0  0  0  0  0  0  0  0
   -1.2708   -5.4306   -0.2756 O   0  0  0  0  0  0  0  0  0  0  0  0
   -2.5728   -4.8858   -0.3875 C   0  0  0  0  0  0  0  0  0  0  0  0
   -3.5896   -6.0014   -0.4452 C   0  0  0  0  0  0  0  0  0  0  0  0
   -4.9023   -5.7703   -0.0115 C   0  0  0  0  0  0  0  0  0  0  0  0
   -5.8776   -6.7658   -0.1026 C   0  0  0  0  0  0  0  0  0  0  0  0
   -5.5309   -8.0138   -0.6266 C   0  0  0  0  0  0  0  0  0  0  0  0
   -6.8508   -9.3850   -0.7479 Br  0  0  0  0  0  0  0  0  0  0  0  0
   -4.2261   -8.2687   -1.0567 C   0  0  0  0  0  0  0  0  0  0  0  0
   -3.2635   -7.2604   -0.9665 C   0  0  0  0  0  0  0  0  0  0  0  0
    1.0627   -5.2329   -0.1603 C   0  0  0  0  0  0  0  0  0  0  0  0
    2.2227   -4.4724   -0.1187 C   0  0  0  0  0  0  0  0  0  0  0  0
    1.6161    1.1457    2.1540 H   0  0  0  0  0  0  0  0  0  0  0  0
    1.0707   -0.4332    1.6434 H   0  0  0  0  0  0  0  0  0  0  0  0
    4.3330   -2.7919   -0.4497 H   0  0  0  0  0  0  0  0  0  0  0  0
    0.8462   -1.3667   -0.3258 H   0  0  0  0  0  0  0  0  0  0  0  0
   -1.2172   -2.6895   -0.3757 H   0  0  0  0  0  0  0  0  0  0  0  0
   -2.6393   -4.2661   -1.3041 H   0  0  0  0  0  0  0  0  0  0  0  0
   -2.7886   -4.2217    0.4702 H   0  0  0  0  0  0  0  0  0  0  0  0
   -5.1754   -4.7981    0.4098 H   0  0  0  0  0  0  0  0  0  0  0  0
   -6.8964   -6.5762    0.2391 H   0  0  0  0  0  0  0  0  0  0  0  0
   -3.9630   -9.2482   -1.4595 H   0  0  0  0  0  0  0  0  0  0  0  0
   -2.2419   -7.4570   -1.2955 H   0  0  0  0  0  0  0  0  0  0  0  0
    1.0997   -6.3238   -0.1396 H   0  0  0  0  0  0  0  0  0  0  0  0
    3.1911   -4.9764   -0.0637 H   0  0  0  0  0  0  0  0  0  0  0  0
  1  2  1  0
  1 23  1  0
  1 24  1  0
  2  3  2  0
  2  6  1  0
  3  4  1  0
  4  5  2  0
  4  6  1  0
  6  7  2  0
  7  8  1  0
  7 25  1  0
  8  9  2  0
  8 22  1  0
  9 10  1  0
  9 26  1  0
 10 11  2  0
 10 27  1  0
 11 12  1  0
 11 21  1  0
 12 13  1  0
 13 14  1  0
 13 28  1  0
 13 29  1  0
 14 15  2  0
 14 20  1  0
 15 16  1  0
 15 30  1  0
 16 17  2  0
 16 31  1  0
 17 18  1  0
 17 19  1  0
 19 20  2  0
 19 32  1  0
 20 33  1  0
 21 22  2  0
 21 34  1  0
 22 35  1  0
M  END

