
     RDKit          3D

 52 54  0  0  0  0  0  0  0  0999 V2000
   13.6932   -4.3825   -4.8348 O   0  0  0  0  0  0  0  0  0  0  0  0
   12.9135   -5.2383   -5.1616 C   0  0  0  0  0  0  0  0  0  0  0  0
   13.3605   -6.4612   -5.5328 O   0  0  0  0  0  0  0  0  0  0  0  0
   11.4247   -5.0345   -5.1790 C   0  0  0  0  0  0  0  0  0  0  0  0
   10.5385   -5.8616   -5.8885 C   0  0  0  0  0  0  0  0  0  0  0  0
    9.1660   -5.6113   -5.8773 C   0  0  0  0  0  0  0  0  0  0  0  0
    8.6426   -4.5273   -5.1558 C   0  0  0  0  0  0  0  0  0  0  0  0
    7.1567   -4.2301   -5.1686 C   0  0  0  0  0  0  0  0  0  0  0  0
    6.3403   -5.4311   -5.1998 N   0  0  0  0  0  0  0  0  0  0  0  0
    4.9092   -5.1739   -5.2920 C   0  0  0  0  0  0  0  0  0  0  0  0
    4.0386   -6.4528   -5.3453 C   0  0  1  0  0  0  0  0  0  0  0  0
    4.1352   -7.2460   -3.9998 C   0  0  0  0  0  0  0  0  0  0  0  0
    3.7150   -6.5327   -2.7306 C   0  0  0  0  0  0  0  0  0  0  0  0
    2.3860   -6.5878   -2.2757 C   0  0  0  0  0  0  0  0  0  0  0  0
    1.9917   -5.9321   -1.1062 C   0  0  0  0  0  0  0  0  0  0  0  0
    2.9233   -5.2067   -0.3581 C   0  0  0  0  0  0  0  0  0  0  0  0
    4.2519   -5.1495   -0.7881 C   0  0  0  0  0  0  0  0  0  0  0  0
    4.6393   -5.8075   -1.9587 C   0  0  0  0  0  0  0  0  0  0  0  0
    2.5664   -6.0458   -5.6153 C   0  0  0  0  0  0  0  0  0  0  0  0
    2.3043   -5.5137   -7.0330 C   0  0  0  0  0  0  0  0  0  0  0  0
    2.7980   -6.4872   -8.1093 C   0  0  0  0  0  0  0  0  0  0  0  0
    4.2690   -6.8597   -7.8903 C   0  0  0  0  0  0  0  0  0  0  0  0
    4.5066   -7.4049   -6.4767 C   0  0  0  0  0  0  0  0  0  0  0  0
    9.5327   -3.6992   -4.4528 C   0  0  0  0  0  0  0  0  0  0  0  0
   10.9050   -3.9394   -4.4726 C   0  0  0  0  0  0  0  0  0  0  0  0
   12.6195   -7.0738   -5.6373 H   0  0  0  0  0  0  0  0  0  0  0  0
   10.9104   -6.6972   -6.4902 H   0  0  0  0  0  0  0  0  0  0  0  0
    8.4812   -6.2552   -6.4320 H   0  0  0  0  0  0  0  0  0  0  0  0
    6.9229   -3.6430   -6.0777 H   0  0  0  0  0  0  0  0  0  0  0  0
    6.9171   -3.5557   -4.3164 H   0  0  0  0  0  0  0  0  0  0  0  0
    6.5548   -6.0105   -4.3895 H   0  0  0  0  0  0  0  0  0  0  0  0
    4.7492   -4.5846   -6.2089 H   0  0  0  0  0  0  0  0  0  0  0  0
    4.5394   -4.5355   -4.4604 H   0  0  0  0  0  0  0  0  0  0  0  0
    5.1714   -7.6075   -3.8827 H   0  0  0  0  0  0  0  0  0  0  0  0
    3.5202   -8.1536   -4.1149 H   0  0  0  0  0  0  0  0  0  0  0  0
    1.6493   -7.1632   -2.8426 H   0  0  0  0  0  0  0  0  0  0  0  0
    0.9519   -5.9944   -0.7741 H   0  0  0  0  0  0  0  0  0  0  0  0
    2.6179   -4.6965    0.5590 H   0  0  0  0  0  0  0  0  0  0  0  0
    4.9934   -4.5956   -0.2062 H   0  0  0  0  0  0  0  0  0  0  0  0
    5.6862   -5.7626   -2.2727 H   0  0  0  0  0  0  0  0  0  0  0  0
    2.2373   -5.3048   -4.8683 H   0  0  0  0  0  0  0  0  0  0  0  0
    1.9338   -6.9385   -5.4595 H   0  0  0  0  0  0  0  0  0  0  0  0
    2.7956   -4.5344   -7.1709 H   0  0  0  0  0  0  0  0  0  0  0  0
    1.2244   -5.3240   -7.1547 H   0  0  0  0  0  0  0  0  0  0  0  0
    2.6516   -6.0567   -9.1144 H   0  0  0  0  0  0  0  0  0  0  0  0
    2.1846   -7.4070   -8.0736 H   0  0  0  0  0  0  0  0  0  0  0  0
    4.9082   -5.9762   -8.0645 H   0  0  0  0  0  0  0  0  0  0  0  0
    4.5864   -7.6123   -8.6320 H   0  0  0  0  0  0  0  0  0  0  0  0
    5.5729   -7.6399   -6.3371 H   0  0  0  0  0  0  0  0  0  0  0  0
    3.9549   -8.3569   -6.3703 H   0  0  0  0  0  0  0  0  0  0  0  0
    9.1420   -2.8518   -3.8820 H   0  0  0  0  0  0  0  0  0  0  0  0
   11.6005   -3.2906   -3.9367 H   0  0  0  0  0  0  0  0  0  0  0  0
  1  2  2  0
  2  3  1  0
  2  4  1  0
  3 26  1  0
  4  5  2  0
  4 25  1  0
  5  6  1  0
  5 27  1  0
  6  7  2  0
  6 28  1  0
  7  8  1  0
  7 24  1  0
  8  9  1  0
  8 29  1  0
  8 30  1  0
  9 10  1  0
  9 31  1  0
 11 10  1  1
 10 32  1  0
 10 33  1  0
 11 12  1  0
 11 19  1  0
 11 23  1  0
 12 13  1  0
 12 34  1  0
 12 35  1  0
 13 14  2  0
 13 18  1  0
 14 15  1  0
 14 36  1  0
 15 16  2  0
 15 37  1  0
 16 17  1  0
 16 38  1  0
 17 18  2  0
 17 39  1  0
 18 40  1  0
 19 20  1  0
 19 41  1  0
 19 42  1  0
 20 21  1  0
 20 43  1  0
 20 44  1  0
 21 22  1  0
 21 45  1  0
 21 46  1  0
 22 23  1  0
 22 47  1  0
 22 48  1  0
 23 49  1  0
 23 50  1  0
 24 25  2  0
 24 51  1  0
 25 52  1  0
M  END

