
     RDKit          3D

 29 29  0  0  0  0  0  0  0  0999 V2000
    0.8998   -0.1302    0.2401 C   0  0  0  0  0  0  0  0  0  0  0  0
    2.3933   -0.0116    0.1183 C   0  0  0  0  0  0  0  0  0  0  0  0
    3.0345    1.2115   -0.0045 C   0  0  0  0  0  0  0  0  0  0  0  0
    4.4467    1.1935   -0.1208 C   0  0  0  0  0  0  0  0  0  0  0  0
    5.1563    2.3512   -0.2485 N   0  0  0  0  0  0  0  0  0  0  0  0
    6.5432    2.4171   -0.3310 N   0  0  0  0  0  0  0  0  0  0  0  0
    5.1258    0.0401   -0.1003 N   0  0  0  0  0  0  0  0  0  0  0  0
    4.4073   -1.0878    0.0159 C   0  0  0  0  0  0  0  0  0  0  0  0
    5.1931   -2.3847    0.0233 C   0  0  1  0  0  0  0  0  0  0  0  0
    4.4024   -3.6161    0.4480 C   0  0  0  0  0  0  0  0  0  0  0  0
    5.8691   -2.7160   -1.6882 S   0  0  1  0  0  0  0  0  0  0  0  0
    7.3065   -1.6319   -1.8360 C   0  0  0  0  0  0  0  0  0  0  0  0
    6.3697   -4.1001   -1.7003 O   0  0  0  0  0  0  0  0  0  0  0  0
    4.8677   -2.2798   -2.6731 O   0  0  0  0  0  0  0  0  0  0  0  0
    3.0908   -1.1693    0.1309 N   0  0  0  0  0  0  0  0  0  0  0  0
    0.4021    0.8496    0.2496 H   0  0  0  0  0  0  0  0  0  0  0  0
    0.6418   -0.6763    1.1613 H   0  0  0  0  0  0  0  0  0  0  0  0
    0.5062   -0.7250   -0.5998 H   0  0  0  0  0  0  0  0  0  0  0  0
    2.4779    2.1510   -0.0158 H   0  0  0  0  0  0  0  0  0  0  0  0
    4.6750    3.2393   -0.1858 H   0  0  0  0  0  0  0  0  0  0  0  0
    6.8515    1.9942   -1.2096 H   0  0  0  0  0  0  0  0  0  0  0  0
    6.9499    1.8489    0.4153 H   0  0  0  0  0  0  0  0  0  0  0  0
    6.0967   -2.2524    0.6391 H   0  0  0  0  0  0  0  0  0  0  0  0
    3.5412   -3.7681   -0.2163 H   0  0  0  0  0  0  0  0  0  0  0  0
    4.0133   -3.4696    1.4661 H   0  0  0  0  0  0  0  0  0  0  0  0
    5.0429   -4.5070    0.4233 H   0  0  0  0  0  0  0  0  0  0  0  0
    8.0921   -1.9972   -1.1622 H   0  0  0  0  0  0  0  0  0  0  0  0
    6.9990   -0.6098   -1.5869 H   0  0  0  0  0  0  0  0  0  0  0  0
    7.6192   -1.7235   -2.8852 H   0  0  0  0  0  0  0  0  0  0  0  0
  1  2  1  0
  1 16  1  0
  1 17  1  0
  1 18  1  0
  2  3  2  0
  2 15  1  0
  3  4  1  0
  3 19  1  0
  4  5  1  0
  4  7  2  0
  5  6  1  0
  5 20  1  0
  6 21  1  0
  6 22  1  0
  7  8  1  0
  8  9  1  0
  8 15  2  0
  9 10  1  0
  9 11  1  0
  9 23  1  1
 10 24  1  0
 10 25  1  0
 10 26  1  0
 11 12  1  6
 11 13  2  0
 11 14  2  0
 12 27  1  0
 12 28  1  0
 12 29  1  0
M  END

