
     RDKit          3D

 48 51  0  0  0  0  0  0  0  0999 V2000
    5.5223   -1.8081   -1.6745 C   0  0  0  0  0  0  0  0  0  0  0  0
    4.6115   -0.9184   -0.8863 C   0  0  0  0  0  0  0  0  0  0  0  0
    4.8013    0.3798   -0.8925 N   0  0  0  0  0  0  0  0  0  0  0  0
    3.8045    0.9180   -0.0996 O   0  0  0  0  0  0  0  0  0  0  0  0
    3.0141   -0.0626    0.3731 C   0  0  0  0  0  0  0  0  0  0  0  0
    1.8945    0.3505    1.2631 C   0  0  0  0  0  0  0  0  0  0  0  0
    3.4644   -1.2778   -0.0882 C   0  0  0  0  0  0  0  0  0  0  0  0
    2.8965   -2.6203    0.1521 C   0  0  0  0  0  0  0  0  0  0  0  0
    1.5159   -2.8499    0.0161 C   0  0  0  0  0  0  0  0  0  0  0  0
    0.9186   -4.1105    0.2415 C   0  0  0  0  0  0  0  0  0  0  0  0
   -0.6041   -4.3579    0.0840 B   0  0  0  0  0  0  0  0  0  0  0  0
   -1.5162   -3.4121   -0.2909 O   0  0  0  0  0  0  0  0  0  0  0  0
   -2.8450   -3.9695   -0.1172 C   0  0  2  0  0  0  0  0  0  0  0  0
   -3.7353   -3.4671   -1.2504 C   0  0  0  0  0  0  0  0  0  0  0  0
   -3.3685   -3.4577    1.2299 C   0  0  0  0  0  0  0  0  0  0  0  0
   -2.5615   -5.5298   -0.1288 C   0  0  2  0  0  0  0  0  0  0  0  0
   -2.6035   -6.1450   -1.5323 C   0  0  0  0  0  0  0  0  0  0  0  0
   -3.4185   -6.3502    0.8307 C   0  0  0  0  0  0  0  0  0  0  0  0
   -1.1783   -5.5886    0.3157 O   0  0  0  0  0  0  0  0  0  0  0  0
    1.7860   -5.1465    0.6060 C   0  0  0  0  0  0  0  0  0  0  0  0
    1.5480   -6.4774    0.8953 N   0  0  0  0  0  0  0  0  0  0  0  0
    0.6352   -6.9174    0.8778 H   0  0  0  0  0  0  0  0  0  0  0  0
    2.7277   -7.1480    1.2168 C   0  0  0  0  0  0  0  0  0  0  0  0
    2.8683   -8.3121    1.5173 O   0  0  0  0  0  0  0  0  0  0  0  0
    3.7198   -6.1665    1.1135 N   0  0  0  0  0  0  0  0  0  0  0  0
    4.6918   -6.3752    1.2981 H   0  0  0  0  0  0  0  0  0  0  0  0
    3.1801   -4.9423    0.7434 C   0  0  0  0  0  0  0  0  0  0  0  0
    3.7433   -3.6935    0.5240 C   0  0  0  0  0  0  0  0  0  0  0  0
    6.1386   -1.1991   -2.3500 H   0  0  0  0  0  0  0  0  0  0  0  0
    4.9474   -2.5359   -2.2675 H   0  0  0  0  0  0  0  0  0  0  0  0
    6.1992   -2.3794   -1.0186 H   0  0  0  0  0  0  0  0  0  0  0  0
    2.2444    1.0931    1.9970 H   0  0  0  0  0  0  0  0  0  0  0  0
    1.4884   -0.5193    1.7964 H   0  0  0  0  0  0  0  0  0  0  0  0
    1.0754    0.8152    0.6886 H   0  0  0  0  0  0  0  0  0  0  0  0
    0.8727   -2.0250   -0.2972 H   0  0  0  0  0  0  0  0  0  0  0  0
   -3.8574   -2.3768   -1.1666 H   0  0  0  0  0  0  0  0  0  0  0  0
   -4.7349   -3.9263   -1.1982 H   0  0  0  0  0  0  0  0  0  0  0  0
   -3.3010   -3.6806   -2.2356 H   0  0  0  0  0  0  0  0  0  0  0  0
   -3.3411   -2.3579    1.2265 H   0  0  0  0  0  0  0  0  0  0  0  0
   -2.7442   -3.8079    2.0652 H   0  0  0  0  0  0  0  0  0  0  0  0
   -4.4055   -3.7765    1.4123 H   0  0  0  0  0  0  0  0  0  0  0  0
   -3.6311   -6.1997   -1.9212 H   0  0  0  0  0  0  0  0  0  0  0  0
   -2.1986   -7.1670   -1.4873 H   0  0  0  0  0  0  0  0  0  0  0  0
   -1.9922   -5.5703   -2.2435 H   0  0  0  0  0  0  0  0  0  0  0  0
   -4.4859   -6.2643    0.5738 H   0  0  0  0  0  0  0  0  0  0  0  0
   -3.2821   -6.0337    1.8729 H   0  0  0  0  0  0  0  0  0  0  0  0
   -3.1394   -7.4126    0.7616 H   0  0  0  0  0  0  0  0  0  0  0  0
    4.8151   -3.5336    0.6543 H   0  0  0  0  0  0  0  0  0  0  0  0
  1  2  1  0
  1 29  1  0
  1 30  1  0
  1 31  1  0
  2  3  2  0
  2  7  1  0
  3  4  1  0
  4  5  1  0
  5  6  1  0
  5  7  2  0
  6 32  1  0
  6 33  1  0
  6 34  1  0
  7  8  1  0
  8  9  2  0
  8 28  1  0
  9 10  1  0
  9 35  1  0
 10 11  1  0
 10 20  2  0
 11 12  1  0
 11 19  1  0
 12 13  1  0
 13 14  1  6
 13 15  1  0
 13 16  1  0
 14 36  1  0
 14 37  1  0
 14 38  1  0
 15 39  1  0
 15 40  1  0
 15 41  1  0
 16 17  1  6
 16 18  1  0
 16 19  1  0
 17 42  1  0
 17 43  1  0
 17 44  1  0
 18 45  1  0
 18 46  1  0
 18 47  1  0
 20 21  1  0
 20 27  1  0
 21 22  1  0
 21 23  1  0
 23 24  2  0
 23 25  1  0
 25 26  1  0
 25 27  1  0
 27 28  2  0
 28 48  1  0
M  END

