
     RDKit          3D

 43 44  0  0  0  0  0  0  0  0999 V2000
    3.1264    4.6629    1.7010 C   0  0  0  0  0  0  0  0  0  0  0  0
    4.1282    3.7717    2.1106 O   0  0  0  0  0  0  0  0  0  0  0  0
    4.8393    3.1825    1.0517 C   0  0  0  0  0  0  0  0  0  0  0  0
    5.8749    2.2255    1.6231 C   0  0  1  0  0  0  0  0  0  0  0  0
    5.2779    1.0738    2.4600 C   0  0  0  0  0  0  0  0  0  0  0  0
    6.2853   -0.0578    2.2605 C   0  0  0  0  0  0  0  0  0  0  0  0
    6.6335    0.0823    0.8457 N   0  0  0  0  0  0  0  0  0  0  0  0
    7.6637   -0.7796    0.2526 C   0  0  1  0  0  0  0  0  0  0  0  0
    9.0358   -0.6867    0.9580 C   0  0  0  0  0  0  0  0  0  0  0  0
   10.1040   -1.2073    0.1113 N   0  0  0  0  0  0  0  0  0  0  0  0
    7.1992   -2.2460    0.1422 C   0  0  0  0  0  0  0  0  0  0  0  0
    6.0202   -2.5506   -0.7900 C   0  0  0  0  0  0  0  0  0  0  0  0
    6.0073   -3.5446   -1.4969 O   0  0  0  0  0  0  0  0  0  0  0  0
    4.9943   -1.6511   -0.7351 N   0  0  0  0  0  0  0  0  0  0  0  0
    3.8500   -1.7537   -1.5876 C   0  0  1  0  0  0  0  0  0  0  0  0
    2.6959   -2.6370   -1.1898 C   0  0  0  0  0  0  0  0  0  0  0  0
    2.5598   -1.1356   -1.1201 C   0  0  0  0  0  0  0  0  0  0  0  0
    6.7187    1.5139    0.5334 C   0  0  0  0  0  0  0  0  0  0  0  0
    2.6396    5.0619    2.6030 H   0  0  0  0  0  0  0  0  0  0  0  0
    2.3566    4.1656    1.0759 H   0  0  0  0  0  0  0  0  0  0  0  0
    3.5379    5.5124    1.1180 H   0  0  0  0  0  0  0  0  0  0  0  0
    5.3348    3.9611    0.4318 H   0  0  0  0  0  0  0  0  0  0  0  0
    4.1503    2.6280    0.3759 H   0  0  0  0  0  0  0  0  0  0  0  0
    6.5445    2.8168    2.2693 H   0  0  0  0  0  0  0  0  0  0  0  0
    4.2972    0.7753    2.0524 H   0  0  0  0  0  0  0  0  0  0  0  0
    5.1290    1.3484    3.5135 H   0  0  0  0  0  0  0  0  0  0  0  0
    5.8602   -1.0533    2.4667 H   0  0  0  0  0  0  0  0  0  0  0  0
    7.1539    0.0777    2.9402 H   0  0  0  0  0  0  0  0  0  0  0  0
    7.8286   -0.4044   -0.7718 H   0  0  0  0  0  0  0  0  0  0  0  0
    8.9653   -1.1752    1.9542 H   0  0  0  0  0  0  0  0  0  0  0  0
    9.2528    0.3772    1.1510 H   0  0  0  0  0  0  0  0  0  0  0  0
   10.0691   -2.2257    0.0662 H   0  0  0  0  0  0  0  0  0  0  0  0
   11.0153   -0.9769    0.5057 H   0  0  0  0  0  0  0  0  0  0  0  0
    6.9533   -2.6357    1.1468 H   0  0  0  0  0  0  0  0  0  0  0  0
    8.0216   -2.8666   -0.2386 H   0  0  0  0  0  0  0  0  0  0  0  0
    5.1866   -0.7931   -0.2067 H   0  0  0  0  0  0  0  0  0  0  0  0
    4.0707   -1.7072   -2.6615 H   0  0  0  0  0  0  0  0  0  0  0  0
    2.7936   -3.1831   -0.2482 H   0  0  0  0  0  0  0  0  0  0  0  0
    2.1704   -3.1788   -1.9807 H   0  0  0  0  0  0  0  0  0  0  0  0
    2.5516   -0.6732   -0.1281 H   0  0  0  0  0  0  0  0  0  0  0  0
    1.9355   -0.6245   -1.8583 H   0  0  0  0  0  0  0  0  0  0  0  0
    6.3345    1.6975   -0.4873 H   0  0  0  0  0  0  0  0  0  0  0  0
    7.7605    1.8912    0.5476 H   0  0  0  0  0  0  0  0  0  0  0  0
  1  2  1  0
  1 19  1  0
  1 20  1  0
  1 21  1  0
  2  3  1  0
  3  4  1  0
  3 22  1  0
  3 23  1  0
  4  5  1  0
  4 18  1  0
  4 24  1  1
  5  6  1  0
  5 25  1  0
  5 26  1  0
  6  7  1  0
  6 27  1  0
  6 28  1  0
  7  8  1  0
  7 18  1  0
  8  9  1  0
  8 11  1  0
  8 29  1  6
  9 10  1  0
  9 30  1  0
  9 31  1  0
 10 32  1  0
 10 33  1  0
 11 12  1  0
 11 34  1  0
 11 35  1  0
 12 13  2  0
 12 14  1  0
 14 15  1  0
 14 36  1  0
 15 16  1  0
 15 17  1  0
 15 37  1  6
 16 17  1  0
 16 38  1  0
 16 39  1  0
 17 40  1  0
 17 41  1  0
 18 42  1  0
 18 43  1  0
M  END

