
     RDKit          3D

 38 39  0  0  0  0  0  0  0  0999 V2000
    0.7444   -0.7410    0.5120 C   0  0  0  0  0  0  0  0  0  0  0  0
    2.2641   -0.5925    0.4389 C   0  0  0  0  0  0  0  0  0  0  0  0
    2.7585    0.7759    0.9361 C   0  0  1  0  0  0  0  0  0  0  0  0
    2.2667    1.0501    2.2425 O   0  0  0  0  0  0  0  0  0  0  0  0
    4.2743    0.9669    0.8643 C   0  0  0  0  0  0  0  0  0  0  0  0
    4.9076    1.8175    1.7805 C   0  0  0  0  0  0  0  0  0  0  0  0
    6.2861    2.0543    1.7430 C   0  0  0  0  0  0  0  0  0  0  0  0
    7.0728    1.4339    0.7618 C   0  0  0  0  0  0  0  0  0  0  0  0
    8.4155    1.5907    0.6332 O   0  0  0  0  0  0  0  0  0  0  0  0
    9.1122    2.4280    1.5388 C   0  0  0  0  0  0  0  0  0  0  0  0
   10.5776    2.4313    1.1326 C   0  0  0  0  0  0  0  0  0  0  0  0
   11.4367    3.2478    2.0770 C   0  0  1  0  0  0  0  0  0  0  0  0
   12.7648    3.2850    1.6265 O   0  0  0  0  0  0  0  0  0  0  0  0
   13.3160    4.4602    2.1894 C   0  0  0  0  0  0  0  0  0  0  0  0
   12.1365    5.4463    2.1383 C   0  0  0  0  0  0  0  0  0  0  0  0
   10.9952    4.5985    2.1326 O   0  0  0  0  0  0  0  0  0  0  0  0
    6.4531    0.5823   -0.1683 C   0  0  0  0  0  0  0  0  0  0  0  0
    5.0810    0.3562   -0.1142 C   0  0  0  0  0  0  0  0  0  0  0  0
    0.4255   -1.7449    0.1905 H   0  0  0  0  0  0  0  0  0  0  0  0
    0.2413   -0.0049   -0.1372 H   0  0  0  0  0  0  0  0  0  0  0  0
    0.3839   -0.5724    1.5373 H   0  0  0  0  0  0  0  0  0  0  0  0
    2.5981   -0.7465   -0.6001 H   0  0  0  0  0  0  0  0  0  0  0  0
    2.7561   -1.3828    1.0367 H   0  0  0  0  0  0  0  0  0  0  0  0
    2.2835    1.5526    0.3073 H   0  0  0  0  0  0  0  0  0  0  0  0
    2.7040    0.4366    2.8511 H   0  0  0  0  0  0  0  0  0  0  0  0
    4.3022    2.3107    2.5434 H   0  0  0  0  0  0  0  0  0  0  0  0
    6.7301    2.7259    2.4782 H   0  0  0  0  0  0  0  0  0  0  0  0
    8.9941    2.0519    2.5740 H   0  0  0  0  0  0  0  0  0  0  0  0
    8.7107    3.4562    1.5117 H   0  0  0  0  0  0  0  0  0  0  0  0
   10.6862    2.8487    0.1196 H   0  0  0  0  0  0  0  0  0  0  0  0
   10.9587    1.3979    1.1134 H   0  0  0  0  0  0  0  0  0  0  0  0
   11.4013    2.8246    3.1085 H   0  0  0  0  0  0  0  0  0  0  0  0
   14.1850    4.7693    1.5915 H   0  0  0  0  0  0  0  0  0  0  0  0
   13.6445    4.2820    3.2328 H   0  0  0  0  0  0  0  0  0  0  0  0
   12.1488    6.0574    1.2185 H   0  0  0  0  0  0  0  0  0  0  0  0
   12.1113    6.1243    3.0085 H   0  0  0  0  0  0  0  0  0  0  0  0
    7.0751    0.1045   -0.9282 H   0  0  0  0  0  0  0  0  0  0  0  0
    4.6386   -0.3103   -0.8571 H   0  0  0  0  0  0  0  0  0  0  0  0
  1  2  1  0
  1 19  1  0
  1 20  1  0
  1 21  1  0
  2  3  1  0
  2 22  1  0
  2 23  1  0
  3  4  1  0
  3  5  1  0
  3 24  1  6
  4 25  1  0
  5  6  2  0
  5 18  1  0
  6  7  1  0
  6 26  1  0
  7  8  2  0
  7 27  1  0
  8  9  1  0
  8 17  1  0
  9 10  1  0
 10 11  1  0
 10 28  1  0
 10 29  1  0
 11 12  1  0
 11 30  1  0
 11 31  1  0
 12 13  1  0
 12 16  1  0
 12 32  1  1
 13 14  1  0
 14 15  1  0
 14 33  1  0
 14 34  1  0
 15 16  1  0
 15 35  1  0
 15 36  1  0
 17 18  2  0
 17 37  1  0
 18 38  1  0
M  END

