
     RDKit          3D

 43 45  0  0  0  0  0  0  0  0999 V2000
    1.9442    1.2037    1.0077 C   0  0  0  0  0  0  0  0  0  0  0  0
    2.4421   -0.0011    0.2036 C   0  0  1  0  0  0  0  0  0  0  0  0
    3.4627    0.3883   -0.8697 C   0  0  0  0  0  0  0  0  0  0  0  0
    3.0002   -1.0216    1.0984 N   0  0  0  0  0  0  0  0  0  0  0  0
    4.0856   -0.7319    1.8371 N   0  0  0  0  0  0  0  0  0  0  0  0
    4.3462   -1.8311    2.5387 C   0  0  0  0  0  0  0  0  0  0  0  0
    3.4133   -2.8589    2.2570 C   0  0  0  0  0  0  0  0  0  0  0  0
    2.5590   -2.2951    1.3182 C   0  0  0  0  0  0  0  0  0  0  0  0
    1.3733   -2.9732    0.7036 C   0  0  0  0  0  0  0  0  0  0  0  0
    1.4660   -4.4971    0.9575 C   0  0  2  0  0  0  0  0  0  0  0  0
    0.2240   -5.1746    0.6116 N   0  0  0  0  0  0  0  0  0  0  0  0
   -0.0857   -5.5320   -0.6687 C   0  0  0  0  0  0  0  0  0  0  0  0
    0.6645   -5.3183   -1.6100 O   0  0  0  0  0  0  0  0  0  0  0  0
   -1.4192   -6.2503   -0.8505 C   0  0  1  0  0  0  0  0  0  0  0  0
   -2.2752   -5.6609   -1.9877 C   0  0  0  0  0  0  0  0  0  0  0  0
   -3.1085   -6.8676   -2.4687 C   0  0  0  0  0  0  0  0  0  0  0  0
   -2.5026   -8.0339   -1.9195 O   0  0  0  0  0  0  0  0  0  0  0  0
   -1.2520   -7.6958   -1.3586 C   0  0  0  0  0  0  0  0  0  0  0  0
    1.8672   -4.8140    2.4072 C   0  0  0  0  0  0  0  0  0  0  0  0
    3.2651   -4.2702    2.7510 C   0  0  0  0  0  0  0  0  0  0  0  0
    1.4948    1.9532    0.3376 H   0  0  0  0  0  0  0  0  0  0  0  0
    2.7809    1.6700    1.5486 H   0  0  0  0  0  0  0  0  0  0  0  0
    1.1854    0.9003    1.7457 H   0  0  0  0  0  0  0  0  0  0  0  0
    1.5802   -0.4818   -0.2852 H   0  0  0  0  0  0  0  0  0  0  0  0
    4.3581    0.8234   -0.4018 H   0  0  0  0  0  0  0  0  0  0  0  0
    3.0290    1.1286   -1.5601 H   0  0  0  0  0  0  0  0  0  0  0  0
    3.7734   -0.4905   -1.4553 H   0  0  0  0  0  0  0  0  0  0  0  0
    5.1946   -1.8493    3.2240 H   0  0  0  0  0  0  0  0  0  0  0  0
    1.3102   -2.8031   -0.3831 H   0  0  0  0  0  0  0  0  0  0  0  0
    0.4308   -2.5932    1.1416 H   0  0  0  0  0  0  0  0  0  0  0  0
    2.2348   -4.8983    0.2772 H   0  0  0  0  0  0  0  0  0  0  0  0
   -0.4627   -5.3250    1.3416 H   0  0  0  0  0  0  0  0  0  0  0  0
   -1.9913   -6.2660    0.0925 H   0  0  0  0  0  0  0  0  0  0  0  0
   -1.5980   -5.3041   -2.7780 H   0  0  0  0  0  0  0  0  0  0  0  0
   -2.8976   -4.8144   -1.6607 H   0  0  0  0  0  0  0  0  0  0  0  0
   -3.1304   -6.9270   -3.5725 H   0  0  0  0  0  0  0  0  0  0  0  0
   -4.1543   -6.8258   -2.1172 H   0  0  0  0  0  0  0  0  0  0  0  0
   -0.4374   -7.7247   -2.1093 H   0  0  0  0  0  0  0  0  0  0  0  0
   -1.0201   -8.4183   -0.5603 H   0  0  0  0  0  0  0  0  0  0  0  0
    1.8338   -5.9047    2.5603 H   0  0  0  0  0  0  0  0  0  0  0  0
    1.1201   -4.3679    3.0909 H   0  0  0  0  0  0  0  0  0  0  0  0
    4.0317   -4.9209    2.2905 H   0  0  0  0  0  0  0  0  0  0  0  0
    3.4326   -4.3304    3.8394 H   0  0  0  0  0  0  0  0  0  0  0  0
  1  2  1  0
  1 21  1  0
  1 22  1  0
  1 23  1  0
  2  3  1  0
  2  4  1  0
  2 24  1  6
  3 25  1  0
  3 26  1  0
  3 27  1  0
  4  5  1  0
  4  8  1  0
  5  6  2  0
  6  7  1  0
  6 28  1  0
  7  8  2  0
  7 20  1  0
  8  9  1  0
  9 10  1  0
  9 29  1  0
  9 30  1  0
 10 11  1  0
 10 19  1  0
 10 31  1  6
 11 12  1  0
 11 32  1  0
 12 13  2  0
 12 14  1  0
 14 15  1  0
 14 18  1  0
 14 33  1  1
 15 16  1  0
 15 34  1  0
 15 35  1  0
 16 17  1  0
 16 36  1  0
 16 37  1  0
 17 18  1  0
 18 38  1  0
 18 39  1  0
 19 20  1  0
 19 40  1  0
 19 41  1  0
 20 42  1  0
 20 43  1  0
M  END

