
     RDKit          3D

 55 57  0  0  0  0  0  0  0  0999 V2000
    1.2722    0.8271   -1.7464 C   0  0  0  0  0  0  0  0  0  0  0  0
    0.6176   -0.4730   -1.3438 C   0  0  0  0  0  0  0  0  0  0  0  0
   -0.6241   -0.4963   -0.6927 C   0  0  0  0  0  0  0  0  0  0  0  0
   -1.2380   -1.7083   -0.3570 C   0  0  0  0  0  0  0  0  0  0  0  0
   -0.6176   -2.9180   -0.6612 C   0  0  0  0  0  0  0  0  0  0  0  0
    0.6367   -2.9216   -1.2914 C   0  0  0  0  0  0  0  0  0  0  0  0
    1.2554   -4.2621   -1.5973 C   0  0  0  0  0  0  0  0  0  0  0  0
    0.5798   -5.2811   -1.6644 O   0  0  0  0  0  0  0  0  0  0  0  0
    2.6086   -4.2781   -1.7912 N   0  0  0  0  0  0  0  0  0  0  0  0
    3.3193   -5.5061   -2.1014 C   0  0  0  0  0  0  0  0  0  0  0  0
    3.5102   -6.4334   -0.8932 C   0  0  0  0  0  0  0  0  0  0  0  0
    4.4241   -7.6042   -1.2397 C   0  0  0  0  0  0  0  0  0  0  0  0
    5.4388   -7.4560   -1.9017 O   0  0  0  0  0  0  0  0  0  0  0  0
    4.0323   -8.8178   -0.7447 N   0  0  0  0  0  0  0  0  0  0  0  0
    4.8304  -10.0220   -0.9017 C   0  0  1  0  0  0  0  0  0  0  0  0
    4.8484  -10.8331    0.4209 C   0  0  0  0  0  0  0  0  0  0  0  0
    5.3660  -10.0637    1.6166 C   0  0  0  0  0  0  0  0  0  0  0  0
    4.5016   -9.6458    2.6400 C   0  0  0  0  0  0  0  0  0  0  0  0
    4.9785   -8.9192    3.7360 C   0  0  0  0  0  0  0  0  0  0  0  0
    6.3348   -8.5973    3.8258 C   0  0  0  0  0  0  0  0  0  0  0  0
    7.2092   -9.0095    2.8144 C   0  0  0  0  0  0  0  0  0  0  0  0
    6.7280   -9.7354    1.7228 C   0  0  0  0  0  0  0  0  0  0  0  0
    4.3909  -10.9014   -2.0713 C   0  0  0  0  0  0  0  0  0  0  0  0
    5.3264  -11.7458   -2.6891 C   0  0  0  0  0  0  0  0  0  0  0  0
    4.9478  -12.5988   -3.7282 C   0  0  0  0  0  0  0  0  0  0  0  0
    3.6210  -12.6195   -4.1700 C   0  0  0  0  0  0  0  0  0  0  0  0
    2.6823  -11.7784   -3.5671 C   0  0  0  0  0  0  0  0  0  0  0  0
    3.0657  -10.9263   -2.5265 C   0  0  0  0  0  0  0  0  0  0  0  0
    1.2342   -1.7006   -1.6347 C   0  0  0  0  0  0  0  0  0  0  0  0
    0.7290    1.6947   -1.3441 H   0  0  0  0  0  0  0  0  0  0  0  0
    1.3048    0.9340   -2.8441 H   0  0  0  0  0  0  0  0  0  0  0  0
    2.3127    0.8837   -1.3869 H   0  0  0  0  0  0  0  0  0  0  0  0
   -1.1214    0.4477   -0.4521 H   0  0  0  0  0  0  0  0  0  0  0  0
   -2.2099   -1.7036    0.1432 H   0  0  0  0  0  0  0  0  0  0  0  0
   -1.0822   -3.8765   -0.4239 H   0  0  0  0  0  0  0  0  0  0  0  0
    3.1469   -3.4545   -1.5559 H   0  0  0  0  0  0  0  0  0  0  0  0
    4.3044   -5.2534   -2.5178 H   0  0  0  0  0  0  0  0  0  0  0  0
    2.7546   -6.0411   -2.8802 H   0  0  0  0  0  0  0  0  0  0  0  0
    2.5284   -6.7695   -0.5277 H   0  0  0  0  0  0  0  0  0  0  0  0
    3.9971   -5.8734   -0.0752 H   0  0  0  0  0  0  0  0  0  0  0  0
    3.1972   -8.8547   -0.1729 H   0  0  0  0  0  0  0  0  0  0  0  0
    5.8508   -9.6711   -1.1191 H   0  0  0  0  0  0  0  0  0  0  0  0
    5.4667  -11.7288    0.2505 H   0  0  0  0  0  0  0  0  0  0  0  0
    3.8282  -11.2027    0.6217 H   0  0  0  0  0  0  0  0  0  0  0  0
    3.4391   -9.9019    2.5846 H   0  0  0  0  0  0  0  0  0  0  0  0
    4.2871   -8.6071    4.5232 H   0  0  0  0  0  0  0  0  0  0  0  0
    6.7112   -8.0309    4.6815 H   0  0  0  0  0  0  0  0  0  0  0  0
    8.2731   -8.7663    2.8777 H   0  0  0  0  0  0  0  0  0  0  0  0
    7.4229  -10.0542    0.9402 H   0  0  0  0  0  0  0  0  0  0  0  0
    6.3697  -11.7273   -2.3588 H   0  0  0  0  0  0  0  0  0  0  0  0
    5.6935  -13.2435   -4.2009 H   0  0  0  0  0  0  0  0  0  0  0  0
    3.3228  -13.2826   -4.9861 H   0  0  0  0  0  0  0  0  0  0  0  0
    1.6446  -11.7794   -3.9112 H   0  0  0  0  0  0  0  0  0  0  0  0
    2.3261  -10.2595   -2.0773 H   0  0  0  0  0  0  0  0  0  0  0  0
    2.1881   -1.6902   -2.1708 H   0  0  0  0  0  0  0  0  0  0  0  0
  1  2  1  0
  1 30  1  0
  1 31  1  0
  1 32  1  0
  2  3  2  0
  2 29  1  0
  3  4  1  0
  3 33  1  0
  4  5  2  0
  4 34  1  0
  5  6  1  0
  5 35  1  0
  6  7  1  0
  6 29  2  0
  7  8  2  0
  7  9  1  0
  9 10  1  0
  9 36  1  0
 10 11  1  0
 10 37  1  0
 10 38  1  0
 11 12  1  0
 11 39  1  0
 11 40  1  0
 12 13  2  0
 12 14  1  0
 14 15  1  0
 14 41  1  0
 15 16  1  0
 15 23  1  0
 15 42  1  6
 16 17  1  0
 16 43  1  0
 16 44  1  0
 17 18  2  0
 17 22  1  0
 18 19  1  0
 18 45  1  0
 19 20  2  0
 19 46  1  0
 20 21  1  0
 20 47  1  0
 21 22  2  0
 21 48  1  0
 22 49  1  0
 23 24  2  0
 23 28  1  0
 24 25  1  0
 24 50  1  0
 25 26  2  0
 25 51  1  0
 26 27  1  0
 26 52  1  0
 27 28  2  0
 27 53  1  0
 28 54  1  0
 29 55  1  0
M  END

