
     RDKit          3D

 39 40  0  0  0  0  0  0  0  0999 V2000
    1.1868    1.1921    0.6045 C   0  0  0  0  0  0  0  0  0  0  0  0
    1.7582    0.0490    0.0004 O   0  0  0  0  0  0  0  0  0  0  0  0
    2.6030    0.1970   -1.0500 C   0  0  0  0  0  0  0  0  0  0  0  0
    2.9684    1.4371   -1.5856 C   0  0  0  0  0  0  0  0  0  0  0  0
    3.8113    1.5148   -2.7031 C   0  0  0  0  0  0  0  0  0  0  0  0
    4.2382    2.8577   -3.3039 C   0  0  1  0  0  0  0  0  0  0  0  0
    3.4576    3.9986   -2.8597 N   0  0  0  0  0  0  0  0  0  0  0  0
    3.6725    4.6749   -1.6877 C   0  0  0  0  0  0  0  0  0  0  0  0
    2.8837    5.4450   -1.1847 O   0  0  0  0  0  0  0  0  0  0  0  0
    4.9130    4.4017   -1.0785 N   0  0  0  0  0  0  0  0  0  0  0  0
    5.9554    3.6455   -1.5729 C   0  0  0  0  0  0  0  0  0  0  0  0
    6.9557    3.4043   -0.9446 O   0  0  0  0  0  0  0  0  0  0  0  0
    5.7371    3.1696   -3.0255 C   0  0  2  0  0  0  0  0  0  0  0  0
    6.2543    4.1838   -3.9529 C   0  0  0  0  0  0  0  0  0  0  0  0
    6.6496    4.9797   -4.6960 N   0  0  0  0  0  0  0  0  0  0  0  0
    4.2698    0.3357   -3.2960 C   0  0  0  0  0  0  0  0  0  0  0  0
    3.9205   -0.9044   -2.7513 C   0  0  0  0  0  0  0  0  0  0  0  0
    4.6109   -2.6705   -3.7045 I   0  0  0  0  0  0  0  0  0  0  0  0
    3.1021   -1.0105   -1.6154 C   0  0  0  0  0  0  0  0  0  0  0  0
    2.7200   -2.2196   -1.1577 O   0  0  0  0  0  0  0  0  0  0  0  0
    2.9464   -2.6017    0.2270 C   0  0  1  0  0  0  0  0  0  0  0  0
    1.6690   -3.2652    0.7163 C   0  0  0  0  0  0  0  0  0  0  0  0
    4.1686   -3.5099    0.2947 C   0  0  0  0  0  0  0  0  0  0  0  0
    0.5428    0.8250    1.4140 H   0  0  0  0  0  0  0  0  0  0  0  0
    0.5724    1.7668   -0.1104 H   0  0  0  0  0  0  0  0  0  0  0  0
    1.9567    1.8585    1.0314 H   0  0  0  0  0  0  0  0  0  0  0  0
    2.5669    2.3482   -1.1465 H   0  0  0  0  0  0  0  0  0  0  0  0
    4.1236    2.7886   -4.3962 H   0  0  0  0  0  0  0  0  0  0  0  0
    2.5440    4.1603   -3.2690 H   0  0  0  0  0  0  0  0  0  0  0  0
    5.0462    4.8290   -0.1648 H   0  0  0  0  0  0  0  0  0  0  0  0
    6.3417    2.2591   -3.1403 H   0  0  0  0  0  0  0  0  0  0  0  0
    4.9004    0.3716   -4.1871 H   0  0  0  0  0  0  0  0  0  0  0  0
    3.1320   -1.6905    0.8145 H   0  0  0  0  0  0  0  0  0  0  0  0
    1.4343   -4.1464    0.0983 H   0  0  0  0  0  0  0  0  0  0  0  0
    0.8277   -2.5606    0.6527 H   0  0  0  0  0  0  0  0  0  0  0  0
    1.7790   -3.5940    1.7616 H   0  0  0  0  0  0  0  0  0  0  0  0
    4.0103   -4.4204   -0.3039 H   0  0  0  0  0  0  0  0  0  0  0  0
    4.3641   -3.8071    1.3377 H   0  0  0  0  0  0  0  0  0  0  0  0
    5.0646   -2.9991   -0.0892 H   0  0  0  0  0  0  0  0  0  0  0  0
  1  2  1  0
  1 24  1  0
  1 25  1  0
  1 26  1  0
  2  3  1  0
  3  4  2  0
  3 19  1  0
  4  5  1  0
  4 27  1  0
  5  6  1  0
  5 16  2  0
  6  7  1  0
  6 13  1  0
  6 28  1  6
  7  8  1  0
  7 29  1  0
  8  9  2  0
  8 10  1  0
 10 11  1  0
 10 30  1  0
 11 12  2  0
 11 13  1  0
 13 14  1  0
 13 31  1  1
 14 15  3  0
 16 17  1  0
 16 32  1  0
 17 18  1  0
 17 19  2  0
 19 20  1  0
 20 21  1  0
 21 22  1  0
 21 23  1  0
 21 33  1  1
 22 34  1  0
 22 35  1  0
 22 36  1  0
 23 37  1  0
 23 38  1  0
 23 39  1  0
M  END

