
     RDKit          3D

 49 50  0  0  0  0  0  0  0  0999 V2000
    2.7865    0.3356   -1.9759 C   0  0  0  0  0  0  0  0  0  0  0  0
    2.7926    0.3001   -0.5669 O   0  0  0  0  0  0  0  0  0  0  0  0
    3.3686    1.3184    0.1206 C   0  0  0  0  0  0  0  0  0  0  0  0
    3.9788    2.4349   -0.4683 C   0  0  0  0  0  0  0  0  0  0  0  0
    4.5435    3.4262    0.3442 C   0  0  0  0  0  0  0  0  0  0  0  0
    4.5157    3.3428    1.7403 C   0  0  0  0  0  0  0  0  0  0  0  0
    5.1511    4.4322    2.5957 C   0  0  1  0  0  0  0  0  0  0  0  0
    4.1463    5.0823    3.5689 C   0  0  0  0  0  0  0  0  0  0  0  0
    4.6688    6.2769    4.3887 C   0  0  1  0  0  0  0  0  0  0  0  0
    5.1535    7.4374    3.5083 C   0  0  0  0  0  0  0  0  0  0  0  0
    3.5911    6.7461    5.3757 C   0  0  0  0  0  0  0  0  0  0  0  0
    6.3392    3.9263    3.2897 N   0  0  0  0  0  0  0  0  0  0  0  0
    7.6005    4.4052    3.0604 C   0  0  0  0  0  0  0  0  0  0  0  0
    7.8274    5.3341    2.2944 O   0  0  0  0  0  0  0  0  0  0  0  0
    8.6867    3.7457    3.8711 C   0  0  0  0  0  0  0  0  0  0  0  0
    8.4885    3.6257    5.2630 C   0  0  0  0  0  0  0  0  0  0  0  0
    9.4921    3.1888    6.1223 C   0  0  0  0  0  0  0  0  0  0  0  0
   10.7424    2.8536    5.5885 C   0  0  0  0  0  0  0  0  0  0  0  0
   10.9587    2.9394    4.2186 C   0  0  0  0  0  0  0  0  0  0  0  0
    9.9464    3.3730    3.3393 C   0  0  0  0  0  0  0  0  0  0  0  0
   10.3096    3.3694    2.0376 O   0  0  0  0  0  0  0  0  0  0  0  0
    9.3833    3.2299    0.9736 C   0  0  0  0  0  0  0  0  0  0  0  0
    3.8952    2.2155    2.3124 C   0  0  0  0  0  0  0  0  0  0  0  0
    3.3339    1.2177    1.5233 C   0  0  0  0  0  0  0  0  0  0  0  0
    2.2738   -0.5763   -2.3103 H   0  0  0  0  0  0  0  0  0  0  0  0
    3.8101    0.3427   -2.3926 H   0  0  0  0  0  0  0  0  0  0  0  0
    2.2405    1.2148   -2.3637 H   0  0  0  0  0  0  0  0  0  0  0  0
    4.0229    2.5462   -1.5519 H   0  0  0  0  0  0  0  0  0  0  0  0
    5.0195    4.2885   -0.1313 H   0  0  0  0  0  0  0  0  0  0  0  0
    5.5383    5.2043    1.9186 H   0  0  0  0  0  0  0  0  0  0  0  0
    3.7689    4.3112    4.2649 H   0  0  0  0  0  0  0  0  0  0  0  0
    3.2711    5.4042    2.9764 H   0  0  0  0  0  0  0  0  0  0  0  0
    5.5324    5.9229    4.9812 H   0  0  0  0  0  0  0  0  0  0  0  0
    4.3480    7.7886    2.8392 H   0  0  0  0  0  0  0  0  0  0  0  0
    6.0189    7.1540    2.8907 H   0  0  0  0  0  0  0  0  0  0  0  0
    5.4613    8.2938    4.1299 H   0  0  0  0  0  0  0  0  0  0  0  0
    2.7009    7.1210    4.8413 H   0  0  0  0  0  0  0  0  0  0  0  0
    3.9631    7.5641    6.0134 H   0  0  0  0  0  0  0  0  0  0  0  0
    3.2602    5.9286    6.0375 H   0  0  0  0  0  0  0  0  0  0  0  0
    6.2477    3.0797    3.8395 H   0  0  0  0  0  0  0  0  0  0  0  0
    7.5247    3.9313    5.6778 H   0  0  0  0  0  0  0  0  0  0  0  0
    9.3081    3.1264    7.1970 H   0  0  0  0  0  0  0  0  0  0  0  0
   11.5495    2.5135    6.2426 H   0  0  0  0  0  0  0  0  0  0  0  0
   11.9163    2.6595    3.7752 H   0  0  0  0  0  0  0  0  0  0  0  0
    9.9449    2.7953    0.1338 H   0  0  0  0  0  0  0  0  0  0  0  0
    8.9556    4.1988    0.6822 H   0  0  0  0  0  0  0  0  0  0  0  0
    8.5619    2.5436    1.2445 H   0  0  0  0  0  0  0  0  0  0  0  0
    3.8421    2.1095    3.4002 H   0  0  0  0  0  0  0  0  0  0  0  0
    2.8534    0.3437    1.9678 H   0  0  0  0  0  0  0  0  0  0  0  0
  1  2  1  0
  1 25  1  0
  1 26  1  0
  1 27  1  0
  2  3  1  0
  3  4  2  0
  3 24  1  0
  4  5  1  0
  4 28  1  0
  5  6  2  0
  5 29  1  0
  6  7  1  0
  6 23  1  0
  7  8  1  0
  7 12  1  0
  7 30  1  6
  8  9  1  0
  8 31  1  0
  8 32  1  0
  9 10  1  0
  9 11  1  0
  9 33  1  1
 10 34  1  0
 10 35  1  0
 10 36  1  0
 11 37  1  0
 11 38  1  0
 11 39  1  0
 12 13  1  0
 12 40  1  0
 13 14  2  0
 13 15  1  0
 15 16  2  0
 15 20  1  0
 16 17  1  0
 16 41  1  0
 17 18  2  0
 17 42  1  0
 18 19  1  0
 18 43  1  0
 19 20  2  0
 19 44  1  0
 20 21  1  0
 21 22  1  0
 22 45  1  0
 22 46  1  0
 22 47  1  0
 23 24  2  0
 23 48  1  0
 24 49  1  0
M  END

