
     RDKit          3D

 35 36  0  0  0  0  0  0  0  0999 V2000
    0.9730   -0.3440    0.0244 C   0  0  0  0  0  0  0  0  0  0  0  0
    2.4662   -0.2002   -0.0977 C   0  0  0  0  0  0  0  0  0  0  0  0
    3.0881    0.5142   -1.1296 C   0  0  0  0  0  0  0  0  0  0  0  0
    4.4801    0.6235   -1.2135 C   0  0  0  0  0  0  0  0  0  0  0  0
    5.3056    0.0228   -0.2554 C   0  0  0  0  0  0  0  0  0  0  0  0
    6.8210    0.1344   -0.3442 C   0  0  1  0  0  0  0  0  0  0  0  0
    7.4337    0.8252    0.8874 C   0  0  0  0  0  0  0  0  0  0  0  0
    7.3871   -1.1946   -0.5722 N   0  0  0  0  0  0  0  0  0  0  0  0
    8.5877   -1.4653   -1.1574 C   0  0  0  0  0  0  0  0  0  0  0  0
    9.4988   -0.4886   -1.6234 C   0  0  0  0  0  0  0  0  0  0  0  0
   10.7015   -0.8558   -2.2216 C   0  0  0  0  0  0  0  0  0  0  0  0
   11.0230   -2.2056   -2.3649 C   0  0  0  0  0  0  0  0  0  0  0  0
   12.2869   -2.5906   -2.9899 N   0  0  0  0  0  0  0  0  0  0  0  0
   13.0304   -1.6962   -3.3708 O   0  0  0  0  0  0  0  0  0  0  0  0
   12.5274   -3.7861   -3.0961 O   0  0  0  0  0  0  0  0  0  0  0  0
   10.1500   -3.2090   -1.9174 C   0  0  0  0  0  0  0  0  0  0  0  0
    8.9667   -2.8242   -1.3307 C   0  0  0  0  0  0  0  0  0  0  0  0
    8.0941   -3.7551   -0.8897 F   0  0  0  0  0  0  0  0  0  0  0  0
    4.7012   -0.6947    0.7902 C   0  0  0  0  0  0  0  0  0  0  0  0
    3.3161   -0.7938    0.8452 C   0  0  0  0  0  0  0  0  0  0  0  0
    2.7610   -1.4875    1.8545 F   0  0  0  0  0  0  0  0  0  0  0  0
    0.4572    0.1894   -0.7864 H   0  0  0  0  0  0  0  0  0  0  0  0
    0.6105    0.0547    0.9860 H   0  0  0  0  0  0  0  0  0  0  0  0
    0.6695   -1.4031   -0.0117 H   0  0  0  0  0  0  0  0  0  0  0  0
    2.4642    0.9937   -1.8887 H   0  0  0  0  0  0  0  0  0  0  0  0
    4.9271    1.1839   -2.0385 H   0  0  0  0  0  0  0  0  0  0  0  0
    7.0473    0.7510   -1.2310 H   0  0  0  0  0  0  0  0  0  0  0  0
    7.2168    0.2597    1.8064 H   0  0  0  0  0  0  0  0  0  0  0  0
    7.0233    1.8403    1.0025 H   0  0  0  0  0  0  0  0  0  0  0  0
    8.5273    0.9027    0.7921 H   0  0  0  0  0  0  0  0  0  0  0  0
    6.8137   -1.9952   -0.3361 H   0  0  0  0  0  0  0  0  0  0  0  0
    9.2627    0.5697   -1.5141 H   0  0  0  0  0  0  0  0  0  0  0  0
   11.4045   -0.1053   -2.5817 H   0  0  0  0  0  0  0  0  0  0  0  0
   10.4040   -4.2617   -2.0333 H   0  0  0  0  0  0  0  0  0  0  0  0
    5.2843   -1.1782    1.5774 H   0  0  0  0  0  0  0  0  0  0  0  0
  1  2  1  0
  1 22  1  0
  1 23  1  0
  1 24  1  0
  2  3  2  0
  2 20  1  0
  3  4  1  0
  3 25  1  0
  4  5  2  0
  4 26  1  0
  5  6  1  0
  5 19  1  0
  6  7  1  0
  6  8  1  0
  6 27  1  6
  7 28  1  0
  7 29  1  0
  7 30  1  0
  8  9  1  0
  8 31  1  0
  9 10  2  0
  9 17  1  0
 10 11  1  0
 10 32  1  0
 11 12  2  0
 11 33  1  0
 12 13  1  0
 12 16  1  0
 13 14  2  0
 13 15  1  0
 16 17  2  0
 16 34  1  0
 17 18  1  0
 19 20  2  0
 19 35  1  0
 20 21  1  0
M  CHG  2  13   1  15  -1
M  END

