
     RDKit          3D

 32 34  0  0  0  0  0  0  0  0999 V2000
    5.3596    1.1405   -0.8638 O   0  0  0  0  0  0  0  0  0  0  0  0
    5.6664    0.0012   -0.5802 C   0  0  0  0  0  0  0  0  0  0  0  0
    4.7152   -1.1096   -0.5248 C   0  0  0  0  0  0  0  0  0  0  0  0
    3.3543   -1.0610   -0.7769 C   0  0  0  0  0  0  0  0  0  0  0  0
    2.7186   -2.3118   -0.6386 C   0  0  0  0  0  0  0  0  0  0  0  0
    3.5881   -3.3386   -0.2765 C   0  0  0  0  0  0  0  0  0  0  0  0
    3.2868   -4.7358   -0.0497 C   0  0  0  0  0  0  0  0  0  0  0  0
    4.1443   -5.7700    0.2929 C   0  0  0  0  0  0  0  0  0  0  0  0
    3.4956   -7.0168    0.4474 C   0  0  0  0  0  0  0  0  0  0  0  0
    2.1296   -6.9721    0.2149 C   0  0  0  0  0  0  0  0  0  0  0  0
    1.1402   -8.0556    0.2656 C   0  0  0  0  0  0  0  0  0  0  0  0
    1.5214   -9.3510    0.1831 C   0  0  0  0  0  0  0  0  0  0  0  0
    0.5866  -10.5228    0.3072 C   0  0  0  0  0  0  0  0  0  0  0  0
   -0.7956  -10.1263    0.8372 C   0  0  0  0  0  0  0  0  0  0  0  0
   -1.2803   -8.8440    0.1570 C   0  0  0  0  0  0  0  0  0  0  0  0
   -0.3226   -7.6790    0.4311 C   0  0  0  0  0  0  0  0  0  0  0  0
    1.6502   -5.3360   -0.1829 S   0  0  0  0  0  0  0  0  0  0  0  0
    5.2142   -2.7309   -0.1084 S   0  0  0  0  0  0  0  0  0  0  0  0
    6.7267   -0.2699   -0.3378 H   0  0  0  0  0  0  0  0  0  0  0  0
    2.8573   -0.1305   -1.0535 H   0  0  0  0  0  0  0  0  0  0  0  0
    1.6515   -2.4738   -0.7985 H   0  0  0  0  0  0  0  0  0  0  0  0
    5.2162   -5.6261    0.4403 H   0  0  0  0  0  0  0  0  0  0  0  0
    4.0139   -7.9287    0.7449 H   0  0  0  0  0  0  0  0  0  0  0  0
    2.5759   -9.5846    0.0046 H   0  0  0  0  0  0  0  0  0  0  0  0
    1.0466  -11.2900    0.9559 H   0  0  0  0  0  0  0  0  0  0  0  0
    0.4890  -11.0108   -0.6833 H   0  0  0  0  0  0  0  0  0  0  0  0
   -0.7367   -9.9588    1.9277 H   0  0  0  0  0  0  0  0  0  0  0  0
   -1.5136  -10.9482    0.6839 H   0  0  0  0  0  0  0  0  0  0  0  0
   -2.2952   -8.5793    0.4950 H   0  0  0  0  0  0  0  0  0  0  0  0
   -1.3469   -9.0150   -0.9326 H   0  0  0  0  0  0  0  0  0  0  0  0
   -0.4766   -7.2891    1.4550 H   0  0  0  0  0  0  0  0  0  0  0  0
   -0.5641   -6.8362   -0.2403 H   0  0  0  0  0  0  0  0  0  0  0  0
  1  2  2  0
  2  3  1  0
  2 19  1  0
  3  4  2  0
  3 18  1  0
  4  5  1  0
  4 20  1  0
  5  6  2  0
  5 21  1  0
  6  7  1  0
  6 18  1  0
  7  8  2  0
  7 17  1  0
  8  9  1  0
  8 22  1  0
  9 10  2  0
  9 23  1  0
 10 11  1  0
 10 17  1  0
 11 12  2  0
 11 16  1  0
 12 13  1  0
 12 24  1  0
 13 14  1  0
 13 25  1  0
 13 26  1  0
 14 15  1  0
 14 27  1  0
 14 28  1  0
 15 16  1  0
 15 29  1  0
 15 30  1  0
 16 31  1  0
 16 32  1  0
M  END

