
     RDKit          3D

 48 51  0  0  0  0  0  0  0  0999 V2000
    2.0363   -3.9955   -2.8082 C   0  0  0  0  0  0  0  0  0  0  0  0
    1.5951   -2.6172   -2.6450 N   0  0  0  0  0  0  0  0  0  0  0  0
    1.5215   -1.6814   -3.6528 C   0  0  0  0  0  0  0  0  0  0  0  0
    1.1558   -0.4984   -3.0469 C   0  0  0  0  0  0  0  0  0  0  0  0
    1.0133   -0.6822   -1.7016 N   0  0  0  0  0  0  0  0  0  0  0  0
    1.2812   -1.9570   -1.4794 C   0  0  0  0  0  0  0  0  0  0  0  0
    1.2562   -2.5851   -0.1261 C   0  0  0  0  0  0  0  0  0  0  0  0
   -0.4285   -2.7774    0.6277 S   0  0  0  0  0  0  0  0  0  0  0  0
   -0.9171   -4.3162   -0.0712 C   0  0  0  0  0  0  0  0  0  0  0  0
   -0.1433   -5.2089   -0.6470 N   0  0  0  0  0  0  0  0  0  0  0  0
   -0.9382   -6.2502   -1.0534 N   0  0  0  0  0  0  0  0  0  0  0  0
   -2.1708   -5.9745   -0.7083 C   0  0  0  0  0  0  0  0  0  0  0  0
   -3.3521   -6.8423   -1.0215 C   0  0  0  0  0  0  0  0  0  0  0  0
   -4.2150   -6.3045   -2.1421 C   0  0  0  0  0  0  0  0  0  0  0  0
   -3.8163   -5.7940   -3.3547 C   0  0  0  0  0  0  0  0  0  0  0  0
   -4.9096   -5.4074   -4.1892 C   0  0  0  0  0  0  0  0  0  0  0  0
   -6.1296   -5.6259   -3.6021 C   0  0  0  0  0  0  0  0  0  0  0  0
   -5.9542   -6.3089   -2.0212 S   0  0  0  0  0  0  0  0  0  0  0  0
   -2.2248   -4.7456   -0.0778 N   0  0  0  0  0  0  0  0  0  0  0  0
   -3.4043   -4.0513    0.4289 C   0  0  0  0  0  0  0  0  0  0  0  0
   -3.8709   -4.5049    1.8277 C   0  0  0  0  0  0  0  0  0  0  0  0
   -2.8965   -4.2302    2.9521 C   0  0  0  0  0  0  0  0  0  0  0  0
   -2.8890   -2.9857    3.6032 C   0  0  0  0  0  0  0  0  0  0  0  0
   -1.9727   -2.7146    4.6217 C   0  0  0  0  0  0  0  0  0  0  0  0
   -1.0455   -3.6875    5.0078 C   0  0  0  0  0  0  0  0  0  0  0  0
   -1.0446   -4.9314    4.3715 C   0  0  0  0  0  0  0  0  0  0  0  0
   -1.9644   -5.1996    3.3537 C   0  0  0  0  0  0  0  0  0  0  0  0
    1.7948   -4.3288   -3.8271 H   0  0  0  0  0  0  0  0  0  0  0  0
    1.5081   -4.6454   -2.0959 H   0  0  0  0  0  0  0  0  0  0  0  0
    3.1259   -4.0833   -2.6616 H   0  0  0  0  0  0  0  0  0  0  0  0
    1.7353   -1.9388   -4.6876 H   0  0  0  0  0  0  0  0  0  0  0  0
    0.9900    0.4702   -3.5179 H   0  0  0  0  0  0  0  0  0  0  0  0
    1.7525   -1.9150    0.5891 H   0  0  0  0  0  0  0  0  0  0  0  0
    1.7402   -3.5680   -0.0907 H   0  0  0  0  0  0  0  0  0  0  0  0
   -3.9659   -7.0082   -0.1219 H   0  0  0  0  0  0  0  0  0  0  0  0
   -2.9359   -7.8227   -1.3032 H   0  0  0  0  0  0  0  0  0  0  0  0
   -2.7656   -5.7030   -3.6361 H   0  0  0  0  0  0  0  0  0  0  0  0
   -4.7930   -4.9822   -5.1875 H   0  0  0  0  0  0  0  0  0  0  0  0
   -7.1210   -5.4259   -4.0060 H   0  0  0  0  0  0  0  0  0  0  0  0
   -4.2182   -4.2047   -0.2957 H   0  0  0  0  0  0  0  0  0  0  0  0
   -3.1705   -2.9759    0.4340 H   0  0  0  0  0  0  0  0  0  0  0  0
   -4.1088   -5.5806    1.7945 H   0  0  0  0  0  0  0  0  0  0  0  0
   -4.8225   -3.9835    2.0238 H   0  0  0  0  0  0  0  0  0  0  0  0
   -3.6128   -2.2190    3.3104 H   0  0  0  0  0  0  0  0  0  0  0  0
   -1.9841   -1.7406    5.1176 H   0  0  0  0  0  0  0  0  0  0  0  0
   -0.3281   -3.4771    5.8051 H   0  0  0  0  0  0  0  0  0  0  0  0
   -0.3257   -5.6992    4.6686 H   0  0  0  0  0  0  0  0  0  0  0  0
   -1.9577   -6.1784    2.8655 H   0  0  0  0  0  0  0  0  0  0  0  0
  1  2  1  0
  1 28  1  0
  1 29  1  0
  1 30  1  0
  2  3  1  0
  2  6  1  0
  3  4  2  0
  3 31  1  0
  4  5  1  0
  4 32  1  0
  5  6  2  0
  6  7  1  0
  7  8  1  0
  7 33  1  0
  7 34  1  0
  8  9  1  0
  9 10  2  0
  9 19  1  0
 10 11  1  0
 11 12  2  0
 12 13  1  0
 12 19  1  0
 13 14  1  0
 13 35  1  0
 13 36  1  0
 14 15  2  0
 14 18  1  0
 15 16  1  0
 15 37  1  0
 16 17  2  0
 16 38  1  0
 17 18  1  0
 17 39  1  0
 19 20  1  0
 20 21  1  0
 20 40  1  0
 20 41  1  0
 21 22  1  0
 21 42  1  0
 21 43  1  0
 22 23  2  0
 22 27  1  0
 23 24  1  0
 23 44  1  0
 24 25  2  0
 24 45  1  0
 25 26  1  0
 25 46  1  0
 26 27  2  0
 26 47  1  0
 27 48  1  0
M  END

