
     RDKit          3D

 36 37  0  0  0  0  0  0  0  0999 V2000
    1.3860   -0.9455   -0.4343 C   0  0  0  0  0  0  0  0  0  0  0  0
    1.9650    0.0910    0.3318 O   0  0  0  0  0  0  0  0  0  0  0  0
    2.8723   -0.2261    1.2830 C   0  0  0  0  0  0  0  0  0  0  0  0
    3.4126    0.8458    2.0224 C   0  0  0  0  0  0  0  0  0  0  0  0
    4.3445    0.6223    3.0188 C   0  0  0  0  0  0  0  0  0  0  0  0
    4.8134   -0.6755    3.3457 C   0  0  0  0  0  0  0  0  0  0  0  0
    5.7677   -0.8655    4.3371 N   0  0  0  0  0  0  0  0  0  0  0  0
    6.5575    0.0972    4.8794 C   0  0  0  0  0  0  0  0  0  0  0  0
    7.4406   -0.0827    5.9100 C   0  0  0  0  0  0  0  0  0  0  0  0
    7.6220   -1.3657    6.5767 C   0  0  0  0  0  0  0  0  0  0  0  0
    6.9998   -2.3703    6.2179 O   0  0  0  0  0  0  0  0  0  0  0  0
    8.5879   -1.4825    7.7274 C   0  0  0  0  0  0  0  0  0  0  0  0
    8.7616   -2.7524    8.3043 C   0  0  0  0  0  0  0  0  0  0  0  0
    9.6349   -2.9360    9.3705 C   0  0  0  0  0  0  0  0  0  0  0  0
   10.3564   -1.8525    9.8889 C   0  0  0  0  0  0  0  0  0  0  0  0
   11.4404   -2.1097   11.2217 Cl  0  0  0  0  0  0  0  0  0  0  0  0
   10.1902   -0.5773    9.3226 C   0  0  0  0  0  0  0  0  0  0  0  0
   11.0634    0.7998    9.9355 Cl  0  0  0  0  0  0  0  0  0  0  0  0
    9.3117   -0.4013    8.2501 C   0  0  0  0  0  0  0  0  0  0  0  0
    4.2435   -1.7379    2.5979 C   0  0  0  0  0  0  0  0  0  0  0  0
    4.6091   -3.1429    2.8206 N   0  0  0  0  0  0  0  0  0  0  0  0
    5.2917   -3.4180    3.8025 O   0  0  0  0  0  0  0  0  0  0  0  0
    4.2087   -3.9741    2.0204 O   0  0  0  0  0  0  0  0  0  0  0  0
    3.2941   -1.5165    1.5855 C   0  0  0  0  0  0  0  0  0  0  0  0
    0.6896   -0.4649   -1.1337 H   0  0  0  0  0  0  0  0  0  0  0  0
    0.8268   -1.6571    0.1989 H   0  0  0  0  0  0  0  0  0  0  0  0
    2.1475   -1.5021   -1.0090 H   0  0  0  0  0  0  0  0  0  0  0  0
    3.0662    1.8573    1.8013 H   0  0  0  0  0  0  0  0  0  0  0  0
    4.7072    1.4790    3.5860 H   0  0  0  0  0  0  0  0  0  0  0  0
    5.9138   -1.8215    4.6909 H   0  0  0  0  0  0  0  0  0  0  0  0
    6.4843    1.0897    4.4289 H   0  0  0  0  0  0  0  0  0  0  0  0
    8.0215    0.7863    6.2121 H   0  0  0  0  0  0  0  0  0  0  0  0
    8.1927   -3.5869    7.8918 H   0  0  0  0  0  0  0  0  0  0  0  0
    9.7727   -3.9212    9.8192 H   0  0  0  0  0  0  0  0  0  0  0  0
    9.2106    0.6040    7.8433 H   0  0  0  0  0  0  0  0  0  0  0  0
    2.9232   -2.3938    1.0622 H   0  0  0  0  0  0  0  0  0  0  0  0
  1  2  1  0
  1 25  1  0
  1 26  1  0
  1 27  1  0
  2  3  1  0
  3  4  2  0
  3 24  1  0
  4  5  1  0
  4 28  1  0
  5  6  2  0
  5 29  1  0
  6  7  1  0
  6 20  1  0
  7  8  1  0
  7 30  1  0
  8  9  2  0
  8 31  1  0
  9 10  1  0
  9 32  1  0
 10 11  2  0
 10 12  1  0
 12 13  2  0
 12 19  1  0
 13 14  1  0
 13 33  1  0
 14 15  2  0
 14 34  1  0
 15 16  1  0
 15 17  1  0
 17 18  1  0
 17 19  2  0
 19 35  1  0
 20 21  1  0
 20 24  2  0
 21 22  2  0
 21 23  1  0
 24 36  1  0
M  CHG  2  21   1  23  -1
M  END

