
     RDKit          3D

 32 33  0  0  0  0  0  0  0  0999 V2000
    1.1827    0.0132    0.5164 O   0  0  0  0  0  0  0  0  0  0  0  0
    2.3436   -0.1066    0.1990 C   0  0  0  0  0  0  0  0  0  0  0  0
    2.9624   -1.4341   -0.2008 C   0  0  0  0  0  0  0  0  0  0  0  0
    3.9721   -1.2790   -1.3461 C   0  0  0  0  0  0  0  0  0  0  0  0
    4.9377   -0.1245   -1.0797 C   0  0  0  0  0  0  0  0  0  0  0  0
    4.2087    1.1245   -0.8979 N   0  0  0  0  0  0  0  0  0  0  0  0
    5.0588    2.3073   -0.9116 C   0  0  0  0  0  0  0  0  0  0  0  0
    4.3028    3.6064   -1.2478 C   0  0  0  0  0  0  0  0  0  0  0  0
    5.2264    4.7991   -1.3610 C   0  0  0  0  0  0  0  0  0  0  0  0
    5.8249    5.1354   -2.5866 C   0  0  0  0  0  0  0  0  0  0  0  0
    6.7085    6.2118   -2.6952 C   0  0  0  0  0  0  0  0  0  0  0  0
    6.9985    6.9607   -1.5572 C   0  0  0  0  0  0  0  0  0  0  0  0
    7.8444    7.9984   -1.6521 F   0  0  0  0  0  0  0  0  0  0  0  0
    6.4251    6.6596   -0.3243 C   0  0  0  0  0  0  0  0  0  0  0  0
    5.5430    5.5797   -0.2370 C   0  0  0  0  0  0  0  0  0  0  0  0
    3.3093    1.0767    0.2484 C   0  0  0  0  0  0  0  0  0  0  0  0
    2.1558   -2.1461   -0.4282 H   0  0  0  0  0  0  0  0  0  0  0  0
    3.4871   -1.8090    0.6995 H   0  0  0  0  0  0  0  0  0  0  0  0
    3.4348   -1.0738   -2.2868 H   0  0  0  0  0  0  0  0  0  0  0  0
    4.5354   -2.2155   -1.4873 H   0  0  0  0  0  0  0  0  0  0  0  0
    5.6205   -0.0062   -1.9357 H   0  0  0  0  0  0  0  0  0  0  0  0
    5.5759   -0.3650   -0.1940 H   0  0  0  0  0  0  0  0  0  0  0  0
    5.8338    2.1540   -1.6797 H   0  0  0  0  0  0  0  0  0  0  0  0
    5.6025    2.4376    0.0532 H   0  0  0  0  0  0  0  0  0  0  0  0
    3.5417    3.8093   -0.4777 H   0  0  0  0  0  0  0  0  0  0  0  0
    3.7612    3.4476   -2.1940 H   0  0  0  0  0  0  0  0  0  0  0  0
    5.5898    4.5485   -3.4792 H   0  0  0  0  0  0  0  0  0  0  0  0
    7.1710    6.4814   -3.6469 H   0  0  0  0  0  0  0  0  0  0  0  0
    6.6703    7.2724    0.5455 H   0  0  0  0  0  0  0  0  0  0  0  0
    5.0855    5.3445    0.7283 H   0  0  0  0  0  0  0  0  0  0  0  0
    2.6970    1.9861    0.3067 H   0  0  0  0  0  0  0  0  0  0  0  0
    3.8717    0.9958    1.2148 H   0  0  0  0  0  0  0  0  0  0  0  0
  1  2  2  0
  2  3  1  0
  2 16  1  0
  3  4  1  0
  3 17  1  0
  3 18  1  0
  4  5  1  0
  4 19  1  0
  4 20  1  0
  5  6  1  0
  5 21  1  0
  5 22  1  0
  6  7  1  0
  6 16  1  0
  7  8  1  0
  7 23  1  0
  7 24  1  0
  8  9  1  0
  8 25  1  0
  8 26  1  0
  9 10  2  0
  9 15  1  0
 10 11  1  0
 10 27  1  0
 11 12  2  0
 11 28  1  0
 12 13  1  0
 12 14  1  0
 14 15  2  0
 14 29  1  0
 15 30  1  0
 16 31  1  0
 16 32  1  0
M  END

