
     RDKit          3D

 49 49  0  0  0  0  0  0  0  0999 V2000
    1.7727   -2.2229   -1.1254 C   0  0  0  0  0  0  0  0  0  0  0  0
    2.3213   -0.8481   -1.4647 C   0  0  0  0  0  0  0  0  0  0  0  0
    3.6444   -0.7761   -0.9726 O   0  0  0  0  0  0  0  0  0  0  0  0
    4.4884    0.2669   -1.4292 C   0  0  1  0  0  0  0  0  0  0  0  0
    3.8643    1.6551   -1.2063 C   0  0  0  0  0  0  0  0  0  0  0  0
    5.7695    0.1172   -0.5924 C   0  0  0  0  0  0  0  0  0  0  0  0
    4.8791    0.0746   -2.9094 C   0  0  0  0  0  0  0  0  0  0  0  0
    5.4836    1.1074   -3.5055 N   0  0  0  0  0  0  0  0  0  0  0  0
    5.8875    0.9578   -4.7709 C   0  0  0  0  0  0  0  0  0  0  0  0
    6.5699    2.1348   -5.4163 C   0  0  0  0  0  0  0  0  0  0  0  0
    5.6763   -0.2519   -5.4690 C   0  0  0  0  0  0  0  0  0  0  0  0
    6.1422   -0.4267   -6.8992 C   0  0  0  0  0  0  0  0  0  0  0  0
    7.5909   -0.6184   -6.9517 N   0  0  0  0  0  0  0  0  0  0  0  0
    8.2261   -0.9238   -8.2503 C   0  0  1  0  0  0  0  0  0  0  0  0
    7.9753    0.2334   -9.2319 C   0  0  0  0  0  0  0  0  0  0  0  0
    9.7342   -1.0349   -7.9729 C   0  0  0  0  0  0  0  0  0  0  0  0
    7.7220   -2.2485   -8.8668 C   0  0  0  0  0  0  0  0  0  0  0  0
    5.0490   -1.2843   -4.7466 C   0  0  0  0  0  0  0  0  0  0  0  0
    4.7699   -2.6441   -5.3423 C   0  0  0  0  0  0  0  0  0  0  0  0
    4.6559   -1.1087   -3.4761 N   0  0  0  0  0  0  0  0  0  0  0  0
    0.7251   -2.3178   -1.4534 H   0  0  0  0  0  0  0  0  0  0  0  0
    1.8150   -2.3973   -0.0387 H   0  0  0  0  0  0  0  0  0  0  0  0
    2.3727   -3.0014   -1.6205 H   0  0  0  0  0  0  0  0  0  0  0  0
    1.6888   -0.0623   -1.0052 H   0  0  0  0  0  0  0  0  0  0  0  0
    2.2955   -0.6942   -2.5589 H   0  0  0  0  0  0  0  0  0  0  0  0
    3.5794    1.7614   -0.1480 H   0  0  0  0  0  0  0  0  0  0  0  0
    2.9677    1.8058   -1.8263 H   0  0  0  0  0  0  0  0  0  0  0  0
    4.5828    2.4414   -1.4704 H   0  0  0  0  0  0  0  0  0  0  0  0
    5.5322    0.2632    0.4724 H   0  0  0  0  0  0  0  0  0  0  0  0
    6.5262    0.8518   -0.9024 H   0  0  0  0  0  0  0  0  0  0  0  0
    6.1749   -0.8975   -0.7202 H   0  0  0  0  0  0  0  0  0  0  0  0
    6.7789    2.8989   -4.6570 H   0  0  0  0  0  0  0  0  0  0  0  0
    5.9249    2.5840   -6.1915 H   0  0  0  0  0  0  0  0  0  0  0  0
    7.5006    1.8171   -5.9086 H   0  0  0  0  0  0  0  0  0  0  0  0
    5.8881    0.4808   -7.4703 H   0  0  0  0  0  0  0  0  0  0  0  0
    5.5686   -1.2482   -7.3705 H   0  0  0  0  0  0  0  0  0  0  0  0
    7.8640   -1.3246   -6.2688 H   0  0  0  0  0  0  0  0  0  0  0  0
    8.2929    1.1912   -8.7913 H   0  0  0  0  0  0  0  0  0  0  0  0
    6.9130    0.3174   -9.5102 H   0  0  0  0  0  0  0  0  0  0  0  0
    8.5433    0.0757  -10.1619 H   0  0  0  0  0  0  0  0  0  0  0  0
   10.1174   -0.0969   -7.5436 H   0  0  0  0  0  0  0  0  0  0  0  0
   10.2925   -1.2553   -8.8961 H   0  0  0  0  0  0  0  0  0  0  0  0
    9.9435   -1.8467   -7.2555 H   0  0  0  0  0  0  0  0  0  0  0  0
    6.6436   -2.2140   -9.0882 H   0  0  0  0  0  0  0  0  0  0  0  0
    7.9023   -3.0931   -8.1805 H   0  0  0  0  0  0  0  0  0  0  0  0
    8.2425   -2.4702   -9.8124 H   0  0  0  0  0  0  0  0  0  0  0  0
    5.6491   -3.0622   -5.8563 H   0  0  0  0  0  0  0  0  0  0  0  0
    3.9536   -2.5948   -6.0829 H   0  0  0  0  0  0  0  0  0  0  0  0
    4.4633   -3.3272   -4.5401 H   0  0  0  0  0  0  0  0  0  0  0  0
  1  2  1  0
  1 21  1  0
  1 22  1  0
  1 23  1  0
  2  3  1  0
  2 24  1  0
  2 25  1  0
  4  3  1  1
  4  5  1  0
  4  6  1  0
  4  7  1  0
  5 26  1  0
  5 27  1  0
  5 28  1  0
  6 29  1  0
  6 30  1  0
  6 31  1  0
  7  8  2  0
  7 20  1  0
  8  9  1  0
  9 10  1  0
  9 11  2  0
 10 32  1  0
 10 33  1  0
 10 34  1  0
 11 12  1  0
 11 18  1  0
 12 13  1  0
 12 35  1  0
 12 36  1  0
 14 13  1  1
 13 37  1  0
 14 15  1  0
 14 16  1  0
 14 17  1  0
 15 38  1  0
 15 39  1  0
 15 40  1  0
 16 41  1  0
 16 42  1  0
 16 43  1  0
 17 44  1  0
 17 45  1  0
 17 46  1  0
 18 19  1  0
 18 20  2  0
 19 47  1  0
 19 48  1  0
 19 49  1  0
M  END

