
     RDKit          3D

 35 35  0  0  0  0  0  0  0  0999 V2000
    9.4445   -1.0166   -4.2414 C   0  0  0  0  0  0  0  0  0  0  0  0
    8.4920   -1.6958   -3.3173 C   0  0  0  0  0  0  0  0  0  0  0  0
    7.7771   -2.7539   -3.6075 N   0  0  0  0  0  0  0  0  0  0  0  0
    7.0246   -3.0791   -2.5057 N   0  0  0  0  0  0  0  0  0  0  0  0
    7.3042   -2.2048   -1.5697 C   0  0  0  0  0  0  0  0  0  0  0  0
    6.6225   -2.1105    0.0532 S   0  0  0  0  0  0  0  0  0  0  0  0
    5.5764   -3.6252    0.0258 C   0  0  0  0  0  0  0  0  0  0  0  0
    6.3610   -4.9280    0.2941 C   0  0  1  0  0  0  0  0  0  0  0  0
    7.0735   -4.9251    1.5695 N   0  0  0  0  0  0  0  0  0  0  0  0
    5.4766   -6.2166    0.1526 C   0  0  1  0  0  0  0  0  0  0  0  0
    4.7205   -6.2097   -1.1912 C   0  0  0  0  0  0  0  0  0  0  0  0
    6.4169   -7.4376    0.1807 C   0  0  0  0  0  0  0  0  0  0  0  0
    4.4643   -6.3346    1.3089 C   0  0  0  0  0  0  0  0  0  0  0  0
    8.2354   -1.2985   -2.0173 N   0  0  0  0  0  0  0  0  0  0  0  0
    8.7834   -0.1759   -1.2820 C   0  0  0  0  0  0  0  0  0  0  0  0
    9.4307   -1.5583   -5.1960 H   0  0  0  0  0  0  0  0  0  0  0  0
   10.4776   -1.0243   -3.8545 H   0  0  0  0  0  0  0  0  0  0  0  0
    9.1631    0.0325   -4.4327 H   0  0  0  0  0  0  0  0  0  0  0  0
    5.0755   -3.6297   -0.9494 H   0  0  0  0  0  0  0  0  0  0  0  0
    4.8271   -3.4349    0.8104 H   0  0  0  0  0  0  0  0  0  0  0  0
    7.1212   -4.9990   -0.5008 H   0  0  0  0  0  0  0  0  0  0  0  0
    6.4359   -4.7119    2.3383 H   0  0  0  0  0  0  0  0  0  0  0  0
    7.7739   -4.1838    1.5702 H   0  0  0  0  0  0  0  0  0  0  0  0
    5.3947   -5.9763   -2.0309 H   0  0  0  0  0  0  0  0  0  0  0  0
    3.8985   -5.4766   -1.2084 H   0  0  0  0  0  0  0  0  0  0  0  0
    4.2732   -7.1994   -1.3781 H   0  0  0  0  0  0  0  0  0  0  0  0
    7.0926   -7.4313   -0.6906 H   0  0  0  0  0  0  0  0  0  0  0  0
    5.8377   -8.3751    0.1491 H   0  0  0  0  0  0  0  0  0  0  0  0
    7.0365   -7.4309    1.0880 H   0  0  0  0  0  0  0  0  0  0  0  0
    3.7766   -5.4735    1.3518 H   0  0  0  0  0  0  0  0  0  0  0  0
    4.9693   -6.4237    2.2838 H   0  0  0  0  0  0  0  0  0  0  0  0
    3.8438   -7.2365    1.1817 H   0  0  0  0  0  0  0  0  0  0  0  0
    9.1213   -0.5022   -0.2864 H   0  0  0  0  0  0  0  0  0  0  0  0
    8.0345    0.6224   -1.1529 H   0  0  0  0  0  0  0  0  0  0  0  0
    9.6441    0.2330   -1.8263 H   0  0  0  0  0  0  0  0  0  0  0  0
  1  2  1  0
  1 16  1  0
  1 17  1  0
  1 18  1  0
  2  3  2  0
  2 14  1  0
  3  4  1  0
  4  5  2  0
  5  6  1  0
  5 14  1  0
  6  7  1  0
  7  8  1  0
  7 19  1  0
  7 20  1  0
  8  9  1  0
  8 10  1  0
  8 21  1  6
  9 22  1  0
  9 23  1  0
 10 11  1  6
 10 12  1  0
 10 13  1  0
 11 24  1  0
 11 25  1  0
 11 26  1  0
 12 27  1  0
 12 28  1  0
 12 29  1  0
 13 30  1  0
 13 31  1  0
 13 32  1  0
 14 15  1  0
 15 33  1  0
 15 34  1  0
 15 35  1  0
M  END

