
     RDKit          3D

 46 48  0  0  0  0  0  0  0  0999 V2000
    6.6966   -4.3536   -0.1006 C   0  0  0  0  0  0  0  0  0  0  0  0
    6.0192   -3.0991   -0.0696 O   0  0  0  0  0  0  0  0  0  0  0  0
    6.7831   -2.0058   -0.2549 C   0  0  0  0  0  0  0  0  0  0  0  0
    7.9781   -2.0610   -0.4386 O   0  0  0  0  0  0  0  0  0  0  0  0
    5.9928   -0.7387   -0.2071 C   0  0  0  0  0  0  0  0  0  0  0  0
    4.6067   -0.7173    0.0107 C   0  0  0  0  0  0  0  0  0  0  0  0
    3.9450    0.5109    0.0408 C   0  0  0  0  0  0  0  0  0  0  0  0
    4.6317    1.7140   -0.1408 C   0  0  0  0  0  0  0  0  0  0  0  0
    6.0229    1.6931   -0.3597 C   0  0  0  0  0  0  0  0  0  0  0  0
    6.7934    2.8548   -0.5528 N   0  0  0  0  0  0  0  0  0  0  0  0
    6.3921    4.1715   -0.5672 C   0  0  0  0  0  0  0  0  0  0  0  0
    5.2398    4.5394   -0.3985 O   0  0  0  0  0  0  0  0  0  0  0  0
    7.5107    5.1419   -0.8129 C   0  0  1  0  0  0  0  0  0  0  0  0
    7.2027    6.3928   -1.5894 C   0  0  0  0  0  0  0  0  0  0  0  0
    7.4171    6.4893   -0.1067 C   0  0  2  0  0  0  0  0  0  0  0  0
    8.7127    7.0778    0.3818 C   0  0  0  0  0  0  0  0  0  0  0  0
    9.7652    6.9063   -0.2181 O   0  0  0  0  0  0  0  0  0  0  0  0
    8.6110    7.8061    1.5317 N   0  0  0  0  0  0  0  0  0  0  0  0
    9.7331    8.4686    2.1662 C   0  0  1  0  0  0  0  0  0  0  0  0
    9.6135    9.9995    2.2672 C   0  0  0  0  0  0  0  0  0  0  0  0
   10.7333   10.3622    3.2501 C   0  0  0  0  0  0  0  0  0  0  0  0
   10.7339    9.2135    4.2957 C   0  0  0  0  0  0  0  0  0  0  0  0
    9.9861    8.0289    3.6275 C   0  0  0  0  0  0  0  0  0  0  0  0
    6.6907    0.4599   -0.3903 C   0  0  0  0  0  0  0  0  0  0  0  0
    5.9302   -5.1199    0.0692 H   0  0  0  0  0  0  0  0  0  0  0  0
    7.4666   -4.4029    0.6844 H   0  0  0  0  0  0  0  0  0  0  0  0
    7.1851   -4.5113   -1.0743 H   0  0  0  0  0  0  0  0  0  0  0  0
    4.0656   -1.6527    0.1528 H   0  0  0  0  0  0  0  0  0  0  0  0
    2.8656    0.5404    0.2095 H   0  0  0  0  0  0  0  0  0  0  0  0
    4.1135    2.6697   -0.1169 H   0  0  0  0  0  0  0  0  0  0  0  0
    7.7819    2.6915   -0.7051 H   0  0  0  0  0  0  0  0  0  0  0  0
    8.5267    4.7505   -0.9159 H   0  0  0  0  0  0  0  0  0  0  0  0
    6.1768    6.5069   -1.9473 H   0  0  0  0  0  0  0  0  0  0  0  0
    8.0012    6.7784   -2.2275 H   0  0  0  0  0  0  0  0  0  0  0  0
    6.5207    6.6288    0.5044 H   0  0  0  0  0  0  0  0  0  0  0  0
    7.6972    7.9004    1.9608 H   0  0  0  0  0  0  0  0  0  0  0  0
   10.6056    8.2189    1.5441 H   0  0  0  0  0  0  0  0  0  0  0  0
    8.6256   10.2644    2.6887 H   0  0  0  0  0  0  0  0  0  0  0  0
    9.6999   10.4979    1.2893 H   0  0  0  0  0  0  0  0  0  0  0  0
   10.6033   11.3556    3.7059 H   0  0  0  0  0  0  0  0  0  0  0  0
   11.6955   10.3819    2.7116 H   0  0  0  0  0  0  0  0  0  0  0  0
   10.2196    9.5229    5.2190 H   0  0  0  0  0  0  0  0  0  0  0  0
   11.7593    8.9414    4.5889 H   0  0  0  0  0  0  0  0  0  0  0  0
    9.0152    7.8548    4.1226 H   0  0  0  0  0  0  0  0  0  0  0  0
   10.5395    7.0790    3.6771 H   0  0  0  0  0  0  0  0  0  0  0  0
    7.7696    0.4065   -0.5577 H   0  0  0  0  0  0  0  0  0  0  0  0
  1  2  1  0
  1 25  1  0
  1 26  1  0
  1 27  1  0
  2  3  1  0
  3  4  2  0
  3  5  1  0
  5  6  2  0
  5 24  1  0
  6  7  1  0
  6 28  1  0
  7  8  2  0
  7 29  1  0
  8  9  1  0
  8 30  1  0
  9 10  1  0
  9 24  2  0
 10 11  1  0
 10 31  1  0
 11 12  2  0
 11 13  1  0
 13 14  1  0
 13 15  1  0
 13 32  1  6
 14 15  1  0
 14 33  1  0
 14 34  1  0
 15 16  1  0
 15 35  1  1
 16 17  2  0
 16 18  1  0
 18 19  1  0
 18 36  1  0
 19 20  1  0
 19 23  1  0
 19 37  1  6
 20 21  1  0
 20 38  1  0
 20 39  1  0
 21 22  1  0
 21 40  1  0
 21 41  1  0
 22 23  1  0
 22 42  1  0
 22 43  1  0
 23 44  1  0
 23 45  1  0
 24 46  1  0
M  END

