
     RDKit          3D

 27 30  0  0  0  0  0  0  0  0999 V2000
    1.0325    0.0620    0.0674 N   0  0  0  0  0  0  0  0  0  0  0  0
    2.1931    0.0244    0.0693 C   0  0  0  0  0  0  0  0  0  0  0  0
    3.6299   -0.0227    0.0723 C   0  0  0  0  0  0  0  0  0  0  0  0
    4.2876   -1.2646    0.0738 C   0  0  0  0  0  0  0  0  0  0  0  0
    5.6890   -1.3301    0.0767 C   0  0  0  0  0  0  0  0  0  0  0  0
    6.3958   -2.5851    0.0783 C   0  0  0  0  0  0  0  0  0  0  0  0
    7.7589   -2.6280    0.0811 C   0  0  0  0  0  0  0  0  0  0  0  0
    8.5479   -1.4236    0.0826 C   0  0  0  0  0  0  0  0  0  0  0  0
    9.9542   -1.4440    0.0855 C   0  0  0  0  0  0  0  0  0  0  0  0
   10.6851   -0.2545    0.0869 C   0  0  0  0  0  0  0  0  0  0  0  0
   10.0338    0.9805    0.0855 C   0  0  0  0  0  0  0  0  0  0  0  0
    8.6292    1.0524    0.0826 C   0  0  0  0  0  0  0  0  0  0  0  0
    7.9210    2.3060    0.0810 C   0  0  0  0  0  0  0  0  0  0  0  0
    6.5580    2.3526    0.0781 C   0  0  0  0  0  0  0  0  0  0  0  0
    5.7703    1.1467    0.0766 C   0  0  0  0  0  0  0  0  0  0  0  0
    4.3677    1.1733    0.0737 C   0  0  0  0  0  0  0  0  0  0  0  0
    6.4458   -0.1152    0.0782 C   0  0  0  0  0  0  0  0  0  0  0  0
    7.8727   -0.1621    0.0811 C   0  0  0  0  0  0  0  0  0  0  0  0
    3.7016   -2.1859    0.0727 H   0  0  0  0  0  0  0  0  0  0  0  0
    5.8131   -3.5098    0.0772 H   0  0  0  0  0  0  0  0  0  0  0  0
    8.2795   -3.5893    0.0823 H   0  0  0  0  0  0  0  0  0  0  0  0
   10.4728   -2.4063    0.0867 H   0  0  0  0  0  0  0  0  0  0  0  0
   11.7773   -0.2903    0.0892 H   0  0  0  0  0  0  0  0  0  0  0  0
   10.6145    1.9067    0.0866 H   0  0  0  0  0  0  0  0  0  0  0  0
    8.5035    3.2311    0.0821 H   0  0  0  0  0  0  0  0  0  0  0  0
    6.0372    3.3136    0.0770 H   0  0  0  0  0  0  0  0  0  0  0  0
    3.8434    2.1310    0.0725 H   0  0  0  0  0  0  0  0  0  0  0  0
  1  2  3  0
  2  3  1  0
  3  4  2  0
  3 16  1  0
  4  5  1  0
  4 19  1  0
  5  6  2  0
  5 17  1  0
  6  7  1  0
  6 20  1  0
  7  8  2  0
  7 21  1  0
  8  9  1  0
  8 18  1  0
  9 10  2  0
  9 22  1  0
 10 11  1  0
 10 23  1  0
 11 12  2  0
 11 24  1  0
 12 13  1  0
 12 18  1  0
 13 14  2  0
 13 25  1  0
 14 15  1  0
 14 26  1  0
 15 16  2  0
 15 17  1  0
 16 27  1  0
 17 18  2  0
M  END

