
     RDKit          3D

 30 32  0  0  0  0  0  0  0  0999 V2000
    3.7022    0.5430   -0.1043 C   0  0  0  0  0  0  0  0  0  0  0  0
    2.4914   -0.2533    0.4028 C   0  0  0  0  0  0  0  0  0  0  0  0
    2.8690   -1.4344    1.2585 C   0  0  0  0  0  0  0  0  0  0  0  0
    3.3890   -1.1878    2.5025 N   0  0  0  0  0  0  0  0  0  0  0  0
    3.6387   -2.2905    3.1590 C   0  0  0  0  0  0  0  0  0  0  0  0
    4.1882   -2.3118    4.5024 C   0  0  0  0  0  0  0  0  0  0  0  0
    4.4727   -3.3642    5.2566 N   0  0  0  0  0  0  0  0  0  0  0  0
    4.9519   -2.8010    6.3950 C   0  0  0  0  0  0  0  0  0  0  0  0
    4.9819   -1.4740    6.3938 N   0  0  0  0  0  0  0  0  0  0  0  0
    4.4925   -1.1766    5.1806 N   0  0  0  0  0  0  0  0  0  0  0  0
    4.3807   -0.2211    4.8579 H   0  0  0  0  0  0  0  0  0  0  0  0
    3.2592   -3.7533    2.2971 S   0  0  0  0  0  0  0  0  0  0  0  0
    2.7212   -2.7803    0.9462 C   0  0  0  0  0  0  0  0  0  0  0  0
    2.2010   -3.4272   -0.2729 C   0  0  0  0  0  0  0  0  0  0  0  0
    1.3149   -4.5201   -0.1856 C   0  0  0  0  0  0  0  0  0  0  0  0
    0.8250   -5.1384   -1.3367 C   0  0  0  0  0  0  0  0  0  0  0  0
    1.2061   -4.6781   -2.6010 C   0  0  0  0  0  0  0  0  0  0  0  0
    2.0890   -3.5991   -2.7036 C   0  0  0  0  0  0  0  0  0  0  0  0
    2.5870   -2.9834   -1.5534 C   0  0  0  0  0  0  0  0  0  0  0  0
    3.3801    1.4311   -0.6707 H   0  0  0  0  0  0  0  0  0  0  0  0
    4.3408   -0.0671   -0.7638 H   0  0  0  0  0  0  0  0  0  0  0  0
    4.3238    0.8807    0.7392 H   0  0  0  0  0  0  0  0  0  0  0  0
    1.8702   -0.5868   -0.4412 H   0  0  0  0  0  0  0  0  0  0  0  0
    1.8606    0.4103    1.0185 H   0  0  0  0  0  0  0  0  0  0  0  0
    5.2902   -3.3796    7.2539 H   0  0  0  0  0  0  0  0  0  0  0  0
    0.9972   -4.8765    0.7974 H   0  0  0  0  0  0  0  0  0  0  0  0
    0.1359   -5.9817   -1.2448 H   0  0  0  0  0  0  0  0  0  0  0  0
    0.8206   -5.1614   -3.5021 H   0  0  0  0  0  0  0  0  0  0  0  0
    2.4041   -3.2404   -3.6868 H   0  0  0  0  0  0  0  0  0  0  0  0
    3.3035   -2.1654   -1.6470 H   0  0  0  0  0  0  0  0  0  0  0  0
  1  2  1  0
  1 20  1  0
  1 21  1  0
  1 22  1  0
  2  3  1  0
  2 23  1  0
  2 24  1  0
  3  4  1  0
  3 13  2  0
  4  5  2  0
  5  6  1  0
  5 12  1  0
  6  7  2  0
  6 10  1  0
  7  8  1  0
  8  9  2  0
  8 25  1  0
  9 10  1  0
 10 11  1  0
 12 13  1  0
 13 14  1  0
 14 15  2  0
 14 19  1  0
 15 16  1  0
 15 26  1  0
 16 17  2  0
 16 27  1  0
 17 18  1  0
 17 28  1  0
 18 19  2  0
 18 29  1  0
 19 30  1  0
M  END

