
     RDKit          3D

 47 50  0  0  0  0  0  0  0  0999 V2000
    0.9075    0.5269   -0.2186 C   0  0  0  0  0  0  0  0  0  0  0  0
    1.4992   -0.0577    0.9207 O   0  0  0  0  0  0  0  0  0  0  0  0
    2.3406   -1.1086    0.7691 C   0  0  0  0  0  0  0  0  0  0  0  0
    2.6857   -1.6824   -0.4645 C   0  0  0  0  0  0  0  0  0  0  0  0
    3.5671   -2.7693   -0.5034 C   0  0  0  0  0  0  0  0  0  0  0  0
    4.1179   -3.3038    0.6665 C   0  0  0  0  0  0  0  0  0  0  0  0
    5.0576   -4.4656    0.6119 C   0  0  0  0  0  0  0  0  0  0  0  0
    6.4411   -4.2361    0.4853 C   0  0  0  0  0  0  0  0  0  0  0  0
    7.2041   -3.0202    0.3936 C   0  0  0  0  0  0  0  0  0  0  0  0
    6.7337   -1.5968    0.4051 C   0  0  0  0  0  0  0  0  0  0  0  0
    8.5362   -3.4138    0.2869 C   0  0  0  0  0  0  0  0  0  0  0  0
    8.5887   -4.8259    0.3125 C   0  0  0  0  0  0  0  0  0  0  0  0
    9.7920   -5.7047    0.2261 C   0  0  0  0  0  0  0  0  0  0  0  0
    7.3373   -5.3079    0.4311 N   0  0  0  0  0  0  0  0  0  0  0  0
    6.9586   -6.8174    0.4963 B   0  0  1  0  0  0  0  0  0  0  0  0
    7.3561   -7.4611   -0.6748 F   0  0  0  0  0  0  0  0  0  0  0  0
    7.5644   -7.4151    1.6007 F   0  0  0  0  0  0  0  0  0  0  0  0
    5.4088   -6.8771    0.6397 N   0  0  0  0  0  0  0  0  0  0  0  0
    4.6808   -8.0057    0.7316 C   0  0  0  0  0  0  0  0  0  0  0  0
    5.2895   -9.3683    0.7105 C   0  0  0  0  0  0  0  0  0  0  0  0
    3.3143   -7.6626    0.8437 C   0  0  0  0  0  0  0  0  0  0  0  0
    3.2051   -6.2740    0.8189 C   0  0  0  0  0  0  0  0  0  0  0  0
    1.9138   -5.5185    0.9143 C   0  0  0  0  0  0  0  0  0  0  0  0
    4.5484   -5.7762    0.6885 C   0  0  0  0  0  0  0  0  0  0  0  0
    3.7642   -2.7196    1.8963 C   0  0  0  0  0  0  0  0  0  0  0  0
    2.8901   -1.6391    1.9506 C   0  0  0  0  0  0  0  0  0  0  0  0
    0.2738    1.3470    0.1444 H   0  0  0  0  0  0  0  0  0  0  0  0
    0.2779   -0.1940   -0.7706 H   0  0  0  0  0  0  0  0  0  0  0  0
    1.6649    0.9394   -0.9094 H   0  0  0  0  0  0  0  0  0  0  0  0
    2.2780   -1.2956   -1.3986 H   0  0  0  0  0  0  0  0  0  0  0  0
    3.8287   -3.2080   -1.4696 H   0  0  0  0  0  0  0  0  0  0  0  0
    6.0505   -1.3786   -0.4300 H   0  0  0  0  0  0  0  0  0  0  0  0
    7.5949   -0.9169    0.3263 H   0  0  0  0  0  0  0  0  0  0  0  0
    6.1866   -1.3474    1.3271 H   0  0  0  0  0  0  0  0  0  0  0  0
    9.3990   -2.7551    0.1989 H   0  0  0  0  0  0  0  0  0  0  0  0
   10.7063   -5.1025    0.1386 H   0  0  0  0  0  0  0  0  0  0  0  0
    9.8641   -6.3495    1.1159 H   0  0  0  0  0  0  0  0  0  0  0  0
    9.7163   -6.3790   -0.6414 H   0  0  0  0  0  0  0  0  0  0  0  0
    5.8540   -9.5246   -0.2221 H   0  0  0  0  0  0  0  0  0  0  0  0
    4.5138  -10.1407    0.7989 H   0  0  0  0  0  0  0  0  0  0  0  0
    6.0117   -9.4816    1.5342 H   0  0  0  0  0  0  0  0  0  0  0  0
    2.4940   -8.3732    0.9342 H   0  0  0  0  0  0  0  0  0  0  0  0
    1.0731   -6.2227    1.0002 H   0  0  0  0  0  0  0  0  0  0  0  0
    1.7378   -4.8839    0.0323 H   0  0  0  0  0  0  0  0  0  0  0  0
    1.8873   -4.8495    1.7881 H   0  0  0  0  0  0  0  0  0  0  0  0
    4.1828   -3.1210    2.8226 H   0  0  0  0  0  0  0  0  0  0  0  0
    2.6121   -1.1816    2.9021 H   0  0  0  0  0  0  0  0  0  0  0  0
  1  2  1  0
  1 27  1  0
  1 28  1  0
  1 29  1  0
  2  3  1  0
  3  4  2  0
  3 26  1  0
  4  5  1  0
  4 30  1  0
  5  6  2  0
  5 31  1  0
  6  7  1  0
  6 25  1  0
  7  8  1  0
  7 24  2  0
  8  9  2  0
  8 14  1  0
  9 10  1  0
  9 11  1  0
 10 32  1  0
 10 33  1  0
 10 34  1  0
 11 12  2  0
 11 35  1  0
 12 13  1  0
 12 14  1  0
 13 36  1  0
 13 37  1  0
 13 38  1  0
 14 15  1  0
 15 16  1  6
 15 17  1  0
 15 18  1  0
 18 19  2  0
 18 24  1  0
 19 20  1  0
 19 21  1  0
 20 39  1  0
 20 40  1  0
 20 41  1  0
 21 22  2  0
 21 42  1  0
 22 23  1  0
 22 24  1  0
 23 43  1  0
 23 44  1  0
 23 45  1  0
 25 26  2  0
 25 46  1  0
 26 47  1  0
M  CHG  2  15  -1  18   1
M  END

