
     RDKit          3D

 56 54  0  0  0  0  0  0  0  0999 V2000
    1.0637    4.2127    2.4685 C   0  0  0  0  0  0  0  0  0  0  0  0
    0.1737    3.2992    1.6697 C   0  0  0  0  0  0  0  0  0  0  0  0
    0.3906    2.6985    0.4778 C   0  0  0  0  0  0  0  0  0  0  0  0
    1.5287    2.8038   -0.4509 C   0  0  0  0  0  0  0  0  0  0  0  0
    1.8290    1.8034   -1.3336 C   0  0  0  0  0  0  0  0  0  0  0  0
    1.1904    0.5054   -1.4303 C   0  0  0  0  0  0  0  0  0  0  0  0
    1.4595   -0.4715   -2.3386 C   0  0  0  0  0  0  0  0  0  0  0  0
    2.4825   -0.3590   -3.4432 C   0  0  0  0  0  0  0  0  0  0  0  0
    0.6761   -2.1366   -2.2060 P   0  0  0  0  0  0  0  0  0  0  0  0
   -0.3816   -2.1957   -3.7521 C   0  0  0  0  0  0  0  0  0  0  0  0
    2.3243    4.0927   -0.5207 C   0  0  0  0  0  0  0  0  0  0  0  0
    1.4974    5.2759   -1.0691 C   0  0  0  0  0  0  0  0  0  0  0  0
    2.2328    6.5238   -1.1168 N   0  0  0  0  0  0  0  0  0  0  0  0
    2.2363    7.4281   -0.1038 C   0  0  0  0  0  0  0  0  0  0  0  0
    1.6071    7.3040    0.9380 O   0  0  0  0  0  0  0  0  0  0  0  0
    3.1627    8.6324   -0.3303 C   0  0  1  0  0  0  0  0  0  0  0  0
    4.5450    8.3872    0.2980 C   0  0  0  0  0  0  0  0  0  0  0  0
    5.4293    9.3869   -0.4469 C   0  0  0  0  0  0  0  0  0  0  0  0
    4.8552    9.4277   -1.8809 C   0  0  2  0  0  0  0  0  0  0  0  0
    4.9723   10.8182   -2.5262 C   0  0  0  0  0  0  0  0  0  0  0  0
    6.4233   11.2717   -2.7029 C   0  0  0  0  0  0  0  0  0  0  0  0
    3.4687    8.9021   -1.7317 N   0  0  0  0  0  0  0  0  0  0  0  0
    2.3926    9.4974   -2.4997 C   0  0  0  0  0  0  0  0  0  0  0  0
    0.7201    4.2618    3.5127 H   0  0  0  0  0  0  0  0  0  0  0  0
    1.0681    5.2464    2.0776 H   0  0  0  0  0  0  0  0  0  0  0  0
    2.1092    3.8656    2.4825 H   0  0  0  0  0  0  0  0  0  0  0  0
   -0.7908    3.0673    2.1376 H   0  0  0  0  0  0  0  0  0  0  0  0
   -0.4095    2.0308    0.1426 H   0  0  0  0  0  0  0  0  0  0  0  0
    2.6515    1.9980   -2.0286 H   0  0  0  0  0  0  0  0  0  0  0  0
    0.4263    0.2886   -0.6781 H   0  0  0  0  0  0  0  0  0  0  0  0
    3.0870    0.5560   -3.3787 H   0  0  0  0  0  0  0  0  0  0  0  0
    1.9964   -0.3612   -4.4354 H   0  0  0  0  0  0  0  0  0  0  0  0
    3.1715   -1.2211   -3.4313 H   0  0  0  0  0  0  0  0  0  0  0  0
   -0.3592   -1.7802   -1.2896 H   0  0  0  0  0  0  0  0  0  0  0  0
    0.2632   -2.3471   -4.6313 H   0  0  0  0  0  0  0  0  0  0  0  0
   -0.9837   -1.2866   -3.8997 H   0  0  0  0  0  0  0  0  0  0  0  0
   -1.0518   -3.0670   -3.6818 H   0  0  0  0  0  0  0  0  0  0  0  0
    3.2050    3.9438   -1.1668 H   0  0  0  0  0  0  0  0  0  0  0  0
    2.7059    4.3795    0.4699 H   0  0  0  0  0  0  0  0  0  0  0  0
    0.6136    5.4352   -0.4352 H   0  0  0  0  0  0  0  0  0  0  0  0
    1.1394    5.0349   -2.0834 H   0  0  0  0  0  0  0  0  0  0  0  0
    2.8268    6.7589   -1.9086 H   0  0  0  0  0  0  0  0  0  0  0  0
    2.6652    9.4856    0.1787 H   0  0  0  0  0  0  0  0  0  0  0  0
    4.8640    7.3527    0.0882 H   0  0  0  0  0  0  0  0  0  0  0  0
    4.5349    8.5221    1.3884 H   0  0  0  0  0  0  0  0  0  0  0  0
    6.4967    9.1214   -0.4235 H   0  0  0  0  0  0  0  0  0  0  0  0
    5.3283   10.3842    0.0151 H   0  0  0  0  0  0  0  0  0  0  0  0
    5.4256    8.7268   -2.5244 H   0  0  0  0  0  0  0  0  0  0  0  0
    4.4222   11.5549   -1.9142 H   0  0  0  0  0  0  0  0  0  0  0  0
    4.4838   10.8103   -3.5140 H   0  0  0  0  0  0  0  0  0  0  0  0
    6.9415   11.3852   -1.7374 H   0  0  0  0  0  0  0  0  0  0  0  0
    6.4739   12.2428   -3.2197 H   0  0  0  0  0  0  0  0  0  0  0  0
    6.9977   10.5461   -3.3034 H   0  0  0  0  0  0  0  0  0  0  0  0
    2.6405    9.5163   -3.5720 H   0  0  0  0  0  0  0  0  0  0  0  0
    2.1321   10.5318   -2.1910 H   0  0  0  0  0  0  0  0  0  0  0  0
    1.4843    8.8844   -2.3905 H   0  0  0  0  0  0  0  0  0  0  0  0
  1  2  1  0
  1 24  1  0
  1 25  1  0
  1 26  1  0
  2  3  1  0
  2 27  1  0
  3  4  2  0
  3 28  1  0
  4  5  1  0
  4 11  1  0
  5  6  2  0
  5 29  1  0
  6  7  1  0
  6 30  1  0
  7  8  1  0
  7  9  2  0
  8 31  1  0
  8 32  1  0
  8 33  1  0
 10 35  1  0
 10 36  1  0
 10 37  1  0
 11 12  1  0
 11 38  1  0
 11 39  1  0
 12 13  1  0
 12 40  1  0
 12 41  1  0
 13 14  1  0
 13 42  1  0
 14 15  2  0
 14 16  1  0
 16 17  1  0
 16 22  1  0
 16 43  1  1
 17 18  1  0
 17 44  1  0
 17 45  1  0
 18 19  1  0
 18 46  1  0
 18 47  1  0
 19 20  1  0
 19 22  1  0
 19 48  1  6
 20 21  1  0
 20 49  1  0
 20 50  1  0
 21 51  1  0
 21 52  1  0
 21 53  1  0
 22 23  1  0
 23 54  1  0
 23 55  1  0
 23 56  1  0
M  CHG  4   2  -1   9  -1  10   1  34   1
M  END

