
     RDKit          3D

 39 40  0  0  0  0  0  0  0  0999 V2000
    3.8473   -0.2117    4.1071 C   0  0  0  0  0  0  0  0  0  0  0  0
    3.8459   -0.9399    2.9086 O   0  0  0  0  0  0  0  0  0  0  0  0
    4.5516   -0.3174    1.8628 C   0  0  0  0  0  0  0  0  0  0  0  0
    4.5450   -1.2346    0.6236 C   0  0  1  0  0  0  0  0  0  0  0  0
    3.1004   -1.5270    0.1951 C   0  0  0  0  0  0  0  0  0  0  0  0
    5.3199   -0.5546   -0.5179 C   0  0  0  0  0  0  0  0  0  0  0  0
    5.1601   -2.5314    0.9594 N   0  0  0  0  0  0  0  0  0  0  0  0
    6.4238   -2.7067    1.4222 C   0  0  0  0  0  0  0  0  0  0  0  0
    7.2742   -1.8415    1.5404 O   0  0  0  0  0  0  0  0  0  0  0  0
    6.7001   -4.1472    1.7849 C   0  0  0  0  0  0  0  0  0  0  0  0
    7.8675   -4.5453    2.2188 N   0  0  0  0  0  0  0  0  0  0  0  0
    7.6794   -5.9060    2.4304 O   0  0  0  0  0  0  0  0  0  0  0  0
    6.4118   -6.1954    2.1052 C   0  0  0  0  0  0  0  0  0  0  0  0
    5.9374   -7.6231    2.2078 C   0  0  1  0  0  0  0  0  0  0  0  0
    6.0460   -8.1808    3.6659 C   0  0  0  0  0  0  0  0  0  0  0  0
    4.6065   -8.6070    4.0226 C   0  0  0  0  0  0  0  0  0  0  0  0
    3.7468   -7.7572    3.0843 C   0  0  0  0  0  0  0  0  0  0  0  0
    4.5338   -7.7802    1.8534 N   0  0  0  0  0  0  0  0  0  0  0  0
    5.7578   -5.1493    1.6952 N   0  0  0  0  0  0  0  0  0  0  0  0
    3.2882   -0.7925    4.8557 H   0  0  0  0  0  0  0  0  0  0  0  0
    3.3584    0.7779    3.9939 H   0  0  0  0  0  0  0  0  0  0  0  0
    4.8744   -0.0406    4.4873 H   0  0  0  0  0  0  0  0  0  0  0  0
    5.5965   -0.1131    2.1611 H   0  0  0  0  0  0  0  0  0  0  0  0
    4.0806    0.6510    1.5906 H   0  0  0  0  0  0  0  0  0  0  0  0
    2.5956   -0.5945   -0.0982 H   0  0  0  0  0  0  0  0  0  0  0  0
    2.5337   -1.9727    1.0259 H   0  0  0  0  0  0  0  0  0  0  0  0
    3.0805   -2.2111   -0.6684 H   0  0  0  0  0  0  0  0  0  0  0  0
    4.8560    0.4110   -0.7738 H   0  0  0  0  0  0  0  0  0  0  0  0
    5.3050   -1.1907   -1.4163 H   0  0  0  0  0  0  0  0  0  0  0  0
    6.3661   -0.3822   -0.2317 H   0  0  0  0  0  0  0  0  0  0  0  0
    4.5528   -3.3426    1.0185 H   0  0  0  0  0  0  0  0  0  0  0  0
    6.5800   -8.2070    1.5224 H   0  0  0  0  0  0  0  0  0  0  0  0
    6.4096   -7.3987    4.3487 H   0  0  0  0  0  0  0  0  0  0  0  0
    6.7611   -9.0129    3.7238 H   0  0  0  0  0  0  0  0  0  0  0  0
    4.3694   -8.4507    5.0854 H   0  0  0  0  0  0  0  0  0  0  0  0
    4.4557   -9.6731    3.7932 H   0  0  0  0  0  0  0  0  0  0  0  0
    3.6101   -6.7373    3.5049 H   0  0  0  0  0  0  0  0  0  0  0  0
    2.7451   -8.1836    2.9141 H   0  0  0  0  0  0  0  0  0  0  0  0
    4.2297   -7.0992    1.1613 H   0  0  0  0  0  0  0  0  0  0  0  0
  1  2  1  0
  1 20  1  0
  1 21  1  0
  1 22  1  0
  2  3  1  0
  3  4  1  0
  3 23  1  0
  3 24  1  0
  4  5  1  0
  4  6  1  0
  4  7  1  1
  5 25  1  0
  5 26  1  0
  5 27  1  0
  6 28  1  0
  6 29  1  0
  6 30  1  0
  7  8  1  0
  7 31  1  0
  8  9  2  0
  8 10  1  0
 10 11  2  0
 10 19  1  0
 11 12  1  0
 12 13  1  0
 13 14  1  0
 13 19  2  0
 14 15  1  0
 14 18  1  0
 14 32  1  6
 15 16  1  0
 15 33  1  0
 15 34  1  0
 16 17  1  0
 16 35  1  0
 16 36  1  0
 17 18  1  0
 17 37  1  0
 17 38  1  0
 18 39  1  0
M  END

