
     RDKit          3D

 59 62  0  0  0  0  0  0  0  0999 V2000
   -1.7355   -5.5556    2.0728 C   0  0  0  0  0  0  0  0  0  0  0  0
   -0.3331   -5.8248    2.3278 N   0  0  0  0  0  0  0  0  0  0  0  0
    0.1831   -6.3212    3.5066 C   0  0  0  0  0  0  0  0  0  0  0  0
    1.5479   -6.3612    3.3331 C   0  0  0  0  0  0  0  0  0  0  0  0
    1.8780   -5.8997    2.0876 N   0  0  0  0  0  0  0  0  0  0  0  0
    0.7396   -5.5817    1.4998 C   0  0  0  0  0  0  0  0  0  0  0  0
    0.6162   -5.0305    0.1089 C   0  0  2  0  0  0  0  0  0  0  0  0
    1.8919   -5.2655   -0.7289 C   0  0  0  0  0  0  0  0  0  0  0  0
    1.7595   -4.7674   -2.0952 N   0  0  0  0  0  0  0  0  0  0  0  0
    1.2985   -3.3837   -2.1457 C   0  0  0  0  0  0  0  0  0  0  0  0
    0.0423   -3.1365   -1.2938 C   0  0  0  0  0  0  0  0  0  0  0  0
    0.1967   -3.6055    0.0916 N   0  0  0  0  0  0  0  0  0  0  0  0
    0.9623   -2.6890    0.9331 C   0  0  0  0  0  0  0  0  0  0  0  0
    0.1243   -1.5753    1.5792 C   0  0  0  0  0  0  0  0  0  0  0  0
    0.6586   -0.5995    2.0807 O   0  0  0  0  0  0  0  0  0  0  0  0
   -1.2192   -1.8014    1.5764 N   0  0  0  0  0  0  0  0  0  0  0  0
   -2.1764   -0.8893    2.1635 C   0  0  0  0  0  0  0  0  0  0  0  0
   -3.0976   -0.1829    1.1385 C   0  0  1  0  0  0  0  0  0  0  0  0
   -3.9418   -1.2364    0.3960 C   0  0  0  0  0  0  0  0  0  0  0  0
   -4.8735   -2.0138    1.1132 C   0  0  0  0  0  0  0  0  0  0  0  0
   -5.6416   -3.0044    0.4996 C   0  0  0  0  0  0  0  0  0  0  0  0
   -5.4828   -3.2300   -0.8663 C   0  0  0  0  0  0  0  0  0  0  0  0
   -6.2168   -4.1793   -1.4666 F   0  0  0  0  0  0  0  0  0  0  0  0
   -4.5769   -2.4872   -1.6145 C   0  0  0  0  0  0  0  0  0  0  0  0
   -3.8149   -1.5007   -0.9777 C   0  0  0  0  0  0  0  0  0  0  0  0
   -4.0124    0.8569    1.8434 C   0  0  0  0  0  0  0  0  0  0  0  0
   -4.4710    1.8020    0.7188 C   0  0  0  0  0  0  0  0  0  0  0  0
   -3.2985    1.8214   -0.3011 C   0  0  0  0  0  0  0  0  0  0  0  0
   -2.2969    0.7538    0.1995 C   0  0  0  0  0  0  0  0  0  0  0  0
   -2.0289   -4.5642    2.4531 H   0  0  0  0  0  0  0  0  0  0  0  0
   -2.3544   -6.3212    2.5623 H   0  0  0  0  0  0  0  0  0  0  0  0
   -1.9361   -5.5854    0.9942 H   0  0  0  0  0  0  0  0  0  0  0  0
   -0.4568   -6.5981    4.3414 H   0  0  0  0  0  0  0  0  0  0  0  0
    2.3031   -6.7013    4.0407 H   0  0  0  0  0  0  0  0  0  0  0  0
   -0.2018   -5.5754   -0.4044 H   0  0  0  0  0  0  0  0  0  0  0  0
    2.1381   -6.3380   -0.7504 H   0  0  0  0  0  0  0  0  0  0  0  0
    2.7427   -4.7654   -0.2379 H   0  0  0  0  0  0  0  0  0  0  0  0
    1.1183   -5.3642   -2.6190 H   0  0  0  0  0  0  0  0  0  0  0  0
    1.1093   -3.1007   -3.1947 H   0  0  0  0  0  0  0  0  0  0  0  0
    2.1192   -2.7339   -1.7921 H   0  0  0  0  0  0  0  0  0  0  0  0
   -0.8133   -3.6733   -1.7456 H   0  0  0  0  0  0  0  0  0  0  0  0
   -0.2247   -2.0669   -1.2794 H   0  0  0  0  0  0  0  0  0  0  0  0
    1.7975   -2.1816    0.4169 H   0  0  0  0  0  0  0  0  0  0  0  0
    1.4262   -3.2459    1.7624 H   0  0  0  0  0  0  0  0  0  0  0  0
   -1.5192   -2.6343    1.0758 H   0  0  0  0  0  0  0  0  0  0  0  0
   -1.5900   -0.1347    2.7079 H   0  0  0  0  0  0  0  0  0  0  0  0
   -2.7945   -1.4247    2.9059 H   0  0  0  0  0  0  0  0  0  0  0  0
   -5.0111   -1.8451    2.1840 H   0  0  0  0  0  0  0  0  0  0  0  0
   -6.3640   -3.5993    1.0623 H   0  0  0  0  0  0  0  0  0  0  0  0
   -4.4768   -2.6816   -2.6843 H   0  0  0  0  0  0  0  0  0  0  0  0
   -3.1109   -0.9286   -1.5823 H   0  0  0  0  0  0  0  0  0  0  0  0
   -3.4023    1.4082    2.5796 H   0  0  0  0  0  0  0  0  0  0  0  0
   -4.8507    0.4057    2.3955 H   0  0  0  0  0  0  0  0  0  0  0  0
   -4.7222    2.8038    1.0998 H   0  0  0  0  0  0  0  0  0  0  0  0
   -5.3831    1.4059    0.2451 H   0  0  0  0  0  0  0  0  0  0  0  0
   -2.8188    2.8104   -0.3621 H   0  0  0  0  0  0  0  0  0  0  0  0
   -3.6621    1.5904   -1.3146 H   0  0  0  0  0  0  0  0  0  0  0  0
   -1.5074    1.2278    0.8030 H   0  0  0  0  0  0  0  0  0  0  0  0
   -1.7738    0.2292   -0.6125 H   0  0  0  0  0  0  0  0  0  0  0  0
  1  2  1  0
  1 30  1  0
  1 31  1  0
  1 32  1  0
  2  3  1  0
  2  6  1  0
  3  4  2  0
  3 33  1  0
  4  5  1  0
  4 34  1  0
  5  6  2  0
  6  7  1  0
  7  8  1  0
  7 12  1  0
  7 35  1  6
  8  9  1  0
  8 36  1  0
  8 37  1  0
  9 10  1  0
  9 38  1  0
 10 11  1  0
 10 39  1  0
 10 40  1  0
 11 12  1  0
 11 41  1  0
 11 42  1  0
 12 13  1  0
 13 14  1  0
 13 43  1  0
 13 44  1  0
 14 15  2  0
 14 16  1  0
 16 17  1  0
 16 45  1  0
 18 17  1  1
 17 46  1  0
 17 47  1  0
 18 19  1  0
 18 26  1  0
 18 29  1  0
 19 20  2  0
 19 25  1  0
 20 21  1  0
 20 48  1  0
 21 22  2  0
 21 49  1  0
 22 23  1  0
 22 24  1  0
 24 25  2  0
 24 50  1  0
 25 51  1  0
 26 27  1  0
 26 52  1  0
 26 53  1  0
 27 28  1  0
 27 54  1  0
 27 55  1  0
 28 29  1  0
 28 56  1  0
 28 57  1  0
 29 58  1  0
 29 59  1  0
M  END

