
     RDKit          3D

 38 38  0  0  0  0  0  0  0  0999 V2000
    0.9989   -0.2771   -0.4240 C   0  0  0  0  0  0  0  0  0  0  0  0
    2.5109   -0.1825   -0.2146 C   0  0  0  0  0  0  0  0  0  0  0  0
    2.9268    0.9345    0.7477 C   0  0  0  0  0  0  0  0  0  0  0  0
    4.4402    1.0318    0.9657 C   0  0  0  0  0  0  0  0  0  0  0  0
    4.8421    2.1613    1.9210 C   0  0  0  0  0  0  0  0  0  0  0  0
    6.3420    2.1980    2.2699 C   0  0  1  0  0  0  0  0  0  0  0  0
    7.2553    2.4596    1.0674 C   0  0  0  0  0  0  0  0  0  0  0  0
    6.6034    3.1606    3.3612 N   0  0  0  0  0  0  0  0  0  0  0  0
    6.5459    4.5844    3.0600 C   0  0  0  0  0  0  0  0  0  0  0  0
    6.2931    5.5031    4.2502 C   0  0  0  0  0  0  0  0  0  0  0  0
    5.8474    6.6246    4.0919 O   0  0  0  0  0  0  0  0  0  0  0  0
    6.6182    4.9824    5.4619 N   0  0  0  0  0  0  0  0  0  0  0  0
    7.2744    3.7038    5.6872 C   0  0  2  0  0  0  0  0  0  0  0  0
    8.7907    3.8345    5.9090 C   0  0  0  0  0  0  0  0  0  0  0  0
    6.9900    2.6792    4.5804 C   0  0  0  0  0  0  0  0  0  0  0  0
    7.1420    1.4925    4.8283 O   0  0  0  0  0  0  0  0  0  0  0  0
    0.7365   -1.0890   -1.1210 H   0  0  0  0  0  0  0  0  0  0  0  0
    0.5917    0.6609   -0.8376 H   0  0  0  0  0  0  0  0  0  0  0  0
    0.4740   -0.4721    0.5263 H   0  0  0  0  0  0  0  0  0  0  0  0
    3.0093   -0.0264   -1.1889 H   0  0  0  0  0  0  0  0  0  0  0  0
    2.8922   -1.1481    0.1648 H   0  0  0  0  0  0  0  0  0  0  0  0
    2.4271    0.7812    1.7222 H   0  0  0  0  0  0  0  0  0  0  0  0
    2.5495    1.9023    0.3674 H   0  0  0  0  0  0  0  0  0  0  0  0
    4.9334    1.1691   -0.0128 H   0  0  0  0  0  0  0  0  0  0  0  0
    4.8145    0.0698    1.3621 H   0  0  0  0  0  0  0  0  0  0  0  0
    4.2820    2.0488    2.8651 H   0  0  0  0  0  0  0  0  0  0  0  0
    4.5282    3.1291    1.4880 H   0  0  0  0  0  0  0  0  0  0  0  0
    6.6113    1.2259    2.7062 H   0  0  0  0  0  0  0  0  0  0  0  0
    6.9995    3.3948    0.5423 H   0  0  0  0  0  0  0  0  0  0  0  0
    7.1731    1.6406    0.3379 H   0  0  0  0  0  0  0  0  0  0  0  0
    8.3090    2.5171    1.3822 H   0  0  0  0  0  0  0  0  0  0  0  0
    5.7302    4.7849    2.3519 H   0  0  0  0  0  0  0  0  0  0  0  0
    7.4753    4.9369    2.5712 H   0  0  0  0  0  0  0  0  0  0  0  0
    6.4856    5.6089    6.2514 H   0  0  0  0  0  0  0  0  0  0  0  0
    6.8334    3.2479    6.5877 H   0  0  0  0  0  0  0  0  0  0  0  0
    9.2846    4.2622    5.0219 H   0  0  0  0  0  0  0  0  0  0  0  0
    9.2231    2.8441    6.1119 H   0  0  0  0  0  0  0  0  0  0  0  0
    8.9987    4.4930    6.7670 H   0  0  0  0  0  0  0  0  0  0  0  0
  1  2  1  0
  1 17  1  0
  1 18  1  0
  1 19  1  0
  2  3  1  0
  2 20  1  0
  2 21  1  0
  3  4  1  0
  3 22  1  0
  3 23  1  0
  4  5  1  0
  4 24  1  0
  4 25  1  0
  5  6  1  0
  5 26  1  0
  5 27  1  0
  6  7  1  0
  6  8  1  0
  6 28  1  1
  7 29  1  0
  7 30  1  0
  7 31  1  0
  8  9  1  0
  8 15  1  0
  9 10  1  0
  9 32  1  0
  9 33  1  0
 10 11  2  0
 10 12  1  0
 12 13  1  0
 12 34  1  0
 13 14  1  0
 13 15  1  0
 13 35  1  1
 14 36  1  0
 14 37  1  0
 14 38  1  0
 15 16  2  0
M  END

