
     RDKit          3D

 54 56  0  0  0  0  0  0  0  0999 V2000
    1.1485    0.3950    0.0447 C   0  0  0  0  0  0  0  0  0  0  0  0
    2.6419    0.2140   -0.0480 C   0  0  0  0  0  0  0  0  0  0  0  0
    3.1765   -1.1028   -0.1886 C   0  0  0  0  0  0  0  0  0  0  0  0
    4.5317   -1.3472   -0.2803 C   0  0  0  0  0  0  0  0  0  0  0  0
    5.0582   -2.7526   -0.4291 C   0  0  0  0  0  0  0  0  0  0  0  0
    5.4316   -0.2290   -0.2317 C   0  0  0  0  0  0  0  0  0  0  0  0
    6.8335   -0.3453   -0.3172 C   0  0  0  0  0  0  0  0  0  0  0  0
    7.6607    0.7726   -0.2658 C   0  0  0  0  0  0  0  0  0  0  0  0
    9.0728    0.5615   -0.3732 C   0  0  0  0  0  0  0  0  0  0  0  0
   10.2115    0.3441   -0.4670 N   0  0  0  0  0  0  0  0  0  0  0  0
    7.0359    2.0747   -0.1177 C   0  0  0  0  0  0  0  0  0  0  0  0
    7.7217    3.2522   -0.0596 N   0  0  0  0  0  0  0  0  0  0  0  0
    9.1519    3.4846    0.0065 C   0  0  0  0  0  0  0  0  0  0  0  0
    9.4622    4.9794    0.0156 C   0  0  0  0  0  0  0  0  0  0  0  0
   10.9682    5.2727    0.0649 C   0  0  0  0  0  0  0  0  0  0  0  0
   11.7189    4.7728   -1.0750 N   0  0  0  0  0  0  0  0  0  0  0  0
   11.8008    5.5080   -2.2368 C   0  0  0  0  0  0  0  0  0  0  0  0
   11.2906    6.6104   -2.3473 O   0  0  0  0  0  0  0  0  0  0  0  0
   12.5291    4.8684   -3.2375 N   0  0  0  0  0  0  0  0  0  0  0  0
   12.7942    5.3226   -4.5361 C   0  0  0  0  0  0  0  0  0  0  0  0
   12.5287    6.6454   -4.9394 C   0  0  0  0  0  0  0  0  0  0  0  0
   12.8301    7.0629   -6.2350 C   0  0  0  0  0  0  0  0  0  0  0  0
   13.4057    6.1903   -7.1612 C   0  0  0  0  0  0  0  0  0  0  0  0
   13.6664    4.8766   -6.7766 C   0  0  0  0  0  0  0  0  0  0  0  0
   13.3641    4.4315   -5.4845 C   0  0  0  0  0  0  0  0  0  0  0  0
   13.5921    2.9817   -5.1445 C   0  0  1  0  0  0  0  0  0  0  0  0
   14.3337    2.8363   -4.0078 F   0  0  0  0  0  0  0  0  0  0  0  0
   12.4360    2.3287   -4.9077 F   0  0  0  0  0  0  0  0  0  0  0  0
   14.2355    2.3157   -6.1086 F   0  0  0  0  0  0  0  0  0  0  0  0
    5.7165    2.1878   -0.0358 N   0  0  0  0  0  0  0  0  0  0  0  0
    4.9148    1.1033   -0.0900 C   0  0  0  0  0  0  0  0  0  0  0  0
    3.5060    1.2891   -0.0007 C   0  0  0  0  0  0  0  0  0  0  0  0
    0.6456   -0.0014   -0.8537 H   0  0  0  0  0  0  0  0  0  0  0  0
    0.8724    1.4537    0.1512 H   0  0  0  0  0  0  0  0  0  0  0  0
    0.7363   -0.1550    0.9077 H   0  0  0  0  0  0  0  0  0  0  0  0
    2.4813   -1.9469   -0.2249 H   0  0  0  0  0  0  0  0  0  0  0  0
    4.2354   -3.4812   -0.4473 H   0  0  0  0  0  0  0  0  0  0  0  0
    5.7295   -3.0276    0.4019 H   0  0  0  0  0  0  0  0  0  0  0  0
    5.6345   -2.8763   -1.3614 H   0  0  0  0  0  0  0  0  0  0  0  0
    7.2995   -1.3255   -0.4290 H   0  0  0  0  0  0  0  0  0  0  0  0
    7.1026    4.0443    0.0810 H   0  0  0  0  0  0  0  0  0  0  0  0
    9.6502    3.0239   -0.8603 H   0  0  0  0  0  0  0  0  0  0  0  0
    9.5884    3.0130    0.9079 H   0  0  0  0  0  0  0  0  0  0  0  0
    8.9871    5.4536    0.8932 H   0  0  0  0  0  0  0  0  0  0  0  0
    9.0359    5.4579   -0.8818 H   0  0  0  0  0  0  0  0  0  0  0  0
   11.4104    4.8397    0.9776 H   0  0  0  0  0  0  0  0  0  0  0  0
   11.1178    6.3606    0.1064 H   0  0  0  0  0  0  0  0  0  0  0  0
   12.0427    3.8128   -1.0569 H   0  0  0  0  0  0  0  0  0  0  0  0
   12.9606    3.9883   -2.9848 H   0  0  0  0  0  0  0  0  0  0  0  0
   12.0821    7.3266   -4.2199 H   0  0  0  0  0  0  0  0  0  0  0  0
   12.6138    8.0964   -6.5181 H   0  0  0  0  0  0  0  0  0  0  0  0
   13.6455    6.5248   -8.1726 H   0  0  0  0  0  0  0  0  0  0  0  0
   14.1057    4.1735   -7.4851 H   0  0  0  0  0  0  0  0  0  0  0  0
    3.1405    2.3124    0.1058 H   0  0  0  0  0  0  0  0  0  0  0  0
  1  2  1  0
  1 33  1  0
  1 34  1  0
  1 35  1  0
  2  3  2  0
  2 32  1  0
  3  4  1  0
  3 36  1  0
  4  5  1  0
  4  6  2  0
  5 37  1  0
  5 38  1  0
  5 39  1  0
  6  7  1  0
  6 31  1  0
  7  8  2  0
  7 40  1  0
  8  9  1  0
  8 11  1  0
  9 10  3  0
 11 12  1  0
 11 30  2  0
 12 13  1  0
 12 41  1  0
 13 14  1  0
 13 42  1  0
 13 43  1  0
 14 15  1  0
 14 44  1  0
 14 45  1  0
 15 16  1  0
 15 46  1  0
 15 47  1  0
 16 17  1  0
 16 48  1  0
 17 18  2  0
 17 19  1  0
 19 20  1  0
 19 49  1  0
 20 21  2  0
 20 25  1  0
 21 22  1  0
 21 50  1  0
 22 23  2  0
 22 51  1  0
 23 24  1  0
 23 52  1  0
 24 25  2  0
 24 53  1  0
 25 26  1  0
 26 27  1  1
 26 28  1  0
 26 29  1  0
 30 31  1  0
 31 32  2  0
 32 54  1  0
M  END

