
     RDKit          3D

 44 46  0  0  0  0  0  0  0  0999 V2000
    1.8388    0.7727   -0.9782 C   0  0  0  0  0  0  0  0  0  0  0  0
    2.5205    0.1234    0.0906 O   0  0  0  0  0  0  0  0  0  0  0  0
    2.9655    0.8840    1.1171 C   0  0  0  0  0  0  0  0  0  0  0  0
    2.6692    2.1721    1.1274 N   0  0  0  0  0  0  0  0  0  0  0  0
    3.0924    2.8884    2.1764 C   0  0  0  0  0  0  0  0  0  0  0  0
    3.8327    2.3586    3.2203 C   0  0  0  0  0  0  0  0  0  0  0  0
    4.1946    0.9904    3.1831 C   0  0  0  0  0  0  0  0  0  0  0  0
    3.7168    0.2085    2.1113 C   0  0  0  0  0  0  0  0  0  0  0  0
    3.9811   -1.2803    1.9869 C   0  0  2  0  0  0  0  0  0  0  0  0
    4.4474   -1.4644    1.0033 H   0  0  0  0  0  0  0  0  0  0  0  0
    2.7021   -2.0151    2.0119 N   0  0  0  0  0  0  0  0  0  0  0  0
    2.6834   -3.3067    1.5208 C   0  0  0  0  0  0  0  0  0  0  0  0
    3.6633   -3.9376    1.2135 O   0  0  0  0  0  0  0  0  0  0  0  0
    1.4411   -3.8501    1.4286 O   0  0  0  0  0  0  0  0  0  0  0  0
    4.9534   -1.7917    3.0750 C   0  0  1  0  0  0  0  0  0  0  0  0
    4.7263   -2.8536    3.2402 H   0  0  0  0  0  0  0  0  0  0  0  0
    6.4059   -1.6959    2.5922 C   0  0  0  0  0  0  0  0  0  0  0  0
    4.7454   -1.0598    4.4150 C   0  0  2  0  0  0  0  0  0  0  0  0
    5.5481   -1.3588    5.0994 H   0  0  0  0  0  0  0  0  0  0  0  0
    3.4274   -1.3457    5.1138 C   0  0  2  0  0  0  0  0  0  0  0  0
    3.3223   -1.1232    6.6016 C   0  0  0  0  0  0  0  0  0  0  0  0
    3.3411   -2.5259    6.0491 C   0  0  0  0  0  0  0  0  0  0  0  0
    4.9559    0.3932    4.1978 N   0  0  0  0  0  0  0  0  0  0  0  0
    5.9395    1.0159    4.9781 C   0  0  0  0  0  0  0  0  0  0  0  0
    6.5296    2.3447    4.5350 C   0  0  0  0  0  0  0  0  0  0  0  0
    6.3804    0.4615    5.9684 O   0  0  0  0  0  0  0  0  0  0  0  0
    1.5968   -0.0170   -1.7012 H   0  0  0  0  0  0  0  0  0  0  0  0
    2.4768    1.5362   -1.4487 H   0  0  0  0  0  0  0  0  0  0  0  0
    0.9198    1.2654   -0.6257 H   0  0  0  0  0  0  0  0  0  0  0  0
    2.8108    3.9474    2.1888 H   0  0  0  0  0  0  0  0  0  0  0  0
    4.0955    2.9872    4.0673 H   0  0  0  0  0  0  0  0  0  0  0  0
    1.8957   -1.4479    1.7708 H   0  0  0  0  0  0  0  0  0  0  0  0
    0.7948   -3.3067    1.9009 H   0  0  0  0  0  0  0  0  0  0  0  0
    6.6871   -0.6628    2.3290 H   0  0  0  0  0  0  0  0  0  0  0  0
    6.5496   -2.3230    1.6993 H   0  0  0  0  0  0  0  0  0  0  0  0
    7.1050   -2.0445    3.3682 H   0  0  0  0  0  0  0  0  0  0  0  0
    2.5309   -1.1393    4.5228 H   0  0  0  0  0  0  0  0  0  0  0  0
    2.3803   -0.7345    6.9987 H   0  0  0  0  0  0  0  0  0  0  0  0
    4.2171   -0.7636    7.1169 H   0  0  0  0  0  0  0  0  0  0  0  0
    2.4169   -3.1103    6.0616 H   0  0  0  0  0  0  0  0  0  0  0  0
    4.2449   -3.1235    6.2035 H   0  0  0  0  0  0  0  0  0  0  0  0
    6.4354    2.5471    3.4609 H   0  0  0  0  0  0  0  0  0  0  0  0
    7.5893    2.3168    4.8227 H   0  0  0  0  0  0  0  0  0  0  0  0
    6.0681    3.1748    5.0920 H   0  0  0  0  0  0  0  0  0  0  0  0
  1  2  1  0
  1 27  1  0
  1 28  1  0
  1 29  1  0
  2  3  1  0
  3  4  2  0
  3  8  1  0
  4  5  1  0
  5  6  2  0
  5 30  1  0
  6  7  1  0
  6 31  1  0
  7  8  2  0
  7 23  1  0
  8  9  1  0
  9 10  1  6
  9 11  1  0
  9 15  1  0
 11 12  1  0
 11 32  1  0
 12 13  2  0
 12 14  1  0
 14 33  1  0
 15 16  1  1
 15 17  1  0
 15 18  1  0
 17 34  1  0
 17 35  1  0
 17 36  1  0
 18 19  1  1
 18 20  1  0
 18 23  1  0
 20 21  1  0
 20 22  1  0
 20 37  1  6
 21 22  1  0
 21 38  1  0
 21 39  1  0
 22 40  1  0
 22 41  1  0
 23 24  1  0
 24 25  1  0
 24 26  2  0
 25 42  1  0
 25 43  1  0
 25 44  1  0
M  END

