
     RDKit          3D

 44 47  0  0  0  0  0  0  0  0999 V2000
    0.9650    0.4110   -0.3847 N   0  0  0  0  0  0  0  0  0  0  0  0
    2.0613    0.0082    0.2929 C   0  0  0  0  0  0  0  0  0  0  0  0
    2.7591    1.0168    0.9197 N   0  0  0  0  0  0  0  0  0  0  0  0
    3.8092    0.7305    1.6180 C   0  0  0  0  0  0  0  0  0  0  0  0
    4.6451    2.1493    2.3146 S   0  0  0  0  0  0  0  0  0  0  0  0
    5.5745    1.4635    3.7472 C   0  0  0  0  0  0  0  0  0  0  0  0
    6.8728    0.8154    3.3213 C   0  0  0  0  0  0  0  0  0  0  0  0
    6.9126   -0.3362    2.9166 O   0  0  0  0  0  0  0  0  0  0  0  0
    8.0555    1.5407    3.3567 N   0  0  0  0  0  0  0  0  0  0  0  0
    8.3327    2.8412    3.7499 C   0  0  0  0  0  0  0  0  0  0  0  0
    7.4931    3.6959    4.2267 N   0  0  0  0  0  0  0  0  0  0  0  0
    8.1095    4.9006    4.5158 C   0  0  0  0  0  0  0  0  0  0  0  0
    7.4761    6.0361    5.0449 C   0  0  0  0  0  0  0  0  0  0  0  0
    8.2306    7.1821    5.2844 C   0  0  0  0  0  0  0  0  0  0  0  0
    9.6084    7.2141    5.0042 C   0  0  0  0  0  0  0  0  0  0  0  0
   10.2591    6.0974    4.4771 C   0  0  0  0  0  0  0  0  0  0  0  0
    9.5003    4.9488    4.2377 C   0  0  0  0  0  0  0  0  0  0  0  0
   10.0149    3.4012    3.5875 S   0  0  0  0  0  0  0  0  0  0  0  0
    4.2756   -0.5293    1.8012 N   0  0  0  0  0  0  0  0  0  0  0  0
    5.1716   -0.7171    2.2714 H   0  0  0  0  0  0  0  0  0  0  0  0
    3.6264   -1.6446    1.2351 C   0  0  0  0  0  0  0  0  0  0  0  0
    4.0371   -2.7821    1.4481 O   0  0  0  0  0  0  0  0  0  0  0  0
    2.4778   -1.3247    0.4195 C   0  0  0  0  0  0  0  0  0  0  0  0
    1.8766   -2.4927   -0.0961 N   0  0  0  0  0  0  0  0  0  0  0  0
    1.0294   -2.6994   -1.1348 C   0  0  0  0  0  0  0  0  0  0  0  0
    0.5310   -1.8305   -1.8576 O   0  0  0  0  0  0  0  0  0  0  0  0
    0.6980   -4.1174   -1.3840 C   0  0  0  0  0  0  0  0  0  0  0  0
   -0.1073   -4.6867   -2.3360 C   0  0  0  0  0  0  0  0  0  0  0  0
   -0.0558   -6.0986   -2.1238 C   0  0  0  0  0  0  0  0  0  0  0  0
    0.7830   -6.2768   -1.0543 C   0  0  0  0  0  0  0  0  0  0  0  0
    1.3550   -7.8189   -0.1759 Br  0  0  0  0  0  0  0  0  0  0  0  0
    1.2454   -5.0960   -0.5958 O   0  0  0  0  0  0  0  0  0  0  0  0
    0.8558    1.4117   -0.4911 H   0  0  0  0  0  0  0  0  0  0  0  0
    0.5654   -0.2399   -1.0722 H   0  0  0  0  0  0  0  0  0  0  0  0
    4.9619    0.7097    4.2605 H   0  0  0  0  0  0  0  0  0  0  0  0
    5.7411    2.3316    4.3948 H   0  0  0  0  0  0  0  0  0  0  0  0
    8.8389    0.9933    3.0073 H   0  0  0  0  0  0  0  0  0  0  0  0
    6.4059    6.0007    5.2571 H   0  0  0  0  0  0  0  0  0  0  0  0
    7.7453    8.0703    5.6957 H   0  0  0  0  0  0  0  0  0  0  0  0
   10.1800    8.1242    5.2000 H   0  0  0  0  0  0  0  0  0  0  0  0
   11.3288    6.1247    4.2597 H   0  0  0  0  0  0  0  0  0  0  0  0
    2.2927   -3.3210    0.3368 H   0  0  0  0  0  0  0  0  0  0  0  0
   -0.6633   -4.1405   -3.0937 H   0  0  0  0  0  0  0  0  0  0  0  0
   -0.5646   -6.8811   -2.6805 H   0  0  0  0  0  0  0  0  0  0  0  0
  1  2  1  0
  1 33  1  0
  1 34  1  0
  2  3  2  0
  2 23  1  0
  3  4  1  0
  4  5  2  0
  4 19  1  0
  5  6  1  0
  6  7  1  0
  6 35  1  0
  6 36  1  0
  7  8  2  0
  7  9  1  0
  9 10  1  0
  9 37  1  0
 10 11  2  0
 10 18  1  0
 11 12  1  0
 12 13  2  0
 12 17  1  0
 13 14  1  0
 13 38  1  0
 14 15  2  0
 14 39  1  0
 15 16  1  0
 15 40  1  0
 16 17  2  0
 16 41  1  0
 17 18  1  0
 19 20  1  0
 19 21  1  0
 21 22  1  0
 21 23  2  0
 23 24  1  0
 24 25  1  0
 24 42  1  0
 25 26  2  0
 25 27  1  0
 27 28  2  0
 27 32  1  0
 28 29  1  0
 28 43  1  0
 29 30  2  0
 29 44  1  0
 30 31  1  0
 30 32  1  0
M  CHG  2   5   1  22  -1
M  END

