
     RDKit          3D

 75 78  0  0  0  0  0  0  0  0999 V2000
    7.8166    0.8967   -0.4878 C   0  0  0  0  0  0  0  0  0  0  0  0
    6.3688    0.4384   -0.6622 C   0  0  0  0  0  0  0  0  0  0  0  0
    5.5317    0.4482    0.6362 C   0  0  1  0  0  0  0  0  0  0  0  0
    4.0532    0.1440    0.3362 C   0  0  0  0  0  0  0  0  0  0  0  0
    6.0899   -0.4774    1.7108 C   0  0  0  0  0  0  0  0  0  0  0  0
    6.5241    0.0216    2.9428 C   0  0  0  0  0  0  0  0  0  0  0  0
    7.0279   -0.8264    3.9357 C   0  0  0  0  0  0  0  0  0  0  0  0
    7.0989   -2.2005    3.7001 C   0  0  0  0  0  0  0  0  0  0  0  0
    7.5954   -3.1035    4.6109 O   0  0  0  0  0  0  0  0  0  0  0  0
    7.9237   -2.7075    5.8941 C   0  0  0  0  0  0  0  0  0  0  0  0
    6.9380   -2.6053    6.8804 C   0  0  0  0  0  0  0  0  0  0  0  0
    7.2868   -2.2723    8.1885 C   0  0  0  0  0  0  0  0  0  0  0  0
    8.6310   -2.0374    8.5441 C   0  0  0  0  0  0  0  0  0  0  0  0
    8.9840   -1.7600    9.8596 N   0  0  0  0  0  0  0  0  0  0  0  0
    9.6112   -2.1487    7.5378 C   0  0  0  0  0  0  0  0  0  0  0  0
    9.2605   -2.4784    6.2284 C   0  0  0  0  0  0  0  0  0  0  0  0
    6.6687   -2.7450    2.4705 C   0  0  0  0  0  0  0  0  0  0  0  0
    6.7755   -4.2487    2.2620 C   0  0  0  0  0  0  0  0  0  0  0  0
    6.1603   -4.7851    0.9918 C   0  0  0  0  0  0  0  0  0  0  0  0
    6.9386   -5.0802   -0.1315 C   0  0  0  0  0  0  0  0  0  0  0  0
    6.3940   -5.5778   -1.3289 C   0  0  0  0  0  0  0  0  0  0  0  0
    7.2717   -5.8799   -2.5378 C   0  0  1  0  0  0  0  0  0  0  0  0
    7.9293   -4.6051   -3.0950 C   0  0  0  0  0  0  0  0  0  0  0  0
    8.3312   -6.9686   -2.2574 C   0  0  0  0  0  0  0  0  0  0  0  0
    7.7562   -8.3274   -1.8578 C   0  0  0  0  0  0  0  0  0  0  0  0
    5.0093   -5.7760   -1.3702 C   0  0  0  0  0  0  0  0  0  0  0  0
    4.1956   -5.4944   -0.2675 C   0  0  0  0  0  0  0  0  0  0  0  0
    4.7676   -5.0016    0.9085 C   0  0  0  0  0  0  0  0  0  0  0  0
    4.0458   -4.7036    2.0371 O   0  0  0  0  0  0  0  0  0  0  0  0
    2.6704   -4.8472    2.0579 C   0  0  0  0  0  0  0  0  0  0  0  0
    2.0943   -6.0536    2.4645 C   0  0  0  0  0  0  0  0  0  0  0  0
    0.7077   -6.1740    2.5537 C   0  0  0  0  0  0  0  0  0  0  0  0
   -0.1359   -5.0893    2.2394 C   0  0  0  0  0  0  0  0  0  0  0  0
   -1.5188   -5.2238    2.2794 N   0  0  0  0  0  0  0  0  0  0  0  0
    0.4637   -3.8786    1.8366 C   0  0  0  0  0  0  0  0  0  0  0  0
    1.8502   -3.7592    1.7474 C   0  0  0  0  0  0  0  0  0  0  0  0
    6.1765   -1.8667    1.5032 C   0  0  0  0  0  0  0  0  0  0  0  0
    8.3560    0.8865   -1.4486 H   0  0  0  0  0  0  0  0  0  0  0  0
    8.3646    0.2463    0.2120 H   0  0  0  0  0  0  0  0  0  0  0  0
    7.8658    1.9249   -0.0904 H   0  0  0  0  0  0  0  0  0  0  0  0
    6.3503   -0.5775   -1.0963 H   0  0  0  0  0  0  0  0  0  0  0  0
    5.8656    1.0878   -1.4010 H   0  0  0  0  0  0  0  0  0  0  0  0
    5.5800    1.4745    1.0436 H   0  0  0  0  0  0  0  0  0  0  0  0
    3.9319   -0.8623   -0.0979 H   0  0  0  0  0  0  0  0  0  0  0  0
    3.6392    0.8680   -0.3852 H   0  0  0  0  0  0  0  0  0  0  0  0
    3.4441    0.1887    1.2528 H   0  0  0  0  0  0  0  0  0  0  0  0
    6.4730    1.0967    3.1395 H   0  0  0  0  0  0  0  0  0  0  0  0
    7.3652   -0.4184    4.8894 H   0  0  0  0  0  0  0  0  0  0  0  0
    5.8951   -2.7929    6.6154 H   0  0  0  0  0  0  0  0  0  0  0  0
    6.5080   -2.2023    8.9534 H   0  0  0  0  0  0  0  0  0  0  0  0
    8.2521   -1.3819   10.4500 H   0  0  0  0  0  0  0  0  0  0  0  0
    9.8754   -1.2977    9.9967 H   0  0  0  0  0  0  0  0  0  0  0  0
   10.6623   -1.9801    7.7890 H   0  0  0  0  0  0  0  0  0  0  0  0
   10.0247   -2.5670    5.4532 H   0  0  0  0  0  0  0  0  0  0  0  0
    6.3161   -4.7423    3.1328 H   0  0  0  0  0  0  0  0  0  0  0  0
    7.8421   -4.5294    2.2952 H   0  0  0  0  0  0  0  0  0  0  0  0
    8.0175   -4.9118   -0.0589 H   0  0  0  0  0  0  0  0  0  0  0  0
    6.6034   -6.2755   -3.3240 H   0  0  0  0  0  0  0  0  0  0  0  0
    8.6296   -4.1635   -2.3669 H   0  0  0  0  0  0  0  0  0  0  0  0
    7.1749   -3.8400   -3.3362 H   0  0  0  0  0  0  0  0  0  0  0  0
    8.4995   -4.8242   -4.0130 H   0  0  0  0  0  0  0  0  0  0  0  0
    9.0194   -6.6101   -1.4706 H   0  0  0  0  0  0  0  0  0  0  0  0
    8.9514   -7.0854   -3.1642 H   0  0  0  0  0  0  0  0  0  0  0  0
    7.1651   -8.2596   -0.9309 H   0  0  0  0  0  0  0  0  0  0  0  0
    8.5574   -9.0655   -1.6917 H   0  0  0  0  0  0  0  0  0  0  0  0
    7.0936   -8.7280   -2.6436 H   0  0  0  0  0  0  0  0  0  0  0  0
    4.5469   -6.1624   -2.2834 H   0  0  0  0  0  0  0  0  0  0  0  0
    3.1191   -5.6604   -0.3223 H   0  0  0  0  0  0  0  0  0  0  0  0
    2.7421   -6.8956    2.7185 H   0  0  0  0  0  0  0  0  0  0  0  0
    0.2677   -7.1230    2.8735 H   0  0  0  0  0  0  0  0  0  0  0  0
   -1.8797   -5.9667    2.8668 H   0  0  0  0  0  0  0  0  0  0  0  0
   -2.0499   -4.3648    2.3652 H   0  0  0  0  0  0  0  0  0  0  0  0
   -0.1686   -3.0201    1.5925 H   0  0  0  0  0  0  0  0  0  0  0  0
    2.3096   -2.8151    1.4470 H   0  0  0  0  0  0  0  0  0  0  0  0
    5.8460   -2.2891    0.5514 H   0  0  0  0  0  0  0  0  0  0  0  0
  1  2  1  0
  1 38  1  0
  1 39  1  0
  1 40  1  0
  2  3  1  0
  2 41  1  0
  2 42  1  0
  3  4  1  0
  3  5  1  0
  3 43  1  1
  4 44  1  0
  4 45  1  0
  4 46  1  0
  5  6  2  0
  5 37  1  0
  6  7  1  0
  6 47  1  0
  7  8  2  0
  7 48  1  0
  8  9  1  0
  8 17  1  0
  9 10  1  0
 10 11  2  0
 10 16  1  0
 11 12  1  0
 11 49  1  0
 12 13  2  0
 12 50  1  0
 13 14  1  0
 13 15  1  0
 14 51  1  0
 14 52  1  0
 15 16  2  0
 15 53  1  0
 16 54  1  0
 17 18  1  0
 17 37  2  0
 18 19  1  0
 18 55  1  0
 18 56  1  0
 19 20  2  0
 19 28  1  0
 20 21  1  0
 20 57  1  0
 21 22  1  0
 21 26  2  0
 22 23  1  0
 22 24  1  0
 22 58  1  6
 23 59  1  0
 23 60  1  0
 23 61  1  0
 24 25  1  0
 24 62  1  0
 24 63  1  0
 25 64  1  0
 25 65  1  0
 25 66  1  0
 26 27  1  0
 26 67  1  0
 27 28  2  0
 27 68  1  0
 28 29  1  0
 29 30  1  0
 30 31  2  0
 30 36  1  0
 31 32  1  0
 31 69  1  0
 32 33  2  0
 32 70  1  0
 33 34  1  0
 33 35  1  0
 34 71  1  0
 34 72  1  0
 35 36  2  0
 35 73  1  0
 36 74  1  0
 37 75  1  0
M  END

