
     RDKit          3D

 39 41  0  0  0  0  0  0  0  0999 V2000
    3.6556    0.2337    3.2642 C   0  0  0  0  0  0  0  0  0  0  0  0
    2.9872    0.0804    1.8978 C   0  0  0  0  0  0  0  0  0  0  0  0
    3.4389   -1.1704    1.1089 C   0  0  0  0  0  0  0  0  0  0  0  0
    4.8913   -1.1772    0.6778 C   0  0  0  0  0  0  0  0  0  0  0  0
    5.8393   -1.9169    1.3922 C   0  0  0  0  0  0  0  0  0  0  0  0
    7.1918   -1.9482    1.0350 C   0  0  0  0  0  0  0  0  0  0  0  0
    7.6080   -1.2134   -0.0744 C   0  0  0  0  0  0  0  0  0  0  0  0
    6.6900   -0.4630   -0.8122 C   0  0  0  0  0  0  0  0  0  0  0  0
    5.3235   -0.4334   -0.4595 C   0  0  0  0  0  0  0  0  0  0  0  0
    4.3987    0.2731   -1.2141 N   0  0  0  0  0  0  0  0  0  0  0  0
    4.7238    1.1252   -2.3405 C   0  0  2  0  0  0  0  0  0  0  0  0
    5.3789    2.4976   -1.9852 C   0  0  0  0  0  0  0  0  0  0  0  0
    4.3435    3.4978   -2.0629 O   0  0  0  0  0  0  0  0  0  0  0  0
    3.3182    2.9713   -2.7745 C   0  0  0  0  0  0  0  0  0  0  0  0
    2.2102    3.6960   -3.2126 C   0  0  0  0  0  0  0  0  0  0  0  0
    1.2232    3.0010   -3.9311 C   0  0  0  0  0  0  0  0  0  0  0  0
    0.1118    3.6214   -4.4020 O   0  0  0  0  0  0  0  0  0  0  0  0
    1.3523    1.6244   -4.1961 C   0  0  0  0  0  0  0  0  0  0  0  0
    2.4722    0.9261   -3.7374 C   0  0  0  0  0  0  0  0  0  0  0  0
    3.4662    1.6044   -3.0329 C   0  0  0  0  0  0  0  0  0  0  0  0
    3.2919    1.1335    3.7857 H   0  0  0  0  0  0  0  0  0  0  0  0
    4.7499    0.3184    3.1725 H   0  0  0  0  0  0  0  0  0  0  0  0
    3.4432   -0.6342    3.9116 H   0  0  0  0  0  0  0  0  0  0  0  0
    3.1768    0.9892    1.2988 H   0  0  0  0  0  0  0  0  0  0  0  0
    1.8918    0.0292    2.0288 H   0  0  0  0  0  0  0  0  0  0  0  0
    2.7891   -1.2870    0.2222 H   0  0  0  0  0  0  0  0  0  0  0  0
    3.2505   -2.0612    1.7310 H   0  0  0  0  0  0  0  0  0  0  0  0
    5.4993   -2.4950    2.2569 H   0  0  0  0  0  0  0  0  0  0  0  0
    7.9042   -2.5381    1.6158 H   0  0  0  0  0  0  0  0  0  0  0  0
    8.6591   -1.2161   -0.3758 H   0  0  0  0  0  0  0  0  0  0  0  0
    7.0456    0.1051   -1.6727 H   0  0  0  0  0  0  0  0  0  0  0  0
    3.4794    0.4111   -0.8182 H   0  0  0  0  0  0  0  0  0  0  0  0
    5.3850    0.5652   -3.0228 H   0  0  0  0  0  0  0  0  0  0  0  0
    6.1636    2.7604   -2.7161 H   0  0  0  0  0  0  0  0  0  0  0  0
    5.8070    2.5173   -0.9738 H   0  0  0  0  0  0  0  0  0  0  0  0
    2.1232    4.7644   -3.0006 H   0  0  0  0  0  0  0  0  0  0  0  0
    0.1364    4.5569   -4.1620 H   0  0  0  0  0  0  0  0  0  0  0  0
    0.5614    1.1275   -4.7600 H   0  0  0  0  0  0  0  0  0  0  0  0
    2.5641   -0.1457   -3.9320 H   0  0  0  0  0  0  0  0  0  0  0  0
  1  2  1  0
  1 21  1  0
  1 22  1  0
  1 23  1  0
  2  3  1  0
  2 24  1  0
  2 25  1  0
  3  4  1  0
  3 26  1  0
  3 27  1  0
  4  5  2  0
  4  9  1  0
  5  6  1  0
  5 28  1  0
  6  7  2  0
  6 29  1  0
  7  8  1  0
  7 30  1  0
  8  9  2  0
  8 31  1  0
  9 10  1  0
 10 11  1  0
 10 32  1  0
 11 12  1  0
 11 20  1  0
 11 33  1  6
 12 13  1  0
 12 34  1  0
 12 35  1  0
 13 14  1  0
 14 15  1  0
 14 20  2  0
 15 16  2  0
 15 36  1  0
 16 17  1  0
 16 18  1  0
 17 37  1  0
 18 19  2  0
 18 38  1  0
 19 20  1  0
 19 39  1  0
M  END

