
     RDKit          3D

 43 44  0  0  0  0  0  0  0  0999 V2000
    0.8472   -0.5079   -2.9476 C   0  0  0  0  0  0  0  0  0  0  0  0
    2.1051   -0.2283   -2.1639 C   0  0  0  0  0  0  0  0  0  0  0  0
    3.2232    0.3613   -2.7722 C   0  0  0  0  0  0  0  0  0  0  0  0
    4.4034    0.5959   -2.0695 C   0  0  0  0  0  0  0  0  0  0  0  0
    4.5028    0.2309   -0.7197 C   0  0  0  0  0  0  0  0  0  0  0  0
    5.7690    0.5868    0.0216 C   0  0  0  0  0  0  0  0  0  0  0  0
    6.2849    1.6802   -0.1652 O   0  0  0  0  0  0  0  0  0  0  0  0
    6.2860   -0.3228    0.9196 N   0  0  0  0  0  0  0  0  0  0  0  0
    6.0271   -1.7531    0.9144 C   0  0  0  0  0  0  0  0  0  0  0  0
    7.4280    0.0885    1.7193 C   0  0  0  0  0  0  0  0  0  0  0  0
    3.3817   -0.3134   -0.0838 C   0  0  0  0  0  0  0  0  0  0  0  0
    2.1970   -0.5498   -0.7922 C   0  0  0  0  0  0  0  0  0  0  0  0
    1.0755   -1.0966   -0.1094 N   0  0  0  0  0  0  0  0  0  0  0  0
    1.1085   -2.6650    0.5627 S   0  0  1  0  0  0  0  0  0  0  0  0
   -0.2844   -3.1125    0.4890 O   0  0  0  0  0  0  0  0  0  0  0  0
    2.1900   -3.4392   -0.0486 O   0  0  0  0  0  0  0  0  0  0  0  0
    1.5568   -2.3946    2.2899 C   0  0  0  0  0  0  0  0  0  0  0  0
    2.7690   -2.9646    2.6879 C   0  0  0  0  0  0  0  0  0  0  0  0
    3.1852   -2.7967    4.0032 C   0  0  0  0  0  0  0  0  0  0  0  0
    4.3650   -3.3095    4.3816 F   0  0  0  0  0  0  0  0  0  0  0  0
    2.4095   -2.0967    4.9211 C   0  0  0  0  0  0  0  0  0  0  0  0
    1.1932   -1.5542    4.4997 C   0  0  0  0  0  0  0  0  0  0  0  0
    0.7266   -1.6807    3.1807 C   0  0  0  0  0  0  0  0  0  0  0  0
   -0.5907   -1.0692    2.7783 C   0  0  0  0  0  0  0  0  0  0  0  0
    0.9871   -0.2756   -4.0124 H   0  0  0  0  0  0  0  0  0  0  0  0
   -0.0072    0.0980   -2.5949 H   0  0  0  0  0  0  0  0  0  0  0  0
    0.5510   -1.5677   -2.8710 H   0  0  0  0  0  0  0  0  0  0  0  0
    3.1642    0.6328   -3.8297 H   0  0  0  0  0  0  0  0  0  0  0  0
    5.2577    1.0706   -2.5551 H   0  0  0  0  0  0  0  0  0  0  0  0
    5.2510   -2.0186    0.1887 H   0  0  0  0  0  0  0  0  0  0  0  0
    5.7109   -2.1030    1.9130 H   0  0  0  0  0  0  0  0  0  0  0  0
    6.9469   -2.3055    0.6463 H   0  0  0  0  0  0  0  0  0  0  0  0
    7.4888    1.1826    1.7259 H   0  0  0  0  0  0  0  0  0  0  0  0
    8.3747   -0.3094    1.3077 H   0  0  0  0  0  0  0  0  0  0  0  0
    7.3180   -0.2890    2.7495 H   0  0  0  0  0  0  0  0  0  0  0  0
    3.4150   -0.5400    0.9828 H   0  0  0  0  0  0  0  0  0  0  0  0
    0.1767   -0.9998   -0.5773 H   0  0  0  0  0  0  0  0  0  0  0  0
    3.3767   -3.5234    1.9765 H   0  0  0  0  0  0  0  0  0  0  0  0
    2.7605   -1.9813    5.9483 H   0  0  0  0  0  0  0  0  0  0  0  0
    0.5809   -1.0067    5.2206 H   0  0  0  0  0  0  0  0  0  0  0  0
   -1.0664   -0.5761    3.6374 H   0  0  0  0  0  0  0  0  0  0  0  0
   -1.2747   -1.8313    2.3778 H   0  0  0  0  0  0  0  0  0  0  0  0
   -0.4481   -0.3182    1.9851 H   0  0  0  0  0  0  0  0  0  0  0  0
  1  2  1  0
  1 25  1  0
  1 26  1  0
  1 27  1  0
  2  3  2  0
  2 12  1  0
  3  4  1  0
  3 28  1  0
  4  5  2  0
  4 29  1  0
  5  6  1  0
  5 11  1  0
  6  7  2  0
  6  8  1  0
  8  9  1  0
  8 10  1  0
  9 30  1  0
  9 31  1  0
  9 32  1  0
 10 33  1  0
 10 34  1  0
 10 35  1  0
 11 12  2  0
 11 36  1  0
 12 13  1  0
 14 13  1  6
 13 37  1  0
 14 15  2  0
 14 16  2  0
 14 17  1  0
 17 18  2  0
 17 23  1  0
 18 19  1  0
 18 38  1  0
 19 20  1  0
 19 21  2  0
 21 22  1  0
 21 39  1  0
 22 23  2  0
 22 40  1  0
 23 24  1  0
 24 41  1  0
 24 42  1  0
 24 43  1  0
M  END

