
     RDKit          3D

 40 41  0  0  0  0  0  0  0  0999 V2000
    1.5610    0.4796    3.5822 C   0  0  0  0  0  0  0  0  0  0  0  0
    1.9788   -0.6160    2.6454 C   0  0  0  0  0  0  0  0  0  0  0  0
    1.1685   -1.3501    1.7411 C   0  0  0  0  0  0  0  0  0  0  0  0
    1.8627   -2.2707    1.0760 N   0  0  0  0  0  0  0  0  0  0  0  0
    3.1196   -2.1567    1.5303 N   0  0  0  0  0  0  0  0  0  0  0  0
    4.1827   -2.9824    0.9867 C   0  0  0  0  0  0  0  0  0  0  0  0
    4.9315   -2.3645   -0.2133 C   0  0  2  0  0  0  0  0  0  0  0  0
    5.3310   -1.3904    0.1249 H   0  0  0  0  0  0  0  0  0  0  0  0
    4.0134   -2.1237   -1.4198 C   0  0  0  0  0  0  0  0  0  0  0  0
    6.0868   -3.2175   -0.4805 N   0  0  0  0  0  0  0  0  0  0  0  0
    7.1437   -2.6493   -1.3093 C   0  0  0  0  0  0  0  0  0  0  0  0
    8.3200   -3.5865   -1.3558 C   0  0  0  0  0  0  0  0  0  0  0  0
    9.1735   -3.8299   -2.3696 C   0  0  0  0  0  0  0  0  0  0  0  0
    9.2476   -3.2225   -3.7109 C   0  0  0  0  0  0  0  0  0  0  0  0
    8.8631   -1.8959   -3.9940 C   0  0  0  0  0  0  0  0  0  0  0  0
    8.9558   -1.3811   -5.2895 C   0  0  0  0  0  0  0  0  0  0  0  0
    9.4409   -2.1734   -6.3337 C   0  0  0  0  0  0  0  0  0  0  0  0
    9.8494   -3.4849   -6.0679 C   0  0  0  0  0  0  0  0  0  0  0  0
    9.7616   -3.9963   -4.7735 C   0  0  0  0  0  0  0  0  0  0  0  0
    3.2380   -1.1754    2.4698 C   0  0  0  0  0  0  0  0  0  0  0  0
    0.5345    0.8097    3.3618 H   0  0  0  0  0  0  0  0  0  0  0  0
    2.2161    1.3625    3.5030 H   0  0  0  0  0  0  0  0  0  0  0  0
    1.5800    0.1535    4.6363 H   0  0  0  0  0  0  0  0  0  0  0  0
    0.0984   -1.2382    1.5603 H   0  0  0  0  0  0  0  0  0  0  0  0
    3.7252   -3.9410    0.6971 H   0  0  0  0  0  0  0  0  0  0  0  0
    4.9164   -3.1818    1.7808 H   0  0  0  0  0  0  0  0  0  0  0  0
    4.5588   -1.6367   -2.2432 H   0  0  0  0  0  0  0  0  0  0  0  0
    3.1544   -1.4908   -1.1542 H   0  0  0  0  0  0  0  0  0  0  0  0
    3.6110   -3.0808   -1.7937 H   0  0  0  0  0  0  0  0  0  0  0  0
    5.7797   -4.1058   -0.8794 H   0  0  0  0  0  0  0  0  0  0  0  0
    7.4520   -1.6936   -0.8402 H   0  0  0  0  0  0  0  0  0  0  0  0
    6.8188   -2.3910   -2.3377 H   0  0  0  0  0  0  0  0  0  0  0  0
    8.4552   -4.1578   -0.4303 H   0  0  0  0  0  0  0  0  0  0  0  0
    9.9195   -4.6144   -2.1946 H   0  0  0  0  0  0  0  0  0  0  0  0
    8.5223   -1.2446   -3.1881 H   0  0  0  0  0  0  0  0  0  0  0  0
    8.6569   -0.3472   -5.4813 H   0  0  0  0  0  0  0  0  0  0  0  0
    9.5134   -1.7673   -7.3458 H   0  0  0  0  0  0  0  0  0  0  0  0
   10.2429   -4.1106   -6.8734 H   0  0  0  0  0  0  0  0  0  0  0  0
   10.0877   -5.0209   -4.5734 H   0  0  0  0  0  0  0  0  0  0  0  0
    4.1941   -0.9565    2.9430 H   0  0  0  0  0  0  0  0  0  0  0  0
  1  2  1  0
  1 21  1  0
  1 22  1  0
  1 23  1  0
  2  3  1  0
  2 20  2  0
  3  4  2  0
  3 24  1  0
  4  5  1  0
  5  6  1  0
  5 20  1  0
  6  7  1  0
  6 25  1  0
  6 26  1  0
  7  8  1  1
  7  9  1  0
  7 10  1  0
  9 27  1  0
  9 28  1  0
  9 29  1  0
 10 11  1  0
 10 30  1  0
 11 12  1  0
 11 31  1  0
 11 32  1  0
 12 13  2  0
 12 33  1  0
 13 14  1  0
 13 34  1  0
 14 15  2  0
 14 19  1  0
 15 16  1  0
 15 35  1  0
 16 17  2  0
 16 36  1  0
 17 18  1  0
 17 37  1  0
 18 19  2  0
 18 38  1  0
 19 39  1  0
 20 40  1  0
M  END

