
     RDKit          3D

 34 33  0  0  0  0  0  0  0  0999 V2000
    1.0349    0.1999    1.3018 C   0  0  0  0  0  0  0  0  0  0  0  0
    2.4985    0.0401    0.8849 C   0  0  0  0  0  0  0  0  0  0  0  0
    3.0837   -1.2431    1.2506 N   0  0  0  0  0  0  0  0  0  0  0  0
    2.5081   -2.4289    0.6288 C   0  0  0  0  0  0  0  0  0  0  0  0
    2.7763   -2.6457   -0.8704 C   0  0  0  0  0  0  0  0  0  0  0  0
    4.5287   -1.2673    1.4840 C   0  0  1  0  0  0  0  0  0  0  0  0
    5.3704   -0.5337    0.4207 C   0  0  0  0  0  0  0  0  0  0  0  0
    4.8642   -0.7624    2.9246 C   0  0  1  0  0  0  0  0  0  0  0  0
    4.1348   -1.5728    4.0030 C   0  0  0  0  0  0  0  0  0  0  0  0
    6.3619   -0.8486    3.1603 C   0  0  0  0  0  0  0  0  0  0  0  0
    6.9963   -1.8767    3.1945 O   0  0  0  0  0  0  0  0  0  0  0  0
    6.9256    0.3655    3.3276 O   0  0  0  0  0  0  0  0  0  0  0  0
    8.3352    0.3814    3.5527 C   0  0  0  0  0  0  0  0  0  0  0  0
    0.6878    1.2218    1.0794 H   0  0  0  0  0  0  0  0  0  0  0  0
    0.9122    0.0186    2.3814 H   0  0  0  0  0  0  0  0  0  0  0  0
    0.3668   -0.4918    0.7653 H   0  0  0  0  0  0  0  0  0  0  0  0
    3.0813    0.8271    1.3887 H   0  0  0  0  0  0  0  0  0  0  0  0
    2.5863    0.2591   -0.2028 H   0  0  0  0  0  0  0  0  0  0  0  0
    1.4176   -2.4083    0.7920 H   0  0  0  0  0  0  0  0  0  0  0  0
    2.8695   -3.3089    1.1878 H   0  0  0  0  0  0  0  0  0  0  0  0
    2.4361   -1.7911   -1.4775 H   0  0  0  0  0  0  0  0  0  0  0  0
    2.2369   -3.5388   -1.2271 H   0  0  0  0  0  0  0  0  0  0  0  0
    3.8467   -2.8028   -1.0778 H   0  0  0  0  0  0  0  0  0  0  0  0
    4.8292   -2.3278    1.4647 H   0  0  0  0  0  0  0  0  0  0  0  0
    5.2518    0.5594    0.4827 H   0  0  0  0  0  0  0  0  0  0  0  0
    5.0835   -0.8477   -0.5934 H   0  0  0  0  0  0  0  0  0  0  0  0
    6.4411   -0.7581    0.5443 H   0  0  0  0  0  0  0  0  0  0  0  0
    4.5796    0.2988    3.0003 H   0  0  0  0  0  0  0  0  0  0  0  0
    4.4981   -2.6122    4.0115 H   0  0  0  0  0  0  0  0  0  0  0  0
    3.0563   -1.5775    3.7946 H   0  0  0  0  0  0  0  0  0  0  0  0
    4.3016   -1.1467    5.0050 H   0  0  0  0  0  0  0  0  0  0  0  0
    8.6141    1.4350    3.6791 H   0  0  0  0  0  0  0  0  0  0  0  0
    8.8746   -0.0555    2.6981 H   0  0  0  0  0  0  0  0  0  0  0  0
    8.5953   -0.1936    4.4544 H   0  0  0  0  0  0  0  0  0  0  0  0
  1  2  1  0
  1 14  1  0
  1 15  1  0
  1 16  1  0
  2  3  1  0
  2 17  1  0
  2 18  1  0
  3  4  1  0
  3  6  1  0
  4  5  1  0
  4 19  1  0
  4 20  1  0
  5 21  1  0
  5 22  1  0
  5 23  1  0
  6  7  1  0
  6  8  1  0
  6 24  1  1
  7 25  1  0
  7 26  1  0
  7 27  1  0
  8  9  1  0
  8 10  1  0
  8 28  1  6
  9 29  1  0
  9 30  1  0
  9 31  1  0
 10 11  2  0
 10 12  1  0
 12 13  1  0
 13 32  1  0
 13 33  1  0
 13 34  1  0
M  END

