
     RDKit          3D

 40 41  0  0  0  0  0  0  0  0999 V2000
    1.5376    0.2823    0.9230 C   0  0  0  0  0  0  0  0  0  0  0  0
    2.2520    0.0210   -0.4089 C   0  0  1  0  0  0  0  0  0  0  0  0
    2.9037   -1.3072   -0.3991 N   0  0  0  0  0  0  0  0  0  0  0  0
    4.2460   -1.5210   -0.6319 C   0  0  0  0  0  0  0  0  0  0  0  0
    5.3584   -0.2162   -1.0447 S   0  0  0  0  0  0  0  0  0  0  0  0
    6.9629   -0.9762   -0.5597 C   0  0  0  0  0  0  0  0  0  0  0  0
    7.5925   -1.9235   -1.5959 C   0  0  0  0  0  0  0  0  0  0  0  0
    8.6268   -1.6376   -2.1432 O   0  0  0  0  0  0  0  0  0  0  0  0
    6.9497   -3.0628   -1.8108 O   0  0  0  0  0  0  0  0  0  0  0  0
    4.6114   -2.7778   -0.4951 N   0  0  0  0  0  0  0  0  0  0  0  0
    3.4697   -3.4619   -0.1269 C   0  0  0  0  0  0  0  0  0  0  0  0
    3.3099   -4.8254    0.1554 C   0  0  0  0  0  0  0  0  0  0  0  0
    2.0368   -5.2565    0.5154 C   0  0  0  0  0  0  0  0  0  0  0  0
    1.7730   -6.9474    0.8824 Cl  0  0  0  0  0  0  0  0  0  0  0  0
    0.9466   -4.3677    0.5961 C   0  0  0  0  0  0  0  0  0  0  0  0
    1.1031   -3.0124    0.3087 C   0  0  0  0  0  0  0  0  0  0  0  0
    2.3780   -2.5602   -0.0584 C   0  0  0  0  0  0  0  0  0  0  0  0
    1.4208    0.3218   -1.7092 C   0  0  1  0  0  0  0  0  0  0  0  0
    1.0866    1.8290   -1.7174 C   0  0  0  0  0  0  0  0  0  0  0  0
    2.2738    0.0066   -2.9530 C   0  0  0  0  0  0  0  0  0  0  0  0
    0.1087   -0.4795   -1.7964 C   0  0  0  0  0  0  0  0  0  0  0  0
    2.2153    0.0644    1.7618 H   0  0  0  0  0  0  0  0  0  0  0  0
    0.6310   -0.3223    1.0568 H   0  0  0  0  0  0  0  0  0  0  0  0
    1.2469    1.3391    0.9958 H   0  0  0  0  0  0  0  0  0  0  0  0
    3.1005    0.7220   -0.4433 H   0  0  0  0  0  0  0  0  0  0  0  0
    6.8217   -1.4805    0.4080 H   0  0  0  0  0  0  0  0  0  0  0  0
    7.6394   -0.1214   -0.4366 H   0  0  0  0  0  0  0  0  0  0  0  0
    6.1034   -3.1118   -1.2795 H   0  0  0  0  0  0  0  0  0  0  0  0
    4.1513   -5.5161    0.0970 H   0  0  0  0  0  0  0  0  0  0  0  0
   -0.0314   -4.7536    0.8868 H   0  0  0  0  0  0  0  0  0  0  0  0
    0.2435   -2.3488    0.3729 H   0  0  0  0  0  0  0  0  0  0  0  0
    1.9945    2.4465   -1.6172 H   0  0  0  0  0  0  0  0  0  0  0  0
    0.3930    2.1087   -0.9099 H   0  0  0  0  0  0  0  0  0  0  0  0
    0.6051    2.1018   -2.6693 H   0  0  0  0  0  0  0  0  0  0  0  0
    3.2195    0.5713   -2.9568 H   0  0  0  0  0  0  0  0  0  0  0  0
    1.7220    0.2782   -3.8666 H   0  0  0  0  0  0  0  0  0  0  0  0
    2.5185   -1.0642   -3.0232 H   0  0  0  0  0  0  0  0  0  0  0  0
   -0.5460   -0.3062   -0.9279 H   0  0  0  0  0  0  0  0  0  0  0  0
    0.2910   -1.5602   -1.8857 H   0  0  0  0  0  0  0  0  0  0  0  0
   -0.4541   -0.1701   -2.6914 H   0  0  0  0  0  0  0  0  0  0  0  0
  1  2  1  0
  1 22  1  0
  1 23  1  0
  1 24  1  0
  2  3  1  0
  2 18  1  0
  2 25  1  6
  3  4  1  0
  3 17  1  0
  4  5  1  0
  4 10  2  0
  5  6  1  0
  6  7  1  0
  6 26  1  0
  6 27  1  0
  7  8  2  0
  7  9  1  0
  9 28  1  0
 10 11  1  0
 11 12  1  0
 11 17  2  0
 12 13  2  0
 12 29  1  0
 13 14  1  0
 13 15  1  0
 15 16  2  0
 15 30  1  0
 16 17  1  0
 16 31  1  0
 18 19  1  6
 18 20  1  0
 18 21  1  0
 19 32  1  0
 19 33  1  0
 19 34  1  0
 20 35  1  0
 20 36  1  0
 20 37  1  0
 21 38  1  0
 21 39  1  0
 21 40  1  0
M  END

