
     RDKit          3D

 48 51  0  0  0  0  0  0  0  0999 V2000
    2.1065   -0.4799   -1.2164 C   0  0  0  0  0  0  0  0  0  0  0  0
    3.0559    0.0151   -0.2981 O   0  0  0  0  0  0  0  0  0  0  0  0
    3.5948   -0.8223    0.6200 C   0  0  0  0  0  0  0  0  0  0  0  0
    4.5330   -0.2564    1.5018 C   0  0  0  0  0  0  0  0  0  0  0  0
    5.1389   -1.0374    2.4775 C   0  0  0  0  0  0  0  0  0  0  0  0
    4.8331   -2.4064    2.6095 C   0  0  0  0  0  0  0  0  0  0  0  0
    5.4718   -3.2374    3.6409 C   0  0  0  0  0  0  0  0  0  0  0  0
    6.4368   -2.8523    4.6199 C   0  0  0  0  0  0  0  0  0  0  0  0
    6.7099   -3.9940    5.3393 C   0  0  0  0  0  0  0  0  0  0  0  0
    7.6675   -4.1192    6.4937 C   0  0  1  0  0  0  0  0  0  0  0  0
    8.2244   -2.9142    6.7198 F   0  0  0  0  0  0  0  0  0  0  0  0
    7.0639   -4.4969    7.6277 F   0  0  0  0  0  0  0  0  0  0  0  0
    8.6656   -4.9777    6.2480 F   0  0  0  0  0  0  0  0  0  0  0  0
    5.9313   -4.9928    4.7923 N   0  0  0  0  0  0  0  0  0  0  0  0
    5.8104   -6.3452    5.1314 C   0  0  0  0  0  0  0  0  0  0  0  0
    6.4659   -6.9240    6.0789 N   0  0  0  0  0  0  0  0  0  0  0  0
    6.1374   -8.2612    6.1786 C   0  0  0  0  0  0  0  0  0  0  0  0
    6.7921   -9.0876    7.2117 C   0  0  0  0  0  0  0  0  0  0  0  0
    6.4943  -10.4540    7.3741 C   0  0  0  0  0  0  0  0  0  0  0  0
    7.1257  -11.2097    8.3547 C   0  0  0  0  0  0  0  0  0  0  0  0
    8.0739  -10.6171    9.2007 C   0  0  0  0  0  0  0  0  0  0  0  0
    8.6193  -11.4907   10.1283 O   0  0  0  0  0  0  0  0  0  0  0  0
    9.5602  -11.1916   11.0661 C   0  0  0  0  0  0  0  0  0  0  0  0
    9.8773  -12.4277   11.8712 C   0  0  0  0  0  0  0  0  0  0  0  0
   10.0586  -10.1094   11.2249 O   0  0  0  0  0  0  0  0  0  0  0  0
    8.3887   -9.2600    9.0613 C   0  0  0  0  0  0  0  0  0  0  0  0
    7.7448   -8.5145    8.0704 C   0  0  0  0  0  0  0  0  0  0  0  0
    5.1976   -8.6719    5.2574 C   0  0  0  0  0  0  0  0  0  0  0  0
    4.7033   -7.3616    4.2344 S   0  0  0  0  0  0  0  0  0  0  0  0
    5.1868   -4.5307    3.7686 N   0  0  0  0  0  0  0  0  0  0  0  0
    3.8952   -2.9594    1.7233 C   0  0  0  0  0  0  0  0  0  0  0  0
    3.2790   -2.1863    0.7386 C   0  0  0  0  0  0  0  0  0  0  0  0
    1.8149    0.3674   -1.8514 H   0  0  0  0  0  0  0  0  0  0  0  0
    1.2073   -0.8712   -0.7074 H   0  0  0  0  0  0  0  0  0  0  0  0
    2.5286   -1.2767   -1.8549 H   0  0  0  0  0  0  0  0  0  0  0  0
    4.7683    0.8045    1.3976 H   0  0  0  0  0  0  0  0  0  0  0  0
    5.8636   -0.5702    3.1479 H   0  0  0  0  0  0  0  0  0  0  0  0
    6.8810   -1.8764    4.7889 H   0  0  0  0  0  0  0  0  0  0  0  0
    5.7593  -10.9411    6.7298 H   0  0  0  0  0  0  0  0  0  0  0  0
    6.8978  -12.2694    8.4845 H   0  0  0  0  0  0  0  0  0  0  0  0
   10.2450  -13.2253   11.2074 H   0  0  0  0  0  0  0  0  0  0  0  0
    8.9645  -12.8043   12.3580 H   0  0  0  0  0  0  0  0  0  0  0  0
   10.6348  -12.1865   12.6260 H   0  0  0  0  0  0  0  0  0  0  0  0
    9.1224   -8.7962    9.7140 H   0  0  0  0  0  0  0  0  0  0  0  0
    7.9842   -7.4568    7.9549 H   0  0  0  0  0  0  0  0  0  0  0  0
    4.7702   -9.6622    5.1195 H   0  0  0  0  0  0  0  0  0  0  0  0
    3.6471   -4.0185    1.8121 H   0  0  0  0  0  0  0  0  0  0  0  0
    2.5562   -2.6552    0.0708 H   0  0  0  0  0  0  0  0  0  0  0  0
  1  2  1  0
  1 33  1  0
  1 34  1  0
  1 35  1  0
  2  3  1  0
  3  4  2  0
  3 32  1  0
  4  5  1  0
  4 36  1  0
  5  6  2  0
  5 37  1  0
  6  7  1  0
  6 31  1  0
  7  8  1  0
  7 30  2  0
  8  9  2  0
  8 38  1  0
  9 10  1  0
  9 14  1  0
 10 11  1  1
 10 12  1  0
 10 13  1  0
 14 15  1  0
 14 30  1  0
 15 16  2  0
 15 29  1  0
 16 17  1  0
 17 18  1  0
 17 28  2  0
 18 19  2  0
 18 27  1  0
 19 20  1  0
 19 39  1  0
 20 21  2  0
 20 40  1  0
 21 22  1  0
 21 26  1  0
 22 23  1  0
 23 24  1  0
 23 25  2  0
 24 41  1  0
 24 42  1  0
 24 43  1  0
 26 27  2  0
 26 44  1  0
 27 45  1  0
 28 29  1  0
 28 46  1  0
 31 32  2  0
 31 47  1  0
 32 48  1  0
M  END

