
     RDKit          3D

 69 72  0  0  0  0  0  0  0  0999 V2000
   -4.2821   -2.6340   -6.4397 C   0  0  0  0  0  0  0  0  0  0  0  0
   -5.4573   -2.0913   -5.6575 C   0  0  0  0  0  0  0  0  0  0  0  0
   -6.5829   -1.9875   -6.3644 N   0  0  0  0  0  0  0  0  0  0  0  0
   -7.6677   -1.4764   -5.7588 C   0  0  0  0  0  0  0  0  0  0  0  0
   -8.8113   -1.4216   -6.4810 N   0  0  0  0  0  0  0  0  0  0  0  0
   -7.7130   -1.0029   -4.5005 N   0  0  0  0  0  0  0  0  0  0  0  0
   -6.5982   -1.1093   -3.7914 C   0  0  0  0  0  0  0  0  0  0  0  0
   -5.4089   -1.6864   -4.2999 C   0  0  0  0  0  0  0  0  0  0  0  0
   -4.2541   -1.7120   -3.3564 C   0  0  0  0  0  0  0  0  0  0  0  0
   -3.2834   -2.6919   -3.5741 N   0  0  0  0  0  0  0  0  0  0  0  0
   -2.0319   -2.4628   -3.0107 O   0  0  0  0  0  0  0  0  0  0  0  0
   -1.8898   -3.1158   -1.7514 C   0  0  0  0  0  0  0  0  0  0  0  0
   -0.4974   -2.7534   -1.2373 C   0  0  2  0  0  0  0  0  0  0  0  0
   -0.4218   -1.6545   -1.2201 H   0  0  0  0  0  0  0  0  0  0  0  0
    0.6418   -3.3810   -2.0447 C   0  0  0  0  0  0  0  0  0  0  0  0
    0.8970   -4.5965   -1.2842 N   0  0  0  0  0  0  0  0  0  0  0  0
    1.6780   -5.6350   -1.7058 C   0  0  0  0  0  0  0  0  0  0  0  0
    1.9839   -6.5924   -1.0171 O   0  0  0  0  0  0  0  0  0  0  0  0
    2.0563   -5.4459   -2.9907 O   0  0  0  0  0  0  0  0  0  0  0  0
    2.8848   -6.4206   -3.7051 C   0  0  1  0  0  0  0  0  0  0  0  0
    2.1532   -7.7637   -3.8024 C   0  0  0  0  0  0  0  0  0  0  0  0
    3.0373   -5.7867   -5.0895 C   0  0  0  0  0  0  0  0  0  0  0  0
    4.2488   -6.5557   -3.0197 C   0  0  0  0  0  0  0  0  0  0  0  0
    0.4409   -4.4497    0.1196 C   0  0  2  0  0  0  0  0  0  0  0  0
    1.6132   -4.2459    1.0819 C   0  0  0  0  0  0  0  0  0  0  0  0
   -0.4584   -5.6075    0.5577 C   0  0  0  0  0  0  0  0  0  0  0  0
   -0.3147   -3.2353    0.0855 O   0  0  0  0  0  0  0  0  0  0  0  0
   -4.1388   -0.9586   -2.3227 N   0  0  0  0  0  0  0  0  0  0  0  0
   -5.2096   -0.0388   -1.9831 C   0  0  1  0  0  0  0  0  0  0  0  0
   -5.2063    0.0528   -0.8854 H   0  0  0  0  0  0  0  0  0  0  0  0
   -4.9641    1.3777   -2.5159 C   0  0  0  0  0  0  0  0  0  0  0  0
   -4.0796    1.6130   -3.5808 C   0  0  0  0  0  0  0  0  0  0  0  0
   -3.8442    2.8890   -4.0944 C   0  0  0  0  0  0  0  0  0  0  0  0
   -4.5044    3.9698   -3.5204 C   0  0  0  0  0  0  0  0  0  0  0  0
   -4.2947    5.2052   -3.9958 F   0  0  0  0  0  0  0  0  0  0  0  0
   -5.3749    3.8006   -2.4477 C   0  0  0  0  0  0  0  0  0  0  0  0
   -5.5884    2.5099   -1.9576 C   0  0  0  0  0  0  0  0  0  0  0  0
   -6.7636    2.3580   -0.4489 Br  0  0  0  0  0  0  0  0  0  0  0  0
   -6.5942   -0.6040   -2.3781 C   0  0  0  0  0  0  0  0  0  0  0  0
   -4.5441   -2.6287   -7.5051 H   0  0  0  0  0  0  0  0  0  0  0  0
   -4.0647   -3.6804   -6.1623 H   0  0  0  0  0  0  0  0  0  0  0  0
   -3.3688   -2.0366   -6.2953 H   0  0  0  0  0  0  0  0  0  0  0  0
   -8.8040   -1.7220   -7.4453 H   0  0  0  0  0  0  0  0  0  0  0  0
   -9.6334   -1.0002   -6.0721 H   0  0  0  0  0  0  0  0  0  0  0  0
   -3.1561   -3.0077   -4.5271 H   0  0  0  0  0  0  0  0  0  0  0  0
   -1.9996   -4.2087   -1.8741 H   0  0  0  0  0  0  0  0  0  0  0  0
   -2.6471   -2.7476   -1.0428 H   0  0  0  0  0  0  0  0  0  0  0  0
    1.5288   -2.7225   -2.0765 H   0  0  0  0  0  0  0  0  0  0  0  0
    0.3490   -3.6050   -3.0784 H   0  0  0  0  0  0  0  0  0  0  0  0
    1.1616   -7.6269   -4.2621 H   0  0  0  0  0  0  0  0  0  0  0  0
    2.0245   -8.2152   -2.8108 H   0  0  0  0  0  0  0  0  0  0  0  0
    2.7297   -8.4559   -4.4360 H   0  0  0  0  0  0  0  0  0  0  0  0
    2.0540   -5.6532   -5.5657 H   0  0  0  0  0  0  0  0  0  0  0  0
    3.6541   -6.4282   -5.7370 H   0  0  0  0  0  0  0  0  0  0  0  0
    3.5202   -4.8006   -5.0131 H   0  0  0  0  0  0  0  0  0  0  0  0
    4.1454   -6.9934   -2.0190 H   0  0  0  0  0  0  0  0  0  0  0  0
    4.7305   -5.5694   -2.9284 H   0  0  0  0  0  0  0  0  0  0  0  0
    4.9057   -7.2010   -3.6238 H   0  0  0  0  0  0  0  0  0  0  0  0
    2.2354   -5.1506    1.1218 H   0  0  0  0  0  0  0  0  0  0  0  0
    1.2305   -4.0241    2.0893 H   0  0  0  0  0  0  0  0  0  0  0  0
    2.2278   -3.3950    0.7517 H   0  0  0  0  0  0  0  0  0  0  0  0
    0.1121   -6.5447    0.5909 H   0  0  0  0  0  0  0  0  0  0  0  0
   -1.2987   -5.7267   -0.1415 H   0  0  0  0  0  0  0  0  0  0  0  0
   -0.8652   -5.3900    1.5565 H   0  0  0  0  0  0  0  0  0  0  0  0
   -3.5429    0.7640   -4.0040 H   0  0  0  0  0  0  0  0  0  0  0  0
   -3.1534    3.0548   -4.9230 H   0  0  0  0  0  0  0  0  0  0  0  0
   -5.8659    4.6672   -2.0047 H   0  0  0  0  0  0  0  0  0  0  0  0
   -7.4053    0.1230   -2.2471 H   0  0  0  0  0  0  0  0  0  0  0  0
   -6.8140   -1.4568   -1.7092 H   0  0  0  0  0  0  0  0  0  0  0  0
  1  2  1  0
  1 40  1  0
  1 41  1  0
  1 42  1  0
  2  3  2  0
  2  8  1  0
  3  4  1  0
  4  5  1  0
  4  6  2  0
  5 43  1  0
  5 44  1  0
  6  7  1  0
  7  8  2  0
  7 39  1  0
  8  9  1  0
  9 10  1  0
  9 28  2  0
 10 11  1  0
 10 45  1  0
 11 12  1  0
 12 13  1  0
 12 46  1  0
 12 47  1  0
 13 14  1  1
 13 15  1  0
 13 27  1  0
 15 16  1  0
 15 48  1  0
 15 49  1  0
 16 17  1  0
 16 24  1  0
 17 18  2  0
 17 19  1  0
 20 19  1  1
 20 21  1  0
 20 22  1  0
 20 23  1  0
 21 50  1  0
 21 51  1  0
 21 52  1  0
 22 53  1  0
 22 54  1  0
 22 55  1  0
 23 56  1  0
 23 57  1  0
 23 58  1  0
 24 25  1  1
 24 26  1  0
 24 27  1  0
 25 59  1  0
 25 60  1  0
 25 61  1  0
 26 62  1  0
 26 63  1  0
 26 64  1  0
 28 29  1  0
 29 30  1  1
 29 31  1  0
 29 39  1  0
 31 32  2  0
 31 37  1  0
 32 33  1  0
 32 65  1  0
 33 34  2  0
 33 66  1  0
 34 35  1  0
 34 36  1  0
 36 37  2  0
 36 67  1  0
 37 38  1  0
 39 68  1  0
 39 69  1  0
M  END

