
     RDKit          3D

 40 41  0  0  0  0  0  0  0  0999 V2000
    2.2092   -0.8295    0.2675 O   0  0  0  0  0  0  0  0  0  0  0  0
    1.9969    0.2532   -0.2127 C   0  0  0  0  0  0  0  0  0  0  0  0
    1.0615    0.4719   -1.1407 O   0  0  0  0  0  0  0  0  0  0  0  0
    2.7995    1.4991    0.1867 C   0  0  2  0  0  0  0  0  0  0  0  0
    2.5790    1.6604    1.2597 H   0  0  0  0  0  0  0  0  0  0  0  0
    2.3220    2.5913   -0.5831 O   0  0  0  0  0  0  0  0  0  0  0  0
    4.3227    1.2143    0.0428 C   0  0  1  0  0  0  0  0  0  0  0  0
    4.5226    0.4654    0.8286 H   0  0  0  0  0  0  0  0  0  0  0  0
    4.7332    0.5823   -1.2018 N   0  0  0  0  0  0  0  0  0  0  0  0
    4.3838    1.2028   -2.4743 C   0  0  0  0  0  0  0  0  0  0  0  0
    5.0914    0.4915   -3.6383 C   0  0  0  0  0  0  0  0  0  0  0  0
    4.7666    1.1041   -4.9824 C   0  0  0  0  0  0  0  0  0  0  0  0
    5.5905    2.0938   -5.5421 C   0  0  0  0  0  0  0  0  0  0  0  0
    5.2705    2.6901   -6.7652 C   0  0  0  0  0  0  0  0  0  0  0  0
    4.1147    2.3066   -7.4516 C   0  0  0  0  0  0  0  0  0  0  0  0
    3.2844    1.3224   -6.9066 C   0  0  0  0  0  0  0  0  0  0  0  0
    3.6091    0.7286   -5.6839 C   0  0  0  0  0  0  0  0  0  0  0  0
    5.1726    2.4514    0.3674 C   0  0  0  0  0  0  0  0  0  0  0  0
    4.7281    3.4725    1.2269 C   0  0  0  0  0  0  0  0  0  0  0  0
    5.5466    4.5589    1.5528 C   0  0  0  0  0  0  0  0  0  0  0  0
    6.8275    4.6239    1.0144 C   0  0  0  0  0  0  0  0  0  0  0  0
    7.6170    5.6626    1.3192 F   0  0  0  0  0  0  0  0  0  0  0  0
    7.3043    3.6286    0.1634 C   0  0  0  0  0  0  0  0  0  0  0  0
    6.4750    2.5527   -0.1528 C   0  0  0  0  0  0  0  0  0  0  0  0
    1.1065    1.4224   -1.3696 H   0  0  0  0  0  0  0  0  0  0  0  0
    3.0008    3.2790   -0.6376 H   0  0  0  0  0  0  0  0  0  0  0  0
    4.4756   -0.4022   -1.1911 H   0  0  0  0  0  0  0  0  0  0  0  0
    4.7026    2.2589   -2.4522 H   0  0  0  0  0  0  0  0  0  0  0  0
    3.2950    1.2150   -2.6766 H   0  0  0  0  0  0  0  0  0  0  0  0
    4.7935   -0.5719   -3.6341 H   0  0  0  0  0  0  0  0  0  0  0  0
    6.1779    0.5143   -3.4568 H   0  0  0  0  0  0  0  0  0  0  0  0
    6.5001    2.3964   -5.0143 H   0  0  0  0  0  0  0  0  0  0  0  0
    5.9292    3.4548   -7.1856 H   0  0  0  0  0  0  0  0  0  0  0  0
    3.8643    2.7693   -8.4097 H   0  0  0  0  0  0  0  0  0  0  0  0
    2.3812    1.0116   -7.4384 H   0  0  0  0  0  0  0  0  0  0  0  0
    2.9566   -0.0458   -5.2690 H   0  0  0  0  0  0  0  0  0  0  0  0
    3.7310    3.4361    1.6708 H   0  0  0  0  0  0  0  0  0  0  0  0
    5.2026    5.3513    2.2203 H   0  0  0  0  0  0  0  0  0  0  0  0
    8.3168    3.7068   -0.2379 H   0  0  0  0  0  0  0  0  0  0  0  0
    6.8312    1.7573   -0.8089 H   0  0  0  0  0  0  0  0  0  0  0  0
  1  2  2  0
  2  3  1  0
  2  4  1  0
  3 25  1  0
  4  5  1  1
  4  6  1  0
  4  7  1  0
  6 26  1  0
  7  8  1  1
  7  9  1  0
  7 18  1  0
  9 10  1  0
  9 27  1  0
 10 11  1  0
 10 28  1  0
 10 29  1  0
 11 12  1  0
 11 30  1  0
 11 31  1  0
 12 13  2  0
 12 17  1  0
 13 14  1  0
 13 32  1  0
 14 15  2  0
 14 33  1  0
 15 16  1  0
 15 34  1  0
 16 17  2  0
 16 35  1  0
 17 36  1  0
 18 19  2  0
 18 24  1  0
 19 20  1  0
 19 37  1  0
 20 21  2  0
 20 38  1  0
 21 22  1  0
 21 23  1  0
 23 24  2  0
 23 39  1  0
 24 40  1  0
M  END

