
     RDKit          3D

 60 64  0  0  0  0  0  0  0  0999 V2000
    3.9841   -0.7734    0.7794 C   0  0  0  0  0  0  0  0  0  0  0  0
    2.8145    0.0331    0.1918 C   0  0  2  0  0  0  0  0  0  0  0  0
    2.1526    0.2799    1.0333 H   0  0  0  0  0  0  0  0  0  0  0  0
    2.0191   -0.8324   -0.8067 C   0  0  0  0  0  0  0  0  0  0  0  0
    2.4042   -0.8271   -2.1531 C   0  0  0  0  0  0  0  0  0  0  0  0
    1.7613   -1.6308   -3.0969 C   0  0  0  0  0  0  0  0  0  0  0  0
    2.2861   -1.5846   -4.7592 Cl  0  0  0  0  0  0  0  0  0  0  0  0
    0.7082   -2.4650   -2.7237 C   0  0  0  0  0  0  0  0  0  0  0  0
    0.3103   -2.4756   -1.3888 C   0  0  0  0  0  0  0  0  0  0  0  0
    0.9469   -1.6767   -0.4289 C   0  0  0  0  0  0  0  0  0  0  0  0
    0.4247   -1.7398    0.9922 C   0  0  1  0  0  0  0  0  0  0  0  0
   -0.0227   -0.5403    1.4233 F   0  0  0  0  0  0  0  0  0  0  0  0
   -0.5942   -2.6004    1.1199 F   0  0  0  0  0  0  0  0  0  0  0  0
    1.3749   -2.1287    1.8715 F   0  0  0  0  0  0  0  0  0  0  0  0
    3.2470    1.3246   -0.3642 N   0  0  0  0  0  0  0  0  0  0  0  0
    4.5776    1.5254   -0.9336 C   0  0  0  0  0  0  0  0  0  0  0  0
    5.0468    2.9647   -0.7266 C   0  0  0  0  0  0  0  0  0  0  0  0
    4.0572    3.8549   -1.2846 N   0  0  0  0  0  0  0  0  0  0  0  0
    2.7326    3.6309   -1.0077 C   0  0  0  0  0  0  0  0  0  0  0  0
    1.8951    4.6482   -1.2018 N   0  0  0  0  0  0  0  0  0  0  0  0
    0.6010    4.5278   -0.9675 N   0  0  0  0  0  0  0  0  0  0  0  0
    0.1412    3.3687   -0.5027 C   0  0  0  0  0  0  0  0  0  0  0  0
   -1.2948    3.2682   -0.2209 C   0  0  0  0  0  0  0  0  0  0  0  0
   -1.9153    2.2465    0.3046 N   0  0  0  0  0  0  0  0  0  0  0  0
   -3.2202    2.6710    0.3516 C   0  0  0  0  0  0  0  0  0  0  0  0
   -4.3327    1.8451    0.9506 C   0  0  1  0  0  0  0  0  0  0  0  0
   -5.7344    2.3495    0.5485 C   0  0  0  0  0  0  0  0  0  0  0  0
   -6.0775    1.9609   -0.9026 C   0  0  0  0  0  0  0  0  0  0  0  0
   -5.9316    0.5356   -1.1884 N   0  0  0  0  0  0  0  0  0  0  0  0
   -7.0151   -0.3004   -0.7118 C   0  0  0  0  0  0  0  0  0  0  0  0
   -4.5935    0.0630   -0.8477 C   0  0  0  0  0  0  0  0  0  0  0  0
   -4.1797    0.3462    0.6078 C   0  0  0  0  0  0  0  0  0  0  0  0
   -3.3944    3.8812   -0.1243 N   0  0  0  0  0  0  0  0  0  0  0  0
   -2.1186    4.2825   -0.5032 O   0  0  0  0  0  0  0  0  0  0  0  0
    0.9545    2.2378   -0.2696 C   0  0  0  0  0  0  0  0  0  0  0  0
    2.3137    2.3377   -0.5366 C   0  0  0  0  0  0  0  0  0  0  0  0
    4.6667   -1.1472    0.0020 H   0  0  0  0  0  0  0  0  0  0  0  0
    3.5852   -1.6440    1.3134 H   0  0  0  0  0  0  0  0  0  0  0  0
    4.5550   -0.1650    1.4979 H   0  0  0  0  0  0  0  0  0  0  0  0
    3.2154   -0.1831   -2.4877 H   0  0  0  0  0  0  0  0  0  0  0  0
    0.2058   -3.0876   -3.4648 H   0  0  0  0  0  0  0  0  0  0  0  0
   -0.5189   -3.1147   -1.0854 H   0  0  0  0  0  0  0  0  0  0  0  0
    4.5979    1.3093   -2.0193 H   0  0  0  0  0  0  0  0  0  0  0  0
    5.2896    0.8456   -0.4525 H   0  0  0  0  0  0  0  0  0  0  0  0
    6.0067    3.1106   -1.2456 H   0  0  0  0  0  0  0  0  0  0  0  0
    5.2204    3.1432    0.3542 H   0  0  0  0  0  0  0  0  0  0  0  0
    4.2886    4.8279   -1.4590 H   0  0  0  0  0  0  0  0  0  0  0  0
   -4.2156    1.9565    2.0444 H   0  0  0  0  0  0  0  0  0  0  0  0
   -5.7984    3.4417    0.6695 H   0  0  0  0  0  0  0  0  0  0  0  0
   -6.4710    1.9049    1.2388 H   0  0  0  0  0  0  0  0  0  0  0  0
   -5.4147    2.5198   -1.5860 H   0  0  0  0  0  0  0  0  0  0  0  0
   -7.1082    2.2687   -1.1438 H   0  0  0  0  0  0  0  0  0  0  0  0
   -7.9723    0.0675   -1.1167 H   0  0  0  0  0  0  0  0  0  0  0  0
   -7.1295   -0.3592    0.3946 H   0  0  0  0  0  0  0  0  0  0  0  0
   -6.8775   -1.3314   -1.0780 H   0  0  0  0  0  0  0  0  0  0  0  0
   -3.8726    0.5552   -1.5269 H   0  0  0  0  0  0  0  0  0  0  0  0
   -4.5322   -1.0178   -1.0579 H   0  0  0  0  0  0  0  0  0  0  0  0
   -3.1414    0.0243    0.7813 H   0  0  0  0  0  0  0  0  0  0  0  0
   -4.8171   -0.2326    1.2973 H   0  0  0  0  0  0  0  0  0  0  0  0
    0.4840    1.3318    0.1023 H   0  0  0  0  0  0  0  0  0  0  0  0
  1  2  1  0
  1 37  1  0
  1 38  1  0
  1 39  1  0
  2  3  1  1
  2  4  1  0
  2 15  1  0
  4  5  2  0
  4 10  1  0
  5  6  1  0
  5 40  1  0
  6  7  1  0
  6  8  2  0
  8  9  1  0
  8 41  1  0
  9 10  2  0
  9 42  1  0
 10 11  1  0
 11 12  1  1
 11 13  1  0
 11 14  1  0
 15 16  1  0
 15 36  1  0
 16 17  1  0
 16 43  1  0
 16 44  1  0
 17 18  1  0
 17 45  1  0
 17 46  1  0
 18 19  1  0
 18 47  1  0
 19 20  2  0
 19 36  1  0
 20 21  1  0
 21 22  2  0
 22 23  1  0
 22 35  1  0
 23 24  2  0
 23 34  1  0
 24 25  1  0
 25 26  1  0
 25 33  2  0
 26 27  1  0
 26 32  1  0
 26 48  1  1
 27 28  1  0
 27 49  1  0
 27 50  1  0
 28 29  1  0
 28 51  1  0
 28 52  1  0
 29 30  1  0
 29 31  1  0
 30 53  1  0
 30 54  1  0
 30 55  1  0
 31 32  1  0
 31 56  1  0
 31 57  1  0
 32 58  1  0
 32 59  1  0
 33 34  1  0
 35 36  2  0
 35 60  1  0
M  END

