
     RDKit          3D

 51 55  0  0  0  0  0  0  0  0999 V2000
    2.9602    0.9619   -1.7958 O   0  0  0  0  0  0  0  0  0  0  0  0
    2.9798    0.5825   -0.6499 C   0  0  0  0  0  0  0  0  0  0  0  0
    3.0686   -0.8595   -0.2684 C   0  0  0  0  0  0  0  0  0  0  0  0
    3.7144   -1.7373   -1.1547 C   0  0  0  0  0  0  0  0  0  0  0  0
    3.7805   -3.0997   -0.8781 C   0  0  0  0  0  0  0  0  0  0  0  0
    3.1843   -3.6386    0.2800 C   0  0  0  0  0  0  0  0  0  0  0  0
    3.2494   -5.0949    0.5696 C   0  0  0  0  0  0  0  0  0  0  0  0
    4.4021   -5.8426    0.2617 C   0  0  0  0  0  0  0  0  0  0  0  0
    4.4646   -7.2103    0.5346 C   0  0  0  0  0  0  0  0  0  0  0  0
    3.3742   -7.8624    1.1180 C   0  0  0  0  0  0  0  0  0  0  0  0
    2.2214   -7.1344    1.4274 C   0  0  0  0  0  0  0  0  0  0  0  0
    2.1602   -5.7660    1.1580 C   0  0  0  0  0  0  0  0  0  0  0  0
    2.5168   -2.7533    1.1487 C   0  0  0  0  0  0  0  0  0  0  0  0
    2.4603   -1.3864    0.8831 C   0  0  0  0  0  0  0  0  0  0  0  0
    2.8744    1.5027    0.4473 N   0  0  0  0  0  0  0  0  0  0  0  0
    3.9285    1.4983    1.4757 C   0  0  0  0  0  0  0  0  0  0  0  0
    5.2539    2.0392    0.9339 C   0  0  0  0  0  0  0  0  0  0  0  0
    5.1604    3.7735    0.3094 S   0  0  0  0  0  0  0  0  0  0  0  0
    3.4540    3.8417   -0.1126 C   0  0  0  0  0  0  0  0  0  0  0  0
    2.8105    4.9144   -0.4986 N   0  0  0  0  0  0  0  0  0  0  0  0
    1.4822    4.5794   -0.6049 N   0  0  0  0  0  0  0  0  0  0  0  0
    1.3375    3.3273   -0.2584 C   0  0  0  0  0  0  0  0  0  0  0  0
    0.0395    2.6057   -0.1465 C   0  0  0  0  0  0  0  0  0  0  0  0
    0.0257    1.4972   -1.0288 O   0  0  0  0  0  0  0  0  0  0  0  0
   -1.0798    0.7117   -1.1018 C   0  0  0  0  0  0  0  0  0  0  0  0
   -2.2653    0.9384   -0.3844 C   0  0  0  0  0  0  0  0  0  0  0  0
   -3.3408    0.0552   -0.5445 C   0  0  0  0  0  0  0  0  0  0  0  0
   -3.2598   -1.0430   -1.3993 C   0  0  0  0  0  0  0  0  0  0  0  0
   -2.0673   -1.2401   -2.0998 C   0  0  0  0  0  0  0  0  0  0  0  0
   -1.9687   -2.2903   -2.9280 F   0  0  0  0  0  0  0  0  0  0  0  0
   -0.9792   -0.3893   -1.9697 C   0  0  0  0  0  0  0  0  0  0  0  0
    2.5733    2.8007    0.0625 N   0  0  0  0  0  0  0  0  0  0  0  0
    4.1509   -1.3337   -2.0706 H   0  0  0  0  0  0  0  0  0  0  0  0
    4.2746   -3.7655   -1.5888 H   0  0  0  0  0  0  0  0  0  0  0  0
    5.2700   -5.3422   -0.1740 H   0  0  0  0  0  0  0  0  0  0  0  0
    5.3733   -7.7686    0.2955 H   0  0  0  0  0  0  0  0  0  0  0  0
    3.4221   -8.9335    1.3295 H   0  0  0  0  0  0  0  0  0  0  0  0
    1.3594   -7.6366    1.8740 H   0  0  0  0  0  0  0  0  0  0  0  0
    1.2432   -5.2158    1.3809 H   0  0  0  0  0  0  0  0  0  0  0  0
    2.0464   -3.1399    2.0551 H   0  0  0  0  0  0  0  0  0  0  0  0
    1.9210   -0.7247    1.5640 H   0  0  0  0  0  0  0  0  0  0  0  0
    4.0737    0.4656    1.8173 H   0  0  0  0  0  0  0  0  0  0  0  0
    3.5736    2.0938    2.3305 H   0  0  0  0  0  0  0  0  0  0  0  0
    5.6261    1.3873    0.1285 H   0  0  0  0  0  0  0  0  0  0  0  0
    6.0109    2.0580    1.7319 H   0  0  0  0  0  0  0  0  0  0  0  0
   -0.7481    3.3358   -0.3960 H   0  0  0  0  0  0  0  0  0  0  0  0
   -0.1204    2.2595    0.8932 H   0  0  0  0  0  0  0  0  0  0  0  0
   -2.3661    1.7903    0.2871 H   0  0  0  0  0  0  0  0  0  0  0  0
   -4.2635    0.2353    0.0128 H   0  0  0  0  0  0  0  0  0  0  0  0
   -4.0895   -1.7381   -1.5356 H   0  0  0  0  0  0  0  0  0  0  0  0
   -0.0590   -0.5603   -2.5294 H   0  0  0  0  0  0  0  0  0  0  0  0
  1  2  2  0
  2  3  1  0
  2 15  1  0
  3  4  2  0
  3 14  1  0
  4  5  1  0
  4 33  1  0
  5  6  2  0
  5 34  1  0
  6  7  1  0
  6 13  1  0
  7  8  2  0
  7 12  1  0
  8  9  1  0
  8 35  1  0
  9 10  2  0
  9 36  1  0
 10 11  1  0
 10 37  1  0
 11 12  2  0
 11 38  1  0
 12 39  1  0
 13 14  2  0
 13 40  1  0
 14 41  1  0
 15 16  1  0
 15 32  1  0
 16 17  1  0
 16 42  1  0
 16 43  1  0
 17 18  1  0
 17 44  1  0
 17 45  1  0
 18 19  1  0
 19 20  2  0
 19 32  1  0
 20 21  1  0
 21 22  2  0
 22 23  1  0
 22 32  1  0
 23 24  1  0
 23 46  1  0
 23 47  1  0
 24 25  1  0
 25 26  2  0
 25 31  1  0
 26 27  1  0
 26 48  1  0
 27 28  2  0
 27 49  1  0
 28 29  1  0
 28 50  1  0
 29 30  1  0
 29 31  2  0
 31 51  1  0
M  END

