
     RDKit          3D

 45 45  0  0  0  0  0  0  0  0999 V2000
    0.6294    3.8143   -2.1393 C   0  0  0  0  0  0  0  0  0  0  0  0
    2.1572    3.7929   -2.1797 C   0  0  0  0  0  0  0  0  0  0  0  0
    2.7990    3.7743   -0.7929 C   0  0  0  0  0  0  0  0  0  0  0  0
    4.2485    3.7101   -0.8722 N   0  0  0  0  0  0  0  0  0  0  0  0
    4.9321    3.6727    0.4080 C   0  0  0  0  0  0  0  0  0  0  0  0
    6.4328    3.5244    0.2566 C   0  0  0  0  0  0  0  0  0  0  0  0
    7.3210    4.1421    1.1421 C   0  0  0  0  0  0  0  0  0  0  0  0
    8.7045    3.9707    1.0355 C   0  0  0  0  0  0  0  0  0  0  0  0
    9.2404    3.1723    0.0146 C   0  0  0  0  0  0  0  0  0  0  0  0
   10.5557    2.9604   -0.1991 O   0  0  0  0  0  0  0  0  0  0  0  0
   11.5805    3.4417    0.6846 C   0  0  1  0  0  0  0  0  0  0  0  0
   11.7101    2.5219    1.9090 C   0  0  0  0  0  0  0  0  0  0  0  0
   12.0242    1.0587    1.5863 C   0  0  0  0  0  0  0  0  0  0  0  0
   12.8500    3.5560   -0.1609 C   0  0  0  0  0  0  0  0  0  0  0  0
   12.7194    4.5315   -1.3308 C   0  0  0  0  0  0  0  0  0  0  0  0
    8.3518    2.5461   -0.8924 C   0  0  0  0  0  0  0  0  0  0  0  0
    8.9042    1.6828   -2.0010 C   0  0  1  0  0  0  0  0  0  0  0  0
    9.7140    2.3703   -2.8301 F   0  0  0  0  0  0  0  0  0  0  0  0
    9.6172    0.6408   -1.5286 F   0  0  0  0  0  0  0  0  0  0  0  0
    7.9218    1.1648   -2.7623 F   0  0  0  0  0  0  0  0  0  0  0  0
    6.9752    2.7271   -0.7622 C   0  0  0  0  0  0  0  0  0  0  0  0
    0.2018    3.8325   -3.1540 H   0  0  0  0  0  0  0  0  0  0  0  0
    0.2508    4.7012   -1.6038 H   0  0  0  0  0  0  0  0  0  0  0  0
    0.2288    2.9236   -1.6269 H   0  0  0  0  0  0  0  0  0  0  0  0
    2.5237    4.6775   -2.7333 H   0  0  0  0  0  0  0  0  0  0  0  0
    2.5159    2.9129   -2.7400 H   0  0  0  0  0  0  0  0  0  0  0  0
    2.4474    2.8841   -0.2390 H   0  0  0  0  0  0  0  0  0  0  0  0
    2.4371    4.6533   -0.2083 H   0  0  0  0  0  0  0  0  0  0  0  0
    4.6066    4.4838   -1.4330 H   0  0  0  0  0  0  0  0  0  0  0  0
    4.5346    2.8048    0.9692 H   0  0  0  0  0  0  0  0  0  0  0  0
    4.7210    4.5583    1.0505 H   0  0  0  0  0  0  0  0  0  0  0  0
    6.9303    4.7775    1.9427 H   0  0  0  0  0  0  0  0  0  0  0  0
    9.3591    4.4701    1.7490 H   0  0  0  0  0  0  0  0  0  0  0  0
   11.3077    4.4568    1.0266 H   0  0  0  0  0  0  0  0  0  0  0  0
   10.7686    2.5730    2.4812 H   0  0  0  0  0  0  0  0  0  0  0  0
   12.4871    2.9480    2.5679 H   0  0  0  0  0  0  0  0  0  0  0  0
   11.2947    0.6484    0.8716 H   0  0  0  0  0  0  0  0  0  0  0  0
   11.9893    0.4448    2.4998 H   0  0  0  0  0  0  0  0  0  0  0  0
   13.0268    0.9376    1.1473 H   0  0  0  0  0  0  0  0  0  0  0  0
   13.1145    2.5561   -0.5415 H   0  0  0  0  0  0  0  0  0  0  0  0
   13.6701    3.8663    0.5096 H   0  0  0  0  0  0  0  0  0  0  0  0
   11.9225    4.2085   -2.0169 H   0  0  0  0  0  0  0  0  0  0  0  0
   13.6587    4.5902   -1.9027 H   0  0  0  0  0  0  0  0  0  0  0  0
   12.4764    5.5498   -0.9828 H   0  0  0  0  0  0  0  0  0  0  0  0
    6.2980    2.2503   -1.4711 H   0  0  0  0  0  0  0  0  0  0  0  0
  1  2  1  0
  1 22  1  0
  1 23  1  0
  1 24  1  0
  2  3  1  0
  2 25  1  0
  2 26  1  0
  3  4  1  0
  3 27  1  0
  3 28  1  0
  4  5  1  0
  4 29  1  0
  5  6  1  0
  5 30  1  0
  5 31  1  0
  6  7  2  0
  6 21  1  0
  7  8  1  0
  7 32  1  0
  8  9  2  0
  8 33  1  0
  9 10  1  0
  9 16  1  0
 10 11  1  0
 11 12  1  0
 11 14  1  0
 11 34  1  1
 12 13  1  0
 12 35  1  0
 12 36  1  0
 13 37  1  0
 13 38  1  0
 13 39  1  0
 14 15  1  0
 14 40  1  0
 14 41  1  0
 15 42  1  0
 15 43  1  0
 15 44  1  0
 16 17  1  0
 16 21  2  0
 17 18  1  6
 17 19  1  0
 17 20  1  0
 21 45  1  0
M  END

