
     RDKit          3D

 53 57  0  0  0  0  0  0  0  0999 V2000
    1.0965    0.7632   -1.0834 N   0  0  0  0  0  0  0  0  0  0  0  0
    2.3264    0.5200   -0.3415 C   0  0  1  0  0  0  0  0  0  0  0  0
    3.6054    0.5336   -1.2170 C   0  0  0  0  0  0  0  0  0  0  0  0
    3.5476   -0.3725   -2.3505 N   0  0  0  0  0  0  0  0  0  0  0  0
    3.2350   -0.0157   -3.6283 C   0  0  0  0  0  0  0  0  0  0  0  0
    2.9727    1.2695   -3.8846 N   0  0  0  0  0  0  0  0  0  0  0  0
    2.7109    1.6598   -5.1437 C   0  0  0  0  0  0  0  0  0  0  0  0
    2.4307    3.1052   -5.3709 C   0  0  0  0  0  0  0  0  0  0  0  0
    2.4810    4.0398   -4.3260 C   0  0  0  0  0  0  0  0  0  0  0  0
    2.2069    5.3809   -4.6048 C   0  0  0  0  0  0  0  0  0  0  0  0
    1.8953    5.8370   -5.8210 N   0  0  0  0  0  0  0  0  0  0  0  0
    1.8496    4.9455   -6.8161 C   0  0  0  0  0  0  0  0  0  0  0  0
    2.1061    3.5833   -6.6498 C   0  0  0  0  0  0  0  0  0  0  0  0
    2.6816    0.8591   -6.2100 N   0  0  0  0  0  0  0  0  0  0  0  0
    2.9246   -0.4230   -5.9572 C   0  0  0  0  0  0  0  0  0  0  0  0
    2.9394   -1.6525   -7.2115 S   0  0  0  0  0  0  0  0  0  0  0  0
    3.3013   -2.8874   -6.0251 C   0  0  0  0  0  0  0  0  0  0  0  0
    3.3972   -2.4085   -4.7449 C   0  0  0  0  0  0  0  0  0  0  0  0
    3.2013   -0.9775   -4.6894 C   0  0  0  0  0  0  0  0  0  0  0  0
    3.6654   -3.3700   -3.6099 C   0  0  0  0  0  0  0  0  0  0  0  0
    3.4111   -4.8094   -4.0763 C   0  0  0  0  0  0  0  0  0  0  0  0
    4.0387   -5.0663   -5.3147 O   0  0  0  0  0  0  0  0  0  0  0  0
    3.4759   -4.3397   -6.3836 C   0  0  0  0  0  0  0  0  0  0  0  0
    2.4759    1.5419    0.8082 C   0  0  0  0  0  0  0  0  0  0  0  0
    1.5340    1.3320    1.9748 C   0  0  0  0  0  0  0  0  0  0  0  0
    2.0238    0.8662    3.2056 C   0  0  0  0  0  0  0  0  0  0  0  0
    1.1686    0.6552    4.2918 C   0  0  0  0  0  0  0  0  0  0  0  0
   -0.1993    0.9078    4.1634 C   0  0  0  0  0  0  0  0  0  0  0  0
   -0.7013    1.3713    2.9427 C   0  0  0  0  0  0  0  0  0  0  0  0
    0.1553    1.5816    1.8594 C   0  0  0  0  0  0  0  0  0  0  0  0
    0.8899   -0.0140   -1.7092 H   0  0  0  0  0  0  0  0  0  0  0  0
    1.2002    1.5862   -1.6798 H   0  0  0  0  0  0  0  0  0  0  0  0
    2.2390   -0.4850    0.1113 H   0  0  0  0  0  0  0  0  0  0  0  0
    4.4806    0.2632   -0.6016 H   0  0  0  0  0  0  0  0  0  0  0  0
    3.7747    1.5477   -1.6062 H   0  0  0  0  0  0  0  0  0  0  0  0
    3.7715   -1.3430   -2.1845 H   0  0  0  0  0  0  0  0  0  0  0  0
    2.7357    3.7172   -3.3164 H   0  0  0  0  0  0  0  0  0  0  0  0
    2.2428    6.1239   -3.7988 H   0  0  0  0  0  0  0  0  0  0  0  0
    1.5933    5.3349   -7.8087 H   0  0  0  0  0  0  0  0  0  0  0  0
    2.0587    2.8900   -7.4902 H   0  0  0  0  0  0  0  0  0  0  0  0
    3.0074   -3.1600   -2.7482 H   0  0  0  0  0  0  0  0  0  0  0  0
    4.7092   -3.2734   -3.2581 H   0  0  0  0  0  0  0  0  0  0  0  0
    2.3186   -4.9882   -4.1504 H   0  0  0  0  0  0  0  0  0  0  0  0
    3.8232   -5.5332   -3.3580 H   0  0  0  0  0  0  0  0  0  0  0  0
    2.4995   -4.7781   -6.6856 H   0  0  0  0  0  0  0  0  0  0  0  0
    4.1598   -4.4552   -7.2402 H   0  0  0  0  0  0  0  0  0  0  0  0
    2.3337    2.5515    0.3816 H   0  0  0  0  0  0  0  0  0  0  0  0
    3.5131    1.5099    1.1806 H   0  0  0  0  0  0  0  0  0  0  0  0
    3.0948    0.6711    3.3187 H   0  0  0  0  0  0  0  0  0  0  0  0
    1.5745    0.2960    5.2414 H   0  0  0  0  0  0  0  0  0  0  0  0
   -0.8713    0.7475    5.0106 H   0  0  0  0  0  0  0  0  0  0  0  0
   -1.7705    1.5723    2.8330 H   0  0  0  0  0  0  0  0  0  0  0  0
   -0.2429    1.9237    0.9030 H   0  0  0  0  0  0  0  0  0  0  0  0
  1  2  1  0
  1 31  1  0
  1 32  1  0
  2  3  1  0
  2 24  1  0
  2 33  1  1
  3  4  1  0
  3 34  1  0
  3 35  1  0
  4  5  1  0
  4 36  1  0
  5  6  2  0
  5 19  1  0
  6  7  1  0
  7  8  1  0
  7 14  2  0
  8  9  2  0
  8 13  1  0
  9 10  1  0
  9 37  1  0
 10 11  2  0
 10 38  1  0
 11 12  1  0
 12 13  2  0
 12 39  1  0
 13 40  1  0
 14 15  1  0
 15 16  1  0
 15 19  2  0
 16 17  1  0
 17 18  2  0
 17 23  1  0
 18 19  1  0
 18 20  1  0
 20 21  1  0
 20 41  1  0
 20 42  1  0
 21 22  1  0
 21 43  1  0
 21 44  1  0
 22 23  1  0
 23 45  1  0
 23 46  1  0
 24 25  1  0
 24 47  1  0
 24 48  1  0
 25 26  2  0
 25 30  1  0
 26 27  1  0
 26 49  1  0
 27 28  2  0
 27 50  1  0
 28 29  1  0
 28 51  1  0
 29 30  2  0
 29 52  1  0
 30 53  1  0
M  END

