
     RDKit          3D

 63 65  0  0  0  0  0  0  0  0999 V2000
    7.7944  -15.2314   -4.9315 N   0  0  0  0  0  0  0  0  0  0  0  0
    7.0332  -14.8474   -5.8908 C   0  0  0  0  0  0  0  0  0  0  0  0
    6.6175  -15.6314   -6.9569 N   0  0  0  0  0  0  0  0  0  0  0  0
    6.5702  -13.4252   -5.9235 C   0  0  0  0  0  0  0  0  0  0  0  0
    6.0721  -12.8110   -7.0825 C   0  0  0  0  0  0  0  0  0  0  0  0
    5.6483  -11.4804   -7.0892 C   0  0  0  0  0  0  0  0  0  0  0  0
    5.7224  -10.7228   -5.9076 C   0  0  0  0  0  0  0  0  0  0  0  0
    5.3106   -9.3832   -5.8079 N   0  0  0  0  0  0  0  0  0  0  0  0
    4.8162   -8.5528   -6.7918 C   0  0  0  0  0  0  0  0  0  0  0  0
    4.6581   -8.9023   -7.9502 O   0  0  0  0  0  0  0  0  0  0  0  0
    4.5450   -7.1275   -6.3619 C   0  0  0  0  0  0  0  0  0  0  0  0
    4.6567   -6.1828   -7.3922 C   0  0  0  0  0  0  0  0  0  0  0  0
    4.5153   -4.8215   -7.1385 C   0  0  0  0  0  0  0  0  0  0  0  0
    4.6856   -3.6632   -8.4394 Cl  0  0  0  0  0  0  0  0  0  0  0  0
    4.2416   -4.3812   -5.8427 C   0  0  0  0  0  0  0  0  0  0  0  0
    4.0843   -5.3104   -4.8157 C   0  0  0  0  0  0  0  0  0  0  0  0
    4.2158   -6.6950   -5.0447 C   0  0  0  0  0  0  0  0  0  0  0  0
    4.0436   -7.6178   -4.0026 N   0  0  0  0  0  0  0  0  0  0  0  0
    3.6482   -7.1945   -2.6667 C   0  0  0  0  0  0  0  0  0  0  0  0
    3.5587   -8.3904   -1.7223 C   0  0  0  0  0  0  0  0  0  0  0  0
    3.1619   -8.0005   -0.2847 C   0  0  1  0  0  0  0  0  0  0  0  0
    2.9835   -9.2362    0.6294 C   0  0  0  0  0  0  0  0  0  0  0  0
    4.3252   -9.8632    1.0340 C   0  0  0  0  0  0  0  0  0  0  0  0
    5.2585   -8.7992    1.6252 C   0  0  0  0  0  0  0  0  0  0  0  0
    5.3837   -7.5991    0.6720 C   0  0  0  0  0  0  0  0  0  0  0  0
    4.0973   -7.0115    0.2821 N   0  0  0  0  0  0  0  0  0  0  0  0
    3.5236   -6.1079    1.2738 C   0  0  0  0  0  0  0  0  0  0  0  0
    4.1559   -4.7136    1.2307 C   0  0  0  0  0  0  0  0  0  0  0  0
    3.4751   -3.7330    2.1753 C   0  0  0  0  0  0  0  0  0  0  0  0
    2.4845   -3.9772    2.8078 O   0  0  0  0  0  0  0  0  0  0  0  0
    4.0561   -2.5125    2.2610 O   0  0  0  0  0  0  0  0  0  0  0  0
    6.2379  -11.3290   -4.7427 C   0  0  0  0  0  0  0  0  0  0  0  0
    6.6561  -12.6526   -4.7526 C   0  0  0  0  0  0  0  0  0  0  0  0
    8.0183  -16.2291   -5.0071 H   0  0  0  0  0  0  0  0  0  0  0  0
    6.7983  -16.6265   -6.8864 H   0  0  0  0  0  0  0  0  0  0  0  0
    5.7332  -15.4023   -7.3958 H   0  0  0  0  0  0  0  0  0  0  0  0
    6.0364  -13.3656   -8.0231 H   0  0  0  0  0  0  0  0  0  0  0  0
    5.2721  -11.0164   -7.9973 H   0  0  0  0  0  0  0  0  0  0  0  0
    5.4402   -8.9524   -4.8950 H   0  0  0  0  0  0  0  0  0  0  0  0
    4.8734   -6.5450   -8.3974 H   0  0  0  0  0  0  0  0  0  0  0  0
    4.1335   -3.3141   -5.6405 H   0  0  0  0  0  0  0  0  0  0  0  0
    3.8365   -4.9462   -3.8195 H   0  0  0  0  0  0  0  0  0  0  0  0
    3.5635   -8.4636   -4.2997 H   0  0  0  0  0  0  0  0  0  0  0  0
    2.6778   -6.6550   -2.6753 H   0  0  0  0  0  0  0  0  0  0  0  0
    4.3932   -6.4871   -2.2734 H   0  0  0  0  0  0  0  0  0  0  0  0
    4.5205   -8.9288   -1.7378 H   0  0  0  0  0  0  0  0  0  0  0  0
    2.8036   -9.1043   -2.0981 H   0  0  0  0  0  0  0  0  0  0  0  0
    2.1858   -7.4925   -0.3579 H   0  0  0  0  0  0  0  0  0  0  0  0
    2.3363   -9.9802    0.1350 H   0  0  0  0  0  0  0  0  0  0  0  0
    2.4481   -8.9176    1.5410 H   0  0  0  0  0  0  0  0  0  0  0  0
    4.8076  -10.3281    0.1553 H   0  0  0  0  0  0  0  0  0  0  0  0
    4.1597  -10.6795    1.7562 H   0  0  0  0  0  0  0  0  0  0  0  0
    6.2583   -9.2196    1.8265 H   0  0  0  0  0  0  0  0  0  0  0  0
    4.8613   -8.4613    2.5989 H   0  0  0  0  0  0  0  0  0  0  0  0
    5.9198   -7.9180   -0.2399 H   0  0  0  0  0  0  0  0  0  0  0  0
    6.0095   -6.8125    1.1223 H   0  0  0  0  0  0  0  0  0  0  0  0
    3.5869   -6.4909    2.3124 H   0  0  0  0  0  0  0  0  0  0  0  0
    2.4486   -5.9936    1.0720 H   0  0  0  0  0  0  0  0  0  0  0  0
    4.0971   -4.3117    0.2031 H   0  0  0  0  0  0  0  0  0  0  0  0
    5.2314   -4.7534    1.4795 H   0  0  0  0  0  0  0  0  0  0  0  0
    4.8408   -2.4683    1.6961 H   0  0  0  0  0  0  0  0  0  0  0  0
    6.3125  -10.7444   -3.8206 H   0  0  0  0  0  0  0  0  0  0  0  0
    7.0641  -13.1217   -3.8560 H   0  0  0  0  0  0  0  0  0  0  0  0
  1  2  2  0
  1 34  1  0
  2  3  1  0
  2  4  1  0
  3 35  1  0
  3 36  1  0
  4  5  2  0
  4 33  1  0
  5  6  1  0
  5 37  1  0
  6  7  2  0
  6 38  1  0
  7  8  1  0
  7 32  1  0
  8  9  1  0
  8 39  1  0
  9 10  2  0
  9 11  1  0
 11 12  2  0
 11 17  1  0
 12 13  1  0
 12 40  1  0
 13 14  1  0
 13 15  2  0
 15 16  1  0
 15 41  1  0
 16 17  2  0
 16 42  1  0
 17 18  1  0
 18 19  1  0
 18 43  1  0
 19 20  1  0
 19 44  1  0
 19 45  1  0
 20 21  1  0
 20 46  1  0
 20 47  1  0
 21 22  1  0
 21 26  1  0
 21 48  1  6
 22 23  1  0
 22 49  1  0
 22 50  1  0
 23 24  1  0
 23 51  1  0
 23 52  1  0
 24 25  1  0
 24 53  1  0
 24 54  1  0
 25 26  1  0
 25 55  1  0
 25 56  1  0
 26 27  1  0
 27 28  1  0
 27 57  1  0
 27 58  1  0
 28 29  1  0
 28 59  1  0
 28 60  1  0
 29 30  2  0
 29 31  1  0
 31 61  1  0
 32 33  2  0
 32 62  1  0
 33 63  1  0
M  END

