
     RDKit          3D

 61 64  0  0  0  0  0  0  0  0999 V2000
    6.2035    0.0283   -5.6292 C   0  0  0  0  0  0  0  0  0  0  0  0
    5.6840    0.0240   -4.2008 C   0  0  0  0  0  0  0  0  0  0  0  0
    5.8980   -1.2443   -3.5586 O   0  0  0  0  0  0  0  0  0  0  0  0
    4.9643   -2.2016   -3.7452 C   0  0  0  0  0  0  0  0  0  0  0  0
    3.9695   -2.0390   -4.4164 O   0  0  0  0  0  0  0  0  0  0  0  0
    5.2984   -3.4662   -3.0320 C   0  0  0  0  0  0  0  0  0  0  0  0
    4.4099   -4.5472   -3.1356 C   0  0  0  0  0  0  0  0  0  0  0  0
    4.6593   -5.7577   -2.4941 C   0  0  0  0  0  0  0  0  0  0  0  0
    5.8291   -5.9044   -1.7243 C   0  0  0  0  0  0  0  0  0  0  0  0
    6.1658   -7.0889   -1.0473 N   0  0  0  0  0  0  0  0  0  0  0  0
    5.4760   -8.2746   -0.9734 C   0  0  0  0  0  0  0  0  0  0  0  0
    4.3983   -8.4759   -1.5016 O   0  0  0  0  0  0  0  0  0  0  0  0
    6.2201   -9.3707   -0.1959 C   0  0  0  0  0  0  0  0  0  0  0  0
    5.2193  -10.3262    0.4424 C   0  0  2  0  0  0  0  0  0  0  0  0
    4.6305   -9.7834    1.7476 C   0  0  0  0  0  0  0  0  0  0  0  0
    4.8933   -8.6960    2.2255 O   0  0  0  0  0  0  0  0  0  0  0  0
    3.7485  -10.6740    2.3052 N   0  0  0  0  0  0  0  0  0  0  0  0
    3.4959  -11.9563    1.7838 C   0  0  0  0  0  0  0  0  0  0  0  0
    2.3422  -12.6691    2.1301 C   0  0  0  0  0  0  0  0  0  0  0  0
    2.1510  -13.9633    1.6435 C   0  0  0  0  0  0  0  0  0  0  0  0
    3.1021  -14.5432    0.7989 C   0  0  0  0  0  0  0  0  0  0  0  0
    4.2501  -13.8344    0.4338 C   0  0  0  0  0  0  0  0  0  0  0  0
    4.4563  -12.5398    0.9225 C   0  0  0  0  0  0  0  0  0  0  0  0
    5.6017  -11.7372    0.6452 N   0  0  0  0  0  0  0  0  0  0  0  0
    6.8881  -12.2698    0.8095 C   0  0  0  0  0  0  0  0  0  0  0  0
    7.0947  -13.4628    0.6572 O   0  0  0  0  0  0  0  0  0  0  0  0
    7.9690  -11.3419    1.2436 C   0  0  0  0  0  0  0  0  0  0  0  0
    9.2588  -11.7288    1.1667 C   0  0  0  0  0  0  0  0  0  0  0  0
   10.4442  -10.9942    1.6162 C   0  0  0  0  0  0  0  0  0  0  0  0
   10.3778   -9.7636    2.3040 C   0  0  0  0  0  0  0  0  0  0  0  0
   11.5389   -9.1063    2.7044 C   0  0  0  0  0  0  0  0  0  0  0  0
   12.7960   -9.6603    2.4292 C   0  0  0  0  0  0  0  0  0  0  0  0
   12.8810  -10.8801    1.7528 C   0  0  0  0  0  0  0  0  0  0  0  0
   11.7172  -11.5392    1.3534 C   0  0  0  0  0  0  0  0  0  0  0  0
    6.7237   -4.8212   -1.6171 C   0  0  0  0  0  0  0  0  0  0  0  0
    6.4628   -3.6176   -2.2616 C   0  0  0  0  0  0  0  0  0  0  0  0
    6.0956    1.0351   -6.0641 H   0  0  0  0  0  0  0  0  0  0  0  0
    5.6340   -0.6763   -6.2530 H   0  0  0  0  0  0  0  0  0  0  0  0
    7.2689   -0.2486   -5.6625 H   0  0  0  0  0  0  0  0  0  0  0  0
    4.6100    0.2605   -4.1741 H   0  0  0  0  0  0  0  0  0  0  0  0
    6.2275    0.7486   -3.5767 H   0  0  0  0  0  0  0  0  0  0  0  0
    3.5065   -4.4201   -3.7353 H   0  0  0  0  0  0  0  0  0  0  0  0
    3.9647   -6.5899   -2.5753 H   0  0  0  0  0  0  0  0  0  0  0  0
    7.0296   -7.0473   -0.5189 H   0  0  0  0  0  0  0  0  0  0  0  0
    6.8838   -8.9100    0.5458 H   0  0  0  0  0  0  0  0  0  0  0  0
    6.8434   -9.9176   -0.9222 H   0  0  0  0  0  0  0  0  0  0  0  0
    4.3770  -10.3589   -0.2728 H   0  0  0  0  0  0  0  0  0  0  0  0
    3.2485  -10.3632    3.1329 H   0  0  0  0  0  0  0  0  0  0  0  0
    1.6031  -12.2075    2.7903 H   0  0  0  0  0  0  0  0  0  0  0  0
    1.2516  -14.5170    1.9228 H   0  0  0  0  0  0  0  0  0  0  0  0
    2.9499  -15.5541    0.4143 H   0  0  0  0  0  0  0  0  0  0  0  0
    5.0042  -14.2781   -0.2122 H   0  0  0  0  0  0  0  0  0  0  0  0
    7.6908  -10.3886    1.6928 H   0  0  0  0  0  0  0  0  0  0  0  0
    9.4422  -12.7106    0.7168 H   0  0  0  0  0  0  0  0  0  0  0  0
    9.4067   -9.3215    2.5381 H   0  0  0  0  0  0  0  0  0  0  0  0
   11.4664   -8.1563    3.2401 H   0  0  0  0  0  0  0  0  0  0  0  0
   13.7047   -9.1423    2.7459 H   0  0  0  0  0  0  0  0  0  0  0  0
   13.8573  -11.3213    1.5372 H   0  0  0  0  0  0  0  0  0  0  0  0
   11.7865  -12.4947    0.8265 H   0  0  0  0  0  0  0  0  0  0  0  0
    7.6338   -4.9288   -1.0191 H   0  0  0  0  0  0  0  0  0  0  0  0
    7.1614   -2.7852   -2.1724 H   0  0  0  0  0  0  0  0  0  0  0  0
  1  2  1  0
  1 37  1  0
  1 38  1  0
  1 39  1  0
  2  3  1  0
  2 40  1  0
  2 41  1  0
  3  4  1  0
  4  5  2  0
  4  6  1  0
  6  7  2  0
  6 36  1  0
  7  8  1  0
  7 42  1  0
  8  9  2  0
  8 43  1  0
  9 10  1  0
  9 35  1  0
 10 11  1  0
 10 44  1  0
 11 12  2  0
 11 13  1  0
 13 14  1  0
 13 45  1  0
 13 46  1  0
 14 15  1  0
 14 24  1  0
 14 47  1  6
 15 16  2  0
 15 17  1  0
 17 18  1  0
 17 48  1  0
 18 19  2  0
 18 23  1  0
 19 20  1  0
 19 49  1  0
 20 21  2  0
 20 50  1  0
 21 22  1  0
 21 51  1  0
 22 23  2  0
 22 52  1  0
 23 24  1  0
 24 25  1  0
 25 26  2  0
 25 27  1  0
 27 28  2  0
 27 53  1  0
 28 29  1  0
 28 54  1  0
 29 30  2  0
 29 34  1  0
 30 31  1  0
 30 55  1  0
 31 32  2  0
 31 56  1  0
 32 33  1  0
 32 57  1  0
 33 34  2  0
 33 58  1  0
 34 59  1  0
 35 36  2  0
 35 60  1  0
 36 61  1  0
M  END

