
     RDKit          3D

 55 55  0  0  0  0  0  0  0  0999 V2000
    3.9566   -1.1306    3.1958 C   0  0  0  0  0  0  0  0  0  0  0  0
    4.5296   -0.7176    1.8393 C   0  0  0  0  0  0  0  0  0  0  0  0
    4.7143    0.7954    1.6972 C   0  0  0  0  0  0  0  0  0  0  0  0
    5.2896    1.2157    0.3439 C   0  0  0  0  0  0  0  0  0  0  0  0
    5.3122    2.7331    0.1571 C   0  0  0  0  0  0  0  0  0  0  0  0
    4.4523    3.4552    0.6326 O   0  0  0  0  0  0  0  0  0  0  0  0
    6.3584    3.1871   -0.6094 N   0  0  0  0  0  0  0  0  0  0  0  0
    6.6420    4.4982   -1.0253 C   0  0  0  0  0  0  0  0  0  0  0  0
    5.8842    5.6256   -0.6927 C   0  0  0  0  0  0  0  0  0  0  0  0
    6.2610    6.8910   -1.1597 C   0  0  0  0  0  0  0  0  0  0  0  0
    7.3929    7.0701   -1.9617 C   0  0  0  0  0  0  0  0  0  0  0  0
    7.7706    8.4264   -2.5101 C   0  0  0  0  0  0  0  0  0  0  0  0
    7.2204    8.7050   -3.9385 C   0  0  1  0  0  0  0  0  0  0  0  0
    5.7657    8.6289   -4.0462 N   0  0  0  0  0  0  0  0  0  0  0  0
    7.6796   10.0671   -4.4826 C   0  0  0  0  0  0  0  0  0  0  0  0
    9.1838   10.2272   -4.7208 C   0  0  0  0  0  0  0  0  0  0  0  0
    9.5563   11.5658   -5.3679 C   0  0  0  0  0  0  0  0  0  0  0  0
   11.0569   11.7316   -5.6113 C   0  0  0  0  0  0  0  0  0  0  0  0
    8.1560    5.9337   -2.2947 C   0  0  0  0  0  0  0  0  0  0  0  0
    7.7945    4.6668   -1.8378 C   0  0  0  0  0  0  0  0  0  0  0  0
    8.4814    3.5167   -2.1082 O   0  0  0  0  0  0  0  0  0  0  0  0
    9.6487    3.5592   -2.9159 C   0  0  0  0  0  0  0  0  0  0  0  0
   10.1882    2.1481   -3.0473 C   0  0  0  0  0  0  0  0  0  0  0  0
    3.8269   -2.2224    3.2657 H   0  0  0  0  0  0  0  0  0  0  0  0
    2.9725   -0.6650    3.3714 H   0  0  0  0  0  0  0  0  0  0  0  0
    4.6185   -0.8202    4.0216 H   0  0  0  0  0  0  0  0  0  0  0  0
    3.8657   -1.0795    1.0326 H   0  0  0  0  0  0  0  0  0  0  0  0
    5.4987   -1.2254    1.6788 H   0  0  0  0  0  0  0  0  0  0  0  0
    5.3732    1.1659    2.5033 H   0  0  0  0  0  0  0  0  0  0  0  0
    3.7512    1.3129    1.8367 H   0  0  0  0  0  0  0  0  0  0  0  0
    4.6599    0.8048   -0.4679 H   0  0  0  0  0  0  0  0  0  0  0  0
    6.2973    0.7902    0.1950 H   0  0  0  0  0  0  0  0  0  0  0  0
    7.0232    2.5011   -0.9491 H   0  0  0  0  0  0  0  0  0  0  0  0
    5.0066    5.4939   -0.0640 H   0  0  0  0  0  0  0  0  0  0  0  0
    5.6575    7.7573   -0.8763 H   0  0  0  0  0  0  0  0  0  0  0  0
    8.8690    8.5199   -2.5217 H   0  0  0  0  0  0  0  0  0  0  0  0
    7.3931    9.2175   -1.8381 H   0  0  0  0  0  0  0  0  0  0  0  0
    7.6283    7.9217   -4.6054 H   0  0  0  0  0  0  0  0  0  0  0  0
    5.3339    9.3427   -3.4551 H   0  0  0  0  0  0  0  0  0  0  0  0
    5.4279    7.7319   -3.6961 H   0  0  0  0  0  0  0  0  0  0  0  0
    7.3303   10.8613   -3.7942 H   0  0  0  0  0  0  0  0  0  0  0  0
    7.1390   10.2292   -5.4301 H   0  0  0  0  0  0  0  0  0  0  0  0
    9.5402    9.4023   -5.3664 H   0  0  0  0  0  0  0  0  0  0  0  0
    9.7380   10.1273   -3.7703 H   0  0  0  0  0  0  0  0  0  0  0  0
    9.1929   12.3905   -4.7279 H   0  0  0  0  0  0  0  0  0  0  0  0
    9.0125   11.6690   -6.3244 H   0  0  0  0  0  0  0  0  0  0  0  0
   11.6259   11.6722   -4.6681 H   0  0  0  0  0  0  0  0  0  0  0  0
   11.2873   12.7031   -6.0770 H   0  0  0  0  0  0  0  0  0  0  0  0
   11.4445   10.9433   -6.2786 H   0  0  0  0  0  0  0  0  0  0  0  0
    9.0445    6.0566   -2.9154 H   0  0  0  0  0  0  0  0  0  0  0  0
   10.3998    4.2254   -2.4521 H   0  0  0  0  0  0  0  0  0  0  0  0
    9.4010    3.9795   -3.9085 H   0  0  0  0  0  0  0  0  0  0  0  0
   10.4450    1.7339   -2.0601 H   0  0  0  0  0  0  0  0  0  0  0  0
   11.0960    2.1460   -3.6700 H   0  0  0  0  0  0  0  0  0  0  0  0
    9.4443    1.4873   -3.5184 H   0  0  0  0  0  0  0  0  0  0  0  0
  1  2  1  0
  1 24  1  0
  1 25  1  0
  1 26  1  0
  2  3  1  0
  2 27  1  0
  2 28  1  0
  3  4  1  0
  3 29  1  0
  3 30  1  0
  4  5  1  0
  4 31  1  0
  4 32  1  0
  5  6  2  0
  5  7  1  0
  7  8  1  0
  7 33  1  0
  8  9  2  0
  8 20  1  0
  9 10  1  0
  9 34  1  0
 10 11  2  0
 10 35  1  0
 11 12  1  0
 11 19  1  0
 12 13  1  0
 12 36  1  0
 12 37  1  0
 13 14  1  0
 13 15  1  0
 13 38  1  6
 14 39  1  0
 14 40  1  0
 15 16  1  0
 15 41  1  0
 15 42  1  0
 16 17  1  0
 16 43  1  0
 16 44  1  0
 17 18  1  0
 17 45  1  0
 17 46  1  0
 18 47  1  0
 18 48  1  0
 18 49  1  0
 19 20  2  0
 19 50  1  0
 20 21  1  0
 21 22  1  0
 22 23  1  0
 22 51  1  0
 22 52  1  0
 23 53  1  0
 23 54  1  0
 23 55  1  0
M  END

