
     RDKit          3D

 32 33  0  0  0  0  0  0  0  0999 V2000
    2.9541   -0.4886   -1.4490 O   0  0  0  0  0  0  0  0  0  0  0  0
    2.3053    0.0586   -0.2560 S   0  0  1  0  0  0  0  0  0  0  0  0
    1.1987    1.0202   -0.3961 O   0  0  0  0  0  0  0  0  0  0  0  0
    1.7323   -1.3720    0.6950 C   0  0  0  0  0  0  0  0  0  0  0  0
    1.1785   -1.1932    1.9665 C   0  0  0  0  0  0  0  0  0  0  0  0
    0.7115   -2.3268    2.6361 C   0  0  0  0  0  0  0  0  0  0  0  0
    0.0183   -2.1581    4.2278 Cl  0  0  0  0  0  0  0  0  0  0  0  0
    0.7851   -3.6003    2.0607 C   0  0  0  0  0  0  0  0  0  0  0  0
    1.3435   -3.7346    0.7871 C   0  0  0  0  0  0  0  0  0  0  0  0
    1.4417   -5.3174    0.0612 Cl  0  0  0  0  0  0  0  0  0  0  0  0
    1.8257   -2.6253    0.0864 C   0  0  0  0  0  0  0  0  0  0  0  0
    3.4364    0.8098    0.7146 N   0  0  0  0  0  0  0  0  0  0  0  0
    4.5395    0.0322    1.2796 C   0  0  0  0  0  0  0  0  0  0  0  0
    5.8352    0.8357    1.2028 C   0  0  0  0  0  0  0  0  0  0  0  0
    5.6582    2.1272    1.7460 O   0  0  0  0  0  0  0  0  0  0  0  0
    4.7174    2.8676    0.9985 C   0  0  0  0  0  0  0  0  0  0  0  0
    3.3151    2.2415    1.0419 C   0  0  2  0  0  0  0  0  0  0  0  0
    2.5819    2.5064    2.3647 C   0  0  0  0  0  0  0  0  0  0  0  0
    1.3020    1.9183    2.4130 O   0  0  0  0  0  0  0  0  0  0  0  0
    1.1162   -0.2009    2.4206 H   0  0  0  0  0  0  0  0  0  0  0  0
    0.4139   -4.4728    2.5980 H   0  0  0  0  0  0  0  0  0  0  0  0
    2.2627   -2.7249   -0.9067 H   0  0  0  0  0  0  0  0  0  0  0  0
    4.6497   -0.9013    0.7076 H   0  0  0  0  0  0  0  0  0  0  0  0
    4.3269   -0.2370    2.3311 H   0  0  0  0  0  0  0  0  0  0  0  0
    6.1654    0.9061    0.1466 H   0  0  0  0  0  0  0  0  0  0  0  0
    6.6256    0.3397    1.7857 H   0  0  0  0  0  0  0  0  0  0  0  0
    5.0446    2.9419   -0.0575 H   0  0  0  0  0  0  0  0  0  0  0  0
    4.6912    3.8824    1.4239 H   0  0  0  0  0  0  0  0  0  0  0  0
    2.7269    2.7061    0.2361 H   0  0  0  0  0  0  0  0  0  0  0  0
    2.5241    3.6057    2.5007 H   0  0  0  0  0  0  0  0  0  0  0  0
    3.1623    2.1097    3.2137 H   0  0  0  0  0  0  0  0  0  0  0  0
    0.9019    1.9638    1.5284 H   0  0  0  0  0  0  0  0  0  0  0  0
  1  2  2  0
  2  3  2  0
  2  4  1  1
  2 12  1  0
  4  5  2  0
  4 11  1  0
  5  6  1  0
  5 20  1  0
  6  7  1  0
  6  8  2  0
  8  9  1  0
  8 21  1  0
  9 10  1  0
  9 11  2  0
 11 22  1  0
 12 13  1  0
 12 17  1  0
 13 14  1  0
 13 23  1  0
 13 24  1  0
 14 15  1  0
 14 25  1  0
 14 26  1  0
 15 16  1  0
 16 17  1  0
 16 27  1  0
 16 28  1  0
 17 18  1  0
 17 29  1  6
 18 19  1  0
 18 30  1  0
 18 31  1  0
 19 32  1  0
M  END

