
     RDKit          3D

 42 43  0  0  0  0  0  0  0  0999 V2000
    2.4482    3.5055    5.5268 C   0  0  0  0  0  0  0  0  0  0  0  0
    2.1969    2.1931    5.9596 O   0  0  0  0  0  0  0  0  0  0  0  0
    2.9660    1.1773    5.4646 C   0  0  0  0  0  0  0  0  0  0  0  0
    2.6810   -0.1131    5.9293 C   0  0  0  0  0  0  0  0  0  0  0  0
    3.4040   -1.2205    5.4900 C   0  0  0  0  0  0  0  0  0  0  0  0
    4.4554   -1.0871    4.5529 C   0  0  0  0  0  0  0  0  0  0  0  0
    5.2146   -2.1345    4.0414 N   0  0  0  0  0  0  0  0  0  0  0  0
    5.2733   -3.5534    4.4113 C   0  0  1  0  0  0  0  0  0  0  0  0
    5.7343   -3.6978    5.8907 C   0  0  0  0  0  0  0  0  0  0  0  0
    5.8062   -5.0886    6.3388 N   0  0  0  0  0  0  0  0  0  0  0  0
    3.9273   -4.2839    4.1636 C   0  0  0  0  0  0  0  0  0  0  0  0
    3.5188   -4.3067    2.6855 C   0  0  0  0  0  0  0  0  0  0  0  0
    4.5834   -4.9567    1.7795 C   0  0  2  0  0  0  0  0  0  0  0  0
    4.6603   -6.4812    1.9509 C   0  0  0  0  0  0  0  0  0  0  0  0
    5.9407   -4.2647    2.0148 C   0  0  0  0  0  0  0  0  0  0  0  0
    6.3368   -4.2076    3.4972 C   0  0  0  0  0  0  0  0  0  0  0  0
    4.7280    0.2210    4.0980 C   0  0  0  0  0  0  0  0  0  0  0  0
    4.0068    1.3328    4.5385 C   0  0  0  0  0  0  0  0  0  0  0  0
    1.7281    4.1542    6.0451 H   0  0  0  0  0  0  0  0  0  0  0  0
    2.3053    3.6197    4.4355 H   0  0  0  0  0  0  0  0  0  0  0  0
    3.4724    3.8390    5.7807 H   0  0  0  0  0  0  0  0  0  0  0  0
    1.8721   -0.2357    6.6532 H   0  0  0  0  0  0  0  0  0  0  0  0
    3.1385   -2.1961    5.8919 H   0  0  0  0  0  0  0  0  0  0  0  0
    6.0050   -1.8222    3.4927 H   0  0  0  0  0  0  0  0  0  0  0  0
    5.0899   -3.0665    6.5299 H   0  0  0  0  0  0  0  0  0  0  0  0
    6.7437   -3.2585    5.9529 H   0  0  0  0  0  0  0  0  0  0  0  0
    4.9169   -5.3949    6.7312 H   0  0  0  0  0  0  0  0  0  0  0  0
    6.4941   -5.1909    7.0826 H   0  0  0  0  0  0  0  0  0  0  0  0
    3.1208   -3.8311    4.7593 H   0  0  0  0  0  0  0  0  0  0  0  0
    4.0454   -5.3140    4.5352 H   0  0  0  0  0  0  0  0  0  0  0  0
    3.3465   -3.2703    2.3498 H   0  0  0  0  0  0  0  0  0  0  0  0
    2.5562   -4.8354    2.5757 H   0  0  0  0  0  0  0  0  0  0  0  0
    4.2904   -4.7662    0.7314 H   0  0  0  0  0  0  0  0  0  0  0  0
    4.9619   -6.7786    2.9678 H   0  0  0  0  0  0  0  0  0  0  0  0
    5.3916   -6.9195    1.2518 H   0  0  0  0  0  0  0  0  0  0  0  0
    3.6834   -6.9497    1.7470 H   0  0  0  0  0  0  0  0  0  0  0  0
    5.8855   -3.2399    1.6081 H   0  0  0  0  0  0  0  0  0  0  0  0
    6.7334   -4.7780    1.4432 H   0  0  0  0  0  0  0  0  0  0  0  0
    7.2894   -3.6577    3.6115 H   0  0  0  0  0  0  0  0  0  0  0  0
    6.5193   -5.2168    3.8944 H   0  0  0  0  0  0  0  0  0  0  0  0
    5.5321    0.3719    3.3707 H   0  0  0  0  0  0  0  0  0  0  0  0
    4.2708    2.3155    4.1459 H   0  0  0  0  0  0  0  0  0  0  0  0
  1  2  1  0
  1 19  1  0
  1 20  1  0
  1 21  1  0
  2  3  1  0
  3  4  2  0
  3 18  1  0
  4  5  1  0
  4 22  1  0
  5  6  2  0
  5 23  1  0
  6  7  1  0
  6 17  1  0
  8  7  1  6
  7 24  1  0
  8  9  1  0
  8 11  1  0
  8 16  1  0
  9 10  1  0
  9 25  1  0
  9 26  1  0
 10 27  1  0
 10 28  1  0
 11 12  1  0
 11 29  1  0
 11 30  1  0
 12 13  1  0
 12 31  1  0
 12 32  1  0
 13 14  1  0
 13 15  1  0
 13 33  1  6
 14 34  1  0
 14 35  1  0
 14 36  1  0
 15 16  1  0
 15 37  1  0
 15 38  1  0
 16 39  1  0
 16 40  1  0
 17 18  2  0
 17 41  1  0
 18 42  1  0
M  END

