
     RDKit          3D

 38 40  0  0  0  0  0  0  0  0999 V2000
    1.9114   -1.4053   -1.3455 C   0  0  0  0  0  0  0  0  0  0  0  0
    2.3437   -0.3349   -0.3415 C   0  0  0  0  0  0  0  0  0  0  0  0
    3.0899    0.8682   -0.9525 C   0  0  1  0  0  0  0  0  0  0  0  0
    2.2843    1.6585   -2.0042 C   0  0  0  0  0  0  0  0  0  0  0  0
    1.1423    2.4573   -1.3653 C   0  0  0  0  0  0  0  0  0  0  0  0
    1.6530    3.3577   -0.2363 C   0  0  0  0  0  0  0  0  0  0  0  0
    2.4621    2.6027    0.7108 N   0  0  0  0  0  0  0  0  0  0  0  0
    2.5033    2.9147    2.0404 C   0  0  0  0  0  0  0  0  0  0  0  0
    3.3453    2.4188    2.8965 N   0  0  0  0  0  0  0  0  0  0  0  0
    3.1048    2.8827    4.1678 C   0  0  0  0  0  0  0  0  0  0  0  0
    2.0701    3.7796    4.3164 C   0  0  0  0  0  0  0  0  0  0  0  0
    1.3274    4.0628    2.7617 S   0  0  0  0  0  0  0  0  0  0  0  0
    1.6383    4.4162    5.6031 C   0  0  0  0  0  0  0  0  0  0  0  0
    2.7974    4.3695    6.6112 C   0  0  0  0  0  0  0  0  0  0  0  0
    3.4308    2.9752    6.6868 C   0  0  0  0  0  0  0  0  0  0  0  0
    3.9117    2.4408    5.3357 C   0  0  0  0  0  0  0  0  0  0  0  0
    4.8565    1.6857    5.2417 O   0  0  0  0  0  0  0  0  0  0  0  0
    3.5745    1.8399    0.1354 C   0  0  0  0  0  0  0  0  0  0  0  0
    1.4772   -2.2758   -0.8287 H   0  0  0  0  0  0  0  0  0  0  0  0
    2.7666   -1.7677   -1.9411 H   0  0  0  0  0  0  0  0  0  0  0  0
    1.1505   -1.0358   -2.0517 H   0  0  0  0  0  0  0  0  0  0  0  0
    3.0105   -0.7946    0.4082 H   0  0  0  0  0  0  0  0  0  0  0  0
    1.4669    0.0184    0.2274 H   0  0  0  0  0  0  0  0  0  0  0  0
    3.9971    0.4757   -1.4470 H   0  0  0  0  0  0  0  0  0  0  0  0
    1.8928    0.9904   -2.7873 H   0  0  0  0  0  0  0  0  0  0  0  0
    2.9693    2.3594   -2.5150 H   0  0  0  0  0  0  0  0  0  0  0  0
    0.3776    1.7732   -0.9609 H   0  0  0  0  0  0  0  0  0  0  0  0
    0.6392    3.0835   -2.1205 H   0  0  0  0  0  0  0  0  0  0  0  0
    0.8017    3.8103    0.2937 H   0  0  0  0  0  0  0  0  0  0  0  0
    2.2481    4.1929   -0.6636 H   0  0  0  0  0  0  0  0  0  0  0  0
    0.7600    3.8805    6.0130 H   0  0  0  0  0  0  0  0  0  0  0  0
    1.3101    5.4560    5.4383 H   0  0  0  0  0  0  0  0  0  0  0  0
    2.4407    4.6802    7.6064 H   0  0  0  0  0  0  0  0  0  0  0  0
    3.5656    5.1007    6.3057 H   0  0  0  0  0  0  0  0  0  0  0  0
    2.6903    2.2472    7.0713 H   0  0  0  0  0  0  0  0  0  0  0  0
    4.2862    2.9458    7.3780 H   0  0  0  0  0  0  0  0  0  0  0  0
    4.0738    1.3128    0.9575 H   0  0  0  0  0  0  0  0  0  0  0  0
    4.3113    2.5463   -0.2994 H   0  0  0  0  0  0  0  0  0  0  0  0
  1  2  1  0
  1 19  1  0
  1 20  1  0
  1 21  1  0
  2  3  1  0
  2 22  1  0
  2 23  1  0
  3  4  1  0
  3 18  1  0
  3 24  1  6
  4  5  1  0
  4 25  1  0
  4 26  1  0
  5  6  1  0
  5 27  1  0
  5 28  1  0
  6  7  1  0
  6 29  1  0
  6 30  1  0
  7  8  1  0
  7 18  1  0
  8  9  2  0
  8 12  1  0
  9 10  1  0
 10 11  1  0
 10 16  2  0
 11 12  2  0
 11 13  1  0
 13 14  1  0
 13 31  1  0
 13 32  1  0
 14 15  1  0
 14 33  1  0
 14 34  1  0
 15 16  1  0
 15 35  1  0
 15 36  1  0
 16 17  1  0
 18 37  1  0
 18 38  1  0
M  CHG  2  12   1  17  -1
M  END

