
     RDKit          3D

 37 38  0  0  0  0  0  0  0  0999 V2000
    7.6964   -1.5483    0.9002 C   0  0  0  0  0  0  0  0  0  0  0  0
    7.7736   -2.4758   -0.1594 O   0  0  0  0  0  0  0  0  0  0  0  0
    6.8631   -2.4190   -1.1599 C   0  0  0  0  0  0  0  0  0  0  0  0
    6.9999   -3.3719   -2.1868 C   0  0  0  0  0  0  0  0  0  0  0  0
    6.1064   -3.3827   -3.2507 C   0  0  0  0  0  0  0  0  0  0  0  0
    5.0467   -2.4595   -3.3386 C   0  0  0  0  0  0  0  0  0  0  0  0
    4.0786   -2.4494   -4.4925 C   0  0  0  0  0  0  0  0  0  0  0  0
    4.5295   -1.6303   -5.5907 O   0  0  0  0  0  0  0  0  0  0  0  0
    5.3066   -2.2191   -6.5281 C   0  0  0  0  0  0  0  0  0  0  0  0
    5.6263   -3.3899   -6.4816 O   0  0  0  0  0  0  0  0  0  0  0  0
    5.7074   -1.2807   -7.6032 C   0  0  0  0  0  0  0  0  0  0  0  0
    5.3235    0.0703   -7.6206 C   0  0  0  0  0  0  0  0  0  0  0  0
    5.7287    0.8986   -8.6590 C   0  0  0  0  0  0  0  0  0  0  0  0
    6.5307    0.4076   -9.7112 C   0  0  0  0  0  0  0  0  0  0  0  0
    6.9593    1.2529  -10.7136 N   0  0  0  0  0  0  0  0  0  0  0  0
    6.9293   -0.9579   -9.7031 C   0  0  0  0  0  0  0  0  0  0  0  0
    7.7976   -1.4959  -10.8119 C   0  0  0  0  0  0  0  0  0  0  0  0
    6.5075   -1.7673   -8.6514 C   0  0  0  0  0  0  0  0  0  0  0  0
    4.9455   -1.5270   -2.3047 C   0  0  0  0  0  0  0  0  0  0  0  0
    3.9491   -0.6226   -2.3344 F   0  0  0  0  0  0  0  0  0  0  0  0
    5.8194   -1.4842   -1.2186 C   0  0  0  0  0  0  0  0  0  0  0  0
    8.5261   -1.7810    1.5810 H   0  0  0  0  0  0  0  0  0  0  0  0
    6.7442   -1.6355    1.4539 H   0  0  0  0  0  0  0  0  0  0  0  0
    7.8065   -0.5081    0.5442 H   0  0  0  0  0  0  0  0  0  0  0  0
    7.8193   -4.0899   -2.1236 H   0  0  0  0  0  0  0  0  0  0  0  0
    6.2239   -4.1114   -4.0555 H   0  0  0  0  0  0  0  0  0  0  0  0
    3.1237   -2.0033   -4.1890 H   0  0  0  0  0  0  0  0  0  0  0  0
    3.9126   -3.4709   -4.8598 H   0  0  0  0  0  0  0  0  0  0  0  0
    4.7041    0.4641   -6.8139 H   0  0  0  0  0  0  0  0  0  0  0  0
    5.4266    1.9500   -8.6672 H   0  0  0  0  0  0  0  0  0  0  0  0
    6.4938    2.1470  -10.8055 H   0  0  0  0  0  0  0  0  0  0  0  0
    7.2677    0.8480  -11.5876 H   0  0  0  0  0  0  0  0  0  0  0  0
    7.3026   -1.4223  -11.7985 H   0  0  0  0  0  0  0  0  0  0  0  0
    8.0383   -2.5555  -10.6481 H   0  0  0  0  0  0  0  0  0  0  0  0
    8.7504   -0.9420  -10.8879 H   0  0  0  0  0  0  0  0  0  0  0  0
    6.8008   -2.8193   -8.6238 H   0  0  0  0  0  0  0  0  0  0  0  0
    5.6584   -0.7245   -0.4553 H   0  0  0  0  0  0  0  0  0  0  0  0
  1  2  1  0
  1 22  1  0
  1 23  1  0
  1 24  1  0
  2  3  1  0
  3  4  2  0
  3 21  1  0
  4  5  1  0
  4 25  1  0
  5  6  2  0
  5 26  1  0
  6  7  1  0
  6 19  1  0
  7  8  1  0
  7 27  1  0
  7 28  1  0
  8  9  1  0
  9 10  2  0
  9 11  1  0
 11 12  2  0
 11 18  1  0
 12 13  1  0
 12 29  1  0
 13 14  2  0
 13 30  1  0
 14 15  1  0
 14 16  1  0
 15 31  1  0
 15 32  1  0
 16 17  1  0
 16 18  2  0
 17 33  1  0
 17 34  1  0
 17 35  1  0
 18 36  1  0
 19 20  1  0
 19 21  2  0
 21 37  1  0
M  END

