
     RDKit          3D

 55 57  0  0  0  0  0  0  0  0999 V2000
    2.2746   -1.6393   -7.5100 C   0  0  0  0  0  0  0  0  0  0  0  0
    3.5190   -1.2529   -6.8747 N   0  0  0  0  0  0  0  0  0  0  0  0
    4.0175    0.0686   -7.2441 C   0  0  0  0  0  0  0  0  0  0  0  0
    3.3077    1.2298   -6.5173 C   0  0  0  0  0  0  0  0  0  0  0  0
    3.3249    1.0407   -4.9899 C   0  0  2  0  0  0  0  0  0  0  0  0
    4.6675    1.2849   -4.4622 N   0  0  0  0  0  0  0  0  0  0  0  0
    4.8791    1.7853   -3.2222 C   0  0  0  0  0  0  0  0  0  0  0  0
    3.9972    2.0624   -2.4225 O   0  0  0  0  0  0  0  0  0  0  0  0
    6.3632    1.9640   -2.8313 C   0  0  0  0  0  0  0  0  0  0  0  0
    7.1848    2.7368   -3.7580 N   0  0  0  0  0  0  0  0  0  0  0  0
    7.0959    4.2059   -3.7424 C   0  0  0  0  0  0  0  0  0  0  0  0
    5.8864    4.7786   -4.4601 C   0  0  0  0  0  0  0  0  0  0  0  0
    5.8680    4.8559   -5.8633 C   0  0  0  0  0  0  0  0  0  0  0  0
    4.7666    5.3856   -6.5364 C   0  0  0  0  0  0  0  0  0  0  0  0
    3.6760    5.8377   -5.7932 C   0  0  0  0  0  0  0  0  0  0  0  0
    2.6165    6.3503   -6.4358 F   0  0  0  0  0  0  0  0  0  0  0  0
    3.6615    5.7706   -4.4031 C   0  0  0  0  0  0  0  0  0  0  0  0
    4.7729    5.2382   -3.7437 C   0  0  0  0  0  0  0  0  0  0  0  0
    8.2002    1.9515   -4.8227 S   0  0  1  0  0  0  0  0  0  0  0  0
    7.4999    0.7332   -5.2657 O   0  0  0  0  0  0  0  0  0  0  0  0
    8.6744    2.9556   -5.7789 O   0  0  0  0  0  0  0  0  0  0  0  0
    9.6208    1.3944   -3.8768 C   0  0  0  0  0  0  0  0  0  0  0  0
    9.6666    0.0806   -3.3999 C   0  0  0  0  0  0  0  0  0  0  0  0
   10.7639   -0.3389   -2.6456 C   0  0  0  0  0  0  0  0  0  0  0  0
   11.8043    0.5594   -2.3862 C   0  0  0  0  0  0  0  0  0  0  0  0
   13.1750    0.0381   -1.4456 Cl  0  0  0  0  0  0  0  0  0  0  0  0
   11.7671    1.8695   -2.8810 C   0  0  0  0  0  0  0  0  0  0  0  0
   10.6709    2.2878   -3.6336 C   0  0  0  0  0  0  0  0  0  0  0  0
    2.8143   -0.3716   -4.6295 C   0  0  0  0  0  0  0  0  0  0  0  0
    3.5623   -1.4532   -5.4283 C   0  0  0  0  0  0  0  0  0  0  0  0
    2.3808   -1.5717   -8.6052 H   0  0  0  0  0  0  0  0  0  0  0  0
    1.3818   -1.0358   -7.2294 H   0  0  0  0  0  0  0  0  0  0  0  0
    2.0450   -2.6897   -7.2660 H   0  0  0  0  0  0  0  0  0  0  0  0
    3.9264    0.1925   -8.3355 H   0  0  0  0  0  0  0  0  0  0  0  0
    5.1015    0.1004   -7.0247 H   0  0  0  0  0  0  0  0  0  0  0  0
    2.2558    1.2821   -6.8448 H   0  0  0  0  0  0  0  0  0  0  0  0
    3.7709    2.1945   -6.7829 H   0  0  0  0  0  0  0  0  0  0  0  0
    2.6744    1.7847   -4.5068 H   0  0  0  0  0  0  0  0  0  0  0  0
    5.4836    1.0397   -5.0199 H   0  0  0  0  0  0  0  0  0  0  0  0
    6.8077    0.9656   -2.6948 H   0  0  0  0  0  0  0  0  0  0  0  0
    6.3622    2.4597   -1.8490 H   0  0  0  0  0  0  0  0  0  0  0  0
    8.0129    4.5997   -4.1995 H   0  0  0  0  0  0  0  0  0  0  0  0
    7.0873    4.5216   -2.6862 H   0  0  0  0  0  0  0  0  0  0  0  0
    6.7282    4.4910   -6.4302 H   0  0  0  0  0  0  0  0  0  0  0  0
    4.7404    5.4592   -7.6255 H   0  0  0  0  0  0  0  0  0  0  0  0
    2.7872    6.1279   -3.8559 H   0  0  0  0  0  0  0  0  0  0  0  0
    4.7602    5.1698   -2.6529 H   0  0  0  0  0  0  0  0  0  0  0  0
    8.8588   -0.6126   -3.6392 H   0  0  0  0  0  0  0  0  0  0  0  0
   10.8207   -1.3604   -2.2665 H   0  0  0  0  0  0  0  0  0  0  0  0
   12.5983    2.5479   -2.6830 H   0  0  0  0  0  0  0  0  0  0  0  0
   10.6400    3.2970   -4.0480 H   0  0  0  0  0  0  0  0  0  0  0  0
    1.7336   -0.4194   -4.8495 H   0  0  0  0  0  0  0  0  0  0  0  0
    2.9228   -0.5356   -3.5452 H   0  0  0  0  0  0  0  0  0  0  0  0
    3.1630   -2.4538   -5.1943 H   0  0  0  0  0  0  0  0  0  0  0  0
    4.6232   -1.4586   -5.1158 H   0  0  0  0  0  0  0  0  0  0  0  0
  1  2  1  0
  1 31  1  0
  1 32  1  0
  1 33  1  0
  2  3  1  0
  2 30  1  0
  3  4  1  0
  3 34  1  0
  3 35  1  0
  4  5  1  0
  4 36  1  0
  4 37  1  0
  5  6  1  0
  5 29  1  0
  5 38  1  1
  6  7  1  0
  6 39  1  0
  7  8  2  0
  7  9  1  0
  9 10  1  0
  9 40  1  0
  9 41  1  0
 10 11  1  0
 19 10  1  1
 11 12  1  0
 11 42  1  0
 11 43  1  0
 12 13  2  0
 12 18  1  0
 13 14  1  0
 13 44  1  0
 14 15  2  0
 14 45  1  0
 15 16  1  0
 15 17  1  0
 17 18  2  0
 17 46  1  0
 18 47  1  0
 19 20  2  0
 19 21  2  0
 19 22  1  0
 22 23  2  0
 22 28  1  0
 23 24  1  0
 23 48  1  0
 24 25  2  0
 24 49  1  0
 25 26  1  0
 25 27  1  0
 27 28  2  0
 27 50  1  0
 28 51  1  0
 29 30  1  0
 29 52  1  0
 29 53  1  0
 30 54  1  0
 30 55  1  0
M  END

