
     RDKit          3D

 41 41  0  0  0  0  0  0  0  0999 V2000
    0.9521   -0.1940   -0.5389 C   0  0  0  0  0  0  0  0  0  0  0  0
    2.4593    0.0419   -0.4363 C   0  0  0  0  0  0  0  0  0  0  0  0
    2.8668    1.3536    0.2613 C   0  0  1  0  0  0  0  0  0  0  0  0
    2.3031    1.5089    1.6957 C   0  0  0  0  0  0  0  0  0  0  0  0
    2.7100    0.4144    2.6838 C   0  0  0  0  0  0  0  0  0  0  0  0
    4.3181    1.4674    0.1970 N   0  0  0  0  0  0  0  0  0  0  0  0
    5.0595    2.6355    0.3092 C   0  0  0  0  0  0  0  0  0  0  0  0
    4.3876    3.8799    0.3493 C   0  0  0  0  0  0  0  0  0  0  0  0
    5.0741    5.0888    0.4310 C   0  0  0  0  0  0  0  0  0  0  0  0
    6.4647    5.0929    0.4827 C   0  0  0  0  0  0  0  0  0  0  0  0
    7.1405    3.8700    0.4409 C   0  0  0  0  0  0  0  0  0  0  0  0
    6.4961    2.6264    0.3509 C   0  0  0  0  0  0  0  0  0  0  0  0
    7.3399    1.3246    0.2836 C   0  0  1  0  0  0  0  0  0  0  0  0
    8.8562    1.6140    0.3166 C   0  0  0  0  0  0  0  0  0  0  0  0
    7.0605    0.4133    1.5072 C   0  0  0  0  0  0  0  0  0  0  0  0
    7.0779    0.5700   -1.0454 C   0  0  0  0  0  0  0  0  0  0  0  0
    0.7386   -1.0963   -1.1332 H   0  0  0  0  0  0  0  0  0  0  0  0
    0.4460    0.6531   -1.0314 H   0  0  0  0  0  0  0  0  0  0  0  0
    0.4823   -0.3334    0.4474 H   0  0  0  0  0  0  0  0  0  0  0  0
    2.8987    0.0586   -1.4477 H   0  0  0  0  0  0  0  0  0  0  0  0
    2.9304   -0.8124    0.0843 H   0  0  0  0  0  0  0  0  0  0  0  0
    2.4406    2.1732   -0.3432 H   0  0  0  0  0  0  0  0  0  0  0  0
    1.2025    1.5673    1.6368 H   0  0  0  0  0  0  0  0  0  0  0  0
    2.6330    2.4858    2.0849 H   0  0  0  0  0  0  0  0  0  0  0  0
    2.3236   -0.5767    2.3950 H   0  0  0  0  0  0  0  0  0  0  0  0
    2.3217    0.6339    3.6909 H   0  0  0  0  0  0  0  0  0  0  0  0
    3.8059    0.3360    2.7696 H   0  0  0  0  0  0  0  0  0  0  0  0
    4.8166    0.6002    0.3146 H   0  0  0  0  0  0  0  0  0  0  0  0
    3.2990    3.9018    0.3146 H   0  0  0  0  0  0  0  0  0  0  0  0
    4.5103    6.0252    0.4586 H   0  0  0  0  0  0  0  0  0  0  0  0
    7.0252    6.0277    0.5535 H   0  0  0  0  0  0  0  0  0  0  0  0
    8.2282    3.8991    0.4776 H   0  0  0  0  0  0  0  0  0  0  0  0
    9.1643    2.1141    1.2475 H   0  0  0  0  0  0  0  0  0  0  0  0
    9.1773    2.2367   -0.5319 H   0  0  0  0  0  0  0  0  0  0  0  0
    9.4087    0.6632    0.2552 H   0  0  0  0  0  0  0  0  0  0  0  0
    7.3063    0.9428    2.4411 H   0  0  0  0  0  0  0  0  0  0  0  0
    7.6844   -0.4943    1.4581 H   0  0  0  0  0  0  0  0  0  0  0  0
    6.0163    0.0810    1.5968 H   0  0  0  0  0  0  0  0  0  0  0  0
    7.3879    1.1913   -1.9002 H   0  0  0  0  0  0  0  0  0  0  0  0
    6.0224    0.3128   -1.2055 H   0  0  0  0  0  0  0  0  0  0  0  0
    7.6623   -0.3645   -1.0775 H   0  0  0  0  0  0  0  0  0  0  0  0
  1  2  1  0
  1 17  1  0
  1 18  1  0
  1 19  1  0
  2  3  1  0
  2 20  1  0
  2 21  1  0
  3  4  1  0
  3  6  1  0
  3 22  1  6
  4  5  1  0
  4 23  1  0
  4 24  1  0
  5 25  1  0
  5 26  1  0
  5 27  1  0
  6  7  1  0
  6 28  1  0
  7  8  2  0
  7 12  1  0
  8  9  1  0
  8 29  1  0
  9 10  2  0
  9 30  1  0
 10 11  1  0
 10 31  1  0
 11 12  2  0
 11 32  1  0
 12 13  1  0
 13 14  1  6
 13 15  1  0
 13 16  1  0
 14 33  1  0
 14 34  1  0
 14 35  1  0
 15 36  1  0
 15 37  1  0
 15 38  1  0
 16 39  1  0
 16 40  1  0
 16 41  1  0
M  END

