
     RDKit          3D

 52 53  0  0  0  0  0  0  0  0999 V2000
    1.2349   -2.0115    0.1318 C   0  0  0  0  0  0  0  0  0  0  0  0
    2.4863   -2.5560   -0.1870 O   0  0  0  0  0  0  0  0  0  0  0  0
    3.2204   -1.7957   -1.1109 C   0  0  0  0  0  0  0  0  0  0  0  0
    4.5432   -2.5028   -1.3543 C   0  0  0  0  0  0  0  0  0  0  0  0
    5.2648   -1.7531   -2.3027 O   0  0  0  0  0  0  0  0  0  0  0  0
    6.5972   -2.1621   -2.5448 C   0  0  1  0  0  0  0  0  0  0  0  0
    6.6761   -3.4231   -3.4149 C   0  0  0  0  0  0  0  0  0  0  0  0
    6.1410   -3.2255   -4.7065 O   0  0  0  0  0  0  0  0  0  0  0  0
    6.7829   -2.1945   -5.4251 C   0  0  0  0  0  0  0  0  0  0  0  0
    6.7148   -0.8552   -4.6861 C   0  0  0  0  0  0  0  0  0  0  0  0
    7.2776   -0.9716   -3.2621 C   0  0  2  0  0  0  0  0  0  0  0  0
    8.7305   -1.0915   -3.2860 N   0  0  0  0  0  0  0  0  0  0  0  0
    9.4829   -0.8070   -2.1708 C   0  0  0  0  0  0  0  0  0  0  0  0
    8.9701   -0.4464   -1.1159 O   0  0  0  0  0  0  0  0  0  0  0  0
   10.8626   -0.9643   -2.3023 N   0  0  0  0  0  0  0  0  0  0  0  0
   11.5911   -0.7133   -3.5462 C   0  0  0  0  0  0  0  0  0  0  0  0
   12.0557    0.7537   -3.6620 C   0  0  2  0  0  0  0  0  0  0  0  0
   12.8846    0.9735   -4.9289 C   0  0  0  0  0  0  0  0  0  0  0  0
   12.8167    1.1816   -2.3941 C   0  0  0  0  0  0  0  0  0  0  0  0
   12.0302    0.8581   -1.1201 C   0  0  2  0  0  0  0  0  0  0  0  0
   12.7843    1.2267    0.1523 C   0  0  0  0  0  0  0  0  0  0  0  0
   13.9493    1.5145    0.2006 O   0  0  0  0  0  0  0  0  0  0  0  0
   12.0404    1.1782    1.2828 O   0  0  0  0  0  0  0  0  0  0  0  0
   11.6440   -0.6402   -1.1184 C   0  0  0  0  0  0  0  0  0  0  0  0
    0.7493   -2.6822    0.8559 H   0  0  0  0  0  0  0  0  0  0  0  0
    0.5805   -1.9221   -0.7596 H   0  0  0  0  0  0  0  0  0  0  0  0
    1.3232   -1.0044    0.5888 H   0  0  0  0  0  0  0  0  0  0  0  0
    3.4127   -0.7700   -0.7330 H   0  0  0  0  0  0  0  0  0  0  0  0
    2.6778   -1.6911   -2.0737 H   0  0  0  0  0  0  0  0  0  0  0  0
    4.3366   -3.5329   -1.7036 H   0  0  0  0  0  0  0  0  0  0  0  0
    5.1016   -2.5824   -0.4002 H   0  0  0  0  0  0  0  0  0  0  0  0
    7.1202   -2.3411   -1.5861 H   0  0  0  0  0  0  0  0  0  0  0  0
    6.1091   -4.2506   -2.9634 H   0  0  0  0  0  0  0  0  0  0  0  0
    7.7378   -3.7483   -3.4718 H   0  0  0  0  0  0  0  0  0  0  0  0
    6.2783   -2.1280   -6.4010 H   0  0  0  0  0  0  0  0  0  0  0  0
    7.8408   -2.4777   -5.6330 H   0  0  0  0  0  0  0  0  0  0  0  0
    5.6594   -0.5559   -4.6070 H   0  0  0  0  0  0  0  0  0  0  0  0
    7.2509   -0.0732   -5.2492 H   0  0  0  0  0  0  0  0  0  0  0  0
    7.0362   -0.0742   -2.6763 H   0  0  0  0  0  0  0  0  0  0  0  0
    9.1527   -1.6289   -4.0317 H   0  0  0  0  0  0  0  0  0  0  0  0
   10.9751   -0.9775   -4.4164 H   0  0  0  0  0  0  0  0  0  0  0  0
   12.4717   -1.3812   -3.5707 H   0  0  0  0  0  0  0  0  0  0  0  0
   11.1395    1.3702   -3.7324 H   0  0  0  0  0  0  0  0  0  0  0  0
   13.8050    0.3655   -4.9123 H   0  0  0  0  0  0  0  0  0  0  0  0
   13.1872    2.0280   -5.0259 H   0  0  0  0  0  0  0  0  0  0  0  0
   12.3194    0.7031   -5.8361 H   0  0  0  0  0  0  0  0  0  0  0  0
   13.0487    2.2579   -2.4357 H   0  0  0  0  0  0  0  0  0  0  0  0
   13.7912    0.6643   -2.3456 H   0  0  0  0  0  0  0  0  0  0  0  0
   11.0796    1.4225   -1.1151 H   0  0  0  0  0  0  0  0  0  0  0  0
   11.1168    0.9687    1.0749 H   0  0  0  0  0  0  0  0  0  0  0  0
   11.0554   -0.9059   -0.2332 H   0  0  0  0  0  0  0  0  0  0  0  0
   12.5617   -1.2533   -1.1213 H   0  0  0  0  0  0  0  0  0  0  0  0
  1  2  1  0
  1 25  1  0
  1 26  1  0
  1 27  1  0
  2  3  1  0
  3  4  1  0
  3 28  1  0
  3 29  1  0
  4  5  1  0
  4 30  1  0
  4 31  1  0
  5  6  1  0
  6  7  1  0
  6 11  1  0
  6 32  1  1
  7  8  1  0
  7 33  1  0
  7 34  1  0
  8  9  1  0
  9 10  1  0
  9 35  1  0
  9 36  1  0
 10 11  1  0
 10 37  1  0
 10 38  1  0
 11 12  1  0
 11 39  1  1
 12 13  1  0
 12 40  1  0
 13 14  2  0
 13 15  1  0
 15 16  1  0
 15 24  1  0
 16 17  1  0
 16 41  1  0
 16 42  1  0
 17 18  1  0
 17 19  1  0
 17 43  1  6
 18 44  1  0
 18 45  1  0
 18 46  1  0
 19 20  1  0
 19 47  1  0
 19 48  1  0
 20 21  1  0
 20 24  1  0
 20 49  1  6
 21 22  2  0
 21 23  1  0
 23 50  1  0
 24 51  1  0
 24 52  1  0
M  END

