
     RDKit          3D

 40 42  0  0  0  0  0  0  0  0999 V2000
    0.9179    0.0480    0.2373 C   0  0  0  0  0  0  0  0  0  0  0  0
    2.4124    0.1182    0.2573 C   0  0  0  0  0  0  0  0  0  0  0  0
    3.1908   -0.7931    0.7324 N   0  0  0  0  0  0  0  0  0  0  0  0
    4.5255   -0.4501    0.6150 C   0  0  0  0  0  0  0  0  0  0  0  0
    5.6190   -1.2229    1.0353 C   0  0  0  0  0  0  0  0  0  0  0  0
    6.9182   -0.7615    0.8594 C   0  0  0  0  0  0  0  0  0  0  0  0
    7.1570    0.4960    0.2515 C   0  0  0  0  0  0  0  0  0  0  0  0
    8.4474    1.0122    0.0399 N   0  0  0  0  0  0  0  0  0  0  0  0
    9.6755    0.4564    0.3840 C   0  0  0  0  0  0  0  0  0  0  0  0
    9.8092   -0.6026    0.9750 O   0  0  0  0  0  0  0  0  0  0  0  0
   10.7505    1.2310    0.0045 N   0  0  0  0  0  0  0  0  0  0  0  0
   12.1211    0.7839    0.2485 C   0  0  1  0  0  0  0  0  0  0  0  0
   12.6089   -0.2343   -0.8049 C   0  0  0  0  0  0  0  0  0  0  0  0
   12.8322    0.4076   -2.1813 C   0  0  0  0  0  0  0  0  0  0  0  0
   13.7924    1.6068   -2.1121 C   0  0  2  0  0  0  0  0  0  0  0  0
   15.1316    1.2014   -1.8637 O   0  0  0  0  0  0  0  0  0  0  0  0
   13.3100    2.6321   -1.0693 C   0  0  0  0  0  0  0  0  0  0  0  0
   13.0707    1.9929    0.3083 C   0  0  0  0  0  0  0  0  0  0  0  0
    6.0747    1.2843   -0.1755 C   0  0  0  0  0  0  0  0  0  0  0  0
    4.7762    0.8075    0.0092 C   0  0  0  0  0  0  0  0  0  0  0  0
    3.2498    1.5512   -0.4126 S   0  0  0  0  0  0  0  0  0  0  0  0
    0.6052   -0.9079    0.6784 H   0  0  0  0  0  0  0  0  0  0  0  0
    0.5257    0.1136   -0.7908 H   0  0  0  0  0  0  0  0  0  0  0  0
    0.4694    0.8722    0.8160 H   0  0  0  0  0  0  0  0  0  0  0  0
    5.4342   -2.1916    1.5042 H   0  0  0  0  0  0  0  0  0  0  0  0
    7.7704   -1.3513    1.1875 H   0  0  0  0  0  0  0  0  0  0  0  0
    8.4665    1.9339   -0.3792 H   0  0  0  0  0  0  0  0  0  0  0  0
   10.6075    2.0201   -0.6134 H   0  0  0  0  0  0  0  0  0  0  0  0
   12.0997    0.2815    1.2265 H   0  0  0  0  0  0  0  0  0  0  0  0
   11.8895   -1.0649   -0.8648 H   0  0  0  0  0  0  0  0  0  0  0  0
   13.5516   -0.6832   -0.4395 H   0  0  0  0  0  0  0  0  0  0  0  0
   11.8636    0.7485   -2.5878 H   0  0  0  0  0  0  0  0  0  0  0  0
   13.2295   -0.3316   -2.8953 H   0  0  0  0  0  0  0  0  0  0  0  0
   13.8305    2.0968   -3.0989 H   0  0  0  0  0  0  0  0  0  0  0  0
   15.1460    0.6342   -1.0822 H   0  0  0  0  0  0  0  0  0  0  0  0
   12.3827    3.1070   -1.4414 H   0  0  0  0  0  0  0  0  0  0  0  0
   14.0558    3.4389   -0.9905 H   0  0  0  0  0  0  0  0  0  0  0  0
   12.6866    2.7371    1.0248 H   0  0  0  0  0  0  0  0  0  0  0  0
   14.0370    1.6478    0.7145 H   0  0  0  0  0  0  0  0  0  0  0  0
    6.2511    2.2556   -0.6457 H   0  0  0  0  0  0  0  0  0  0  0  0
  1  2  1  0
  1 22  1  0
  1 23  1  0
  1 24  1  0
  2  3  2  0
  2 21  1  0
  3  4  1  0
  4  5  2  0
  4 20  1  0
  5  6  1  0
  5 25  1  0
  6  7  2  0
  6 26  1  0
  7  8  1  0
  7 19  1  0
  8  9  1  0
  8 27  1  0
  9 10  2  0
  9 11  1  0
 11 12  1  0
 11 28  1  0
 12 13  1  0
 12 18  1  0
 12 29  1  1
 13 14  1  0
 13 30  1  0
 13 31  1  0
 14 15  1  0
 14 32  1  0
 14 33  1  0
 15 16  1  0
 15 17  1  0
 15 34  1  6
 16 35  1  0
 17 18  1  0
 17 36  1  0
 17 37  1  0
 18 38  1  0
 18 39  1  0
 19 20  2  0
 19 40  1  0
 20 21  1  0
M  END

