
     RDKit          3D

 25 27  0  0  0  0  0  0  0  0999 V2000
   -1.3266   -0.1742    0.6301 C   0  0  0  0  0  0  0  0  0  0  0  0
   -0.4754    0.7563    1.2292 C   0  0  0  0  0  0  0  0  0  0  0  0
    0.8515    0.8725    0.7982 C   0  0  0  0  0  0  0  0  0  0  0  0
    1.3467    0.0642   -0.2348 C   0  0  0  0  0  0  0  0  0  0  0  0
    2.7869    0.1940   -0.7076 C   0  0  0  0  0  0  0  0  0  0  0  0
    3.5964   -1.0652   -0.5840 C   0  0  0  0  0  0  0  0  0  0  0  0
    4.3891   -1.7038   -1.5327 C   0  0  0  0  0  0  0  0  0  0  0  0
    4.9612   -2.8320   -0.8787 C   0  0  0  0  0  0  0  0  0  0  0  0
    5.9983   -4.2123   -1.0776 S   0  0  0  0  0  0  0  0  0  0  0  0
    5.6800   -4.6380    0.6108 C   0  0  0  0  0  0  0  0  0  0  0  0
    4.8844   -3.8428    1.2680 N   0  0  0  0  0  0  0  0  0  0  0  0
    4.4915   -2.8446    0.4383 C   0  0  0  0  0  0  0  0  0  0  0  0
    3.6673   -1.7615    0.6091 N   0  0  0  0  0  0  0  0  0  0  0  0
    3.1414   -1.5440    1.4464 H   0  0  0  0  0  0  0  0  0  0  0  0
    0.4808   -0.8712   -0.8269 C   0  0  0  0  0  0  0  0  0  0  0  0
   -0.8431   -0.9885   -0.4011 C   0  0  0  0  0  0  0  0  0  0  0  0
   -2.3630   -0.2674    0.9643 H   0  0  0  0  0  0  0  0  0  0  0  0
   -0.8423    1.3968    2.0355 H   0  0  0  0  0  0  0  0  0  0  0  0
    1.5106    1.6085    1.2687 H   0  0  0  0  0  0  0  0  0  0  0  0
    3.2722    1.0124   -0.1459 H   0  0  0  0  0  0  0  0  0  0  0  0
    2.8078    0.4977   -1.7666 H   0  0  0  0  0  0  0  0  0  0  0  0
    4.5292   -1.3701   -2.5584 H   0  0  0  0  0  0  0  0  0  0  0  0
    6.1488   -5.5270    1.0376 H   0  0  0  0  0  0  0  0  0  0  0  0
    0.8549   -1.5158   -1.6274 H   0  0  0  0  0  0  0  0  0  0  0  0
   -1.5030   -1.7198   -0.8752 H   0  0  0  0  0  0  0  0  0  0  0  0
  1  2  2  0
  1 16  1  0
  1 17  1  0
  2  3  1  0
  2 18  1  0
  3  4  2  0
  3 19  1  0
  4  5  1  0
  4 15  1  0
  5  6  1  0
  5 20  1  0
  5 21  1  0
  6  7  2  0
  6 13  1  0
  7  8  1  0
  7 22  1  0
  8  9  1  0
  8 12  2  0
  9 10  1  0
 10 11  2  0
 10 23  1  0
 11 12  1  0
 12 13  1  0
 13 14  1  0
 15 16  2  0
 15 24  1  0
 16 25  1  0
M  END

