
     RDKit          3D

 30 30  0  0  0  0  0  0  0  0999 V2000
    3.7160    1.0878    2.4715 C   0  0  0  0  0  0  0  0  0  0  0  0
    2.9187    0.6870    1.4710 C   0  0  0  0  0  0  0  0  0  0  0  0
    3.0305    1.3083    0.0872 C   0  0  0  0  0  0  0  0  0  0  0  0
    2.2592    2.5365   -0.0960 N   0  0  0  0  0  0  0  0  0  0  0  0
    0.8974    2.5486   -0.4203 C   0  0  0  0  0  0  0  0  0  0  0  0
    0.2019    1.5511   -0.5297 O   0  0  0  0  0  0  0  0  0  0  0  0
    0.5326    3.8482   -0.5830 N   0  0  0  0  0  0  0  0  0  0  0  0
    1.6122    4.7785   -0.2841 C   0  0  2  0  0  0  0  0  0  0  0  0
    1.9534    5.7708   -1.4006 C   0  0  0  0  0  0  0  0  0  0  0  0
    0.8554    6.8033   -1.6712 C   0  0  0  0  0  0  0  0  0  0  0  0
    1.2312    7.7996   -2.7687 C   0  0  0  0  0  0  0  0  0  0  0  0
    2.7748    3.8178    0.0125 C   0  0  0  0  0  0  0  0  0  0  0  0
    3.9172    4.1126    0.2672 O   0  0  0  0  0  0  0  0  0  0  0  0
    1.9524   -0.4545    1.7480 C   0  0  0  0  0  0  0  0  0  0  0  0
    2.1046   -1.1880    2.6937 O   0  0  0  0  0  0  0  0  0  0  0  0
    0.9451   -0.6380    0.8890 O   0  0  0  0  0  0  0  0  0  0  0  0
    4.4497    1.8867    2.3307 H   0  0  0  0  0  0  0  0  0  0  0  0
    3.6372    0.6115    3.4517 H   0  0  0  0  0  0  0  0  0  0  0  0
    2.7125    0.5979   -0.6894 H   0  0  0  0  0  0  0  0  0  0  0  0
    4.0768    1.5823   -0.1049 H   0  0  0  0  0  0  0  0  0  0  0  0
   -0.4438    4.0986   -0.6769 H   0  0  0  0  0  0  0  0  0  0  0  0
    1.4000    5.3381    0.6472 H   0  0  0  0  0  0  0  0  0  0  0  0
    2.1769    5.2042   -2.3215 H   0  0  0  0  0  0  0  0  0  0  0  0
    2.8879    6.2768   -1.1053 H   0  0  0  0  0  0  0  0  0  0  0  0
    0.6308    7.3477   -0.7359 H   0  0  0  0  0  0  0  0  0  0  0  0
   -0.0781    6.2846   -1.9556 H   0  0  0  0  0  0  0  0  0  0  0  0
    2.1426    8.3603   -2.5035 H   0  0  0  0  0  0  0  0  0  0  0  0
    0.4261    8.5311   -2.9390 H   0  0  0  0  0  0  0  0  0  0  0  0
    1.4246    7.2870   -3.7254 H   0  0  0  0  0  0  0  0  0  0  0  0
    0.7430    0.1333    0.3072 H   0  0  0  0  0  0  0  0  0  0  0  0
  1  2  2  0
  1 17  1  0
  1 18  1  0
  2  3  1  0
  2 14  1  0
  3  4  1  0
  3 19  1  0
  3 20  1  0
  4  5  1  0
  4 12  1  0
  5  6  2  0
  5  7  1  0
  7  8  1  0
  7 21  1  0
  8  9  1  0
  8 12  1  0
  8 22  1  1
  9 10  1  0
  9 23  1  0
  9 24  1  0
 10 11  1  0
 10 25  1  0
 10 26  1  0
 11 27  1  0
 11 28  1  0
 11 29  1  0
 12 13  2  0
 14 15  2  0
 14 16  1  0
 16 30  1  0
M  END

