
     RDKit          3D

134140  0  0  0  0  0  0  0  0999 V2000
    4.5206    6.0997    1.0749 C   0  0  0  0  0  0  0  0  0  0  0  0
    4.8254    4.6022    1.0150 C   0  0  0  0  0  0  0  0  0  0  0  0
    5.8172    4.1349    2.0849 C   0  0  0  0  0  0  0  0  0  0  0  0
    6.1274    2.6362    2.0320 C   0  0  0  0  0  0  0  0  0  0  0  0
    7.1199    2.1709    3.1015 C   0  0  0  0  0  0  0  0  0  0  0  0
    7.4274    0.6710    3.0483 C   0  0  0  0  0  0  0  0  0  0  0  0
    8.4265    0.2263    4.1247 C   0  0  0  0  0  0  0  0  0  0  0  0
    8.6954   -1.2902    4.0920 C   0  0  1  0  0  0  0  0  0  0  0  0
    9.5611   -1.7981    2.9177 C   0  0  0  0  0  0  0  0  0  0  0  0
   11.0423   -1.3720    2.8348 C   0  0  0  0  0  0  0  0  0  0  0  0
   12.0483   -2.3676    3.4422 C   0  0  0  0  0  0  0  0  0  0  0  0
   12.2409   -3.6833    2.6699 C   0  0  0  0  0  0  0  0  0  0  0  0
   12.9238   -3.5404    1.3050 C   0  0  0  0  0  0  0  0  0  0  0  0
   13.1511   -4.8768    0.5905 C   0  0  0  0  0  0  0  0  0  0  0  0
   13.8353   -4.7355   -0.7699 C   0  0  0  0  0  0  0  0  0  0  0  0
    9.1334   -1.8392    5.4225 N   0  0  0  0  0  0  0  0  0  0  0  0
    8.5155   -3.0334    5.8195 C   0  0  0  0  0  0  0  0  0  0  0  0
    7.7041   -3.5938    5.1091 O   0  0  0  0  0  0  0  0  0  0  0  0
    8.8825   -3.5988    7.1498 C   0  0  0  0  0  0  0  0  0  0  0  0
    8.2822   -4.7819    7.5940 C   0  0  0  0  0  0  0  0  0  0  0  0
    7.3149   -5.5367    6.8408 C   0  0  0  0  0  0  0  0  0  0  0  0
    6.5358   -6.2691    6.3891 N   0  0  0  0  0  0  0  0  0  0  0  0
    8.6172   -5.3098    8.8628 C   0  0  0  0  0  0  0  0  0  0  0  0
    9.5333   -4.6930    9.7074 C   0  0  0  0  0  0  0  0  0  0  0  0
    9.8744   -5.2464   11.0308 C   0  0  0  0  0  0  0  0  0  0  0  0
    9.3007   -6.4181   11.5112 C   0  0  0  0  0  0  0  0  0  0  0  0
    9.6215   -6.9530   12.7807 C   0  0  0  0  0  0  0  0  0  0  0  0
    8.9421   -8.1727   13.1326 C   0  0  0  0  0  0  0  0  0  0  0  0
    8.3082   -9.1396   13.2364 N   0  0  0  0  0  0  0  0  0  0  0  0
   10.5471   -6.2985   13.6002 C   0  0  0  0  0  0  0  0  0  0  0  0
   11.1532   -5.0992   13.1400 C   0  0  0  0  0  0  0  0  0  0  0  0
   12.0928   -4.4420   13.9785 C   0  0  0  0  0  0  0  0  0  0  0  0
   12.6950   -3.2605   13.5323 C   0  0  0  0  0  0  0  0  0  0  0  0
   13.6619   -2.5048   14.2850 C   0  0  0  0  0  0  0  0  0  0  0  0
   14.4441   -1.7742   14.7345 N   0  0  0  0  0  0  0  0  0  0  0  0
   12.3650   -2.7366   12.2607 C   0  0  0  0  0  0  0  0  0  0  0  0
   11.4496   -3.3542   11.4159 C   0  0  0  0  0  0  0  0  0  0  0  0
   11.1100   -2.8019   10.0917 C   0  0  0  0  0  0  0  0  0  0  0  0
   11.6862   -1.6323    9.6093 C   0  0  0  0  0  0  0  0  0  0  0  0
   11.3681   -1.0996    8.3381 C   0  0  0  0  0  0  0  0  0  0  0  0
   12.0533    0.1161    7.9835 C   0  0  0  0  0  0  0  0  0  0  0  0
   12.6894    1.0816    7.8803 N   0  0  0  0  0  0  0  0  0  0  0  0
   10.4383   -1.7512    7.5208 C   0  0  0  0  0  0  0  0  0  0  0  0
    9.8266   -2.9456    7.9856 C   0  0  0  0  0  0  0  0  0  0  0  0
   10.1591   -3.4840    9.2704 C   0  0  0  0  0  0  0  0  0  0  0  0
   10.1154   -1.1914    6.1733 C   0  0  0  0  0  0  0  0  0  0  0  0
   10.6952   -0.2066    5.7623 O   0  0  0  0  0  0  0  0  0  0  0  0
   10.8235   -4.5629   11.8534 C   0  0  0  0  0  0  0  0  0  0  0  0
   12.4411   -4.9911   15.3212 C   0  0  0  0  0  0  0  0  0  0  0  0
   13.2389   -4.4172   16.0372 O   0  0  0  0  0  0  0  0  0  0  0  0
   11.8216   -6.1835   15.7162 N   0  0  0  0  0  0  0  0  0  0  0  0
   12.1822   -6.7270   17.0675 C   0  0  1  0  0  0  0  0  0  0  0  0
   10.9712   -6.6866   18.0205 C   0  0  0  0  0  0  0  0  0  0  0  0
   11.3517   -6.7815   19.5030 C   0  0  0  0  0  0  0  0  0  0  0  0
   10.1457   -6.6476   20.4386 C   0  0  0  0  0  0  0  0  0  0  0  0
   10.5022   -6.7526   21.9243 C   0  0  0  0  0  0  0  0  0  0  0  0
    9.2987   -6.6150   22.8612 C   0  0  0  0  0  0  0  0  0  0  0  0
    9.6531   -6.7218   24.3477 C   0  0  0  0  0  0  0  0  0  0  0  0
    8.4461   -6.5829   25.2765 C   0  0  0  0  0  0  0  0  0  0  0  0
   12.8665   -8.1035   16.9715 C   0  0  0  0  0  0  0  0  0  0  0  0
   14.1293   -8.1690   16.1005 C   0  0  0  0  0  0  0  0  0  0  0  0
   15.3237   -7.3502   16.6057 C   0  0  0  0  0  0  0  0  0  0  0  0
   16.5848   -7.5247   15.7532 C   0  0  0  0  0  0  0  0  0  0  0  0
   17.7854   -6.7148   16.2510 C   0  0  0  0  0  0  0  0  0  0  0  0
   19.0460   -6.8840   15.3973 C   0  0  0  0  0  0  0  0  0  0  0  0
   20.2404   -6.0731   15.9022 C   0  0  0  0  0  0  0  0  0  0  0  0
   10.8802   -6.8633   14.9418 C   0  0  0  0  0  0  0  0  0  0  0  0
   10.3452   -7.8804   15.3370 O   0  0  0  0  0  0  0  0  0  0  0  0
    3.8053    6.3997    0.2924 H   0  0  0  0  0  0  0  0  0  0  0  0
    5.4351    6.7010    0.9375 H   0  0  0  0  0  0  0  0  0  0  0  0
    4.0858    6.3819    2.0486 H   0  0  0  0  0  0  0  0  0  0  0  0
    5.2229    4.3463    0.0159 H   0  0  0  0  0  0  0  0  0  0  0  0
    3.8853    4.0298    1.1175 H   0  0  0  0  0  0  0  0  0  0  0  0
    5.4205    4.3905    3.0855 H   0  0  0  0  0  0  0  0  0  0  0  0
    6.7588    4.7064    1.9832 H   0  0  0  0  0  0  0  0  0  0  0  0
    6.5236    2.3810    1.0314 H   0  0  0  0  0  0  0  0  0  0  0  0
    5.1860    2.0648    2.1343 H   0  0  0  0  0  0  0  0  0  0  0  0
    6.7254    2.4271    4.1024 H   0  0  0  0  0  0  0  0  0  0  0  0
    8.0625    2.7393    2.9986 H   0  0  0  0  0  0  0  0  0  0  0  0
    7.8164    0.4227    2.0448 H   0  0  0  0  0  0  0  0  0  0  0  0
    6.4865    0.1002    3.1558 H   0  0  0  0  0  0  0  0  0  0  0  0
    8.0126    0.4870    5.1139 H   0  0  0  0  0  0  0  0  0  0  0  0
    9.3592    0.7985    4.0291 H   0  0  0  0  0  0  0  0  0  0  0  0
    7.7215   -1.7757    3.9549 H   0  0  0  0  0  0  0  0  0  0  0  0
    9.0360   -1.4615    2.0093 H   0  0  0  0  0  0  0  0  0  0  0  0
    9.4790   -2.8976    2.8960 H   0  0  0  0  0  0  0  0  0  0  0  0
   11.1770   -0.3932    3.3177 H   0  0  0  0  0  0  0  0  0  0  0  0
   11.3014   -1.2173    1.7743 H   0  0  0  0  0  0  0  0  0  0  0  0
   11.7480   -2.6102    4.4759 H   0  0  0  0  0  0  0  0  0  0  0  0
   13.0277   -1.8654    3.5330 H   0  0  0  0  0  0  0  0  0  0  0  0
   11.2677   -4.1913    2.5373 H   0  0  0  0  0  0  0  0  0  0  0  0
   12.8443   -4.3679    3.2931 H   0  0  0  0  0  0  0  0  0  0  0  0
   13.8952   -3.0277    1.4374 H   0  0  0  0  0  0  0  0  0  0  0  0
   12.3260   -2.8829    0.6483 H   0  0  0  0  0  0  0  0  0  0  0  0
   12.1801   -5.3895    0.4637 H   0  0  0  0  0  0  0  0  0  0  0  0
   13.7542   -5.5374    1.2400 H   0  0  0  0  0  0  0  0  0  0  0  0
   13.2380   -4.1123   -1.4566 H   0  0  0  0  0  0  0  0  0  0  0  0
   13.9824   -5.7145   -1.2533 H   0  0  0  0  0  0  0  0  0  0  0  0
   14.8260   -4.2602   -0.6733 H   0  0  0  0  0  0  0  0  0  0  0  0
    8.1201   -6.2322    9.1578 H   0  0  0  0  0  0  0  0  0  0  0  0
    8.5747   -6.9685   10.9154 H   0  0  0  0  0  0  0  0  0  0  0  0
   12.8639   -1.8156   11.9643 H   0  0  0  0  0  0  0  0  0  0  0  0
   12.4136   -1.0825   10.2040 H   0  0  0  0  0  0  0  0  0  0  0  0
   12.9128   -6.0000   17.4391 H   0  0  0  0  0  0  0  0  0  0  0  0
   10.2615   -7.4869   17.7620 H   0  0  0  0  0  0  0  0  0  0  0  0
   10.4417   -5.7314   17.8572 H   0  0  0  0  0  0  0  0  0  0  0  0
   12.0920   -5.9970   19.7460 H   0  0  0  0  0  0  0  0  0  0  0  0
   11.8531   -7.7442   19.7051 H   0  0  0  0  0  0  0  0  0  0  0  0
    9.4010   -7.4244   20.1849 H   0  0  0  0  0  0  0  0  0  0  0  0
    9.6441   -5.6800   20.2509 H   0  0  0  0  0  0  0  0  0  0  0  0
   11.2507   -5.9781   22.1755 H   0  0  0  0  0  0  0  0  0  0  0  0
   11.0012   -7.7218   22.1117 H   0  0  0  0  0  0  0  0  0  0  0  0
    8.5494   -7.3887   22.6090 H   0  0  0  0  0  0  0  0  0  0  0  0
    8.8000   -5.6453   22.6747 H   0  0  0  0  0  0  0  0  0  0  0  0
   10.4024   -5.9487   24.5981 H   0  0  0  0  0  0  0  0  0  0  0  0
   10.1514   -7.6910   24.5327 H   0  0  0  0  0  0  0  0  0  0  0  0
    7.9478   -5.6077   25.1436 H   0  0  0  0  0  0  0  0  0  0  0  0
    8.7377   -6.6650   26.3358 H   0  0  0  0  0  0  0  0  0  0  0  0
    7.6944   -7.3652   25.0771 H   0  0  0  0  0  0  0  0  0  0  0  0
   12.1351   -8.8465   16.6225 H   0  0  0  0  0  0  0  0  0  0  0  0
   13.1350   -8.3912   18.0015 H   0  0  0  0  0  0  0  0  0  0  0  0
   13.8878   -7.8656   15.0646 H   0  0  0  0  0  0  0  0  0  0  0  0
   14.4306   -9.2288   16.0260 H   0  0  0  0  0  0  0  0  0  0  0  0
   15.5465   -7.6442   17.6486 H   0  0  0  0  0  0  0  0  0  0  0  0
   15.0632   -6.2782   16.6413 H   0  0  0  0  0  0  0  0  0  0  0  0
   16.3604   -7.2370   14.7087 H   0  0  0  0  0  0  0  0  0  0  0  0
   16.8565   -8.5963   15.7147 H   0  0  0  0  0  0  0  0  0  0  0  0
   18.0116   -7.0031   17.2948 H   0  0  0  0  0  0  0  0  0  0  0  0
   17.5121   -5.6440   16.2900 H   0  0  0  0  0  0  0  0  0  0  0  0
   18.8189   -6.5953   14.3546 H   0  0  0  0  0  0  0  0  0  0  0  0
   19.3170   -7.9551   15.3580 H   0  0  0  0  0  0  0  0  0  0  0  0
   20.0141   -4.9937   15.9175 H   0  0  0  0  0  0  0  0  0  0  0  0
   21.1277   -6.2179   15.2653 H   0  0  0  0  0  0  0  0  0  0  0  0
   20.5174   -6.3647   16.9294 H   0  0  0  0  0  0  0  0  0  0  0  0
  1  2  1  0
  1 69  1  0
  1 70  1  0
  1 71  1  0
  2  3  1  0
  2 72  1  0
  2 73  1  0
  3  4  1  0
  3 74  1  0
  3 75  1  0
  4  5  1  0
  4 76  1  0
  4 77  1  0
  5  6  1  0
  5 78  1  0
  5 79  1  0
  6  7  1  0
  6 80  1  0
  6 81  1  0
  7  8  1  0
  7 82  1  0
  7 83  1  0
  8  9  1  0
  8 16  1  0
  8 84  1  6
  9 10  1  0
  9 85  1  0
  9 86  1  0
 10 11  1  0
 10 87  1  0
 10 88  1  0
 11 12  1  0
 11 89  1  0
 11 90  1  0
 12 13  1  0
 12 91  1  0
 12 92  1  0
 13 14  1  0
 13 93  1  0
 13 94  1  0
 14 15  1  0
 14 95  1  0
 14 96  1  0
 15 97  1  0
 15 98  1  0
 15 99  1  0
 16 17  1  0
 16 46  1  0
 17 18  2  0
 17 19  1  0
 19 20  1  0
 19 44  2  0
 20 21  1  0
 20 23  2  0
 21 22  3  0
 23 24  1  0
 23100  1  0
 24 25  1  0
 24 45  2  0
 25 26  2  0
 25 48  1  0
 26 27  1  0
 26101  1  0
 27 28  1  0
 27 30  2  0
 28 29  3  0
 30 31  1  0
 30 67  1  0
 31 32  1  0
 31 48  2  0
 32 33  2  0
 32 49  1  0
 33 34  1  0
 33 36  1  0
 34 35  3  0
 36 37  2  0
 36102  1  0
 37 38  1  0
 37 48  1  0
 38 39  2  0
 38 45  1  0
 39 40  1  0
 39103  1  0
 40 41  1  0
 40 43  2  0
 41 42  3  0
 43 44  1  0
 43 46  1  0
 44 45  1  0
 46 47  2  0
 49 50  2  0
 49 51  1  0
 51 52  1  0
 51 67  1  0
 52 53  1  0
 52 60  1  0
 52104  1  1
 53 54  1  0
 53105  1  0
 53106  1  0
 54 55  1  0
 54107  1  0
 54108  1  0
 55 56  1  0
 55109  1  0
 55110  1  0
 56 57  1  0
 56111  1  0
 56112  1  0
 57 58  1  0
 57113  1  0
 57114  1  0
 58 59  1  0
 58115  1  0
 58116  1  0
 59117  1  0
 59118  1  0
 59119  1  0
 60 61  1  0
 60120  1  0
 60121  1  0
 61 62  1  0
 61122  1  0
 61123  1  0
 62 63  1  0
 62124  1  0
 62125  1  0
 63 64  1  0
 63126  1  0
 63127  1  0
 64 65  1  0
 64128  1  0
 64129  1  0
 65 66  1  0
 65130  1  0
 65131  1  0
 66132  1  0
 66133  1  0
 66134  1  0
 67 68  2  0
M  END

