
     RDKit          3D

 36 37  0  0  0  0  0  0  0  0999 V2000
    2.9489    0.7800   -0.7057 C   0  0  0  0  0  0  0  0  0  0  0  0
    3.1979    0.0355    0.6079 C   0  0  0  0  0  0  0  0  0  0  0  0
    3.4802   -1.3978    0.4499 N   0  0  0  0  0  0  0  0  0  0  0  0
    2.3017   -2.2534    0.3055 C   0  0  0  0  0  0  0  0  0  0  0  0
    1.6335   -2.6864    1.6103 C   0  0  1  0  0  0  0  0  0  0  0  0
    0.7140   -1.7201    2.4126 C   0  0  0  0  0  0  0  0  0  0  0  0
   -0.2308   -2.9159    2.6927 C   0  0  0  0  0  0  0  0  0  0  0  0
    0.4313   -3.6622    1.5069 C   0  0  0  0  0  0  0  0  0  0  0  0
    4.7723   -1.7882    0.1975 C   0  0  0  0  0  0  0  0  0  0  0  0
    5.6415   -0.7919   -0.0377 N   0  0  0  0  0  0  0  0  0  0  0  0
    6.9255   -1.0550   -0.3129 C   0  0  0  0  0  0  0  0  0  0  0  0
    7.7306    0.0277   -0.5039 N   0  0  0  0  0  0  0  0  0  0  0  0
    9.1259   -0.0247   -0.8696 C   0  0  0  0  0  0  0  0  0  0  0  0
    7.4668   -2.2804   -0.4182 N   0  0  0  0  0  0  0  0  0  0  0  0
    6.6342   -3.2813   -0.1506 C   0  0  0  0  0  0  0  0  0  0  0  0
    5.2892   -3.1267    0.1797 C   0  0  0  0  0  0  0  0  0  0  0  0
    4.3908   -4.7386    0.7122 Br  0  0  0  0  0  0  0  0  0  0  0  0
    2.6957    1.8334   -0.5018 H   0  0  0  0  0  0  0  0  0  0  0  0
    2.1117    0.3424   -1.2735 H   0  0  0  0  0  0  0  0  0  0  0  0
    3.8481    0.7557   -1.3374 H   0  0  0  0  0  0  0  0  0  0  0  0
    2.3161    0.1198    1.2603 H   0  0  0  0  0  0  0  0  0  0  0  0
    4.0418    0.4956    1.1367 H   0  0  0  0  0  0  0  0  0  0  0  0
    2.5709   -3.1452   -0.2725 H   0  0  0  0  0  0  0  0  0  0  0  0
    1.5644   -1.7073   -0.3114 H   0  0  0  0  0  0  0  0  0  0  0  0
    2.4007   -3.1121    2.2756 H   0  0  0  0  0  0  0  0  0  0  0  0
    0.2324   -0.9792    1.7525 H   0  0  0  0  0  0  0  0  0  0  0  0
    1.1485   -1.1893    3.2741 H   0  0  0  0  0  0  0  0  0  0  0  0
   -1.3153   -2.7338    2.6429 H   0  0  0  0  0  0  0  0  0  0  0  0
   -0.0038   -3.3991    3.6560 H   0  0  0  0  0  0  0  0  0  0  0  0
   -0.1298   -3.5098    0.5690 H   0  0  0  0  0  0  0  0  0  0  0  0
    0.6384   -4.7381    1.6152 H   0  0  0  0  0  0  0  0  0  0  0  0
    7.2595    0.9219   -0.4490 H   0  0  0  0  0  0  0  0  0  0  0  0
    9.4644   -1.0649   -0.7882 H   0  0  0  0  0  0  0  0  0  0  0  0
    9.7370    0.6019   -0.1975 H   0  0  0  0  0  0  0  0  0  0  0  0
    9.2986    0.3154   -1.9075 H   0  0  0  0  0  0  0  0  0  0  0  0
    7.0531   -4.2935   -0.1836 H   0  0  0  0  0  0  0  0  0  0  0  0
  1  2  1  0
  1 18  1  0
  1 19  1  0
  1 20  1  0
  2  3  1  0
  2 21  1  0
  2 22  1  0
  3  4  1  0
  3  9  1  0
  4  5  1  0
  4 23  1  0
  4 24  1  0
  5  6  1  0
  5  8  1  0
  5 25  1  1
  6  7  1  0
  6 26  1  0
  6 27  1  0
  7  8  1  0
  7 28  1  0
  7 29  1  0
  8 30  1  0
  8 31  1  0
  9 10  2  0
  9 16  1  0
 10 11  1  0
 11 12  1  0
 11 14  2  0
 12 13  1  0
 12 32  1  0
 13 33  1  0
 13 34  1  0
 13 35  1  0
 14 15  1  0
 15 16  2  0
 15 36  1  0
 16 17  1  0
M  END

