
     RDKit          3D

 31 31  0  0  0  0  0  0  0  0999 V2000
    5.0991    2.8259    0.0709 C   0  0  0  0  0  0  0  0  0  0  0  0
    4.5355    1.4056    0.1193 C   0  0  0  0  0  0  0  0  0  0  0  0
    5.2285    0.4504   -0.8493 C   0  0  0  0  0  0  0  0  0  0  0  0
    4.6649   -0.9658   -0.8542 C   0  0  0  0  0  0  0  0  0  0  0  0
    3.6500   -1.2405   -0.2452 O   0  0  0  0  0  0  0  0  0  0  0  0
    5.4509   -2.0010   -1.6582 C   0  0  1  0  0  0  0  0  0  0  0  0
    6.4478   -2.7504   -0.7348 C   0  0  0  0  0  0  0  0  0  0  0  0
    5.7588   -3.7669    0.1833 C   0  0  0  0  0  0  0  0  0  0  0  0
    4.9275   -4.7678   -0.6290 C   0  0  0  0  0  0  0  0  0  0  0  0
    3.9057   -4.0499   -1.5220 C   0  0  0  0  0  0  0  0  0  0  0  0
    4.5468   -3.0017   -2.4491 C   0  0  2  0  0  0  0  0  0  0  0  0
    5.2478   -3.6667   -3.5481 N   0  0  0  0  0  0  0  0  0  0  0  0
    4.5781    3.4874    0.7810 H   0  0  0  0  0  0  0  0  0  0  0  0
    4.9928    3.2693   -0.9338 H   0  0  0  0  0  0  0  0  0  0  0  0
    6.1723    2.8458    0.3263 H   0  0  0  0  0  0  0  0  0  0  0  0
    3.4561    1.4135   -0.1031 H   0  0  0  0  0  0  0  0  0  0  0  0
    4.6175    0.9996    1.1418 H   0  0  0  0  0  0  0  0  0  0  0  0
    6.3153    0.3928   -0.6505 H   0  0  0  0  0  0  0  0  0  0  0  0
    5.1570    0.8253   -1.8894 H   0  0  0  0  0  0  0  0  0  0  0  0
    6.0470   -1.4406   -2.4001 H   0  0  0  0  0  0  0  0  0  0  0  0
    7.0398   -2.0281   -0.1470 H   0  0  0  0  0  0  0  0  0  0  0  0
    7.1734   -3.2776   -1.3804 H   0  0  0  0  0  0  0  0  0  0  0  0
    5.1005   -3.2382    0.8936 H   0  0  0  0  0  0  0  0  0  0  0  0
    6.5177   -4.2926    0.7871 H   0  0  0  0  0  0  0  0  0  0  0  0
    4.4052   -5.4666    0.0454 H   0  0  0  0  0  0  0  0  0  0  0  0
    5.6028   -5.3933   -1.2430 H   0  0  0  0  0  0  0  0  0  0  0  0
    3.1734   -3.5367   -0.8822 H   0  0  0  0  0  0  0  0  0  0  0  0
    3.3627   -4.7744   -2.1497 H   0  0  0  0  0  0  0  0  0  0  0  0
    3.7304   -2.4180   -2.9084 H   0  0  0  0  0  0  0  0  0  0  0  0
    6.0176   -4.2404   -3.2045 H   0  0  0  0  0  0  0  0  0  0  0  0
    5.6585   -2.9842   -4.1854 H   0  0  0  0  0  0  0  0  0  0  0  0
  1  2  1  0
  1 13  1  0
  1 14  1  0
  1 15  1  0
  2  3  1  0
  2 16  1  0
  2 17  1  0
  3  4  1  0
  3 18  1  0
  3 19  1  0
  4  5  2  0
  4  6  1  0
  6  7  1  0
  6 11  1  0
  6 20  1  6
  7  8  1  0
  7 21  1  0
  7 22  1  0
  8  9  1  0
  8 23  1  0
  8 24  1  0
  9 10  1  0
  9 25  1  0
  9 26  1  0
 10 11  1  0
 10 27  1  0
 10 28  1  0
 11 12  1  0
 11 29  1  6
 12 30  1  0
 12 31  1  0
M  END

