
     RDKit          3D

 23 24  0  0  0  0  0  0  0  0999 V2000
    1.2992    0.2519   -0.7042 C   0  0  0  0  0  0  0  0  0  0  0  0
    2.3038    0.0632    0.2710 O   0  0  0  0  0  0  0  0  0  0  0  0
    2.9185    1.0929    0.8551 C   0  0  0  0  0  0  0  0  0  0  0  0
    2.5800    2.4376    0.4997 C   0  0  0  0  0  0  0  0  0  0  0  0
    3.1992    3.5137    1.0816 C   0  0  0  0  0  0  0  0  0  0  0  0
    4.2057    3.3113    2.0583 C   0  0  0  0  0  0  0  0  0  0  0  0
    4.8113    4.3854    2.6212 N   0  0  0  0  0  0  0  0  0  0  0  0
    5.7446    4.1609    3.5195 C   0  0  0  0  0  0  0  0  0  0  0  0
    6.1133    2.8425    3.8898 C   0  0  0  0  0  0  0  0  0  0  0  0
    5.5362    1.7895    3.3564 N   0  0  0  0  0  0  0  0  0  0  0  0
    4.5563    1.9660    2.4216 C   0  0  0  0  0  0  0  0  0  0  0  0
    3.9091    0.8313    1.8282 C   0  0  0  0  0  0  0  0  0  0  0  0
    4.2466   -0.6068    2.2190 C   0  0  0  0  0  0  0  0  0  0  0  0
    3.6628   -1.5594    1.7669 O   0  0  0  0  0  0  0  0  0  0  0  0
    5.2362   -0.7642    3.0996 O   0  0  0  0  0  0  0  0  0  0  0  0
    0.9784   -0.7550   -1.0000 H   0  0  0  0  0  0  0  0  0  0  0  0
    1.6822    0.7818   -1.5937 H   0  0  0  0  0  0  0  0  0  0  0  0
    0.4304    0.7996   -0.2992 H   0  0  0  0  0  0  0  0  0  0  0  0
    1.8110    2.6118   -0.2516 H   0  0  0  0  0  0  0  0  0  0  0  0
    2.9419    4.5403    0.8142 H   0  0  0  0  0  0  0  0  0  0  0  0
    6.2388    5.0239    3.9800 H   0  0  0  0  0  0  0  0  0  0  0  0
    6.8970    2.6690    4.6360 H   0  0  0  0  0  0  0  0  0  0  0  0
    5.5767    0.1218    3.3927 H   0  0  0  0  0  0  0  0  0  0  0  0
  1  2  1  0
  1 16  1  0
  1 17  1  0
  1 18  1  0
  2  3  1  0
  3  4  2  0
  3 12  1  0
  4  5  1  0
  4 19  1  0
  5  6  2  0
  5 20  1  0
  6  7  1  0
  6 11  1  0
  7  8  2  0
  8  9  1  0
  8 21  1  0
  9 10  2  0
  9 22  1  0
 10 11  1  0
 11 12  2  0
 12 13  1  0
 13 14  2  0
 13 15  1  0
 15 23  1  0
M  END

