
     RDKit          3D

 47 47  0  0  0  0  0  0  0  0999 V2000
    0.8654   -7.6617   -0.7880 C   0  0  0  0  0  0  0  0  0  0  0  0
    2.2467   -7.3151   -1.0562 N   0  0  0  0  0  0  0  0  0  0  0  0
    2.7521   -6.2088   -0.2625 C   0  0  0  0  0  0  0  0  0  0  0  0
    4.2109   -5.8978   -0.5949 C   0  0  0  0  0  0  0  0  0  0  0  0
    4.7751   -4.7462    0.2407 C   0  0  0  0  0  0  0  0  0  0  0  0
    6.2029   -4.5191    0.0582 N   0  0  0  0  0  0  0  0  0  0  0  0
    6.5416   -4.0318   -1.2664 C   0  0  0  0  0  0  0  0  0  0  0  0
    6.7784   -3.6847    1.1193 C   0  0  0  0  0  0  0  0  0  0  0  0
    8.2964   -3.8053    1.2209 C   0  0  0  0  0  0  0  0  0  0  0  0
    9.1303   -2.7649    0.9727 C   0  0  0  0  0  0  0  0  0  0  0  0
    8.6688   -1.3739    0.5869 C   0  0  0  0  0  0  0  0  0  0  0  0
   10.6502   -2.8388    1.0697 C   0  0  0  0  0  0  0  0  0  0  0  0
   11.2202   -2.7554    2.5033 C   0  0  0  0  0  0  0  0  0  0  0  0
   10.6335   -3.7495    3.5099 C   0  0  0  0  0  0  0  0  0  0  0  0
   10.7747   -5.2374    3.1590 C   0  0  0  0  0  0  0  0  0  0  0  0
   10.0909   -5.7269    1.8653 C   0  0  0  0  0  0  0  0  0  0  0  0
    8.6562   -5.2349    1.6274 C   0  0  0  0  0  0  0  0  0  0  0  0
    0.5418   -8.4720   -1.4604 H   0  0  0  0  0  0  0  0  0  0  0  0
    0.1448   -6.8187   -0.8983 H   0  0  0  0  0  0  0  0  0  0  0  0
    0.7648   -8.0355    0.2457 H   0  0  0  0  0  0  0  0  0  0  0  0
    2.3681   -7.1095   -2.0475 H   0  0  0  0  0  0  0  0  0  0  0  0
    2.6707   -6.4901    0.8044 H   0  0  0  0  0  0  0  0  0  0  0  0
    2.1395   -5.2813   -0.3733 H   0  0  0  0  0  0  0  0  0  0  0  0
    4.2832   -5.6601   -1.6713 H   0  0  0  0  0  0  0  0  0  0  0  0
    4.8219   -6.8004   -0.4308 H   0  0  0  0  0  0  0  0  0  0  0  0
    4.6117   -4.9815    1.3061 H   0  0  0  0  0  0  0  0  0  0  0  0
    4.1850   -3.8187    0.0377 H   0  0  0  0  0  0  0  0  0  0  0  0
    6.2515   -4.7587   -2.0393 H   0  0  0  0  0  0  0  0  0  0  0  0
    7.6286   -3.8831   -1.3428 H   0  0  0  0  0  0  0  0  0  0  0  0
    6.0481   -3.0608   -1.5101 H   0  0  0  0  0  0  0  0  0  0  0  0
    6.3484   -4.0410    2.0715 H   0  0  0  0  0  0  0  0  0  0  0  0
    6.4532   -2.6307    1.0157 H   0  0  0  0  0  0  0  0  0  0  0  0
    7.5833   -1.2247    0.5964 H   0  0  0  0  0  0  0  0  0  0  0  0
    9.0329   -1.1175   -0.4244 H   0  0  0  0  0  0  0  0  0  0  0  0
    9.1134   -0.6263    1.2679 H   0  0  0  0  0  0  0  0  0  0  0  0
   11.0734   -1.9991    0.4942 H   0  0  0  0  0  0  0  0  0  0  0  0
   11.0291   -3.7403    0.5744 H   0  0  0  0  0  0  0  0  0  0  0  0
   11.0612   -1.7341    2.8933 H   0  0  0  0  0  0  0  0  0  0  0  0
   12.3160   -2.8887    2.4460 H   0  0  0  0  0  0  0  0  0  0  0  0
    9.5672   -3.5146    3.6673 H   0  0  0  0  0  0  0  0  0  0  0  0
   11.1203   -3.5791    4.4864 H   0  0  0  0  0  0  0  0  0  0  0  0
   10.3581   -5.8143    4.0043 H   0  0  0  0  0  0  0  0  0  0  0  0
   11.8461   -5.5066    3.1171 H   0  0  0  0  0  0  0  0  0  0  0  0
   10.0390   -6.8282    1.9225 H   0  0  0  0  0  0  0  0  0  0  0  0
   10.7186   -5.5287    0.9851 H   0  0  0  0  0  0  0  0  0  0  0  0
    8.0722   -5.4520    2.5443 H   0  0  0  0  0  0  0  0  0  0  0  0
    8.1869   -5.8820    0.8665 H   0  0  0  0  0  0  0  0  0  0  0  0
  1  2  1  0
  1 18  1  0
  1 19  1  0
  1 20  1  0
  2  3  1  0
  2 21  1  0
  3  4  1  0
  3 22  1  0
  3 23  1  0
  4  5  1  0
  4 24  1  0
  4 25  1  0
  5  6  1  0
  5 26  1  0
  5 27  1  0
  6  7  1  0
  6  8  1  0
  7 28  1  0
  7 29  1  0
  7 30  1  0
  8  9  1  0
  8 31  1  0
  8 32  1  0
  9 10  2  0
  9 17  1  0
 10 11  1  0
 10 12  1  0
 11 33  1  0
 11 34  1  0
 11 35  1  0
 12 13  1  0
 12 36  1  0
 12 37  1  0
 13 14  1  0
 13 38  1  0
 13 39  1  0
 14 15  1  0
 14 40  1  0
 14 41  1  0
 15 16  1  0
 15 42  1  0
 15 43  1  0
 16 17  1  0
 16 44  1  0
 16 45  1  0
 17 46  1  0
 17 47  1  0
M  END

