
     RDKit          3D

 34 36  0  0  0  0  0  0  0  0999 V2000
    3.5503   -0.2084    0.8174 O   0  0  0  0  0  0  0  0  0  0  0  0
    2.8156    0.4889    0.1465 C   0  0  0  0  0  0  0  0  0  0  0  0
    1.4504    0.8732    0.6570 C   0  0  0  0  0  0  0  0  0  0  0  0
    0.4347    1.3795   -0.1701 C   0  0  0  0  0  0  0  0  0  0  0  0
   -0.8240    1.6688    0.3645 C   0  0  0  0  0  0  0  0  0  0  0  0
   -1.0820    1.4653    1.7214 C   0  0  0  0  0  0  0  0  0  0  0  0
   -0.0665    0.9554    2.5408 C   0  0  0  0  0  0  0  0  0  0  0  0
   -0.3866    0.6944    4.2402 Cl  0  0  0  0  0  0  0  0  0  0  0  0
    1.1886    0.6519    2.0202 C   0  0  0  0  0  0  0  0  0  0  0  0
    3.2652    1.0135   -1.1939 C   0  0  0  0  0  0  0  0  0  0  0  0
    3.2365    2.3869   -1.4643 C   0  0  0  0  0  0  0  0  0  0  0  0
    3.7647    2.9215   -2.6427 C   0  0  0  0  0  0  0  0  0  0  0  0
    4.3130    2.0434   -3.5765 C   0  0  0  0  0  0  0  0  0  0  0  0
    5.0280    2.7300   -5.2051 Br  0  0  0  0  0  0  0  0  0  0  0  0
    4.3457    0.6637   -3.3557 C   0  0  0  0  0  0  0  0  0  0  0  0
    3.8299    0.1423   -2.1586 C   0  0  0  0  0  0  0  0  0  0  0  0
    3.8010   -1.1784   -1.8813 O   0  0  0  0  0  0  0  0  0  0  0  0
    4.4817   -2.1022   -2.6997 C   0  0  1  0  0  0  0  0  0  0  0  0
    4.4062   -3.5459   -2.1759 C   0  0  0  0  0  0  0  0  0  0  0  0
    4.1637   -3.9935   -3.5616 N   0  0  0  0  0  0  0  0  0  0  0  0
    3.7704   -2.6341   -3.9711 C   0  0  0  0  0  0  0  0  0  0  0  0
    0.6209    1.5329   -1.2340 H   0  0  0  0  0  0  0  0  0  0  0  0
   -1.6158    2.0557   -0.2814 H   0  0  0  0  0  0  0  0  0  0  0  0
   -2.0598    1.6935    2.1491 H   0  0  0  0  0  0  0  0  0  0  0  0
    1.9779    0.2396    2.6497 H   0  0  0  0  0  0  0  0  0  0  0  0
    2.8099    3.0645   -0.7207 H   0  0  0  0  0  0  0  0  0  0  0  0
    3.7494    3.9958   -2.8276 H   0  0  0  0  0  0  0  0  0  0  0  0
    4.7612    0.0068   -4.1177 H   0  0  0  0  0  0  0  0  0  0  0  0
    5.5129   -1.7622   -2.8895 H   0  0  0  0  0  0  0  0  0  0  0  0
    3.5472   -3.6477   -1.4861 H   0  0  0  0  0  0  0  0  0  0  0  0
    5.3057   -3.9622   -1.6930 H   0  0  0  0  0  0  0  0  0  0  0  0
    3.4636   -4.7226   -3.6847 H   0  0  0  0  0  0  0  0  0  0  0  0
    2.6852   -2.4181   -3.9189 H   0  0  0  0  0  0  0  0  0  0  0  0
    4.1516   -2.3116   -4.9559 H   0  0  0  0  0  0  0  0  0  0  0  0
  1  2  2  0
  2  3  1  0
  2 10  1  0
  3  4  2  0
  3  9  1  0
  4  5  1  0
  4 22  1  0
  5  6  2  0
  5 23  1  0
  6  7  1  0
  6 24  1  0
  7  8  1  0
  7  9  2  0
  9 25  1  0
 10 11  2  0
 10 16  1  0
 11 12  1  0
 11 26  1  0
 12 13  2  0
 12 27  1  0
 13 14  1  0
 13 15  1  0
 15 16  2  0
 15 28  1  0
 16 17  1  0
 17 18  1  0
 18 19  1  0
 18 21  1  0
 18 29  1  6
 19 20  1  0
 19 30  1  0
 19 31  1  0
 20 21  1  0
 20 32  1  0
 21 33  1  0
 21 34  1  0
M  END

