
     RDKit          3D

 25 25  0  0  0  0  0  0  0  0999 V2000
    0.9585   -0.0507   -0.0656 C   0  0  0  0  0  0  0  0  0  0  0  0
    2.4981    0.0052   -0.0769 C   0  0  1  0  0  0  0  0  0  0  0  0
    3.0518   -1.4097   -0.3629 C   0  0  0  0  0  0  0  0  0  0  0  0
    2.9584    0.8844   -1.2698 C   0  0  0  0  0  0  0  0  0  0  0  0
    2.2756    1.1203   -2.2288 O   0  0  0  0  0  0  0  0  0  0  0  0
    4.2325    1.3272   -1.2106 O   0  0  0  0  0  0  0  0  0  0  0  0
    3.0200    0.5933    1.2433 C   0  0  0  0  0  0  0  0  0  0  0  0
    2.7587    1.9378    1.5608 C   0  0  0  0  0  0  0  0  0  0  0  0
    3.1884    2.5004    2.7638 C   0  0  0  0  0  0  0  0  0  0  0  0
    3.8927    1.7386    3.7049 C   0  0  0  0  0  0  0  0  0  0  0  0
    4.3392    2.2111    4.8903 O   0  0  0  0  0  0  0  0  0  0  0  0
    4.1538    0.3964    3.3867 C   0  0  0  0  0  0  0  0  0  0  0  0
    4.8289   -0.3524    4.2670 F   0  0  0  0  0  0  0  0  0  0  0  0
    3.7324   -0.1663    2.1880 C   0  0  0  0  0  0  0  0  0  0  0  0
    0.5837   -0.4224   -1.0294 H   0  0  0  0  0  0  0  0  0  0  0  0
    0.5204    0.9443    0.0989 H   0  0  0  0  0  0  0  0  0  0  0  0
    0.6120   -0.7171    0.7389 H   0  0  0  0  0  0  0  0  0  0  0  0
    2.6896   -1.7578   -1.3414 H   0  0  0  0  0  0  0  0  0  0  0  0
    2.7059   -2.1270    0.3968 H   0  0  0  0  0  0  0  0  0  0  0  0
    4.1522   -1.4306   -0.3829 H   0  0  0  0  0  0  0  0  0  0  0  0
    4.6048    1.1356   -0.3350 H   0  0  0  0  0  0  0  0  0  0  0  0
    2.2123    2.5687    0.8551 H   0  0  0  0  0  0  0  0  0  0  0  0
    2.9747    3.5513    2.9823 H   0  0  0  0  0  0  0  0  0  0  0  0
    4.0924    3.1408    4.9816 H   0  0  0  0  0  0  0  0  0  0  0  0
    3.9751   -1.2163    2.0239 H   0  0  0  0  0  0  0  0  0  0  0  0
  1  2  1  0
  1 15  1  0
  1 16  1  0
  1 17  1  0
  2  3  1  0
  2  4  1  6
  2  7  1  0
  3 18  1  0
  3 19  1  0
  3 20  1  0
  4  5  2  0
  4  6  1  0
  6 21  1  0
  7  8  2  0
  7 14  1  0
  8  9  1  0
  8 22  1  0
  9 10  2  0
  9 23  1  0
 10 11  1  0
 10 12  1  0
 11 24  1  0
 12 13  1  0
 12 14  2  0
 14 25  1  0
M  END

