
     RDKit          3D

 56 59  0  0  0  0  0  0  0  0999 V2000
    3.4114   -7.1501   -3.9319 C   0  0  0  0  0  0  0  0  0  0  0  0
    4.5361   -6.4697   -3.1886 C   0  0  0  0  0  0  0  0  0  0  0  0
    5.8060   -6.3311   -3.7754 C   0  0  0  0  0  0  0  0  0  0  0  0
    6.8551   -5.7375   -3.0726 C   0  0  0  0  0  0  0  0  0  0  0  0
    6.6518   -5.2655   -1.7718 C   0  0  0  0  0  0  0  0  0  0  0  0
    5.3945   -5.3852   -1.1653 C   0  0  0  0  0  0  0  0  0  0  0  0
    5.1509   -4.8584    0.2388 C   0  0  0  0  0  0  0  0  0  0  0  0
    4.3802   -3.6062    0.2838 N   0  0  0  0  0  0  0  0  0  0  0  0
    2.9965   -3.7297    0.4148 C   0  0  0  0  0  0  0  0  0  0  0  0
    2.4643   -4.7994    0.6763 O   0  0  0  0  0  0  0  0  0  0  0  0
    2.2895   -2.5543    0.2320 N   0  0  0  0  0  0  0  0  0  0  0  0
    0.9042   -2.3449    0.3429 C   0  0  0  0  0  0  0  0  0  0  0  0
   -0.0165   -3.3427    0.7127 C   0  0  0  0  0  0  0  0  0  0  0  0
   -1.3713   -3.0195    0.8249 C   0  0  0  0  0  0  0  0  0  0  0  0
   -1.8370   -1.7281    0.5786 C   0  0  0  0  0  0  0  0  0  0  0  0
   -0.9311   -0.7360    0.1766 C   0  0  0  0  0  0  0  0  0  0  0  0
   -1.4408    0.6731    0.0010 C   0  0  0  0  0  0  0  0  0  0  0  0
   -2.1795    1.1624    0.8433 O   0  0  0  0  0  0  0  0  0  0  0  0
   -1.0201    1.3859   -1.1046 N   0  0  0  0  0  0  0  0  0  0  0  0
   -0.4827    0.8241   -2.3406 C   0  0  0  0  0  0  0  0  0  0  0  0
   -1.4137    1.1475   -3.5143 C   0  0  0  0  0  0  0  0  0  0  0  0
   -1.6753    2.5301   -3.6098 O   0  0  0  0  0  0  0  0  0  0  0  0
   -2.2764    3.0310   -2.4294 C   0  0  0  0  0  0  0  0  0  0  0  0
   -1.3830    2.7983   -1.2132 C   0  0  0  0  0  0  0  0  0  0  0  0
    0.4287   -1.0485    0.0684 C   0  0  0  0  0  0  0  0  0  0  0  0
    5.0144   -2.4169   -0.2143 C   0  0  1  0  0  0  0  0  0  0  0  0
    5.0398   -1.1544    0.6314 C   0  0  0  0  0  0  0  0  0  0  0  0
    6.2946   -1.9540    0.4307 C   0  0  0  0  0  0  0  0  0  0  0  0
    4.3496   -5.9900   -1.8848 C   0  0  0  0  0  0  0  0  0  0  0  0
    3.4410   -6.9215   -5.0088 H   0  0  0  0  0  0  0  0  0  0  0  0
    2.4278   -6.8470   -3.5430 H   0  0  0  0  0  0  0  0  0  0  0  0
    3.4782   -8.2479   -3.8326 H   0  0  0  0  0  0  0  0  0  0  0  0
    5.9727   -6.6963   -4.7933 H   0  0  0  0  0  0  0  0  0  0  0  0
    7.8382   -5.6398   -3.5410 H   0  0  0  0  0  0  0  0  0  0  0  0
    7.4777   -4.8027   -1.2236 H   0  0  0  0  0  0  0  0  0  0  0  0
    6.1142   -4.6859    0.7406 H   0  0  0  0  0  0  0  0  0  0  0  0
    4.5857   -5.5921    0.8261 H   0  0  0  0  0  0  0  0  0  0  0  0
    2.8337   -1.7300    0.0133 H   0  0  0  0  0  0  0  0  0  0  0  0
    0.3439   -4.3479    0.9156 H   0  0  0  0  0  0  0  0  0  0  0  0
   -2.0751   -3.8006    1.1241 H   0  0  0  0  0  0  0  0  0  0  0  0
   -2.8910   -1.4730    0.7010 H   0  0  0  0  0  0  0  0  0  0  0  0
   -0.3706   -0.2627   -2.2467 H   0  0  0  0  0  0  0  0  0  0  0  0
    0.5153    1.2574   -2.5431 H   0  0  0  0  0  0  0  0  0  0  0  0
   -2.3614    0.5820   -3.3913 H   0  0  0  0  0  0  0  0  0  0  0  0
   -0.9489    0.8384   -4.4635 H   0  0  0  0  0  0  0  0  0  0  0  0
   -3.2605    2.5462   -2.2641 H   0  0  0  0  0  0  0  0  0  0  0  0
   -2.4438    4.1075   -2.5863 H   0  0  0  0  0  0  0  0  0  0  0  0
   -1.8930    3.0895   -0.2864 H   0  0  0  0  0  0  0  0  0  0  0  0
   -0.4594    3.3966   -1.3233 H   0  0  0  0  0  0  0  0  0  0  0  0
    1.1403   -0.2658   -0.2115 H   0  0  0  0  0  0  0  0  0  0  0  0
    4.9557   -2.2694   -1.3027 H   0  0  0  0  0  0  0  0  0  0  0  0
    4.5712   -1.2029    1.6179 H   0  0  0  0  0  0  0  0  0  0  0  0
    4.9403   -0.1909    0.1223 H   0  0  0  0  0  0  0  0  0  0  0  0
    6.6628   -2.5228    1.2881 H   0  0  0  0  0  0  0  0  0  0  0  0
    7.0763   -1.5580   -0.2226 H   0  0  0  0  0  0  0  0  0  0  0  0
    3.3712   -6.0876   -1.4060 H   0  0  0  0  0  0  0  0  0  0  0  0
  1  2  1  0
  1 30  1  0
  1 31  1  0
  1 32  1  0
  2  3  2  0
  2 29  1  0
  3  4  1  0
  3 33  1  0
  4  5  2  0
  4 34  1  0
  5  6  1  0
  5 35  1  0
  6  7  1  0
  6 29  2  0
  7  8  1  0
  7 36  1  0
  7 37  1  0
  8  9  1  0
  8 26  1  0
  9 10  2  0
  9 11  1  0
 11 12  1  0
 11 38  1  0
 12 13  2  0
 12 25  1  0
 13 14  1  0
 13 39  1  0
 14 15  2  0
 14 40  1  0
 15 16  1  0
 15 41  1  0
 16 17  1  0
 16 25  2  0
 17 18  2  0
 17 19  1  0
 19 20  1  0
 19 24  1  0
 20 21  1  0
 20 42  1  0
 20 43  1  0
 21 22  1  0
 21 44  1  0
 21 45  1  0
 22 23  1  0
 23 24  1  0
 23 46  1  0
 23 47  1  0
 24 48  1  0
 24 49  1  0
 25 50  1  0
 26 27  1  0
 26 28  1  0
 26 51  1  6
 27 28  1  0
 27 52  1  0
 27 53  1  0
 28 54  1  0
 28 55  1  0
 29 56  1  0
M  END

