
     RDKit          3D

 47 49  0  0  0  0  0  0  0  0999 V2000
    5.8559   -1.6059   -7.6083 O   0  0  0  0  0  0  0  0  0  0  0  0
    4.8858   -1.8000   -6.9235 C   0  0  0  0  0  0  0  0  0  0  0  0
    3.6820   -1.3029   -7.2936 O   0  0  0  0  0  0  0  0  0  0  0  0
    4.9209   -2.5933   -5.6474 C   0  0  0  0  0  0  0  0  0  0  0  0
    3.9070   -2.5420   -4.6755 C   0  0  0  0  0  0  0  0  0  0  0  0
    4.0022   -3.2952   -3.5046 C   0  0  0  0  0  0  0  0  0  0  0  0
    5.1216   -4.1101   -3.2710 C   0  0  0  0  0  0  0  0  0  0  0  0
    5.2171   -4.9385   -2.0101 C   0  0  0  0  0  0  0  0  0  0  0  0
    4.6300   -6.2652   -2.1769 N   0  0  0  0  0  0  0  0  0  0  0  0
    4.7093   -7.0627   -0.9576 C   0  0  0  0  0  0  0  0  0  0  0  0
    4.1139   -8.4453   -1.1211 C   0  0  0  0  0  0  0  0  0  0  0  0
    4.9764   -9.5181   -1.3957 C   0  0  0  0  0  0  0  0  0  0  0  0
    4.5025  -10.8225   -1.5548 C   0  0  0  0  0  0  0  0  0  0  0  0
    3.1370  -11.0761   -1.4232 C   0  0  0  0  0  0  0  0  0  0  0  0
    2.2670  -10.0193   -1.1437 C   0  0  0  0  0  0  0  0  0  0  0  0
    2.7267   -8.7005   -1.0023 C   0  0  0  0  0  0  0  0  0  0  0  0
    1.7103   -7.6027   -0.7285 C   0  0  0  0  0  0  0  0  0  0  0  0
    1.2588   -6.9081   -1.9213 N   0  0  0  0  0  0  0  0  0  0  0  0
    0.5237   -7.5695   -2.9890 C   0  0  0  0  0  0  0  0  0  0  0  0
    0.5375   -6.5299   -4.1254 C   0  0  0  0  0  0  0  0  0  0  0  0
    0.6709   -5.1905   -3.3916 C   0  0  0  0  0  0  0  0  0  0  0  0
    1.3561   -5.5502   -2.0730 C   0  0  0  0  0  0  0  0  0  0  0  0
    1.8604   -4.7751   -1.2772 O   0  0  0  0  0  0  0  0  0  0  0  0
    6.1412   -4.1438   -4.2356 C   0  0  0  0  0  0  0  0  0  0  0  0
    6.0474   -3.3939   -5.4070 C   0  0  0  0  0  0  0  0  0  0  0  0
    2.9857   -1.6415   -6.7143 H   0  0  0  0  0  0  0  0  0  0  0  0
    3.0399   -1.8853   -4.8019 H   0  0  0  0  0  0  0  0  0  0  0  0
    3.2109   -3.2560   -2.7512 H   0  0  0  0  0  0  0  0  0  0  0  0
    4.6597   -4.4358   -1.2041 H   0  0  0  0  0  0  0  0  0  0  0  0
    6.2821   -4.9831   -1.6864 H   0  0  0  0  0  0  0  0  0  0  0  0
    5.0837   -6.7588   -2.9462 H   0  0  0  0  0  0  0  0  0  0  0  0
    4.1762   -6.5071   -0.1694 H   0  0  0  0  0  0  0  0  0  0  0  0
    5.7556   -7.1750   -0.5937 H   0  0  0  0  0  0  0  0  0  0  0  0
    6.0505   -9.3237   -1.4718 H   0  0  0  0  0  0  0  0  0  0  0  0
    5.1998  -11.6370   -1.7668 H   0  0  0  0  0  0  0  0  0  0  0  0
    2.7487  -12.0923   -1.5286 H   0  0  0  0  0  0  0  0  0  0  0  0
    1.1984  -10.2223   -1.0233 H   0  0  0  0  0  0  0  0  0  0  0  0
    2.1147   -6.8255   -0.0662 H   0  0  0  0  0  0  0  0  0  0  0  0
    0.8374   -8.0505   -0.2185 H   0  0  0  0  0  0  0  0  0  0  0  0
   -0.5077   -7.8143   -2.6623 H   0  0  0  0  0  0  0  0  0  0  0  0
    1.0090   -8.5153   -3.2764 H   0  0  0  0  0  0  0  0  0  0  0  0
   -0.3528   -6.6003   -4.7665 H   0  0  0  0  0  0  0  0  0  0  0  0
    1.4224   -6.6960   -4.7593 H   0  0  0  0  0  0  0  0  0  0  0  0
   -0.3081   -4.7416   -3.1475 H   0  0  0  0  0  0  0  0  0  0  0  0
    1.2532   -4.4331   -3.9334 H   0  0  0  0  0  0  0  0  0  0  0  0
    7.0300   -4.7572   -4.0591 H   0  0  0  0  0  0  0  0  0  0  0  0
    6.8430   -3.4068   -6.1544 H   0  0  0  0  0  0  0  0  0  0  0  0
  1  2  2  0
  2  3  1  0
  2  4  1  0
  3 26  1  0
  4  5  2  0
  4 25  1  0
  5  6  1  0
  5 27  1  0
  6  7  2  0
  6 28  1  0
  7  8  1  0
  7 24  1  0
  8  9  1  0
  8 29  1  0
  8 30  1  0
  9 10  1  0
  9 31  1  0
 10 11  1  0
 10 32  1  0
 10 33  1  0
 11 12  2  0
 11 16  1  0
 12 13  1  0
 12 34  1  0
 13 14  2  0
 13 35  1  0
 14 15  1  0
 14 36  1  0
 15 16  2  0
 15 37  1  0
 16 17  1  0
 17 18  1  0
 17 38  1  0
 17 39  1  0
 18 19  1  0
 18 22  1  0
 19 20  1  0
 19 40  1  0
 19 41  1  0
 20 21  1  0
 20 42  1  0
 20 43  1  0
 21 22  1  0
 21 44  1  0
 21 45  1  0
 22 23  2  0
 24 25  2  0
 24 46  1  0
 25 47  1  0
M  END

