
     RDKit          3D

 34 36  0  0  0  0  0  0  0  0999 V2000
    1.0741   -0.3667   -0.1138 C   0  0  0  0  0  0  0  0  0  0  0  0
    2.5092   -0.2868    0.0251 N   0  0  0  0  0  0  0  0  0  0  0  0
    3.1836    0.9228    0.2626 C   0  0  0  0  0  0  0  0  0  0  0  0
    2.6893    2.0223    0.3822 O   0  0  0  0  0  0  0  0  0  0  0  0
    4.5300    0.5756    0.3292 N   0  0  0  0  0  0  0  0  0  0  0  0
    5.2510    1.2662    0.4908 H   0  0  0  0  0  0  0  0  0  0  0  0
    4.7073   -0.7875    0.1422 C   0  0  0  0  0  0  0  0  0  0  0  0
    5.8363   -1.5891    0.1178 C   0  0  0  0  0  0  0  0  0  0  0  0
    5.6700   -2.9741   -0.0897 C   0  0  0  0  0  0  0  0  0  0  0  0
    6.9319   -3.7950   -0.1157 C   0  0  0  0  0  0  0  0  0  0  0  0
    8.0266   -3.2705   -0.2626 O   0  0  0  0  0  0  0  0  0  0  0  0
    6.7540   -5.1480    0.0514 N   0  0  0  0  0  0  0  0  0  0  0  0
    7.7154   -6.1694    0.0264 C   0  0  0  0  0  0  0  0  0  0  0  0
    9.0878   -5.9830   -0.1947 C   0  0  0  0  0  0  0  0  0  0  0  0
    9.9538   -7.0824   -0.2044 C   0  0  0  0  0  0  0  0  0  0  0  0
    9.4689   -8.3732    0.0064 C   0  0  0  0  0  0  0  0  0  0  0  0
    8.1010   -8.5707    0.2289 C   0  0  0  0  0  0  0  0  0  0  0  0
    7.2306   -7.4828    0.2379 C   0  0  0  0  0  0  0  0  0  0  0  0
    5.8823   -7.6003    0.4472 O   0  0  0  0  0  0  0  0  0  0  0  0
    4.3840   -3.5068   -0.2934 C   0  0  0  0  0  0  0  0  0  0  0  0
    3.2408   -2.6958   -0.2766 C   0  0  0  0  0  0  0  0  0  0  0  0
    3.4131   -1.3323   -0.0510 C   0  0  0  0  0  0  0  0  0  0  0  0
    0.6744    0.6496    0.0022 H   0  0  0  0  0  0  0  0  0  0  0  0
    0.6346   -1.0177    0.6601 H   0  0  0  0  0  0  0  0  0  0  0  0
    0.7909   -0.7544   -1.1065 H   0  0  0  0  0  0  0  0  0  0  0  0
    6.8447   -1.1942    0.2481 H   0  0  0  0  0  0  0  0  0  0  0  0
    5.8209   -5.4727    0.2747 H   0  0  0  0  0  0  0  0  0  0  0  0
    9.4540   -4.9712   -0.3521 H   0  0  0  0  0  0  0  0  0  0  0  0
   11.0199   -6.9185   -0.3780 H   0  0  0  0  0  0  0  0  0  0  0  0
   10.1456   -9.2307    0.0002 H   0  0  0  0  0  0  0  0  0  0  0  0
    7.7031   -9.5770    0.3955 H   0  0  0  0  0  0  0  0  0  0  0  0
    5.6515   -8.5267    0.5905 H   0  0  0  0  0  0  0  0  0  0  0  0
    4.2537   -4.5700   -0.5076 H   0  0  0  0  0  0  0  0  0  0  0  0
    2.2509   -3.1226   -0.4463 H   0  0  0  0  0  0  0  0  0  0  0  0
  1  2  1  0
  1 23  1  0
  1 24  1  0
  1 25  1  0
  2  3  1  0
  2 22  1  0
  3  4  2  0
  3  5  1  0
  5  6  1  0
  5  7  1  0
  7  8  1  0
  7 22  2  0
  8  9  2  0
  8 26  1  0
  9 10  1  0
  9 20  1  0
 10 11  2  0
 10 12  1  0
 12 13  1  0
 12 27  1  0
 13 14  2  0
 13 18  1  0
 14 15  1  0
 14 28  1  0
 15 16  2  0
 15 29  1  0
 16 17  1  0
 16 30  1  0
 17 18  2  0
 17 31  1  0
 18 19  1  0
 19 32  1  0
 20 21  2  0
 20 33  1  0
 21 22  1  0
 21 34  1  0
M  END

