
     RDKit          3D

 33 33  0  0  0  0  0  0  0  0999 V2000
    0.7684   -0.0701   -0.4152 C   0  0  0  0  0  0  0  0  0  0  0  0
    2.2126    0.0900    0.0657 C   0  0  0  0  0  0  0  0  0  0  0  0
    2.6507   -0.7981    1.2605 C   0  0  1  0  0  0  0  0  0  0  0  0
    1.8514   -0.4295    2.5316 C   0  0  0  0  0  0  0  0  0  0  0  0
    2.4526   -2.3006    0.9587 C   0  0  0  0  0  0  0  0  0  0  0  0
    3.3158   -2.7573   -0.1258 N   0  0  0  0  0  0  0  0  0  0  0  0
    4.1424   -0.4874    1.5562 C   0  0  0  0  0  0  0  0  0  0  0  0
    4.6645    0.5206    1.1402 O   0  0  0  0  0  0  0  0  0  0  0  0
    4.9345   -1.5039    2.3920 C   0  0  0  0  0  0  0  0  0  0  0  0
    6.1932   -0.9667    3.0206 C   0  0  0  0  0  0  0  0  0  0  0  0
    6.3324   -0.8797    4.4119 C   0  0  0  0  0  0  0  0  0  0  0  0
    7.5201   -0.3786    4.9544 C   0  0  0  0  0  0  0  0  0  0  0  0
    8.5512    0.0347    4.2157 N   0  0  0  0  0  0  0  0  0  0  0  0
    8.4197   -0.0431    2.8878 C   0  0  0  0  0  0  0  0  0  0  0  0
    7.2783   -0.5296    2.2467 C   0  0  0  0  0  0  0  0  0  0  0  0
    0.5644    0.6360   -1.2356 H   0  0  0  0  0  0  0  0  0  0  0  0
    0.0344    0.1391    0.3792 H   0  0  0  0  0  0  0  0  0  0  0  0
    0.5573   -1.0808   -0.8019 H   0  0  0  0  0  0  0  0  0  0  0  0
    2.3962    1.1377    0.3466 H   0  0  0  0  0  0  0  0  0  0  0  0
    2.9038   -0.0926   -0.7743 H   0  0  0  0  0  0  0  0  0  0  0  0
    0.7826   -0.6597    2.4017 H   0  0  0  0  0  0  0  0  0  0  0  0
    1.9426    0.6445    2.7555 H   0  0  0  0  0  0  0  0  0  0  0  0
    2.1996   -0.9911    3.4128 H   0  0  0  0  0  0  0  0  0  0  0  0
    1.3700   -2.4723    0.7845 H   0  0  0  0  0  0  0  0  0  0  0  0
    2.6985   -2.8886    1.8572 H   0  0  0  0  0  0  0  0  0  0  0  0
    3.0365   -2.3429   -1.0149 H   0  0  0  0  0  0  0  0  0  0  0  0
    3.2426   -3.7673   -0.2444 H   0  0  0  0  0  0  0  0  0  0  0  0
    5.1662   -2.3103    1.6730 H   0  0  0  0  0  0  0  0  0  0  0  0
    4.2860   -1.9546    3.1577 H   0  0  0  0  0  0  0  0  0  0  0  0
    5.5245   -1.2025    5.0749 H   0  0  0  0  0  0  0  0  0  0  0  0
    7.6378   -0.3118    6.0431 H   0  0  0  0  0  0  0  0  0  0  0  0
    9.2734    0.3022    2.2919 H   0  0  0  0  0  0  0  0  0  0  0  0
    7.2336   -0.5603    1.1566 H   0  0  0  0  0  0  0  0  0  0  0  0
  1  2  1  0
  1 16  1  0
  1 17  1  0
  1 18  1  0
  2  3  1  0
  2 19  1  0
  2 20  1  0
  3  4  1  0
  3  5  1  0
  3  7  1  1
  4 21  1  0
  4 22  1  0
  4 23  1  0
  5  6  1  0
  5 24  1  0
  5 25  1  0
  6 26  1  0
  6 27  1  0
  7  8  2  0
  7  9  1  0
  9 10  1  0
  9 28  1  0
  9 29  1  0
 10 11  2  0
 10 15  1  0
 11 12  1  0
 11 30  1  0
 12 13  2  0
 12 31  1  0
 13 14  1  0
 14 15  2  0
 14 32  1  0
 15 33  1  0
M  END

