
     RDKit          3D

 45 46  0  0  0  0  0  0  0  0999 V2000
    3.0043    0.0637    3.4444 C   0  0  0  0  0  0  0  0  0  0  0  0
    3.9728   -0.0990    2.2974 C   0  0  0  0  0  0  0  0  0  0  0  0
    4.8863    0.9137    1.9708 C   0  0  0  0  0  0  0  0  0  0  0  0
    5.7612    0.7477    0.8937 C   0  0  0  0  0  0  0  0  0  0  0  0
    5.7323   -0.4163    0.1282 C   0  0  0  0  0  0  0  0  0  0  0  0
    4.8287   -1.4493    0.4411 C   0  0  0  0  0  0  0  0  0  0  0  0
    4.8726   -2.6501   -0.3038 N   0  0  0  0  0  0  0  0  0  0  0  0
    3.6739   -3.4222   -0.7022 C   0  0  1  0  0  0  0  0  0  0  0  0
    3.2599   -4.3481    0.4747 C   0  0  0  0  0  0  0  0  0  0  0  0
    2.1689   -4.8455    0.5746 O   0  0  0  0  0  0  0  0  0  0  0  0
    4.2536   -4.6032    1.3337 O   0  0  0  0  0  0  0  0  0  0  0  0
    2.4800   -2.5660   -1.1656 C   0  0  0  0  0  0  0  0  0  0  0  0
    2.7671   -1.8535   -2.4879 C   0  0  0  0  0  0  0  0  0  0  0  0
    3.1743   -2.8305   -3.5964 C   0  0  0  0  0  0  0  0  0  0  0  0
    4.3822   -3.7002   -3.2007 C   0  0  2  0  0  0  0  0  0  0  0  0
    4.7781   -4.7351   -4.2906 C   0  0  1  0  0  0  0  0  0  0  0  0
    4.9993   -4.0846   -5.6649 C   0  0  0  0  0  0  0  0  0  0  0  0
    6.0232   -5.5498   -3.9052 C   0  0  0  0  0  0  0  0  0  0  0  0
    4.0967   -4.3844   -1.8474 C   0  0  0  0  0  0  0  0  0  0  0  0
    3.9600   -1.2760    1.5325 C   0  0  0  0  0  0  0  0  0  0  0  0
    3.3092    0.8779    4.1183 H   0  0  0  0  0  0  0  0  0  0  0  0
    2.9228   -0.8603    4.0383 H   0  0  0  0  0  0  0  0  0  0  0  0
    1.9907    0.3001    3.0764 H   0  0  0  0  0  0  0  0  0  0  0  0
    4.9142    1.8324    2.5622 H   0  0  0  0  0  0  0  0  0  0  0  0
    6.4727    1.5387    0.6423 H   0  0  0  0  0  0  0  0  0  0  0  0
    6.4164   -0.5344   -0.7176 H   0  0  0  0  0  0  0  0  0  0  0  0
    5.5516   -2.5892   -1.0555 H   0  0  0  0  0  0  0  0  0  0  0  0
    5.0010   -4.0346    1.0431 H   0  0  0  0  0  0  0  0  0  0  0  0
    2.2069   -1.8397   -0.3862 H   0  0  0  0  0  0  0  0  0  0  0  0
    1.6201   -3.2449   -1.2712 H   0  0  0  0  0  0  0  0  0  0  0  0
    3.5682   -1.1068   -2.3415 H   0  0  0  0  0  0  0  0  0  0  0  0
    1.8765   -1.2834   -2.7995 H   0  0  0  0  0  0  0  0  0  0  0  0
    3.3915   -2.2678   -4.5167 H   0  0  0  0  0  0  0  0  0  0  0  0
    2.3213   -3.4957   -3.8288 H   0  0  0  0  0  0  0  0  0  0  0  0
    5.2542   -3.0233   -3.0830 H   0  0  0  0  0  0  0  0  0  0  0  0
    3.9305   -5.4410   -4.3862 H   0  0  0  0  0  0  0  0  0  0  0  0
    5.7856   -3.3110   -5.6160 H   0  0  0  0  0  0  0  0  0  0  0  0
    4.0891   -3.6137   -6.0633 H   0  0  0  0  0  0  0  0  0  0  0  0
    5.3247   -4.8378   -6.3999 H   0  0  0  0  0  0  0  0  0  0  0  0
    6.8937   -4.8893   -3.7459 H   0  0  0  0  0  0  0  0  0  0  0  0
    6.2894   -6.2535   -4.7095 H   0  0  0  0  0  0  0  0  0  0  0  0
    5.8806   -6.1443   -2.9910 H   0  0  0  0  0  0  0  0  0  0  0  0
    4.9697   -4.9591   -1.5023 H   0  0  0  0  0  0  0  0  0  0  0  0
    3.2759   -5.1074   -1.9821 H   0  0  0  0  0  0  0  0  0  0  0  0
    3.2661   -2.0706    1.8125 H   0  0  0  0  0  0  0  0  0  0  0  0
  1  2  1  0
  1 21  1  0
  1 22  1  0
  1 23  1  0
  2  3  2  0
  2 20  1  0
  3  4  1  0
  3 24  1  0
  4  5  2  0
  4 25  1  0
  5  6  1  0
  5 26  1  0
  6  7  1  0
  6 20  2  0
  7  8  1  0
  7 27  1  0
  8  9  1  1
  8 12  1  0
  8 19  1  0
  9 10  2  0
  9 11  1  0
 11 28  1  0
 12 13  1  0
 12 29  1  0
 12 30  1  0
 13 14  1  0
 13 31  1  0
 13 32  1  0
 14 15  1  0
 14 33  1  0
 14 34  1  0
 15 16  1  0
 15 19  1  0
 15 35  1  1
 16 17  1  0
 16 18  1  0
 16 36  1  6
 17 37  1  0
 17 38  1  0
 17 39  1  0
 18 40  1  0
 18 41  1  0
 18 42  1  0
 19 43  1  0
 19 44  1  0
 20 45  1  0
M  END

