
     RDKit          3D

 55 57  0  0  0  0  0  0  0  0999 V2000
    2.8179   10.1186   -3.5577 C   0  0  0  0  0  0  0  0  0  0  0  0
    3.0848   10.0119   -2.1764 O   0  0  0  0  0  0  0  0  0  0  0  0
    3.8338    8.9780   -1.7216 C   0  0  0  0  0  0  0  0  0  0  0  0
    4.4123    8.0023   -2.5319 C   0  0  0  0  0  0  0  0  0  0  0  0
    5.1695    6.9502   -1.9695 C   0  0  0  0  0  0  0  0  0  0  0  0
    5.7944    5.8995   -2.7730 C   0  0  0  0  0  0  0  0  0  0  0  0
    5.7579    5.7456   -4.1138 C   0  0  0  0  0  0  0  0  0  0  0  0
    6.4353    4.5735   -4.7287 C   0  0  0  0  0  0  0  0  0  0  0  0
    6.8909    3.6685   -4.0190 O   0  0  0  0  0  0  0  0  0  0  0  0
    6.5301    4.4848   -6.0992 N   0  0  0  0  0  0  0  0  0  0  0  0
    6.9432    3.1849   -6.6417 C   0  0  0  0  0  0  0  0  0  0  0  0
    8.4409    2.9483   -6.7262 C   0  0  0  0  0  0  0  0  0  0  0  0
    8.9977    2.7962   -7.8855 N   0  0  0  0  0  0  0  0  0  0  0  0
   10.3627    2.5526   -7.9145 C   0  0  0  0  0  0  0  0  0  0  0  0
   11.0019    2.3743   -9.1608 C   0  0  0  0  0  0  0  0  0  0  0  0
   12.3679    2.1319   -9.2198 C   0  0  0  0  0  0  0  0  0  0  0  0
   13.1367    2.0600   -8.0419 C   0  0  0  0  0  0  0  0  0  0  0  0
   12.5253    2.2325   -6.8065 C   0  0  0  0  0  0  0  0  0  0  0  0
   11.1436    2.4780   -6.7324 C   0  0  0  0  0  0  0  0  0  0  0  0
   10.4906    2.6593   -5.4218 C   0  0  0  0  0  0  0  0  0  0  0  0
   11.0413    2.6240   -4.3370 O   0  0  0  0  0  0  0  0  0  0  0  0
    9.1146    2.8819   -5.5358 N   0  0  0  0  0  0  0  0  0  0  0  0
    8.5634    3.0229   -4.6785 H   0  0  0  0  0  0  0  0  0  0  0  0
    6.1914    5.5636   -7.0504 C   0  0  1  0  0  0  0  0  0  0  0  0
    7.3429    5.8462   -8.0241 C   0  0  0  0  0  0  0  0  0  0  0  0
    4.8654    5.2920   -7.7738 C   0  0  0  0  0  0  0  0  0  0  0  0
    5.3331    6.9026   -0.5770 C   0  0  0  0  0  0  0  0  0  0  0  0
    4.7588    7.8855    0.2334 C   0  0  0  0  0  0  0  0  0  0  0  0
    4.9814    7.8185    1.9610 Cl  0  0  0  0  0  0  0  0  0  0  0  0
    3.9975    8.9293   -0.3087 C   0  0  0  0  0  0  0  0  0  0  0  0
    3.3892    9.8292    0.4972 O   0  0  0  0  0  0  0  0  0  0  0  0
    3.9147   11.1522    0.5203 C   0  0  0  0  0  0  0  0  0  0  0  0
    2.1827   11.0051   -3.6846 H   0  0  0  0  0  0  0  0  0  0  0  0
    2.2781    9.2332   -3.9379 H   0  0  0  0  0  0  0  0  0  0  0  0
    3.7434   10.2539   -4.1461 H   0  0  0  0  0  0  0  0  0  0  0  0
    4.2764    8.0474   -3.6110 H   0  0  0  0  0  0  0  0  0  0  0  0
    6.3560    5.1409   -2.2183 H   0  0  0  0  0  0  0  0  0  0  0  0
    5.2072    6.4466   -4.7405 H   0  0  0  0  0  0  0  0  0  0  0  0
    6.5515    3.0746   -7.6588 H   0  0  0  0  0  0  0  0  0  0  0  0
    6.5021    2.4005   -6.0072 H   0  0  0  0  0  0  0  0  0  0  0  0
   10.3903    2.4323  -10.0633 H   0  0  0  0  0  0  0  0  0  0  0  0
   12.8514    1.9950  -10.1908 H   0  0  0  0  0  0  0  0  0  0  0  0
   14.2107    1.8682   -8.1022 H   0  0  0  0  0  0  0  0  0  0  0  0
   13.0890    2.1826   -5.8724 H   0  0  0  0  0  0  0  0  0  0  0  0
    6.0675    6.4712   -6.4473 H   0  0  0  0  0  0  0  0  0  0  0  0
    7.5653    4.9860   -8.6728 H   0  0  0  0  0  0  0  0  0  0  0  0
    8.2644    6.0989   -7.4776 H   0  0  0  0  0  0  0  0  0  0  0  0
    7.0808    6.7013   -8.6670 H   0  0  0  0  0  0  0  0  0  0  0  0
    4.9282    4.4023   -8.4205 H   0  0  0  0  0  0  0  0  0  0  0  0
    4.5984    6.1452   -8.4171 H   0  0  0  0  0  0  0  0  0  0  0  0
    4.0470    5.1326   -7.0544 H   0  0  0  0  0  0  0  0  0  0  0  0
    5.9148    6.1035   -0.1156 H   0  0  0  0  0  0  0  0  0  0  0  0
    3.3036   11.7175    1.2368 H   0  0  0  0  0  0  0  0  0  0  0  0
    3.8500   11.6307   -0.4696 H   0  0  0  0  0  0  0  0  0  0  0  0
    4.9636   11.1525    0.8648 H   0  0  0  0  0  0  0  0  0  0  0  0
  1  2  1  0
  1 33  1  0
  1 34  1  0
  1 35  1  0
  2  3  1  0
  3  4  2  0
  3 30  1  0
  4  5  1  0
  4 36  1  0
  5  6  1  0
  5 27  2  0
  6  7  2  0
  6 37  1  0
  7  8  1  0
  7 38  1  0
  8  9  2  0
  8 10  1  0
 10 11  1  0
 10 24  1  0
 11 12  1  0
 11 39  1  0
 11 40  1  0
 12 13  2  0
 12 22  1  0
 13 14  1  0
 14 15  2  0
 14 19  1  0
 15 16  1  0
 15 41  1  0
 16 17  2  0
 16 42  1  0
 17 18  1  0
 17 43  1  0
 18 19  2  0
 18 44  1  0
 19 20  1  0
 20 21  2  0
 20 22  1  0
 22 23  1  0
 24 25  1  0
 24 26  1  0
 24 45  1  1
 25 46  1  0
 25 47  1  0
 25 48  1  0
 26 49  1  0
 26 50  1  0
 26 51  1  0
 27 28  1  0
 27 52  1  0
 28 29  1  0
 28 30  2  0
 30 31  1  0
 31 32  1  0
 32 53  1  0
 32 54  1  0
 32 55  1  0
M  END

