
     RDKit          3D

 66 71  0  0  0  0  0  0  0  0999 V2000
   -0.2702   -0.4739   -0.1461 C   0  0  0  0  0  0  0  0  0  0  0  0
    1.1366   -0.6818   -0.5934 C   0  0  0  0  0  0  0  0  0  0  0  0
    1.7404    0.1373   -1.4206 N   0  0  0  0  0  0  0  0  0  0  0  0
    3.0089   -0.4201   -1.5669 O   0  0  0  0  0  0  0  0  0  0  0  0
    3.0408   -1.5266   -0.8067 C   0  0  0  0  0  0  0  0  0  0  0  0
    4.2621   -2.3230   -0.7659 C   0  0  0  0  0  0  0  0  0  0  0  0
    5.4100   -1.9593   -1.4927 C   0  0  0  0  0  0  0  0  0  0  0  0
    6.5661   -2.7257   -1.4290 C   0  0  0  0  0  0  0  0  0  0  0  0
    6.6431   -3.8990   -0.6418 C   0  0  0  0  0  0  0  0  0  0  0  0
    7.7986   -4.6655   -0.5886 N   0  0  0  0  0  0  0  0  0  0  0  0
    8.3865   -5.0524    0.7003 C   0  0  0  0  0  0  0  0  0  0  0  0
    9.2197   -6.3253    0.5550 C   0  0  0  0  0  0  0  0  0  0  0  0
   10.2422   -6.1686   -0.4793 N   0  0  0  0  0  0  0  0  0  0  0  0
   11.5249   -6.9137   -0.3926 C   0  0  1  0  0  0  0  0  0  0  0  0
   12.4298   -6.5134   -1.5866 C   0  0  0  0  0  0  0  0  0  0  0  0
   12.2635   -6.4640    0.9098 C   0  0  0  0  0  0  0  0  0  0  0  0
   11.8656   -5.2672    1.5348 C   0  0  0  0  0  0  0  0  0  0  0  0
   12.4336   -4.8086    2.7216 C   0  0  0  0  0  0  0  0  0  0  0  0
   13.4553   -5.5390    3.3297 C   0  0  0  0  0  0  0  0  0  0  0  0
   13.9381   -6.6675    2.6805 C   0  0  0  0  0  0  0  0  0  0  0  0
   13.3796   -7.1329    1.4719 C   0  0  0  0  0  0  0  0  0  0  0  0
   14.2425   -8.1703    0.8040 C   0  0  0  0  0  0  0  0  0  0  0  0
   15.4419   -8.1966    1.0480 O   0  0  0  0  0  0  0  0  0  0  0  0
   13.7193   -9.0525   -0.1184 N   0  0  0  0  0  0  0  0  0  0  0  0
   14.7112   -9.8906   -0.7988 C   0  0  0  0  0  0  0  0  0  0  0  0
   12.3465   -9.4049   -0.2411 C   0  0  0  0  0  0  0  0  0  0  0  0
   12.0548  -10.7831   -0.2662 C   0  0  0  0  0  0  0  0  0  0  0  0
   10.7744  -11.2577   -0.5308 C   0  0  0  0  0  0  0  0  0  0  0  0
    9.7599  -10.3410   -0.7951 C   0  0  0  0  0  0  0  0  0  0  0  0
   10.0405   -8.9758   -0.7373 C   0  0  0  0  0  0  0  0  0  0  0  0
   11.3102   -8.4581   -0.4262 C   0  0  0  0  0  0  0  0  0  0  0  0
    9.6415   -5.8043   -1.7506 C   0  0  0  0  0  0  0  0  0  0  0  0
    8.8142   -4.5194   -1.6239 C   0  0  0  0  0  0  0  0  0  0  0  0
    5.4559   -4.2820    0.0633 C   0  0  0  0  0  0  0  0  0  0  0  0
    5.3759   -5.5308    0.7639 C   0  0  0  0  0  0  0  0  0  0  0  0
    5.2870   -6.5492    1.3167 N   0  0  0  0  0  0  0  0  0  0  0  0
    4.3006   -3.4916    0.0042 C   0  0  0  0  0  0  0  0  0  0  0  0
    1.9145   -1.7377   -0.1827 N   0  0  0  0  0  0  0  0  0  0  0  0
   -0.6837    0.4382   -0.5955 H   0  0  0  0  0  0  0  0  0  0  0  0
   -0.3118   -0.3914    0.9510 H   0  0  0  0  0  0  0  0  0  0  0  0
   -0.8917   -1.3359   -0.4346 H   0  0  0  0  0  0  0  0  0  0  0  0
    5.3972   -1.0506   -2.0976 H   0  0  0  0  0  0  0  0  0  0  0  0
    7.4451   -2.3903   -1.9782 H   0  0  0  0  0  0  0  0  0  0  0  0
    7.5999   -5.2286    1.4417 H   0  0  0  0  0  0  0  0  0  0  0  0
    9.0162   -4.2192    1.0724 H   0  0  0  0  0  0  0  0  0  0  0  0
    8.5087   -7.1447    0.3391 H   0  0  0  0  0  0  0  0  0  0  0  0
    9.6878   -6.5626    1.5188 H   0  0  0  0  0  0  0  0  0  0  0  0
   12.5315   -5.4190   -1.6364 H   0  0  0  0  0  0  0  0  0  0  0  0
   12.0357   -6.8891   -2.5418 H   0  0  0  0  0  0  0  0  0  0  0  0
   13.4307   -6.9410   -1.4598 H   0  0  0  0  0  0  0  0  0  0  0  0
   11.0902   -4.6751    1.0572 H   0  0  0  0  0  0  0  0  0  0  0  0
   12.0744   -3.8766    3.1662 H   0  0  0  0  0  0  0  0  0  0  0  0
   13.8999   -5.2095    4.2717 H   0  0  0  0  0  0  0  0  0  0  0  0
   14.8031   -7.2037    3.0717 H   0  0  0  0  0  0  0  0  0  0  0  0
   15.5803   -9.2716   -1.0536 H   0  0  0  0  0  0  0  0  0  0  0  0
   14.2645  -10.3071   -1.7102 H   0  0  0  0  0  0  0  0  0  0  0  0
   15.0761  -10.7121   -0.1598 H   0  0  0  0  0  0  0  0  0  0  0  0
   12.8592  -11.4941   -0.0751 H   0  0  0  0  0  0  0  0  0  0  0  0
   10.5807  -12.3330   -0.5410 H   0  0  0  0  0  0  0  0  0  0  0  0
    8.7501  -10.6761   -1.0425 H   0  0  0  0  0  0  0  0  0  0  0  0
    9.2333   -8.2896   -0.9660 H   0  0  0  0  0  0  0  0  0  0  0  0
    8.9698   -6.5957   -2.1515 H   0  0  0  0  0  0  0  0  0  0  0  0
   10.4105   -5.6251   -2.5097 H   0  0  0  0  0  0  0  0  0  0  0  0
    8.3214   -4.3277   -2.5879 H   0  0  0  0  0  0  0  0  0  0  0  0
    9.4932   -3.6678   -1.4079 H   0  0  0  0  0  0  0  0  0  0  0  0
    3.4052   -3.8021    0.5449 H   0  0  0  0  0  0  0  0  0  0  0  0
  1  2  1  0
  1 39  1  0
  1 40  1  0
  1 41  1  0
  2  3  2  0
  2 38  1  0
  3  4  1  0
  4  5  1  0
  5  6  1  0
  5 38  2  0
  6  7  2  0
  6 37  1  0
  7  8  1  0
  7 42  1  0
  8  9  2  0
  8 43  1  0
  9 10  1  0
  9 34  1  0
 10 11  1  0
 10 33  1  0
 11 12  1  0
 11 44  1  0
 11 45  1  0
 12 13  1  0
 12 46  1  0
 12 47  1  0
 13 14  1  0
 13 32  1  0
 14 15  1  6
 14 16  1  0
 14 31  1  0
 15 48  1  0
 15 49  1  0
 15 50  1  0
 16 17  2  0
 16 21  1  0
 17 18  1  0
 17 51  1  0
 18 19  2  0
 18 52  1  0
 19 20  1  0
 19 53  1  0
 20 21  2  0
 20 54  1  0
 21 22  1  0
 22 23  2  0
 22 24  1  0
 24 25  1  0
 24 26  1  0
 25 55  1  0
 25 56  1  0
 25 57  1  0
 26 27  1  0
 26 31  2  0
 27 28  2  0
 27 58  1  0
 28 29  1  0
 28 59  1  0
 29 30  2  0
 29 60  1  0
 30 31  1  0
 30 61  1  0
 32 33  1  0
 32 62  1  0
 32 63  1  0
 33 64  1  0
 33 65  1  0
 34 35  1  0
 34 37  2  0
 35 36  3  0
 37 66  1  0
M  END

