
     RDKit          3D

 46 47  0  0  0  0  0  0  0  0999 V2000
    5.0851   -1.8183   -1.0420 C   0  0  0  0  0  0  0  0  0  0  0  0
    4.1630   -1.3925   -0.0747 O   0  0  0  0  0  0  0  0  0  0  0  0
    3.8297   -2.3503    0.9245 C   0  0  1  0  0  0  0  0  0  0  0  0
    3.2068   -1.5798    2.0918 C   0  0  0  0  0  0  0  0  0  0  0  0
    1.8479   -0.9803    1.7120 C   0  0  0  0  0  0  0  0  0  0  0  0
    0.8880   -2.0517    1.1766 C   0  0  0  0  0  0  0  0  0  0  0  0
    1.4977   -2.8358   -0.0056 C   0  0  2  0  0  0  0  0  0  0  0  0
    0.6608   -3.9088   -0.5428 N   0  0  0  0  0  0  0  0  0  0  0  0
   -0.6363   -3.5650   -1.1314 C   0  0  1  0  0  0  0  0  0  0  0  0
   -0.4570   -2.5823   -2.2960 C   0  0  0  0  0  0  0  0  0  0  0  0
   -1.4417   -4.8224   -1.5698 C   0  0  1  0  0  0  0  0  0  0  0  0
   -0.7901   -5.6992   -2.6658 C   0  0  0  0  0  0  0  0  0  0  0  0
    0.2140   -6.7363   -2.1421 C   0  0  0  0  0  0  0  0  0  0  0  0
   -0.4154   -7.6276   -1.0651 C   0  0  0  0  0  0  0  0  0  0  0  0
   -0.9731   -6.7918    0.0933 C   0  0  0  0  0  0  0  0  0  0  0  0
   -1.9463   -5.7068   -0.4002 C   0  0  0  0  0  0  0  0  0  0  0  0
    2.8607   -3.4208    0.3956 C   0  0  0  0  0  0  0  0  0  0  0  0
    5.3112   -0.9564   -1.6876 H   0  0  0  0  0  0  0  0  0  0  0  0
    4.6969   -2.6340   -1.6825 H   0  0  0  0  0  0  0  0  0  0  0  0
    6.0319   -2.1688   -0.5822 H   0  0  0  0  0  0  0  0  0  0  0  0
    4.7614   -2.8456    1.2683 H   0  0  0  0  0  0  0  0  0  0  0  0
    3.9067   -0.7914    2.4118 H   0  0  0  0  0  0  0  0  0  0  0  0
    3.0869   -2.2750    2.9416 H   0  0  0  0  0  0  0  0  0  0  0  0
    2.0061   -0.2106    0.9382 H   0  0  0  0  0  0  0  0  0  0  0  0
    1.4032   -0.4677    2.5813 H   0  0  0  0  0  0  0  0  0  0  0  0
   -0.0648   -1.5854    0.8760 H   0  0  0  0  0  0  0  0  0  0  0  0
    0.6435   -2.7702    1.9833 H   0  0  0  0  0  0  0  0  0  0  0  0
    1.6909   -2.1178   -0.8191 H   0  0  0  0  0  0  0  0  0  0  0  0
    0.5294   -4.6105    0.1825 H   0  0  0  0  0  0  0  0  0  0  0  0
   -1.2963   -3.0554   -0.3918 H   0  0  0  0  0  0  0  0  0  0  0  0
    0.2775   -2.9581   -3.0254 H   0  0  0  0  0  0  0  0  0  0  0  0
   -0.1061   -1.5989   -1.9489 H   0  0  0  0  0  0  0  0  0  0  0  0
   -1.4145   -2.4206   -2.8151 H   0  0  0  0  0  0  0  0  0  0  0  0
   -2.3517   -4.3860   -2.0175 H   0  0  0  0  0  0  0  0  0  0  0  0
   -0.3147   -5.0640   -3.4297 H   0  0  0  0  0  0  0  0  0  0  0  0
   -1.6023   -6.2392   -3.1873 H   0  0  0  0  0  0  0  0  0  0  0  0
    1.0891   -6.2120   -1.7261 H   0  0  0  0  0  0  0  0  0  0  0  0
    0.5772   -7.3551   -2.9807 H   0  0  0  0  0  0  0  0  0  0  0  0
    0.3184   -8.3605   -0.6887 H   0  0  0  0  0  0  0  0  0  0  0  0
   -1.2385   -8.2157   -1.5136 H   0  0  0  0  0  0  0  0  0  0  0  0
   -0.1322   -6.3448    0.6532 H   0  0  0  0  0  0  0  0  0  0  0  0
   -1.4925   -7.4411    0.8189 H   0  0  0  0  0  0  0  0  0  0  0  0
   -2.2667   -5.0667    0.4407 H   0  0  0  0  0  0  0  0  0  0  0  0
   -2.8601   -6.2217   -0.7486 H   0  0  0  0  0  0  0  0  0  0  0  0
    3.2914   -3.9537   -0.4666 H   0  0  0  0  0  0  0  0  0  0  0  0
    2.7186   -4.1798    1.1877 H   0  0  0  0  0  0  0  0  0  0  0  0
  1  2  1  0
  1 18  1  0
  1 19  1  0
  1 20  1  0
  2  3  1  0
  3  4  1  0
  3 17  1  0
  3 21  1  1
  4  5  1  0
  4 22  1  0
  4 23  1  0
  5  6  1  0
  5 24  1  0
  5 25  1  0
  6  7  1  0
  6 26  1  0
  6 27  1  0
  7  8  1  0
  7 17  1  0
  7 28  1  6
  8  9  1  0
  8 29  1  0
  9 10  1  0
  9 11  1  0
  9 30  1  1
 10 31  1  0
 10 32  1  0
 10 33  1  0
 11 12  1  0
 11 16  1  0
 11 34  1  6
 12 13  1  0
 12 35  1  0
 12 36  1  0
 13 14  1  0
 13 37  1  0
 13 38  1  0
 14 15  1  0
 14 39  1  0
 14 40  1  0
 15 16  1  0
 15 41  1  0
 15 42  1  0
 16 43  1  0
 16 44  1  0
 17 45  1  0
 17 46  1  0
M  END

