
     RDKit          3D

 42 43  0  0  0  0  0  0  0  0999 V2000
    1.3695    0.0679    2.4444 C   0  0  0  0  0  0  0  0  0  0  0  0
    2.7061   -0.4056    1.8878 C   0  0  0  0  0  0  0  0  0  0  0  0
    2.9157   -1.5657    1.5899 O   0  0  0  0  0  0  0  0  0  0  0  0
    3.6393    0.6041    1.7602 N   0  0  0  0  0  0  0  0  0  0  0  0
    4.9648    0.5372    1.2895 C   0  0  0  0  0  0  0  0  0  0  0  0
    5.5757   -0.6502    0.8483 C   0  0  0  0  0  0  0  0  0  0  0  0
    6.8949   -0.6432    0.3944 C   0  0  0  0  0  0  0  0  0  0  0  0
    7.6379    0.5491    0.3692 C   0  0  0  0  0  0  0  0  0  0  0  0
    8.9689    0.6159   -0.0765 N   0  0  0  0  0  0  0  0  0  0  0  0
    9.7730   -0.3690   -0.5430 C   0  0  0  0  0  0  0  0  0  0  0  0
    9.5072   -1.5543   -0.6821 O   0  0  0  0  0  0  0  0  0  0  0  0
   11.1640    0.1968   -0.9129 C   0  0  0  0  0  0  0  0  0  0  0  0
   11.4219    1.3916   -0.8021 O   0  0  0  0  0  0  0  0  0  0  0  0
   12.0035   -0.7606   -1.3421 N   0  0  0  0  0  0  0  0  0  0  0  0
   13.3652   -0.4933   -1.7771 C   0  0  0  0  0  0  0  0  0  0  0  0
   13.4907   -0.3241   -3.2830 C   0  0  0  0  0  0  0  0  0  0  0  0
   13.0622    0.8583   -3.9084 C   0  0  0  0  0  0  0  0  0  0  0  0
   13.1809    0.9488   -5.2937 C   0  0  0  0  0  0  0  0  0  0  0  0
   13.7189   -0.1293   -6.0005 C   0  0  0  0  0  0  0  0  0  0  0  0
   14.1233   -1.2729   -5.2959 C   0  0  0  0  0  0  0  0  0  0  0  0
   14.7118   -2.4733   -5.9920 C   0  0  0  0  0  0  0  0  0  0  0  0
   14.0041   -1.3531   -3.9611 N   0  0  0  0  0  0  0  0  0  0  0  0
    7.0275    1.7356    0.8099 C   0  0  0  0  0  0  0  0  0  0  0  0
    5.7129    1.7283    1.2623 C   0  0  0  0  0  0  0  0  0  0  0  0
    0.6935   -0.7934    2.5013 H   0  0  0  0  0  0  0  0  0  0  0  0
    0.9198    0.8388    1.7973 H   0  0  0  0  0  0  0  0  0  0  0  0
    1.4902    0.4997    3.4516 H   0  0  0  0  0  0  0  0  0  0  0  0
    3.3363    1.5283    2.0445 H   0  0  0  0  0  0  0  0  0  0  0  0
    5.0061   -1.5762    0.8651 H   0  0  0  0  0  0  0  0  0  0  0  0
    7.3599   -1.5667    0.0547 H   0  0  0  0  0  0  0  0  0  0  0  0
    9.4343    1.5237   -0.0656 H   0  0  0  0  0  0  0  0  0  0  0  0
   11.6026   -1.6922   -1.4263 H   0  0  0  0  0  0  0  0  0  0  0  0
   14.0092   -1.3302   -1.4735 H   0  0  0  0  0  0  0  0  0  0  0  0
   13.6916    0.4222   -1.2627 H   0  0  0  0  0  0  0  0  0  0  0  0
   12.6467    1.6729   -3.3110 H   0  0  0  0  0  0  0  0  0  0  0  0
   12.8618    1.8520   -5.8207 H   0  0  0  0  0  0  0  0  0  0  0  0
   13.8272   -0.0870   -7.0868 H   0  0  0  0  0  0  0  0  0  0  0  0
   14.7964   -2.3217   -7.0775 H   0  0  0  0  0  0  0  0  0  0  0  0
   14.0889   -3.3636   -5.8076 H   0  0  0  0  0  0  0  0  0  0  0  0
   15.7112   -2.6968   -5.5856 H   0  0  0  0  0  0  0  0  0  0  0  0
    7.5892    2.6738    0.7984 H   0  0  0  0  0  0  0  0  0  0  0  0
    5.2592    2.6649    1.6007 H   0  0  0  0  0  0  0  0  0  0  0  0
  1  2  1  0
  1 25  1  0
  1 26  1  0
  1 27  1  0
  2  3  2  0
  2  4  1  0
  4  5  1  0
  4 28  1  0
  5  6  2  0
  5 24  1  0
  6  7  1  0
  6 29  1  0
  7  8  2  0
  7 30  1  0
  8  9  1  0
  8 23  1  0
  9 10  1  0
  9 31  1  0
 10 11  2  0
 10 12  1  0
 12 13  2  0
 12 14  1  0
 14 15  1  0
 14 32  1  0
 15 16  1  0
 15 33  1  0
 15 34  1  0
 16 17  2  0
 16 22  1  0
 17 18  1  0
 17 35  1  0
 18 19  2  0
 18 36  1  0
 19 20  1  0
 19 37  1  0
 20 21  1  0
 20 22  2  0
 21 38  1  0
 21 39  1  0
 21 40  1  0
 23 24  2  0
 23 41  1  0
 24 42  1  0
M  END

