
     RDKit          3D

 23 22  0  0  0  0  0  0  0  0999 V2000
    2.2603    0.8438   -1.2110 C   0  0  0  0  0  0  0  0  0  0  0  0
    2.6195   -0.0379   -0.0100 C   0  0  0  0  0  0  0  0  0  0  0  0
    3.0589    0.6955    1.1721 N   0  0  0  0  0  0  0  0  0  0  0  0
    2.0666    1.4173    1.9429 C   0  0  0  0  0  0  0  0  0  0  0  0
    4.3924    0.9091    1.3950 C   0  0  0  0  0  0  0  0  0  0  0  0
    4.9560    1.7543    2.2993 C   0  0  0  0  0  0  0  0  0  0  0  0
    6.4014    1.8816    2.5225 C   0  0  0  0  0  0  0  0  0  0  0  0
    7.3471    1.0384    1.6951 C   0  0  0  0  0  0  0  0  0  0  0  0
    6.9242    2.6739    3.3913 N   0  0  0  0  0  0  0  0  0  0  0  0
    1.9391    0.2239   -2.0638 H   0  0  0  0  0  0  0  0  0  0  0  0
    3.1251    1.4456   -1.5318 H   0  0  0  0  0  0  0  0  0  0  0  0
    1.4359    1.5346   -0.9737 H   0  0  0  0  0  0  0  0  0  0  0  0
    3.4258   -0.7341   -0.2919 H   0  0  0  0  0  0  0  0  0  0  0  0
    1.7525   -0.6628    0.2681 H   0  0  0  0  0  0  0  0  0  0  0  0
    1.0761    0.9711    1.7757 H   0  0  0  0  0  0  0  0  0  0  0  0
    2.0125    2.4917    1.6800 H   0  0  0  0  0  0  0  0  0  0  0  0
    2.2936    1.3466    3.0186 H   0  0  0  0  0  0  0  0  0  0  0  0
    5.0347    0.2970    0.7537 H   0  0  0  0  0  0  0  0  0  0  0  0
    4.3257    2.3949    2.9226 H   0  0  0  0  0  0  0  0  0  0  0  0
    7.1614   -0.0373    1.8550 H   0  0  0  0  0  0  0  0  0  0  0  0
    8.3774    1.2696    1.9936 H   0  0  0  0  0  0  0  0  0  0  0  0
    7.2290    1.2377    0.6175 H   0  0  0  0  0  0  0  0  0  0  0  0
    6.1821    3.1849    3.8857 H   0  0  0  0  0  0  0  0  0  0  0  0
  1  2  1  0
  1 10  1  0
  1 11  1  0
  1 12  1  0
  2  3  1  0
  2 13  1  0
  2 14  1  0
  3  4  1  0
  3  5  1  0
  4 15  1  0
  4 16  1  0
  4 17  1  0
  5  6  2  0
  5 18  1  0
  6  7  1  0
  6 19  1  0
  7  8  1  0
  7  9  2  0
  8 20  1  0
  8 21  1  0
  8 22  1  0
  9 23  1  0
M  END

