
     RDKit          3D

 41 41  0  0  0  0  0  0  0  0999 V2000
    0.4088    1.0979   -1.1891 C   0  0  0  0  0  0  0  0  0  0  0  0
    1.7040    0.5842   -1.8067 C   0  0  0  0  0  0  0  0  0  0  0  0
    2.8658    0.9956   -1.0308 N   0  0  0  0  0  0  0  0  0  0  0  0
    4.1441    0.5355   -1.5474 C   0  0  0  0  0  0  0  0  0  0  0  0
    4.6847    1.3964   -2.6801 C   0  0  0  0  0  0  0  0  0  0  0  0
    4.2866    2.7368   -2.8065 C   0  0  0  0  0  0  0  0  0  0  0  0
    4.8247    3.5199   -3.8207 C   0  0  0  0  0  0  0  0  0  0  0  0
    4.3197    5.1915   -3.9890 Cl  0  0  0  0  0  0  0  0  0  0  0  0
    5.7721    3.0132   -4.7177 C   0  0  0  0  0  0  0  0  0  0  0  0
    6.1830    1.6821   -4.5883 C   0  0  0  0  0  0  0  0  0  0  0  0
    7.1129    1.0924   -5.3845 O   0  0  0  0  0  0  0  0  0  0  0  0
    7.7455    1.8553   -6.3892 C   0  0  0  0  0  0  0  0  0  0  0  0
    5.6282    0.8660   -3.5707 C   0  0  0  0  0  0  0  0  0  0  0  0
    6.0748   -0.4169   -3.3968 O   0  0  0  0  0  0  0  0  0  0  0  0
    5.7220   -1.3855   -4.3896 C   0  0  0  0  0  0  0  0  0  0  0  0
    6.5895   -2.6252   -4.1994 C   0  0  1  0  0  0  0  0  0  0  0  0
    6.1010   -3.7821   -5.0751 C   0  0  0  0  0  0  0  0  0  0  0  0
    8.0715   -2.3086   -4.4560 C   0  0  0  0  0  0  0  0  0  0  0  0
    8.9255   -3.4064   -4.1950 O   0  0  0  0  0  0  0  0  0  0  0  0
   -0.4623    0.7966   -1.7916 H   0  0  0  0  0  0  0  0  0  0  0  0
    0.4188    2.1965   -1.1146 H   0  0  0  0  0  0  0  0  0  0  0  0
    0.2635    0.6932   -0.1724 H   0  0  0  0  0  0  0  0  0  0  0  0
    1.8124    0.9906   -2.8273 H   0  0  0  0  0  0  0  0  0  0  0  0
    1.6485   -0.5229   -1.9261 H   0  0  0  0  0  0  0  0  0  0  0  0
    2.7580    0.7007   -0.0626 H   0  0  0  0  0  0  0  0  0  0  0  0
    4.1193   -0.5204   -1.8863 H   0  0  0  0  0  0  0  0  0  0  0  0
    4.8781    0.5623   -0.7225 H   0  0  0  0  0  0  0  0  0  0  0  0
    3.5543    3.1367   -2.1055 H   0  0  0  0  0  0  0  0  0  0  0  0
    6.1779    3.6630   -5.4906 H   0  0  0  0  0  0  0  0  0  0  0  0
    8.4635    1.1870   -6.8826 H   0  0  0  0  0  0  0  0  0  0  0  0
    8.2904    2.7169   -5.9643 H   0  0  0  0  0  0  0  0  0  0  0  0
    7.0244    2.2250   -7.1400 H   0  0  0  0  0  0  0  0  0  0  0  0
    5.8696   -0.9669   -5.3992 H   0  0  0  0  0  0  0  0  0  0  0  0
    4.6515   -1.6437   -4.2816 H   0  0  0  0  0  0  0  0  0  0  0  0
    6.4951   -2.9206   -3.1359 H   0  0  0  0  0  0  0  0  0  0  0  0
    6.0837   -3.4926   -6.1402 H   0  0  0  0  0  0  0  0  0  0  0  0
    5.0856   -4.1072   -4.7971 H   0  0  0  0  0  0  0  0  0  0  0  0
    6.7819   -4.6396   -4.9764 H   0  0  0  0  0  0  0  0  0  0  0  0
    8.3592   -1.4143   -3.8750 H   0  0  0  0  0  0  0  0  0  0  0  0
    8.2104   -2.0581   -5.5219 H   0  0  0  0  0  0  0  0  0  0  0  0
    8.9205   -3.5664   -3.2421 H   0  0  0  0  0  0  0  0  0  0  0  0
  1  2  1  0
  1 20  1  0
  1 21  1  0
  1 22  1  0
  2  3  1  0
  2 23  1  0
  2 24  1  0
  3  4  1  0
  3 25  1  0
  4  5  1  0
  4 26  1  0
  4 27  1  0
  5  6  2  0
  5 13  1  0
  6  7  1  0
  6 28  1  0
  7  8  1  0
  7  9  2  0
  9 10  1  0
  9 29  1  0
 10 11  1  0
 10 13  2  0
 11 12  1  0
 12 30  1  0
 12 31  1  0
 12 32  1  0
 13 14  1  0
 14 15  1  0
 15 16  1  0
 15 33  1  0
 15 34  1  0
 16 17  1  0
 16 18  1  0
 16 35  1  1
 17 36  1  0
 17 37  1  0
 17 38  1  0
 18 19  1  0
 18 39  1  0
 18 40  1  0
 19 41  1  0
M  END

