
     RDKit          3D

 34 34  0  0  0  0  0  0  0  0999 V2000
    1.0268   -0.3282    0.2899 F   0  0  0  0  0  0  0  0  0  0  0  0
    2.3280   -0.1690    0.1225 C   0  0  0  0  0  0  0  0  0  0  0  0
    2.9351    1.0247   -0.0293 C   0  0  0  0  0  0  0  0  0  0  0  0
    2.1997    2.4191    0.0050 C   0  0  1  0  0  0  0  0  0  0  0  0
    2.4868    3.0580    1.4547 C   0  0  1  0  0  0  0  0  0  0  0  0
    2.6877    2.0715    2.3344 F   0  0  0  0  0  0  0  0  0  0  0  0
    3.5658    3.8356    1.4445 F   0  0  0  0  0  0  0  0  0  0  0  0
    1.4759    3.7953    1.9068 F   0  0  0  0  0  0  0  0  0  0  0  0
    2.7536    3.3513   -1.1710 C   0  0  1  0  0  0  0  0  0  0  0  0
    4.0777    3.5065   -1.0364 F   0  0  0  0  0  0  0  0  0  0  0  0
    2.5269    2.6969   -2.3328 F   0  0  0  0  0  0  0  0  0  0  0  0
    2.2179    4.8267   -1.3905 C   0  0  1  0  0  0  0  0  0  0  0  0
    2.0315    5.4568   -0.2320 F   0  0  0  0  0  0  0  0  0  0  0  0
    3.1460    5.4846   -2.0834 F   0  0  0  0  0  0  0  0  0  0  0  0
    1.0969    4.8445   -2.0988 F   0  0  0  0  0  0  0  0  0  0  0  0
    0.6137    2.3264   -0.1305 C   0  0  1  0  0  0  0  0  0  0  0  0
    0.1130    1.7605    0.9799 F   0  0  0  0  0  0  0  0  0  0  0  0
    0.1173    3.5812   -0.1650 F   0  0  0  0  0  0  0  0  0  0  0  0
   -0.0327    1.6151   -1.4072 C   0  0  1  0  0  0  0  0  0  0  0  0
    0.7661    0.7190   -1.9891 F   0  0  0  0  0  0  0  0  0  0  0  0
   -1.1482    1.0060   -1.0218 F   0  0  0  0  0  0  0  0  0  0  0  0
   -0.3404    2.5324   -2.3167 F   0  0  0  0  0  0  0  0  0  0  0  0
    4.4709    0.9683   -0.1506 C   0  0  2  0  0  0  0  0  0  0  0  0
    5.0591    1.9264    0.5962 F   0  0  0  0  0  0  0  0  0  0  0  0
    4.8503    1.1333   -1.4386 F   0  0  0  0  0  0  0  0  0  0  0  0
    5.1268   -0.3569    0.3421 C   0  0  2  0  0  0  0  0  0  0  0  0
    5.0308   -0.4086    1.6869 F   0  0  0  0  0  0  0  0  0  0  0  0
    6.4205   -0.3444   -0.0021 F   0  0  0  0  0  0  0  0  0  0  0  0
    4.4354   -1.5949   -0.2384 C   0  0  1  0  0  0  0  0  0  0  0  0
    4.5212   -1.5673   -1.5818 F   0  0  0  0  0  0  0  0  0  0  0  0
    5.0151   -2.7138    0.2149 F   0  0  0  0  0  0  0  0  0  0  0  0
    2.9492   -1.5624    0.1665 C   0  0  2  0  0  0  0  0  0  0  0  0
    2.2504   -2.3612   -0.6633 F   0  0  0  0  0  0  0  0  0  0  0  0
    2.8150   -2.0457    1.4197 F   0  0  0  0  0  0  0  0  0  0  0  0
  1  2  1  0
  2  3  2  0
  2 32  1  0
  4  3  1  1
  3 23  1  0
  4  5  1  0
  4  9  1  0
  4 16  1  0
  5  6  1  1
  5  7  1  0
  5  8  1  0
  9 10  1  1
  9 11  1  0
  9 12  1  0
 12 13  1  1
 12 14  1  0
 12 15  1  0
 16 17  1  1
 16 18  1  0
 16 19  1  0
 19 20  1  6
 19 21  1  0
 19 22  1  0
 23 24  1  1
 23 25  1  0
 23 26  1  0
 26 27  1  1
 26 28  1  0
 26 29  1  0
 29 30  1  6
 29 31  1  0
 29 32  1  0
 32 33  1  6
 32 34  1  0
M  END

