
     RDKit          3D

 53 56  0  0  0  0  0  0  0  0999 V2000
    3.2161   -0.9764   -0.3793 O   0  0  0  0  0  0  0  0  0  0  0  0
    2.4356   -0.1561    0.0699 C   0  0  0  0  0  0  0  0  0  0  0  0
    1.0271   -0.1007   -0.4610 C   0  0  0  0  0  0  0  0  0  0  0  0
    0.0176    0.7224    0.0688 C   0  0  0  0  0  0  0  0  0  0  0  0
   -1.2711    0.7133   -0.4667 C   0  0  0  0  0  0  0  0  0  0  0  0
   -1.5582   -0.1267   -1.5469 C   0  0  0  0  0  0  0  0  0  0  0  0
   -3.1662   -0.1417   -2.2215 Cl  0  0  0  0  0  0  0  0  0  0  0  0
   -0.5707   -0.9566   -2.0923 C   0  0  0  0  0  0  0  0  0  0  0  0
    0.7090   -0.9383   -1.5461 C   0  0  0  0  0  0  0  0  0  0  0  0
    2.8657    0.8346    1.1559 C   0  0  1  0  0  0  0  0  0  0  0  0
    4.1109    0.3609    1.9338 C   0  0  0  0  0  0  0  0  0  0  0  0
    5.4254    0.5339    1.1629 C   0  0  0  0  0  0  0  0  0  0  0  0
    5.5449    1.8958    0.6425 N   0  0  0  0  0  0  0  0  0  0  0  0
    6.6689    2.6149    0.8976 C   0  0  0  0  0  0  0  0  0  0  0  0
    7.6267    2.2268    1.5385 O   0  0  0  0  0  0  0  0  0  0  0  0
    6.6140    3.8697    0.3492 O   0  0  0  0  0  0  0  0  0  0  0  0
    7.7980    4.6552    0.4651 C   0  0  1  0  0  0  0  0  0  0  0  0
    8.8182    4.2226   -0.6106 C   0  0  0  0  0  0  0  0  0  0  0  0
    8.3270    4.3657   -1.9703 N   0  0  0  0  0  0  0  0  0  0  0  0
    8.5540    5.4299   -2.7263 N   0  0  0  0  0  0  0  0  0  0  0  0
    7.8795    5.1227   -3.8267 C   0  0  0  0  0  0  0  0  0  0  0  0
    7.2672    3.9200   -3.7360 N   0  0  0  0  0  0  0  0  0  0  0  0
    7.5597    3.4527   -2.5541 N   0  0  0  0  0  0  0  0  0  0  0  0
    7.4202    6.1218    0.4024 C   0  0  0  0  0  0  0  0  0  0  0  0
    6.2243    6.5449   -0.1967 C   0  0  0  0  0  0  0  0  0  0  0  0
    5.8811    7.8964   -0.2619 C   0  0  0  0  0  0  0  0  0  0  0  0
    6.7373    8.8607    0.2746 C   0  0  0  0  0  0  0  0  0  0  0  0
    7.9348    8.4689    0.8750 C   0  0  0  0  0  0  0  0  0  0  0  0
    8.2648    7.1127    0.9329 C   0  0  0  0  0  0  0  0  0  0  0  0
    9.7834    6.6664    1.6990 Cl  0  0  0  0  0  0  0  0  0  0  0  0
    4.4401    2.3287   -0.2060 C   0  0  0  0  0  0  0  0  0  0  0  0
    3.1141    2.2460    0.5573 C   0  0  0  0  0  0  0  0  0  0  0  0
    0.2209    1.3816    0.9142 H   0  0  0  0  0  0  0  0  0  0  0  0
   -2.0535    1.3505   -0.0519 H   0  0  0  0  0  0  0  0  0  0  0  0
   -0.8130   -1.6062   -2.9349 H   0  0  0  0  0  0  0  0  0  0  0  0
    1.4962   -1.5782   -1.9491 H   0  0  0  0  0  0  0  0  0  0  0  0
    2.0297    0.9172    1.8690 H   0  0  0  0  0  0  0  0  0  0  0  0
    3.9986   -0.6974    2.2160 H   0  0  0  0  0  0  0  0  0  0  0  0
    4.1694    0.9442    2.8685 H   0  0  0  0  0  0  0  0  0  0  0  0
    5.4590   -0.1793    0.3240 H   0  0  0  0  0  0  0  0  0  0  0  0
    6.2881    0.3465    1.8132 H   0  0  0  0  0  0  0  0  0  0  0  0
    8.2798    4.4365    1.4290 H   0  0  0  0  0  0  0  0  0  0  0  0
    9.0625    3.1645   -0.4515 H   0  0  0  0  0  0  0  0  0  0  0  0
    9.7300    4.8254   -0.5242 H   0  0  0  0  0  0  0  0  0  0  0  0
    7.8323    5.7660   -4.7032 H   0  0  0  0  0  0  0  0  0  0  0  0
    5.5540    5.7911   -0.6103 H   0  0  0  0  0  0  0  0  0  0  0  0
    4.9425    8.1954   -0.7343 H   0  0  0  0  0  0  0  0  0  0  0  0
    6.4775    9.9211    0.2292 H   0  0  0  0  0  0  0  0  0  0  0  0
    8.6183    9.2038    1.3030 H   0  0  0  0  0  0  0  0  0  0  0  0
    4.4080    1.6847   -1.1042 H   0  0  0  0  0  0  0  0  0  0  0  0
    4.6246    3.3511   -0.5491 H   0  0  0  0  0  0  0  0  0  0  0  0
    2.2889    2.5419   -0.1100 H   0  0  0  0  0  0  0  0  0  0  0  0
    3.1374    2.9744    1.3856 H   0  0  0  0  0  0  0  0  0  0  0  0
  1  2  2  0
  2  3  1  0
  2 10  1  0
  3  4  2  0
  3  9  1  0
  4  5  1  0
  4 33  1  0
  5  6  2  0
  5 34  1  0
  6  7  1  0
  6  8  1  0
  8  9  2  0
  8 35  1  0
  9 36  1  0
 10 11  1  0
 10 32  1  0
 10 37  1  1
 11 12  1  0
 11 38  1  0
 11 39  1  0
 12 13  1  0
 12 40  1  0
 12 41  1  0
 13 14  1  0
 13 31  1  0
 14 15  2  0
 14 16  1  0
 16 17  1  0
 17 18  1  0
 17 24  1  0
 17 42  1  1
 18 19  1  0
 18 43  1  0
 18 44  1  0
 19 20  1  0
 19 23  1  0
 20 21  2  0
 21 22  1  0
 21 45  1  0
 22 23  2  0
 24 25  2  0
 24 29  1  0
 25 26  1  0
 25 46  1  0
 26 27  2  0
 26 47  1  0
 27 28  1  0
 27 48  1  0
 28 29  2  0
 28 49  1  0
 29 30  1  0
 31 32  1  0
 31 50  1  0
 31 51  1  0
 32 52  1  0
 32 53  1  0
M  END

