
     RDKit          3D

 48 49  0  0  0  0  0  0  0  0999 V2000
    1.9683    0.6618   -0.0526 C   0  0  0  0  0  0  0  0  0  0  0  0
    3.1975   -0.2228   -0.1797 C   0  0  0  0  0  0  0  0  0  0  0  0
    3.6273   -0.7303    1.0924 O   0  0  0  0  0  0  0  0  0  0  0  0
    4.4345    0.0765    1.8285 C   0  0  0  0  0  0  0  0  0  0  0  0
    4.8055    1.1719    1.4546 O   0  0  0  0  0  0  0  0  0  0  0  0
    4.7779   -0.4986    3.0223 N   0  0  0  0  0  0  0  0  0  0  0  0
    4.3009   -1.7960    3.4863 C   0  0  0  0  0  0  0  0  0  0  0  0
    5.4710   -2.6761    3.9496 C   0  0  0  0  0  0  0  0  0  0  0  0
    6.3812   -1.9643    4.9623 C   0  0  2  0  0  0  0  0  0  0  0  0
    5.7115   -1.8461    6.2553 N   0  0  0  0  0  0  0  0  0  0  0  0
    6.4063   -1.7626    7.4196 C   0  0  0  0  0  0  0  0  0  0  0  0
    7.6241   -1.7380    7.4806 O   0  0  0  0  0  0  0  0  0  0  0  0
    5.5828   -1.6393    8.7097 C   0  0  0  0  0  0  0  0  0  0  0  0
    3.8094   -2.0687    8.6569 S   0  0  0  0  0  0  0  0  0  0  0  0
    3.8811   -3.8500    8.6117 C   0  0  0  0  0  0  0  0  0  0  0  0
    5.0652   -4.4514    8.6448 N   0  0  0  0  0  0  0  0  0  0  0  0
    5.0689   -5.7933    8.6203 C   0  0  0  0  0  0  0  0  0  0  0  0
    6.4099   -6.4705    8.6657 C   0  0  0  0  0  0  0  0  0  0  0  0
    3.8647   -6.5048    8.5598 C   0  0  0  0  0  0  0  0  0  0  0  0
    2.6675   -5.7725    8.5270 C   0  0  0  0  0  0  0  0  0  0  0  0
    1.3196   -6.4364    8.4652 C   0  0  0  0  0  0  0  0  0  0  0  0
    2.6840   -4.4343    8.5521 N   0  0  0  0  0  0  0  0  0  0  0  0
    6.8139   -0.5929    4.4051 C   0  0  0  0  0  0  0  0  0  0  0  0
    5.6138    0.2455    3.9622 C   0  0  0  0  0  0  0  0  0  0  0  0
    1.6211    0.9698   -1.0522 H   0  0  0  0  0  0  0  0  0  0  0  0
    2.2042    1.5692    0.5225 H   0  0  0  0  0  0  0  0  0  0  0  0
    1.1458    0.1260    0.4473 H   0  0  0  0  0  0  0  0  0  0  0  0
    4.0278    0.3284   -0.6450 H   0  0  0  0  0  0  0  0  0  0  0  0
    2.9820   -1.1200   -0.7792 H   0  0  0  0  0  0  0  0  0  0  0  0
    3.7488   -2.2835    2.6764 H   0  0  0  0  0  0  0  0  0  0  0  0
    3.5807   -1.6451    4.3169 H   0  0  0  0  0  0  0  0  0  0  0  0
    6.0777   -2.9445    3.0694 H   0  0  0  0  0  0  0  0  0  0  0  0
    5.0850   -3.6152    4.3799 H   0  0  0  0  0  0  0  0  0  0  0  0
    7.2869   -2.5648    5.1391 H   0  0  0  0  0  0  0  0  0  0  0  0
    4.6983   -1.8758    6.3152 H   0  0  0  0  0  0  0  0  0  0  0  0
    5.6126   -0.5866    9.0336 H   0  0  0  0  0  0  0  0  0  0  0  0
    6.0877   -2.2443    9.4727 H   0  0  0  0  0  0  0  0  0  0  0  0
    7.0535   -6.0841    7.8601 H   0  0  0  0  0  0  0  0  0  0  0  0
    6.3258   -7.5621    8.5729 H   0  0  0  0  0  0  0  0  0  0  0  0
    6.9175   -6.2316    9.6144 H   0  0  0  0  0  0  0  0  0  0  0  0
    3.8572   -7.5959    8.5377 H   0  0  0  0  0  0  0  0  0  0  0  0
    1.3983   -7.5313    8.4179 H   0  0  0  0  0  0  0  0  0  0  0  0
    0.7635   -6.0760    7.5853 H   0  0  0  0  0  0  0  0  0  0  0  0
    0.7248   -6.1581    9.3500 H   0  0  0  0  0  0  0  0  0  0  0  0
    7.4803   -0.7579    3.5412 H   0  0  0  0  0  0  0  0  0  0  0  0
    7.3976   -0.0587    5.1702 H   0  0  0  0  0  0  0  0  0  0  0  0
    5.9278    1.1727    3.4685 H   0  0  0  0  0  0  0  0  0  0  0  0
    5.0079    0.5255    4.8462 H   0  0  0  0  0  0  0  0  0  0  0  0
  1  2  1  0
  1 25  1  0
  1 26  1  0
  1 27  1  0
  2  3  1  0
  2 28  1  0
  2 29  1  0
  3  4  1  0
  4  5  2  0
  4  6  1  0
  6  7  1  0
  6 24  1  0
  7  8  1  0
  7 30  1  0
  7 31  1  0
  8  9  1  0
  8 32  1  0
  8 33  1  0
  9 10  1  0
  9 23  1  0
  9 34  1  1
 10 11  1  0
 10 35  1  0
 11 12  2  0
 11 13  1  0
 13 14  1  0
 13 36  1  0
 13 37  1  0
 14 15  1  0
 15 16  2  0
 15 22  1  0
 16 17  1  0
 17 18  1  0
 17 19  2  0
 18 38  1  0
 18 39  1  0
 18 40  1  0
 19 20  1  0
 19 41  1  0
 20 21  1  0
 20 22  2  0
 21 42  1  0
 21 43  1  0
 21 44  1  0
 23 24  1  0
 23 45  1  0
 23 46  1  0
 24 47  1  0
 24 48  1  0
M  END

