
     RDKit          3D

 75 81  0  0  0  0  0  0  0  0999 V2000
    1.6561    0.5143   -1.2901 C   0  0  0  0  0  0  0  0  0  0  0  0
    3.0232    0.3179   -0.5996 C   0  0  1  0  0  0  0  0  0  0  0  0
    2.8990    0.5435    0.9145 C   0  0  0  0  0  0  0  0  0  0  0  0
    2.8924   -0.5458    1.7981 C   0  0  0  0  0  0  0  0  0  0  0  0
    2.7300   -0.3415    3.1719 C   0  0  0  0  0  0  0  0  0  0  0  0
    2.5743    0.9507    3.6801 C   0  0  0  0  0  0  0  0  0  0  0  0
    2.5835    2.0403    2.8038 C   0  0  0  0  0  0  0  0  0  0  0  0
    2.7428    1.8406    1.4301 C   0  0  0  0  0  0  0  0  0  0  0  0
    3.5369   -1.0190   -0.8964 N   0  0  0  0  0  0  0  0  0  0  0  0
    4.6363   -0.8923   -1.5480 C   0  0  0  0  0  0  0  0  0  0  0  0
    5.4249   -2.0664   -1.9928 C   0  0  0  0  0  0  0  0  0  0  0  0
    4.7347   -3.1952   -2.4672 C   0  0  0  0  0  0  0  0  0  0  0  0
    5.4240   -4.3411   -2.8549 C   0  0  0  0  0  0  0  0  0  0  0  0
    6.8281   -4.4156   -2.7676 C   0  0  0  0  0  0  0  0  0  0  0  0
    7.5625   -5.6427   -3.1772 C   0  0  0  0  0  0  0  0  0  0  0  0
    8.8206   -5.5370   -3.8279 C   0  0  0  0  0  0  0  0  0  0  0  0
    9.5463   -6.6564   -4.2296 C   0  0  0  0  0  0  0  0  0  0  0  0
    8.9809   -7.9004   -3.9616 C   0  0  0  0  0  0  0  0  0  0  0  0
    9.5137   -9.1167   -4.2595 O   0  0  0  0  0  0  0  0  0  0  0  0
    8.6230  -10.0512   -3.8112 C   0  0  0  0  0  0  0  0  0  0  0  0
    7.5304   -9.4846   -3.2322 C   0  0  0  0  0  0  0  0  0  0  0  0
    7.7354   -8.0561   -3.3183 C   0  0  0  0  0  0  0  0  0  0  0  0
    7.0226   -6.9129   -2.9249 C   0  0  0  0  0  0  0  0  0  0  0  0
    7.5094   -3.2894   -2.2691 C   0  0  0  0  0  0  0  0  0  0  0  0
    6.8241   -2.1353   -1.8906 C   0  0  0  0  0  0  0  0  0  0  0  0
    5.0209    0.4432   -1.7968 N   0  0  0  0  0  0  0  0  0  0  0  0
    6.0831    0.9709   -2.6472 C   0  0  0  0  0  0  0  0  0  0  0  0
    5.8997    0.6865   -4.1469 C   0  0  1  0  0  0  0  0  0  0  0  0
    4.6061    1.3227   -4.7393 C   0  0  0  0  0  0  0  0  0  0  0  0
    5.0951    2.1497   -5.9366 C   0  0  0  0  0  0  0  0  0  0  0  0
    6.4464    2.5232   -5.5415 N   0  0  0  0  0  0  0  0  0  0  0  0
    7.2322    3.2005   -6.5266 C   0  0  0  0  0  0  0  0  0  0  0  0
    6.6500    4.4460   -6.7966 O   0  0  0  0  0  0  0  0  0  0  0  0
    7.2851    5.1672   -7.8276 C   0  0  0  0  0  0  0  0  0  0  0  0
    6.6112    6.5027   -7.9939 C   0  0  1  0  0  0  0  0  0  0  0  0
    6.6408    7.1972   -9.3326 C   0  0  0  0  0  0  0  0  0  0  0  0
    5.3503    6.6186   -8.8094 C   0  0  0  0  0  0  0  0  0  0  0  0
    7.0425    1.3251   -4.9756 C   0  0  0  0  0  0  0  0  0  0  0  0
    4.0503    1.2730   -1.2419 C   0  0  0  0  0  0  0  0  0  0  0  0
    4.0267    2.4823   -1.3180 O   0  0  0  0  0  0  0  0  0  0  0  0
    0.9327   -0.2029   -0.8768 H   0  0  0  0  0  0  0  0  0  0  0  0
    1.7406    0.3450   -2.3750 H   0  0  0  0  0  0  0  0  0  0  0  0
    1.2904    1.5372   -1.1209 H   0  0  0  0  0  0  0  0  0  0  0  0
    3.0183   -1.5517    1.3959 H   0  0  0  0  0  0  0  0  0  0  0  0
    2.7269   -1.2005    3.8484 H   0  0  0  0  0  0  0  0  0  0  0  0
    2.4490    1.1092    4.7545 H   0  0  0  0  0  0  0  0  0  0  0  0
    2.4685    3.0563    3.1910 H   0  0  0  0  0  0  0  0  0  0  0  0
    2.7663    2.6959    0.7521 H   0  0  0  0  0  0  0  0  0  0  0  0
    3.6461   -3.1549   -2.5327 H   0  0  0  0  0  0  0  0  0  0  0  0
    4.8638   -5.1892   -3.2547 H   0  0  0  0  0  0  0  0  0  0  0  0
    9.2219   -4.5448   -4.0442 H   0  0  0  0  0  0  0  0  0  0  0  0
   10.5079   -6.5678   -4.7380 H   0  0  0  0  0  0  0  0  0  0  0  0
    8.9093  -11.0870   -3.9782 H   0  0  0  0  0  0  0  0  0  0  0  0
    6.6832  -10.0119   -2.7990 H   0  0  0  0  0  0  0  0  0  0  0  0
    6.0691   -7.0123   -2.4021 H   0  0  0  0  0  0  0  0  0  0  0  0
    8.5937   -3.3275   -2.1435 H   0  0  0  0  0  0  0  0  0  0  0  0
    7.3878   -1.3008   -1.4708 H   0  0  0  0  0  0  0  0  0  0  0  0
    7.0569    0.5903   -2.3065 H   0  0  0  0  0  0  0  0  0  0  0  0
    6.0770    2.0587   -2.4798 H   0  0  0  0  0  0  0  0  0  0  0  0
    5.9040   -0.4032   -4.2998 H   0  0  0  0  0  0  0  0  0  0  0  0
    4.1357    1.9864   -3.9991 H   0  0  0  0  0  0  0  0  0  0  0  0
    3.8613    0.5689   -5.0345 H   0  0  0  0  0  0  0  0  0  0  0  0
    4.4874    3.0435   -6.1342 H   0  0  0  0  0  0  0  0  0  0  0  0
    5.1007    1.5335   -6.8678 H   0  0  0  0  0  0  0  0  0  0  0  0
    7.3108    2.6111   -7.4817 H   0  0  0  0  0  0  0  0  0  0  0  0
    8.2662    3.3175   -6.1358 H   0  0  0  0  0  0  0  0  0  0  0  0
    7.2450    4.6015   -8.7838 H   0  0  0  0  0  0  0  0  0  0  0  0
    8.3611    5.3107   -7.5889 H   0  0  0  0  0  0  0  0  0  0  0  0
    6.6778    7.1406   -7.1058 H   0  0  0  0  0  0  0  0  0  0  0  0
    7.1321    6.6864  -10.1670 H   0  0  0  0  0  0  0  0  0  0  0  0
    6.7606    8.2840   -9.3467 H   0  0  0  0  0  0  0  0  0  0  0  0
    4.9652    5.7095   -9.2814 H   0  0  0  0  0  0  0  0  0  0  0  0
    4.5728    7.3047   -8.4625 H   0  0  0  0  0  0  0  0  0  0  0  0
    7.9306    1.5746   -4.3694 H   0  0  0  0  0  0  0  0  0  0  0  0
    7.3770    0.6107   -5.7640 H   0  0  0  0  0  0  0  0  0  0  0  0
  2  1  1  6
  1 41  1  0
  1 42  1  0
  1 43  1  0
  2  3  1  0
  2  9  1  0
  2 39  1  0
  3  4  2  0
  3  8  1  0
  4  5  1  0
  4 44  1  0
  5  6  2  0
  5 45  1  0
  6  7  1  0
  6 46  1  0
  7  8  2  0
  7 47  1  0
  8 48  1  0
  9 10  2  0
 10 11  1  0
 10 26  1  0
 11 12  2  0
 11 25  1  0
 12 13  1  0
 12 49  1  0
 13 14  2  0
 13 50  1  0
 14 15  1  0
 14 24  1  0
 15 16  2  0
 15 23  1  0
 16 17  1  0
 16 51  1  0
 17 18  2  0
 17 52  1  0
 18 19  1  0
 18 22  1  0
 19 20  1  0
 20 21  2  0
 20 53  1  0
 21 22  1  0
 21 54  1  0
 22 23  2  0
 23 55  1  0
 24 25  2  0
 24 56  1  0
 25 57  1  0
 26 27  1  0
 26 39  1  0
 27 28  1  0
 27 58  1  0
 27 59  1  0
 28 29  1  0
 28 38  1  0
 28 60  1  1
 29 30  1  0
 29 61  1  0
 29 62  1  0
 30 31  1  0
 30 63  1  0
 30 64  1  0
 31 32  1  0
 31 38  1  0
 32 33  1  0
 32 65  1  0
 32 66  1  0
 33 34  1  0
 34 35  1  0
 34 67  1  0
 34 68  1  0
 35 36  1  0
 35 37  1  0
 35 69  1  1
 36 37  1  0
 36 70  1  0
 36 71  1  0
 37 72  1  0
 37 73  1  0
 38 74  1  0
 38 75  1  0
 39 40  2  0
M  END

