
     RDKit          3D

 34 33  0  0  0  0  0  0  0  0999 V2000
    2.7695    2.2630    0.2438 C   0  0  0  0  0  0  0  0  0  0  0  0
    2.6724    0.7382    0.1673 C   0  0  0  0  0  0  0  0  0  0  0  0
    3.2532    0.0171    1.3880 C   0  0  0  0  0  0  0  0  0  0  0  0
    4.7865    0.0816    1.4477 C   0  0  0  0  0  0  0  0  0  0  0  0
    5.4067    0.4348    0.4575 O   0  0  0  0  0  0  0  0  0  0  0  0
    5.4245   -0.3308    2.6130 N   0  0  0  0  0  0  0  0  0  0  0  0
    4.6370   -0.8980    3.7178 C   0  0  0  0  0  0  0  0  0  0  0  0
    4.0111    0.1281    4.6797 C   0  0  0  0  0  0  0  0  0  0  0  0
    4.9378    0.9458    5.3767 O   0  0  0  0  0  0  0  0  0  0  0  0
    6.9123   -0.5764    2.5419 C   0  0  1  0  0  0  0  0  0  0  0  0
    7.2060   -1.7443    1.5892 C   0  0  0  0  0  0  0  0  0  0  0  0
    7.6903    0.6949    2.1184 C   0  0  0  0  0  0  0  0  0  0  0  0
    7.4845   -0.9404    3.9413 C   0  0  0  0  0  0  0  0  0  0  0  0
    8.1086   -1.9469    4.1487 O   0  0  0  0  0  0  0  0  0  0  0  0
    7.3425   -0.0198    4.9081 O   0  0  0  0  0  0  0  0  0  0  0  0
    2.3180    2.7325   -0.6446 H   0  0  0  0  0  0  0  0  0  0  0  0
    3.8193    2.5886    0.2951 H   0  0  0  0  0  0  0  0  0  0  0  0
    2.2423    2.6578    1.1296 H   0  0  0  0  0  0  0  0  0  0  0  0
    3.1927    0.3804   -0.7341 H   0  0  0  0  0  0  0  0  0  0  0  0
    1.6149    0.4393    0.0678 H   0  0  0  0  0  0  0  0  0  0  0  0
    2.9811   -1.0542    1.3508 H   0  0  0  0  0  0  0  0  0  0  0  0
    2.7918    0.4101    2.3054 H   0  0  0  0  0  0  0  0  0  0  0  0
    5.2721   -1.5946    4.2847 H   0  0  0  0  0  0  0  0  0  0  0  0
    3.8171   -1.5219    3.3277 H   0  0  0  0  0  0  0  0  0  0  0  0
    3.3592   -0.4187    5.3865 H   0  0  0  0  0  0  0  0  0  0  0  0
    3.3663    0.8209    4.1213 H   0  0  0  0  0  0  0  0  0  0  0  0
    5.2750    0.4549    6.1395 H   0  0  0  0  0  0  0  0  0  0  0  0
    6.8412   -1.5047    0.5829 H   0  0  0  0  0  0  0  0  0  0  0  0
    6.7279   -2.6681    1.9469 H   0  0  0  0  0  0  0  0  0  0  0  0
    8.2869   -1.9341    1.5428 H   0  0  0  0  0  0  0  0  0  0  0  0
    7.5144    0.9194    1.0626 H   0  0  0  0  0  0  0  0  0  0  0  0
    8.7670    0.5325    2.2824 H   0  0  0  0  0  0  0  0  0  0  0  0
    7.3813    1.5684    2.7123 H   0  0  0  0  0  0  0  0  0  0  0  0
    6.6598    0.6492    4.6915 H   0  0  0  0  0  0  0  0  0  0  0  0
  1  2  1  0
  1 16  1  0
  1 17  1  0
  1 18  1  0
  2  3  1  0
  2 19  1  0
  2 20  1  0
  3  4  1  0
  3 21  1  0
  3 22  1  0
  4  5  2  0
  4  6  1  0
  6  7  1  0
  6 10  1  0
  7  8  1  0
  7 23  1  0
  7 24  1  0
  8  9  1  0
  8 25  1  0
  8 26  1  0
  9 27  1  0
 10 11  1  0
 10 12  1  0
 10 13  1  1
 11 28  1  0
 11 29  1  0
 11 30  1  0
 12 31  1  0
 12 32  1  0
 12 33  1  0
 13 14  2  0
 13 15  1  0
 15 34  1  0
M  END

