
     RDKit          3D

 33 35  0  0  0  0  0  0  0  0999 V2000
    0.4085   -0.5697    4.3710 C   0  0  0  0  0  0  0  0  0  0  0  0
    1.2611    0.5396    4.3877 C   0  0  0  0  0  0  0  0  0  0  0  0
    1.9868    0.8894    3.2486 C   0  0  0  0  0  0  0  0  0  0  0  0
    1.8458    0.1218    2.0846 C   0  0  0  0  0  0  0  0  0  0  0  0
    2.5816    0.4957    0.9207 N   0  0  0  0  0  0  0  0  0  0  0  0
    2.7940    1.8027    0.6326 N   0  0  0  0  0  0  0  0  0  0  0  0
    3.5043    1.8399   -0.4363 N   0  0  0  0  0  0  0  0  0  0  0  0
    3.7851    0.5966   -0.8766 N   0  0  0  0  0  0  0  0  0  0  0  0
    3.2137   -0.2441   -0.0339 C   0  0  0  0  0  0  0  0  0  0  0  0
    3.3099   -1.7370   -0.1311 C   0  0  0  0  0  0  0  0  0  0  0  0
    2.1301   -2.3586   -0.7326 N   0  0  0  0  0  0  0  0  0  0  0  0
    1.8392   -1.9561   -2.1128 C   0  0  0  0  0  0  0  0  0  0  0  0
    2.7816   -2.5419   -3.1713 C   0  0  0  0  0  0  0  0  0  0  0  0
    2.7671   -4.3770   -3.1795 S   0  0  0  0  0  0  0  0  0  0  0  0
    3.0383   -4.6305   -1.3837 C   0  0  0  0  0  0  0  0  0  0  0  0
    2.0615   -3.8070   -0.5340 C   0  0  0  0  0  0  0  0  0  0  0  0
    0.9850   -0.9815    2.0496 C   0  0  0  0  0  0  0  0  0  0  0  0
    0.2747   -1.3256    3.2032 C   0  0  0  0  0  0  0  0  0  0  0  0
   -0.1547   -0.8405    5.2672 H   0  0  0  0  0  0  0  0  0  0  0  0
    1.3667    1.1368    5.2965 H   0  0  0  0  0  0  0  0  0  0  0  0
    2.6537    1.7522    3.2446 H   0  0  0  0  0  0  0  0  0  0  0  0
    3.4280   -2.1554    0.8817 H   0  0  0  0  0  0  0  0  0  0  0  0
    4.2541   -1.9361   -0.6744 H   0  0  0  0  0  0  0  0  0  0  0  0
    1.8717   -0.8570   -2.1748 H   0  0  0  0  0  0  0  0  0  0  0  0
    0.8064   -2.2689   -2.3406 H   0  0  0  0  0  0  0  0  0  0  0  0
    3.8122   -2.1747   -3.0379 H   0  0  0  0  0  0  0  0  0  0  0  0
    2.4566   -2.2361   -4.1775 H   0  0  0  0  0  0  0  0  0  0  0  0
    4.0869   -4.4017   -1.1294 H   0  0  0  0  0  0  0  0  0  0  0  0
    2.8859   -5.7061   -1.2051 H   0  0  0  0  0  0  0  0  0  0  0  0
    2.2354   -4.0186    0.5360 H   0  0  0  0  0  0  0  0  0  0  0  0
    1.0337   -4.1323   -0.7689 H   0  0  0  0  0  0  0  0  0  0  0  0
    0.8742   -1.5462    1.1206 H   0  0  0  0  0  0  0  0  0  0  0  0
   -0.3994   -2.1853    3.1808 H   0  0  0  0  0  0  0  0  0  0  0  0
  1  2  2  0
  1 18  1  0
  1 19  1  0
  2  3  1  0
  2 20  1  0
  3  4  2  0
  3 21  1  0
  4  5  1  0
  4 17  1  0
  5  6  1  0
  5  9  1  0
  6  7  2  0
  7  8  1  0
  8  9  2  0
  9 10  1  0
 10 11  1  0
 10 22  1  0
 10 23  1  0
 11 12  1  0
 11 16  1  0
 12 13  1  0
 12 24  1  0
 12 25  1  0
 13 14  1  0
 13 26  1  0
 13 27  1  0
 14 15  1  0
 15 16  1  0
 15 28  1  0
 15 29  1  0
 16 30  1  0
 16 31  1  0
 17 18  2  0
 17 32  1  0
 18 33  1  0
M  END

