
     RDKit          3D

 27 30  0  0  0  0  0  0  0  0999 V2000
   -4.5780    0.1995    0.7438 C   0  0  0  0  0  0  0  0  0  0  0  0
   -3.6313    1.0593    0.7826 N   0  0  0  0  0  0  0  0  0  0  0  0
   -2.4260    0.6653    0.2715 N   0  0  0  0  0  0  0  0  0  0  0  0
   -1.9242   -0.6253    0.1659 C   0  0  0  0  0  0  0  0  0  0  0  0
   -0.6544   -0.6003   -0.1296 N   0  0  0  0  0  0  0  0  0  0  0  0
   -0.2842    0.7195   -0.2399 N   0  0  0  0  0  0  0  0  0  0  0  0
   -1.3300    1.4766    0.0066 C   0  0  0  0  0  0  0  0  0  0  0  0
   -1.3136    2.9299   -0.0560 C   0  0  0  0  0  0  0  0  0  0  0  0
   -2.4253    3.6806   -0.0647 N   0  0  0  0  0  0  0  0  0  0  0  0
   -1.9924    4.9506   -0.1407 N   0  0  0  0  0  0  0  0  0  0  0  0
   -2.6766    5.6965   -0.1688 H   0  0  0  0  0  0  0  0  0  0  0  0
   -0.6375    5.0323   -0.1981 C   0  0  0  0  0  0  0  0  0  0  0  0
   -0.1533    3.7474   -0.1473 C   0  0  0  0  0  0  0  0  0  0  0  0
    1.3481    3.7286   -0.1552 C   0  0  0  0  0  0  0  0  0  0  0  0
    1.6869    5.2050   -0.5486 C   0  0  0  0  0  0  0  0  0  0  0  0
    0.4285    6.0846   -0.2394 C   0  0  0  0  0  0  0  0  0  0  0  0
   -2.9272   -2.0103    0.5492 S   0  0  0  0  0  0  0  0  0  0  0  0
   -4.5045   -1.1658    0.1133 C   0  0  0  0  0  0  0  0  0  0  0  0
   -5.5216    0.5228    1.2002 H   0  0  0  0  0  0  0  0  0  0  0  0
    1.7718    2.9963   -0.8582 H   0  0  0  0  0  0  0  0  0  0  0  0
    1.7472    3.4673    0.8412 H   0  0  0  0  0  0  0  0  0  0  0  0
    1.8869    5.2486   -1.6310 H   0  0  0  0  0  0  0  0  0  0  0  0
    2.5872    5.5825   -0.0412 H   0  0  0  0  0  0  0  0  0  0  0  0
    0.2669    6.8642   -1.0017 H   0  0  0  0  0  0  0  0  0  0  0  0
    0.5172    6.6024    0.7334 H   0  0  0  0  0  0  0  0  0  0  0  0
   -5.3190   -1.8102    0.4697 H   0  0  0  0  0  0  0  0  0  0  0  0
   -4.5849   -1.0876   -0.9856 H   0  0  0  0  0  0  0  0  0  0  0  0
  1  2  2  0
  1 18  1  0
  1 19  1  0
  2  3  1  0
  3  4  1  0
  3  7  1  0
  4  5  2  0
  4 17  1  0
  5  6  1  0
  6  7  2  0
  7  8  1  0
  8  9  2  0
  8 13  1  0
  9 10  1  0
 10 11  1  0
 10 12  1  0
 12 13  2  0
 12 16  1  0
 13 14  1  0
 14 15  1  0
 14 20  1  0
 14 21  1  0
 15 16  1  0
 15 22  1  0
 15 23  1  0
 16 24  1  0
 16 25  1  0
 17 18  1  0
 18 26  1  0
 18 27  1  0
M  END

