
     RDKit          3D

 30 33  0  0  0  0  0  0  0  0999 V2000
    1.5917    0.1951    1.7290 N   0  0  0  0  0  0  0  0  0  0  0  0
    2.7231   -0.0242    1.0147 C   0  0  0  0  0  0  0  0  0  0  0  0
    2.9817   -1.0022    0.3601 O   0  0  0  0  0  0  0  0  0  0  0  0
    3.5340    1.0905    1.0966 O   0  0  0  0  0  0  0  0  0  0  0  0
    4.8561    0.9575    0.7646 C   0  0  0  0  0  0  0  0  0  0  0  0
    5.7681    0.5844    1.7024 N   0  0  0  0  0  0  0  0  0  0  0  0
    6.9292    0.6575    1.1033 C   0  0  0  0  0  0  0  0  0  0  0  0
    6.8145    1.0773   -0.2047 N   0  0  0  0  0  0  0  0  0  0  0  0
    5.4519    1.2594   -0.4403 C   0  0  0  0  0  0  0  0  0  0  0  0
    4.9507    1.7215   -1.7650 C   0  0  2  0  0  0  0  0  0  0  0  0
    5.1335    2.8090   -1.8854 H   0  0  0  0  0  0  0  0  0  0  0  0
    3.5238    1.3121   -2.2376 C   0  0  0  0  0  0  0  0  0  0  0  0
    4.1739    0.7808   -3.5461 C   0  0  0  0  0  0  0  0  0  0  0  0
    5.4765    0.9751   -2.9167 N   0  0  0  0  0  0  0  0  0  0  0  0
    6.7280    0.8668   -3.4320 C   0  0  0  0  0  0  0  0  0  0  0  0
    6.9512    0.5068   -4.5792 O   0  0  0  0  0  0  0  0  0  0  0  0
    7.8250    1.2115   -2.4857 C   0  0  0  0  0  0  0  0  0  0  0  0
    9.3893    1.4816   -3.1948 S   0  0  0  0  0  0  0  0  0  0  0  0
   10.1050    1.7306   -1.6509 C   0  0  0  0  0  0  0  0  0  0  0  0
    9.2021    1.6066   -0.6265 C   0  0  0  0  0  0  0  0  0  0  0  0
    7.8871    1.2963   -1.0988 C   0  0  0  0  0  0  0  0  0  0  0  0
    0.9185   -0.5561    1.7927 H   0  0  0  0  0  0  0  0  0  0  0  0
    1.5273    0.9853    2.3569 H   0  0  0  0  0  0  0  0  0  0  0  0
    7.8908    0.3967    1.5418 H   0  0  0  0  0  0  0  0  0  0  0  0
    2.8045    2.1340   -2.3414 H   0  0  0  0  0  0  0  0  0  0  0  0
    3.1005    0.5039   -1.6302 H   0  0  0  0  0  0  0  0  0  0  0  0
    4.0277    1.4164   -4.4371 H   0  0  0  0  0  0  0  0  0  0  0  0
    3.9555   -0.2638   -3.8170 H   0  0  0  0  0  0  0  0  0  0  0  0
   11.1637    1.9734   -1.5681 H   0  0  0  0  0  0  0  0  0  0  0  0
    9.4548    1.7476    0.4241 H   0  0  0  0  0  0  0  0  0  0  0  0
  1  2  1  0
  1 22  1  0
  1 23  1  0
  2  3  2  0
  2  4  1  0
  4  5  1  0
  5  6  1  0
  5  9  2  0
  6  7  2  0
  7  8  1  0
  7 24  1  0
  8  9  1  0
  8 21  1  0
  9 10  1  0
 10 11  1  6
 10 12  1  0
 10 14  1  0
 12 13  1  0
 12 25  1  0
 12 26  1  0
 13 14  1  0
 13 27  1  0
 13 28  1  0
 14 15  1  0
 15 16  2  0
 15 17  1  0
 17 18  1  0
 17 21  2  0
 18 19  1  0
 19 20  2  0
 19 29  1  0
 20 21  1  0
 20 30  1  0
M  END

