
     RDKit          3D

 37 37  0  0  0  0  0  0  0  0999 V2000
    0.9896    0.3855    0.0846 C   0  0  0  0  0  0  0  0  0  0  0  0
    2.5013    0.1900   -0.0944 C   0  0  1  0  0  0  0  0  0  0  0  0
    2.8754   -1.2575   -0.4752 C   0  0  0  0  0  0  0  0  0  0  0  0
    2.5271   -1.5874   -1.9321 C   0  0  2  0  0  0  0  0  0  0  0  0
    2.9693   -2.9953   -2.3243 C   0  0  0  0  0  0  0  0  0  0  0  0
    3.6627   -3.7061   -1.6497 O   0  0  0  0  0  0  0  0  0  0  0  0
    2.5404   -3.4111   -3.5396 O   0  0  0  0  0  0  0  0  0  0  0  0
    3.1579   -0.5314   -2.8699 C   0  0  0  0  0  0  0  0  0  0  0  0
    2.7443    0.8108   -2.4951 N   0  0  0  0  0  0  0  0  0  0  0  0
    1.7730    1.4197   -3.2780 C   0  0  0  0  0  0  0  0  0  0  0  0
    1.2514    0.8476   -4.2297 O   0  0  0  0  0  0  0  0  0  0  0  0
    1.4223    2.7094   -2.9345 N   0  0  0  0  0  0  0  0  0  0  0  0
    0.5244    3.4657   -3.8012 C   0  0  0  0  0  0  0  0  0  0  0  0
   -0.9551    3.1142   -3.6097 C   0  0  0  0  0  0  0  0  0  0  0  0
   -1.4677    3.2908   -2.1680 C   0  0  0  0  0  0  0  0  0  0  0  0
   -1.3054    4.6541   -1.6535 C   0  0  0  0  0  0  0  0  0  0  0  0
   -1.1436    5.7352   -1.2682 N   0  0  0  0  0  0  0  0  0  0  0  0
    3.0980    1.1750   -1.1254 C   0  0  0  0  0  0  0  0  0  0  0  0
    0.5905   -0.3170    0.8333 H   0  0  0  0  0  0  0  0  0  0  0  0
    0.4341    0.2198   -0.8524 H   0  0  0  0  0  0  0  0  0  0  0  0
    0.7597    1.4062    0.4310 H   0  0  0  0  0  0  0  0  0  0  0  0
    2.9843    0.4147    0.8728 H   0  0  0  0  0  0  0  0  0  0  0  0
    2.3855   -1.9728    0.2039 H   0  0  0  0  0  0  0  0  0  0  0  0
    3.9593   -1.4118   -0.3430 H   0  0  0  0  0  0  0  0  0  0  0  0
    1.4332   -1.5377   -2.0829 H   0  0  0  0  0  0  0  0  0  0  0  0
    1.9702   -2.7445   -3.9508 H   0  0  0  0  0  0  0  0  0  0  0  0
    2.8704   -0.6890   -3.9158 H   0  0  0  0  0  0  0  0  0  0  0  0
    4.2587   -0.6009   -2.7984 H   0  0  0  0  0  0  0  0  0  0  0  0
    2.0661    3.2467   -2.3692 H   0  0  0  0  0  0  0  0  0  0  0  0
    0.7883    3.2927   -4.8572 H   0  0  0  0  0  0  0  0  0  0  0  0
    0.6858    4.5330   -3.5842 H   0  0  0  0  0  0  0  0  0  0  0  0
   -1.1118    2.0660   -3.9054 H   0  0  0  0  0  0  0  0  0  0  0  0
   -1.5520    3.7381   -4.2953 H   0  0  0  0  0  0  0  0  0  0  0  0
   -0.9257    2.6096   -1.4919 H   0  0  0  0  0  0  0  0  0  0  0  0
   -2.5344    3.0204   -2.1059 H   0  0  0  0  0  0  0  0  0  0  0  0
    2.7643    2.1958   -0.8978 H   0  0  0  0  0  0  0  0  0  0  0  0
    4.1998    1.1714   -1.0373 H   0  0  0  0  0  0  0  0  0  0  0  0
  1  2  1  0
  1 19  1  0
  1 20  1  0
  1 21  1  0
  2  3  1  0
  2 18  1  0
  2 22  1  1
  3  4  1  0
  3 23  1  0
  3 24  1  0
  4  5  1  0
  4  8  1  0
  4 25  1  1
  5  6  2  0
  5  7  1  0
  7 26  1  0
  8  9  1  0
  8 27  1  0
  8 28  1  0
  9 10  1  0
  9 18  1  0
 10 11  2  0
 10 12  1  0
 12 13  1  0
 12 29  1  0
 13 14  1  0
 13 30  1  0
 13 31  1  0
 14 15  1  0
 14 32  1  0
 14 33  1  0
 15 16  1  0
 15 34  1  0
 15 35  1  0
 16 17  3  0
 18 36  1  0
 18 37  1  0
M  END

