
     RDKit          3D

 49 50  0  0  0  0  0  0  0  0999 V2000
    2.1277   -1.1177    0.4797 C   0  0  0  0  0  0  0  0  0  0  0  0
    2.6599    0.2246    0.5957 N   0  0  0  0  0  0  0  0  0  0  0  0
    2.9199    0.9799   -0.6282 C   0  0  1  0  0  0  0  0  0  0  0  0
    2.1612    2.3337   -0.5865 C   0  0  0  0  0  0  0  0  0  0  0  0
    0.6768    2.1826   -0.4275 C   0  0  0  0  0  0  0  0  0  0  0  0
   -0.3058    1.9867   -1.3920 C   0  0  0  0  0  0  0  0  0  0  0  0
   -1.5281    1.9114   -0.6761 C   0  0  0  0  0  0  0  0  0  0  0  0
   -2.9157    1.7073   -1.2053 C   0  0  0  0  0  0  0  0  0  0  0  0
   -1.3115    2.0554    0.6301 N   0  0  0  0  0  0  0  0  0  0  0  0
    0.0192    2.2129    0.7684 N   0  0  0  0  0  0  0  0  0  0  0  0
    0.5780    2.4281    2.0876 C   0  0  0  0  0  0  0  0  0  0  0  0
    4.4580    1.1558   -0.8722 C   0  0  1  0  0  0  0  0  0  0  0  0
    4.9004    1.7342    0.3709 O   0  0  0  0  0  0  0  0  0  0  0  0
    6.2191    2.1984    0.5164 C   0  0  0  0  0  0  0  0  0  0  0  0
    5.1434   -0.2138   -1.0978 C   0  0  0  0  0  0  0  0  0  0  0  0
    4.8019   -0.8566   -2.4526 C   0  0  0  0  0  0  0  0  0  0  0  0
    5.0780    0.0678   -3.6568 C   0  0  2  0  0  0  0  0  0  0  0  0
    6.5751    0.1847   -3.9802 C   0  0  0  0  0  0  0  0  0  0  0  0
    4.4120    1.4405   -3.4236 C   0  0  0  0  0  0  0  0  0  0  0  0
    4.7965    2.0638   -2.0729 C   0  0  0  0  0  0  0  0  0  0  0  0
    1.9492   -1.5306    1.4857 H   0  0  0  0  0  0  0  0  0  0  0  0
    2.7736   -1.8414   -0.0652 H   0  0  0  0  0  0  0  0  0  0  0  0
    1.1530   -1.0957   -0.0344 H   0  0  0  0  0  0  0  0  0  0  0  0
    3.4560    0.2919    1.2240 H   0  0  0  0  0  0  0  0  0  0  0  0
    2.5080    0.4092   -1.4752 H   0  0  0  0  0  0  0  0  0  0  0  0
    2.3317    2.8887   -1.5206 H   0  0  0  0  0  0  0  0  0  0  0  0
    2.5873    2.9394    0.2274 H   0  0  0  0  0  0  0  0  0  0  0  0
   -0.1553    1.9164   -2.4681 H   0  0  0  0  0  0  0  0  0  0  0  0
   -3.0097    0.7497   -1.7447 H   0  0  0  0  0  0  0  0  0  0  0  0
   -3.2046    2.5062   -1.9089 H   0  0  0  0  0  0  0  0  0  0  0  0
   -3.6333    1.7054   -0.3726 H   0  0  0  0  0  0  0  0  0  0  0  0
   -0.2079    2.1913    2.8149 H   0  0  0  0  0  0  0  0  0  0  0  0
    0.8887    3.4777    2.2289 H   0  0  0  0  0  0  0  0  0  0  0  0
    1.4406    1.7647    2.2346 H   0  0  0  0  0  0  0  0  0  0  0  0
    6.3523    2.4414    1.5814 H   0  0  0  0  0  0  0  0  0  0  0  0
    6.4186    3.1156   -0.0681 H   0  0  0  0  0  0  0  0  0  0  0  0
    6.9807    1.4439    0.2440 H   0  0  0  0  0  0  0  0  0  0  0  0
    4.8803   -0.8956   -0.2752 H   0  0  0  0  0  0  0  0  0  0  0  0
    6.2339   -0.0674   -1.0339 H   0  0  0  0  0  0  0  0  0  0  0  0
    3.7375   -1.1453   -2.4629 H   0  0  0  0  0  0  0  0  0  0  0  0
    5.3674   -1.7975   -2.5636 H   0  0  0  0  0  0  0  0  0  0  0  0
    4.5971   -0.3875   -4.5406 H   0  0  0  0  0  0  0  0  0  0  0  0
    7.1576    0.6191   -3.1520 H   0  0  0  0  0  0  0  0  0  0  0  0
    6.7392    0.8214   -4.8649 H   0  0  0  0  0  0  0  0  0  0  0  0
    7.0076   -0.8053   -4.1979 H   0  0  0  0  0  0  0  0  0  0  0  0
    3.3160    1.3243   -3.4819 H   0  0  0  0  0  0  0  0  0  0  0  0
    4.6850    2.1330   -4.2380 H   0  0  0  0  0  0  0  0  0  0  0  0
    4.3321    3.0537   -1.9530 H   0  0  0  0  0  0  0  0  0  0  0  0
    5.8838    2.2427   -2.0692 H   0  0  0  0  0  0  0  0  0  0  0  0
  1  2  1  0
  1 21  1  0
  1 22  1  0
  1 23  1  0
  2  3  1  0
  2 24  1  0
  3  4  1  0
  3 12  1  0
  3 25  1  6
  4  5  1  0
  4 26  1  0
  4 27  1  0
  5  6  2  0
  5 10  1  0
  6  7  1  0
  6 28  1  0
  7  8  1  0
  7  9  2  0
  8 29  1  0
  8 30  1  0
  8 31  1  0
  9 10  1  0
 10 11  1  0
 11 32  1  0
 11 33  1  0
 11 34  1  0
 12 13  1  1
 12 15  1  0
 12 20  1  0
 13 14  1  0
 14 35  1  0
 14 36  1  0
 14 37  1  0
 15 16  1  0
 15 38  1  0
 15 39  1  0
 16 17  1  0
 16 40  1  0
 16 41  1  0
 17 18  1  0
 17 19  1  0
 17 42  1  6
 18 43  1  0
 18 44  1  0
 18 45  1  0
 19 20  1  0
 19 46  1  0
 19 47  1  0
 20 48  1  0
 20 49  1  0
M  END

