
     RDKit          3D

 39 40  0  0  0  0  0  0  0  0999 V2000
    8.2098    6.2923   -6.5312 C   0  0  0  0  0  0  0  0  0  0  0  0
    7.2108    5.3214   -6.3642 O   0  0  0  0  0  0  0  0  0  0  0  0
    6.5254    5.4018   -5.1366 C   0  0  0  0  0  0  0  0  0  0  0  0
    5.5212    4.2631   -5.0790 C   0  0  0  0  0  0  0  0  0  0  0  0
    6.1691    2.9697   -5.1766 N   0  0  0  0  0  0  0  0  0  0  0  0
    5.9652    1.9775   -4.2704 C   0  0  0  0  0  0  0  0  0  0  0  0
    5.1984    2.0521   -3.3249 O   0  0  0  0  0  0  0  0  0  0  0  0
    6.7641    0.6872   -4.5244 C   0  0  0  0  0  0  0  0  0  0  0  0
    8.1866    0.8647   -4.3921 O   0  0  0  0  0  0  0  0  0  0  0  0
    8.8791    1.2442   -5.4706 C   0  0  0  0  0  0  0  0  0  0  0  0
    8.3829    1.5292   -6.5450 O   0  0  0  0  0  0  0  0  0  0  0  0
   10.3247    1.2894   -5.2228 C   0  0  0  0  0  0  0  0  0  0  0  0
   11.1278    1.0187   -4.1229 C   0  0  0  0  0  0  0  0  0  0  0  0
   12.4516    1.2675   -4.5722 C   0  0  0  0  0  0  0  0  0  0  0  0
   13.7196    1.1466   -3.8311 C   0  0  0  0  0  0  0  0  0  0  0  0
   13.7427    0.7494   -2.4834 C   0  0  0  0  0  0  0  0  0  0  0  0
   14.9453    0.6360   -1.7840 C   0  0  0  0  0  0  0  0  0  0  0  0
   16.1468    0.9228   -2.4366 C   0  0  0  0  0  0  0  0  0  0  0  0
   17.7953    0.7711   -1.4899 Br  0  0  0  0  0  0  0  0  0  0  0  0
   16.1515    1.3201   -3.7775 C   0  0  0  0  0  0  0  0  0  0  0  0
   14.9436    1.4295   -4.4646 C   0  0  0  0  0  0  0  0  0  0  0  0
   12.4416    1.6606   -5.8586 N   0  0  0  0  0  0  0  0  0  0  0  0
   11.1698    1.6666   -6.2233 N   0  0  0  0  0  0  0  0  0  0  0  0
   10.8893    1.9277   -7.1636 H   0  0  0  0  0  0  0  0  0  0  0  0
    8.6729    6.1339   -7.5161 H   0  0  0  0  0  0  0  0  0  0  0  0
    8.9970    6.2171   -5.7536 H   0  0  0  0  0  0  0  0  0  0  0  0
    7.7974    7.3212   -6.4980 H   0  0  0  0  0  0  0  0  0  0  0  0
    5.9938    6.3721   -5.0416 H   0  0  0  0  0  0  0  0  0  0  0  0
    7.2351    5.3279   -4.2861 H   0  0  0  0  0  0  0  0  0  0  0  0
    4.7939    4.3886   -5.9014 H   0  0  0  0  0  0  0  0  0  0  0  0
    4.9660    4.2856   -4.1310 H   0  0  0  0  0  0  0  0  0  0  0  0
    6.8020    2.8083   -5.9577 H   0  0  0  0  0  0  0  0  0  0  0  0
    6.5393    0.2829   -5.5234 H   0  0  0  0  0  0  0  0  0  0  0  0
    6.4801   -0.0260   -3.7437 H   0  0  0  0  0  0  0  0  0  0  0  0
   10.7855    0.6908   -3.1461 H   0  0  0  0  0  0  0  0  0  0  0  0
   12.8107    0.5230   -1.9612 H   0  0  0  0  0  0  0  0  0  0  0  0
   14.9481    0.3266   -0.7377 H   0  0  0  0  0  0  0  0  0  0  0  0
   17.0943    1.5421   -4.2802 H   0  0  0  0  0  0  0  0  0  0  0  0
   14.9371    1.7385   -5.5110 H   0  0  0  0  0  0  0  0  0  0  0  0
  1  2  1  0
  1 25  1  0
  1 26  1  0
  1 27  1  0
  2  3  1  0
  3  4  1  0
  3 28  1  0
  3 29  1  0
  4  5  1  0
  4 30  1  0
  4 31  1  0
  5  6  1  0
  5 32  1  0
  6  7  2  0
  6  8  1  0
  8  9  1  0
  8 33  1  0
  8 34  1  0
  9 10  1  0
 10 11  2  0
 10 12  1  0
 12 13  2  0
 12 23  1  0
 13 14  1  0
 13 35  1  0
 14 15  1  0
 14 22  2  0
 15 16  2  0
 15 21  1  0
 16 17  1  0
 16 36  1  0
 17 18  2  0
 17 37  1  0
 18 19  1  0
 18 20  1  0
 20 21  2  0
 20 38  1  0
 21 39  1  0
 22 23  1  0
 23 24  1  0
M  END

