
     RDKit          3D

 47 48  0  0  0  0  0  0  0  0999 V2000
    2.7156    0.8185    0.9674 O   0  0  0  0  0  0  0  0  0  0  0  0
    2.1454    0.2542   -0.2562 S   0  0  1  0  0  0  0  0  0  0  0  0
    2.2407   -1.1644   -0.6005 O   0  0  0  0  0  0  0  0  0  0  0  0
    0.5078    0.6063   -0.1630 N   0  0  0  0  0  0  0  0  0  0  0  0
   -0.4262    0.1566   -1.1853 C   0  0  0  0  0  0  0  0  0  0  0  0
   -1.8354    0.0103   -0.6061 C   0  0  0  0  0  0  0  0  0  0  0  0
   -2.8542   -0.4357   -1.6425 C   0  0  0  0  0  0  0  0  0  0  0  0
   -2.4508   -1.6808   -2.1748 O   0  0  0  0  0  0  0  0  0  0  0  0
   -3.2897   -2.1830   -3.1656 C   0  0  0  0  0  0  0  0  0  0  0  0
   -2.7077   -3.4840   -3.6905 C   0  0  1  0  0  0  0  0  0  0  0  0
   -1.4900   -3.3060   -4.2182 F   0  0  0  0  0  0  0  0  0  0  0  0
   -2.6117   -4.4121   -2.7321 F   0  0  0  0  0  0  0  0  0  0  0  0
   -3.5095   -3.9692   -4.6573 F   0  0  0  0  0  0  0  0  0  0  0  0
    2.8134    1.1831   -1.6374 C   0  0  0  0  0  0  0  0  0  0  0  0
    3.3032    2.4739   -1.4276 C   0  0  0  0  0  0  0  0  0  0  0  0
    3.8072    3.2164   -2.4978 C   0  0  0  0  0  0  0  0  0  0  0  0
    3.8314    2.6578   -3.7896 C   0  0  0  0  0  0  0  0  0  0  0  0
    4.3116    3.2742   -4.8911 O   0  0  0  0  0  0  0  0  0  0  0  0
    4.8623    4.6001   -4.8270 C   0  0  1  0  0  0  0  0  0  0  0  0
    5.6428    4.8267   -6.1439 C   0  0  0  0  0  0  0  0  0  0  0  0
    4.7919    5.8018   -6.9987 C   0  0  0  0  0  0  0  0  0  0  0  0
    3.4086    5.8133   -6.3258 C   0  0  0  0  0  0  0  0  0  0  0  0
    3.7483    5.6627   -4.8370 C   0  0  0  0  0  0  0  0  0  0  0  0
    3.3454    1.3488   -3.9851 C   0  0  0  0  0  0  0  0  0  0  0  0
    2.8444    0.6131   -2.9187 C   0  0  0  0  0  0  0  0  0  0  0  0
    0.3546    1.5339    0.2282 H   0  0  0  0  0  0  0  0  0  0  0  0
   -0.0829   -0.8247   -1.5407 H   0  0  0  0  0  0  0  0  0  0  0  0
   -0.4476    0.8371   -2.0615 H   0  0  0  0  0  0  0  0  0  0  0  0
   -2.1770    0.9724   -0.1845 H   0  0  0  0  0  0  0  0  0  0  0  0
   -1.8078   -0.7130    0.2245 H   0  0  0  0  0  0  0  0  0  0  0  0
   -2.9357    0.3150   -2.4574 H   0  0  0  0  0  0  0  0  0  0  0  0
   -3.8583   -0.5211   -1.1795 H   0  0  0  0  0  0  0  0  0  0  0  0
   -3.3882   -1.4917   -4.0267 H   0  0  0  0  0  0  0  0  0  0  0  0
   -4.3094   -2.3998   -2.7886 H   0  0  0  0  0  0  0  0  0  0  0  0
    3.3058    2.8910   -0.4186 H   0  0  0  0  0  0  0  0  0  0  0  0
    4.1838    4.2218   -2.3124 H   0  0  0  0  0  0  0  0  0  0  0  0
    5.5154    4.6684   -3.9422 H   0  0  0  0  0  0  0  0  0  0  0  0
    5.7755    3.8512   -6.6336 H   0  0  0  0  0  0  0  0  0  0  0  0
    6.6477    5.2263   -5.9418 H   0  0  0  0  0  0  0  0  0  0  0  0
    4.7509    5.5093   -8.0588 H   0  0  0  0  0  0  0  0  0  0  0  0
    5.2273    6.8145   -6.9644 H   0  0  0  0  0  0  0  0  0  0  0  0
    2.8160    4.9437   -6.6552 H   0  0  0  0  0  0  0  0  0  0  0  0
    2.8221    6.7179   -6.5489 H   0  0  0  0  0  0  0  0  0  0  0  0
    2.8924    5.3869   -4.2030 H   0  0  0  0  0  0  0  0  0  0  0  0
    4.1591    6.6099   -4.4447 H   0  0  0  0  0  0  0  0  0  0  0  0
    3.3901    0.9272   -4.9911 H   0  0  0  0  0  0  0  0  0  0  0  0
    2.4972   -0.4115   -3.0636 H   0  0  0  0  0  0  0  0  0  0  0  0
  1  2  2  0
  2  3  2  0
  2  4  1  1
  2 14  1  0
  4  5  1  0
  4 26  1  0
  5  6  1  0
  5 27  1  0
  5 28  1  0
  6  7  1  0
  6 29  1  0
  6 30  1  0
  7  8  1  0
  7 31  1  0
  7 32  1  0
  8  9  1  0
  9 10  1  0
  9 33  1  0
  9 34  1  0
 10 11  1  6
 10 12  1  0
 10 13  1  0
 14 15  2  0
 14 25  1  0
 15 16  1  0
 15 35  1  0
 16 17  2  0
 16 36  1  0
 17 18  1  0
 17 24  1  0
 18 19  1  0
 19 20  1  0
 19 23  1  0
 19 37  1  1
 20 21  1  0
 20 38  1  0
 20 39  1  0
 21 22  1  0
 21 40  1  0
 21 41  1  0
 22 23  1  0
 22 42  1  0
 22 43  1  0
 23 44  1  0
 23 45  1  0
 24 25  2  0
 24 46  1  0
 25 47  1  0
M  END

