
     RDKit          3D

 36 37  0  0  0  0  0  0  0  0999 V2000
    5.2163    0.3855    0.5307 C   0  0  0  0  0  0  0  0  0  0  0  0
    4.4697   -0.4824   -0.3015 O   0  0  0  0  0  0  0  0  0  0  0  0
    3.8972   -0.0176   -1.4293 C   0  0  0  0  0  0  0  0  0  0  0  0
    3.9980    1.3147   -1.8725 C   0  0  0  0  0  0  0  0  0  0  0  0
    3.3753    1.6993   -3.0563 C   0  0  0  0  0  0  0  0  0  0  0  0
    2.6470    0.7734   -3.8179 C   0  0  0  0  0  0  0  0  0  0  0  0
    1.9895    1.1901   -5.0759 C   0  0  0  0  0  0  0  0  0  0  0  0
    2.0224    2.3100   -5.5344 O   0  0  0  0  0  0  0  0  0  0  0  0
    2.5520   -0.5530   -3.3649 C   0  0  0  0  0  0  0  0  0  0  0  0
    3.1668   -0.9688   -2.1866 C   0  0  0  0  0  0  0  0  0  0  0  0
    3.0533   -2.3849   -1.6916 C   0  0  0  0  0  0  0  0  0  0  0  0
    2.1126   -2.4199   -0.6184 O   0  0  0  0  0  0  0  0  0  0  0  0
    1.9447   -3.5573    0.1190 C   0  0  0  0  0  0  0  0  0  0  0  0
    2.5634   -4.7686   -0.2306 C   0  0  0  0  0  0  0  0  0  0  0  0
    2.3616   -5.9143    0.5426 C   0  0  0  0  0  0  0  0  0  0  0  0
    1.5418   -5.8687    1.6706 C   0  0  0  0  0  0  0  0  0  0  0  0
    0.9278   -4.6651    2.0135 C   0  0  0  0  0  0  0  0  0  0  0  0
    1.1068   -3.4946    1.2622 C   0  0  0  0  0  0  0  0  0  0  0  0
    0.3658   -2.2753    1.7830 C   0  0  0  0  0  0  0  0  0  0  0  0
    0.4824   -1.1194    1.0789 N   0  0  0  0  0  0  0  0  0  0  0  0
   -0.3083   -2.3485    2.8009 O   0  0  0  0  0  0  0  0  0  0  0  0
    5.5648   -0.2222    1.3754 H   0  0  0  0  0  0  0  0  0  0  0  0
    4.5937    1.2116    0.9149 H   0  0  0  0  0  0  0  0  0  0  0  0
    6.0892    0.8049    0.0013 H   0  0  0  0  0  0  0  0  0  0  0  0
    4.5607    2.0493   -1.2967 H   0  0  0  0  0  0  0  0  0  0  0  0
    3.4425    2.7287   -3.4163 H   0  0  0  0  0  0  0  0  0  0  0  0
    1.4346    0.3688   -5.6022 H   0  0  0  0  0  0  0  0  0  0  0  0
    1.9820   -1.2796   -3.9532 H   0  0  0  0  0  0  0  0  0  0  0  0
    4.0313   -2.7439   -1.3311 H   0  0  0  0  0  0  0  0  0  0  0  0
    2.7153   -3.0458   -2.5084 H   0  0  0  0  0  0  0  0  0  0  0  0
    3.2031   -4.8287   -1.1104 H   0  0  0  0  0  0  0  0  0  0  0  0
    2.8523   -6.8469    0.2516 H   0  0  0  0  0  0  0  0  0  0  0  0
    1.3812   -6.7624    2.2777 H   0  0  0  0  0  0  0  0  0  0  0  0
    0.2799   -4.5834    2.8882 H   0  0  0  0  0  0  0  0  0  0  0  0
    1.0310   -1.0746    0.2295 H   0  0  0  0  0  0  0  0  0  0  0  0
   -0.0329   -0.3181    1.4213 H   0  0  0  0  0  0  0  0  0  0  0  0
  1  2  1  0
  1 22  1  0
  1 23  1  0
  1 24  1  0
  2  3  1  0
  3  4  2  0
  3 10  1  0
  4  5  1  0
  4 25  1  0
  5  6  2  0
  5 26  1  0
  6  7  1  0
  6  9  1  0
  7  8  2  0
  7 27  1  0
  9 10  2  0
  9 28  1  0
 10 11  1  0
 11 12  1  0
 11 29  1  0
 11 30  1  0
 12 13  1  0
 13 14  2  0
 13 18  1  0
 14 15  1  0
 14 31  1  0
 15 16  2  0
 15 32  1  0
 16 17  1  0
 16 33  1  0
 17 18  2  0
 17 34  1  0
 18 19  1  0
 19 20  1  0
 19 21  2  0
 20 35  1  0
 20 36  1  0
M  END

