
     RDKit          3D

 51 53  0  0  0  0  0  0  0  0999 V2000
    3.8773    2.0524    0.9661 C   0  0  0  0  0  0  0  0  0  0  0  0
    4.4866    1.8023   -0.3305 N   0  0  0  0  0  0  0  0  0  0  0  0
    3.7294    0.9501   -1.2516 C   0  0  0  0  0  0  0  0  0  0  0  0
    2.6866    1.6873   -2.1010 C   0  0  0  0  0  0  0  0  0  0  0  0
    3.2846    2.5662   -3.2094 C   0  0  0  0  0  0  0  0  0  0  0  0
    2.2717    3.2765   -3.9732 N   0  0  0  0  0  0  0  0  0  0  0  0
    1.5873    2.7108   -4.9849 C   0  0  0  0  0  0  0  0  0  0  0  0
    1.7220    1.5647   -5.3959 O   0  0  0  0  0  0  0  0  0  0  0  0
    0.5743    3.6379   -5.6347 C   0  0  0  0  0  0  0  0  0  0  0  0
    0.3990    4.8470   -5.2103 N   0  0  0  0  0  0  0  0  0  0  0  0
   -0.5497    5.6177   -5.8662 C   0  0  0  0  0  0  0  0  0  0  0  0
   -0.7762    6.9437   -5.4403 C   0  0  0  0  0  0  0  0  0  0  0  0
   -1.7211    7.7329   -6.0828 C   0  0  0  0  0  0  0  0  0  0  0  0
   -2.4650    7.2246   -7.1646 C   0  0  0  0  0  0  0  0  0  0  0  0
   -2.2557    5.9209   -7.5978 C   0  0  0  0  0  0  0  0  0  0  0  0
   -1.3034    5.1106   -6.9581 C   0  0  0  0  0  0  0  0  0  0  0  0
   -1.0835    3.7247   -7.4215 C   0  0  0  0  0  0  0  0  0  0  0  0
   -1.6602    3.1735   -8.3378 O   0  0  0  0  0  0  0  0  0  0  0  0
   -0.1010    3.0690   -6.6712 N   0  0  0  0  0  0  0  0  0  0  0  0
    0.1397    2.1027   -6.8976 H   0  0  0  0  0  0  0  0  0  0  0  0
    5.7317    2.2201   -0.7129 C   0  0  0  0  0  0  0  0  0  0  0  0
    6.1638    2.0447   -1.8438 O   0  0  0  0  0  0  0  0  0  0  0  0
    6.6005    2.9573    0.3110 C   0  0  0  0  0  0  0  0  0  0  0  0
    6.7187    2.1896    1.4910 O   0  0  0  0  0  0  0  0  0  0  0  0
    7.4907    2.6513    2.5168 C   0  0  0  0  0  0  0  0  0  0  0  0
    8.2092    3.8551    2.4836 C   0  0  0  0  0  0  0  0  0  0  0  0
    8.9684    4.2348    3.5983 C   0  0  0  0  0  0  0  0  0  0  0  0
    9.0210    3.4322    4.7378 C   0  0  0  0  0  0  0  0  0  0  0  0
    8.3028    2.2290    4.7605 C   0  0  0  0  0  0  0  0  0  0  0  0
    7.5429    1.8375    3.6613 C   0  0  0  0  0  0  0  0  0  0  0  0
    3.9457    1.1721    1.6291 H   0  0  0  0  0  0  0  0  0  0  0  0
    2.8119    2.2990    0.8298 H   0  0  0  0  0  0  0  0  0  0  0  0
    4.3519    2.8956    1.4789 H   0  0  0  0  0  0  0  0  0  0  0  0
    3.2236    0.1790   -0.6471 H   0  0  0  0  0  0  0  0  0  0  0  0
    4.4518    0.4422   -1.9059 H   0  0  0  0  0  0  0  0  0  0  0  0
    2.0370    2.3023   -1.4526 H   0  0  0  0  0  0  0  0  0  0  0  0
    2.0338    0.9349   -2.5738 H   0  0  0  0  0  0  0  0  0  0  0  0
    3.8629    1.9371   -3.9025 H   0  0  0  0  0  0  0  0  0  0  0  0
    3.9824    3.3068   -2.7945 H   0  0  0  0  0  0  0  0  0  0  0  0
    2.0166    4.2358   -3.7526 H   0  0  0  0  0  0  0  0  0  0  0  0
   -0.1904    7.3221   -4.6004 H   0  0  0  0  0  0  0  0  0  0  0  0
   -1.8884    8.7590   -5.7453 H   0  0  0  0  0  0  0  0  0  0  0  0
   -3.2053    7.8559   -7.6617 H   0  0  0  0  0  0  0  0  0  0  0  0
   -2.8151    5.4953   -8.4336 H   0  0  0  0  0  0  0  0  0  0  0  0
    6.1732    3.9569    0.5286 H   0  0  0  0  0  0  0  0  0  0  0  0
    7.5772    3.1013   -0.1768 H   0  0  0  0  0  0  0  0  0  0  0  0
    8.1910    4.4983    1.6036 H   0  0  0  0  0  0  0  0  0  0  0  0
    9.5264    5.1742    3.5642 H   0  0  0  0  0  0  0  0  0  0  0  0
    9.6168    3.7366    5.6011 H   0  0  0  0  0  0  0  0  0  0  0  0
    8.3364    1.5877    5.6452 H   0  0  0  0  0  0  0  0  0  0  0  0
    6.9803    0.9016    3.6605 H   0  0  0  0  0  0  0  0  0  0  0  0
  1  2  1  0
  1 31  1  0
  1 32  1  0
  1 33  1  0
  2  3  1  0
  2 21  1  0
  3  4  1  0
  3 34  1  0
  3 35  1  0
  4  5  1  0
  4 36  1  0
  4 37  1  0
  5  6  1  0
  5 38  1  0
  5 39  1  0
  6  7  1  0
  6 40  1  0
  7  8  2  0
  7  9  1  0
  9 10  2  0
  9 19  1  0
 10 11  1  0
 11 12  2  0
 11 16  1  0
 12 13  1  0
 12 41  1  0
 13 14  2  0
 13 42  1  0
 14 15  1  0
 14 43  1  0
 15 16  2  0
 15 44  1  0
 16 17  1  0
 17 18  2  0
 17 19  1  0
 19 20  1  0
 21 22  2  0
 21 23  1  0
 23 24  1  0
 23 45  1  0
 23 46  1  0
 24 25  1  0
 25 26  2  0
 25 30  1  0
 26 27  1  0
 26 47  1  0
 27 28  2  0
 27 48  1  0
 28 29  1  0
 28 49  1  0
 29 30  2  0
 29 50  1  0
 30 51  1  0
M  END

