
     RDKit          3D

 45 47  0  0  0  0  0  0  0  0999 V2000
    1.2287    0.4301   -0.9152 C   0  0  0  0  0  0  0  0  0  0  0  0
    2.6971    0.5985   -0.5676 C   0  0  0  0  0  0  0  0  0  0  0  0
    3.5213    0.6333   -1.7545 O   0  0  0  0  0  0  0  0  0  0  0  0
    3.9282   -0.5353   -2.2555 C   0  0  0  0  0  0  0  0  0  0  0  0
    3.6888   -1.6218   -1.8025 O   0  0  0  0  0  0  0  0  0  0  0  0
    4.8224   -0.3059   -3.5004 C   0  0  1  0  0  0  0  0  0  0  0  0
    4.8931   -1.4828   -4.1679 F   0  0  0  0  0  0  0  0  0  0  0  0
    4.2026    0.5970   -4.3144 F   0  0  0  0  0  0  0  0  0  0  0  0
    6.2039    0.1776   -3.1254 C   0  0  0  0  0  0  0  0  0  0  0  0
    7.2182   -0.7394   -2.8428 C   0  0  0  0  0  0  0  0  0  0  0  0
    8.4901   -0.2961   -2.4696 C   0  0  0  0  0  0  0  0  0  0  0  0
    8.7517    1.0777   -2.3707 C   0  0  0  0  0  0  0  0  0  0  0  0
    9.9465    1.6047   -2.0291 O   0  0  0  0  0  0  0  0  0  0  0  0
   11.0544    0.7638   -1.7809 C   0  0  0  0  0  0  0  0  0  0  0  0
    7.7283    2.0183   -2.6465 C   0  0  0  0  0  0  0  0  0  0  0  0
    8.0203    3.4995   -2.5373 C   0  0  0  0  0  0  0  0  0  0  0  0
    8.1860    3.9562   -1.1543 N   0  0  0  0  0  0  0  0  0  0  0  0
    7.2060    3.8275   -0.1976 C   0  0  0  0  0  0  0  0  0  0  0  0
    7.6094    4.3515    1.0098 C   0  0  0  0  0  0  0  0  0  0  0  0
    8.9342    4.8473    0.8087 C   0  0  0  0  0  0  0  0  0  0  0  0
    9.7658    5.4473    1.6726 N   0  0  0  0  0  0  0  0  0  0  0  0
   10.9471    5.8001    1.1733 C   0  0  0  0  0  0  0  0  0  0  0  0
   11.8275    6.4526    1.9911 N   0  0  0  0  0  0  0  0  0  0  0  0
   11.3647    5.5913   -0.1017 N   0  0  0  0  0  0  0  0  0  0  0  0
   10.5534    5.0044   -0.9436 C   0  0  0  0  0  0  0  0  0  0  0  0
   11.1758    4.7787   -2.5819 Cl  0  0  0  0  0  0  0  0  0  0  0  0
    9.2721    4.5862   -0.5614 C   0  0  0  0  0  0  0  0  0  0  0  0
    6.4703    1.5514   -3.0196 C   0  0  0  0  0  0  0  0  0  0  0  0
    0.6209    0.4875    0.0019 H   0  0  0  0  0  0  0  0  0  0  0  0
    1.0462   -0.5478   -1.3846 H   0  0  0  0  0  0  0  0  0  0  0  0
    0.8932    1.2223   -1.6020 H   0  0  0  0  0  0  0  0  0  0  0  0
    3.0494   -0.2165    0.0817 H   0  0  0  0  0  0  0  0  0  0  0  0
    2.8859    1.5618   -0.0731 H   0  0  0  0  0  0  0  0  0  0  0  0
    7.0192   -1.8097   -2.9226 H   0  0  0  0  0  0  0  0  0  0  0  0
    9.2710   -1.0277   -2.2628 H   0  0  0  0  0  0  0  0  0  0  0  0
   11.9021    1.4295   -1.5745 H   0  0  0  0  0  0  0  0  0  0  0  0
   11.2928    0.1368   -2.6579 H   0  0  0  0  0  0  0  0  0  0  0  0
   10.8822    0.1114   -0.9070 H   0  0  0  0  0  0  0  0  0  0  0  0
    7.1983    4.0669   -3.0031 H   0  0  0  0  0  0  0  0  0  0  0  0
    8.9423    3.7475   -3.0735 H   0  0  0  0  0  0  0  0  0  0  0  0
    6.2639    3.3482   -0.4588 H   0  0  0  0  0  0  0  0  0  0  0  0
    7.0388    4.3850    1.9341 H   0  0  0  0  0  0  0  0  0  0  0  0
   11.6266    6.4634    2.9816 H   0  0  0  0  0  0  0  0  0  0  0  0
   12.7841    6.5475    1.6802 H   0  0  0  0  0  0  0  0  0  0  0  0
    5.6770    2.2670   -3.2460 H   0  0  0  0  0  0  0  0  0  0  0  0
  1  2  1  0
  1 29  1  0
  1 30  1  0
  1 31  1  0
  2  3  1  0
  2 32  1  0
  2 33  1  0
  3  4  1  0
  4  5  2  0
  4  6  1  0
  6  7  1  6
  6  8  1  0
  6  9  1  0
  9 10  2  0
  9 28  1  0
 10 11  1  0
 10 34  1  0
 11 12  2  0
 11 35  1  0
 12 13  1  0
 12 15  1  0
 13 14  1  0
 14 36  1  0
 14 37  1  0
 14 38  1  0
 15 16  1  0
 15 28  2  0
 16 17  1  0
 16 39  1  0
 16 40  1  0
 17 18  1  0
 17 27  1  0
 18 19  2  0
 18 41  1  0
 19 20  1  0
 19 42  1  0
 20 21  1  0
 20 27  2  0
 21 22  2  0
 22 23  1  0
 22 24  1  0
 23 43  1  0
 23 44  1  0
 24 25  2  0
 25 26  1  0
 25 27  1  0
 28 45  1  0
M  END

