
     RDKit          3D

 48 50  0  0  0  0  0  0  0  0999 V2000
    2.7792   -2.0360    1.3882 O   0  0  0  0  0  0  0  0  0  0  0  0
    2.2729   -0.9313    1.2340 C   0  0  0  0  0  0  0  0  0  0  0  0
    0.9129   -0.7551    1.0450 N   0  0  0  0  0  0  0  0  0  0  0  0
    0.0301   -1.9028    0.9026 C   0  0  0  0  0  0  0  0  0  0  0  0
   -0.1806   -2.3566   -0.5317 C   0  0  0  0  0  0  0  0  0  0  0  0
    0.8791   -2.9322   -1.2580 C   0  0  0  0  0  0  0  0  0  0  0  0
    0.6952   -3.3399   -2.5760 C   0  0  0  0  0  0  0  0  0  0  0  0
   -0.5466   -3.1700   -3.2119 C   0  0  0  0  0  0  0  0  0  0  0  0
   -0.6786   -3.6412   -4.6335 C   0  0  0  0  0  0  0  0  0  0  0  0
    0.0933   -4.4050   -5.1501 O   0  0  0  0  0  0  0  0  0  0  0  0
   -1.7284   -3.1532   -5.3363 O   0  0  0  0  0  0  0  0  0  0  0  0
   -1.6088   -2.6127   -2.4853 C   0  0  0  0  0  0  0  0  0  0  0  0
   -1.4243   -2.2100   -1.1598 C   0  0  0  0  0  0  0  0  0  0  0  0
    3.0027    0.2353    1.2368 N   0  0  0  0  0  0  0  0  0  0  0  0
    4.4314    0.2422    1.5005 C   0  0  0  0  0  0  0  0  0  0  0  0
    4.8046    0.5341    2.9563 C   0  0  1  0  0  0  0  0  0  0  0  0
    4.4058    1.5274    3.2361 H   0  0  0  0  0  0  0  0  0  0  0  0
    4.3410   -0.5061    3.9867 C   0  0  0  0  0  0  0  0  0  0  0  0
    5.2815   -0.2421    5.1681 C   0  0  0  0  0  0  0  0  0  0  0  0
    6.4567    0.3606    4.6266 O   0  0  0  0  0  0  0  0  0  0  0  0
    6.3307    0.5581    3.2252 C   0  0  2  0  0  0  0  0  0  0  0  0
    6.7901   -0.2961    2.6836 H   0  0  0  0  0  0  0  0  0  0  0  0
    7.0387    1.8273    2.7983 C   0  0  0  0  0  0  0  0  0  0  0  0
    7.6077    1.9291    1.5201 C   0  0  0  0  0  0  0  0  0  0  0  0
    8.2155    3.1165    1.1002 C   0  0  0  0  0  0  0  0  0  0  0  0
    8.2733    4.2157    1.9614 C   0  0  0  0  0  0  0  0  0  0  0  0
    7.7239    4.1170    3.2443 C   0  0  0  0  0  0  0  0  0  0  0  0
    7.1122    2.9320    3.6601 C   0  0  0  0  0  0  0  0  0  0  0  0
    0.5997    0.1168    0.6327 H   0  0  0  0  0  0  0  0  0  0  0  0
   -0.9418   -1.6640    1.3636 H   0  0  0  0  0  0  0  0  0  0  0  0
    0.4881   -2.7156    1.4839 H   0  0  0  0  0  0  0  0  0  0  0  0
    1.8464   -3.0634   -0.7665 H   0  0  0  0  0  0  0  0  0  0  0  0
    1.5063   -3.8028   -3.1413 H   0  0  0  0  0  0  0  0  0  0  0  0
   -2.1728   -2.4545   -4.8368 H   0  0  0  0  0  0  0  0  0  0  0  0
   -2.6045   -2.5142   -2.9289 H   0  0  0  0  0  0  0  0  0  0  0  0
   -2.2663   -1.7874   -0.6037 H   0  0  0  0  0  0  0  0  0  0  0  0
    2.5088    1.1178    1.3016 H   0  0  0  0  0  0  0  0  0  0  0  0
    4.9058    0.9886    0.8418 H   0  0  0  0  0  0  0  0  0  0  0  0
    4.8108   -0.7484    1.2099 H   0  0  0  0  0  0  0  0  0  0  0  0
    4.4771   -1.5197    3.5788 H   0  0  0  0  0  0  0  0  0  0  0  0
    3.2798   -0.4041    4.2579 H   0  0  0  0  0  0  0  0  0  0  0  0
    5.5550   -1.1663    5.7057 H   0  0  0  0  0  0  0  0  0  0  0  0
    4.8321    0.4511    5.9036 H   0  0  0  0  0  0  0  0  0  0  0  0
    7.5878    1.0653    0.8487 H   0  0  0  0  0  0  0  0  0  0  0  0
    8.6555    3.1780    0.1014 H   0  0  0  0  0  0  0  0  0  0  0  0
    8.7548    5.1424    1.6386 H   0  0  0  0  0  0  0  0  0  0  0  0
    7.7792    4.9678    3.9288 H   0  0  0  0  0  0  0  0  0  0  0  0
    6.7027    2.8417    4.6680 H   0  0  0  0  0  0  0  0  0  0  0  0
  1  2  2  0
  2  3  1  0
  2 14  1  0
  3  4  1  0
  3 29  1  0
  4  5  1  0
  4 30  1  0
  4 31  1  0
  5  6  2  0
  5 13  1  0
  6  7  1  0
  6 32  1  0
  7  8  2  0
  7 33  1  0
  8  9  1  0
  8 12  1  0
  9 10  2  0
  9 11  1  0
 11 34  1  0
 12 13  2  0
 12 35  1  0
 13 36  1  0
 14 15  1  0
 14 37  1  0
 15 16  1  0
 15 38  1  0
 15 39  1  0
 16 17  1  1
 16 18  1  0
 16 21  1  0
 18 19  1  0
 18 40  1  0
 18 41  1  0
 19 20  1  0
 19 42  1  0
 19 43  1  0
 20 21  1  0
 21 22  1  6
 21 23  1  0
 23 24  2  0
 23 28  1  0
 24 25  1  0
 24 44  1  0
 25 26  2  0
 25 45  1  0
 26 27  1  0
 26 46  1  0
 27 28  2  0
 27 47  1  0
 28 48  1  0
M  END

