
     RDKit          3D

 35 35  0  0  0  0  0  0  0  0999 V2000
    1.0744    4.0841   -2.5401 C   0  0  0  0  0  0  0  0  0  0  0  0
    2.5219    4.1316   -2.4248 N   0  0  0  0  0  0  0  0  0  0  0  0
    3.0974    5.4594   -2.3633 C   0  0  0  0  0  0  0  0  0  0  0  0
    3.2237    2.9498   -2.3470 C   0  0  0  0  0  0  0  0  0  0  0  0
    2.6657    1.8630   -2.3872 O   0  0  0  0  0  0  0  0  0  0  0  0
    4.7463    3.0352   -2.2045 C   0  0  0  0  0  0  0  0  0  0  0  0
    5.3922    1.6508   -2.1548 C   0  0  0  0  0  0  0  0  0  0  0  0
    6.9054    1.6956   -2.0303 C   0  0  0  0  0  0  0  0  0  0  0  0
    7.4462    2.2810   -3.2106 O   0  0  0  0  0  0  0  0  0  0  0  0
    8.7889    2.4640   -3.3262 C   0  0  0  0  0  0  0  0  0  0  0  0
    9.7269    2.1708   -2.3349 C   0  0  0  0  0  0  0  0  0  0  0  0
   11.0877    2.4196   -2.5447 C   0  0  0  0  0  0  0  0  0  0  0  0
   11.5093    2.9693   -3.7630 C   0  0  0  0  0  0  0  0  0  0  0  0
   12.9001    3.2400   -3.9928 C   0  0  0  0  0  0  0  0  0  0  0  0
   14.0254    3.4617   -4.1790 N   0  0  0  0  0  0  0  0  0  0  0  0
   10.5658    3.2577   -4.7706 C   0  0  0  0  0  0  0  0  0  0  0  0
    9.2044    3.0066   -4.5774 C   0  0  0  0  0  0  0  0  0  0  0  0
    8.2594    3.2223   -5.5577 N   0  0  0  0  0  0  0  0  0  0  0  0
    0.7382    4.5951   -3.4600 H   0  0  0  0  0  0  0  0  0  0  0  0
    0.5947    4.5829   -1.6787 H   0  0  0  0  0  0  0  0  0  0  0  0
    0.7596    3.0351   -2.5718 H   0  0  0  0  0  0  0  0  0  0  0  0
    2.8043    6.0522   -3.2489 H   0  0  0  0  0  0  0  0  0  0  0  0
    4.1912    5.4274   -2.3288 H   0  0  0  0  0  0  0  0  0  0  0  0
    2.7439    6.0067   -1.4693 H   0  0  0  0  0  0  0  0  0  0  0  0
    4.9968    3.6016   -1.2894 H   0  0  0  0  0  0  0  0  0  0  0  0
    5.1703    3.6146   -3.0413 H   0  0  0  0  0  0  0  0  0  0  0  0
    5.1146    1.0770   -3.0522 H   0  0  0  0  0  0  0  0  0  0  0  0
    4.9878    1.0843   -1.3015 H   0  0  0  0  0  0  0  0  0  0  0  0
    7.3136    0.6761   -1.9058 H   0  0  0  0  0  0  0  0  0  0  0  0
    7.2099    2.2891   -1.1472 H   0  0  0  0  0  0  0  0  0  0  0  0
    9.4056    1.7476   -1.3834 H   0  0  0  0  0  0  0  0  0  0  0  0
   11.8151    2.1897   -1.7652 H   0  0  0  0  0  0  0  0  0  0  0  0
   10.9044    3.6752   -5.7212 H   0  0  0  0  0  0  0  0  0  0  0  0
    8.4885    3.8642   -6.3050 H   0  0  0  0  0  0  0  0  0  0  0  0
    7.2920    3.2138   -5.2619 H   0  0  0  0  0  0  0  0  0  0  0  0
  1  2  1  0
  1 19  1  0
  1 20  1  0
  1 21  1  0
  2  3  1  0
  2  4  1  0
  3 22  1  0
  3 23  1  0
  3 24  1  0
  4  5  2  0
  4  6  1  0
  6  7  1  0
  6 25  1  0
  6 26  1  0
  7  8  1  0
  7 27  1  0
  7 28  1  0
  8  9  1  0
  8 29  1  0
  8 30  1  0
  9 10  1  0
 10 11  2  0
 10 17  1  0
 11 12  1  0
 11 31  1  0
 12 13  2  0
 12 32  1  0
 13 14  1  0
 13 16  1  0
 14 15  3  0
 16 17  2  0
 16 33  1  0
 17 18  1  0
 18 34  1  0
 18 35  1  0
M  END

