
     RDKit          3D

 41 43  0  0  0  0  0  0  0  0999 V2000
   -1.9662    3.2607    3.9748 C   0  0  0  0  0  0  0  0  0  0  0  0
   -1.2363    2.4739    2.8865 C   0  0  0  0  0  0  0  0  0  0  0  0
    0.1510    1.9961    3.3028 C   0  0  1  0  0  0  0  0  0  0  0  0
    0.9275    1.2137    2.2318 C   0  0  0  0  0  0  0  0  0  0  0  0
    2.3828    1.5727    2.5398 C   0  0  0  0  0  0  0  0  0  0  0  0
    2.2429    3.0405    2.9790 C   0  0  2  0  0  0  0  0  0  0  0  0
    3.4507    3.5390    3.7791 C   0  0  0  0  0  0  0  0  0  0  0  0
    4.5046    3.6865    3.1697 O   0  0  0  0  0  0  0  0  0  0  0  0
    3.3260    3.8477    5.0984 N   0  0  0  0  0  0  0  0  0  0  0  0
    4.4793    4.2110    5.9332 C   0  0  1  0  0  0  0  0  0  0  0  0
    4.8837    2.8337    6.4736 C   0  0  0  0  0  0  0  0  0  0  0  0
    3.4228    2.4328    6.9451 C   0  0  0  0  0  0  0  0  0  0  0  0
    2.4350    3.4039    6.1539 C   0  0  1  0  0  0  0  0  0  0  0  0
    1.9913    4.7541    6.8285 C   0  0  0  0  0  0  0  0  0  0  0  0
    2.5166    6.1332    6.2407 C   0  0  0  0  0  0  0  0  0  0  0  0
    1.7115    7.0486    6.2523 O   0  0  0  0  0  0  0  0  0  0  0  0
    3.8151    6.4156    5.7999 N   0  0  0  0  0  0  0  0  0  0  0  0
    4.9962    5.5640    5.5047 C   0  0  0  0  0  0  0  0  0  0  0  0
    0.9843    3.1251    3.6318 O   0  0  0  0  0  0  0  0  0  0  0  0
   -2.9555    3.5984    3.6284 H   0  0  0  0  0  0  0  0  0  0  0  0
   -1.3850    4.1485    4.2660 H   0  0  0  0  0  0  0  0  0  0  0  0
   -2.1211    2.6468    4.8783 H   0  0  0  0  0  0  0  0  0  0  0  0
   -1.1294    3.0946    1.9795 H   0  0  0  0  0  0  0  0  0  0  0  0
   -1.8272    1.5871    2.5941 H   0  0  0  0  0  0  0  0  0  0  0  0
    0.0523    1.3762    4.2183 H   0  0  0  0  0  0  0  0  0  0  0  0
    0.6493    1.5739    1.2270 H   0  0  0  0  0  0  0  0  0  0  0  0
    0.7229    0.1335    2.2707 H   0  0  0  0  0  0  0  0  0  0  0  0
    3.0719    1.4578    1.6926 H   0  0  0  0  0  0  0  0  0  0  0  0
    2.7674    0.9617    3.3742 H   0  0  0  0  0  0  0  0  0  0  0  0
    2.2401    3.6885    2.0812 H   0  0  0  0  0  0  0  0  0  0  0  0
    4.0486    4.5678    6.8722 H   0  0  0  0  0  0  0  0  0  0  0  0
    5.5916    2.8783    7.3145 H   0  0  0  0  0  0  0  0  0  0  0  0
    5.2832    2.1583    5.7030 H   0  0  0  0  0  0  0  0  0  0  0  0
    3.3143    2.5435    8.0360 H   0  0  0  0  0  0  0  0  0  0  0  0
    3.1878    1.3874    6.6958 H   0  0  0  0  0  0  0  0  0  0  0  0
    1.5604    2.8719    5.7744 H   0  0  0  0  0  0  0  0  0  0  0  0
    2.2036    4.7666    7.9121 H   0  0  0  0  0  0  0  0  0  0  0  0
    0.9038    4.8749    6.7356 H   0  0  0  0  0  0  0  0  0  0  0  0
    3.8536    7.3747    5.4669 H   0  0  0  0  0  0  0  0  0  0  0  0
    5.8558    5.8857    6.1177 H   0  0  0  0  0  0  0  0  0  0  0  0
    5.2681    5.6191    4.4411 H   0  0  0  0  0  0  0  0  0  0  0  0
  1  2  1  0
  1 20  1  0
  1 21  1  0
  1 22  1  0
  2  3  1  0
  2 23  1  0
  2 24  1  0
  3  4  1  0
  3 19  1  0
  3 25  1  1
  4  5  1  0
  4 26  1  0
  4 27  1  0
  5  6  1  0
  5 28  1  0
  5 29  1  0
  6  7  1  0
  6 19  1  0
  6 30  1  6
  7  8  2  0
  7  9  1  0
  9 10  1  0
  9 13  1  0
 10 11  1  0
 10 18  1  0
 10 31  1  1
 11 12  1  0
 11 32  1  0
 11 33  1  0
 12 13  1  0
 12 34  1  0
 12 35  1  0
 13 14  1  0
 13 36  1  6
 14 15  1  0
 14 37  1  0
 14 38  1  0
 15 16  2  0
 15 17  1  0
 17 18  1  0
 17 39  1  0
 18 40  1  0
 18 41  1  0
M  END

