
     RDKit          3D

 38 40  0  0  0  0  0  0  0  0999 V2000
    0.9030   -0.3360   -0.2432 C   0  0  0  0  0  0  0  0  0  0  0  0
    2.1835    0.3391   -0.0605 N   0  0  0  0  0  0  0  0  0  0  0  0
    2.7728    0.6200    1.0972 N   0  0  0  0  0  0  0  0  0  0  0  0
    2.2690    0.5551    2.2883 C   0  0  0  0  0  0  0  0  0  0  0  0
    3.2135    0.8322    3.4085 C   0  0  0  0  0  0  0  0  0  0  0  0
    2.7626    1.2127    4.6859 C   0  0  0  0  0  0  0  0  0  0  0  0
    3.6569    1.5038    5.7175 C   0  0  0  0  0  0  0  0  0  0  0  0
    5.0298    1.4160    5.4813 C   0  0  0  0  0  0  0  0  0  0  0  0
    6.1595    1.7734    6.7702 Cl  0  0  0  0  0  0  0  0  0  0  0  0
    5.5081    1.0399    4.2217 C   0  0  0  0  0  0  0  0  0  0  0  0
    4.6049    0.7504    3.2021 C   0  0  0  0  0  0  0  0  0  0  0  0
    0.8340    0.2979    2.6591 C   0  0  0  0  0  0  0  0  0  0  0  0
    0.5918   -0.7211    3.4997 N   0  0  0  0  0  0  0  0  0  0  0  0
   -0.6704   -0.9147    3.8768 C   0  0  0  0  0  0  0  0  0  0  0  0
   -1.7133   -0.0924    3.4401 C   0  0  0  0  0  0  0  0  0  0  0  0
   -1.3566    0.9404    2.5734 C   0  0  0  0  0  0  0  0  0  0  0  0
   -0.0961    1.1391    2.1795 N   0  0  0  0  0  0  0  0  0  0  0  0
    2.9933    0.5857   -1.2067 C   0  0  0  0  0  0  0  0  0  0  0  0
    2.6049    1.5795   -2.1168 C   0  0  0  0  0  0  0  0  0  0  0  0
    3.3481    1.8567   -3.2642 C   0  0  0  0  0  0  0  0  0  0  0  0
    4.5183    1.1321   -3.5012 C   0  0  0  0  0  0  0  0  0  0  0  0
    5.5629    1.5008   -5.0510 Br  0  0  0  0  0  0  0  0  0  0  0  0
    4.9348    0.1321   -2.6192 C   0  0  0  0  0  0  0  0  0  0  0  0
    4.1652   -0.1448   -1.4856 C   0  0  0  0  0  0  0  0  0  0  0  0
    4.7153   -1.5741   -0.3575 Br  0  0  0  0  0  0  0  0  0  0  0  0
    0.8168   -1.1678    0.4756 H   0  0  0  0  0  0  0  0  0  0  0  0
    0.8770   -0.7571   -1.2571 H   0  0  0  0  0  0  0  0  0  0  0  0
    0.0443    0.3376   -0.1023 H   0  0  0  0  0  0  0  0  0  0  0  0
    1.6943    1.2969    4.8911 H   0  0  0  0  0  0  0  0  0  0  0  0
    3.2923    1.8023    6.7018 H   0  0  0  0  0  0  0  0  0  0  0  0
    6.5835    0.9680    4.0493 H   0  0  0  0  0  0  0  0  0  0  0  0
    4.9709    0.4489    2.2203 H   0  0  0  0  0  0  0  0  0  0  0  0
   -0.8604   -1.7557    4.5550 H   0  0  0  0  0  0  0  0  0  0  0  0
   -2.7453   -0.2483    3.7598 H   0  0  0  0  0  0  0  0  0  0  0  0
   -2.1103    1.6339    2.1812 H   0  0  0  0  0  0  0  0  0  0  0  0
    1.7023    2.1554   -1.9001 H   0  0  0  0  0  0  0  0  0  0  0  0
    3.0305    2.6375   -3.9565 H   0  0  0  0  0  0  0  0  0  0  0  0
    5.8402   -0.4413   -2.8173 H   0  0  0  0  0  0  0  0  0  0  0  0
  1  2  1  0
  1 26  1  0
  1 27  1  0
  1 28  1  0
  2  3  1  0
  2 18  1  0
  3  4  2  0
  4  5  1  0
  4 12  1  0
  5  6  2  0
  5 11  1  0
  6  7  1  0
  6 29  1  0
  7  8  2  0
  7 30  1  0
  8  9  1  0
  8 10  1  0
 10 11  2  0
 10 31  1  0
 11 32  1  0
 12 13  2  0
 12 17  1  0
 13 14  1  0
 14 15  2  0
 14 33  1  0
 15 16  1  0
 15 34  1  0
 16 17  2  0
 16 35  1  0
 18 19  2  0
 18 24  1  0
 19 20  1  0
 19 36  1  0
 20 21  2  0
 20 37  1  0
 21 22  1  0
 21 23  1  0
 23 24  2  0
 23 38  1  0
 24 25  1  0
M  END

