
     RDKit          3D

 57 58  0  0  0  0  0  0  0  0999 V2000
    1.0544    0.6413   -0.1595 C   0  0  0  0  0  0  0  0  0  0  0  0
    2.4159    1.1253    0.3120 C   0  0  0  0  0  0  0  0  0  0  0  0
    3.1091    1.8530   -0.7158 O   0  0  0  0  0  0  0  0  0  0  0  0
    3.8425    1.1401   -1.6050 C   0  0  0  0  0  0  0  0  0  0  0  0
    3.9389   -0.0672   -1.5637 O   0  0  0  0  0  0  0  0  0  0  0  0
    4.4828    2.0343   -2.5847 C   0  0  0  0  0  0  0  0  0  0  0  0
    4.2377    3.7607   -2.4340 S   0  0  0  0  0  0  0  0  0  0  0  0
    5.1723    4.0602   -3.8663 C   0  0  0  0  0  0  0  0  0  0  0  0
    5.3736    5.3800   -4.2403 N   0  0  0  0  0  0  0  0  0  0  0  0
    6.5688    5.9672   -4.5936 C   0  0  0  0  0  0  0  0  0  0  0  0
    7.6303    5.3930   -4.7080 O   0  0  0  0  0  0  0  0  0  0  0  0
    6.4130    7.4690   -4.8834 C   0  0  0  0  0  0  0  0  0  0  0  0
    5.2498    8.0649   -4.2392 N   0  0  0  0  0  0  0  0  0  0  0  0
    5.4842    8.4762   -2.8435 C   0  0  0  0  0  0  0  0  0  0  0  0
    6.1912    9.8399   -2.7473 C   0  0  0  0  0  0  0  0  0  0  0  0
    5.5100   10.8968   -3.4896 N   0  0  0  0  0  0  0  0  0  0  0  0
    4.3762   11.5276   -2.8174 C   0  0  0  0  0  0  0  0  0  0  0  0
    4.1390   12.9664   -3.2771 C   0  0  0  0  0  0  0  0  0  0  0  0
    5.2828   10.4901   -4.8752 C   0  0  0  0  0  0  0  0  0  0  0  0
    4.5696    9.1307   -4.9885 C   0  0  0  0  0  0  0  0  0  0  0  0
    5.6647    2.8859   -4.4236 C   0  0  0  0  0  0  0  0  0  0  0  0
    6.4343    2.7782   -5.6951 C   0  0  0  0  0  0  0  0  0  0  0  0
    7.1866    1.8661   -5.9545 O   0  0  0  0  0  0  0  0  0  0  0  0
    6.1413    3.7619   -6.5658 O   0  0  0  0  0  0  0  0  0  0  0  0
    6.8116    3.7277   -7.8401 C   0  0  0  0  0  0  0  0  0  0  0  0
    8.2334    4.2626   -7.7784 C   0  0  0  0  0  0  0  0  0  0  0  0
    5.2843    1.7142   -3.6701 C   0  0  0  0  0  0  0  0  0  0  0  0
    5.6857    0.3152   -4.0416 C   0  0  0  0  0  0  0  0  0  0  0  0
    0.5189    0.1587    0.6740 H   0  0  0  0  0  0  0  0  0  0  0  0
    1.1616   -0.0956   -0.9691 H   0  0  0  0  0  0  0  0  0  0  0  0
    0.4416    1.4811   -0.5226 H   0  0  0  0  0  0  0  0  0  0  0  0
    3.0426    0.2808    0.6346 H   0  0  0  0  0  0  0  0  0  0  0  0
    2.3200    1.8395    1.1430 H   0  0  0  0  0  0  0  0  0  0  0  0
    4.6386    6.0751   -4.0825 H   0  0  0  0  0  0  0  0  0  0  0  0
    6.3043    7.5544   -5.9779 H   0  0  0  0  0  0  0  0  0  0  0  0
    7.3849    7.9313   -4.6308 H   0  0  0  0  0  0  0  0  0  0  0  0
    6.0677    7.6943   -2.3300 H   0  0  0  0  0  0  0  0  0  0  0  0
    4.5056    8.5298   -2.3339 H   0  0  0  0  0  0  0  0  0  0  0  0
    7.2185    9.7450   -3.1459 H   0  0  0  0  0  0  0  0  0  0  0  0
    6.2930   10.1407   -1.6921 H   0  0  0  0  0  0  0  0  0  0  0  0
    4.6030   11.5379   -1.7386 H   0  0  0  0  0  0  0  0  0  0  0  0
    3.4277   10.9534   -2.9176 H   0  0  0  0  0  0  0  0  0  0  0  0
    5.0483   13.5704   -3.1343 H   0  0  0  0  0  0  0  0  0  0  0  0
    3.3171   13.4236   -2.7029 H   0  0  0  0  0  0  0  0  0  0  0  0
    3.8620   13.0216   -4.3421 H   0  0  0  0  0  0  0  0  0  0  0  0
    6.2615   10.4314   -5.3877 H   0  0  0  0  0  0  0  0  0  0  0  0
    4.7043   11.2658   -5.4008 H   0  0  0  0  0  0  0  0  0  0  0  0
    4.4749    8.8246   -6.0430 H   0  0  0  0  0  0  0  0  0  0  0  0
    3.5430    9.2177   -4.5903 H   0  0  0  0  0  0  0  0  0  0  0  0
    6.1793    4.3472   -8.4934 H   0  0  0  0  0  0  0  0  0  0  0  0
    6.8021    2.6930   -8.2154 H   0  0  0  0  0  0  0  0  0  0  0  0
    8.2620    5.2753   -7.3511 H   0  0  0  0  0  0  0  0  0  0  0  0
    8.6568    4.2930   -8.7957 H   0  0  0  0  0  0  0  0  0  0  0  0
    8.8667    3.6135   -7.1581 H   0  0  0  0  0  0  0  0  0  0  0  0
    5.4247    0.1009   -5.0893 H   0  0  0  0  0  0  0  0  0  0  0  0
    5.2076   -0.4155   -3.3819 H   0  0  0  0  0  0  0  0  0  0  0  0
    6.7795    0.2114   -3.9829 H   0  0  0  0  0  0  0  0  0  0  0  0
  1  2  1  0
  1 29  1  0
  1 30  1  0
  1 31  1  0
  2  3  1  0
  2 32  1  0
  2 33  1  0
  3  4  1  0
  4  5  2  0
  4  6  1  0
  6  7  1  0
  6 27  2  0
  7  8  2  0
  8  9  1  0
  8 21  1  0
  9 10  1  0
  9 34  1  0
 10 11  2  0
 10 12  1  0
 12 13  1  0
 12 35  1  0
 12 36  1  0
 13 14  1  0
 13 20  1  0
 14 15  1  0
 14 37  1  0
 14 38  1  0
 15 16  1  0
 15 39  1  0
 15 40  1  0
 16 17  1  0
 16 19  1  0
 17 18  1  0
 17 41  1  0
 17 42  1  0
 18 43  1  0
 18 44  1  0
 18 45  1  0
 19 20  1  0
 19 46  1  0
 19 47  1  0
 20 48  1  0
 20 49  1  0
 21 22  2  0
 21 27  1  0
 22 23  1  0
 22 24  1  0
 24 25  1  0
 25 26  1  0
 25 50  1  0
 25 51  1  0
 26 52  1  0
 26 53  1  0
 26 54  1  0
 27 28  1  0
 28 55  1  0
 28 56  1  0
 28 57  1  0
M  CHG  2   7   1  23  -1
M  END

