
     RDKit          3D

 34 35  0  0  0  0  0  0  0  0999 V2000
    1.0554   -1.0422   -0.4980 N   0  0  0  0  0  0  0  0  0  0  0  0
    2.4463   -0.9184   -0.4379 N   0  0  0  0  0  0  0  0  0  0  0  0
    3.1972   -1.6997    0.4032 C   0  0  0  0  0  0  0  0  0  0  0  0
    2.6778   -2.4971    1.1690 O   0  0  0  0  0  0  0  0  0  0  0  0
    4.6845   -1.5194    0.3124 C   0  0  0  0  0  0  0  0  0  0  0  0
    5.3172   -0.3680   -0.1748 C   0  0  0  0  0  0  0  0  0  0  0  0
    6.7104   -0.3095   -0.1952 C   0  0  0  0  0  0  0  0  0  0  0  0
    7.4307   -1.4112    0.2830 C   0  0  0  0  0  0  0  0  0  0  0  0
    8.9404   -1.4399    0.2863 C   0  0  0  0  0  0  0  0  0  0  0  0
    9.4627   -0.1942   -0.0905 O   0  0  0  0  0  0  0  0  0  0  0  0
   10.8682   -0.1639   -0.1928 C   0  0  0  0  0  0  0  0  0  0  0  0
   11.3469    1.2448   -0.4541 C   0  0  0  0  0  0  0  0  0  0  0  0
   10.7048    2.3401    0.1426 C   0  0  0  0  0  0  0  0  0  0  0  0
   11.1766    3.6382   -0.0671 C   0  0  0  0  0  0  0  0  0  0  0  0
   12.2998    3.8591   -0.8710 C   0  0  0  0  0  0  0  0  0  0  0  0
   12.9447    2.7731   -1.4693 C   0  0  0  0  0  0  0  0  0  0  0  0
   12.4666    1.4752   -1.2653 C   0  0  0  0  0  0  0  0  0  0  0  0
    6.8363   -2.5117    0.7624 N   0  0  0  0  0  0  0  0  0  0  0  0
    5.5075   -2.5588    0.7806 C   0  0  0  0  0  0  0  0  0  0  0  0
    0.6651   -0.6723    0.3723 H   0  0  0  0  0  0  0  0  0  0  0  0
    0.8265   -2.0405   -0.4840 H   0  0  0  0  0  0  0  0  0  0  0  0
    2.8727   -0.4502   -1.2285 H   0  0  0  0  0  0  0  0  0  0  0  0
    4.7345    0.4928   -0.5136 H   0  0  0  0  0  0  0  0  0  0  0  0
    7.2451    0.5663   -0.5621 H   0  0  0  0  0  0  0  0  0  0  0  0
    9.2754   -2.2433   -0.4042 H   0  0  0  0  0  0  0  0  0  0  0  0
    9.2854   -1.7403    1.2972 H   0  0  0  0  0  0  0  0  0  0  0  0
   11.2160   -0.8397   -1.0007 H   0  0  0  0  0  0  0  0  0  0  0  0
   11.3202   -0.5440    0.7494 H   0  0  0  0  0  0  0  0  0  0  0  0
    9.8260    2.1652    0.7664 H   0  0  0  0  0  0  0  0  0  0  0  0
   10.6648    4.4833    0.4010 H   0  0  0  0  0  0  0  0  0  0  0  0
   12.6685    4.8751   -1.0338 H   0  0  0  0  0  0  0  0  0  0  0  0
   13.8187    2.9362   -2.1053 H   0  0  0  0  0  0  0  0  0  0  0  0
   12.9693    0.6310   -1.7468 H   0  0  0  0  0  0  0  0  0  0  0  0
    5.0370   -3.4605    1.1862 H   0  0  0  0  0  0  0  0  0  0  0  0
  1  2  1  0
  1 20  1  0
  1 21  1  0
  2  3  1  0
  2 22  1  0
  3  4  2  0
  3  5  1  0
  5  6  2  0
  5 19  1  0
  6  7  1  0
  6 23  1  0
  7  8  2  0
  7 24  1  0
  8  9  1  0
  8 18  1  0
  9 10  1  0
  9 25  1  0
  9 26  1  0
 10 11  1  0
 11 12  1  0
 11 27  1  0
 11 28  1  0
 12 13  2  0
 12 17  1  0
 13 14  1  0
 13 29  1  0
 14 15  2  0
 14 30  1  0
 15 16  1  0
 15 31  1  0
 16 17  2  0
 16 32  1  0
 17 33  1  0
 18 19  2  0
 19 34  1  0
M  END

