
     RDKit          3D

 52 55  0  0  0  0  0  0  0  0999 V2000
    3.2795   -0.5932   -2.8064 C   0  0  0  0  0  0  0  0  0  0  0  0
    3.6155   -0.3040   -1.3660 C   0  0  0  0  0  0  0  0  0  0  0  0
    4.5958    0.5403   -1.1260 N   0  0  0  0  0  0  0  0  0  0  0  0
    4.9597    0.8211    0.1557 C   0  0  0  0  0  0  0  0  0  0  0  0
    6.0290    1.7296    0.3861 C   0  0  0  0  0  0  0  0  0  0  0  0
    6.4258    2.0311    1.6730 C   0  0  0  0  0  0  0  0  0  0  0  0
    5.7746    1.4406    2.7864 C   0  0  0  0  0  0  0  0  0  0  0  0
    4.7330    0.5557    2.5944 C   0  0  0  0  0  0  0  0  0  0  0  0
    4.3026    0.2278    1.2804 C   0  0  0  0  0  0  0  0  0  0  0  0
    3.2361   -0.6665    1.0016 C   0  0  0  0  0  0  0  0  0  0  0  0
    2.8785   -0.9382   -0.3018 C   0  0  0  0  0  0  0  0  0  0  0  0
    1.8468   -1.9952   -0.6211 C   0  0  0  0  0  0  0  0  0  0  0  0
    2.2059   -3.0292   -1.1682 O   0  0  0  0  0  0  0  0  0  0  0  0
    0.5387   -1.7686   -0.2554 N   0  0  0  0  0  0  0  0  0  0  0  0
    0.0118   -0.4990    0.2295 C   0  0  0  0  0  0  0  0  0  0  0  0
   -0.7131   -0.5982    1.5770 C   0  0  0  0  0  0  0  0  0  0  0  0
   -1.9944   -1.4562    1.5375 C   0  0  0  0  0  0  0  0  0  0  0  0
   -1.8511   -2.9065    1.6266 N   0  0  0  0  0  0  0  0  0  0  0  0
   -1.9301   -3.4552    2.9704 C   0  0  0  0  0  0  0  0  0  0  0  0
   -3.2902   -3.3017    3.6290 C   0  0  0  0  0  0  0  0  0  0  0  0
   -4.4687   -3.5170    2.8970 C   0  0  0  0  0  0  0  0  0  0  0  0
   -5.7217   -3.4326    3.5044 C   0  0  0  0  0  0  0  0  0  0  0  0
   -5.8048   -3.1280    4.8673 C   0  0  0  0  0  0  0  0  0  0  0  0
   -7.3732   -3.0176    5.6366 Cl  0  0  0  0  0  0  0  0  0  0  0  0
   -4.6484   -2.9053    5.6175 C   0  0  0  0  0  0  0  0  0  0  0  0
   -3.4015   -2.9911    4.9909 C   0  0  0  0  0  0  0  0  0  0  0  0
   -0.8301   -3.5692    0.8156 C   0  0  0  0  0  0  0  0  0  0  0  0
   -0.4239   -2.8485   -0.4723 C   0  0  0  0  0  0  0  0  0  0  0  0
    3.9059    0.0305   -3.4562 H   0  0  0  0  0  0  0  0  0  0  0  0
    2.2171   -0.3881   -3.0204 H   0  0  0  0  0  0  0  0  0  0  0  0
    3.4472   -1.6572   -3.0323 H   0  0  0  0  0  0  0  0  0  0  0  0
    6.5151    2.1690   -0.4871 H   0  0  0  0  0  0  0  0  0  0  0  0
    7.2496    2.7296    1.8407 H   0  0  0  0  0  0  0  0  0  0  0  0
    6.1026    1.6895    3.7987 H   0  0  0  0  0  0  0  0  0  0  0  0
    4.2279    0.0965    3.4491 H   0  0  0  0  0  0  0  0  0  0  0  0
    2.7084   -1.1438    1.8332 H   0  0  0  0  0  0  0  0  0  0  0  0
   -0.7019   -0.1032   -0.5203 H   0  0  0  0  0  0  0  0  0  0  0  0
    0.8337    0.2236    0.2921 H   0  0  0  0  0  0  0  0  0  0  0  0
   -0.9968    0.4279    1.8689 H   0  0  0  0  0  0  0  0  0  0  0  0
   -0.0224   -0.9655    2.3560 H   0  0  0  0  0  0  0  0  0  0  0  0
   -2.5502   -1.1926    0.6179 H   0  0  0  0  0  0  0  0  0  0  0  0
   -2.6529   -1.1543    2.3650 H   0  0  0  0  0  0  0  0  0  0  0  0
   -1.1494   -3.0467    3.6529 H   0  0  0  0  0  0  0  0  0  0  0  0
   -1.7108   -4.5351    2.8930 H   0  0  0  0  0  0  0  0  0  0  0  0
   -4.3923   -3.7433    1.8309 H   0  0  0  0  0  0  0  0  0  0  0  0
   -6.6349   -3.6010    2.9308 H   0  0  0  0  0  0  0  0  0  0  0  0
   -4.7268   -2.6617    6.6784 H   0  0  0  0  0  0  0  0  0  0  0  0
   -2.4973   -2.8109    5.5800 H   0  0  0  0  0  0  0  0  0  0  0  0
   -1.2049   -4.5728    0.5413 H   0  0  0  0  0  0  0  0  0  0  0  0
    0.1061   -3.7425    1.3900 H   0  0  0  0  0  0  0  0  0  0  0  0
   -1.3084   -2.4551   -1.0013 H   0  0  0  0  0  0  0  0  0  0  0  0
    0.0680   -3.5747   -1.1311 H   0  0  0  0  0  0  0  0  0  0  0  0
  1  2  1  0
  1 29  1  0
  1 30  1  0
  1 31  1  0
  2  3  2  0
  2 11  1  0
  3  4  1  0
  4  5  2  0
  4  9  1  0
  5  6  1  0
  5 32  1  0
  6  7  2  0
  6 33  1  0
  7  8  1  0
  7 34  1  0
  8  9  2  0
  8 35  1  0
  9 10  1  0
 10 11  2  0
 10 36  1  0
 11 12  1  0
 12 13  2  0
 12 14  1  0
 14 15  1  0
 14 28  1  0
 15 16  1  0
 15 37  1  0
 15 38  1  0
 16 17  1  0
 16 39  1  0
 16 40  1  0
 17 18  1  0
 17 41  1  0
 17 42  1  0
 18 19  1  0
 18 27  1  0
 19 20  1  0
 19 43  1  0
 19 44  1  0
 20 21  2  0
 20 26  1  0
 21 22  1  0
 21 45  1  0
 22 23  2  0
 22 46  1  0
 23 24  1  0
 23 25  1  0
 25 26  2  0
 25 47  1  0
 26 48  1  0
 27 28  1  0
 27 49  1  0
 27 50  1  0
 28 51  1  0
 28 52  1  0
M  END

