
     RDKit          3D

 41 43  0  0  0  0  0  0  0  0999 V2000
    1.0891   -0.1309   -0.3444 C   0  0  0  0  0  0  0  0  0  0  0  0
    2.5620    0.0073    0.0794 C   0  0  1  0  0  0  0  0  0  0  0  0
    2.7377    0.8055    1.3529 C   0  0  0  0  0  0  0  0  0  0  0  0
    2.3559    2.1785    1.5227 C   0  0  0  0  0  0  0  0  0  0  0  0
    2.6418    2.6593    2.7724 C   0  0  0  0  0  0  0  0  0  0  0  0
    3.3793    1.4495    3.7712 S   0  0  0  0  0  0  0  0  0  0  0  0
    3.3023    0.2760    2.4890 C   0  0  0  0  0  0  0  0  0  0  0  0
    3.8036   -1.1317    2.5964 C   0  0  0  0  0  0  0  0  0  0  0  0
    3.1411   -1.9757    1.4957 C   0  0  0  0  0  0  0  0  0  0  0  0
    3.2118   -1.3106    0.2017 N   0  0  0  0  0  0  0  0  0  0  0  0
    3.7944   -1.8267   -0.9428 C   0  0  0  0  0  0  0  0  0  0  0  0
    3.9137   -1.1653   -1.9677 O   0  0  0  0  0  0  0  0  0  0  0  0
    4.2676   -3.1287   -0.8823 N   0  0  0  0  0  0  0  0  0  0  0  0
    4.7684   -3.7546   -2.0984 C   0  0  0  0  0  0  0  0  0  0  0  0
    6.1366   -3.2173   -2.5213 C   0  0  1  0  0  0  0  0  0  0  0  0
    7.2731   -3.3028   -1.5033 C   0  0  0  0  0  0  0  0  0  0  0  0
    8.5900   -3.1108   -2.2819 C   0  0  0  0  0  0  0  0  0  0  0  0
    8.5563   -4.0321   -3.5068 C   0  0  0  0  0  0  0  0  0  0  0  0
    6.7725   -4.2005   -3.9572 S   0  0  1  0  0  0  0  0  0  0  0  0
    6.3783   -5.6090   -3.7615 O   0  0  0  0  0  0  0  0  0  0  0  0
    6.4889   -3.5135   -5.2233 O   0  0  0  0  0  0  0  0  0  0  0  0
    0.6182    0.8583   -0.4527 H   0  0  0  0  0  0  0  0  0  0  0  0
    0.5074   -0.6979    0.4002 H   0  0  0  0  0  0  0  0  0  0  0  0
    1.0267   -0.6445   -1.3155 H   0  0  0  0  0  0  0  0  0  0  0  0
    3.0950    0.5206   -0.7341 H   0  0  0  0  0  0  0  0  0  0  0  0
    1.8947    2.7852    0.7412 H   0  0  0  0  0  0  0  0  0  0  0  0
    2.4632    3.6588    3.1661 H   0  0  0  0  0  0  0  0  0  0  0  0
    3.5780   -1.5696    3.5833 H   0  0  0  0  0  0  0  0  0  0  0  0
    4.9017   -1.1666    2.4748 H   0  0  0  0  0  0  0  0  0  0  0  0
    2.0867   -2.1672    1.7695 H   0  0  0  0  0  0  0  0  0  0  0  0
    3.6456   -2.9476    1.4493 H   0  0  0  0  0  0  0  0  0  0  0  0
    3.8594   -3.7589   -0.2056 H   0  0  0  0  0  0  0  0  0  0  0  0
    4.0643   -3.6103   -2.9355 H   0  0  0  0  0  0  0  0  0  0  0  0
    4.8528   -4.8350   -1.9142 H   0  0  0  0  0  0  0  0  0  0  0  0
    6.0308   -2.1943   -2.9107 H   0  0  0  0  0  0  0  0  0  0  0  0
    7.2603   -4.2920   -1.0121 H   0  0  0  0  0  0  0  0  0  0  0  0
    7.1552   -2.5437   -0.7163 H   0  0  0  0  0  0  0  0  0  0  0  0
    9.4683   -3.3212   -1.6528 H   0  0  0  0  0  0  0  0  0  0  0  0
    8.6675   -2.0611   -2.6084 H   0  0  0  0  0  0  0  0  0  0  0  0
    8.8913   -5.0558   -3.2905 H   0  0  0  0  0  0  0  0  0  0  0  0
    9.0752   -3.6429   -4.3921 H   0  0  0  0  0  0  0  0  0  0  0  0
  1  2  1  0
  1 22  1  0
  1 23  1  0
  1 24  1  0
  2  3  1  0
  2 10  1  0
  2 25  1  6
  3  4  1  0
  3  7  2  0
  4  5  2  0
  4 26  1  0
  5  6  1  0
  5 27  1  0
  6  7  1  0
  7  8  1  0
  8  9  1  0
  8 28  1  0
  8 29  1  0
  9 10  1  0
  9 30  1  0
  9 31  1  0
 10 11  1  0
 11 12  2  0
 11 13  1  0
 13 14  1  0
 13 32  1  0
 14 15  1  0
 14 33  1  0
 14 34  1  0
 15 16  1  0
 15 19  1  0
 15 35  1  6
 16 17  1  0
 16 36  1  0
 16 37  1  0
 17 18  1  0
 17 38  1  0
 17 39  1  0
 19 18  1  1
 18 40  1  0
 18 41  1  0
 19 20  2  0
 19 21  2  0
M  END

