
     RDKit          3D

 50 53  0  0  0  0  0  0  0  0999 V2000
    1.6081   -3.7251    2.2735 C   0  0  0  0  0  0  0  0  0  0  0  0
    2.7851   -2.9732    1.7016 C   0  0  0  0  0  0  0  0  0  0  0  0
    3.4200   -1.9505    2.4177 C   0  0  0  0  0  0  0  0  0  0  0  0
    4.5087   -1.2577    1.8764 C   0  0  0  0  0  0  0  0  0  0  0  0
    4.9893   -1.5660    0.5998 C   0  0  0  0  0  0  0  0  0  0  0  0
    6.1520   -0.8018   -0.0018 C   0  0  0  0  0  0  0  0  0  0  0  0
    7.2573   -1.6551   -0.4248 N   0  0  0  0  0  0  0  0  0  0  0  0
    8.1894   -2.2919    0.3299 C   0  0  0  0  0  0  0  0  0  0  0  0
    8.9524   -2.9806   -0.5929 C   0  0  0  0  0  0  0  0  0  0  0  0
   10.1382   -3.8719   -0.3607 C   0  0  1  0  0  0  0  0  0  0  0  0
   10.9487   -3.5693   -1.0677 H   0  0  0  0  0  0  0  0  0  0  0  0
   10.5963   -3.7215    0.9698 O   0  0  0  0  0  0  0  0  0  0  0  0
   10.8751   -5.0043    1.5281 C   0  0  0  0  0  0  0  0  0  0  0  0
   10.8242   -5.9569    0.3381 C   0  0  0  0  0  0  0  0  0  0  0  0
    9.8355   -5.2974   -0.5008 N   0  0  0  0  0  0  0  0  0  0  0  0
    9.7170   -5.7835   -1.8649 C   0  0  0  0  0  0  0  0  0  0  0  0
    9.0744   -7.1553   -1.9556 C   0  0  0  0  0  0  0  0  0  0  0  0
    9.5293   -8.0970   -2.8891 C   0  0  0  0  0  0  0  0  0  0  0  0
    8.8944   -9.3361   -3.0064 C   0  0  0  0  0  0  0  0  0  0  0  0
    7.8068   -9.6505   -2.1883 C   0  0  0  0  0  0  0  0  0  0  0  0
    7.3383   -8.7290   -1.2383 C   0  0  0  0  0  0  0  0  0  0  0  0
    6.1838   -9.0691   -0.3254 C   0  0  0  0  0  0  0  0  0  0  0  0
    7.9833   -7.4871   -1.1399 C   0  0  0  0  0  0  0  0  0  0  0  0
    8.4510   -2.7274   -1.8326 N   0  0  0  0  0  0  0  0  0  0  0  0
    7.4270   -1.9356   -1.7284 N   0  0  0  0  0  0  0  0  0  0  0  0
    4.3579   -2.5903   -0.1252 C   0  0  0  0  0  0  0  0  0  0  0  0
    3.2774   -3.2804    0.4196 C   0  0  0  0  0  0  0  0  0  0  0  0
    1.3850   -3.4075    3.3027 H   0  0  0  0  0  0  0  0  0  0  0  0
    1.7951   -4.8117    2.2876 H   0  0  0  0  0  0  0  0  0  0  0  0
    0.6999   -3.5646    1.6682 H   0  0  0  0  0  0  0  0  0  0  0  0
    3.0624   -1.6908    3.4182 H   0  0  0  0  0  0  0  0  0  0  0  0
    4.9863   -0.4651    2.4604 H   0  0  0  0  0  0  0  0  0  0  0  0
    6.5367   -0.0601    0.7138 H   0  0  0  0  0  0  0  0  0  0  0  0
    5.8429   -0.2648   -0.9108 H   0  0  0  0  0  0  0  0  0  0  0  0
    8.2506   -2.2086    1.4101 H   0  0  0  0  0  0  0  0  0  0  0  0
   10.1082   -5.2583    2.2820 H   0  0  0  0  0  0  0  0  0  0  0  0
   11.8599   -4.9833    2.0228 H   0  0  0  0  0  0  0  0  0  0  0  0
   10.5107   -6.9771    0.6065 H   0  0  0  0  0  0  0  0  0  0  0  0
   11.8188   -6.0223   -0.1598 H   0  0  0  0  0  0  0  0  0  0  0  0
   10.7068   -5.8068   -2.3754 H   0  0  0  0  0  0  0  0  0  0  0  0
    9.1017   -5.0565   -2.4216 H   0  0  0  0  0  0  0  0  0  0  0  0
   10.3829   -7.8572   -3.5298 H   0  0  0  0  0  0  0  0  0  0  0  0
    9.2519  -10.0637   -3.7401 H   0  0  0  0  0  0  0  0  0  0  0  0
    7.3159  -10.6233   -2.2861 H   0  0  0  0  0  0  0  0  0  0  0  0
    5.5602   -9.8744   -0.7425 H   0  0  0  0  0  0  0  0  0  0  0  0
    5.5389   -8.1943   -0.1472 H   0  0  0  0  0  0  0  0  0  0  0  0
    6.5434   -9.4108    0.6614 H   0  0  0  0  0  0  0  0  0  0  0  0
    7.6405   -6.7496   -0.4090 H   0  0  0  0  0  0  0  0  0  0  0  0
    4.7240   -2.8477   -1.1230 H   0  0  0  0  0  0  0  0  0  0  0  0
    2.8013   -4.0752   -0.1624 H   0  0  0  0  0  0  0  0  0  0  0  0
  1  2  1  0
  1 28  1  0
  1 29  1  0
  1 30  1  0
  2  3  2  0
  2 27  1  0
  3  4  1  0
  3 31  1  0
  4  5  2  0
  4 32  1  0
  5  6  1  0
  5 26  1  0
  6  7  1  0
  6 33  1  0
  6 34  1  0
  7  8  1  0
  7 25  1  0
  8  9  2  0
  8 35  1  0
  9 10  1  0
  9 24  1  0
 10 11  1  6
 10 12  1  0
 10 15  1  0
 12 13  1  0
 13 14  1  0
 13 36  1  0
 13 37  1  0
 14 15  1  0
 14 38  1  0
 14 39  1  0
 15 16  1  0
 16 17  1  0
 16 40  1  0
 16 41  1  0
 17 18  2  0
 17 23  1  0
 18 19  1  0
 18 42  1  0
 19 20  2  0
 19 43  1  0
 20 21  1  0
 20 44  1  0
 21 22  1  0
 21 23  2  0
 22 45  1  0
 22 46  1  0
 22 47  1  0
 23 48  1  0
 24 25  2  0
 26 27  2  0
 26 49  1  0
 27 50  1  0
M  END

