
     RDKit          3D

 31 30  0  0  0  0  0  0  0  0999 V2000
    3.1745    2.6878   -1.0996 C   0  0  0  0  0  0  0  0  0  0  0  0
    2.8174    2.8461    0.3847 C   0  0  1  0  0  0  0  0  0  0  0  0
    1.4373    3.4968    0.5444 C   0  0  0  0  0  0  0  0  0  0  0  0
    2.8731    1.5123    1.1526 C   0  0  0  0  0  0  0  0  0  0  0  0
    4.2370    0.8303    1.2380 C   0  0  0  0  0  0  0  0  0  0  0  0
    5.6015    1.7378    2.0972 S   0  0  0  0  0  0  0  0  0  0  0  0
    5.3161    1.2920    4.1191 S   0  0  0  0  0  0  0  0  0  0  0  0
    4.7239    2.8765    4.9570 C   0  0  1  0  0  0  0  0  0  0  0  0
    3.3545    3.3141    4.4387 C   0  0  0  0  0  0  0  0  0  0  0  0
    4.6410    2.4592    6.4340 C   0  0  0  0  0  0  0  0  0  0  0  0
    5.7654    3.9819    4.7598 C   0  0  0  0  0  0  0  0  0  0  0  0
    3.1259    3.6570   -1.6219 H   0  0  0  0  0  0  0  0  0  0  0  0
    2.4713    2.0031   -1.6054 H   0  0  0  0  0  0  0  0  0  0  0  0
    4.1915    2.2916   -1.2471 H   0  0  0  0  0  0  0  0  0  0  0  0
    3.5656    3.5205    0.8406 H   0  0  0  0  0  0  0  0  0  0  0  0
    0.6458    2.8582    0.1149 H   0  0  0  0  0  0  0  0  0  0  0  0
    1.3915    4.4709    0.0310 H   0  0  0  0  0  0  0  0  0  0  0  0
    1.1889    3.6643    1.6050 H   0  0  0  0  0  0  0  0  0  0  0  0
    2.1760    0.7968    0.6749 H   0  0  0  0  0  0  0  0  0  0  0  0
    2.4915    1.6620    2.1758 H   0  0  0  0  0  0  0  0  0  0  0  0
    4.6637    0.6516    0.2371 H   0  0  0  0  0  0  0  0  0  0  0  0
    4.1540   -0.1512    1.7271 H   0  0  0  0  0  0  0  0  0  0  0  0
    2.5996    2.5262    4.5821 H   0  0  0  0  0  0  0  0  0  0  0  0
    3.3990    3.5672    3.3694 H   0  0  0  0  0  0  0  0  0  0  0  0
    3.0180    4.2146    4.9814 H   0  0  0  0  0  0  0  0  0  0  0  0
    3.9054    1.6536    6.5869 H   0  0  0  0  0  0  0  0  0  0  0  0
    4.3276    3.3239    7.0426 H   0  0  0  0  0  0  0  0  0  0  0  0
    5.6162    2.1147    6.8124 H   0  0  0  0  0  0  0  0  0  0  0  0
    5.8776    4.2329    3.6939 H   0  0  0  0  0  0  0  0  0  0  0  0
    6.7493    3.6770    5.1473 H   0  0  0  0  0  0  0  0  0  0  0  0
    5.4508    4.8965    5.2920 H   0  0  0  0  0  0  0  0  0  0  0  0
  1  2  1  0
  1 12  1  0
  1 13  1  0
  1 14  1  0
  2  3  1  0
  2  4  1  0
  2 15  1  1
  3 16  1  0
  3 17  1  0
  3 18  1  0
  4  5  1  0
  4 19  1  0
  4 20  1  0
  5  6  1  0
  5 21  1  0
  5 22  1  0
  6  7  1  0
  8  7  1  6
  8  9  1  0
  8 10  1  0
  8 11  1  0
  9 23  1  0
  9 24  1  0
  9 25  1  0
 10 26  1  0
 10 27  1  0
 10 28  1  0
 11 29  1  0
 11 30  1  0
 11 31  1  0
M  END

