
     RDKit          3D

 59 61  0  0  0  0  0  0  0  0999 V2000
   10.5604   -4.2482   -2.9628 C   0  0  0  0  0  0  0  0  0  0  0  0
    9.1449   -4.7650   -3.2588 C   0  0  1  0  0  0  0  0  0  0  0  0
    8.0668   -4.1095   -2.3724 C   0  0  0  0  0  0  0  0  0  0  0  0
    7.7764   -2.6613   -2.7743 C   0  0  0  0  0  0  0  0  0  0  0  0
    7.4535   -2.5510   -4.1945 N   0  0  0  0  0  0  0  0  0  0  0  0
    6.3365   -1.8195   -4.5643 C   0  0  0  0  0  0  0  0  0  0  0  0
    5.4998   -1.4527   -3.7437 O   0  0  0  0  0  0  0  0  0  0  0  0
    6.2052   -1.5509   -5.9141 N   0  0  0  0  0  0  0  0  0  0  0  0
    5.1068   -0.7501   -6.4048 C   0  0  0  0  0  0  0  0  0  0  0  0
    5.5445    0.6511   -6.9103 C   0  0  1  0  0  0  0  0  0  0  0  0
    6.5167    0.3644   -7.9920 N   0  0  0  0  0  0  0  0  0  0  0  0
    7.2829    1.4605   -8.6234 C   0  0  1  0  0  0  0  0  0  0  0  0
    8.7137    1.5367   -8.0623 C   0  0  0  0  0  0  0  0  0  0  0  0
    7.3058    1.2806  -10.1362 C   0  0  0  0  0  0  0  0  0  0  0  0
    6.9003    2.3163  -10.9909 C   0  0  0  0  0  0  0  0  0  0  0  0
    6.9329    2.1583  -12.3802 C   0  0  0  0  0  0  0  0  0  0  0  0
    7.3702    0.9549  -12.9393 C   0  0  0  0  0  0  0  0  0  0  0  0
    7.7766   -0.0869  -12.0993 C   0  0  0  0  0  0  0  0  0  0  0  0
    7.7480    0.0762  -10.7121 C   0  0  0  0  0  0  0  0  0  0  0  0
    4.3004    1.4223   -7.4244 C   0  0  0  0  0  0  0  0  0  0  0  0
    3.3885    1.9147   -6.2939 C   0  0  0  0  0  0  0  0  0  0  0  0
    4.0994    2.6777   -5.3446 O   0  0  0  0  0  0  0  0  0  0  0  0
    5.1491    1.9401   -4.7425 C   0  0  0  0  0  0  0  0  0  0  0  0
    6.1809    1.4855   -5.7793 C   0  0  0  0  0  0  0  0  0  0  0  0
    8.4233   -3.1343   -5.1117 C   0  0  0  0  0  0  0  0  0  0  0  0
    8.7405   -4.5902   -4.7354 C   0  0  0  0  0  0  0  0  0  0  0  0
   10.8299   -4.4238   -1.9086 H   0  0  0  0  0  0  0  0  0  0  0  0
   10.6678   -3.1680   -3.1507 H   0  0  0  0  0  0  0  0  0  0  0  0
   11.3070   -4.7649   -3.5880 H   0  0  0  0  0  0  0  0  0  0  0  0
    9.1458   -5.8479   -3.0429 H   0  0  0  0  0  0  0  0  0  0  0  0
    8.3696   -4.1395   -1.3118 H   0  0  0  0  0  0  0  0  0  0  0  0
    7.1309   -4.6884   -2.4554 H   0  0  0  0  0  0  0  0  0  0  0  0
    8.6517   -2.0204   -2.5451 H   0  0  0  0  0  0  0  0  0  0  0  0
    6.9220   -2.2612   -2.2160 H   0  0  0  0  0  0  0  0  0  0  0  0
    7.0319   -1.5072   -6.5000 H   0  0  0  0  0  0  0  0  0  0  0  0
    4.3701   -0.6769   -5.5965 H   0  0  0  0  0  0  0  0  0  0  0  0
    4.6148   -1.2691   -7.2498 H   0  0  0  0  0  0  0  0  0  0  0  0
    6.0117   -0.1369   -8.7217 H   0  0  0  0  0  0  0  0  0  0  0  0
    6.7943    2.4336   -8.4307 H   0  0  0  0  0  0  0  0  0  0  0  0
    9.2577    0.6017   -8.2678 H   0  0  0  0  0  0  0  0  0  0  0  0
    8.7045    1.6891   -6.9735 H   0  0  0  0  0  0  0  0  0  0  0  0
    9.2712    2.3682   -8.5225 H   0  0  0  0  0  0  0  0  0  0  0  0
    6.5524    3.2608  -10.5624 H   0  0  0  0  0  0  0  0  0  0  0  0
    6.6118    2.9789  -13.0271 H   0  0  0  0  0  0  0  0  0  0  0  0
    7.3947    0.8285  -14.0247 H   0  0  0  0  0  0  0  0  0  0  0  0
    8.1220   -1.0318  -12.5274 H   0  0  0  0  0  0  0  0  0  0  0  0
    8.0734   -0.7438  -10.0664 H   0  0  0  0  0  0  0  0  0  0  0  0
    3.7238    0.7868   -8.1204 H   0  0  0  0  0  0  0  0  0  0  0  0
    4.6416    2.3000   -7.9979 H   0  0  0  0  0  0  0  0  0  0  0  0
    2.8858    1.0576   -5.7995 H   0  0  0  0  0  0  0  0  0  0  0  0
    2.5968    2.5660   -6.6964 H   0  0  0  0  0  0  0  0  0  0  0  0
    4.7528    1.0702   -4.1845 H   0  0  0  0  0  0  0  0  0  0  0  0
    5.6222    2.6130   -4.0111 H   0  0  0  0  0  0  0  0  0  0  0  0
    6.9851    0.9169   -5.2862 H   0  0  0  0  0  0  0  0  0  0  0  0
    6.6371    2.3899   -6.2112 H   0  0  0  0  0  0  0  0  0  0  0  0
    9.3540   -2.5311   -5.1267 H   0  0  0  0  0  0  0  0  0  0  0  0
    8.0162   -3.1248   -6.1305 H   0  0  0  0  0  0  0  0  0  0  0  0
    9.5339   -4.9693   -5.4022 H   0  0  0  0  0  0  0  0  0  0  0  0
    7.8389   -5.1956   -4.9317 H   0  0  0  0  0  0  0  0  0  0  0  0
  1  2  1  0
  1 27  1  0
  1 28  1  0
  1 29  1  0
  2  3  1  0
  2 26  1  0
  2 30  1  1
  3  4  1  0
  3 31  1  0
  3 32  1  0
  4  5  1  0
  4 33  1  0
  4 34  1  0
  5  6  1  0
  5 25  1  0
  6  7  2  0
  6  8  1  0
  8  9  1  0
  8 35  1  0
  9 10  1  0
  9 36  1  0
  9 37  1  0
 10 11  1  6
 10 20  1  0
 10 24  1  0
 11 12  1  0
 11 38  1  0
 12 13  1  0
 12 14  1  0
 12 39  1  6
 13 40  1  0
 13 41  1  0
 13 42  1  0
 14 15  2  0
 14 19  1  0
 15 16  1  0
 15 43  1  0
 16 17  2  0
 16 44  1  0
 17 18  1  0
 17 45  1  0
 18 19  2  0
 18 46  1  0
 19 47  1  0
 20 21  1  0
 20 48  1  0
 20 49  1  0
 21 22  1  0
 21 50  1  0
 21 51  1  0
 22 23  1  0
 23 24  1  0
 23 52  1  0
 23 53  1  0
 24 54  1  0
 24 55  1  0
 25 26  1  0
 25 56  1  0
 25 57  1  0
 26 58  1  0
 26 59  1  0
M  END

