
     RDKit          3D

 40 41  0  0  0  0  0  0  0  0999 V2000
   10.1083    2.4853    0.7402 C   0  0  0  0  0  0  0  0  0  0  0  0
    9.6922    1.0506    0.4725 C   0  0  0  0  0  0  0  0  0  0  0  0
    8.6808    0.6867    1.3835 O   0  0  0  0  0  0  0  0  0  0  0  0
    8.2105   -0.6292    1.2379 C   0  0  0  0  0  0  0  0  0  0  0  0
    7.1040   -0.8864    2.2621 C   0  0  1  0  0  0  0  0  0  0  0  0
    5.8948    0.0202    2.0790 C   0  0  0  0  0  0  0  0  0  0  0  0
    6.7048   -2.2475    2.1156 O   0  0  0  0  0  0  0  0  0  0  0  0
    6.9923   -3.1362    3.1697 C   0  0  2  0  0  0  0  0  0  0  0  0
    6.7305   -4.5508    2.6639 C   0  0  0  0  0  0  0  0  0  0  0  0
    7.1796   -5.5813    3.6984 C   0  0  0  0  0  0  0  0  0  0  0  0
    6.6580   -5.2873    5.0910 C   0  0  0  0  0  0  0  0  0  0  0  0
    6.6263   -6.3060    6.0600 C   0  0  0  0  0  0  0  0  0  0  0  0
    6.1738   -6.0599    7.3545 C   0  0  0  0  0  0  0  0  0  0  0  0
    5.7363   -4.7765    7.7054 C   0  0  0  0  0  0  0  0  0  0  0  0
    5.7614   -3.7600    6.7540 C   0  0  0  0  0  0  0  0  0  0  0  0
    6.2241   -3.9957    5.4474 C   0  0  0  0  0  0  0  0  0  0  0  0
    6.1638   -2.8458    4.4461 C   0  0  2  0  0  0  0  0  0  0  0  0
    4.8213   -2.4879    4.1540 O   0  0  0  0  0  0  0  0  0  0  0  0
   10.9027    2.7949    0.0430 H   0  0  0  0  0  0  0  0  0  0  0  0
   10.4855    2.5927    1.7691 H   0  0  0  0  0  0  0  0  0  0  0  0
    9.2517    3.1662    0.6177 H   0  0  0  0  0  0  0  0  0  0  0  0
   10.5638    0.3689    0.5744 H   0  0  0  0  0  0  0  0  0  0  0  0
    9.3271    0.9400   -0.5708 H   0  0  0  0  0  0  0  0  0  0  0  0
    9.0289   -1.3637    1.3929 H   0  0  0  0  0  0  0  0  0  0  0  0
    7.8078   -0.8042    0.2178 H   0  0  0  0  0  0  0  0  0  0  0  0
    7.5372   -0.7156    3.2647 H   0  0  0  0  0  0  0  0  0  0  0  0
    5.4478   -0.1488    1.0857 H   0  0  0  0  0  0  0  0  0  0  0  0
    6.1930    1.0762    2.1528 H   0  0  0  0  0  0  0  0  0  0  0  0
    5.1367   -0.2113    2.8403 H   0  0  0  0  0  0  0  0  0  0  0  0
    8.0645   -3.0653    3.4555 H   0  0  0  0  0  0  0  0  0  0  0  0
    7.2542   -4.6913    1.7064 H   0  0  0  0  0  0  0  0  0  0  0  0
    5.6523   -4.6600    2.4461 H   0  0  0  0  0  0  0  0  0  0  0  0
    8.2857   -5.5991    3.7306 H   0  0  0  0  0  0  0  0  0  0  0  0
    6.8756   -6.5958    3.3930 H   0  0  0  0  0  0  0  0  0  0  0  0
    6.9621   -7.3104    5.7848 H   0  0  0  0  0  0  0  0  0  0  0  0
    6.1573   -6.8678    8.0908 H   0  0  0  0  0  0  0  0  0  0  0  0
    5.3758   -4.5739    8.7172 H   0  0  0  0  0  0  0  0  0  0  0  0
    5.4090   -2.7581    7.0141 H   0  0  0  0  0  0  0  0  0  0  0  0
    6.5744   -1.9470    4.9336 H   0  0  0  0  0  0  0  0  0  0  0  0
    4.3984   -3.2262    3.6944 H   0  0  0  0  0  0  0  0  0  0  0  0
  1  2  1  0
  1 19  1  0
  1 20  1  0
  1 21  1  0
  2  3  1  0
  2 22  1  0
  2 23  1  0
  3  4  1  0
  4  5  1  0
  4 24  1  0
  4 25  1  0
  5  6  1  0
  5  7  1  0
  5 26  1  1
  6 27  1  0
  6 28  1  0
  6 29  1  0
  7  8  1  0
  8  9  1  0
  8 17  1  0
  8 30  1  1
  9 10  1  0
  9 31  1  0
  9 32  1  0
 10 11  1  0
 10 33  1  0
 10 34  1  0
 11 12  1  0
 11 16  2  0
 12 13  2  0
 12 35  1  0
 13 14  1  0
 13 36  1  0
 14 15  2  0
 14 37  1  0
 15 16  1  0
 15 38  1  0
 16 17  1  0
 17 18  1  0
 17 39  1  1
 18 40  1  0
M  END

