
     RDKit          3D

 37 39  0  0  0  0  0  0  0  0999 V2000
    3.4252    2.3679   -0.1418 O   0  0  0  0  0  0  0  0  0  0  0  0
    3.2617    1.1965    0.1043 C   0  0  0  0  0  0  0  0  0  0  0  0
    4.1072    0.0590   -0.1513 C   0  0  0  0  0  0  0  0  0  0  0  0
    5.4021    0.3101   -0.7406 N   0  0  0  0  0  0  0  0  0  0  0  0
    5.8159    1.4492   -0.8186 O   0  0  0  0  0  0  0  0  0  0  0  0
    6.0615   -0.6661   -1.1478 O   0  0  0  0  0  0  0  0  0  0  0  0
    3.6699   -1.2721    0.1708 C   0  0  0  0  0  0  0  0  0  0  0  0
    4.4157   -2.3566   -0.1003 N   0  0  0  0  0  0  0  0  0  0  0  0
    4.0374   -3.7102    0.2456 C   0  0  0  0  0  0  0  0  0  0  0  0
    3.1227   -4.3647   -0.7984 C   0  0  0  0  0  0  0  0  0  0  0  0
    2.8315   -5.7268   -0.4159 N   0  0  0  0  0  0  0  0  0  0  0  0
    1.8653   -6.5183   -0.9765 C   0  0  0  0  0  0  0  0  0  0  0  0
    0.8883   -6.0338   -1.8893 C   0  0  0  0  0  0  0  0  0  0  0  0
   -0.0534   -6.8267   -2.3805 N   0  0  0  0  0  0  0  0  0  0  0  0
   -0.0540   -8.1092   -2.0001 C   0  0  0  0  0  0  0  0  0  0  0  0
    0.9182   -8.5918   -1.1198 C   0  0  0  0  0  0  0  0  0  0  0  0
    1.8694   -7.8108   -0.6127 N   0  0  0  0  0  0  0  0  0  0  0  0
    2.4887   -1.4968    0.7786 N   0  0  0  0  0  0  0  0  0  0  0  0
    1.6841   -0.4941    1.0784 C   0  0  0  0  0  0  0  0  0  0  0  0
    0.4368   -0.7371    1.7361 C   0  0  0  0  0  0  0  0  0  0  0  0
   -0.4144    0.2941    2.0388 C   0  0  0  0  0  0  0  0  0  0  0  0
   -0.0611    1.6286    1.6979 C   0  0  0  0  0  0  0  0  0  0  0  0
    1.1322    1.8542    1.0722 C   0  0  0  0  0  0  0  0  0  0  0  0
    1.9865    0.8221    0.7721 N   0  0  0  0  0  0  0  0  0  0  0  0
    5.2811   -2.1469   -0.6045 H   0  0  0  0  0  0  0  0  0  0  0  0
    3.5271   -3.7144    1.2190 H   0  0  0  0  0  0  0  0  0  0  0  0
    4.9665   -4.2963    0.3436 H   0  0  0  0  0  0  0  0  0  0  0  0
    3.5979   -4.2980   -1.7989 H   0  0  0  0  0  0  0  0  0  0  0  0
    2.1888   -3.7827   -0.8435 H   0  0  0  0  0  0  0  0  0  0  0  0
    3.5389   -6.2517    0.0895 H   0  0  0  0  0  0  0  0  0  0  0  0
    0.8873   -4.9897   -2.2176 H   0  0  0  0  0  0  0  0  0  0  0  0
   -0.8315   -8.7646   -2.4056 H   0  0  0  0  0  0  0  0  0  0  0  0
    0.9275   -9.6465   -0.8194 H   0  0  0  0  0  0  0  0  0  0  0  0
    0.2110   -1.7766    1.9740 H   0  0  0  0  0  0  0  0  0  0  0  0
   -1.3638    0.0914    2.5401 H   0  0  0  0  0  0  0  0  0  0  0  0
   -0.7194    2.4675    1.9249 H   0  0  0  0  0  0  0  0  0  0  0  0
    1.5052    2.8315    0.7655 H   0  0  0  0  0  0  0  0  0  0  0  0
  1  2  2  0
  2  3  1  0
  2 24  1  0
  3  4  1  0
  3  7  2  0
  4  5  2  0
  4  6  1  0
  7  8  1  0
  7 18  1  0
  8  9  1  0
  8 25  1  0
  9 10  1  0
  9 26  1  0
  9 27  1  0
 10 11  1  0
 10 28  1  0
 10 29  1  0
 11 12  1  0
 11 30  1  0
 12 13  2  0
 12 17  1  0
 13 14  1  0
 13 31  1  0
 14 15  2  0
 15 16  1  0
 15 32  1  0
 16 17  2  0
 16 33  1  0
 18 19  2  0
 19 20  1  0
 19 24  1  0
 20 21  2  0
 20 34  1  0
 21 22  1  0
 21 35  1  0
 22 23  2  0
 22 36  1  0
 23 24  1  0
 23 37  1  0
M  CHG  2   4   1   6  -1
M  END

