
     RDKit          3D

 41 43  0  0  0  0  0  0  0  0999 V2000
    1.1891    0.3308   -0.4052 O   0  0  0  0  0  0  0  0  0  0  0  0
    2.3756    0.0604   -0.2684 C   0  0  0  0  0  0  0  0  0  0  0  0
    2.9324   -0.3095    1.1179 C   0  0  0  0  0  0  0  0  0  0  0  0
    4.4316   -0.3002    1.2965 C   0  0  0  0  0  0  0  0  0  0  0  0
    5.1070    0.8764    1.6654 C   0  0  0  0  0  0  0  0  0  0  0  0
    6.4946    0.8919    1.8021 C   0  0  0  0  0  0  0  0  0  0  0  0
    7.2434   -0.2645    1.5650 C   0  0  0  0  0  0  0  0  0  0  0  0
    6.5815   -1.4468    1.1765 C   0  0  0  0  0  0  0  0  0  0  0  0
    5.1891   -1.4548    1.0540 C   0  0  0  0  0  0  0  0  0  0  0  0
    7.2709   -2.5974    0.9170 O   0  0  0  0  0  0  0  0  0  0  0  0
    8.6628   -2.4098    0.7083 C   0  0  0  0  0  0  0  0  0  0  0  0
    9.2328   -1.4878    1.7730 C   0  0  0  0  0  0  0  0  0  0  0  0
    8.6003   -0.2184    1.7169 O   0  0  0  0  0  0  0  0  0  0  0  0
    3.2583    0.0256   -1.2989 N   0  0  0  0  0  0  0  0  0  0  0  0
    2.9238    0.3245   -2.6803 C   0  0  1  0  0  0  0  0  0  0  0  0
    4.2515    0.1970   -3.4532 C   0  0  0  0  0  0  0  0  0  0  0  0
    5.3126   -0.0150   -2.9275 O   0  0  0  0  0  0  0  0  0  0  0  0
    4.1725    0.3346   -4.7894 O   0  0  0  0  0  0  0  0  0  0  0  0
    1.8478   -0.6518   -3.2779 C   0  0  0  0  0  0  0  0  0  0  0  0
    0.9350    0.2133   -4.1587 C   0  0  0  0  0  0  0  0  0  0  0  0
    0.8661    1.5417   -3.3934 C   0  0  0  0  0  0  0  0  0  0  0  0
    2.3038    1.7616   -2.8945 C   0  0  0  0  0  0  0  0  0  0  0  0
    2.5199   -1.3073    1.3441 H   0  0  0  0  0  0  0  0  0  0  0  0
    2.4425    0.3836    1.8184 H   0  0  0  0  0  0  0  0  0  0  0  0
    4.5386    1.7901    1.8575 H   0  0  0  0  0  0  0  0  0  0  0  0
    7.0278    1.7965    2.1021 H   0  0  0  0  0  0  0  0  0  0  0  0
    4.7132   -2.3929    0.7575 H   0  0  0  0  0  0  0  0  0  0  0  0
    8.8392   -1.9800   -0.2955 H   0  0  0  0  0  0  0  0  0  0  0  0
    9.1307   -3.4042    0.7529 H   0  0  0  0  0  0  0  0  0  0  0  0
   10.3083   -1.3177    1.6167 H   0  0  0  0  0  0  0  0  0  0  0  0
    9.0888   -1.9381    2.7735 H   0  0  0  0  0  0  0  0  0  0  0  0
    4.2457   -0.1497   -1.1208 H   0  0  0  0  0  0  0  0  0  0  0  0
    3.2568    0.4734   -5.0741 H   0  0  0  0  0  0  0  0  0  0  0  0
    1.2594   -1.0405   -2.4373 H   0  0  0  0  0  0  0  0  0  0  0  0
    2.2981   -1.5112   -3.7987 H   0  0  0  0  0  0  0  0  0  0  0  0
   -0.0500   -0.2502   -4.3229 H   0  0  0  0  0  0  0  0  0  0  0  0
    1.3635    0.3676   -5.1711 H   0  0  0  0  0  0  0  0  0  0  0  0
    0.2029    1.4219   -2.5246 H   0  0  0  0  0  0  0  0  0  0  0  0
    0.4926    2.3779   -4.0049 H   0  0  0  0  0  0  0  0  0  0  0  0
    2.3496    2.3352   -1.9602 H   0  0  0  0  0  0  0  0  0  0  0  0
    2.8927    2.3198   -3.6415 H   0  0  0  0  0  0  0  0  0  0  0  0
  1  2  2  0
  2  3  1  0
  2 14  1  0
  3  4  1  0
  3 23  1  0
  3 24  1  0
  4  5  2  0
  4  9  1  0
  5  6  1  0
  5 25  1  0
  6  7  2  0
  6 26  1  0
  7  8  1  0
  7 13  1  0
  8  9  2  0
  8 10  1  0
  9 27  1  0
 10 11  1  0
 11 12  1  0
 11 28  1  0
 11 29  1  0
 12 13  1  0
 12 30  1  0
 12 31  1  0
 14 15  1  0
 14 32  1  0
 15 16  1  6
 15 19  1  0
 15 22  1  0
 16 17  2  0
 16 18  1  0
 18 33  1  0
 19 20  1  0
 19 34  1  0
 19 35  1  0
 20 21  1  0
 20 36  1  0
 20 37  1  0
 21 22  1  0
 21 38  1  0
 21 39  1  0
 22 40  1  0
 22 41  1  0
M  END

