
     RDKit          3D

 45 47  0  0  0  0  0  0  0  0999 V2000
    7.2962   -6.0823   -0.0558 C   0  0  0  0  0  0  0  0  0  0  0  0
    8.1617   -4.8639    0.2469 C   0  0  1  0  0  0  0  0  0  0  0  0
    7.4316   -3.5133    0.0614 C   0  0  0  0  0  0  0  0  0  0  0  0
    7.9358   -2.6012    1.2170 C   0  0  2  0  0  0  0  0  0  0  0  0
    8.3483   -1.2677    0.8357 N   0  0  0  0  0  0  0  0  0  0  0  0
    7.5704   -0.1552    1.1089 C   0  0  0  0  0  0  0  0  0  0  0  0
    6.5524   -0.2030    1.7843 O   0  0  0  0  0  0  0  0  0  0  0  0
    8.0533    1.0115    0.5548 N   0  0  0  0  0  0  0  0  0  0  0  0
    7.4437    2.3059    0.8206 C   0  0  2  0  0  0  0  0  0  0  0  0
    6.4136    2.0898    1.1376 H   0  0  0  0  0  0  0  0  0  0  0  0
    7.5358    3.1697   -0.4220 C   0  0  0  0  0  0  0  0  0  0  0  0
    8.4611    4.1271   -0.2921 C   0  0  0  0  0  0  0  0  0  0  0  0
    9.1155    4.1241    1.0744 C   0  0  2  0  0  0  0  0  0  0  0  0
    9.1108    5.1410    1.5080 H   0  0  0  0  0  0  0  0  0  0  0  0
   10.5947    3.6842    1.0425 C   0  0  0  0  0  0  0  0  0  0  0  0
   10.7875    2.3115    0.7294 O   0  0  0  0  0  0  0  0  0  0  0  0
    8.1831    3.1779    1.8781 C   0  0  0  0  0  0  0  0  0  0  0  0
    9.0658   -3.4284    1.8493 C   0  0  0  0  0  0  0  0  0  0  0  0
    8.6422   -4.8032    1.6372 N   0  0  0  0  0  0  0  0  0  0  0  0
    9.6021   -5.7918    2.0214 C   0  0  1  0  0  0  0  0  0  0  0  0
    9.7807   -6.0841    3.4890 C   0  0  0  0  0  0  0  0  0  0  0  0
    9.1360   -7.1084    2.5918 C   0  0  0  0  0  0  0  0  0  0  0  0
    6.9229   -6.0340   -1.0915 H   0  0  0  0  0  0  0  0  0  0  0  0
    6.4294   -6.1148    0.6238 H   0  0  0  0  0  0  0  0  0  0  0  0
    7.8570   -7.0222    0.0534 H   0  0  0  0  0  0  0  0  0  0  0  0
    9.0400   -4.8866   -0.4417 H   0  0  0  0  0  0  0  0  0  0  0  0
    6.3396   -3.6410    0.1162 H   0  0  0  0  0  0  0  0  0  0  0  0
    7.6558   -3.0692   -0.9209 H   0  0  0  0  0  0  0  0  0  0  0  0
    7.1307   -2.4587    1.9485 H   0  0  0  0  0  0  0  0  0  0  0  0
    9.0578   -1.1878    0.1151 H   0  0  0  0  0  0  0  0  0  0  0  0
    8.9920    1.0478    0.1668 H   0  0  0  0  0  0  0  0  0  0  0  0
    6.9610    2.9532   -1.3258 H   0  0  0  0  0  0  0  0  0  0  0  0
    8.7518    4.8311   -1.0774 H   0  0  0  0  0  0  0  0  0  0  0  0
   11.0685    3.9273    2.0126 H   0  0  0  0  0  0  0  0  0  0  0  0
   11.1326    4.2592    0.2707 H   0  0  0  0  0  0  0  0  0  0  0  0
   10.6434    1.8017    1.5371 H   0  0  0  0  0  0  0  0  0  0  0  0
    7.4392    3.7800    2.4219 H   0  0  0  0  0  0  0  0  0  0  0  0
    8.7009    2.5599    2.6289 H   0  0  0  0  0  0  0  0  0  0  0  0
    9.2125   -3.2108    2.9184 H   0  0  0  0  0  0  0  0  0  0  0  0
   10.0298   -3.2019    1.3307 H   0  0  0  0  0  0  0  0  0  0  0  0
   10.5218   -5.8287    1.4068 H   0  0  0  0  0  0  0  0  0  0  0  0
    9.1284   -5.5445    4.1808 H   0  0  0  0  0  0  0  0  0  0  0  0
   10.7921   -6.2686    3.8613 H   0  0  0  0  0  0  0  0  0  0  0  0
    8.0574   -7.2496    2.6904 H   0  0  0  0  0  0  0  0  0  0  0  0
    9.6977   -8.0108    2.3339 H   0  0  0  0  0  0  0  0  0  0  0  0
  1  2  1  0
  1 23  1  0
  1 24  1  0
  1 25  1  0
  2  3  1  0
  2 19  1  0
  2 26  1  6
  3  4  1  0
  3 27  1  0
  3 28  1  0
  4  5  1  0
  4 18  1  0
  4 29  1  1
  5  6  1  0
  5 30  1  0
  6  7  2  0
  6  8  1  0
  8  9  1  0
  8 31  1  0
  9 10  1  1
  9 11  1  0
  9 17  1  0
 11 12  2  0
 11 32  1  0
 12 13  1  0
 12 33  1  0
 13 14  1  1
 13 15  1  0
 13 17  1  0
 15 16  1  0
 15 34  1  0
 15 35  1  0
 16 36  1  0
 17 37  1  0
 17 38  1  0
 18 19  1  0
 18 39  1  0
 18 40  1  0
 19 20  1  0
 20 21  1  0
 20 22  1  0
 20 41  1  6
 21 22  1  0
 21 42  1  0
 21 43  1  0
 22 44  1  0
 22 45  1  0
M  END

