
     RDKit          3D

 31 32  0  0  0  0  0  0  0  0999 V2000
    1.3007    0.0172    0.0429 N   0  0  0  0  0  0  0  0  0  0  0  0
    2.6663   -0.0452    0.0297 C   0  0  0  0  0  0  0  0  0  0  0  0
    3.3414   -1.1537    0.4993 C   0  0  0  0  0  0  0  0  0  0  0  0
    4.8095   -1.1243    0.7426 C   0  0  0  0  0  0  0  0  0  0  0  0
    5.5194   -0.1485    0.6953 O   0  0  0  0  0  0  0  0  0  0  0  0
    5.3685   -2.3277    1.0486 O   0  0  0  0  0  0  0  0  0  0  0  0
    2.5723   -2.3812    0.8794 C   0  0  0  0  0  0  0  0  0  0  0  0
    1.8798   -3.1374   -0.0904 C   0  0  0  0  0  0  0  0  0  0  0  0
    1.1641   -4.2842    0.2624 C   0  0  0  0  0  0  0  0  0  0  0  0
    1.1311   -4.7113    1.5941 C   0  0  0  0  0  0  0  0  0  0  0  0
    1.8157   -3.9800    2.5690 C   0  0  0  0  0  0  0  0  0  0  0  0
    2.5219   -2.8258    2.2173 C   0  0  0  0  0  0  0  0  0  0  0  0
    3.2970    1.1911   -0.5218 C   0  0  0  0  0  0  0  0  0  0  0  0
    4.1966    1.1308   -1.5983 C   0  0  0  0  0  0  0  0  0  0  0  0
    4.7071    2.3012   -2.1575 C   0  0  0  0  0  0  0  0  0  0  0  0
    4.3339    3.5494   -1.6459 C   0  0  0  0  0  0  0  0  0  0  0  0
    3.4396    3.6198   -0.5755 C   0  0  0  0  0  0  0  0  0  0  0  0
    2.9162    2.4476   -0.0226 C   0  0  0  0  0  0  0  0  0  0  0  0
    0.7587   -0.7742    0.3670 H   0  0  0  0  0  0  0  0  0  0  0  0
    0.8322    0.7076   -0.5281 H   0  0  0  0  0  0  0  0  0  0  0  0
    4.6964   -3.0248    1.0176 H   0  0  0  0  0  0  0  0  0  0  0  0
    1.9170   -2.8190   -1.1358 H   0  0  0  0  0  0  0  0  0  0  0  0
    0.6398   -4.8549   -0.5088 H   0  0  0  0  0  0  0  0  0  0  0  0
    0.5771   -5.6122    1.8694 H   0  0  0  0  0  0  0  0  0  0  0  0
    1.7947   -4.3043    3.6127 H   0  0  0  0  0  0  0  0  0  0  0  0
    3.0466   -2.2549    2.9876 H   0  0  0  0  0  0  0  0  0  0  0  0
    4.4960    0.1588   -1.9941 H   0  0  0  0  0  0  0  0  0  0  0  0
    5.4059    2.2399   -2.9956 H   0  0  0  0  0  0  0  0  0  0  0  0
    4.7421    4.4649   -2.0816 H   0  0  0  0  0  0  0  0  0  0  0  0
    3.1488    4.5902   -0.1650 H   0  0  0  0  0  0  0  0  0  0  0  0
    2.2221    2.5039    0.8195 H   0  0  0  0  0  0  0  0  0  0  0  0
  1  2  1  0
  1 19  1  0
  1 20  1  0
  2  3  2  0
  2 13  1  0
  3  4  1  0
  3  7  1  0
  4  5  2  0
  4  6  1  0
  6 21  1  0
  7  8  2  0
  7 12  1  0
  8  9  1  0
  8 22  1  0
  9 10  2  0
  9 23  1  0
 10 11  1  0
 10 24  1  0
 11 12  2  0
 11 25  1  0
 12 26  1  0
 13 14  2  0
 13 18  1  0
 14 15  1  0
 14 27  1  0
 15 16  2  0
 15 28  1  0
 16 17  1  0
 16 29  1  0
 17 18  2  0
 17 30  1  0
 18 31  1  0
M  END

