
     RDKit          3D

 36 37  0  0  0  0  0  0  0  0999 V2000
    3.1125    0.3044    1.5285 C   0  0  0  0  0  0  0  0  0  0  0  0
    3.7285    1.0117    0.3347 C   0  0  0  0  0  0  0  0  0  0  0  0
    4.5603    0.1126   -0.4357 O   0  0  0  0  0  0  0  0  0  0  0  0
    4.0159   -0.5081   -1.4846 C   0  0  0  0  0  0  0  0  0  0  0  0
    2.8703   -0.4092   -1.8345 O   0  0  0  0  0  0  0  0  0  0  0  0
    5.0928   -1.3541   -2.1673 C   0  0  1  0  0  0  0  0  0  0  0  0
    6.2873   -0.5864   -2.4514 C   0  0  0  0  0  0  0  0  0  0  0  0
    7.2378    0.0432   -2.6627 N   0  0  0  0  0  0  0  0  0  0  0  0
    5.3170   -2.8380   -1.7267 C   0  0  1  0  0  0  0  0  0  0  0  0
    4.6335   -3.5022   -0.5782 C   0  0  0  0  0  0  0  0  0  0  0  0
    3.2914   -3.3138   -0.2286 C   0  0  0  0  0  0  0  0  0  0  0  0
    2.7384   -3.9546    0.8806 C   0  0  0  0  0  0  0  0  0  0  0  0
    1.0563   -3.6341    1.2707 Cl  0  0  0  0  0  0  0  0  0  0  0  0
    3.4907   -4.8232    1.6840 C   0  0  0  0  0  0  0  0  0  0  0  0
    2.8954   -5.5189    2.8783 C   0  0  0  0  0  0  0  0  0  0  0  0
    4.8341   -5.0189    1.3279 C   0  0  0  0  0  0  0  0  0  0  0  0
    5.4112   -4.3766    0.2253 C   0  0  0  0  0  0  0  0  0  0  0  0
    6.7085   -4.5408   -0.1379 O   0  0  0  0  0  0  0  0  0  0  0  0
    7.5558   -5.3831    0.6146 C   0  0  0  0  0  0  0  0  0  0  0  0
    4.7544   -2.5306   -3.0847 C   0  0  1  0  0  0  0  0  0  0  0  0
    3.0879   -2.9182   -3.5012 Cl  0  0  0  0  0  0  0  0  0  0  0  0
    5.8366   -2.7973   -4.4700 Cl  0  0  0  0  0  0  0  0  0  0  0  0
    2.5527    1.0322    2.1375 H   0  0  0  0  0  0  0  0  0  0  0  0
    3.8904   -0.1481    2.1623 H   0  0  0  0  0  0  0  0  0  0  0  0
    2.4136   -0.4851    1.2145 H   0  0  0  0  0  0  0  0  0  0  0  0
    4.4108    1.8135    0.6506 H   0  0  0  0  0  0  0  0  0  0  0  0
    2.9575    1.4311   -0.3269 H   0  0  0  0  0  0  0  0  0  0  0  0
    6.3716   -3.1124   -1.7756 H   0  0  0  0  0  0  0  0  0  0  0  0
    2.6502   -2.6644   -0.8205 H   0  0  0  0  0  0  0  0  0  0  0  0
    2.5099   -4.7897    3.6093 H   0  0  0  0  0  0  0  0  0  0  0  0
    3.6374   -6.1562    3.3799 H   0  0  0  0  0  0  0  0  0  0  0  0
    2.0383   -6.1463    2.5842 H   0  0  0  0  0  0  0  0  0  0  0  0
    5.4341   -5.6914    1.9407 H   0  0  0  0  0  0  0  0  0  0  0  0
    8.5404   -5.3436    0.1306 H   0  0  0  0  0  0  0  0  0  0  0  0
    7.1974   -6.4276    0.6149 H   0  0  0  0  0  0  0  0  0  0  0  0
    7.6543   -5.0360    1.6582 H   0  0  0  0  0  0  0  0  0  0  0  0
  1  2  1  0
  1 23  1  0
  1 24  1  0
  1 25  1  0
  2  3  1  0
  2 26  1  0
  2 27  1  0
  3  4  1  0
  4  5  2  0
  4  6  1  0
  6  7  1  6
  6  9  1  0
  6 20  1  0
  7  8  3  0
  9 10  1  0
  9 20  1  0
  9 28  1  6
 10 11  2  0
 10 17  1  0
 11 12  1  0
 11 29  1  0
 12 13  1  0
 12 14  2  0
 14 15  1  0
 14 16  1  0
 15 30  1  0
 15 31  1  0
 15 32  1  0
 16 17  2  0
 16 33  1  0
 17 18  1  0
 18 19  1  0
 19 34  1  0
 19 35  1  0
 19 36  1  0
 20 21  1  6
 20 22  1  0
M  END

