
     RDKit          3D

 40 41  0  0  0  0  0  0  0  0999 V2000
    2.3688    2.6756    2.9565 C   0  0  0  0  0  0  0  0  0  0  0  0
    3.6289    1.5029    3.4707 S   0  0  1  0  0  0  0  0  0  0  0  0
    4.6258    2.2312    4.2505 O   0  0  0  0  0  0  0  0  0  0  0  0
    2.9616    0.3106    3.9894 O   0  0  0  0  0  0  0  0  0  0  0  0
    4.2969    0.9864    1.9970 N   0  0  0  0  0  0  0  0  0  0  0  0
    5.3803    1.5718    1.3250 C   0  0  0  0  0  0  0  0  0  0  0  0
    5.6961    2.9340    1.4081 C   0  0  0  0  0  0  0  0  0  0  0  0
    6.7611    3.4601    0.6586 C   0  0  0  0  0  0  0  0  0  0  0  0
    7.1050    4.8245    0.7001 N   0  0  0  0  0  0  0  0  0  0  0  0
    6.4458    5.8642    1.3233 C   0  0  0  0  0  0  0  0  0  0  0  0
    5.4156    5.7369    1.9644 O   0  0  0  0  0  0  0  0  0  0  0  0
    7.1335    7.2119    1.1494 C   0  0  0  0  0  0  0  0  0  0  0  0
    8.2735    7.5184    2.1697 C   0  0  1  0  0  0  0  0  0  0  0  0
    9.2802    6.3742    2.3175 C   0  0  0  0  0  0  0  0  0  0  0  0
    9.9666    6.1646    1.0905 O   0  0  0  0  0  0  0  0  0  0  0  0
   10.7346    7.3099    0.7446 C   0  0  0  0  0  0  0  0  0  0  0  0
    9.8544    8.5524    0.6092 C   0  0  0  0  0  0  0  0  0  0  0  0
    9.0449    8.7108    1.8129 N   0  0  0  0  0  0  0  0  0  0  0  0
    7.5205    2.6157   -0.1708 C   0  0  0  0  0  0  0  0  0  0  0  0
    7.2122    1.2576   -0.2505 C   0  0  0  0  0  0  0  0  0  0  0  0
    6.1549    0.7513    0.4896 C   0  0  0  0  0  0  0  0  0  0  0  0
    5.8377   -0.5602    0.4178 F   0  0  0  0  0  0  0  0  0  0  0  0
    1.9010    3.0387    3.8819 H   0  0  0  0  0  0  0  0  0  0  0  0
    1.6402    2.1463    2.3303 H   0  0  0  0  0  0  0  0  0  0  0  0
    2.8406    3.5071    2.4167 H   0  0  0  0  0  0  0  0  0  0  0  0
    4.1978   -0.0216    1.8977 H   0  0  0  0  0  0  0  0  0  0  0  0
    5.1469    3.5989    2.0661 H   0  0  0  0  0  0  0  0  0  0  0  0
    7.9878    5.0647    0.2561 H   0  0  0  0  0  0  0  0  0  0  0  0
    6.3520    7.9776    1.2579 H   0  0  0  0  0  0  0  0  0  0  0  0
    7.5343    7.2810    0.1269 H   0  0  0  0  0  0  0  0  0  0  0  0
    7.8130    7.6873    3.1575 H   0  0  0  0  0  0  0  0  0  0  0  0
    8.7973    5.4263    2.5886 H   0  0  0  0  0  0  0  0  0  0  0  0
    9.9996    6.6387    3.1151 H   0  0  0  0  0  0  0  0  0  0  0  0
   11.2429    7.0850   -0.2051 H   0  0  0  0  0  0  0  0  0  0  0  0
   11.5042    7.4835    1.5223 H   0  0  0  0  0  0  0  0  0  0  0  0
    9.2576    8.4616   -0.3250 H   0  0  0  0  0  0  0  0  0  0  0  0
   10.4985    9.4393    0.4880 H   0  0  0  0  0  0  0  0  0  0  0  0
    8.4533    9.5370    1.7569 H   0  0  0  0  0  0  0  0  0  0  0  0
    8.3514    3.0202   -0.7536 H   0  0  0  0  0  0  0  0  0  0  0  0
    7.7858    0.5794   -0.8850 H   0  0  0  0  0  0  0  0  0  0  0  0
  1  2  1  0
  1 23  1  0
  1 24  1  0
  1 25  1  0
  2  3  2  0
  2  4  2  0
  2  5  1  6
  5  6  1  0
  5 26  1  0
  6  7  2  0
  6 21  1  0
  7  8  1  0
  7 27  1  0
  8  9  1  0
  8 19  2  0
  9 10  1  0
  9 28  1  0
 10 11  2  0
 10 12  1  0
 12 13  1  0
 12 29  1  0
 12 30  1  0
 13 14  1  0
 13 18  1  0
 13 31  1  1
 14 15  1  0
 14 32  1  0
 14 33  1  0
 15 16  1  0
 16 17  1  0
 16 34  1  0
 16 35  1  0
 17 18  1  0
 17 36  1  0
 17 37  1  0
 18 38  1  0
 19 20  1  0
 19 39  1  0
 20 21  2  0
 20 40  1  0
 21 22  1  0
M  END

