
     RDKit          3D

 37 39  0  0  0  0  0  0  0  0999 V2000
    1.1277    0.0431    0.1176 C   0  0  0  0  0  0  0  0  0  0  0  0
    2.5189   -0.1976    0.3175 O   0  0  0  0  0  0  0  0  0  0  0  0
    3.0635   -1.2309   -0.3614 C   0  0  0  0  0  0  0  0  0  0  0  0
    3.6360   -1.0494   -1.6374 C   0  0  0  0  0  0  0  0  0  0  0  0
    3.5727    0.5342   -2.3642 Cl  0  0  0  0  0  0  0  0  0  0  0  0
    4.2587   -2.0963   -2.3123 C   0  0  0  0  0  0  0  0  0  0  0  0
    4.3066   -3.3712   -1.7335 C   0  0  0  0  0  0  0  0  0  0  0  0
    4.9884   -4.4491   -2.5196 C   0  0  0  0  0  0  0  0  0  0  0  0
    5.7204   -4.2177   -3.4772 O   0  0  0  0  0  0  0  0  0  0  0  0
    4.7570   -5.7284   -2.1150 N   0  0  0  0  0  0  0  0  0  0  0  0
    5.3297   -6.7517   -2.8394 N   0  0  0  0  0  0  0  0  0  0  0  0
    4.8292   -8.0117   -2.6534 C   0  0  0  0  0  0  0  0  0  0  0  0
    3.9441   -8.2022   -1.8239 O   0  0  0  0  0  0  0  0  0  0  0  0
    5.4227   -9.0906   -3.4964 C   0  0  0  0  0  0  0  0  0  0  0  0
    4.7220  -10.3028   -3.5654 C   0  0  0  0  0  0  0  0  0  0  0  0
    5.1854  -11.3810   -4.3375 C   0  0  0  0  0  0  0  0  0  0  0  0
    6.3731  -11.1947   -5.0249 C   0  0  0  0  0  0  0  0  0  0  0  0
    7.0851   -9.9918   -4.9529 C   0  0  0  0  0  0  0  0  0  0  0  0
    6.6441   -8.9241   -4.1979 C   0  0  0  0  0  0  0  0  0  0  0  0
    8.2218  -10.0940   -5.7023 O   0  0  0  0  0  0  0  0  0  0  0  0
    8.2080  -11.3908   -6.2932 C   0  0  0  0  0  0  0  0  0  0  0  0
    7.0428  -12.0696   -5.8236 O   0  0  0  0  0  0  0  0  0  0  0  0
    3.7481   -3.5785   -0.4642 C   0  0  0  0  0  0  0  0  0  0  0  0
    3.1295   -2.5210    0.2023 C   0  0  0  0  0  0  0  0  0  0  0  0
    2.4454   -2.7817    1.7850 Cl  0  0  0  0  0  0  0  0  0  0  0  0
    0.8690    0.9105    0.7392 H   0  0  0  0  0  0  0  0  0  0  0  0
    0.5249   -0.8236    0.4366 H   0  0  0  0  0  0  0  0  0  0  0  0
    0.9128    0.2774   -0.9383 H   0  0  0  0  0  0  0  0  0  0  0  0
    4.7131   -1.9388   -3.2905 H   0  0  0  0  0  0  0  0  0  0  0  0
    4.0092   -6.0540   -1.5057 H   0  0  0  0  0  0  0  0  0  0  0  0
    5.8541   -6.4195   -3.6451 H   0  0  0  0  0  0  0  0  0  0  0  0
    3.7957  -10.3884   -2.9955 H   0  0  0  0  0  0  0  0  0  0  0  0
    4.6412  -12.3246   -4.3942 H   0  0  0  0  0  0  0  0  0  0  0  0
    7.2437   -8.0153   -4.1324 H   0  0  0  0  0  0  0  0  0  0  0  0
    9.1105  -11.9502   -5.9894 H   0  0  0  0  0  0  0  0  0  0  0  0
    8.1663  -11.3006   -7.3941 H   0  0  0  0  0  0  0  0  0  0  0  0
    3.8041   -4.5449    0.0384 H   0  0  0  0  0  0  0  0  0  0  0  0
  1  2  1  0
  1 26  1  0
  1 27  1  0
  1 28  1  0
  2  3  1  0
  3  4  2  0
  3 24  1  0
  4  5  1  0
  4  6  1  0
  6  7  2  0
  6 29  1  0
  7  8  1  0
  7 23  1  0
  8  9  2  0
  8 10  1  0
 10 11  1  0
 10 30  1  0
 11 12  1  0
 11 31  1  0
 12 13  2  0
 12 14  1  0
 14 15  2  0
 14 19  1  0
 15 16  1  0
 15 32  1  0
 16 17  2  0
 16 33  1  0
 17 18  1  0
 17 22  1  0
 18 19  2  0
 18 20  1  0
 19 34  1  0
 20 21  1  0
 21 22  1  0
 21 35  1  0
 21 36  1  0
 23 24  2  0
 23 37  1  0
 24 25  1  0
M  END

