
     RDKit          3D

 34 37  0  0  0  0  0  0  0  0999 V2000
    0.8057    0.0020   -0.3927 O   0  0  0  0  0  0  0  0  0  0  0  0
    2.0319    0.0217   -0.3627 C   0  0  0  0  0  0  0  0  0  0  0  0
    2.8326    1.2292   -0.5282 C   0  0  0  0  0  0  0  0  0  0  0  0
    4.1906    1.1913   -0.4859 C   0  0  0  0  0  0  0  0  0  0  0  0
    4.9198    0.0394   -0.2877 N   0  0  0  0  0  0  0  0  0  0  0  0
    6.3560    0.1248   -0.2618 C   0  0  0  0  0  0  0  0  0  0  0  0
    7.0201    0.3752    0.9456 C   0  0  0  0  0  0  0  0  0  0  0  0
    8.4117    0.4799    0.9724 C   0  0  0  0  0  0  0  0  0  0  0  0
    9.1219    0.3290   -0.2178 C   0  0  0  0  0  0  0  0  0  0  0  0
   10.4547    0.4292   -0.1969 F   0  0  0  0  0  0  0  0  0  0  0  0
    8.4796    0.0778   -1.4294 C   0  0  0  0  0  0  0  0  0  0  0  0
    7.0877   -0.0246   -1.4466 C   0  0  0  0  0  0  0  0  0  0  0  0
    4.2583   -1.1805   -0.1161 C   0  0  0  0  0  0  0  0  0  0  0  0
    4.9814   -2.3716    0.0899 C   0  0  0  0  0  0  0  0  0  0  0  0
    4.2993   -3.5731    0.2575 C   0  0  0  0  0  0  0  0  0  0  0  0
    5.0506   -4.7606    0.4646 N   0  0  0  0  0  0  0  0  0  0  0  0
    4.6243   -6.0358    0.7013 C   0  0  0  0  0  0  0  0  0  0  0  0
    5.6521   -6.8438    0.8396 N   0  0  0  0  0  0  0  0  0  0  0  0
    6.7167   -6.0095    0.6785 C   0  0  0  0  0  0  0  0  0  0  0  0
    6.4046   -4.7480    0.4517 N   0  0  0  0  0  0  0  0  0  0  0  0
    2.8905   -3.6175    0.2230 C   0  0  0  0  0  0  0  0  0  0  0  0
    2.1885   -2.4407    0.0221 C   0  0  0  0  0  0  0  0  0  0  0  0
    2.8423   -1.2091   -0.1500 C   0  0  0  0  0  0  0  0  0  0  0  0
    2.3143    2.1753   -0.6889 H   0  0  0  0  0  0  0  0  0  0  0  0
    4.7965    2.0914   -0.6096 H   0  0  0  0  0  0  0  0  0  0  0  0
    6.4421    0.4864    1.8653 H   0  0  0  0  0  0  0  0  0  0  0  0
    8.9530    0.6753    1.8998 H   0  0  0  0  0  0  0  0  0  0  0  0
    9.0727   -0.0340   -2.3387 H   0  0  0  0  0  0  0  0  0  0  0  0
    6.5620   -0.2234   -2.3828 H   0  0  0  0  0  0  0  0  0  0  0  0
    6.0681   -2.3799    0.1213 H   0  0  0  0  0  0  0  0  0  0  0  0
    3.5753   -6.3168    0.7652 H   0  0  0  0  0  0  0  0  0  0  0  0
    7.7533   -6.3424    0.7299 H   0  0  0  0  0  0  0  0  0  0  0  0
    2.3515   -4.5567    0.3474 H   0  0  0  0  0  0  0  0  0  0  0  0
    1.0971   -2.4273   -0.0118 H   0  0  0  0  0  0  0  0  0  0  0  0
  1  2  2  0
  2  3  1  0
  2 23  1  0
  3  4  2  0
  3 24  1  0
  4  5  1  0
  4 25  1  0
  5  6  1  0
  5 13  1  0
  6  7  2  0
  6 12  1  0
  7  8  1  0
  7 26  1  0
  8  9  2  0
  8 27  1  0
  9 10  1  0
  9 11  1  0
 11 12  2  0
 11 28  1  0
 12 29  1  0
 13 14  1  0
 13 23  2  0
 14 15  2  0
 14 30  1  0
 15 16  1  0
 15 21  1  0
 16 17  1  0
 16 20  1  0
 17 18  2  0
 17 31  1  0
 18 19  1  0
 19 20  2  0
 19 32  1  0
 21 22  2  0
 21 33  1  0
 22 23  1  0
 22 34  1  0
M  END

