
     RDKit          3D

 47 47  0  0  0  0  0  0  0  0999 V2000
    2.8099    0.3087    2.3788 C   0  0  0  0  0  0  0  0  0  0  0  0
    2.4457    0.3798    0.8920 C   0  0  1  0  0  0  0  0  0  0  0  0
    2.8708   -0.8822    0.1336 C   0  0  0  0  0  0  0  0  0  0  0  0
    0.9491    0.6417    0.7125 C   0  0  0  0  0  0  0  0  0  0  0  0
    3.0577    1.5629    0.2816 O   0  0  0  0  0  0  0  0  0  0  0  0
    4.3931    1.7327    0.2297 C   0  0  0  0  0  0  0  0  0  0  0  0
    5.2334    0.9597    0.6597 O   0  0  0  0  0  0  0  0  0  0  0  0
    4.6924    2.9109   -0.3828 N   0  0  0  0  0  0  0  0  0  0  0  0
    6.0575    3.3606   -0.5324 C   0  0  1  0  0  0  0  0  0  0  0  0
    6.7662    2.6531   -1.7197 C   0  0  0  0  0  0  0  0  0  0  0  0
    8.2728    2.8952   -1.8917 C   0  0  0  0  0  0  0  0  0  0  0  0
    9.1703    2.5726   -0.6741 C   0  0  1  0  0  0  0  0  0  0  0  0
    8.9599    1.1599   -0.0842 C   0  0  0  0  0  0  0  0  0  0  0  0
    9.5196    0.0532   -0.9898 C   0  0  0  0  0  0  0  0  0  0  0  0
   11.0041    0.2831   -1.3037 C   0  0  0  0  0  0  0  0  0  0  0  0
   11.2468    1.6768   -1.8984 C   0  0  0  0  0  0  0  0  0  0  0  0
   10.6649    2.7844   -1.0059 C   0  0  0  0  0  0  0  0  0  0  0  0
    6.0218    4.8816   -0.7138 C   0  0  0  0  0  0  0  0  0  0  0  0
    5.0365    5.4812   -1.0525 O   0  0  0  0  0  0  0  0  0  0  0  0
    7.1843    5.5280   -0.5057 O   0  0  0  0  0  0  0  0  0  0  0  0
    2.2602   -0.5170    2.8572 H   0  0  0  0  0  0  0  0  0  0  0  0
    2.5286    1.2446    2.8869 H   0  0  0  0  0  0  0  0  0  0  0  0
    3.8861    0.1417    2.5138 H   0  0  0  0  0  0  0  0  0  0  0  0
    2.3226   -1.7533    0.5250 H   0  0  0  0  0  0  0  0  0  0  0  0
    3.9474   -1.0640    0.2429 H   0  0  0  0  0  0  0  0  0  0  0  0
    2.6333   -0.7833   -0.9374 H   0  0  0  0  0  0  0  0  0  0  0  0
    0.3630   -0.1877    1.1366 H   0  0  0  0  0  0  0  0  0  0  0  0
    0.6981    0.7375   -0.3548 H   0  0  0  0  0  0  0  0  0  0  0  0
    0.6554    1.5729    1.2200 H   0  0  0  0  0  0  0  0  0  0  0  0
    3.9550    3.5397   -0.6868 H   0  0  0  0  0  0  0  0  0  0  0  0
    6.6022    3.1208    0.3969 H   0  0  0  0  0  0  0  0  0  0  0  0
    6.2399    2.9448   -2.6441 H   0  0  0  0  0  0  0  0  0  0  0  0
    6.5766    1.5789   -1.5770 H   0  0  0  0  0  0  0  0  0  0  0  0
    8.4562    3.9421   -2.1916 H   0  0  0  0  0  0  0  0  0  0  0  0
    8.5973    2.2936   -2.7560 H   0  0  0  0  0  0  0  0  0  0  0  0
    8.9216    3.2926    0.1336 H   0  0  0  0  0  0  0  0  0  0  0  0
    7.8975    0.9775    0.1426 H   0  0  0  0  0  0  0  0  0  0  0  0
    9.4874    1.1163    0.8860 H   0  0  0  0  0  0  0  0  0  0  0  0
    8.9457    0.0092   -1.9333 H   0  0  0  0  0  0  0  0  0  0  0  0
    9.3782   -0.9275   -0.5056 H   0  0  0  0  0  0  0  0  0  0  0  0
   11.3803   -0.4957   -1.9884 H   0  0  0  0  0  0  0  0  0  0  0  0
   11.5879    0.1824   -0.3697 H   0  0  0  0  0  0  0  0  0  0  0  0
   10.7959    1.7280   -2.9056 H   0  0  0  0  0  0  0  0  0  0  0  0
   12.3265    1.8490   -2.0438 H   0  0  0  0  0  0  0  0  0  0  0  0
   10.8130    3.7712   -1.4783 H   0  0  0  0  0  0  0  0  0  0  0  0
   11.2321    2.8070   -0.0581 H   0  0  0  0  0  0  0  0  0  0  0  0
    7.8702    4.9165   -0.1970 H   0  0  0  0  0  0  0  0  0  0  0  0
  1  2  1  0
  1 21  1  0
  1 22  1  0
  1 23  1  0
  2  3  1  0
  2  4  1  0
  2  5  1  6
  3 24  1  0
  3 25  1  0
  3 26  1  0
  4 27  1  0
  4 28  1  0
  4 29  1  0
  5  6  1  0
  6  7  2  0
  6  8  1  0
  8  9  1  0
  8 30  1  0
  9 10  1  0
  9 18  1  0
  9 31  1  1
 10 11  1  0
 10 32  1  0
 10 33  1  0
 11 12  1  0
 11 34  1  0
 11 35  1  0
 12 13  1  0
 12 17  1  0
 12 36  1  1
 13 14  1  0
 13 37  1  0
 13 38  1  0
 14 15  1  0
 14 39  1  0
 14 40  1  0
 15 16  1  0
 15 41  1  0
 15 42  1  0
 16 17  1  0
 16 43  1  0
 16 44  1  0
 17 45  1  0
 17 46  1  0
 18 19  2  0
 18 20  1  0
 20 47  1  0
M  END

