
     RDKit          3D

 57 60  0  0  0  0  0  0  0  0999 V2000
    1.7825   -0.2387   -2.2797 C   0  0  0  0  0  0  0  0  0  0  0  0
    2.9971   -1.0805   -2.0365 C   0  0  0  0  0  0  0  0  0  0  0  0
    4.0261   -1.0383   -2.8701 N   0  0  0  0  0  0  0  0  0  0  0  0
    4.9470   -1.9001   -2.3799 N   0  0  0  0  0  0  0  0  0  0  0  0
    6.1904   -2.0207   -3.0559 C   0  0  0  0  0  0  0  0  0  0  0  0
    6.7698   -0.8729   -3.6205 C   0  0  0  0  0  0  0  0  0  0  0  0
    7.9815   -0.9604   -4.3031 C   0  0  0  0  0  0  0  0  0  0  0  0
    8.6148   -2.1981   -4.4110 C   0  0  0  0  0  0  0  0  0  0  0  0
    9.7850   -2.2820   -5.0591 F   0  0  0  0  0  0  0  0  0  0  0  0
    8.0531   -3.3497   -3.8672 C   0  0  0  0  0  0  0  0  0  0  0  0
    6.8301   -3.2601   -3.1978 C   0  0  0  0  0  0  0  0  0  0  0  0
    4.5257   -2.4922   -1.2095 C   0  0  0  0  0  0  0  0  0  0  0  0
    5.3710   -3.4078   -0.3794 C   0  0  0  0  0  0  0  0  0  0  0  0
    3.2512   -1.9908   -0.9625 C   0  0  0  0  0  0  0  0  0  0  0  0
    2.3570   -2.2771    0.2165 C   0  0  0  0  0  0  0  0  0  0  0  0
    0.9269   -2.7093   -0.1534 C   0  0  0  0  0  0  0  0  0  0  0  0
    0.0132   -1.9024   -0.0676 O   0  0  0  0  0  0  0  0  0  0  0  0
    0.7174   -4.0001   -0.5897 N   0  0  0  0  0  0  0  0  0  0  0  0
   -0.6378   -4.4164   -0.9273 C   0  0  0  0  0  0  0  0  0  0  0  0
   -1.1718   -5.5441   -0.0408 C   0  0  0  0  0  0  0  0  0  0  0  0
   -0.4878   -6.9124   -0.1881 C   0  0  0  0  0  0  0  0  0  0  0  0
    0.7920   -7.0676    0.4941 N   0  0  0  0  0  0  0  0  0  0  0  0
    1.1000   -8.2749    1.1280 C   0  0  0  0  0  0  0  0  0  0  0  0
    0.4513   -9.4857    0.7835 C   0  0  0  0  0  0  0  0  0  0  0  0
    0.7611  -10.6859    1.4243 C   0  0  0  0  0  0  0  0  0  0  0  0
    1.7392  -10.7086    2.4135 C   0  0  0  0  0  0  0  0  0  0  0  0
    2.0426  -11.8678    3.0260 F   0  0  0  0  0  0  0  0  0  0  0  0
    2.4075   -9.5428    2.7718 C   0  0  0  0  0  0  0  0  0  0  0  0
    2.0884   -8.3397    2.1401 C   0  0  0  0  0  0  0  0  0  0  0  0
    1.7903   -6.0068    0.5040 C   0  0  0  0  0  0  0  0  0  0  0  0
    1.7420   -5.0253   -0.6771 C   0  0  0  0  0  0  0  0  0  0  0  0
    1.9909    0.4832   -3.0814 H   0  0  0  0  0  0  0  0  0  0  0  0
    1.4792    0.3036   -1.3710 H   0  0  0  0  0  0  0  0  0  0  0  0
    0.9146   -0.8494   -2.5756 H   0  0  0  0  0  0  0  0  0  0  0  0
    6.2484    0.0795   -3.5251 H   0  0  0  0  0  0  0  0  0  0  0  0
    8.4470   -0.0793   -4.7489 H   0  0  0  0  0  0  0  0  0  0  0  0
    8.5649   -4.3062   -3.9882 H   0  0  0  0  0  0  0  0  0  0  0  0
    6.3661   -4.1669   -2.8104 H   0  0  0  0  0  0  0  0  0  0  0  0
    6.4225   -3.0834   -0.3626 H   0  0  0  0  0  0  0  0  0  0  0  0
    5.3589   -4.4522   -0.7364 H   0  0  0  0  0  0  0  0  0  0  0  0
    5.0087   -3.4135    0.6587 H   0  0  0  0  0  0  0  0  0  0  0  0
    2.2076   -1.3622    0.8097 H   0  0  0  0  0  0  0  0  0  0  0  0
    2.8295   -3.0150    0.8820 H   0  0  0  0  0  0  0  0  0  0  0  0
   -0.6601   -4.7425   -1.9852 H   0  0  0  0  0  0  0  0  0  0  0  0
   -1.2737   -3.5278   -0.8348 H   0  0  0  0  0  0  0  0  0  0  0  0
   -2.2314   -5.6906   -0.3114 H   0  0  0  0  0  0  0  0  0  0  0  0
   -1.1604   -5.2310    1.0170 H   0  0  0  0  0  0  0  0  0  0  0  0
   -0.4158   -7.1597   -1.2693 H   0  0  0  0  0  0  0  0  0  0  0  0
   -1.1689   -7.6576    0.2448 H   0  0  0  0  0  0  0  0  0  0  0  0
   -0.2900   -9.5058   -0.0151 H   0  0  0  0  0  0  0  0  0  0  0  0
    0.2572  -11.6144    1.1472 H   0  0  0  0  0  0  0  0  0  0  0  0
    3.1660   -9.5793    3.5567 H   0  0  0  0  0  0  0  0  0  0  0  0
    2.6015   -7.4356    2.4671 H   0  0  0  0  0  0  0  0  0  0  0  0
    2.7838   -6.4854    0.4769 H   0  0  0  0  0  0  0  0  0  0  0  0
    1.7587   -5.4119    1.4409 H   0  0  0  0  0  0  0  0  0  0  0  0
    1.6070   -5.5836   -1.6201 H   0  0  0  0  0  0  0  0  0  0  0  0
    2.7231   -4.5452   -0.7558 H   0  0  0  0  0  0  0  0  0  0  0  0
  1  2  1  0
  1 32  1  0
  1 33  1  0
  1 34  1  0
  2  3  2  0
  2 14  1  0
  3  4  1  0
  4  5  1  0
  4 12  1  0
  5  6  2  0
  5 11  1  0
  6  7  1  0
  6 35  1  0
  7  8  2  0
  7 36  1  0
  8  9  1  0
  8 10  1  0
 10 11  2  0
 10 37  1  0
 11 38  1  0
 12 13  1  0
 12 14  2  0
 13 39  1  0
 13 40  1  0
 13 41  1  0
 14 15  1  0
 15 16  1  0
 15 42  1  0
 15 43  1  0
 16 17  2  0
 16 18  1  0
 18 19  1  0
 18 31  1  0
 19 20  1  0
 19 44  1  0
 19 45  1  0
 20 21  1  0
 20 46  1  0
 20 47  1  0
 21 22  1  0
 21 48  1  0
 21 49  1  0
 22 23  1  0
 22 30  1  0
 23 24  2  0
 23 29  1  0
 24 25  1  0
 24 50  1  0
 25 26  2  0
 25 51  1  0
 26 27  1  0
 26 28  1  0
 28 29  2  0
 28 52  1  0
 29 53  1  0
 30 31  1  0
 30 54  1  0
 30 55  1  0
 31 56  1  0
 31 57  1  0
M  END

