
     RDKit          3D

 25 26  0  0  0  0  0  0  0  0999 V2000
    0.9862    0.0011    0.2053 C   0  0  0  0  0  0  0  0  0  0  0  0
    2.4886   -0.0265    0.0661 C   0  0  0  0  0  0  0  0  0  0  0  0
    3.2553    1.1322    0.3013 C   0  0  0  0  0  0  0  0  0  0  0  0
    2.3879    2.7869    0.7328 Br  0  0  0  0  0  0  0  0  0  0  0  0
    4.6498    1.1455    0.2379 C   0  0  0  0  0  0  0  0  0  0  0  0
    5.3261   -0.0346   -0.0694 C   0  0  0  0  0  0  0  0  0  0  0  0
    4.6026   -1.1984   -0.3213 C   0  0  0  0  0  0  0  0  0  0  0  0
    3.1977   -1.2094   -0.2700 C   0  0  0  0  0  0  0  0  0  0  0  0
    2.5019   -2.4958   -0.5830 C   0  0  0  0  0  0  0  0  0  0  0  0
    2.7823   -3.6560    0.1591 C   0  0  0  0  0  0  0  0  0  0  0  0
    2.1678   -4.8701   -0.1573 C   0  0  0  0  0  0  0  0  0  0  0  0
    1.2661   -4.9570   -1.2208 C   0  0  0  0  0  0  0  0  0  0  0  0
    0.9927   -3.8045   -1.9625 C   0  0  0  0  0  0  0  0  0  0  0  0
   -0.2266   -3.8999   -3.4289 Br  0  0  0  0  0  0  0  0  0  0  0  0
    1.5976   -2.5843   -1.6566 C   0  0  0  0  0  0  0  0  0  0  0  0
    0.6943    0.5179    1.1318 H   0  0  0  0  0  0  0  0  0  0  0  0
    0.5591   -1.0084    0.2215 H   0  0  0  0  0  0  0  0  0  0  0  0
    0.5157    0.5579   -0.6227 H   0  0  0  0  0  0  0  0  0  0  0  0
    5.1944    2.0712    0.4296 H   0  0  0  0  0  0  0  0  0  0  0  0
    6.4175   -0.0400   -0.1214 H   0  0  0  0  0  0  0  0  0  0  0  0
    5.1278   -2.1193   -0.5846 H   0  0  0  0  0  0  0  0  0  0  0  0
    3.4792   -3.5999    0.9984 H   0  0  0  0  0  0  0  0  0  0  0  0
    2.3896   -5.7628    0.4330 H   0  0  0  0  0  0  0  0  0  0  0  0
    0.7834   -5.9027   -1.4721 H   0  0  0  0  0  0  0  0  0  0  0  0
    1.3786   -1.7030   -2.2612 H   0  0  0  0  0  0  0  0  0  0  0  0
  1  2  1  0
  1 16  1  0
  1 17  1  0
  1 18  1  0
  2  3  2  0
  2  8  1  0
  3  4  1  0
  3  5  1  0
  5  6  2  0
  5 19  1  0
  6  7  1  0
  6 20  1  0
  7  8  2  0
  7 21  1  0
  8  9  1  0
  9 10  2  0
  9 15  1  0
 10 11  1  0
 10 22  1  0
 11 12  2  0
 11 23  1  0
 12 13  1  0
 12 24  1  0
 13 14  1  0
 13 15  2  0
 15 25  1  0
M  END

