
     RDKit          3D

 44 45  0  0  0  0  0  0  0  0999 V2000
    1.3626    0.6259    0.0696 C   0  0  0  0  0  0  0  0  0  0  0  0
    2.6143    0.0220   -0.1569 O   0  0  0  0  0  0  0  0  0  0  0  0
    2.9281   -1.1939    0.5375 C   0  0  1  0  0  0  0  0  0  0  0  0
    3.0042   -0.8709    2.0246 C   0  0  0  0  0  0  0  0  0  0  0  0
    2.1363   -1.3057    2.9030 N   0  0  0  0  0  0  0  0  0  0  0  0
    2.5562   -0.7292    4.0980 O   0  0  0  0  0  0  0  0  0  0  0  0
    3.6447    0.0072    3.8170 C   0  0  0  0  0  0  0  0  0  0  0  0
    4.3139    0.7495    4.9348 C   0  0  1  0  0  0  0  0  0  0  0  0
    3.3392    1.7424    5.5922 C   0  0  0  0  0  0  0  0  0  0  0  0
    4.9261   -0.2169    5.9705 C   0  0  0  0  0  0  0  0  0  0  0  0
    6.0136   -1.1395    5.4180 C   0  0  0  0  0  0  0  0  0  0  0  0
    6.5270   -2.0084    6.4706 N   0  0  0  0  0  0  0  0  0  0  0  0
    3.9671   -0.0419    2.5595 N   0  0  0  0  0  0  0  0  0  0  0  0
    1.8654   -2.2721    0.2410 C   0  0  0  0  0  0  0  0  0  0  0  0
    2.1890   -3.7351    0.5859 C   0  0  0  0  0  0  0  0  0  0  0  0
    3.2610   -4.3807   -0.3071 C   0  0  0  0  0  0  0  0  0  0  0  0
    4.7247   -4.1212    0.0973 C   0  0  0  0  0  0  0  0  0  0  0  0
    5.0291   -2.7343    0.6899 C   0  0  0  0  0  0  0  0  0  0  0  0
    4.3407   -1.5366    0.0187 C   0  0  0  0  0  0  0  0  0  0  0  0
    1.3987    1.6136   -0.4136 H   0  0  0  0  0  0  0  0  0  0  0  0
    1.1460    0.7734    1.1444 H   0  0  0  0  0  0  0  0  0  0  0  0
    0.5240    0.0568   -0.3725 H   0  0  0  0  0  0  0  0  0  0  0  0
    5.1267    1.3131    4.4497 H   0  0  0  0  0  0  0  0  0  0  0  0
    2.4992    1.2129    6.0677 H   0  0  0  0  0  0  0  0  0  0  0  0
    2.9256    2.4468    4.8543 H   0  0  0  0  0  0  0  0  0  0  0  0
    3.8583    2.3268    6.3674 H   0  0  0  0  0  0  0  0  0  0  0  0
    4.1336   -0.8339    6.4252 H   0  0  0  0  0  0  0  0  0  0  0  0
    5.3521    0.3932    6.7873 H   0  0  0  0  0  0  0  0  0  0  0  0
    6.7883   -0.5195    4.9139 H   0  0  0  0  0  0  0  0  0  0  0  0
    5.5840   -1.7813    4.6295 H   0  0  0  0  0  0  0  0  0  0  0  0
    7.0495   -1.4632    7.1581 H   0  0  0  0  0  0  0  0  0  0  0  0
    7.1863   -2.6850    6.0868 H   0  0  0  0  0  0  0  0  0  0  0  0
    1.6618   -2.2027   -0.8416 H   0  0  0  0  0  0  0  0  0  0  0  0
    0.9351   -1.9936    0.7581 H   0  0  0  0  0  0  0  0  0  0  0  0
    1.2502   -4.3011    0.4653 H   0  0  0  0  0  0  0  0  0  0  0  0
    2.4520   -3.8307    1.6529 H   0  0  0  0  0  0  0  0  0  0  0  0
    3.0954   -4.0351   -1.3429 H   0  0  0  0  0  0  0  0  0  0  0  0
    3.1018   -5.4719   -0.3369 H   0  0  0  0  0  0  0  0  0  0  0  0
    5.3627   -4.2886   -0.7883 H   0  0  0  0  0  0  0  0  0  0  0  0
    5.0402   -4.8800    0.8347 H   0  0  0  0  0  0  0  0  0  0  0  0
    6.1198   -2.5776    0.6520 H   0  0  0  0  0  0  0  0  0  0  0  0
    4.7823   -2.7321    1.7651 H   0  0  0  0  0  0  0  0  0  0  0  0
    4.2665   -1.6748   -1.0724 H   0  0  0  0  0  0  0  0  0  0  0  0
    4.9370   -0.6271    0.1788 H   0  0  0  0  0  0  0  0  0  0  0  0
  1  2  1  0
  1 20  1  0
  1 21  1  0
  1 22  1  0
  3  2  1  6
  3  4  1  0
  3 14  1  0
  3 19  1  0
  4  5  2  0
  4 13  1  0
  5  6  1  0
  6  7  1  0
  7  8  1  0
  7 13  2  0
  8  9  1  0
  8 10  1  0
  8 23  1  6
  9 24  1  0
  9 25  1  0
  9 26  1  0
 10 11  1  0
 10 27  1  0
 10 28  1  0
 11 12  1  0
 11 29  1  0
 11 30  1  0
 12 31  1  0
 12 32  1  0
 14 15  1  0
 14 33  1  0
 14 34  1  0
 15 16  1  0
 15 35  1  0
 15 36  1  0
 16 17  1  0
 16 37  1  0
 16 38  1  0
 17 18  1  0
 17 39  1  0
 17 40  1  0
 18 19  1  0
 18 41  1  0
 18 42  1  0
 19 43  1  0
 19 44  1  0
M  END

