
     RDKit          3D

 79 83  0  0  0  0  0  0  0  0999 V2000
   -0.0893    0.0675   -2.2581 C   0  0  0  0  0  0  0  0  0  0  0  0
    0.0651    1.3850   -2.8841 N   0  0  0  0  0  0  0  0  0  0  0  0
    1.4466    1.7303   -3.2544 C   0  0  0  0  0  0  0  0  0  0  0  0
    2.2566    2.0824   -2.0015 C   0  0  0  0  0  0  0  0  0  0  0  0
    2.6682    1.1963   -1.2647 O   0  0  0  0  0  0  0  0  0  0  0  0
    2.4938    3.4123   -1.7360 N   0  0  0  0  0  0  0  0  0  0  0  0
    3.2306    3.7595   -0.5031 C   0  0  0  0  0  0  0  0  0  0  0  0
    4.7063    4.0272   -0.7209 C   0  0  0  0  0  0  0  0  0  0  0  0
    5.2323    5.3249   -0.6464 C   0  0  0  0  0  0  0  0  0  0  0  0
    6.5918    5.5608   -0.8570 C   0  0  0  0  0  0  0  0  0  0  0  0
    7.4851    4.5165   -1.1567 C   0  0  0  0  0  0  0  0  0  0  0  0
    8.9706    4.8438   -1.3362 C   0  0  1  0  0  0  0  0  0  0  0  0
    9.9165    3.6353   -1.5115 C   0  0  0  0  0  0  0  0  0  0  0  0
    9.9237    3.0555   -2.9321 C   0  0  0  0  0  0  0  0  0  0  0  0
   10.2041    4.1098   -3.8992 N   0  0  0  0  0  0  0  0  0  0  0  0
    9.2081    5.1731   -3.8626 C   0  0  0  0  0  0  0  0  0  0  0  0
    9.2317    5.8474   -2.4903 C   0  0  0  0  0  0  0  0  0  0  0  0
    6.9506    3.2184   -1.2153 C   0  0  0  0  0  0  0  0  0  0  0  0
    5.5907    2.9756   -1.0024 C   0  0  0  0  0  0  0  0  0  0  0  0
    2.0630    4.4892   -2.5741 C   0  0  0  0  0  0  0  0  0  0  0  0
    2.9153    5.0231   -3.5526 C   0  0  0  0  0  0  0  0  0  0  0  0
    2.4906    6.0868   -4.3458 C   0  0  0  0  0  0  0  0  0  0  0  0
    1.2151    6.6342   -4.1687 C   0  0  0  0  0  0  0  0  0  0  0  0
    0.7835    7.6802   -4.9359 O   0  0  0  0  0  0  0  0  0  0  0  0
    0.3439    6.1167   -3.1880 C   0  0  0  0  0  0  0  0  0  0  0  0
   -1.0550    6.6173   -2.9170 C   0  0  0  0  0  0  0  0  0  0  0  0
   -1.7646    6.0896   -2.0921 O   0  0  0  0  0  0  0  0  0  0  0  0
   -1.4899    7.6682   -3.6181 O   0  0  0  0  0  0  0  0  0  0  0  0
    0.7966    5.0485   -2.4022 C   0  0  0  0  0  0  0  0  0  0  0  0
   -1.0577    1.6711   -4.1557 S   0  0  1  0  0  0  0  0  0  0  0  0
   -0.6849    2.9663   -4.7386 O   0  0  0  0  0  0  0  0  0  0  0  0
   -1.1630    0.4826   -5.0125 O   0  0  0  0  0  0  0  0  0  0  0  0
   -2.6060    1.8522   -3.2752 C   0  0  0  0  0  0  0  0  0  0  0  0
   -2.8758    3.0412   -2.5921 C   0  0  0  0  0  0  0  0  0  0  0  0
   -4.1025    3.1880   -1.9486 C   0  0  0  0  0  0  0  0  0  0  0  0
   -5.0732    2.1663   -1.9783 C   0  0  0  0  0  0  0  0  0  0  0  0
   -6.3800    2.3330   -1.2884 C   0  0  0  0  0  0  0  0  0  0  0  0
   -7.0179    3.5873   -1.2403 C   0  0  0  0  0  0  0  0  0  0  0  0
   -8.2459    3.7434   -0.5947 C   0  0  0  0  0  0  0  0  0  0  0  0
   -8.8630    2.6502    0.0207 C   0  0  0  0  0  0  0  0  0  0  0  0
   -8.2410    1.3987   -0.0161 C   0  0  0  0  0  0  0  0  0  0  0  0
   -7.0145    1.2419   -0.6644 C   0  0  0  0  0  0  0  0  0  0  0  0
   -4.7743    0.9867   -2.6883 C   0  0  0  0  0  0  0  0  0  0  0  0
   -3.5512    0.8248   -3.3392 C   0  0  0  0  0  0  0  0  0  0  0  0
    0.6154    0.0053   -1.4193 H   0  0  0  0  0  0  0  0  0  0  0  0
    0.1211   -0.7558   -2.9648 H   0  0  0  0  0  0  0  0  0  0  0  0
   -1.1116   -0.0447   -1.8697 H   0  0  0  0  0  0  0  0  0  0  0  0
    1.4082    2.5592   -3.9686 H   0  0  0  0  0  0  0  0  0  0  0  0
    1.9619    0.8741   -3.7284 H   0  0  0  0  0  0  0  0  0  0  0  0
    3.0979    2.9107    0.1809 H   0  0  0  0  0  0  0  0  0  0  0  0
    2.7473    4.6443   -0.0630 H   0  0  0  0  0  0  0  0  0  0  0  0
    4.5712    6.1639   -0.4092 H   0  0  0  0  0  0  0  0  0  0  0  0
    6.9685    6.5842   -0.7719 H   0  0  0  0  0  0  0  0  0  0  0  0
    9.2690    5.3515   -0.4015 H   0  0  0  0  0  0  0  0  0  0  0  0
    9.6864    2.8457   -0.7783 H   0  0  0  0  0  0  0  0  0  0  0  0
   10.9400    3.9808   -1.2908 H   0  0  0  0  0  0  0  0  0  0  0  0
    8.9580    2.5423   -3.1374 H   0  0  0  0  0  0  0  0  0  0  0  0
   10.7106    2.2866   -3.0061 H   0  0  0  0  0  0  0  0  0  0  0  0
   10.2799    3.7207   -4.8367 H   0  0  0  0  0  0  0  0  0  0  0  0
    8.1759    4.8063   -4.0729 H   0  0  0  0  0  0  0  0  0  0  0  0
    9.4489    5.9135   -4.6433 H   0  0  0  0  0  0  0  0  0  0  0  0
    8.5032    6.6728   -2.4619 H   0  0  0  0  0  0  0  0  0  0  0  0
   10.2314    6.2906   -2.3466 H   0  0  0  0  0  0  0  0  0  0  0  0
    7.5998    2.3664   -1.4196 H   0  0  0  0  0  0  0  0  0  0  0  0
    5.2056    1.9536   -1.0478 H   0  0  0  0  0  0  0  0  0  0  0  0
    3.9105    4.5974   -3.6922 H   0  0  0  0  0  0  0  0  0  0  0  0
    3.1534    6.4986   -5.1128 H   0  0  0  0  0  0  0  0  0  0  0  0
    1.4378    7.9192   -5.6059 H   0  0  0  0  0  0  0  0  0  0  0  0
   -0.8163    7.9585   -4.2611 H   0  0  0  0  0  0  0  0  0  0  0  0
    0.1187    4.6512   -1.6460 H   0  0  0  0  0  0  0  0  0  0  0  0
   -2.1543    3.8576   -2.5631 H   0  0  0  0  0  0  0  0  0  0  0  0
   -4.2941    4.1151   -1.4051 H   0  0  0  0  0  0  0  0  0  0  0  0
   -6.5584    4.4459   -1.7348 H   0  0  0  0  0  0  0  0  0  0  0  0
   -8.7265    4.7250   -0.5784 H   0  0  0  0  0  0  0  0  0  0  0  0
   -9.8236    2.7731    0.5272 H   0  0  0  0  0  0  0  0  0  0  0  0
   -8.7098    0.5390    0.4697 H   0  0  0  0  0  0  0  0  0  0  0  0
   -6.5290    0.2632   -0.6641 H   0  0  0  0  0  0  0  0  0  0  0  0
   -5.5222    0.1943   -2.7598 H   0  0  0  0  0  0  0  0  0  0  0  0
   -3.3296   -0.0774   -3.9116 H   0  0  0  0  0  0  0  0  0  0  0  0
  1  2  1  0
  1 45  1  0
  1 46  1  0
  1 47  1  0
  2  3  1  0
 30  2  1  1
  3  4  1  0
  3 48  1  0
  3 49  1  0
  4  5  2  0
  4  6  1  0
  6  7  1  0
  6 20  1  0
  7  8  1  0
  7 50  1  0
  7 51  1  0
  8  9  2  0
  8 19  1  0
  9 10  1  0
  9 52  1  0
 10 11  2  0
 10 53  1  0
 11 12  1  0
 11 18  1  0
 12 13  1  0
 12 17  1  0
 12 54  1  1
 13 14  1  0
 13 55  1  0
 13 56  1  0
 14 15  1  0
 14 57  1  0
 14 58  1  0
 15 16  1  0
 15 59  1  0
 16 17  1  0
 16 60  1  0
 16 61  1  0
 17 62  1  0
 17 63  1  0
 18 19  2  0
 18 64  1  0
 19 65  1  0
 20 21  2  0
 20 29  1  0
 21 22  1  0
 21 66  1  0
 22 23  2  0
 22 67  1  0
 23 24  1  0
 23 25  1  0
 24 68  1  0
 25 26  1  0
 25 29  2  0
 26 27  2  0
 26 28  1  0
 28 69  1  0
 29 70  1  0
 30 31  2  0
 30 32  2  0
 30 33  1  0
 33 34  2  0
 33 44  1  0
 34 35  1  0
 34 71  1  0
 35 36  2  0
 35 72  1  0
 36 37  1  0
 36 43  1  0
 37 38  2  0
 37 42  1  0
 38 39  1  0
 38 73  1  0
 39 40  2  0
 39 74  1  0
 40 41  1  0
 40 75  1  0
 41 42  2  0
 41 76  1  0
 42 77  1  0
 43 44  2  0
 43 78  1  0
 44 79  1  0
M  END

