
     RDKit          3D

 52 54  0  0  0  0  0  0  0  0999 V2000
    1.7553    1.7961    0.8290 C   0  0  0  0  0  0  0  0  0  0  0  0
    2.6292    0.7263    0.5768 O   0  0  0  0  0  0  0  0  0  0  0  0
    3.2243    0.1858    1.7294 C   0  0  0  0  0  0  0  0  0  0  0  0
    4.1754   -0.9250    1.2620 C   0  0  1  0  0  0  0  0  0  0  0  0
    5.3815   -0.3954    0.4808 C   0  0  0  0  0  0  0  0  0  0  0  0
    4.5493   -1.8435    2.3469 N   0  0  0  0  0  0  0  0  0  0  0  0
    5.2095   -1.5254    3.5401 C   0  0  0  0  0  0  0  0  0  0  0  0
    5.5669   -0.1419    3.9884 C   0  0  0  0  0  0  0  0  0  0  0  0
    5.4262   -2.7019    4.2165 C   0  0  0  0  0  0  0  0  0  0  0  0
    4.8944   -3.7784    3.4318 C   0  0  0  0  0  0  0  0  0  0  0  0
    4.9108   -5.2039    3.7694 C   0  0  0  0  0  0  0  0  0  0  0  0
    4.4474   -6.0973    3.0813 O   0  0  0  0  0  0  0  0  0  0  0  0
    5.5835   -5.5622    5.1089 C   0  0  0  0  0  0  0  0  0  0  0  0
    5.4648   -6.9491    5.3807 O   0  0  0  0  0  0  0  0  0  0  0  0
    6.3064   -7.7581    4.7250 C   0  0  0  0  0  0  0  0  0  0  0  0
    7.2348   -7.3910    4.0495 O   0  0  0  0  0  0  0  0  0  0  0  0
    5.9953   -9.2089    4.9604 C   0  0  0  0  0  0  0  0  0  0  0  0
    6.7592  -10.1901    4.4221 C   0  0  0  0  0  0  0  0  0  0  0  0
    6.4559  -11.6064    4.6508 C   0  0  0  0  0  0  0  0  0  0  0  0
    7.1194  -12.5235    4.1887 O   0  0  0  0  0  0  0  0  0  0  0  0
    5.2585  -11.8208    5.5040 C   0  0  0  0  0  0  0  0  0  0  0  0
    4.8160  -13.1170    5.8257 C   0  0  0  0  0  0  0  0  0  0  0  0
    3.6946  -13.3027    6.6233 C   0  0  0  0  0  0  0  0  0  0  0  0
    2.9920  -12.1866    7.1160 C   0  0  0  0  0  0  0  0  0  0  0  0
    3.4084  -10.8955    6.8131 C   0  0  0  0  0  0  0  0  0  0  0  0
    4.5424  -10.7208    6.0070 C   0  0  0  0  0  0  0  0  0  0  0  0
    4.9163   -9.4365    5.7360 O   0  0  0  0  0  0  0  0  0  0  0  0
    4.3580   -3.2051    2.2721 C   0  0  0  0  0  0  0  0  0  0  0  0
    3.6961   -3.8815    1.1138 C   0  0  0  0  0  0  0  0  0  0  0  0
    1.3526    2.1344   -0.1366 H   0  0  0  0  0  0  0  0  0  0  0  0
    2.2724    2.6482    1.3148 H   0  0  0  0  0  0  0  0  0  0  0  0
    0.9092    1.4950    1.4788 H   0  0  0  0  0  0  0  0  0  0  0  0
    2.4609   -0.2443    2.4104 H   0  0  0  0  0  0  0  0  0  0  0  0
    3.7616    0.9753    2.2903 H   0  0  0  0  0  0  0  0  0  0  0  0
    3.5696   -1.5199    0.5670 H   0  0  0  0  0  0  0  0  0  0  0  0
    6.0447    0.2191    1.1076 H   0  0  0  0  0  0  0  0  0  0  0  0
    5.0226    0.2283   -0.3505 H   0  0  0  0  0  0  0  0  0  0  0  0
    5.9741   -1.2257    0.0681 H   0  0  0  0  0  0  0  0  0  0  0  0
    6.1379    0.4252    3.2366 H   0  0  0  0  0  0  0  0  0  0  0  0
    6.1939   -0.2146    4.8883 H   0  0  0  0  0  0  0  0  0  0  0  0
    4.6843    0.4629    4.2572 H   0  0  0  0  0  0  0  0  0  0  0  0
    5.9195   -2.7705    5.1841 H   0  0  0  0  0  0  0  0  0  0  0  0
    5.0807   -5.0438    5.9377 H   0  0  0  0  0  0  0  0  0  0  0  0
    6.6419   -5.2588    5.0809 H   0  0  0  0  0  0  0  0  0  0  0  0
    7.6147   -9.9157    3.8054 H   0  0  0  0  0  0  0  0  0  0  0  0
    5.3881  -13.9557    5.4235 H   0  0  0  0  0  0  0  0  0  0  0  0
    3.3552  -14.3114    6.8697 H   0  0  0  0  0  0  0  0  0  0  0  0
    2.1088  -12.3325    7.7430 H   0  0  0  0  0  0  0  0  0  0  0  0
    2.8803  -10.0142    7.1813 H   0  0  0  0  0  0  0  0  0  0  0  0
    3.6807   -4.9603    1.3054 H   0  0  0  0  0  0  0  0  0  0  0  0
    4.2344   -3.7045    0.1671 H   0  0  0  0  0  0  0  0  0  0  0  0
    2.6565   -3.5393    0.9727 H   0  0  0  0  0  0  0  0  0  0  0  0
  1  2  1  0
  1 30  1  0
  1 31  1  0
  1 32  1  0
  2  3  1  0
  3  4  1  0
  3 33  1  0
  3 34  1  0
  4  5  1  0
  4  6  1  0
  4 35  1  6
  5 36  1  0
  5 37  1  0
  5 38  1  0
  6  7  1  0
  6 28  1  0
  7  8  1  0
  7  9  2  0
  8 39  1  0
  8 40  1  0
  8 41  1  0
  9 10  1  0
  9 42  1  0
 10 11  1  0
 10 28  2  0
 11 12  2  0
 11 13  1  0
 13 14  1  0
 13 43  1  0
 13 44  1  0
 14 15  1  0
 15 16  2  0
 15 17  1  0
 17 18  2  0
 17 27  1  0
 18 19  1  0
 18 45  1  0
 19 20  2  0
 19 21  1  0
 21 22  2  0
 21 26  1  0
 22 23  1  0
 22 46  1  0
 23 24  2  0
 23 47  1  0
 24 25  1  0
 24 48  1  0
 25 26  2  0
 25 49  1  0
 26 27  1  0
 28 29  1  0
 29 50  1  0
 29 51  1  0
 29 52  1  0
M  END

