
     RDKit          3D

 60 63  0  0  0  0  0  0  0  0999 V2000
   -0.5446   -3.8000   -1.1859 C   0  0  0  0  0  0  0  0  0  0  0  0
   -1.4414   -3.0191   -0.2390 C   0  0  0  0  0  0  0  0  0  0  0  0
   -0.6814   -2.2772    0.7291 O   0  0  0  0  0  0  0  0  0  0  0  0
   -0.2321   -1.0485    0.3695 C   0  0  0  0  0  0  0  0  0  0  0  0
   -0.4623   -0.5765   -0.7302 O   0  0  0  0  0  0  0  0  0  0  0  0
    0.5245   -0.4357    1.4727 C   0  0  0  0  0  0  0  0  0  0  0  0
    1.0669    0.8196    1.3986 C   0  0  0  0  0  0  0  0  0  0  0  0
    0.9413    1.7559    0.2243 C   0  0  0  0  0  0  0  0  0  0  0  0
    2.4380    1.8997   -0.8353 S   0  0  0  0  0  0  0  0  0  0  0  0
    3.3688    3.1992   -0.0327 C   0  0  0  0  0  0  0  0  0  0  0  0
    3.0728    3.5724    1.1720 N   0  0  0  0  0  0  0  0  0  0  0  0
    3.8017    4.5860    1.7692 C   0  0  0  0  0  0  0  0  0  0  0  0
    3.5102    4.9700    3.0957 C   0  0  0  0  0  0  0  0  0  0  0  0
    4.2401    5.9868    3.6966 C   0  0  0  0  0  0  0  0  0  0  0  0
    5.2721    6.6456    2.9999 C   0  0  0  0  0  0  0  0  0  0  0  0
    5.5766    6.2693    1.6987 C   0  0  0  0  0  0  0  0  0  0  0  0
    4.8489    5.2370    1.0794 C   0  0  0  0  0  0  0  0  0  0  0  0
    5.1835    4.8144   -0.2842 C   0  0  0  0  0  0  0  0  0  0  0  0
    6.0588    5.3021   -0.9759 O   0  0  0  0  0  0  0  0  0  0  0  0
    4.3913    3.7438   -0.7835 N   0  0  0  0  0  0  0  0  0  0  0  0
    4.7047    3.2940   -2.1508 C   0  0  0  0  0  0  0  0  0  0  0  0
    3.9593    4.0786   -3.2339 C   0  0  0  0  0  0  0  0  0  0  0  0
    4.3223    3.5903   -4.6471 C   0  0  0  0  0  0  0  0  0  0  0  0
    3.6076    4.3566   -5.7392 C   0  0  0  0  0  0  0  0  0  0  0  0
    4.1511    5.5424   -6.2594 C   0  0  0  0  0  0  0  0  0  0  0  0
    3.4761    6.2725   -7.2413 C   0  0  0  0  0  0  0  0  0  0  0  0
    2.2407    5.8280   -7.7220 C   0  0  0  0  0  0  0  0  0  0  0  0
    1.6880    4.6487   -7.2140 C   0  0  0  0  0  0  0  0  0  0  0  0
    2.3668    3.9218   -6.2318 C   0  0  0  0  0  0  0  0  0  0  0  0
    1.7552    1.3545    2.4561 N   0  0  0  0  0  0  0  0  0  0  0  0
    2.0156    0.6966    3.6593 C   0  0  0  0  0  0  0  0  0  0  0  0
    2.6596    1.2284    4.5453 O   0  0  0  0  0  0  0  0  0  0  0  0
    1.4915   -0.5594    3.7378 N   0  0  0  0  0  0  0  0  0  0  0  0
    0.6736   -1.2468    2.7465 C   0  0  0  0  0  0  0  0  0  0  0  0
   -1.1596   -4.4163   -1.8614 H   0  0  0  0  0  0  0  0  0  0  0  0
    0.1298   -4.4693   -0.6290 H   0  0  0  0  0  0  0  0  0  0  0  0
    0.0601   -3.1177   -1.8011 H   0  0  0  0  0  0  0  0  0  0  0  0
   -2.0715   -3.6935    0.3593 H   0  0  0  0  0  0  0  0  0  0  0  0
   -2.0866   -2.3236   -0.7956 H   0  0  0  0  0  0  0  0  0  0  0  0
    0.6958    2.7682    0.5749 H   0  0  0  0  0  0  0  0  0  0  0  0
    0.1803    1.3894   -0.4713 H   0  0  0  0  0  0  0  0  0  0  0  0
    2.7246    4.4412    3.6387 H   0  0  0  0  0  0  0  0  0  0  0  0
    4.0122    6.2750    4.7260 H   0  0  0  0  0  0  0  0  0  0  0  0
    5.8354    7.4448    3.4870 H   0  0  0  0  0  0  0  0  0  0  0  0
    6.3768    6.7495    1.1323 H   0  0  0  0  0  0  0  0  0  0  0  0
    4.4927    2.2172   -2.2208 H   0  0  0  0  0  0  0  0  0  0  0  0
    5.7873    3.4304   -2.2737 H   0  0  0  0  0  0  0  0  0  0  0  0
    4.2128    5.1461   -3.1357 H   0  0  0  0  0  0  0  0  0  0  0  0
    2.8720    3.9846   -3.0792 H   0  0  0  0  0  0  0  0  0  0  0  0
    4.0802    2.5168   -4.7328 H   0  0  0  0  0  0  0  0  0  0  0  0
    5.4132    3.6773   -4.7888 H   0  0  0  0  0  0  0  0  0  0  0  0
    5.1195    5.8959   -5.8924 H   0  0  0  0  0  0  0  0  0  0  0  0
    3.9190    7.1910   -7.6355 H   0  0  0  0  0  0  0  0  0  0  0  0
    1.7127    6.3962   -8.4921 H   0  0  0  0  0  0  0  0  0  0  0  0
    0.7248    4.2899   -7.5866 H   0  0  0  0  0  0  0  0  0  0  0  0
    1.9283    2.9974   -5.8436 H   0  0  0  0  0  0  0  0  0  0  0  0
    2.2343    2.2508    2.2951 H   0  0  0  0  0  0  0  0  0  0  0  0
    1.6672   -1.0225    4.6217 H   0  0  0  0  0  0  0  0  0  0  0  0
   -0.3280   -1.4687    3.1621 H   0  0  0  0  0  0  0  0  0  0  0  0
    1.1179   -2.2304    2.5099 H   0  0  0  0  0  0  0  0  0  0  0  0
  1  2  1  0
  1 35  1  0
  1 36  1  0
  1 37  1  0
  2  3  1  0
  2 38  1  0
  2 39  1  0
  3  4  1  0
  4  5  2  0
  4  6  1  0
  6  7  2  0
  6 34  1  0
  7  8  1  0
  7 30  1  0
  8  9  1  0
  8 40  1  0
  8 41  1  0
  9 10  2  0
 10 11  1  0
 10 20  1  0
 11 12  2  0
 12 13  1  0
 12 17  1  0
 13 14  2  0
 13 42  1  0
 14 15  1  0
 14 43  1  0
 15 16  2  0
 15 44  1  0
 16 17  1  0
 16 45  1  0
 17 18  2  0
 18 19  1  0
 18 20  1  0
 20 21  1  0
 21 22  1  0
 21 46  1  0
 21 47  1  0
 22 23  1  0
 22 48  1  0
 22 49  1  0
 23 24  1  0
 23 50  1  0
 23 51  1  0
 24 25  2  0
 24 29  1  0
 25 26  1  0
 25 52  1  0
 26 27  2  0
 26 53  1  0
 27 28  1  0
 27 54  1  0
 28 29  2  0
 28 55  1  0
 29 56  1  0
 30 31  1  0
 30 57  1  0
 31 32  2  0
 31 33  1  0
 33 34  1  0
 33 58  1  0
 34 59  1  0
 34 60  1  0
M  CHG  2   9   1  19  -1
M  END

