
     RDKit          3D

 44 45  0  0  0  0  0  0  0  0999 V2000
    1.8279    1.2943   -0.2308 C   0  0  0  0  0  0  0  0  0  0  0  0
    1.8882   -0.0831    0.0982 O   0  0  0  0  0  0  0  0  0  0  0  0
    2.7016   -0.4893    1.0962 C   0  0  0  0  0  0  0  0  0  0  0  0
    3.5135    0.3610    1.8497 C   0  0  0  0  0  0  0  0  0  0  0  0
    4.2856   -0.1585    2.9138 C   0  0  0  0  0  0  0  0  0  0  0  0
    5.1430    0.6739    3.7867 C   0  0  0  0  0  0  0  0  0  0  0  0
    5.0261    1.8989    4.1632 N   0  0  0  0  0  0  0  0  0  0  0  0
    3.9560    2.6186    3.7574 N   0  0  0  0  0  0  0  0  0  0  0  0
    3.8042    3.9387    4.0651 C   0  0  0  0  0  0  0  0  0  0  0  0
    4.5628    4.6494    4.6935 O   0  0  0  0  0  0  0  0  0  0  0  0
    2.4849    4.4736    3.4553 C   0  0  0  0  0  0  0  0  0  0  0  0
    1.7466    3.7680    2.7775 O   0  0  0  0  0  0  0  0  0  0  0  0
    2.2828    5.7688    3.7646 N   0  0  0  0  0  0  0  0  0  0  0  0
    1.1236    6.5075    3.3645 C   0  0  1  0  0  0  0  0  0  0  0  0
    1.2388    8.0009    3.2467 C   0  0  0  0  0  0  0  0  0  0  0  0
    1.0800    7.1609    2.0045 C   0  0  0  0  0  0  0  0  0  0  0  0
    4.2752   -1.5364    3.1520 C   0  0  0  0  0  0  0  0  0  0  0  0
    3.4821   -2.4094    2.3871 C   0  0  0  0  0  0  0  0  0  0  0  0
    3.5350   -3.7155    2.7377 O   0  0  0  0  0  0  0  0  0  0  0  0
    3.3829   -4.7483    1.7745 C   0  0  0  0  0  0  0  0  0  0  0  0
    2.6718   -1.8760    1.3734 C   0  0  0  0  0  0  0  0  0  0  0  0
    1.7627   -2.6576    0.6837 O   0  0  0  0  0  0  0  0  0  0  0  0
    1.9700   -2.8916   -0.6555 C   0  0  0  0  0  0  0  0  0  0  0  0
    0.7177   -3.4404   -1.2825 C   0  0  0  0  0  0  0  0  0  0  0  0
    3.0171   -2.6893   -1.2018 O   0  0  0  0  0  0  0  0  0  0  0  0
    1.0679    1.3887   -1.0173 H   0  0  0  0  0  0  0  0  0  0  0  0
    2.7947    1.6552   -0.6235 H   0  0  0  0  0  0  0  0  0  0  0  0
    1.5364    1.9119    0.6359 H   0  0  0  0  0  0  0  0  0  0  0  0
    3.5663    1.4128    1.5822 H   0  0  0  0  0  0  0  0  0  0  0  0
    6.0116    0.1625    4.2205 H   0  0  0  0  0  0  0  0  0  0  0  0
    3.1651    2.1968    3.2642 H   0  0  0  0  0  0  0  0  0  0  0  0
    2.9870    6.1829    4.3728 H   0  0  0  0  0  0  0  0  0  0  0  0
    0.1808    6.0941    3.7410 H   0  0  0  0  0  0  0  0  0  0  0  0
    2.2202    8.4474    3.4347 H   0  0  0  0  0  0  0  0  0  0  0  0
    0.3971    8.6077    3.5904 H   0  0  0  0  0  0  0  0  0  0  0  0
    1.9552    7.0327    1.3624 H   0  0  0  0  0  0  0  0  0  0  0  0
    0.1224    7.1721    1.4773 H   0  0  0  0  0  0  0  0  0  0  0  0
    4.8836   -1.9760    3.9444 H   0  0  0  0  0  0  0  0  0  0  0  0
    3.8652   -5.6387    2.2024 H   0  0  0  0  0  0  0  0  0  0  0  0
    3.8816   -4.4906    0.8256 H   0  0  0  0  0  0  0  0  0  0  0  0
    2.3227   -4.9742    1.5821 H   0  0  0  0  0  0  0  0  0  0  0  0
   -0.0495   -2.6502   -1.2900 H   0  0  0  0  0  0  0  0  0  0  0  0
    0.3192   -4.2745   -0.6862 H   0  0  0  0  0  0  0  0  0  0  0  0
    0.9287   -3.7655   -2.3080 H   0  0  0  0  0  0  0  0  0  0  0  0
  1  2  1  0
  1 26  1  0
  1 27  1  0
  1 28  1  0
  2  3  1  0
  3  4  2  0
  3 21  1  0
  4  5  1  0
  4 29  1  0
  5  6  1  0
  5 17  2  0
  6  7  2  0
  6 30  1  0
  7  8  1  0
  8  9  1  0
  8 31  1  0
  9 10  2  0
  9 11  1  0
 11 12  2  0
 11 13  1  0
 13 14  1  0
 13 32  1  0
 14 15  1  0
 14 16  1  0
 14 33  1  1
 15 16  1  0
 15 34  1  0
 15 35  1  0
 16 36  1  0
 16 37  1  0
 17 18  1  0
 17 38  1  0
 18 19  1  0
 18 21  2  0
 19 20  1  0
 20 39  1  0
 20 40  1  0
 20 41  1  0
 21 22  1  0
 22 23  1  0
 23 24  1  0
 23 25  2  0
 24 42  1  0
 24 43  1  0
 24 44  1  0
M  END

