
     RDKit          3D

 53 56  0  0  0  0  0  0  0  0999 V2000
    1.1673    0.3653   -0.8827 C   0  0  0  0  0  0  0  0  0  0  0  0
    2.5439   -0.0705   -0.4859 C   0  0  0  0  0  0  0  0  0  0  0  0
    3.6083    0.6731   -0.7666 N   0  0  0  0  0  0  0  0  0  0  0  0
    4.6689    0.0001   -0.2727 N   0  0  0  0  0  0  0  0  0  0  0  0
    6.0070    0.5235   -0.4934 C   0  0  0  0  0  0  0  0  0  0  0  0
    6.6921   -0.0203   -1.7372 C   0  0  0  0  0  0  0  0  0  0  0  0
    6.0312   -0.0059   -2.9765 C   0  0  0  0  0  0  0  0  0  0  0  0
    6.6714   -0.4775   -4.1245 C   0  0  0  0  0  0  0  0  0  0  0  0
    7.9812   -0.9677   -4.0519 C   0  0  0  0  0  0  0  0  0  0  0  0
    8.6451   -0.9860   -2.8229 C   0  0  0  0  0  0  0  0  0  0  0  0
    8.0013   -0.5163   -1.6728 C   0  0  0  0  0  0  0  0  0  0  0  0
    4.3115   -1.1798    0.3159 C   0  0  0  0  0  0  0  0  0  0  0  0
    5.3066   -2.1071    0.9376 C   0  0  0  0  0  0  0  0  0  0  0  0
    2.9245   -1.2595    0.2054 C   0  0  0  0  0  0  0  0  0  0  0  0
    2.0192   -2.3561    0.6808 C   0  0  0  0  0  0  0  0  0  0  0  0
    1.5230   -3.1797   -0.4211 N   0  0  0  0  0  0  0  0  0  0  0  0
    0.2246   -3.5417   -0.5394 C   0  0  0  0  0  0  0  0  0  0  0  0
   -0.6623   -3.2431    0.2412 O   0  0  0  0  0  0  0  0  0  0  0  0
   -0.1495   -4.3334   -1.8113 C   0  0  0  0  0  0  0  0  0  0  0  0
    0.8792   -5.1901   -2.3783 N   0  0  0  0  0  0  0  0  0  0  0  0
    0.7224   -6.4995   -2.5115 N   0  0  0  0  0  0  0  0  0  0  0  0
    1.8143   -6.9485   -3.0556 N   0  0  0  0  0  0  0  0  0  0  0  0
    2.6336   -5.8786   -3.2437 C   0  0  0  0  0  0  0  0  0  0  0  0
    3.9790   -5.9608   -3.8249 C   0  0  0  0  0  0  0  0  0  0  0  0
    4.4877   -7.2065   -4.2310 C   0  0  0  0  0  0  0  0  0  0  0  0
    5.7685   -7.2943   -4.7778 C   0  0  0  0  0  0  0  0  0  0  0  0
    6.5532   -6.1452   -4.9225 C   0  0  0  0  0  0  0  0  0  0  0  0
    6.0509   -4.9029   -4.5195 C   0  0  0  0  0  0  0  0  0  0  0  0
    4.7697   -4.8082   -3.9751 C   0  0  0  0  0  0  0  0  0  0  0  0
    2.0505   -4.7536   -2.8222 N   0  0  0  0  0  0  0  0  0  0  0  0
    1.1983    1.3918   -1.2735 H   0  0  0  0  0  0  0  0  0  0  0  0
    0.4698    0.3337   -0.0299 H   0  0  0  0  0  0  0  0  0  0  0  0
    0.7462   -0.2892   -1.6644 H   0  0  0  0  0  0  0  0  0  0  0  0
    6.6226    0.3193    0.3951 H   0  0  0  0  0  0  0  0  0  0  0  0
    5.8894    1.6150   -0.5693 H   0  0  0  0  0  0  0  0  0  0  0  0
    5.0105    0.3811   -3.0309 H   0  0  0  0  0  0  0  0  0  0  0  0
    6.1481   -0.4563   -5.0841 H   0  0  0  0  0  0  0  0  0  0  0  0
    8.4830   -1.3301   -4.9529 H   0  0  0  0  0  0  0  0  0  0  0  0
    9.6670   -1.3683   -2.7559 H   0  0  0  0  0  0  0  0  0  0  0  0
    8.5272   -0.5340   -0.7133 H   0  0  0  0  0  0  0  0  0  0  0  0
    6.0626   -2.4449    0.2098 H   0  0  0  0  0  0  0  0  0  0  0  0
    4.8041   -2.9992    1.3356 H   0  0  0  0  0  0  0  0  0  0  0  0
    5.8444   -1.6310    1.7753 H   0  0  0  0  0  0  0  0  0  0  0  0
    1.1292   -1.9565    1.1893 H   0  0  0  0  0  0  0  0  0  0  0  0
    2.5431   -2.9910    1.4168 H   0  0  0  0  0  0  0  0  0  0  0  0
    2.1688   -3.4344   -1.1653 H   0  0  0  0  0  0  0  0  0  0  0  0
   -0.4762   -3.6143   -2.5799 H   0  0  0  0  0  0  0  0  0  0  0  0
   -0.9949   -4.9823   -1.5577 H   0  0  0  0  0  0  0  0  0  0  0  0
    3.8673   -8.0964   -4.1108 H   0  0  0  0  0  0  0  0  0  0  0  0
    6.1575   -8.2661   -5.0919 H   0  0  0  0  0  0  0  0  0  0  0  0
    7.5570   -6.2178   -5.3492 H   0  0  0  0  0  0  0  0  0  0  0  0
    6.6592   -4.0013   -4.6255 H   0  0  0  0  0  0  0  0  0  0  0  0
    4.3757   -3.8391   -3.6628 H   0  0  0  0  0  0  0  0  0  0  0  0
  1  2  1  0
  1 31  1  0
  1 32  1  0
  1 33  1  0
  2  3  2  0
  2 14  1  0
  3  4  1  0
  4  5  1  0
  4 12  1  0
  5  6  1  0
  5 34  1  0
  5 35  1  0
  6  7  2  0
  6 11  1  0
  7  8  1  0
  7 36  1  0
  8  9  2  0
  8 37  1  0
  9 10  1  0
  9 38  1  0
 10 11  2  0
 10 39  1  0
 11 40  1  0
 12 13  1  0
 12 14  2  0
 13 41  1  0
 13 42  1  0
 13 43  1  0
 14 15  1  0
 15 16  1  0
 15 44  1  0
 15 45  1  0
 16 17  1  0
 16 46  1  0
 17 18  2  0
 17 19  1  0
 19 20  1  0
 19 47  1  0
 19 48  1  0
 20 21  1  0
 20 30  1  0
 21 22  2  0
 22 23  1  0
 23 24  1  0
 23 30  2  0
 24 25  2  0
 24 29  1  0
 25 26  1  0
 25 49  1  0
 26 27  2  0
 26 50  1  0
 27 28  1  0
 27 51  1  0
 28 29  2  0
 28 52  1  0
 29 53  1  0
M  END

