
     RDKit          3D

116115  0  0  0  0  0  0  0  0999 V2000
   10.7551    9.1575   -1.5834 C   0  0  0  0  0  0  0  0  0  0  0  0
    9.9273    7.8990   -1.6852 C   0  0  0  0  0  0  0  0  0  0  0  0
   10.0749    6.9609   -0.5128 C   0  0  0  0  0  0  0  0  0  0  0  0
    9.1345    7.6782   -2.7504 C   0  0  0  0  0  0  0  0  0  0  0  0
    8.2480    6.4975   -3.0393 C   0  0  0  0  0  0  0  0  0  0  0  0
    8.6592    5.7439   -4.3180 C   0  0  0  0  0  0  0  0  0  0  0  0
    7.7969    4.5165   -4.6744 C   0  0  1  0  0  0  0  0  0  0  0  0
    6.3487    4.9047   -5.0053 C   0  0  0  0  0  0  0  0  0  0  0  0
    8.4611    3.7200   -5.8154 C   0  0  0  0  0  0  0  0  0  0  0  0
    7.8178    2.3692   -6.1442 C   0  0  0  0  0  0  0  0  0  0  0  0
    8.5680    1.5675   -7.2283 C   0  0  0  0  0  0  0  0  0  0  0  0
    9.9771    1.1336   -6.8692 C   0  0  0  0  0  0  0  0  0  0  0  0
   10.0829    0.1842   -5.6999 C   0  0  0  0  0  0  0  0  0  0  0  0
   11.0300    1.5804   -7.5804 C   0  0  0  0  0  0  0  0  0  0  0  0
   12.4906    1.2597   -7.4115 C   0  0  0  0  0  0  0  0  0  0  0  0
   13.0974    0.5820   -8.6542 C   0  0  0  0  0  0  0  0  0  0  0  0
   14.6245    0.3753   -8.6215 C   0  0  1  0  0  0  0  0  0  0  0  0
   15.0541   -0.5703   -7.4907 C   0  0  0  0  0  0  0  0  0  0  0  0
   15.1225   -0.1047   -9.9995 C   0  0  0  0  0  0  0  0  0  0  0  0
   16.6434   -0.1500  -10.1825 C   0  0  0  0  0  0  0  0  0  0  0  0
   17.0748   -0.5402  -11.6008 C   0  0  0  0  0  0  0  0  0  0  0  0
   18.5962   -0.5884  -11.7831 C   0  0  0  0  0  0  0  0  0  0  0  0
   19.0881   -1.0576  -13.1668 C   0  0  1  0  0  0  0  0  0  0  0  0
   18.6683   -0.0925  -14.2850 C   0  0  0  0  0  0  0  0  0  0  0  0
   20.6155   -1.2683  -13.1979 C   0  0  0  0  0  0  0  0  0  0  0  0
   21.1497   -2.4217  -12.3280 C   0  0  0  0  0  0  0  0  0  0  0  0
   22.6215   -2.6649  -12.5253 C   0  0  0  0  0  0  0  0  0  0  0  0
   23.6204   -2.5860  -11.6255 C   0  0  0  0  0  0  0  0  0  0  0  0
   23.4313   -2.2209  -10.1727 C   0  0  0  0  0  0  0  0  0  0  0  0
   25.0488   -2.8769  -12.0439 C   0  0  0  0  0  0  0  0  0  0  0  0
   25.6530   -4.1544  -11.4319 C   0  0  0  0  0  0  0  0  0  0  0  0
   27.0825   -4.4257  -11.9151 C   0  0  0  0  0  0  0  0  0  0  0  0
   27.7823   -5.6404  -11.2738 C   0  0  1  0  0  0  0  0  0  0  0  0
   27.0719   -6.9589  -11.6123 C   0  0  0  0  0  0  0  0  0  0  0  0
   29.2714   -5.7255  -11.6671 C   0  0  0  0  0  0  0  0  0  0  0  0
   30.1715   -4.6005  -11.1422 C   0  0  0  0  0  0  0  0  0  0  0  0
   31.6496   -4.8036  -11.4952 C   0  0  0  0  0  0  0  0  0  0  0  0
   32.5996   -3.6643  -11.0797 C   0  0  1  0  0  0  0  0  0  0  0  0
   32.6615   -3.4685   -9.5587 C   0  0  0  0  0  0  0  0  0  0  0  0
   34.0040   -3.8955  -11.6529 C   0  0  0  0  0  0  0  0  0  0  0  0
   11.8310    8.9198   -1.4967 H   0  0  0  0  0  0  0  0  0  0  0  0
   10.4927    9.7341   -0.6778 H   0  0  0  0  0  0  0  0  0  0  0  0
   10.6198    9.8134   -2.4563 H   0  0  0  0  0  0  0  0  0  0  0  0
   11.1313    6.6651   -0.3825 H   0  0  0  0  0  0  0  0  0  0  0  0
    9.4782    6.0442   -0.6083 H   0  0  0  0  0  0  0  0  0  0  0  0
    9.7775    7.4612    0.4264 H   0  0  0  0  0  0  0  0  0  0  0  0
    9.1300    8.4493   -3.5330 H   0  0  0  0  0  0  0  0  0  0  0  0
    7.2098    6.8606   -3.1489 H   0  0  0  0  0  0  0  0  0  0  0  0
    8.2346    5.7926   -2.1924 H   0  0  0  0  0  0  0  0  0  0  0  0
    9.7081    5.4191   -4.2032 H   0  0  0  0  0  0  0  0  0  0  0  0
    8.6563    6.4461   -5.1733 H   0  0  0  0  0  0  0  0  0  0  0  0
    7.7753    3.8585   -3.7829 H   0  0  0  0  0  0  0  0  0  0  0  0
    6.3121    5.5548   -5.8972 H   0  0  0  0  0  0  0  0  0  0  0  0
    5.8694    5.4490   -4.1772 H   0  0  0  0  0  0  0  0  0  0  0  0
    5.7246    4.0218   -5.2113 H   0  0  0  0  0  0  0  0  0  0  0  0
    9.5206    3.5526   -5.5546 H   0  0  0  0  0  0  0  0  0  0  0  0
    8.4777    4.3461   -6.7283 H   0  0  0  0  0  0  0  0  0  0  0  0
    6.7819    2.5170   -6.4924 H   0  0  0  0  0  0  0  0  0  0  0  0
    7.7373    1.7667   -5.2212 H   0  0  0  0  0  0  0  0  0  0  0  0
    8.5979    2.1632   -8.1563 H   0  0  0  0  0  0  0  0  0  0  0  0
    7.9706    0.6647   -7.4577 H   0  0  0  0  0  0  0  0  0  0  0  0
    9.3942   -0.6691   -5.8300 H   0  0  0  0  0  0  0  0  0  0  0  0
    9.7917    0.6754   -4.7550 H   0  0  0  0  0  0  0  0  0  0  0  0
   11.0950   -0.2185   -5.5620 H   0  0  0  0  0  0  0  0  0  0  0  0
   10.8104    2.2613   -8.4143 H   0  0  0  0  0  0  0  0  0  0  0  0
   12.6539    0.6366   -6.5200 H   0  0  0  0  0  0  0  0  0  0  0  0
   13.0420    2.2024   -7.2279 H   0  0  0  0  0  0  0  0  0  0  0  0
   12.8458    1.1916   -9.5408 H   0  0  0  0  0  0  0  0  0  0  0  0
   12.6002   -0.3930   -8.8127 H   0  0  0  0  0  0  0  0  0  0  0  0
   15.0866    1.3640   -8.4298 H   0  0  0  0  0  0  0  0  0  0  0  0
   14.6144   -1.5734   -7.6314 H   0  0  0  0  0  0  0  0  0  0  0  0
   14.7342   -0.2017   -6.5040 H   0  0  0  0  0  0  0  0  0  0  0  0
   16.1475   -0.6890   -7.4490 H   0  0  0  0  0  0  0  0  0  0  0  0
   14.6980    0.5602  -10.7735 H   0  0  0  0  0  0  0  0  0  0  0  0
   14.6994   -1.1069  -10.2043 H   0  0  0  0  0  0  0  0  0  0  0  0
   17.0924   -0.8595   -9.4655 H   0  0  0  0  0  0  0  0  0  0  0  0
   17.0697    0.8398   -9.9326 H   0  0  0  0  0  0  0  0  0  0  0  0
   16.6271    0.1700  -12.3177 H   0  0  0  0  0  0  0  0  0  0  0  0
   16.6473   -1.5293  -11.8512 H   0  0  0  0  0  0  0  0  0  0  0  0
   19.0110   -1.2547  -11.0073 H   0  0  0  0  0  0  0  0  0  0  0  0
   19.0222    0.4123  -11.5763 H   0  0  0  0  0  0  0  0  0  0  0  0
   18.6158   -2.0383  -13.3736 H   0  0  0  0  0  0  0  0  0  0  0  0
   19.1068    0.9081  -14.1257 H   0  0  0  0  0  0  0  0  0  0  0  0
   17.5758    0.0282  -14.3431 H   0  0  0  0  0  0  0  0  0  0  0  0
   19.0120   -0.4514  -15.2686 H   0  0  0  0  0  0  0  0  0  0  0  0
   21.1197   -0.3290  -12.9043 H   0  0  0  0  0  0  0  0  0  0  0  0
   20.9205   -1.4544  -14.2433 H   0  0  0  0  0  0  0  0  0  0  0  0
   20.5984   -3.3428  -12.6000 H   0  0  0  0  0  0  0  0  0  0  0  0
   20.9237   -2.2378  -11.2675 H   0  0  0  0  0  0  0  0  0  0  0  0
   22.9024   -2.9285  -13.5544 H   0  0  0  0  0  0  0  0  0  0  0  0
   22.4050   -1.9107   -9.9355 H   0  0  0  0  0  0  0  0  0  0  0  0
   24.1073   -1.3944   -9.8911 H   0  0  0  0  0  0  0  0  0  0  0  0
   23.6828   -3.0665   -9.5091 H   0  0  0  0  0  0  0  0  0  0  0  0
   25.6900   -2.0178  -11.7661 H   0  0  0  0  0  0  0  0  0  0  0  0
   25.0965   -2.9539  -13.1433 H   0  0  0  0  0  0  0  0  0  0  0  0
   24.9938   -5.0039  -11.6779 H   0  0  0  0  0  0  0  0  0  0  0  0
   25.6564   -4.0783  -10.3298 H   0  0  0  0  0  0  0  0  0  0  0  0
   27.6844   -3.5205  -11.7251 H   0  0  0  0  0  0  0  0  0  0  0  0
   27.0794   -4.5574  -13.0143 H   0  0  0  0  0  0  0  0  0  0  0  0
   27.7389   -5.5076  -10.1746 H   0  0  0  0  0  0  0  0  0  0  0  0
   27.0783   -7.1402  -12.7013 H   0  0  0  0  0  0  0  0  0  0  0  0
   26.0225   -6.9644  -11.2805 H   0  0  0  0  0  0  0  0  0  0  0  0
   27.5737   -7.8144  -11.1318 H   0  0  0  0  0  0  0  0  0  0  0  0
   29.3483   -5.7744  -12.7702 H   0  0  0  0  0  0  0  0  0  0  0  0
   29.6718   -6.6880  -11.3000 H   0  0  0  0  0  0  0  0  0  0  0  0
   30.0506   -4.5314  -10.0466 H   0  0  0  0  0  0  0  0  0  0  0  0
   29.8416   -3.6269  -11.5459 H   0  0  0  0  0  0  0  0  0  0  0  0
   31.7324   -4.9447  -12.5885 H   0  0  0  0  0  0  0  0  0  0  0  0
   32.0079   -5.7497  -11.0456 H   0  0  0  0  0  0  0  0  0  0  0  0
   32.2071   -2.7287  -11.5233 H   0  0  0  0  0  0  0  0  0  0  0  0
   33.0226   -4.3844   -9.0587 H   0  0  0  0  0  0  0  0  0  0  0  0
   31.6786   -3.2196   -9.1297 H   0  0  0  0  0  0  0  0  0  0  0  0
   33.3524   -2.6520   -9.2923 H   0  0  0  0  0  0  0  0  0  0  0  0
   34.4477   -4.8219  -11.2483 H   0  0  0  0  0  0  0  0  0  0  0  0
   34.6839   -3.0653  -11.4012 H   0  0  0  0  0  0  0  0  0  0  0  0
   33.9821   -3.9908  -12.7508 H   0  0  0  0  0  0  0  0  0  0  0  0
  1  2  1  0
  1 41  1  0
  1 42  1  0
  1 43  1  0
  2  3  1  0
  2  4  2  0
  3 44  1  0
  3 45  1  0
  3 46  1  0
  4  5  1  0
  4 47  1  0
  5  6  1  0
  5 48  1  0
  5 49  1  0
  6  7  1  0
  6 50  1  0
  6 51  1  0
  7  8  1  0
  7  9  1  0
  7 52  1  1
  8 53  1  0
  8 54  1  0
  8 55  1  0
  9 10  1  0
  9 56  1  0
  9 57  1  0
 10 11  1  0
 10 58  1  0
 10 59  1  0
 11 12  1  0
 11 60  1  0
 11 61  1  0
 12 13  1  0
 12 14  2  0
 13 62  1  0
 13 63  1  0
 13 64  1  0
 14 15  1  0
 14 65  1  0
 15 16  1  0
 15 66  1  0
 15 67  1  0
 16 17  1  0
 16 68  1  0
 16 69  1  0
 17 18  1  0
 17 19  1  0
 17 70  1  1
 18 71  1  0
 18 72  1  0
 18 73  1  0
 19 20  1  0
 19 74  1  0
 19 75  1  0
 20 21  1  0
 20 76  1  0
 20 77  1  0
 21 22  1  0
 21 78  1  0
 21 79  1  0
 22 23  1  0
 22 80  1  0
 22 81  1  0
 23 24  1  0
 23 25  1  0
 23 82  1  6
 24 83  1  0
 24 84  1  0
 24 85  1  0
 25 26  1  0
 25 86  1  0
 25 87  1  0
 26 27  1  0
 26 88  1  0
 26 89  1  0
 27 28  2  0
 27 90  1  0
 28 29  1  0
 28 30  1  0
 29 91  1  0
 29 92  1  0
 29 93  1  0
 30 31  1  0
 30 94  1  0
 30 95  1  0
 31 32  1  0
 31 96  1  0
 31 97  1  0
 32 33  1  0
 32 98  1  0
 32 99  1  0
 33 34  1  0
 33 35  1  0
 33100  1  1
 34101  1  0
 34102  1  0
 34103  1  0
 35 36  1  0
 35104  1  0
 35105  1  0
 36 37  1  0
 36106  1  0
 36107  1  0
 37 38  1  0
 37108  1  0
 37109  1  0
 38 39  1  0
 38 40  1  0
 38110  1  6
 39111  1  0
 39112  1  0
 39113  1  0
 40114  1  0
 40115  1  0
 40116  1  0
M  END

