
     RDKit          3D

 42 43  0  0  0  0  0  0  0  0999 V2000
    0.6071    0.1179   -0.0787 C   0  0  0  0  0  0  0  0  0  0  0  0
    2.1360    0.1171    0.0950 C   0  0  1  0  0  0  0  0  0  0  0  0
    2.7151   -1.3027   -0.1118 C   0  0  0  0  0  0  0  0  0  0  0  0
    2.7489   -1.7081   -1.5932 C   0  0  0  0  0  0  0  0  0  0  0  0
    3.4699   -0.7496   -2.4276 N   0  0  0  0  0  0  0  0  0  0  0  0
    4.9015   -0.9578   -2.5360 C   0  0  0  0  0  0  0  0  0  0  0  0
    5.2814   -2.0915   -3.4815 C   0  0  0  0  0  0  0  0  0  0  0  0
    6.4658   -2.8168   -3.2911 C   0  0  0  0  0  0  0  0  0  0  0  0
    6.8553   -3.8067   -4.1998 C   0  0  0  0  0  0  0  0  0  0  0  0
    6.0598   -4.0940   -5.3077 C   0  0  0  0  0  0  0  0  0  0  0  0
    4.8564   -3.3980   -5.5013 C   0  0  0  0  0  0  0  0  0  0  0  0
    4.0327   -3.7493   -6.7108 C   0  0  0  0  0  0  0  0  0  0  0  0
    4.4589   -4.3912   -7.6351 O   0  0  0  0  0  0  0  0  0  0  0  0
    2.7535   -3.3104   -6.7179 O   0  0  0  0  0  0  0  0  0  0  0  0
    4.4846   -2.3974   -4.5914 C   0  0  0  0  0  0  0  0  0  0  0  0
    2.9691    0.6090   -2.2628 C   0  0  0  0  0  0  0  0  0  0  0  0
    2.8945    1.1547   -0.8064 C   0  0  1  0  0  0  0  0  0  0  0  0
    2.1761    2.5151   -0.8436 C   0  0  0  0  0  0  0  0  0  0  0  0
    4.3075    1.3949   -0.2353 C   0  0  0  0  0  0  0  0  0  0  0  0
    0.1550   -0.6659    0.5504 H   0  0  0  0  0  0  0  0  0  0  0  0
    0.2926   -0.0766   -1.1165 H   0  0  0  0  0  0  0  0  0  0  0  0
    0.1597    1.0751    0.2254 H   0  0  0  0  0  0  0  0  0  0  0  0
    2.3317    0.4049    1.1443 H   0  0  0  0  0  0  0  0  0  0  0  0
    2.1184   -2.0344    0.4594 H   0  0  0  0  0  0  0  0  0  0  0  0
    3.7358   -1.3571    0.3017 H   0  0  0  0  0  0  0  0  0  0  0  0
    1.7154   -1.7984   -1.9757 H   0  0  0  0  0  0  0  0  0  0  0  0
    3.2071   -2.7024   -1.7132 H   0  0  0  0  0  0  0  0  0  0  0  0
    5.4058   -1.1413   -1.5633 H   0  0  0  0  0  0  0  0  0  0  0  0
    5.3479   -0.0256   -2.9237 H   0  0  0  0  0  0  0  0  0  0  0  0
    7.0942   -2.6014   -2.4214 H   0  0  0  0  0  0  0  0  0  0  0  0
    7.7844   -4.3588   -4.0374 H   0  0  0  0  0  0  0  0  0  0  0  0
    6.3431   -4.8579   -6.0339 H   0  0  0  0  0  0  0  0  0  0  0  0
    2.5337   -2.9033   -5.8684 H   0  0  0  0  0  0  0  0  0  0  0  0
    3.5709   -1.8077   -4.7147 H   0  0  0  0  0  0  0  0  0  0  0  0
    1.9491    0.6419   -2.6896 H   0  0  0  0  0  0  0  0  0  0  0  0
    3.5792    1.2904   -2.8789 H   0  0  0  0  0  0  0  0  0  0  0  0
    1.1937    2.4595   -1.3364 H   0  0  0  0  0  0  0  0  0  0  0  0
    2.7793    3.2534   -1.3978 H   0  0  0  0  0  0  0  0  0  0  0  0
    2.0216    2.9124    0.1733 H   0  0  0  0  0  0  0  0  0  0  0  0
    4.8874    0.4697   -0.1150 H   0  0  0  0  0  0  0  0  0  0  0  0
    4.2452    1.8726    0.7565 H   0  0  0  0  0  0  0  0  0  0  0  0
    4.8873    2.0666   -0.8897 H   0  0  0  0  0  0  0  0  0  0  0  0
  1  2  1  0
  1 20  1  0
  1 21  1  0
  1 22  1  0
  2  3  1  0
  2 17  1  0
  2 23  1  1
  3  4  1  0
  3 24  1  0
  3 25  1  0
  4  5  1  0
  4 26  1  0
  4 27  1  0
  5  6  1  0
  5 16  1  0
  6  7  1  0
  6 28  1  0
  6 29  1  0
  7  8  2  0
  7 15  1  0
  8  9  1  0
  8 30  1  0
  9 10  2  0
  9 31  1  0
 10 11  1  0
 10 32  1  0
 11 12  1  0
 11 15  2  0
 12 13  2  0
 12 14  1  0
 14 33  1  0
 15 34  1  0
 16 17  1  0
 16 35  1  0
 16 36  1  0
 17 18  1  6
 17 19  1  0
 18 37  1  0
 18 38  1  0
 18 39  1  0
 19 40  1  0
 19 41  1  0
 19 42  1  0
M  END

