
     RDKit          3D

 41 41  0  0  0  0  0  0  0  0999 V2000
    1.2561    1.0747    3.4069 C   0  0  0  0  0  0  0  0  0  0  0  0
    2.7645    1.0059    3.1289 C   0  0  1  0  0  0  0  0  0  0  0  0
    3.0967   -0.2447    2.3046 C   0  0  0  0  0  0  0  0  0  0  0  0
    3.2875    2.2962    2.4431 C   0  0  1  0  0  0  0  0  0  0  0  0
    2.8156    2.3720    1.4506 H   0  0  0  0  0  0  0  0  0  0  0  0
    2.9954    3.5783    3.2341 C   0  0  0  0  0  0  0  0  0  0  0  0
    4.7208    2.2045    2.1763 N   0  0  0  0  0  0  0  0  0  0  0  0
    5.2532    2.2395    0.9257 C   0  0  0  0  0  0  0  0  0  0  0  0
    4.6039    2.2818   -0.1064 O   0  0  0  0  0  0  0  0  0  0  0  0
    6.7924    2.1931    0.8794 C   0  0  0  0  0  0  0  0  0  0  0  0
    7.4126    3.3828    1.3936 O   0  0  0  0  0  0  0  0  0  0  0  0
    7.6530    3.4604    2.7153 C   0  0  0  0  0  0  0  0  0  0  0  0
    7.2956    2.6127    3.5124 O   0  0  0  0  0  0  0  0  0  0  0  0
    8.3929    4.6943    3.0464 C   0  0  0  0  0  0  0  0  0  0  0  0
    8.7317    4.9585    4.3251 C   0  0  0  0  0  0  0  0  0  0  0  0
    9.4628    6.1230    4.8229 C   0  0  0  0  0  0  0  0  0  0  0  0
    9.9221    7.1450    3.9629 C   0  0  0  0  0  0  0  0  0  0  0  0
   10.6166    8.2551    4.4254 C   0  0  0  0  0  0  0  0  0  0  0  0
   10.8753    8.3720    5.7969 C   0  0  0  0  0  0  0  0  0  0  0  0
   11.7447    9.7552    6.3998 Cl  0  0  0  0  0  0  0  0  0  0  0  0
   10.4435    7.3901    6.6890 C   0  0  0  0  0  0  0  0  0  0  0  0
    9.7465    6.2819    6.2011 C   0  0  0  0  0  0  0  0  0  0  0  0
    9.2336    5.0889    7.3723 Cl  0  0  0  0  0  0  0  0  0  0  0  0
    0.8999    0.1272    3.8415 H   0  0  0  0  0  0  0  0  0  0  0  0
    0.6911    1.2428    2.4737 H   0  0  0  0  0  0  0  0  0  0  0  0
    0.9906    1.8771    4.1110 H   0  0  0  0  0  0  0  0  0  0  0  0
    3.2850    0.9213    4.1036 H   0  0  0  0  0  0  0  0  0  0  0  0
    2.6146   -0.2037    1.3135 H   0  0  0  0  0  0  0  0  0  0  0  0
    2.7419   -1.1543    2.8150 H   0  0  0  0  0  0  0  0  0  0  0  0
    4.1793   -0.3515    2.1435 H   0  0  0  0  0  0  0  0  0  0  0  0
    1.9156    3.7515    3.3479 H   0  0  0  0  0  0  0  0  0  0  0  0
    3.4215    4.4494    2.7138 H   0  0  0  0  0  0  0  0  0  0  0  0
    3.4394    3.5336    4.2436 H   0  0  0  0  0  0  0  0  0  0  0  0
    5.3695    2.1601    2.9615 H   0  0  0  0  0  0  0  0  0  0  0  0
    7.0796    2.1405   -0.1761 H   0  0  0  0  0  0  0  0  0  0  0  0
    7.1710    1.3176    1.4301 H   0  0  0  0  0  0  0  0  0  0  0  0
    8.6365    5.3481    2.2069 H   0  0  0  0  0  0  0  0  0  0  0  0
    8.4263    4.2205    5.0711 H   0  0  0  0  0  0  0  0  0  0  0  0
    9.7257    7.0618    2.8926 H   0  0  0  0  0  0  0  0  0  0  0  0
   10.9592    9.0289    3.7375 H   0  0  0  0  0  0  0  0  0  0  0  0
   10.6456    7.4826    7.7557 H   0  0  0  0  0  0  0  0  0  0  0  0
  1  2  1  0
  1 24  1  0
  1 25  1  0
  1 26  1  0
  2  3  1  0
  2  4  1  0
  2 27  1  1
  3 28  1  0
  3 29  1  0
  3 30  1  0
  4  5  1  6
  4  6  1  0
  4  7  1  0
  6 31  1  0
  6 32  1  0
  6 33  1  0
  7  8  1  0
  7 34  1  0
  8  9  2  0
  8 10  1  0
 10 11  1  0
 10 35  1  0
 10 36  1  0
 11 12  1  0
 12 13  2  0
 12 14  1  0
 14 15  2  0
 14 37  1  0
 15 16  1  0
 15 38  1  0
 16 17  2  0
 16 22  1  0
 17 18  1  0
 17 39  1  0
 18 19  2  0
 18 40  1  0
 19 20  1  0
 19 21  1  0
 21 22  2  0
 21 41  1  0
 22 23  1  0
M  END

