
     RDKit          3D

 50 57  0  0  0  0  0  0  0  0999 V2000
    2.6963   -2.5619   -0.5414 C   0  0  0  0  0  0  0  0  0  0  0  0
    3.9139   -1.7082   -0.1922 C   0  0  1  0  0  0  0  0  0  0  0  0
    3.5541   -0.3745   -0.4825 O   0  0  0  0  0  0  0  0  0  0  0  0
    4.3149    0.5466    0.2951 C   0  0  1  0  0  0  0  0  0  0  0  0
    4.8430   -0.2632    1.5085 C   0  0  0  0  0  0  0  0  0  0  0  0
    4.2353   -1.6584    1.3397 C   0  0  2  0  0  0  0  0  0  0  0  0
    5.1238   -2.6405    1.7965 O   0  0  0  0  0  0  0  0  0  0  0  0
    5.3522    1.0830   -0.5450 N   0  0  0  0  0  0  0  0  0  0  0  0
    5.8324    2.3824   -0.6579 C   0  0  0  0  0  0  0  0  0  0  0  0
    5.3715    3.5650   -0.0654 C   0  0  0  0  0  0  0  0  0  0  0  0
    6.0488    4.7467   -0.3677 C   0  0  0  0  0  0  0  0  0  0  0  0
    7.1614    4.7551   -1.2315 C   0  0  0  0  0  0  0  0  0  0  0  0
    7.6263    3.5781   -1.8153 C   0  0  0  0  0  0  0  0  0  0  0  0
    6.9619    2.3732   -1.5294 C   0  0  0  0  0  0  0  0  0  0  0  0
    7.1664    0.9964   -1.9389 C   0  0  0  0  0  0  0  0  0  0  0  0
    8.1038    0.3086   -2.7428 C   0  0  0  0  0  0  0  0  0  0  0  0
    8.0343   -1.0755   -2.8875 C   0  0  0  0  0  0  0  0  0  0  0  0
    7.0205   -1.8220   -2.2567 C   0  0  0  0  0  0  0  0  0  0  0  0
    6.7031   -3.2289   -2.1831 C   0  0  0  0  0  0  0  0  0  0  0  0
    7.3186   -4.3725   -2.7156 C   0  0  0  0  0  0  0  0  0  0  0  0
    6.7937   -5.6298   -2.4281 C   0  0  0  0  0  0  0  0  0  0  0  0
    5.6627   -5.7482   -1.6030 C   0  0  0  0  0  0  0  0  0  0  0  0
    5.0299   -4.6262   -1.0663 C   0  0  0  0  0  0  0  0  0  0  0  0
    5.5389   -3.3526   -1.3669 C   0  0  0  0  0  0  0  0  0  0  0  0
    5.1169   -2.0742   -0.9786 N   0  0  0  0  0  0  0  0  0  0  0  0
    6.0413   -1.1507   -1.4787 C   0  0  0  0  0  0  0  0  0  0  0  0
    6.1433    0.2433   -1.3093 C   0  0  0  0  0  0  0  0  0  0  0  0
    9.1664   -1.5458   -3.7701 C   0  0  0  0  0  0  0  0  0  0  0  0
    9.8392   -0.3038   -4.0869 N   0  0  0  0  0  0  0  0  0  0  0  0
    9.2725    0.8175   -3.5185 C   0  0  0  0  0  0  0  0  0  0  0  0
    9.6790    1.9591   -3.6523 O   0  0  0  0  0  0  0  0  0  0  0  0
    2.6119   -2.7101   -1.6266 H   0  0  0  0  0  0  0  0  0  0  0  0
    1.8085   -2.0179   -0.1911 H   0  0  0  0  0  0  0  0  0  0  0  0
    2.7093   -3.5424   -0.0496 H   0  0  0  0  0  0  0  0  0  0  0  0
    3.6492    1.3703    0.5883 H   0  0  0  0  0  0  0  0  0  0  0  0
    4.5676    0.2035    2.4637 H   0  0  0  0  0  0  0  0  0  0  0  0
    5.9382   -0.3474    1.4764 H   0  0  0  0  0  0  0  0  0  0  0  0
    3.2644   -1.7137    1.8691 H   0  0  0  0  0  0  0  0  0  0  0  0
    4.6657   -3.4877    1.8646 H   0  0  0  0  0  0  0  0  0  0  0  0
    4.5139    3.5732    0.6108 H   0  0  0  0  0  0  0  0  0  0  0  0
    5.7070    5.6841    0.0789 H   0  0  0  0  0  0  0  0  0  0  0  0
    7.6679    5.6998   -1.4438 H   0  0  0  0  0  0  0  0  0  0  0  0
    8.4886    3.5624   -2.4841 H   0  0  0  0  0  0  0  0  0  0  0  0
    8.2074   -4.2786   -3.3433 H   0  0  0  0  0  0  0  0  0  0  0  0
    7.2665   -6.5267   -2.8346 H   0  0  0  0  0  0  0  0  0  0  0  0
    5.2671   -6.7395   -1.3681 H   0  0  0  0  0  0  0  0  0  0  0  0
    4.1671   -4.7675   -0.4199 H   0  0  0  0  0  0  0  0  0  0  0  0
    8.7944   -2.0618   -4.6761 H   0  0  0  0  0  0  0  0  0  0  0  0
    9.8305   -2.2562   -3.2408 H   0  0  0  0  0  0  0  0  0  0  0  0
   10.6607   -0.2333   -4.6728 H   0  0  0  0  0  0  0  0  0  0  0  0
  2  1  1  1
  1 32  1  0
  1 33  1  0
  1 34  1  0
  2  3  1  0
  2  6  1  0
  2 25  1  0
  3  4  1  0
  4  5  1  0
  4  8  1  0
  4 35  1  1
  5  6  1  0
  5 36  1  0
  5 37  1  0
  6  7  1  0
  6 38  1  1
  7 39  1  0
  8  9  1  0
  8 27  1  0
  9 10  2  0
  9 14  1  0
 10 11  1  0
 10 40  1  0
 11 12  2  0
 11 41  1  0
 12 13  1  0
 12 42  1  0
 13 14  2  0
 13 43  1  0
 14 15  1  0
 15 16  1  0
 15 27  2  0
 16 17  2  0
 16 30  1  0
 17 18  1  0
 17 28  1  0
 18 19  1  0
 18 26  2  0
 19 20  1  0
 19 24  2  0
 20 21  2  0
 20 44  1  0
 21 22  1  0
 21 45  1  0
 22 23  2  0
 22 46  1  0
 23 24  1  0
 23 47  1  0
 24 25  1  0
 25 26  1  0
 26 27  1  0
 28 29  1  0
 28 48  1  0
 28 49  1  0
 29 30  1  0
 29 50  1  0
 30 31  2  0
M  END

