
     RDKit          3D

 60 64  0  0  0  0  0  0  0  0999 V2000
    0.4294    0.2252    0.2522 C   0  0  0  0  0  0  0  0  0  0  0  0
    1.8025    0.1925    0.7218 N   0  0  0  0  0  0  0  0  0  0  0  0
    1.9705   -0.6757    1.8884 C   0  0  0  0  0  0  0  0  0  0  0  0
    3.4272   -0.7291    2.3607 C   0  0  0  0  0  0  0  0  0  0  0  0
    3.9660    0.5636    2.6075 O   0  0  0  0  0  0  0  0  0  0  0  0
    3.8158    1.3411    1.4515 C   0  0  2  0  0  0  0  0  0  0  0  0
    4.2929    2.7837    1.5664 C   0  0  0  0  0  0  0  0  0  0  0  0
    3.5301    3.4247    0.4826 N   0  0  0  0  0  0  0  0  0  0  0  0
    3.6407    4.7086    0.0389 C   0  0  0  0  0  0  0  0  0  0  0  0
    2.9185    5.1553   -0.8393 O   0  0  0  0  0  0  0  0  0  0  0  0
    4.7723    5.5608    0.6428 C   0  0  1  0  0  0  0  0  0  0  0  0
    6.0281    5.4814   -0.2729 C   0  0  0  0  0  0  0  0  0  0  0  0
    6.6074    6.8908   -0.1842 C   0  0  1  0  0  0  0  0  0  0  0  0
    7.6229    7.3716   -1.2172 C   0  0  0  0  0  0  0  0  0  0  0  0
    7.9785    8.8419   -0.9260 C   0  0  0  0  0  0  0  0  0  0  0  0
    6.7338    9.7383   -0.8008 C   0  0  0  0  0  0  0  0  0  0  0  0
    5.6880    9.1996    0.1944 C   0  0  0  0  0  0  0  0  0  0  0  0
    5.3477    7.7625   -0.1976 C   0  0  2  0  0  0  0  0  0  0  0  0
    4.4337    6.9993    0.6667 N   0  0  0  0  0  0  0  0  0  0  0  0
    3.1727    7.4883    0.9358 C   0  0  0  0  0  0  0  0  0  0  0  0
    2.7666    8.5394    0.4651 O   0  0  0  0  0  0  0  0  0  0  0  0
    2.3185    6.7135    1.9086 C   0  0  0  0  0  0  0  0  0  0  0  0
    2.8310    6.1954    3.1073 C   0  0  0  0  0  0  0  0  0  0  0  0
    1.9847    5.5641    4.0253 C   0  0  0  0  0  0  0  0  0  0  0  0
    0.6213    5.4358    3.7448 C   0  0  0  0  0  0  0  0  0  0  0  0
    0.1031    5.9591    2.5536 C   0  0  0  0  0  0  0  0  0  0  0  0
    0.9439    6.6057    1.6471 C   0  0  0  0  0  0  0  0  0  0  0  0
    2.4599    2.5583   -0.0491 C   0  0  0  0  0  0  0  0  0  0  0  0
    2.3516    1.4951    1.0422 C   0  0  1  0  0  0  0  0  0  0  0  0
    0.0997   -0.7933   -0.0076 H   0  0  0  0  0  0  0  0  0  0  0  0
    0.3489    0.8430   -0.6549 H   0  0  0  0  0  0  0  0  0  0  0  0
   -0.2819    0.6305    1.0077 H   0  0  0  0  0  0  0  0  0  0  0  0
    1.6451   -1.6971    1.6293 H   0  0  0  0  0  0  0  0  0  0  0  0
    1.3326   -0.3327    2.7361 H   0  0  0  0  0  0  0  0  0  0  0  0
    4.0405   -1.2475    1.5969 H   0  0  0  0  0  0  0  0  0  0  0  0
    3.4974   -1.2915    3.3034 H   0  0  0  0  0  0  0  0  0  0  0  0
    4.3393    0.8512    0.6030 H   0  0  0  0  0  0  0  0  0  0  0  0
    5.3794    2.8761    1.4218 H   0  0  0  0  0  0  0  0  0  0  0  0
    4.0322    3.1917    2.5592 H   0  0  0  0  0  0  0  0  0  0  0  0
    5.0256    5.2100    1.6539 H   0  0  0  0  0  0  0  0  0  0  0  0
    5.7188    5.2666   -1.3084 H   0  0  0  0  0  0  0  0  0  0  0  0
    6.7232    4.6913    0.0493 H   0  0  0  0  0  0  0  0  0  0  0  0
    7.0636    7.0047    0.8180 H   0  0  0  0  0  0  0  0  0  0  0  0
    7.1925    7.2779   -2.2311 H   0  0  0  0  0  0  0  0  0  0  0  0
    8.5316    6.7459   -1.1991 H   0  0  0  0  0  0  0  0  0  0  0  0
    8.6480    9.2341   -1.7097 H   0  0  0  0  0  0  0  0  0  0  0  0
    8.5510    8.8850    0.0187 H   0  0  0  0  0  0  0  0  0  0  0  0
    6.2580    9.8341   -1.7938 H   0  0  0  0  0  0  0  0  0  0  0  0
    7.0358   10.7577   -0.5091 H   0  0  0  0  0  0  0  0  0  0  0  0
    4.7856    9.8245    0.1849 H   0  0  0  0  0  0  0  0  0  0  0  0
    6.0913    9.2125    1.2233 H   0  0  0  0  0  0  0  0  0  0  0  0
    4.9288    7.7818   -1.2241 H   0  0  0  0  0  0  0  0  0  0  0  0
    3.8920    6.3159    3.3391 H   0  0  0  0  0  0  0  0  0  0  0  0
    2.3900    5.1802    4.9653 H   0  0  0  0  0  0  0  0  0  0  0  0
   -0.0403    4.9390    4.4593 H   0  0  0  0  0  0  0  0  0  0  0  0
   -0.9645    5.8693    2.3364 H   0  0  0  0  0  0  0  0  0  0  0  0
    0.5524    7.0346    0.7230 H   0  0  0  0  0  0  0  0  0  0  0  0
    2.7487    2.1101   -1.0171 H   0  0  0  0  0  0  0  0  0  0  0  0
    1.5512    3.1529   -0.2096 H   0  0  0  0  0  0  0  0  0  0  0  0
    1.8157    1.9501    1.9100 H   0  0  0  0  0  0  0  0  0  0  0  0
  1  2  1  0
  1 30  1  0
  1 31  1  0
  1 32  1  0
  2  3  1  0
  2 29  1  0
  3  4  1  0
  3 33  1  0
  3 34  1  0
  4  5  1  0
  4 35  1  0
  4 36  1  0
  5  6  1  0
  6  7  1  0
  6 29  1  0
  6 37  1  6
  7  8  1  0
  7 38  1  0
  7 39  1  0
  8  9  1  0
  8 28  1  0
  9 10  2  0
  9 11  1  0
 11 12  1  0
 11 19  1  0
 11 40  1  1
 12 13  1  0
 12 41  1  0
 12 42  1  0
 13 14  1  0
 13 18  1  0
 13 43  1  1
 14 15  1  0
 14 44  1  0
 14 45  1  0
 15 16  1  0
 15 46  1  0
 15 47  1  0
 16 17  1  0
 16 48  1  0
 16 49  1  0
 17 18  1  0
 17 50  1  0
 17 51  1  0
 18 19  1  0
 18 52  1  6
 19 20  1  0
 20 21  2  0
 20 22  1  0
 22 23  2  0
 22 27  1  0
 23 24  1  0
 23 53  1  0
 24 25  2  0
 24 54  1  0
 25 26  1  0
 25 55  1  0
 26 27  2  0
 26 56  1  0
 27 57  1  0
 28 29  1  0
 28 58  1  0
 28 59  1  0
 29 60  1  1
M  END

