
     RDKit          3D

 82 87  0  0  0  0  0  0  0  0999 V2000
    4.3311    0.9125   -1.6574 O   0  0  0  0  0  0  0  0  0  0  0  0
    3.8755    0.2242   -0.7608 C   0  0  0  0  0  0  0  0  0  0  0  0
    3.8855   -1.2991   -0.8833 C   0  0  0  0  0  0  0  0  0  0  0  0
    3.9781   -2.0712    0.4319 C   0  0  0  0  0  0  0  0  0  0  0  0
    2.9643   -1.5004    1.4182 C   0  0  0  0  0  0  0  0  0  0  0  0
    3.2115   -0.0146    1.6386 C   0  0  0  0  0  0  0  0  0  0  0  0
    3.2727    0.7562    0.3739 N   0  0  0  0  0  0  0  0  0  0  0  0
    3.2254    2.1365    0.4975 N   0  0  0  0  0  0  0  0  0  0  0  0
    4.5082    2.8202    0.6338 C   0  0  0  0  0  0  0  0  0  0  0  0
    4.7300    3.7752   -0.5279 C   0  0  0  0  0  0  0  0  0  0  0  0
    3.5947    4.6146   -0.7323 O   0  0  0  0  0  0  0  0  0  0  0  0
    2.3309    3.9859   -0.9062 C   0  0  2  0  0  0  0  0  0  0  0  0
    2.3809    3.1569   -2.2236 C   0  0  0  0  0  0  0  0  0  0  0  0
    3.1824    3.6375   -3.2775 C   0  0  0  0  0  0  0  0  0  0  0  0
    3.1752    2.9697   -4.4973 C   0  0  0  0  0  0  0  0  0  0  0  0
    2.3577    1.8462   -4.6498 C   0  0  0  0  0  0  0  0  0  0  0  0
    1.5900    1.4535   -3.5554 C   0  0  0  0  0  0  0  0  0  0  0  0
    1.6018    2.0889   -2.3797 N   0  0  0  0  0  0  0  0  0  0  0  0
    1.3672    5.0843   -1.0746 N   0  0  0  0  0  0  0  0  0  0  0  0
    1.7768    6.4740   -1.2724 C   0  0  0  0  0  0  0  0  0  0  0  0
    1.6225    6.9868   -2.7138 C   0  0  0  0  0  0  0  0  0  0  0  0
    0.2059    6.7416   -3.2402 C   0  0  0  0  0  0  0  0  0  0  0  0
   -0.1640    5.2654   -3.0739 C   0  0  0  0  0  0  0  0  0  0  0  0
    0.0419    4.7998   -1.6227 C   0  0  0  0  0  0  0  0  0  0  0  0
    2.0409    3.0679    0.4221 C   0  0  1  0  0  0  0  0  0  0  0  0
    0.6805    2.4979    0.4179 N   0  0  0  0  0  0  0  0  0  0  0  0
    0.4123    1.0720    0.2377 C   0  0  0  0  0  0  0  0  0  0  0  0
   -0.8239    0.7378   -0.6205 C   0  0  0  0  0  0  0  0  0  0  0  0
   -2.1564    0.5854    0.1267 C   0  0  0  0  0  0  0  0  0  0  0  0
   -2.4088    1.6684    1.1884 C   0  0  0  0  0  0  0  0  0  0  0  0
   -1.8043    3.0360    0.8464 C   0  0  0  0  0  0  0  0  0  0  0  0
   -0.3190    3.2231    1.2117 C   0  0  0  0  0  0  0  0  0  0  0  0
    2.1900    3.9349    1.6480 N   0  0  0  0  0  0  0  0  0  0  0  0
    2.2565    5.4063    1.7249 C   0  0  0  0  0  0  0  0  0  0  0  0
    2.7696    5.6779    3.1466 C   0  0  0  0  0  0  0  0  0  0  0  0
    2.2218    4.4992    3.9418 C   0  0  0  0  0  0  0  0  0  0  0  0
    2.1107    3.3801    2.9093 C   0  0  0  0  0  0  0  0  0  0  0  0
    1.9359    2.2077    3.1887 O   0  0  0  0  0  0  0  0  0  0  0  0
    4.6998   -1.5454   -1.5795 H   0  0  0  0  0  0  0  0  0  0  0  0
    2.9435   -1.5582   -1.4013 H   0  0  0  0  0  0  0  0  0  0  0  0
    4.9954   -1.9743    0.8521 H   0  0  0  0  0  0  0  0  0  0  0  0
    3.8124   -3.1467    0.2558 H   0  0  0  0  0  0  0  0  0  0  0  0
    3.0177   -2.0125    2.3928 H   0  0  0  0  0  0  0  0  0  0  0  0
    1.9404   -1.6549    1.0344 H   0  0  0  0  0  0  0  0  0  0  0  0
    4.1662    0.1259    2.1846 H   0  0  0  0  0  0  0  0  0  0  0  0
    2.4350    0.4456    2.2558 H   0  0  0  0  0  0  0  0  0  0  0  0
    5.3031    2.0623    0.6291 H   0  0  0  0  0  0  0  0  0  0  0  0
    4.5753    3.3602    1.5953 H   0  0  0  0  0  0  0  0  0  0  0  0
    4.9437    3.1924   -1.4347 H   0  0  0  0  0  0  0  0  0  0  0  0
    5.5673    4.4629   -0.3276 H   0  0  0  0  0  0  0  0  0  0  0  0
    3.8030    4.5206   -3.1284 H   0  0  0  0  0  0  0  0  0  0  0  0
    3.8001    3.3216   -5.3227 H   0  0  0  0  0  0  0  0  0  0  0  0
    2.3170    1.2897   -5.5888 H   0  0  0  0  0  0  0  0  0  0  0  0
    0.9283    0.5816   -3.6277 H   0  0  0  0  0  0  0  0  0  0  0  0
    2.8121    6.6032   -0.9455 H   0  0  0  0  0  0  0  0  0  0  0  0
    1.1469    7.1116   -0.6160 H   0  0  0  0  0  0  0  0  0  0  0  0
    2.3526    6.4790   -3.3666 H   0  0  0  0  0  0  0  0  0  0  0  0
    1.8689    8.0629   -2.7376 H   0  0  0  0  0  0  0  0  0  0  0  0
    0.1167    7.0557   -4.2940 H   0  0  0  0  0  0  0  0  0  0  0  0
   -0.5071    7.3645   -2.6670 H   0  0  0  0  0  0  0  0  0  0  0  0
    0.4517    4.6508   -3.7518 H   0  0  0  0  0  0  0  0  0  0  0  0
   -1.2169    5.0919   -3.3563 H   0  0  0  0  0  0  0  0  0  0  0  0
   -0.1493    3.7268   -1.5346 H   0  0  0  0  0  0  0  0  0  0  0  0
   -0.7117    5.3125   -0.9907 H   0  0  0  0  0  0  0  0  0  0  0  0
    0.3294    0.5594    1.2205 H   0  0  0  0  0  0  0  0  0  0  0  0
    1.2664    0.6438   -0.2736 H   0  0  0  0  0  0  0  0  0  0  0  0
   -0.6198   -0.2095   -1.1499 H   0  0  0  0  0  0  0  0  0  0  0  0
   -0.9026    1.5000   -1.4088 H   0  0  0  0  0  0  0  0  0  0  0  0
   -2.2047   -0.4073    0.6081 H   0  0  0  0  0  0  0  0  0  0  0  0
   -2.9738    0.5933   -0.6161 H   0  0  0  0  0  0  0  0  0  0  0  0
   -1.9983    1.3460    2.1614 H   0  0  0  0  0  0  0  0  0  0  0  0
   -3.4955    1.7739    1.3470 H   0  0  0  0  0  0  0  0  0  0  0  0
   -2.3348    3.8041    1.4360 H   0  0  0  0  0  0  0  0  0  0  0  0
   -1.9914    3.2884   -0.2094 H   0  0  0  0  0  0  0  0  0  0  0  0
   -0.2388    2.9597    2.2860 H   0  0  0  0  0  0  0  0  0  0  0  0
   -0.1134    4.2954    1.1239 H   0  0  0  0  0  0  0  0  0  0  0  0
    1.2570    5.8511    1.5718 H   0  0  0  0  0  0  0  0  0  0  0  0
    2.9249    5.8123    0.9666 H   0  0  0  0  0  0  0  0  0  0  0  0
    2.4479    6.6620    3.5177 H   0  0  0  0  0  0  0  0  0  0  0  0
    3.8721    5.6632    3.1556 H   0  0  0  0  0  0  0  0  0  0  0  0
    1.2045    4.6920    4.3262 H   0  0  0  0  0  0  0  0  0  0  0  0
    2.8339    4.1689    4.7926 H   0  0  0  0  0  0  0  0  0  0  0  0
  1  2  2  0
  2  3  1  0
  2  7  1  0
  3  4  1  0
  3 39  1  0
  3 40  1  0
  4  5  1  0
  4 41  1  0
  4 42  1  0
  5  6  1  0
  5 43  1  0
  5 44  1  0
  6  7  1  0
  6 45  1  0
  6 46  1  0
  7  8  1  0
  8  9  1  0
  8 25  1  0
  9 10  1  0
  9 47  1  0
  9 48  1  0
 10 11  1  0
 10 49  1  0
 10 50  1  0
 11 12  1  0
 12 13  1  6
 12 19  1  0
 12 25  1  0
 13 14  2  0
 13 18  1  0
 14 15  1  0
 14 51  1  0
 15 16  2  0
 15 52  1  0
 16 17  1  0
 16 53  1  0
 17 18  2  0
 17 54  1  0
 19 20  1  0
 19 24  1  0
 20 21  1  0
 20 55  1  0
 20 56  1  0
 21 22  1  0
 21 57  1  0
 21 58  1  0
 22 23  1  0
 22 59  1  0
 22 60  1  0
 23 24  1  0
 23 61  1  0
 23 62  1  0
 24 63  1  0
 24 64  1  0
 25 26  1  6
 25 33  1  0
 26 27  1  0
 26 32  1  0
 27 28  1  0
 27 65  1  0
 27 66  1  0
 28 29  1  0
 28 67  1  0
 28 68  1  0
 29 30  1  0
 29 69  1  0
 29 70  1  0
 30 31  1  0
 30 71  1  0
 30 72  1  0
 31 32  1  0
 31 73  1  0
 31 74  1  0
 32 75  1  0
 32 76  1  0
 33 34  1  0
 33 37  1  0
 34 35  1  0
 34 77  1  0
 34 78  1  0
 35 36  1  0
 35 79  1  0
 35 80  1  0
 36 37  1  0
 36 81  1  0
 36 82  1  0
 37 38  2  0
M  END

