
     RDKit          3D

 54 55  0  0  0  0  0  0  0  0999 V2000
    3.0138    8.8652   -4.8175 C   0  0  0  0  0  0  0  0  0  0  0  0
    2.5486    7.9062   -5.7405 O   0  0  0  0  0  0  0  0  0  0  0  0
    1.5724    7.0504   -5.3633 C   0  0  0  0  0  0  0  0  0  0  0  0
    0.9674    7.0198   -4.1117 C   0  0  0  0  0  0  0  0  0  0  0  0
   -0.0539    6.0851   -3.8055 C   0  0  0  0  0  0  0  0  0  0  0  0
   -0.7067    6.0289   -2.5060 C   0  0  0  0  0  0  0  0  0  0  0  0
   -0.4675    6.7857   -1.4079 C   0  0  0  0  0  0  0  0  0  0  0  0
   -1.2460    6.5843   -0.1695 C   0  0  0  0  0  0  0  0  0  0  0  0
   -2.1534    5.7727   -0.0703 O   0  0  0  0  0  0  0  0  0  0  0  0
   -0.8934    7.4966    1.0104 C   0  0  0  0  0  0  0  0  0  0  0  0
   -1.6976    8.8019    0.9634 C   0  0  0  0  0  0  0  0  0  0  0  0
   -1.1435    9.8759    0.8221 O   0  0  0  0  0  0  0  0  0  0  0  0
   -3.1705    8.6592    1.0968 C   0  0  0  0  0  0  0  0  0  0  0  0
   -3.9651    9.7500    1.1275 C   0  0  0  0  0  0  0  0  0  0  0  0
   -5.4222    9.7947    1.2520 C   0  0  0  0  0  0  0  0  0  0  0  0
   -6.2248    8.6375    1.3428 C   0  0  0  0  0  0  0  0  0  0  0  0
   -7.6066    8.7345    1.4603 C   0  0  0  0  0  0  0  0  0  0  0  0
   -8.2130    9.9946    1.4902 C   0  0  0  0  0  0  0  0  0  0  0  0
   -9.6062    9.9942    1.5430 O   0  0  0  0  0  0  0  0  0  0  0  0
  -10.3150   10.8505    2.3011 C   0  0  0  0  0  0  0  0  0  0  0  0
   -9.8129   11.6724    3.0371 O   0  0  0  0  0  0  0  0  0  0  0  0
  -11.8000   10.6459    2.1054 C   0  0  0  0  0  0  0  0  0  0  0  0
  -12.6840   11.2404    3.2139 C   0  0  0  0  0  0  0  0  0  0  0  0
  -12.8897   12.7602    3.1666 C   0  0  0  0  0  0  0  0  0  0  0  0
  -13.9755   13.2563    3.0167 O   0  0  0  0  0  0  0  0  0  0  0  0
  -11.7905   13.5107    3.3147 O   0  0  0  0  0  0  0  0  0  0  0  0
   -7.4520   11.1611    1.3965 C   0  0  0  0  0  0  0  0  0  0  0  0
   -6.0668   11.0474    1.2792 C   0  0  0  0  0  0  0  0  0  0  0  0
   -0.4484    5.1796   -4.8034 C   0  0  0  0  0  0  0  0  0  0  0  0
    0.1533    5.1998   -6.0636 C   0  0  0  0  0  0  0  0  0  0  0  0
    1.1584    6.1207   -6.3610 C   0  0  0  0  0  0  0  0  0  0  0  0
    1.7765    6.1903   -7.5589 O   0  0  0  0  0  0  0  0  0  0  0  0
    3.7908    9.4439   -5.3341 H   0  0  0  0  0  0  0  0  0  0  0  0
    3.4553    8.3922   -3.9215 H   0  0  0  0  0  0  0  0  0  0  0  0
    2.2087    9.5509   -4.4971 H   0  0  0  0  0  0  0  0  0  0  0  0
    1.2811    7.7308   -3.3489 H   0  0  0  0  0  0  0  0  0  0  0  0
   -1.4951    5.2751   -2.3968 H   0  0  0  0  0  0  0  0  0  0  0  0
    0.2973    7.5666   -1.3988 H   0  0  0  0  0  0  0  0  0  0  0  0
    0.1712    7.7647    1.0171 H   0  0  0  0  0  0  0  0  0  0  0  0
   -1.1547    6.9508    1.9302 H   0  0  0  0  0  0  0  0  0  0  0  0
   -3.5656    7.6419    1.1579 H   0  0  0  0  0  0  0  0  0  0  0  0
   -3.4559   10.7177    1.0509 H   0  0  0  0  0  0  0  0  0  0  0  0
   -5.7633    7.6487    1.3191 H   0  0  0  0  0  0  0  0  0  0  0  0
   -8.2328    7.8427    1.5250 H   0  0  0  0  0  0  0  0  0  0  0  0
  -11.9742    9.5629    2.0127 H   0  0  0  0  0  0  0  0  0  0  0  0
  -12.0617   11.0669    1.1175 H   0  0  0  0  0  0  0  0  0  0  0  0
  -12.2713   10.9664    4.2001 H   0  0  0  0  0  0  0  0  0  0  0  0
  -13.6871   10.8017    3.1410 H   0  0  0  0  0  0  0  0  0  0  0  0
  -10.9914   12.9466    3.4008 H   0  0  0  0  0  0  0  0  0  0  0  0
   -7.9258   12.1411    1.4204 H   0  0  0  0  0  0  0  0  0  0  0  0
   -5.4646   11.9564    1.2060 H   0  0  0  0  0  0  0  0  0  0  0  0
   -1.2340    4.4510   -4.5909 H   0  0  0  0  0  0  0  0  0  0  0  0
   -0.1605    4.4893   -6.8348 H   0  0  0  0  0  0  0  0  0  0  0  0
    1.4116    5.5156   -8.1471 H   0  0  0  0  0  0  0  0  0  0  0  0
  1  2  1  0
  1 33  1  0
  1 34  1  0
  1 35  1  0
  2  3  1  0
  3  4  2  0
  3 31  1  0
  4  5  1  0
  4 36  1  0
  5  6  1  0
  5 29  2  0
  6  7  2  0
  6 37  1  0
  7  8  1  0
  7 38  1  0
  8  9  2  0
  8 10  1  0
 10 11  1  0
 10 39  1  0
 10 40  1  0
 11 12  2  0
 11 13  1  0
 13 14  2  0
 13 41  1  0
 14 15  1  0
 14 42  1  0
 15 16  2  0
 15 28  1  0
 16 17  1  0
 16 43  1  0
 17 18  2  0
 17 44  1  0
 18 19  1  0
 18 27  1  0
 19 20  1  0
 20 21  2  0
 20 22  1  0
 22 23  1  0
 22 45  1  0
 22 46  1  0
 23 24  1  0
 23 47  1  0
 23 48  1  0
 24 25  2  0
 24 26  1  0
 26 49  1  0
 27 28  2  0
 27 50  1  0
 28 51  1  0
 29 30  1  0
 29 52  1  0
 30 31  2  0
 30 53  1  0
 31 32  1  0
 32 54  1  0
M  END

