
     RDKit          3D

 60 62  0  0  0  0  0  0  0  0999 V2000
    1.1360    2.2527    1.7443 C   0  0  0  0  0  0  0  0  0  0  0  0
    2.5682    2.2993    1.2086 C   0  0  1  0  0  0  0  0  0  0  0  0
    2.6690    2.6876   -0.2623 C   0  0  0  0  0  0  0  0  0  0  0  0
    3.5053    3.4829    2.2452 S   0  0  1  0  0  0  0  0  0  0  0  0
    3.2475    4.8598    1.8150 O   0  0  0  0  0  0  0  0  0  0  0  0
    3.3734    3.0941    3.6447 O   0  0  0  0  0  0  0  0  0  0  0  0
    5.1444    3.2377    1.7445 N   0  0  0  0  0  0  0  0  0  0  0  0
    5.8758    2.0843    1.9578 C   0  0  0  0  0  0  0  0  0  0  0  0
    5.3637    1.0251    2.2474 O   0  0  0  0  0  0  0  0  0  0  0  0
    7.3899    2.2071    1.7162 C   0  0  0  0  0  0  0  0  0  0  0  0
    8.0060    3.5719    1.9149 C   0  0  0  0  0  0  0  0  0  0  0  0
    8.1758    4.4434    0.8320 C   0  0  0  0  0  0  0  0  0  0  0  0
    8.7126    5.7250    1.0210 C   0  0  0  0  0  0  0  0  0  0  0  0
    8.8849    6.4775   -0.1098 O   0  0  0  0  0  0  0  0  0  0  0  0
    8.9826    7.8583   -0.0645 C   0  0  0  0  0  0  0  0  0  0  0  0
    8.0093    8.6514    0.5430 C   0  0  0  0  0  0  0  0  0  0  0  0
    8.1234   10.0427    0.5290 C   0  0  0  0  0  0  0  0  0  0  0  0
    9.2207   10.6055   -0.1282 C   0  0  0  0  0  0  0  0  0  0  0  0
    9.4176   12.4009   -0.1495 S   0  0  1  0  0  0  0  0  0  0  0  0
    8.8531   12.9187    1.1052 O   0  0  0  0  0  0  0  0  0  0  0  0
   10.8063   12.6800   -0.5491 O   0  0  0  0  0  0  0  0  0  0  0  0
    8.3497   12.9725   -1.4899 C   0  0  0  0  0  0  0  0  0  0  0  0
    7.0678   13.4371   -1.1847 C   0  0  0  0  0  0  0  0  0  0  0  0
    6.2520   13.8997   -2.2210 C   0  0  0  0  0  0  0  0  0  0  0  0
    6.7233   13.9011   -3.5380 C   0  0  0  0  0  0  0  0  0  0  0  0
    8.0163   13.4492   -3.8257 C   0  0  0  0  0  0  0  0  0  0  0  0
    8.8416   12.9860   -2.7985 C   0  0  0  0  0  0  0  0  0  0  0  0
   10.1989    9.8272   -0.7432 C   0  0  0  0  0  0  0  0  0  0  0  0
   10.0976    8.4232   -0.7293 C   0  0  0  0  0  0  0  0  0  0  0  0
   11.0096    7.6137   -1.3635 N   0  0  0  0  0  0  0  0  0  0  0  0
    9.0881    6.1518    2.2981 C   0  0  0  0  0  0  0  0  0  0  0  0
    8.9189    5.2774    3.3776 C   0  0  0  0  0  0  0  0  0  0  0  0
    9.3925    5.7098    4.7476 C   0  0  1  0  0  0  0  0  0  0  0  0
    9.2201    7.0278    4.9388 F   0  0  0  0  0  0  0  0  0  0  0  0
    8.7422    5.0650    5.7283 F   0  0  0  0  0  0  0  0  0  0  0  0
   10.7054    5.4565    4.9083 F   0  0  0  0  0  0  0  0  0  0  0  0
    8.3796    4.0019    3.1985 C   0  0  0  0  0  0  0  0  0  0  0  0
    0.5664    1.4999    1.1776 H   0  0  0  0  0  0  0  0  0  0  0  0
    0.6352    3.2258    1.6223 H   0  0  0  0  0  0  0  0  0  0  0  0
    1.1177    1.9771    2.8075 H   0  0  0  0  0  0  0  0  0  0  0  0
    3.0895    1.3515    1.4164 H   0  0  0  0  0  0  0  0  0  0  0  0
    2.2215    3.6770   -0.4380 H   0  0  0  0  0  0  0  0  0  0  0  0
    2.1274    1.9458   -0.8701 H   0  0  0  0  0  0  0  0  0  0  0  0
    3.7123    2.7107   -0.6099 H   0  0  0  0  0  0  0  0  0  0  0  0
    5.6140    4.1207    1.5498 H   0  0  0  0  0  0  0  0  0  0  0  0
    7.5620    1.8533    0.6856 H   0  0  0  0  0  0  0  0  0  0  0  0
    7.8456    1.4593    2.3809 H   0  0  0  0  0  0  0  0  0  0  0  0
    7.9057    4.1436   -0.1835 H   0  0  0  0  0  0  0  0  0  0  0  0
    7.1640    8.1709    1.0402 H   0  0  0  0  0  0  0  0  0  0  0  0
    7.3870   10.6730    1.0279 H   0  0  0  0  0  0  0  0  0  0  0  0
    6.7315   13.4491   -0.1464 H   0  0  0  0  0  0  0  0  0  0  0  0
    5.2479   14.2681   -1.9973 H   0  0  0  0  0  0  0  0  0  0  0  0
    6.0824   14.2651   -4.3449 H   0  0  0  0  0  0  0  0  0  0  0  0
    8.3872   13.4668   -4.8535 H   0  0  0  0  0  0  0  0  0  0  0  0
    9.8619   12.6545   -2.9997 H   0  0  0  0  0  0  0  0  0  0  0  0
   11.0531   10.3150   -1.2169 H   0  0  0  0  0  0  0  0  0  0  0  0
   11.9199    7.9975   -1.5806 H   0  0  0  0  0  0  0  0  0  0  0  0
   10.9821    6.6255   -1.1482 H   0  0  0  0  0  0  0  0  0  0  0  0
    9.5041    7.1472    2.4537 H   0  0  0  0  0  0  0  0  0  0  0  0
    8.2468    3.3437    4.0588 H   0  0  0  0  0  0  0  0  0  0  0  0
  1  2  1  0
  1 38  1  0
  1 39  1  0
  1 40  1  0
  2  3  1  0
  2  4  1  0
  2 41  1  6
  3 42  1  0
  3 43  1  0
  3 44  1  0
  4  5  2  0
  4  6  2  0
  4  7  1  6
  7  8  1  0
  7 45  1  0
  8  9  2  0
  8 10  1  0
 10 11  1  0
 10 46  1  0
 10 47  1  0
 11 12  2  0
 11 37  1  0
 12 13  1  0
 12 48  1  0
 13 14  1  0
 13 31  2  0
 14 15  1  0
 15 16  2  0
 15 29  1  0
 16 17  1  0
 16 49  1  0
 17 18  2  0
 17 50  1  0
 19 18  1  1
 18 28  1  0
 19 20  2  0
 19 21  2  0
 19 22  1  0
 22 23  2  0
 22 27  1  0
 23 24  1  0
 23 51  1  0
 24 25  2  0
 24 52  1  0
 25 26  1  0
 25 53  1  0
 26 27  2  0
 26 54  1  0
 27 55  1  0
 28 29  2  0
 28 56  1  0
 29 30  1  0
 30 57  1  0
 30 58  1  0
 31 32  1  0
 31 59  1  0
 32 33  1  0
 32 37  2  0
 33 34  1  1
 33 35  1  0
 33 36  1  0
 37 60  1  0
M  END

