
     RDKit          3D

 74 77  0  0  0  0  0  0  0  0999 V2000
    0.7521   -0.1752    0.3731 C   0  0  0  0  0  0  0  0  0  0  0  0
    2.2482   -0.1241    0.2213 C   0  0  0  0  0  0  0  0  0  0  0  0
    2.9507    1.1182    0.2442 C   0  0  0  0  0  0  0  0  0  0  0  0
    2.2937    2.4157    0.4116 C   0  0  0  0  0  0  0  0  0  0  0  0
    1.0345    2.7117    0.5863 N   0  0  0  0  0  0  0  0  0  0  0  0
    0.9903    4.0872    0.6851 C   0  0  0  0  0  0  0  0  0  0  0  0
    2.2527    4.5811    0.5639 C   0  0  0  0  0  0  0  0  0  0  0  0
    3.0920    3.5238    0.3894 O   0  0  0  0  0  0  0  0  0  0  0  0
    4.3444    1.0935    0.0960 C   0  0  0  0  0  0  0  0  0  0  0  0
    5.0596   -0.0184   -0.0550 N   0  0  0  0  0  0  0  0  0  0  0  0
    4.4148   -1.1766   -0.0651 C   0  0  0  0  0  0  0  0  0  0  0  0
    5.1121   -2.3158   -0.2266 O   0  0  0  0  0  0  0  0  0  0  0  0
    6.5265   -2.2609   -0.4141 C   0  0  0  0  0  0  0  0  0  0  0  0
    7.3002   -2.1120    0.9011 C   0  0  1  0  0  0  0  0  0  0  0  0
    6.9849   -3.2337    1.6952 O   0  0  0  0  0  0  0  0  0  0  0  0
    7.2105   -3.1008    3.1034 C   0  0  1  0  0  0  0  0  0  0  0  0
    6.0695   -2.3356    3.7767 C   0  0  0  0  0  0  0  0  0  0  0  0
    7.3509   -4.5140    3.6550 C   0  0  0  0  0  0  0  0  0  0  0  0
    8.7911   -1.9866    0.6043 C   0  0  0  0  0  0  0  0  0  0  0  0
    9.3641   -0.7285    0.3641 C   0  0  0  0  0  0  0  0  0  0  0  0
   10.7184   -0.6128    0.0393 C   0  0  0  0  0  0  0  0  0  0  0  0
   11.5190   -1.7564   -0.0462 C   0  0  0  0  0  0  0  0  0  0  0  0
   10.9564   -3.0138    0.1936 C   0  0  0  0  0  0  0  0  0  0  0  0
    9.6007   -3.1283    0.5147 C   0  0  0  0  0  0  0  0  0  0  0  0
    3.0093   -1.2948    0.0718 C   0  0  0  0  0  0  0  0  0  0  0  0
    2.3490   -2.6564   -0.0550 C   0  0  0  0  0  0  0  0  0  0  0  0
    1.5060   -2.8673   -0.9200 O   0  0  0  0  0  0  0  0  0  0  0  0
    2.7389   -3.5754    0.8644 N   0  0  0  0  0  0  0  0  0  0  0  0
    2.3022   -4.9701    0.8932 C   0  0  1  0  0  0  0  0  0  0  0  0
    0.7734   -5.0549    1.0929 C   0  0  0  0  0  0  0  0  0  0  0  0
    2.7389   -5.7016   -0.3962 C   0  0  0  0  0  0  0  0  0  0  0  0
    3.0276   -5.5920    2.1193 C   0  0  0  0  0  0  0  0  0  0  0  0
    3.8067   -4.9440    2.8063 O   0  0  0  0  0  0  0  0  0  0  0  0
    2.7482   -6.8991    2.3630 N   0  0  0  0  0  0  0  0  0  0  0  0
    3.2889   -7.6273    3.5052 C   0  0  0  0  0  0  0  0  0  0  0  0
    2.2303   -8.1349    4.4267 C   0  0  0  0  0  0  0  0  0  0  0  0
    1.8658   -7.8346    5.7102 C   0  0  0  0  0  0  0  0  0  0  0  0
    0.7424   -8.6733    6.0200 C   0  0  0  0  0  0  0  0  0  0  0  0
    0.5060   -9.4147    4.8993 C   0  0  0  0  0  0  0  0  0  0  0  0
    1.4024   -9.0992    3.9279 O   0  0  0  0  0  0  0  0  0  0  0  0
    0.4467    0.2978    1.3179 H   0  0  0  0  0  0  0  0  0  0  0  0
    0.3697   -1.1983    0.3166 H   0  0  0  0  0  0  0  0  0  0  0  0
    0.2681    0.4221   -0.4136 H   0  0  0  0  0  0  0  0  0  0  0  0
    0.0576    4.6277    0.8357 H   0  0  0  0  0  0  0  0  0  0  0  0
    2.6980    5.5713    0.5759 H   0  0  0  0  0  0  0  0  0  0  0  0
    4.9037    2.0330    0.1047 H   0  0  0  0  0  0  0  0  0  0  0  0
    6.7871   -1.4374   -1.0926 H   0  0  0  0  0  0  0  0  0  0  0  0
    6.7882   -3.2226   -0.8774 H   0  0  0  0  0  0  0  0  0  0  0  0
    6.9608   -1.1776    1.3812 H   0  0  0  0  0  0  0  0  0  0  0  0
    8.1609   -2.5533    3.2611 H   0  0  0  0  0  0  0  0  0  0  0  0
    5.1290   -2.8988    3.6772 H   0  0  0  0  0  0  0  0  0  0  0  0
    5.9326   -1.3355    3.3358 H   0  0  0  0  0  0  0  0  0  0  0  0
    6.2817   -2.1949    4.8490 H   0  0  0  0  0  0  0  0  0  0  0  0
    6.4296   -5.0795    3.4471 H   0  0  0  0  0  0  0  0  0  0  0  0
    7.5133   -4.4927    4.7442 H   0  0  0  0  0  0  0  0  0  0  0  0
    8.2001   -5.0347    3.1869 H   0  0  0  0  0  0  0  0  0  0  0  0
    8.7410    0.1683    0.4332 H   0  0  0  0  0  0  0  0  0  0  0  0
   11.1519    0.3744   -0.1422 H   0  0  0  0  0  0  0  0  0  0  0  0
   12.5795   -1.6669   -0.2957 H   0  0  0  0  0  0  0  0  0  0  0  0
   11.5775   -3.9115    0.1309 H   0  0  0  0  0  0  0  0  0  0  0  0
    9.1563   -4.1067    0.7103 H   0  0  0  0  0  0  0  0  0  0  0  0
    3.5217   -3.3733    1.4839 H   0  0  0  0  0  0  0  0  0  0  0  0
    0.2752   -4.5357    0.2641 H   0  0  0  0  0  0  0  0  0  0  0  0
    0.4801   -4.5766    2.0399 H   0  0  0  0  0  0  0  0  0  0  0  0
    0.4242   -6.0988    1.1079 H   0  0  0  0  0  0  0  0  0  0  0  0
    2.2784   -5.2065   -1.2618 H   0  0  0  0  0  0  0  0  0  0  0  0
    2.4257   -6.7571   -0.3910 H   0  0  0  0  0  0  0  0  0  0  0  0
    3.8329   -5.6611   -0.5072 H   0  0  0  0  0  0  0  0  0  0  0  0
    2.0644   -7.3753    1.7879 H   0  0  0  0  0  0  0  0  0  0  0  0
    3.9449   -6.9346    4.0465 H   0  0  0  0  0  0  0  0  0  0  0  0
    3.9074   -8.4695    3.1462 H   0  0  0  0  0  0  0  0  0  0  0  0
    2.3421   -7.1005    6.3568 H   0  0  0  0  0  0  0  0  0  0  0  0
    0.1862   -8.7153    6.9542 H   0  0  0  0  0  0  0  0  0  0  0  0
   -0.2265  -10.1771    4.6473 H   0  0  0  0  0  0  0  0  0  0  0  0
  1  2  1  0
  1 41  1  0
  1 42  1  0
  1 43  1  0
  2  3  2  0
  2 25  1  0
  3  4  1  0
  3  9  1  0
  4  5  2  0
  4  8  1  0
  5  6  1  0
  6  7  2  0
  6 44  1  0
  7  8  1  0
  7 45  1  0
  9 10  2  0
  9 46  1  0
 10 11  1  0
 11 12  1  0
 11 25  2  0
 12 13  1  0
 13 14  1  0
 13 47  1  0
 13 48  1  0
 14 15  1  0
 14 19  1  0
 14 49  1  1
 15 16  1  0
 16 17  1  0
 16 18  1  0
 16 50  1  6
 17 51  1  0
 17 52  1  0
 17 53  1  0
 18 54  1  0
 18 55  1  0
 18 56  1  0
 19 20  2  0
 19 24  1  0
 20 21  1  0
 20 57  1  0
 21 22  2  0
 21 58  1  0
 22 23  1  0
 22 59  1  0
 23 24  2  0
 23 60  1  0
 24 61  1  0
 25 26  1  0
 26 27  2  0
 26 28  1  0
 28 29  1  0
 28 62  1  0
 29 30  1  0
 29 31  1  0
 29 32  1  1
 30 63  1  0
 30 64  1  0
 30 65  1  0
 31 66  1  0
 31 67  1  0
 31 68  1  0
 32 33  2  0
 32 34  1  0
 34 35  1  0
 34 69  1  0
 35 36  1  0
 35 70  1  0
 35 71  1  0
 36 37  2  0
 36 40  1  0
 37 38  1  0
 37 72  1  0
 38 39  2  0
 38 73  1  0
 39 40  1  0
 39 74  1  0
M  END

