
     RDKit          3D

 37 39  0  0  0  0  0  0  0  0999 V2000
   -0.3493    0.8936    1.1199 O   0  0  0  0  0  0  0  0  0  0  0  0
    0.9808    0.7888    0.9677 C   0  0  0  0  0  0  0  0  0  0  0  0
    1.8655    1.8809    1.0645 C   0  0  0  0  0  0  0  0  0  0  0  0
    1.0640    3.8127    1.4762 I   0  0  0  0  0  0  0  0  0  0  0  0
    3.2415    1.7284    0.8979 C   0  0  0  0  0  0  0  0  0  0  0  0
    3.7549    0.4534    0.6293 C   0  0  0  0  0  0  0  0  0  0  0  0
    5.8519    0.2096    0.3785 I   0  0  0  0  0  0  0  0  0  0  0  0
    2.9071   -0.6447    0.5287 C   0  0  0  0  0  0  0  0  0  0  0  0
    1.5192   -0.4938    0.6922 C   0  0  0  0  0  0  0  0  0  0  0  0
    0.6005   -1.6352    0.5889 C   0  0  0  0  0  0  0  0  0  0  0  0
    1.0677   -2.7918    0.2719 N   0  0  0  0  0  0  0  0  0  0  0  0
    0.2553   -3.8778    0.1700 N   0  0  0  0  0  0  0  0  0  0  0  0
    0.8172   -5.1157   -0.1371 C   0  0  0  0  0  0  0  0  0  0  0  0
    2.2780   -5.3464   -0.3226 C   0  0  0  0  0  0  0  0  0  0  0  0
    2.9128   -5.2630    0.9378 O   0  0  0  0  0  0  0  0  0  0  0  0
    4.2634   -5.4327    1.0116 C   0  0  0  0  0  0  0  0  0  0  0  0
    5.0867   -5.7209   -0.0867 C   0  0  0  0  0  0  0  0  0  0  0  0
    6.4651   -5.8802    0.1084 C   0  0  0  0  0  0  0  0  0  0  0  0
    7.0287   -5.7573    1.3780 C   0  0  0  0  0  0  0  0  0  0  0  0
    6.1982   -5.4697    2.4700 C   0  0  0  0  0  0  0  0  0  0  0  0
    4.8269   -5.3079    2.2932 C   0  0  0  0  0  0  0  0  0  0  0  0
   -0.0944   -6.0344   -0.2293 N   0  0  0  0  0  0  0  0  0  0  0  0
   -1.2586   -5.3864    0.0157 N   0  0  0  0  0  0  0  0  0  0  0  0
   -2.1457   -5.8764    0.0066 H   0  0  0  0  0  0  0  0  0  0  0  0
   -1.1352   -4.0502    0.2763 C   0  0  0  0  0  0  0  0  0  0  0  0
   -2.3722   -2.9905    0.6081 S   0  0  0  0  0  0  0  0  0  0  0  0
   -0.5908    1.8167    1.3082 H   0  0  0  0  0  0  0  0  0  0  0  0
    3.9030    2.5911    0.9781 H   0  0  0  0  0  0  0  0  0  0  0  0
    3.2915   -1.6449    0.3289 H   0  0  0  0  0  0  0  0  0  0  0  0
   -0.4621   -1.4612    0.7852 H   0  0  0  0  0  0  0  0  0  0  0  0
    2.6901   -4.5930   -1.0168 H   0  0  0  0  0  0  0  0  0  0  0  0
    2.3960   -6.3488   -0.7683 H   0  0  0  0  0  0  0  0  0  0  0  0
    4.6745   -5.8252   -1.0906 H   0  0  0  0  0  0  0  0  0  0  0  0
    7.0996   -6.1046   -0.7530 H   0  0  0  0  0  0  0  0  0  0  0  0
    8.1044   -5.8835    1.5198 H   0  0  0  0  0  0  0  0  0  0  0  0
    6.6251   -5.3697    3.4713 H   0  0  0  0  0  0  0  0  0  0  0  0
    4.1642   -5.0830    3.1313 H   0  0  0  0  0  0  0  0  0  0  0  0
  1  2  1  0
  1 27  1  0
  2  3  2  0
  2  9  1  0
  3  4  1  0
  3  5  1  0
  5  6  2  0
  5 28  1  0
  6  7  1  0
  6  8  1  0
  8  9  2  0
  8 29  1  0
  9 10  1  0
 10 11  2  0
 10 30  1  0
 11 12  1  0
 12 13  1  0
 12 25  1  0
 13 14  1  0
 13 22  2  0
 14 15  1  0
 14 31  1  0
 14 32  1  0
 15 16  1  0
 16 17  2  0
 16 21  1  0
 17 18  1  0
 17 33  1  0
 18 19  2  0
 18 34  1  0
 19 20  1  0
 19 35  1  0
 20 21  2  0
 20 36  1  0
 21 37  1  0
 22 23  1  0
 23 24  1  0
 23 25  1  0
 25 26  2  0
M  END

