
     RDKit          3D

 42 42  0  0  0  0  0  0  0  0999 V2000
    1.9919    1.5067    0.9371 C   0  0  0  0  0  0  0  0  0  0  0  0
    1.9782    0.1188    0.7013 O   0  0  0  0  0  0  0  0  0  0  0  0
    2.8248   -0.6888    1.4039 C   0  0  0  0  0  0  0  0  0  0  0  0
    3.7436   -0.2218    2.3497 C   0  0  0  0  0  0  0  0  0  0  0  0
    4.5694   -1.1262    3.0297 C   0  0  0  0  0  0  0  0  0  0  0  0
    4.4982   -2.5009    2.7906 C   0  0  0  0  0  0  0  0  0  0  0  0
    5.3954   -3.4787    3.5397 C   0  0  1  0  0  0  0  0  0  0  0  0
    4.5872   -4.4511    4.4165 C   0  0  0  0  0  0  0  0  0  0  0  0
    6.3421   -4.2385    2.5944 C   0  0  0  0  0  0  0  0  0  0  0  0
    3.5637   -2.9425    1.8351 C   0  0  0  0  0  0  0  0  0  0  0  0
    2.7253   -2.0747    1.1312 C   0  0  0  0  0  0  0  0  0  0  0  0
    1.7323   -2.5793    0.1089 C   0  0  0  0  0  0  0  0  0  0  0  0
    2.1397   -2.3640   -1.3717 C   0  0  1  0  0  0  0  0  0  0  0  0
    3.4087   -3.1476   -1.7279 C   0  0  0  0  0  0  0  0  0  0  0  0
    0.9937   -2.7320   -2.3318 C   0  0  0  0  0  0  0  0  0  0  0  0
   -0.2372   -1.8249   -2.2805 C   0  0  0  0  0  0  0  0  0  0  0  0
   -1.2379   -2.2648   -3.2495 N   0  0  0  0  0  0  0  0  0  0  0  0
    1.2305    1.9453    0.2777 H   0  0  0  0  0  0  0  0  0  0  0  0
    2.9726    1.9569    0.6977 H   0  0  0  0  0  0  0  0  0  0  0  0
    1.7394    1.7496    1.9854 H   0  0  0  0  0  0  0  0  0  0  0  0
    3.8273    0.8428    2.5690 H   0  0  0  0  0  0  0  0  0  0  0  0
    5.2820   -0.7412    3.7653 H   0  0  0  0  0  0  0  0  0  0  0  0
    6.0247   -2.8740    4.2162 H   0  0  0  0  0  0  0  0  0  0  0  0
    3.9406   -5.1016    3.8044 H   0  0  0  0  0  0  0  0  0  0  0  0
    3.9399   -3.9085    5.1232 H   0  0  0  0  0  0  0  0  0  0  0  0
    5.2574   -5.1045    4.9993 H   0  0  0  0  0  0  0  0  0  0  0  0
    5.7817   -4.8798    1.8941 H   0  0  0  0  0  0  0  0  0  0  0  0
    7.0267   -4.8893    3.1634 H   0  0  0  0  0  0  0  0  0  0  0  0
    6.9512   -3.5437    1.9951 H   0  0  0  0  0  0  0  0  0  0  0  0
    3.4753   -4.0129    1.6263 H   0  0  0  0  0  0  0  0  0  0  0  0
    0.7697   -2.0758    0.2862 H   0  0  0  0  0  0  0  0  0  0  0  0
    1.5647   -3.6580    0.2723 H   0  0  0  0  0  0  0  0  0  0  0  0
    2.3543   -1.2880   -1.4976 H   0  0  0  0  0  0  0  0  0  0  0  0
    3.2370   -4.2355   -1.6479 H   0  0  0  0  0  0  0  0  0  0  0  0
    4.2472   -2.8919   -1.0623 H   0  0  0  0  0  0  0  0  0  0  0  0
    3.7257   -2.9393   -2.7628 H   0  0  0  0  0  0  0  0  0  0  0  0
    0.6693   -3.7733   -2.1550 H   0  0  0  0  0  0  0  0  0  0  0  0
    1.3875   -2.7124   -3.3656 H   0  0  0  0  0  0  0  0  0  0  0  0
    0.0932   -0.7698   -2.4115 H   0  0  0  0  0  0  0  0  0  0  0  0
   -0.6994   -1.8740   -1.2802 H   0  0  0  0  0  0  0  0  0  0  0  0
   -0.8820   -2.1471   -4.1997 H   0  0  0  0  0  0  0  0  0  0  0  0
   -2.0739   -1.6835   -3.1890 H   0  0  0  0  0  0  0  0  0  0  0  0
  1  2  1  0
  1 18  1  0
  1 19  1  0
  1 20  1  0
  2  3  1  0
  3  4  2  0
  3 11  1  0
  4  5  1  0
  4 21  1  0
  5  6  2  0
  5 22  1  0
  6  7  1  0
  6 10  1  0
  7  8  1  0
  7  9  1  0
  7 23  1  1
  8 24  1  0
  8 25  1  0
  8 26  1  0
  9 27  1  0
  9 28  1  0
  9 29  1  0
 10 11  2  0
 10 30  1  0
 11 12  1  0
 12 13  1  0
 12 31  1  0
 12 32  1  0
 13 14  1  0
 13 15  1  0
 13 33  1  1
 14 34  1  0
 14 35  1  0
 14 36  1  0
 15 16  1  0
 15 37  1  0
 15 38  1  0
 16 17  1  0
 16 39  1  0
 16 40  1  0
 17 41  1  0
 17 42  1  0
M  END

