
     RDKit          3D

 42 43  0  0  0  0  0  0  0  0999 V2000
    3.8476   -0.6936    4.3087 C   0  0  0  0  0  0  0  0  0  0  0  0
    4.5436    0.3412    3.5734 N   0  0  0  0  0  0  0  0  0  0  0  0
    4.7609    0.4157    2.2311 C   0  0  0  0  0  0  0  0  0  0  0  0
    5.4803    1.5793    1.9965 C   0  0  0  0  0  0  0  0  0  0  0  0
    5.9802    2.1044    0.6826 C   0  0  0  0  0  0  0  0  0  0  0  0
    5.5412    3.4739    0.4505 N   0  0  0  0  0  0  0  0  0  0  0  0
    6.2341    4.2870   -0.4266 C   0  0  0  0  0  0  0  0  0  0  0  0
    7.2924    3.9314   -0.9287 O   0  0  0  0  0  0  0  0  0  0  0  0
    5.6609    5.5243   -0.6983 N   0  0  0  0  0  0  0  0  0  0  0  0
    6.3797    6.4296   -1.5911 C   0  0  0  0  0  0  0  0  0  0  0  0
    7.1889    7.5039   -0.8567 C   0  0  0  0  0  0  0  0  0  0  0  0
    6.3785    8.3545    0.1392 C   0  0  0  0  0  0  0  0  0  0  0  0
    6.0087    7.6653    1.3638 N   0  0  0  0  0  0  0  0  0  0  0  0
    6.6475    8.0162    2.5914 C   0  0  0  0  0  0  0  0  0  0  0  0
    5.9453    9.1246    3.3757 C   0  0  1  0  0  0  0  0  0  0  0  0
    4.6892    8.7788    3.7170 F   0  0  0  0  0  0  0  0  0  0  0  0
    6.6072    9.4103    4.5114 F   0  0  0  0  0  0  0  0  0  0  0  0
    5.8602   10.2610    2.6594 F   0  0  0  0  0  0  0  0  0  0  0  0
    4.9369    6.6899    1.4210 C   0  0  0  0  0  0  0  0  0  0  0  0
    4.5635    6.1024    0.0566 C   0  0  0  0  0  0  0  0  0  0  0  0
    5.6447    2.1337    3.2944 C   0  0  0  0  0  0  0  0  0  0  0  0
    5.0711    1.3836    4.2302 N   0  0  0  0  0  0  0  0  0  0  0  0
    3.4614   -1.4411    3.6032 H   0  0  0  0  0  0  0  0  0  0  0  0
    3.0079   -0.2607    4.8731 H   0  0  0  0  0  0  0  0  0  0  0  0
    4.5303   -1.1856    5.0183 H   0  0  0  0  0  0  0  0  0  0  0  0
    4.3967   -0.3492    1.5473 H   0  0  0  0  0  0  0  0  0  0  0  0
    5.6554    1.4286   -0.1318 H   0  0  0  0  0  0  0  0  0  0  0  0
    7.0796    2.1157    0.6413 H   0  0  0  0  0  0  0  0  0  0  0  0
    4.5703    3.6705    0.6559 H   0  0  0  0  0  0  0  0  0  0  0  0
    5.6400    6.9132   -2.2564 H   0  0  0  0  0  0  0  0  0  0  0  0
    7.0455    5.8191   -2.2126 H   0  0  0  0  0  0  0  0  0  0  0  0
    7.6355    8.1715   -1.6155 H   0  0  0  0  0  0  0  0  0  0  0  0
    8.0230    7.0238   -0.3174 H   0  0  0  0  0  0  0  0  0  0  0  0
    5.4904    8.7831   -0.3678 H   0  0  0  0  0  0  0  0  0  0  0  0
    6.9766    9.2309    0.4279 H   0  0  0  0  0  0  0  0  0  0  0  0
    7.6793    8.3650    2.4202 H   0  0  0  0  0  0  0  0  0  0  0  0
    6.7134    7.1455    3.2691 H   0  0  0  0  0  0  0  0  0  0  0  0
    4.0021    7.0997    1.8604 H   0  0  0  0  0  0  0  0  0  0  0  0
    5.2458    5.8604    2.0852 H   0  0  0  0  0  0  0  0  0  0  0  0
    4.1062    6.8809   -0.5743 H   0  0  0  0  0  0  0  0  0  0  0  0
    3.7589    5.3661    0.2207 H   0  0  0  0  0  0  0  0  0  0  0  0
    6.1558    3.0560    3.5712 H   0  0  0  0  0  0  0  0  0  0  0  0
  1  2  1  0
  1 23  1  0
  1 24  1  0
  1 25  1  0
  2  3  1  0
  2 22  1  0
  3  4  2  0
  3 26  1  0
  4  5  1  0
  4 21  1  0
  5  6  1  0
  5 27  1  0
  5 28  1  0
  6  7  1  0
  6 29  1  0
  7  8  2  0
  7  9  1  0
  9 10  1  0
  9 20  1  0
 10 11  1  0
 10 30  1  0
 10 31  1  0
 11 12  1  0
 11 32  1  0
 11 33  1  0
 12 13  1  0
 12 34  1  0
 12 35  1  0
 13 14  1  0
 13 19  1  0
 14 15  1  0
 14 36  1  0
 14 37  1  0
 15 16  1  1
 15 17  1  0
 15 18  1  0
 19 20  1  0
 19 38  1  0
 19 39  1  0
 20 40  1  0
 20 41  1  0
 21 22  2  0
 21 42  1  0
M  END

