
     RDKit          3D

 31 31  0  0  0  0  0  0  0  0999 V2000
    1.8347   -1.3977    1.3684 C   0  0  0  0  0  0  0  0  0  0  0  0
    2.6124   -0.5698    0.3445 C   0  0  0  0  0  0  0  0  0  0  0  0
    3.3076   -1.4237   -0.7191 C   0  0  0  0  0  0  0  0  0  0  0  0
    4.0892   -0.6022   -1.7451 C   0  0  0  0  0  0  0  0  0  0  0  0
    4.6387   -1.4541   -2.8906 C   0  0  0  0  0  0  0  0  0  0  0  0
    4.0573   -2.4448   -3.2946 O   0  0  0  0  0  0  0  0  0  0  0  0
    5.8148   -0.9777   -3.4280 N   0  0  0  0  0  0  0  0  0  0  0  0
    6.5605   -1.4621   -4.5215 C   0  0  0  0  0  0  0  0  0  0  0  0
    6.1916   -2.5986   -5.2638 C   0  0  0  0  0  0  0  0  0  0  0  0
    7.0002   -2.9999   -6.3280 C   0  0  0  0  0  0  0  0  0  0  0  0
    8.1605   -2.2998   -6.6682 C   0  0  0  0  0  0  0  0  0  0  0  0
    8.5389   -1.1637   -5.9376 C   0  0  0  0  0  0  0  0  0  0  0  0
    9.7744   -0.3732   -6.2978 C   0  0  0  0  0  0  0  0  0  0  0  0
    7.7290   -0.7616   -4.8682 C   0  0  0  0  0  0  0  0  0  0  0  0
    1.3391   -0.7571    2.1152 H   0  0  0  0  0  0  0  0  0  0  0  0
    2.4994   -2.0900    1.9119 H   0  0  0  0  0  0  0  0  0  0  0  0
    1.0556   -2.0064    0.8801 H   0  0  0  0  0  0  0  0  0  0  0  0
    3.3618    0.0530    0.8672 H   0  0  0  0  0  0  0  0  0  0  0  0
    1.9270    0.1416   -0.1521 H   0  0  0  0  0  0  0  0  0  0  0  0
    2.5689   -2.0368   -1.2604 H   0  0  0  0  0  0  0  0  0  0  0  0
    3.9916   -2.1409   -0.2307 H   0  0  0  0  0  0  0  0  0  0  0  0
    4.9004   -0.0341   -1.2567 H   0  0  0  0  0  0  0  0  0  0  0  0
    3.4201    0.1513   -2.2025 H   0  0  0  0  0  0  0  0  0  0  0  0
    6.1962   -0.1488   -2.9880 H   0  0  0  0  0  0  0  0  0  0  0  0
    5.2905   -3.1440   -4.9955 H   0  0  0  0  0  0  0  0  0  0  0  0
    6.7152   -3.8851   -6.9031 H   0  0  0  0  0  0  0  0  0  0  0  0
    8.7781   -2.6367   -7.5050 H   0  0  0  0  0  0  0  0  0  0  0  0
   10.4264   -0.9354   -6.9825 H   0  0  0  0  0  0  0  0  0  0  0  0
   10.3644   -0.1133   -5.4041 H   0  0  0  0  0  0  0  0  0  0  0  0
    9.5098    0.5751   -6.7973 H   0  0  0  0  0  0  0  0  0  0  0  0
    8.0141    0.1216   -4.2858 H   0  0  0  0  0  0  0  0  0  0  0  0
  1  2  1  0
  1 15  1  0
  1 16  1  0
  1 17  1  0
  2  3  1  0
  2 18  1  0
  2 19  1  0
  3  4  1  0
  3 20  1  0
  3 21  1  0
  4  5  1  0
  4 22  1  0
  4 23  1  0
  5  6  2  0
  5  7  1  0
  7  8  1  0
  7 24  1  0
  8  9  2  0
  8 14  1  0
  9 10  1  0
  9 25  1  0
 10 11  2  0
 10 26  1  0
 11 12  1  0
 11 27  1  0
 12 13  1  0
 12 14  2  0
 13 28  1  0
 13 29  1  0
 13 30  1  0
 14 31  1  0
M  END

