
     RDKit          3D

103107  0  0  0  0  0  0  0  0999 V2000
    3.3986   -6.9352    2.3037 C   0  0  0  0  0  0  0  0  0  0  0  0
    2.0216   -7.5554    2.5574 C   0  0  0  0  0  0  0  0  0  0  0  0
    0.9934   -6.6301    3.2482 C   0  0  1  0  0  0  0  0  0  0  0  0
    0.8275   -5.2795    2.5107 C   0  0  0  0  0  0  0  0  0  0  0  0
    0.2372   -5.3457    1.0939 C   0  0  0  0  0  0  0  0  0  0  0  0
    0.1207   -3.9610    0.4081 C   0  0  1  0  0  0  0  0  0  0  0  0
    1.4816   -3.4500   -0.0890 C   0  0  0  0  0  0  0  0  0  0  0  0
   -1.0678   -3.8659   -0.5988 C   0  0  1  0  0  0  0  0  0  0  0  0
   -1.4165   -2.4052   -0.9800 C   0  0  0  0  0  0  0  0  0  0  0  0
   -0.7510   -2.1308   -2.3393 C   0  0  0  0  0  0  0  0  0  0  0  0
   -0.6148   -3.5017   -3.0590 C   0  0  1  0  0  0  0  0  0  0  0  0
    0.7692   -3.6570   -3.7539 C   0  0  2  0  0  0  0  0  0  0  0  0
    0.7950   -2.7182   -4.9769 C   0  0  0  0  0  0  0  0  0  0  0  0
    2.0527   -2.8224   -5.8546 C   0  0  0  0  0  0  0  0  0  0  0  0
    2.7259   -4.2109   -5.8410 C   0  0  2  0  0  0  0  0  0  0  0  0
    3.5597   -4.4251   -7.1136 C   0  0  0  0  0  0  0  0  0  0  0  0
    4.3207   -5.7515   -7.1267 C   0  0  1  0  0  0  0  0  0  0  0  0
    5.3595   -5.7545   -6.1155 O   0  0  0  0  0  0  0  0  0  0  0  0
    6.5473   -5.1906   -6.4371 C   0  0  0  0  0  0  0  0  0  0  0  0
    6.7662   -4.6664   -7.5092 O   0  0  0  0  0  0  0  0  0  0  0  0
    7.5535   -5.2777   -5.3606 C   0  0  0  0  0  0  0  0  0  0  0  0
    7.3655   -5.9035   -4.1791 C   0  0  0  0  0  0  0  0  0  0  0  0
    8.3216   -6.0363   -3.0798 C   0  0  0  0  0  0  0  0  0  0  0  0
    9.6074   -5.4723   -3.1033 C   0  0  0  0  0  0  0  0  0  0  0  0
   10.4715   -5.6394   -2.0212 C   0  0  0  0  0  0  0  0  0  0  0  0
   10.0874   -6.3677   -0.8916 C   0  0  0  0  0  0  0  0  0  0  0  0
   10.8898   -6.5573    0.1806 O   0  0  0  0  0  0  0  0  0  0  0  0
    8.7923   -6.9462   -0.8473 C   0  0  0  0  0  0  0  0  0  0  0  0
    8.4970   -7.6367    0.2795 O   0  0  0  0  0  0  0  0  0  0  0  0
    7.2335   -8.2483    0.3963 C   0  0  0  0  0  0  0  0  0  0  0  0
    7.9355   -6.7712   -1.9337 C   0  0  0  0  0  0  0  0  0  0  0  0
    3.3917   -6.9219   -6.8181 C   0  0  0  0  0  0  0  0  0  0  0  0
    2.5678   -6.6980   -5.5431 C   0  0  0  0  0  0  0  0  0  0  0  0
    1.7400   -5.3802   -5.5344 C   0  0  2  0  0  0  0  0  0  0  0  0
    0.6081   -5.4988   -6.5789 C   0  0  0  0  0  0  0  0  0  0  0  0
    1.2001   -5.1392   -4.0826 C   0  0  2  0  0  0  0  0  0  0  0  0
    0.1604   -6.1586   -3.5919 C   0  0  0  0  0  0  0  0  0  0  0  0
   -0.1956   -5.8692   -2.1290 C   0  0  0  0  0  0  0  0  0  0  0  0
   -1.0496   -4.5902   -2.0002 C   0  0  1  0  0  0  0  0  0  0  0  0
   -2.5177   -4.9811   -2.3074 C   0  0  0  0  0  0  0  0  0  0  0  0
   -0.3545   -7.3632    3.5164 C   0  0  1  0  0  0  0  0  0  0  0  0
   -0.1786   -8.6143    4.3935 C   0  0  0  0  0  0  0  0  0  0  0  0
   -1.4095   -6.4466    4.1557 C   0  0  0  0  0  0  0  0  0  0  0  0
    4.1056   -7.6951    1.9325 H   0  0  0  0  0  0  0  0  0  0  0  0
    3.8263   -6.5136    3.2293 H   0  0  0  0  0  0  0  0  0  0  0  0
    3.3685   -6.1268    1.5566 H   0  0  0  0  0  0  0  0  0  0  0  0
    2.1641   -8.4512    3.1812 H   0  0  0  0  0  0  0  0  0  0  0  0
    1.6032   -7.9246    1.6033 H   0  0  0  0  0  0  0  0  0  0  0  0
    1.4117   -6.3795    4.2440 H   0  0  0  0  0  0  0  0  0  0  0  0
    1.8127   -4.7869    2.4723 H   0  0  0  0  0  0  0  0  0  0  0  0
    0.2029   -4.6094    3.1241 H   0  0  0  0  0  0  0  0  0  0  0  0
   -0.7664   -5.8010    1.1423 H   0  0  0  0  0  0  0  0  0  0  0  0
    0.8420   -6.0271    0.4750 H   0  0  0  0  0  0  0  0  0  0  0  0
   -0.1862   -3.2658    1.2127 H   0  0  0  0  0  0  0  0  0  0  0  0
    1.8846   -4.0626   -0.9101 H   0  0  0  0  0  0  0  0  0  0  0  0
    2.2245   -3.4674    0.7240 H   0  0  0  0  0  0  0  0  0  0  0  0
    1.4251   -2.4103   -0.4439 H   0  0  0  0  0  0  0  0  0  0  0  0
   -1.9151   -4.2827   -0.0289 H   0  0  0  0  0  0  0  0  0  0  0  0
   -1.1069   -1.6843   -0.2058 H   0  0  0  0  0  0  0  0  0  0  0  0
   -2.5097   -2.3021   -1.0712 H   0  0  0  0  0  0  0  0  0  0  0  0
    0.2491   -1.6915   -2.1926 H   0  0  0  0  0  0  0  0  0  0  0  0
   -1.3219   -1.3992   -2.9319 H   0  0  0  0  0  0  0  0  0  0  0  0
   -1.3581   -3.5478   -3.8725 H   0  0  0  0  0  0  0  0  0  0  0  0
    1.5253   -3.2738   -3.0486 H   0  0  0  0  0  0  0  0  0  0  0  0
    0.6707   -1.6783   -4.6348 H   0  0  0  0  0  0  0  0  0  0  0  0
   -0.0983   -2.9251   -5.5882 H   0  0  0  0  0  0  0  0  0  0  0  0
    1.7832   -2.5499   -6.8899 H   0  0  0  0  0  0  0  0  0  0  0  0
    2.8011   -2.0750   -5.5407 H   0  0  0  0  0  0  0  0  0  0  0  0
    3.4391   -4.2205   -4.9972 H   0  0  0  0  0  0  0  0  0  0  0  0
    4.2736   -3.5969   -7.2459 H   0  0  0  0  0  0  0  0  0  0  0  0
    2.9055   -4.4041   -8.0030 H   0  0  0  0  0  0  0  0  0  0  0  0
    4.8138   -5.8830   -8.1011 H   0  0  0  0  0  0  0  0  0  0  0  0
    8.4957   -4.7900   -5.6204 H   0  0  0  0  0  0  0  0  0  0  0  0
    6.3902   -6.3727   -4.0166 H   0  0  0  0  0  0  0  0  0  0  0  0
    9.9432   -4.8963   -3.9669 H   0  0  0  0  0  0  0  0  0  0  0  0
   11.4719   -5.1955   -2.0472 H   0  0  0  0  0  0  0  0  0  0  0  0
   11.7360   -6.1170    0.0258 H   0  0  0  0  0  0  0  0  0  0  0  0
    7.2174   -8.7479    1.3742 H   0  0  0  0  0  0  0  0  0  0  0  0
    7.0667   -9.0031   -0.3939 H   0  0  0  0  0  0  0  0  0  0  0  0
    6.4125   -7.5090    0.3596 H   0  0  0  0  0  0  0  0  0  0  0  0
    6.9377   -7.2102   -1.9116 H   0  0  0  0  0  0  0  0  0  0  0  0
    3.9874   -7.8448   -6.7276 H   0  0  0  0  0  0  0  0  0  0  0  0
    2.7289   -7.0633   -7.6881 H   0  0  0  0  0  0  0  0  0  0  0  0
    3.2601   -6.6812   -4.6845 H   0  0  0  0  0  0  0  0  0  0  0  0
    1.9024   -7.5630   -5.3899 H   0  0  0  0  0  0  0  0  0  0  0  0
    1.0005   -5.5544   -7.6055 H   0  0  0  0  0  0  0  0  0  0  0  0
   -0.0917   -4.6534   -6.5492 H   0  0  0  0  0  0  0  0  0  0  0  0
    0.0195   -6.4150   -6.4139 H   0  0  0  0  0  0  0  0  0  0  0  0
    2.0861   -5.3200   -3.4483 H   0  0  0  0  0  0  0  0  0  0  0  0
    0.5680   -7.1780   -3.6784 H   0  0  0  0  0  0  0  0  0  0  0  0
   -0.7479   -6.1373   -4.2166 H   0  0  0  0  0  0  0  0  0  0  0  0
    0.7471   -5.7732   -1.5725 H   0  0  0  0  0  0  0  0  0  0  0  0
   -0.7314   -6.7216   -1.6786 H   0  0  0  0  0  0  0  0  0  0  0  0
   -2.8951   -5.7021   -1.5640 H   0  0  0  0  0  0  0  0  0  0  0  0
   -2.6103   -5.4460   -3.3017 H   0  0  0  0  0  0  0  0  0  0  0  0
   -3.1865   -4.1064   -2.2960 H   0  0  0  0  0  0  0  0  0  0  0  0
   -0.7528   -7.7009    2.5408 H   0  0  0  0  0  0  0  0  0  0  0  0
    0.2768   -8.3546    5.3654 H   0  0  0  0  0  0  0  0  0  0  0  0
    0.4527   -9.3818    3.9228 H   0  0  0  0  0  0  0  0  0  0  0  0
   -1.1544   -9.0818    4.6020 H   0  0  0  0  0  0  0  0  0  0  0  0
   -1.0399   -6.0179    5.1036 H   0  0  0  0  0  0  0  0  0  0  0  0
   -2.3262   -7.0128    4.3865 H   0  0  0  0  0  0  0  0  0  0  0  0
   -1.7002   -5.6106    3.5029 H   0  0  0  0  0  0  0  0  0  0  0  0
  1  2  1  0
  1 44  1  0
  1 45  1  0
  1 46  1  0
  2  3  1  0
  2 47  1  0
  2 48  1  0
  3  4  1  0
  3 41  1  0
  3 49  1  1
  4  5  1  0
  4 50  1  0
  4 51  1  0
  5  6  1  0
  5 52  1  0
  5 53  1  0
  6  7  1  0
  6  8  1  0
  6 54  1  1
  7 55  1  0
  7 56  1  0
  7 57  1  0
  8  9  1  0
  8 39  1  0
  8 58  1  1
  9 10  1  0
  9 59  1  0
  9 60  1  0
 10 11  1  0
 10 61  1  0
 10 62  1  0
 11 12  1  0
 11 39  1  0
 11 63  1  6
 12 13  1  0
 12 36  1  0
 12 64  1  1
 13 14  1  0
 13 65  1  0
 13 66  1  0
 14 15  1  0
 14 67  1  0
 14 68  1  0
 15 16  1  0
 15 34  1  0
 15 69  1  1
 16 17  1  0
 16 70  1  0
 16 71  1  0
 17 18  1  0
 17 32  1  0
 17 72  1  6
 18 19  1  0
 19 20  2  0
 19 21  1  0
 21 22  2  0
 21 73  1  0
 22 23  1  0
 22 74  1  0
 23 24  2  0
 23 31  1  0
 24 25  1  0
 24 75  1  0
 25 26  2  0
 25 76  1  0
 26 27  1  0
 26 28  1  0
 27 77  1  0
 28 29  1  0
 28 31  2  0
 29 30  1  0
 30 78  1  0
 30 79  1  0
 30 80  1  0
 31 81  1  0
 32 33  1  0
 32 82  1  0
 32 83  1  0
 33 34  1  0
 33 84  1  0
 33 85  1  0
 34 35  1  6
 34 36  1  0
 35 86  1  0
 35 87  1  0
 35 88  1  0
 36 37  1  0
 36 89  1  1
 37 38  1  0
 37 90  1  0
 37 91  1  0
 38 39  1  0
 38 92  1  0
 38 93  1  0
 39 40  1  6
 40 94  1  0
 40 95  1  0
 40 96  1  0
 41 42  1  0
 41 43  1  0
 41 97  1  6
 42 98  1  0
 42 99  1  0
 42100  1  0
 43101  1  0
 43102  1  0
 43103  1  0
M  END

