
     RDKit          3D

 35 35  0  0  0  0  0  0  0  0999 V2000
    3.4877    0.6240    0.9439 C   0  0  0  0  0  0  0  0  0  0  0  0
    2.5143    0.1897   -0.1571 C   0  0  1  0  0  0  0  0  0  0  0  0
    1.0795    0.6487    0.1139 C   0  0  0  0  0  0  0  0  0  0  0  0
    2.9681    0.6654   -1.4673 N   0  0  0  0  0  0  0  0  0  0  0  0
    2.9237    1.9831   -1.7680 N   0  0  0  0  0  0  0  0  0  0  0  0
    3.3884    2.1062   -3.0103 C   0  0  0  0  0  0  0  0  0  0  0  0
    3.4902    3.4326   -3.7047 C   0  0  0  0  0  0  0  0  0  0  0  0
    2.1949    3.9780   -4.3825 C   0  0  1  0  0  0  0  0  0  0  0  0
    1.1331    4.3091   -3.3190 C   0  0  0  0  0  0  0  0  0  0  0  0
    2.5723    5.2643   -5.1404 C   0  0  0  0  0  0  0  0  0  0  0  0
    1.6272    2.9505   -5.3781 C   0  0  0  0  0  0  0  0  0  0  0  0
    3.7673    0.8291   -3.5007 C   0  0  0  0  0  0  0  0  0  0  0  0
    4.4675    0.4128   -5.0357 Cl  0  0  0  0  0  0  0  0  0  0  0  0
    3.4957   -0.0774   -2.4808 C   0  0  0  0  0  0  0  0  0  0  0  0
    3.6140   -1.4646   -2.4407 N   0  0  0  0  0  0  0  0  0  0  0  0
    3.1604    0.2414    1.9233 H   0  0  0  0  0  0  0  0  0  0  0  0
    3.5351    1.7225    0.9939 H   0  0  0  0  0  0  0  0  0  0  0  0
    4.5046    0.2478    0.7496 H   0  0  0  0  0  0  0  0  0  0  0  0
    2.5204   -0.9088   -0.2398 H   0  0  0  0  0  0  0  0  0  0  0  0
    1.0281    1.7461    0.1598 H   0  0  0  0  0  0  0  0  0  0  0  0
    0.7264    0.2382    1.0728 H   0  0  0  0  0  0  0  0  0  0  0  0
    0.4007    0.3046   -0.6811 H   0  0  0  0  0  0  0  0  0  0  0  0
    4.2751    3.3523   -4.4744 H   0  0  0  0  0  0  0  0  0  0  0  0
    3.8353    4.1793   -2.9708 H   0  0  0  0  0  0  0  0  0  0  0  0
    1.4964    5.0829   -2.6226 H   0  0  0  0  0  0  0  0  0  0  0  0
    0.8745    3.4234   -2.7202 H   0  0  0  0  0  0  0  0  0  0  0  0
    0.2127    4.6882   -3.7937 H   0  0  0  0  0  0  0  0  0  0  0  0
    3.0064    6.0161   -4.4604 H   0  0  0  0  0  0  0  0  0  0  0  0
    1.6867    5.7159   -5.6169 H   0  0  0  0  0  0  0  0  0  0  0  0
    3.3122    5.0608   -5.9322 H   0  0  0  0  0  0  0  0  0  0  0  0
    1.3063    2.0288   -4.8678 H   0  0  0  0  0  0  0  0  0  0  0  0
    2.3752    2.6675   -6.1364 H   0  0  0  0  0  0  0  0  0  0  0  0
    0.7512    3.3642   -5.9044 H   0  0  0  0  0  0  0  0  0  0  0  0
    3.9129   -1.8257   -3.3440 H   0  0  0  0  0  0  0  0  0  0  0  0
    4.2488   -1.8051   -1.7196 H   0  0  0  0  0  0  0  0  0  0  0  0
  1  2  1  0
  1 16  1  0
  1 17  1  0
  1 18  1  0
  2  3  1  0
  2  4  1  0
  2 19  1  6
  3 20  1  0
  3 21  1  0
  3 22  1  0
  4  5  1  0
  4 14  1  0
  5  6  2  0
  6  7  1  0
  6 12  1  0
  8  7  1  1
  7 23  1  0
  7 24  1  0
  8  9  1  0
  8 10  1  0
  8 11  1  0
  9 25  1  0
  9 26  1  0
  9 27  1  0
 10 28  1  0
 10 29  1  0
 10 30  1  0
 11 31  1  0
 11 32  1  0
 11 33  1  0
 12 13  1  0
 12 14  2  0
 14 15  1  0
 15 34  1  0
 15 35  1  0
M  END

