
     RDKit          3D

 55 58  0  0  0  0  0  0  0  0999 V2000
    6.8431   -5.4015   -3.5307 C   0  0  0  0  0  0  0  0  0  0  0  0
    7.6582   -4.2699   -2.9565 C   0  0  0  0  0  0  0  0  0  0  0  0
    7.0510   -3.1785   -2.3235 C   0  0  0  0  0  0  0  0  0  0  0  0
    7.8267   -2.1475   -1.7917 C   0  0  0  0  0  0  0  0  0  0  0  0
    9.2192   -2.1972   -1.8926 C   0  0  0  0  0  0  0  0  0  0  0  0
   10.1266   -0.8432   -1.1353 S   0  0  1  0  0  0  0  0  0  0  0  0
    9.1293    0.0877   -0.5862 O   0  0  0  0  0  0  0  0  0  0  0  0
   11.1904   -1.3836   -0.2804 O   0  0  0  0  0  0  0  0  0  0  0  0
   10.9261   -0.1012   -2.4207 N   0  0  0  0  0  0  0  0  0  0  0  0
   10.3546    1.0812   -3.0609 C   0  0  0  0  0  0  0  0  0  0  0  0
   10.5130    2.3838   -2.2629 C   0  0  0  0  0  0  0  0  0  0  0  0
   11.9058    2.6856   -1.9867 N   0  0  0  0  0  0  0  0  0  0  0  0
   12.7135    3.0258   -3.0013 N   0  0  0  0  0  0  0  0  0  0  0  0
   13.9316    3.1761   -2.4664 C   0  0  0  0  0  0  0  0  0  0  0  0
   15.0701    3.5720   -3.3132 C   0  0  0  0  0  0  0  0  0  0  0  0
   14.8967    3.7936   -4.6951 C   0  0  0  0  0  0  0  0  0  0  0  0
   15.9970    4.1683   -5.4593 C   0  0  0  0  0  0  0  0  0  0  0  0
   17.2405    4.3130   -4.8343 C   0  0  0  0  0  0  0  0  0  0  0  0
   17.3131    4.0713   -3.4604 C   0  0  0  0  0  0  0  0  0  0  0  0
   16.2655    3.7130   -2.7169 N   0  0  0  0  0  0  0  0  0  0  0  0
   13.9053    2.9106   -1.0643 C   0  0  0  0  0  0  0  0  0  0  0  0
   12.5794    2.6022   -0.7959 C   0  0  0  0  0  0  0  0  0  0  0  0
   12.0133    2.2428    0.5455 C   0  0  0  0  0  0  0  0  0  0  0  0
   13.0257    2.6283    1.6412 C   0  0  0  0  0  0  0  0  0  0  0  0
   14.4581    2.2152    1.2713 C   0  0  0  0  0  0  0  0  0  0  0  0
   14.9633    2.9276    0.0036 C   0  0  0  0  0  0  0  0  0  0  0  0
    9.8760   -3.2823   -2.5173 C   0  0  0  0  0  0  0  0  0  0  0  0
   11.3749   -3.3803   -2.6400 C   0  0  0  0  0  0  0  0  0  0  0  0
    9.0609   -4.2943   -3.0387 C   0  0  0  0  0  0  0  0  0  0  0  0
    5.7642   -5.2022   -3.4581 H   0  0  0  0  0  0  0  0  0  0  0  0
    7.0481   -6.3460   -2.9991 H   0  0  0  0  0  0  0  0  0  0  0  0
    7.0880   -5.5716   -4.5920 H   0  0  0  0  0  0  0  0  0  0  0  0
    5.9622   -3.1310   -2.2409 H   0  0  0  0  0  0  0  0  0  0  0  0
    7.3630   -1.2968   -1.2909 H   0  0  0  0  0  0  0  0  0  0  0  0
   11.9209   -0.0449   -2.2018 H   0  0  0  0  0  0  0  0  0  0  0  0
    9.2861    0.8990   -3.2512 H   0  0  0  0  0  0  0  0  0  0  0  0
   10.8493    1.1945   -4.0378 H   0  0  0  0  0  0  0  0  0  0  0  0
    9.9776    2.3024   -1.3090 H   0  0  0  0  0  0  0  0  0  0  0  0
   10.0813    3.2164   -2.8411 H   0  0  0  0  0  0  0  0  0  0  0  0
   13.9058    3.6692   -5.1327 H   0  0  0  0  0  0  0  0  0  0  0  0
   15.8889    4.3474   -6.5326 H   0  0  0  0  0  0  0  0  0  0  0  0
   18.1312    4.6062   -5.3945 H   0  0  0  0  0  0  0  0  0  0  0  0
   18.2697    4.1744   -2.9334 H   0  0  0  0  0  0  0  0  0  0  0  0
   11.7988    1.1603    0.5921 H   0  0  0  0  0  0  0  0  0  0  0  0
   11.0485    2.7488    0.7196 H   0  0  0  0  0  0  0  0  0  0  0  0
   12.7251    2.1651    2.5943 H   0  0  0  0  0  0  0  0  0  0  0  0
   12.9942    3.7217    1.7974 H   0  0  0  0  0  0  0  0  0  0  0  0
   14.4838    1.1217    1.1122 H   0  0  0  0  0  0  0  0  0  0  0  0
   15.1393    2.4232    2.1124 H   0  0  0  0  0  0  0  0  0  0  0  0
   15.8904    2.4684   -0.3689 H   0  0  0  0  0  0  0  0  0  0  0  0
   15.2379    3.9728    0.2371 H   0  0  0  0  0  0  0  0  0  0  0  0
   11.8551   -3.3422   -1.6514 H   0  0  0  0  0  0  0  0  0  0  0  0
   11.7748   -2.5341   -3.2210 H   0  0  0  0  0  0  0  0  0  0  0  0
   11.6635   -4.3134   -3.1436 H   0  0  0  0  0  0  0  0  0  0  0  0
    9.5459   -5.1435   -3.5297 H   0  0  0  0  0  0  0  0  0  0  0  0
  1  2  1  0
  1 30  1  0
  1 31  1  0
  1 32  1  0
  2  3  2  0
  2 29  1  0
  3  4  1  0
  3 33  1  0
  4  5  2  0
  4 34  1  0
  5  6  1  0
  5 27  1  0
  6  7  2  0
  6  8  2  0
  6  9  1  6
  9 10  1  0
  9 35  1  0
 10 11  1  0
 10 36  1  0
 10 37  1  0
 11 12  1  0
 11 38  1  0
 11 39  1  0
 12 13  1  0
 12 22  1  0
 13 14  2  0
 14 15  1  0
 14 21  1  0
 15 16  2  0
 15 20  1  0
 16 17  1  0
 16 40  1  0
 17 18  2  0
 17 41  1  0
 18 19  1  0
 18 42  1  0
 19 20  2  0
 19 43  1  0
 21 22  2  0
 21 26  1  0
 22 23  1  0
 23 24  1  0
 23 44  1  0
 23 45  1  0
 24 25  1  0
 24 46  1  0
 24 47  1  0
 25 26  1  0
 25 48  1  0
 25 49  1  0
 26 50  1  0
 26 51  1  0
 27 28  1  0
 27 29  2  0
 28 52  1  0
 28 53  1  0
 28 54  1  0
 29 55  1  0
M  END

