
     RDKit          3D

 36 37  0  0  0  0  0  0  0  0999 V2000
    1.9999   -1.8627    1.9162 N   0  0  0  0  0  0  0  0  0  0  0  0
    2.4164   -0.9796    1.3351 N   0  0  0  0  0  0  0  0  0  0  0  0
    2.7228   -0.0092    0.6427 N   0  0  0  0  0  0  0  0  0  0  0  0
    4.1272    0.4270    0.6505 C   0  0  1  0  0  0  0  0  0  0  0  0
    4.3601    1.3254   -0.5936 C   0  0  0  0  0  0  0  0  0  0  0  0
    4.5542    2.6985   -0.0701 N   0  0  0  0  0  0  0  0  0  0  0  0
    5.9967    3.4839   -0.4094 S   0  0  1  0  0  0  0  0  0  0  0  0
    6.5567    4.0378    0.8340 O   0  0  0  0  0  0  0  0  0  0  0  0
    6.8144    2.5969   -1.2422 O   0  0  0  0  0  0  0  0  0  0  0  0
    5.5913    4.8911   -1.4913 C   0  0  0  0  0  0  0  0  0  0  0  0
    5.8670    4.7045   -2.8500 C   0  0  0  0  0  0  0  0  0  0  0  0
    5.7053    5.7513   -3.7619 C   0  0  0  0  0  0  0  0  0  0  0  0
    5.3051    7.0127   -3.3184 C   0  0  0  0  0  0  0  0  0  0  0  0
    5.0560    7.2225   -1.9615 C   0  0  0  0  0  0  0  0  0  0  0  0
    5.1795    6.1637   -1.0620 C   0  0  0  0  0  0  0  0  0  0  0  0
    4.8137    6.4596    0.3368 N   0  0  0  0  0  0  0  0  0  0  0  0
    4.1319    5.6309    0.9150 O   0  0  0  0  0  0  0  0  0  0  0  0
    5.1700    7.5292    0.7913 O   0  0  0  0  0  0  0  0  0  0  0  0
    4.0348    2.7285    1.3139 C   0  0  0  0  0  0  0  0  0  0  0  0
    4.4268    1.3584    1.8652 C   0  0  2  0  0  0  0  0  0  0  0  0
    5.8389    1.3595    2.2098 N   0  0  0  0  0  0  0  0  0  0  0  0
    6.4160    0.2494    2.7747 C   0  0  0  0  0  0  0  0  0  0  0  0
    5.8170   -0.7788    2.9835 O   0  0  0  0  0  0  0  0  0  0  0  0
    7.7284    0.3720    3.0863 O   0  0  0  0  0  0  0  0  0  0  0  0
    4.7982   -0.4438    0.6714 H   0  0  0  0  0  0  0  0  0  0  0  0
    3.4687    1.2911   -1.2368 H   0  0  0  0  0  0  0  0  0  0  0  0
    5.2355    1.0156   -1.1747 H   0  0  0  0  0  0  0  0  0  0  0  0
    6.2368    3.7325   -3.1775 H   0  0  0  0  0  0  0  0  0  0  0  0
    5.9149    5.5791   -4.8199 H   0  0  0  0  0  0  0  0  0  0  0  0
    5.1927    7.8390   -4.0235 H   0  0  0  0  0  0  0  0  0  0  0  0
    4.7591    8.1999   -1.5799 H   0  0  0  0  0  0  0  0  0  0  0  0
    2.9395    2.8224    1.2736 H   0  0  0  0  0  0  0  0  0  0  0  0
    4.4347    3.5770    1.8754 H   0  0  0  0  0  0  0  0  0  0  0  0
    3.8231    1.0558    2.7350 H   0  0  0  0  0  0  0  0  0  0  0  0
    6.3593    2.2228    2.0699 H   0  0  0  0  0  0  0  0  0  0  0  0
    8.0793    1.2393    2.8389 H   0  0  0  0  0  0  0  0  0  0  0  0
  1  2  1  0
  2  3  3  0
  3  4  1  0
  4  5  1  0
  4 20  1  0
  4 25  1  6
  5  6  1  0
  5 26  1  0
  5 27  1  0
  6  7  1  0
  6 19  1  0
  7  8  1  1
  7  9  3  0
  7 10  1  0
 10 11  2  0
 10 15  1  0
 11 12  1  0
 11 28  1  0
 12 13  2  0
 12 29  1  0
 13 14  1  0
 13 30  1  0
 14 15  2  0
 14 31  1  0
 15 16  1  0
 16 17  1  0
 16 18  2  0
 19 20  1  0
 19 32  1  0
 19 33  1  0
 20 21  1  0
 20 34  1  1
 21 22  1  0
 21 35  1  0
 22 23  1  0
 22 24  2  0
 24 36  1  0
M  CHG  8   1  -2   2   1   3   1   8  -1   9   1  16   1  17  -1  23  -1
M  CHG  1  24   1
M  END

