
     RDKit          3D

 72 75  0  0  0  0  0  0  0  0999 V2000
    4.0867   -1.3511   -2.8655 C   0  0  0  0  0  0  0  0  0  0  0  0
    2.8746   -0.4521   -2.9228 C   0  0  0  0  0  0  0  0  0  0  0  0
    2.7897    0.5510   -3.8979 C   0  0  0  0  0  0  0  0  0  0  0  0
    1.6786    1.3945   -3.9812 C   0  0  0  0  0  0  0  0  0  0  0  0
    0.6274    1.2362   -3.0786 C   0  0  0  0  0  0  0  0  0  0  0  0
    0.6946    0.2396   -2.1004 C   0  0  0  0  0  0  0  0  0  0  0  0
    1.8049   -0.6050   -2.0086 C   0  0  0  0  0  0  0  0  0  0  0  0
    1.9170   -1.6810   -0.9401 C   0  0  0  0  0  0  0  0  0  0  0  0
    0.7971   -1.8407   -0.0009 N   0  0  0  0  0  0  0  0  0  0  0  0
    0.8142   -1.2033    1.2208 C   0  0  0  0  0  0  0  0  0  0  0  0
    0.0695   -1.5393    2.1331 O   0  0  0  0  0  0  0  0  0  0  0  0
    1.8058   -0.0530    1.4098 C   0  0  0  0  0  0  0  0  0  0  0  0
    1.4561    0.7728    2.6456 C   0  0  0  0  0  0  0  0  0  0  0  0
    2.7519    2.0390    2.8861 S   0  0  0  0  0  0  0  0  0  0  0  0
    2.2463    2.8881    4.3640 C   0  0  0  0  0  0  0  0  0  0  0  0
    1.1097    2.5668    5.1240 C   0  0  0  0  0  0  0  0  0  0  0  0
    0.8053    3.3025    6.2749 C   0  0  0  0  0  0  0  0  0  0  0  0
    1.6194    4.3597    6.6851 C   0  0  0  0  0  0  0  0  0  0  0  0
    2.7528    4.6811    5.9286 C   0  0  0  0  0  0  0  0  0  0  0  0
    3.0654    3.9561    4.7799 C   0  0  0  0  0  0  0  0  0  0  0  0
   -0.1273   -2.9907   -0.1096 C   0  0  1  0  0  0  0  0  0  0  0  0
   -1.6489   -2.6731    0.0977 C   0  0  0  0  0  0  0  0  0  0  0  0
   -2.2365   -1.4475   -0.5693 C   0  0  0  0  0  0  0  0  0  0  0  0
   -2.6595   -1.4582   -1.9089 C   0  0  0  0  0  0  0  0  0  0  0  0
   -3.2327   -0.3226   -2.4864 C   0  0  0  0  0  0  0  0  0  0  0  0
   -3.3963    0.8465   -1.7362 C   0  0  0  0  0  0  0  0  0  0  0  0
   -2.9839    0.8698   -0.4008 C   0  0  0  0  0  0  0  0  0  0  0  0
   -2.4126   -0.2688    0.1760 C   0  0  0  0  0  0  0  0  0  0  0  0
    0.0364   -3.7416   -1.4395 C   0  0  0  0  0  0  0  0  0  0  0  0
   -0.1266   -3.2082   -2.5251 O   0  0  0  0  0  0  0  0  0  0  0  0
    0.3109   -5.0723   -1.2943 N   0  0  0  0  0  0  0  0  0  0  0  0
    0.3877   -6.0019   -2.4056 C   0  0  1  0  0  0  0  0  0  0  0  0
    1.7384   -6.7229   -2.5547 C   0  0  0  0  0  0  0  0  0  0  0  0
    1.4159   -7.8431   -3.5515 C   0  0  0  0  0  0  0  0  0  0  0  0
   -0.0197   -8.3076   -3.1811 C   0  0  0  0  0  0  0  0  0  0  0  0
   -0.6340   -7.1606   -2.3352 C   0  0  0  0  0  0  0  0  0  0  0  0
    4.8137   -1.0868   -3.6468 H   0  0  0  0  0  0  0  0  0  0  0  0
    3.8164   -2.4118   -3.0093 H   0  0  0  0  0  0  0  0  0  0  0  0
    4.6073   -1.2871   -1.8941 H   0  0  0  0  0  0  0  0  0  0  0  0
    3.6144    0.6708   -4.6067 H   0  0  0  0  0  0  0  0  0  0  0  0
    1.6374    2.1695   -4.7509 H   0  0  0  0  0  0  0  0  0  0  0  0
   -0.2535    1.8802   -3.1318 H   0  0  0  0  0  0  0  0  0  0  0  0
   -0.1352    0.1087   -1.4065 H   0  0  0  0  0  0  0  0  0  0  0  0
    2.8354   -1.5060   -0.3580 H   0  0  0  0  0  0  0  0  0  0  0  0
    2.0920   -2.6490   -1.4294 H   0  0  0  0  0  0  0  0  0  0  0  0
    1.8399    0.5807    0.5108 H   0  0  0  0  0  0  0  0  0  0  0  0
    2.8193   -0.4776    1.5266 H   0  0  0  0  0  0  0  0  0  0  0  0
    1.3920    0.1193    3.5263 H   0  0  0  0  0  0  0  0  0  0  0  0
    0.4780    1.2605    2.5158 H   0  0  0  0  0  0  0  0  0  0  0  0
    0.4544    1.7461    4.8317 H   0  0  0  0  0  0  0  0  0  0  0  0
   -0.0835    3.0389    6.8545 H   0  0  0  0  0  0  0  0  0  0  0  0
    1.3751    4.9295    7.5847 H   0  0  0  0  0  0  0  0  0  0  0  0
    3.4011    5.5064    6.2349 H   0  0  0  0  0  0  0  0  0  0  0  0
    3.9516    4.2161    4.1946 H   0  0  0  0  0  0  0  0  0  0  0  0
    0.1228   -3.6804    0.7167 H   0  0  0  0  0  0  0  0  0  0  0  0
   -1.8039   -2.5900    1.1790 H   0  0  0  0  0  0  0  0  0  0  0  0
   -2.1911   -3.5728   -0.2390 H   0  0  0  0  0  0  0  0  0  0  0  0
   -2.5211   -2.3584   -2.5096 H   0  0  0  0  0  0  0  0  0  0  0  0
   -3.5537   -0.3517   -3.5311 H   0  0  0  0  0  0  0  0  0  0  0  0
   -3.8487    1.7329   -2.1889 H   0  0  0  0  0  0  0  0  0  0  0  0
   -3.1139    1.7753    0.1982 H   0  0  0  0  0  0  0  0  0  0  0  0
   -2.0988   -0.2520    1.2229 H   0  0  0  0  0  0  0  0  0  0  0  0
    0.4418   -5.4395   -0.3584 H   0  0  0  0  0  0  0  0  0  0  0  0
    0.2042   -5.3943   -3.3045 H   0  0  0  0  0  0  0  0  0  0  0  0
    2.0396   -7.1462   -1.5781 H   0  0  0  0  0  0  0  0  0  0  0  0
    2.5455   -6.0516   -2.8871 H   0  0  0  0  0  0  0  0  0  0  0  0
    2.1498   -8.6629   -3.5304 H   0  0  0  0  0  0  0  0  0  0  0  0
    1.4266   -7.4318   -4.5745 H   0  0  0  0  0  0  0  0  0  0  0  0
    0.0064   -9.2434   -2.6013 H   0  0  0  0  0  0  0  0  0  0  0  0
   -0.6148   -8.5182   -4.0825 H   0  0  0  0  0  0  0  0  0  0  0  0
   -0.7484   -7.4737   -1.2830 H   0  0  0  0  0  0  0  0  0  0  0  0
   -1.6307   -6.8478   -2.6814 H   0  0  0  0  0  0  0  0  0  0  0  0
  1  2  1  0
  1 37  1  0
  1 38  1  0
  1 39  1  0
  2  3  2  0
  2  7  1  0
  3  4  1  0
  3 40  1  0
  4  5  2  0
  4 41  1  0
  5  6  1  0
  5 42  1  0
  6  7  2  0
  6 43  1  0
  7  8  1  0
  8  9  1  0
  8 44  1  0
  8 45  1  0
  9 10  1  0
  9 21  1  0
 10 11  2  0
 10 12  1  0
 12 13  1  0
 12 46  1  0
 12 47  1  0
 13 14  1  0
 13 48  1  0
 13 49  1  0
 14 15  1  0
 15 16  2  0
 15 20  1  0
 16 17  1  0
 16 50  1  0
 17 18  2  0
 17 51  1  0
 18 19  1  0
 18 52  1  0
 19 20  2  0
 19 53  1  0
 20 54  1  0
 21 22  1  0
 21 29  1  0
 21 55  1  1
 22 23  1  0
 22 56  1  0
 22 57  1  0
 23 24  2  0
 23 28  1  0
 24 25  1  0
 24 58  1  0
 25 26  2  0
 25 59  1  0
 26 27  1  0
 26 60  1  0
 27 28  2  0
 27 61  1  0
 28 62  1  0
 29 30  2  0
 29 31  1  0
 31 32  1  0
 31 63  1  0
 32 33  1  0
 32 36  1  0
 32 64  1  6
 33 34  1  0
 33 65  1  0
 33 66  1  0
 34 35  1  0
 34 67  1  0
 34 68  1  0
 35 36  1  0
 35 69  1  0
 35 70  1  0
 36 71  1  0
 36 72  1  0
M  END

