
     RDKit          3D

 41 42  0  0  0  0  0  0  0  0999 V2000
    4.6025    8.0366   -4.9850 C   0  0  0  0  0  0  0  0  0  0  0  0
    4.5616    7.2817   -3.7780 O   0  0  0  0  0  0  0  0  0  0  0  0
    5.1507    6.0628   -3.8270 C   0  0  0  0  0  0  0  0  0  0  0  0
    5.6966    5.6043   -4.8086 O   0  0  0  0  0  0  0  0  0  0  0  0
    5.0345    5.4292   -2.6254 N   0  0  0  0  0  0  0  0  0  0  0  0
    5.6248    4.1252   -2.3988 C   0  0  0  0  0  0  0  0  0  0  0  0
    7.1325    4.1657   -2.1125 C   0  0  0  0  0  0  0  0  0  0  0  0
    7.7190    2.7746   -1.8673 C   0  0  0  0  0  0  0  0  0  0  0  0
    9.2390    2.7765   -1.6666 C   0  0  1  0  0  0  0  0  0  0  0  0
    9.7081    3.4427   -0.4702 N   0  0  0  0  0  0  0  0  0  0  0  0
   10.5092    2.6679    0.3196 C   0  0  0  0  0  0  0  0  0  0  0  0
   11.0820    2.9884    1.3316 O   0  0  0  0  0  0  0  0  0  0  0  0
   10.5437    1.3733   -0.2969 N   0  0  0  0  0  0  0  0  0  0  0  0
   11.2469    0.2537    0.2369 C   0  0  0  0  0  0  0  0  0  0  0  0
   12.4410    0.4322    0.9519 C   0  0  0  0  0  0  0  0  0  0  0  0
   13.1066   -0.6800    1.4744 C   0  0  0  0  0  0  0  0  0  0  0  0
   12.6117   -1.9678    1.2768 C   0  0  0  0  0  0  0  0  0  0  0  0
   11.4360   -2.1516    0.5356 C   0  0  0  0  0  0  0  0  0  0  0  0
   10.9376   -3.5564    0.3284 C   0  0  0  0  0  0  0  0  0  0  0  0
   11.2667   -4.4803    1.0245 O   0  0  0  0  0  0  0  0  0  0  0  0
   10.0857   -3.7438   -0.7047 O   0  0  0  0  0  0  0  0  0  0  0  0
   10.7447   -1.0402    0.0370 C   0  0  0  0  0  0  0  0  0  0  0  0
    9.7926    1.3615   -1.4706 C   0  0  0  0  0  0  0  0  0  0  0  0
    9.5884    0.4194   -2.1996 O   0  0  0  0  0  0  0  0  0  0  0  0
    4.1028    8.9888   -4.7660 H   0  0  0  0  0  0  0  0  0  0  0  0
    4.0766    7.5126   -5.7980 H   0  0  0  0  0  0  0  0  0  0  0  0
    5.6402    8.2180   -5.3045 H   0  0  0  0  0  0  0  0  0  0  0  0
    4.6069    5.9393   -1.8624 H   0  0  0  0  0  0  0  0  0  0  0  0
    5.4453    3.5073   -3.2931 H   0  0  0  0  0  0  0  0  0  0  0  0
    5.0896    3.6488   -1.5613 H   0  0  0  0  0  0  0  0  0  0  0  0
    7.3120    4.8159   -1.2372 H   0  0  0  0  0  0  0  0  0  0  0  0
    7.6319    4.6376   -2.9756 H   0  0  0  0  0  0  0  0  0  0  0  0
    7.5097    2.1153   -2.7259 H   0  0  0  0  0  0  0  0  0  0  0  0
    7.2468    2.3094   -0.9840 H   0  0  0  0  0  0  0  0  0  0  0  0
    9.7194    3.1937   -2.5731 H   0  0  0  0  0  0  0  0  0  0  0  0
    9.6513    4.4385   -0.2985 H   0  0  0  0  0  0  0  0  0  0  0  0
   12.8297    1.4351    1.1166 H   0  0  0  0  0  0  0  0  0  0  0  0
   14.0291   -0.5306    2.0405 H   0  0  0  0  0  0  0  0  0  0  0  0
   13.1197   -2.8455    1.6798 H   0  0  0  0  0  0  0  0  0  0  0  0
   10.0375   -2.9501   -1.2574 H   0  0  0  0  0  0  0  0  0  0  0  0
    9.8092   -1.1605   -0.5063 H   0  0  0  0  0  0  0  0  0  0  0  0
  1  2  1  0
  1 25  1  0
  1 26  1  0
  1 27  1  0
  2  3  1  0
  3  4  2  0
  3  5  1  0
  5  6  1  0
  5 28  1  0
  6  7  1  0
  6 29  1  0
  6 30  1  0
  7  8  1  0
  7 31  1  0
  7 32  1  0
  8  9  1  0
  8 33  1  0
  8 34  1  0
  9 10  1  0
  9 23  1  0
  9 35  1  6
 10 11  1  0
 10 36  1  0
 11 12  2  0
 11 13  1  0
 13 14  1  0
 13 23  1  0
 14 15  2  0
 14 22  1  0
 15 16  1  0
 15 37  1  0
 16 17  2  0
 16 38  1  0
 17 18  1  0
 17 39  1  0
 18 19  1  0
 18 22  2  0
 19 20  2  0
 19 21  1  0
 21 40  1  0
 22 41  1  0
 23 24  2  0
M  END

