
     RDKit          3D

 54 57  0  0  0  0  0  0  0  0999 V2000
    4.0417    2.8916    1.3734 C   0  0  0  0  0  0  0  0  0  0  0  0
    3.0425    1.7536    1.1573 C   0  0  0  0  0  0  0  0  0  0  0  0
    3.0746    1.2002   -0.2062 N   0  0  0  0  0  0  0  0  0  0  0  0
    2.1890    1.8022   -1.1989 C   0  0  0  0  0  0  0  0  0  0  0  0
    0.7623    1.2455   -1.4028 C   0  0  1  0  0  0  0  0  0  0  0  0
   -0.0109    2.1598   -2.4280 C   0  0  0  0  0  0  0  0  0  0  0  0
   -1.5016    1.7502   -2.2764 C   0  0  0  0  0  0  0  0  0  0  0  0
   -1.4452    0.6253   -1.2012 C   0  0  1  0  0  0  0  0  0  0  0  0
   -2.4091    0.3884   -0.7289 H   0  0  0  0  0  0  0  0  0  0  0  0
   -0.7470   -0.5224   -1.8806 C   0  0  0  0  0  0  0  0  0  0  0  0
   -1.1273   -1.7253   -2.4252 C   0  0  0  0  0  0  0  0  0  0  0  0
   -0.1015   -2.4743   -3.0608 C   0  0  0  0  0  0  0  0  0  0  0  0
   -0.3789   -3.8056   -3.6636 C   0  0  0  0  0  0  0  0  0  0  0  0
    0.0827   -4.1609   -4.9443 C   0  0  0  0  0  0  0  0  0  0  0  0
    0.7345   -3.2567   -5.6746 F   0  0  0  0  0  0  0  0  0  0  0  0
   -0.1459   -5.4175   -5.5007 C   0  0  0  0  0  0  0  0  0  0  0  0
   -0.8604   -6.3672   -4.7682 C   0  0  0  0  0  0  0  0  0  0  0  0
   -1.3479   -6.0602   -3.4960 C   0  0  0  0  0  0  0  0  0  0  0  0
   -1.1021   -4.7936   -2.9764 C   0  0  0  0  0  0  0  0  0  0  0  0
   -1.5693   -4.5054   -1.7495 F   0  0  0  0  0  0  0  0  0  0  0  0
    1.1582   -2.0422   -3.1573 N   0  0  0  0  0  0  0  0  0  0  0  0
    1.5106   -0.8626   -2.6443 N   0  0  0  0  0  0  0  0  0  0  0  0
    0.6075   -0.1406   -2.0131 C   0  0  0  0  0  0  0  0  0  0  0  0
   -0.3152    1.1312   -0.2303 C   0  0  1  0  0  0  0  0  0  0  0  0
   -0.0073    0.0857    0.8571 C   0  0  0  0  0  0  0  0  0  0  0  0
   -0.6789    2.4537    0.4617 C   0  0  0  0  0  0  0  0  0  0  0  0
    4.1665    0.3959   -0.4804 C   0  0  0  0  0  0  0  0  0  0  0  0
    4.9003    0.0058    0.4089 O   0  0  0  0  0  0  0  0  0  0  0  0
    4.4423    0.0469   -1.9489 C   0  0  0  0  0  0  0  0  0  0  0  0
    5.5791   -0.8561   -2.1025 C   0  0  0  0  0  0  0  0  0  0  0  0
    6.4724   -1.5704   -2.2828 N   0  0  0  0  0  0  0  0  0  0  0  0
    3.9520    3.2871    2.3981 H   0  0  0  0  0  0  0  0  0  0  0  0
    3.8656    3.7269    0.6753 H   0  0  0  0  0  0  0  0  0  0  0  0
    5.0715    2.5311    1.2386 H   0  0  0  0  0  0  0  0  0  0  0  0
    2.0235    2.1083    1.3526 H   0  0  0  0  0  0  0  0  0  0  0  0
    3.2528    0.9365    1.8606 H   0  0  0  0  0  0  0  0  0  0  0  0
    2.6730    1.7780   -2.1851 H   0  0  0  0  0  0  0  0  0  0  0  0
    2.0888    2.8725   -0.9504 H   0  0  0  0  0  0  0  0  0  0  0  0
    0.3729    2.0091   -3.4476 H   0  0  0  0  0  0  0  0  0  0  0  0
    0.1459    3.2208   -2.1810 H   0  0  0  0  0  0  0  0  0  0  0  0
   -1.9415    1.3889   -3.2168 H   0  0  0  0  0  0  0  0  0  0  0  0
   -2.1234    2.5877   -1.9291 H   0  0  0  0  0  0  0  0  0  0  0  0
   -2.1505   -2.1022   -2.3797 H   0  0  0  0  0  0  0  0  0  0  0  0
    0.2374   -5.6264   -6.5005 H   0  0  0  0  0  0  0  0  0  0  0  0
   -1.0412   -7.3567   -5.1939 H   0  0  0  0  0  0  0  0  0  0  0  0
   -1.9065   -6.7810   -2.8972 H   0  0  0  0  0  0  0  0  0  0  0  0
    0.7756    0.4301    1.5444 H   0  0  0  0  0  0  0  0  0  0  0  0
   -0.9125   -0.0957    1.4597 H   0  0  0  0  0  0  0  0  0  0  0  0
    0.3168   -0.8814    0.4488 H   0  0  0  0  0  0  0  0  0  0  0  0
   -1.5831    2.3140    1.0765 H   0  0  0  0  0  0  0  0  0  0  0  0
   -0.8764    3.2839   -0.2290 H   0  0  0  0  0  0  0  0  0  0  0  0
    0.1208    2.7792    1.1437 H   0  0  0  0  0  0  0  0  0  0  0  0
    4.6570    0.9719   -2.5125 H   0  0  0  0  0  0  0  0  0  0  0  0
    3.5414   -0.4027   -2.4099 H   0  0  0  0  0  0  0  0  0  0  0  0
  1  2  1  0
  1 32  1  0
  1 33  1  0
  1 34  1  0
  2  3  1  0
  2 35  1  0
  2 36  1  0
  3  4  1  0
  3 27  1  0
  5  4  1  1
  4 37  1  0
  4 38  1  0
  5  6  1  0
  5 23  1  0
  5 24  1  0
  6  7  1  0
  6 39  1  0
  6 40  1  0
  7  8  1  0
  7 41  1  0
  7 42  1  0
  8  9  1  1
  8 10  1  0
  8 24  1  0
 10 11  1  0
 10 23  2  0
 11 12  2  0
 11 43  1  0
 12 13  1  0
 12 21  1  0
 13 14  2  0
 13 19  1  0
 14 15  1  0
 14 16  1  0
 16 17  2  0
 16 44  1  0
 17 18  1  0
 17 45  1  0
 18 19  2  0
 18 46  1  0
 19 20  1  0
 21 22  2  0
 22 23  1  0
 24 25  1  1
 24 26  1  0
 25 47  1  0
 25 48  1  0
 25 49  1  0
 26 50  1  0
 26 51  1  0
 26 52  1  0
 27 28  2  0
 27 29  1  0
 29 30  1  0
 29 53  1  0
 29 54  1  0
 30 31  3  0
M  END

