
     RDKit          3D

 27 28  0  0  0  0  0  0  0  0999 V2000
    1.3554   -0.4730   -1.8319 C   0  0  0  0  0  0  0  0  0  0  0  0
    2.7956   -0.2824   -1.3974 C   0  0  0  0  0  0  0  0  0  0  0  0
    2.9443    1.0488   -0.9151 O   0  0  0  0  0  0  0  0  0  0  0  0
    4.2326    1.4135   -0.5094 C   0  0  2  0  0  0  0  0  0  0  0  0
    4.1265    2.7026    0.3387 C   0  0  0  0  0  0  0  0  0  0  0  0
    5.2872    3.6093   -0.1067 C   0  0  0  0  0  0  0  0  0  0  0  0
    5.4658    3.2373   -1.5868 C   0  0  1  0  0  0  0  0  0  0  0  0
    6.8743    3.2790   -2.2177 C   0  0  0  0  0  0  0  0  0  0  0  0
    6.9565    1.9728   -3.0278 C   0  0  0  0  0  0  0  0  0  0  0  0
    5.9974    1.0217   -2.3020 C   0  0  0  0  0  0  0  0  0  0  0  0
    5.9920   -0.1931   -2.3414 O   0  0  0  0  0  0  0  0  0  0  0  0
    5.1272    1.8123   -1.5940 N   0  0  0  0  0  0  0  0  0  0  0  0
    1.1955   -1.5017   -2.1915 H   0  0  0  0  0  0  0  0  0  0  0  0
    1.0999    0.2228   -2.6464 H   0  0  0  0  0  0  0  0  0  0  0  0
    0.6658   -0.2848   -0.9939 H   0  0  0  0  0  0  0  0  0  0  0  0
    3.4962   -0.4742   -2.2281 H   0  0  0  0  0  0  0  0  0  0  0  0
    3.0596   -0.9986   -0.5928 H   0  0  0  0  0  0  0  0  0  0  0  0
    4.7057    0.5676    0.0261 H   0  0  0  0  0  0  0  0  0  0  0  0
    4.1269    2.4888    1.4172 H   0  0  0  0  0  0  0  0  0  0  0  0
    3.1552    3.1580    0.0902 H   0  0  0  0  0  0  0  0  0  0  0  0
    6.2094    3.3597    0.4454 H   0  0  0  0  0  0  0  0  0  0  0  0
    5.0795    4.6783    0.0524 H   0  0  0  0  0  0  0  0  0  0  0  0
    4.7446    3.8062   -2.2059 H   0  0  0  0  0  0  0  0  0  0  0  0
    7.6334    3.2705   -1.4181 H   0  0  0  0  0  0  0  0  0  0  0  0
    7.0405    4.1827   -2.8215 H   0  0  0  0  0  0  0  0  0  0  0  0
    7.9594    1.5277   -3.0877 H   0  0  0  0  0  0  0  0  0  0  0  0
    6.5939    2.1022   -4.0626 H   0  0  0  0  0  0  0  0  0  0  0  0
  1  2  1  0
  1 13  1  0
  1 14  1  0
  1 15  1  0
  2  3  1  0
  2 16  1  0
  2 17  1  0
  3  4  1  0
  4  5  1  0
  4 12  1  0
  4 18  1  1
  5  6  1  0
  5 19  1  0
  5 20  1  0
  6  7  1  0
  6 21  1  0
  6 22  1  0
  7  8  1  0
  7 12  1  0
  7 23  1  6
  8  9  1  0
  8 24  1  0
  8 25  1  0
  9 10  1  0
  9 26  1  0
  9 27  1  0
 10 11  2  0
 10 12  1  0
M  END

