
     RDKit          3D

 30 32  0  0  0  0  0  0  0  0999 V2000
    2.2483    0.2875   -1.7622 N   0  0  0  0  0  0  0  0  0  0  0  0
    2.8264    0.1217   -0.4377 C   0  0  0  0  0  0  0  0  0  0  0  0
    2.9562    1.4464    0.2829 C   0  0  0  0  0  0  0  0  0  0  0  0
    2.3829    2.6017   -0.1818 C   0  0  0  0  0  0  0  0  0  0  0  0
    2.6092    3.8651    0.4450 C   0  0  0  0  0  0  0  0  0  0  0  0
    3.4493    3.9583    1.5224 C   0  0  0  0  0  0  0  0  0  0  0  0
    4.0467    2.7717    2.0208 C   0  0  0  0  0  0  0  0  0  0  0  0
    4.8997    2.6036    3.0191 N   0  0  0  0  0  0  0  0  0  0  0  0
    5.1522    1.2838    3.1176 N   0  0  0  0  0  0  0  0  0  0  0  0
    4.4666    0.6223    2.1991 C   0  0  0  0  0  0  0  0  0  0  0  0
    4.4623   -0.8520    2.1169 C   0  0  0  0  0  0  0  0  0  0  0  0
    3.2884   -1.6032    2.2936 C   0  0  0  0  0  0  0  0  0  0  0  0
    3.3187   -2.9985    2.2889 C   0  0  0  0  0  0  0  0  0  0  0  0
    4.5362   -3.6756    2.1255 C   0  0  0  0  0  0  0  0  0  0  0  0
    4.6274   -5.0286    2.1121 O   0  0  0  0  0  0  0  0  0  0  0  0
    5.7205   -2.9373    1.9775 C   0  0  0  0  0  0  0  0  0  0  0  0
    5.6793   -1.5463    1.9793 C   0  0  0  0  0  0  0  0  0  0  0  0
    3.7404    1.5304    1.4334 N   0  0  0  0  0  0  0  0  0  0  0  0
    1.9766   -0.6169   -2.1430 H   0  0  0  0  0  0  0  0  0  0  0  0
    2.9303    0.6877   -2.4072 H   0  0  0  0  0  0  0  0  0  0  0  0
    3.8191   -0.3714   -0.4274 H   0  0  0  0  0  0  0  0  0  0  0  0
    2.1697   -0.5500    0.1404 H   0  0  0  0  0  0  0  0  0  0  0  0
    1.7623    2.5187   -1.0734 H   0  0  0  0  0  0  0  0  0  0  0  0
    2.1266    4.7568    0.0386 H   0  0  0  0  0  0  0  0  0  0  0  0
    3.6899    4.8994    2.0178 H   0  0  0  0  0  0  0  0  0  0  0  0
    2.3369   -1.0934    2.4640 H   0  0  0  0  0  0  0  0  0  0  0  0
    2.3940   -3.5665    2.4332 H   0  0  0  0  0  0  0  0  0  0  0  0
    3.7524   -5.4155    2.2484 H   0  0  0  0  0  0  0  0  0  0  0  0
    6.6639   -3.4757    1.8672 H   0  0  0  0  0  0  0  0  0  0  0  0
    6.6045   -0.9755    1.8773 H   0  0  0  0  0  0  0  0  0  0  0  0
  1  2  1  0
  1 19  1  0
  1 20  1  0
  2  3  1  0
  2 21  1  0
  2 22  1  0
  3  4  2  0
  3 18  1  0
  4  5  1  0
  4 23  1  0
  5  6  2  0
  5 24  1  0
  6  7  1  0
  6 25  1  0
  7  8  2  0
  7 18  1  0
  8  9  1  0
  9 10  2  0
 10 11  1  0
 10 18  1  0
 11 12  2  0
 11 17  1  0
 12 13  1  0
 12 26  1  0
 13 14  2  0
 13 27  1  0
 14 15  1  0
 14 16  1  0
 15 28  1  0
 16 17  2  0
 16 29  1  0
 17 30  1  0
M  END

