
     RDKit          3D

 50 53  0  0  0  0  0  0  0  0999 V2000
    1.8960    0.0289   -1.4136 O   0  0  0  0  0  0  0  0  0  0  0  0
    2.7495   -0.0901   -0.5547 C   0  0  0  0  0  0  0  0  0  0  0  0
    3.2946   -1.4851   -0.2040 C   0  0  0  0  0  0  0  0  0  0  0  0
    4.1446   -1.5063    0.9864 N   0  0  0  0  0  0  0  0  0  0  0  0
    3.7211   -2.0394    2.1834 C   0  0  0  0  0  0  0  0  0  0  0  0
    4.0319   -1.5968    3.2762 O   0  0  0  0  0  0  0  0  0  0  0  0
    2.9086   -3.3469    2.1275 C   0  0  0  0  0  0  0  0  0  0  0  0
    1.8425   -3.3183    3.1012 N   0  0  0  0  0  0  0  0  0  0  0  0
    1.7799   -4.1633    4.2224 C   0  0  0  0  0  0  0  0  0  0  0  0
    2.5998   -5.0025    4.5009 O   0  0  0  0  0  0  0  0  0  0  0  0
    0.4539   -3.8396    4.8949 C   0  0  1  0  0  0  0  0  0  0  0  0
    0.2368   -4.0188    6.3906 C   0  0  0  0  0  0  0  0  0  0  0  0
   -1.2143   -3.5955    6.7064 C   0  0  0  0  0  0  0  0  0  0  0  0
   -1.5851   -2.1959    6.1700 C   0  0  0  0  0  0  0  0  0  0  0  0
   -1.2702   -2.0007    4.6710 C   0  0  0  0  0  0  0  0  0  0  0  0
    0.1822   -2.3976    4.4514 C   0  0  2  0  0  0  0  0  0  0  0  0
    0.8628   -2.3186    3.0967 C   0  0  0  0  0  0  0  0  0  0  0  0
    0.7046   -1.5318    2.1916 O   0  0  0  0  0  0  0  0  0  0  0  0
    5.1158   -0.3989    0.9493 C   0  0  2  0  0  0  0  0  0  0  0  0
    6.3214   -0.5014    1.8901 C   0  0  0  0  0  0  0  0  0  0  0  0
    7.2699    0.6832    1.6578 C   0  0  0  0  0  0  0  0  0  0  0  0
    6.5409    2.0235    1.8255 C   0  0  0  0  0  0  0  0  0  0  0  0
    5.3271    2.1180    0.8931 C   0  0  0  0  0  0  0  0  0  0  0  0
    4.3704    0.9353    1.0978 C   0  0  1  0  0  0  0  0  0  0  0  0
    3.2799    0.9663    0.1263 N   0  0  0  0  0  0  0  0  0  0  0  0
    3.8389   -1.8591   -1.0893 H   0  0  0  0  0  0  0  0  0  0  0  0
    2.4027   -2.1044   -0.0716 H   0  0  0  0  0  0  0  0  0  0  0  0
    3.5926   -4.1531    2.4364 H   0  0  0  0  0  0  0  0  0  0  0  0
    2.5176   -3.5923    1.1323 H   0  0  0  0  0  0  0  0  0  0  0  0
   -0.2748   -4.4901    4.3692 H   0  0  0  0  0  0  0  0  0  0  0  0
    0.9541   -3.3936    6.9509 H   0  0  0  0  0  0  0  0  0  0  0  0
    0.4151   -5.0618    6.6957 H   0  0  0  0  0  0  0  0  0  0  0  0
   -1.3892   -3.6300    7.7942 H   0  0  0  0  0  0  0  0  0  0  0  0
   -1.8986   -4.3417    6.2625 H   0  0  0  0  0  0  0  0  0  0  0  0
   -1.0272   -1.4336    6.7439 H   0  0  0  0  0  0  0  0  0  0  0  0
   -2.6532   -2.0007    6.3601 H   0  0  0  0  0  0  0  0  0  0  0  0
   -1.4471   -0.9571    4.3669 H   0  0  0  0  0  0  0  0  0  0  0  0
   -1.9310   -2.6321    4.0510 H   0  0  0  0  0  0  0  0  0  0  0  0
    0.8134   -1.7386    5.0822 H   0  0  0  0  0  0  0  0  0  0  0  0
    5.5178   -0.4196   -0.0815 H   0  0  0  0  0  0  0  0  0  0  0  0
    6.8376   -1.4584    1.7083 H   0  0  0  0  0  0  0  0  0  0  0  0
    5.9807   -0.5141    2.9331 H   0  0  0  0  0  0  0  0  0  0  0  0
    7.7015    0.6284    0.6412 H   0  0  0  0  0  0  0  0  0  0  0  0
    8.1180    0.6200    2.3586 H   0  0  0  0  0  0  0  0  0  0  0  0
    7.2274    2.8638    1.6317 H   0  0  0  0  0  0  0  0  0  0  0  0
    6.2074    2.1277    2.8736 H   0  0  0  0  0  0  0  0  0  0  0  0
    5.6599    2.1193   -0.1606 H   0  0  0  0  0  0  0  0  0  0  0  0
    4.7846    3.0658    1.0547 H   0  0  0  0  0  0  0  0  0  0  0  0
    3.9647    0.9770    2.1263 H   0  0  0  0  0  0  0  0  0  0  0  0
    2.8472    1.8609   -0.0880 H   0  0  0  0  0  0  0  0  0  0  0  0
  1  2  2  0
  2  3  1  0
  2 25  1  0
  3  4  1  0
  3 26  1  0
  3 27  1  0
  4  5  1  0
  4 19  1  0
  5  6  2  0
  5  7  1  0
  7  8  1  0
  7 28  1  0
  7 29  1  0
  8  9  1  0
  8 17  1  0
  9 10  2  0
  9 11  1  0
 11 12  1  0
 11 16  1  0
 11 30  1  6
 12 13  1  0
 12 31  1  0
 12 32  1  0
 13 14  1  0
 13 33  1  0
 13 34  1  0
 14 15  1  0
 14 35  1  0
 14 36  1  0
 15 16  1  0
 15 37  1  0
 15 38  1  0
 16 17  1  0
 16 39  1  1
 17 18  2  0
 19 20  1  0
 19 24  1  0
 19 40  1  6
 20 21  1  0
 20 41  1  0
 20 42  1  0
 21 22  1  0
 21 43  1  0
 21 44  1  0
 22 23  1  0
 22 45  1  0
 22 46  1  0
 23 24  1  0
 23 47  1  0
 23 48  1  0
 24 25  1  0
 24 49  1  1
 25 50  1  0
M  END

