
     RDKit          3D

 28 28  0  0  0  0  0  0  0  0999 V2000
    1.9530   -1.2832    0.1528 C   0  0  0  0  0  0  0  0  0  0  0  0
    2.4347   -0.0487   -0.0767 C   0  0  0  0  0  0  0  0  0  0  0  0
    2.3360    0.5753   -1.4493 C   0  0  0  0  0  0  0  0  0  0  0  0
    3.0669    0.7631    1.0060 C   0  0  0  0  0  0  0  0  0  0  0  0
    3.0140    2.1658    0.9677 C   0  0  0  0  0  0  0  0  0  0  0  0
    3.5996    2.9081    2.0057 C   0  0  0  0  0  0  0  0  0  0  0  0
    3.5380    4.3453    1.9710 C   0  0  0  0  0  0  0  0  0  0  0  0
    3.4883    5.5052    1.9429 N   0  0  0  0  0  0  0  0  0  0  0  0
    4.2481    2.2801    3.0775 C   0  0  0  0  0  0  0  0  0  0  0  0
    4.3259    0.8682    3.1318 C   0  0  0  0  0  0  0  0  0  0  0  0
    4.9687    0.2289    4.1742 N   0  0  0  0  0  0  0  0  0  0  0  0
    5.6095    1.0062    5.2160 C   0  0  0  0  0  0  0  0  0  0  0  0
    5.0622   -1.2164    4.1935 C   0  0  0  0  0  0  0  0  0  0  0  0
    3.7317    0.1388    2.0741 C   0  0  0  0  0  0  0  0  0  0  0  0
    1.5071   -1.8721   -0.6532 H   0  0  0  0  0  0  0  0  0  0  0  0
    1.9625   -1.7383    1.1458 H   0  0  0  0  0  0  0  0  0  0  0  0
    1.9614   -0.1495   -2.1859 H   0  0  0  0  0  0  0  0  0  0  0  0
    3.3141    0.9506   -1.7929 H   0  0  0  0  0  0  0  0  0  0  0  0
    1.6465    1.4365   -1.4539 H   0  0  0  0  0  0  0  0  0  0  0  0
    2.5128    2.6918    0.1565 H   0  0  0  0  0  0  0  0  0  0  0  0
    4.6930    2.9009    3.8520 H   0  0  0  0  0  0  0  0  0  0  0  0
    4.8925    1.6553    5.7511 H   0  0  0  0  0  0  0  0  0  0  0  0
    6.4156    1.6539    4.8229 H   0  0  0  0  0  0  0  0  0  0  0  0
    6.0564    0.3277    5.9537 H   0  0  0  0  0  0  0  0  0  0  0  0
    5.6275   -1.6161    3.3303 H   0  0  0  0  0  0  0  0  0  0  0  0
    4.0663   -1.6959    4.1888 H   0  0  0  0  0  0  0  0  0  0  0  0
    5.5787   -1.5352    5.1077 H   0  0  0  0  0  0  0  0  0  0  0  0
    3.8070   -0.9463    2.0629 H   0  0  0  0  0  0  0  0  0  0  0  0
  1  2  2  0
  1 15  1  0
  1 16  1  0
  2  3  1  0
  2  4  1  0
  3 17  1  0
  3 18  1  0
  3 19  1  0
  4  5  2  0
  4 14  1  0
  5  6  1  0
  5 20  1  0
  6  7  1  0
  6  9  2  0
  7  8  3  0
  9 10  1  0
  9 21  1  0
 10 11  1  0
 10 14  2  0
 11 12  1  0
 11 13  1  0
 12 22  1  0
 12 23  1  0
 12 24  1  0
 13 25  1  0
 13 26  1  0
 13 27  1  0
 14 28  1  0
M  END

