
     RDKit          3D

 45 46  0  0  0  0  0  0  0  0999 V2000
    2.5058   -0.1331    1.4680 C   0  0  0  0  0  0  0  0  0  0  0  0
    2.2578   -0.1307   -0.0460 C   0  0  1  0  0  0  0  0  0  0  0  0
    0.7606   -0.1900   -0.3711 C   0  0  0  0  0  0  0  0  0  0  0  0
    2.9468    1.0659   -0.7737 C   0  0  1  0  0  0  0  0  0  0  0  0
    2.6752    0.9943   -1.8380 H   0  0  0  0  0  0  0  0  0  0  0  0
    2.4057    2.3455   -0.3435 N   0  0  0  0  0  0  0  0  0  0  0  0
    1.6385    3.1179   -1.1920 C   0  0  0  0  0  0  0  0  0  0  0  0
    1.4145    2.8444   -2.3520 O   0  0  0  0  0  0  0  0  0  0  0  0
    1.1401    4.2690   -0.5611 N   0  0  0  0  0  0  0  0  0  0  0  0
    0.3296    5.1922   -1.2380 C   0  0  0  0  0  0  0  0  0  0  0  0
   -0.8656    4.8274   -1.8790 C   0  0  0  0  0  0  0  0  0  0  0  0
   -1.2628    3.5549   -1.8216 F   0  0  0  0  0  0  0  0  0  0  0  0
   -1.6554    5.7602   -2.5459 C   0  0  0  0  0  0  0  0  0  0  0  0
   -1.2764    7.1051   -2.5519 C   0  0  0  0  0  0  0  0  0  0  0  0
   -0.1116    7.5142   -1.8964 C   0  0  0  0  0  0  0  0  0  0  0  0
    0.6681    6.5529   -1.2650 C   0  0  0  0  0  0  0  0  0  0  0  0
    1.7952    6.9179   -0.6237 F   0  0  0  0  0  0  0  0  0  0  0  0
    4.4707    1.0029   -0.6891 C   0  0  0  0  0  0  0  0  0  0  0  0
    5.1536   -0.0431   -1.3359 C   0  0  0  0  0  0  0  0  0  0  0  0
    6.5405   -0.1454   -1.2765 C   0  0  0  0  0  0  0  0  0  0  0  0
    7.2913    0.7969   -0.5558 C   0  0  0  0  0  0  0  0  0  0  0  0
    8.7727    0.6336   -0.5184 C   0  0  0  0  0  0  0  0  0  0  0  0
    9.4147   -0.0300   -1.3297 O   0  0  0  0  0  0  0  0  0  0  0  0
    9.4396    1.2868    0.4845 N   0  0  0  0  0  0  0  0  0  0  0  0
   10.7926    0.9985    0.5860 O   0  0  0  0  0  0  0  0  0  0  0  0
    6.6223    1.8596    0.0690 C   0  0  0  0  0  0  0  0  0  0  0  0
    5.2307    1.9571    0.0012 C   0  0  0  0  0  0  0  0  0  0  0  0
    2.0722   -1.0343    1.9292 H   0  0  0  0  0  0  0  0  0  0  0  0
    2.0290    0.7315    1.9631 H   0  0  0  0  0  0  0  0  0  0  0  0
    3.5796   -0.1154    1.7113 H   0  0  0  0  0  0  0  0  0  0  0  0
    2.7275   -1.0405   -0.4577 H   0  0  0  0  0  0  0  0  0  0  0  0
    0.2254    0.6849    0.0325 H   0  0  0  0  0  0  0  0  0  0  0  0
    0.3029   -1.0903    0.0690 H   0  0  0  0  0  0  0  0  0  0  0  0
    0.5817   -0.2097   -1.4570 H   0  0  0  0  0  0  0  0  0  0  0  0
    2.3049    2.5058    0.6521 H   0  0  0  0  0  0  0  0  0  0  0  0
    1.7215    4.6714    0.1667 H   0  0  0  0  0  0  0  0  0  0  0  0
   -2.5675    5.4160   -3.0362 H   0  0  0  0  0  0  0  0  0  0  0  0
   -1.8974    7.8417   -3.0656 H   0  0  0  0  0  0  0  0  0  0  0  0
    0.2089    8.5569   -1.8757 H   0  0  0  0  0  0  0  0  0  0  0  0
    4.5893   -0.7832   -1.9101 H   0  0  0  0  0  0  0  0  0  0  0  0
    7.0689   -0.9499   -1.7917 H   0  0  0  0  0  0  0  0  0  0  0  0
    9.0145    1.4175    1.3971 H   0  0  0  0  0  0  0  0  0  0  0  0
   10.9122    0.3964   -0.1842 H   0  0  0  0  0  0  0  0  0  0  0  0
    7.1891    2.6403    0.5823 H   0  0  0  0  0  0  0  0  0  0  0  0
    4.7309    2.8073    0.4680 H   0  0  0  0  0  0  0  0  0  0  0  0
  1  2  1  0
  1 28  1  0
  1 29  1  0
  1 30  1  0
  2  3  1  0
  2  4  1  0
  2 31  1  6
  3 32  1  0
  3 33  1  0
  3 34  1  0
  4  5  1  6
  4  6  1  0
  4 18  1  0
  6  7  1  0
  6 35  1  0
  7  8  2  0
  7  9  1  0
  9 10  1  0
  9 36  1  0
 10 11  2  0
 10 16  1  0
 11 12  1  0
 11 13  1  0
 13 14  2  0
 13 37  1  0
 14 15  1  0
 14 38  1  0
 15 16  2  0
 15 39  1  0
 16 17  1  0
 18 19  2  0
 18 27  1  0
 19 20  1  0
 19 40  1  0
 20 21  2  0
 20 41  1  0
 21 22  1  0
 21 26  1  0
 22 23  2  0
 22 24  1  0
 24 25  1  0
 24 42  1  0
 25 43  1  0
 26 27  2  0
 26 44  1  0
 27 45  1  0
M  END

