
     RDKit          3D

 39 40  0  0  0  0  0  0  0  0999 V2000
    1.7508   -0.5550   -3.3698 C   0  0  0  0  0  0  0  0  0  0  0  0
    1.5059    0.3851   -2.2022 C   0  0  0  0  0  0  0  0  0  0  0  0
    2.3165    1.5766   -2.3014 O   0  0  0  0  0  0  0  0  0  0  0  0
    3.5499    1.5199   -1.8020 C   0  0  0  0  0  0  0  0  0  0  0  0
    4.0620    0.5693   -1.2688 O   0  0  0  0  0  0  0  0  0  0  0  0
    4.2535    2.8302   -1.9842 C   0  0  0  0  0  0  0  0  0  0  0  0
    3.8291    3.9363   -2.5168 N   0  0  0  0  0  0  0  0  0  0  0  0
    4.9206    4.7670   -2.3931 C   0  0  0  0  0  0  0  0  0  0  0  0
    4.9645    6.1873   -2.9446 C   0  0  1  0  0  0  0  0  0  0  0  0
    5.2625    6.1045   -4.3423 O   0  0  0  0  0  0  0  0  0  0  0  0
    4.2755    5.6312   -5.2347 C   0  0  0  0  0  0  0  0  0  0  0  0
    3.6359    6.9161   -2.6636 C   0  0  0  0  0  0  0  0  0  0  0  0
    3.4631    7.2664   -1.1800 C   0  0  0  0  0  0  0  0  0  0  0  0
    4.6445    8.0801   -0.6430 C   0  0  0  0  0  0  0  0  0  0  0  0
    5.9849    7.3637   -0.8720 C   0  0  2  0  0  0  0  0  0  0  0  0
    7.1739    8.2016   -0.3938 C   0  0  0  0  0  0  0  0  0  0  0  0
    6.1422    6.9818   -2.3526 C   0  0  0  0  0  0  0  0  0  0  0  0
    5.9459    4.1900   -1.8086 N   0  0  0  0  0  0  0  0  0  0  0  0
    5.5102    2.9120   -1.5356 O   0  0  0  0  0  0  0  0  0  0  0  0
    1.0626   -1.4126   -3.3044 H   0  0  0  0  0  0  0  0  0  0  0  0
    2.7800   -0.9432   -3.3542 H   0  0  0  0  0  0  0  0  0  0  0  0
    1.5761   -0.0453   -4.3297 H   0  0  0  0  0  0  0  0  0  0  0  0
    1.7184   -0.1088   -1.2427 H   0  0  0  0  0  0  0  0  0  0  0  0
    0.4726    0.7589   -2.1961 H   0  0  0  0  0  0  0  0  0  0  0  0
    4.7606    5.5610   -6.2194 H   0  0  0  0  0  0  0  0  0  0  0  0
    3.4166    6.3212   -5.3234 H   0  0  0  0  0  0  0  0  0  0  0  0
    3.8898    4.6341   -4.9593 H   0  0  0  0  0  0  0  0  0  0  0  0
    2.7876    6.3062   -3.0076 H   0  0  0  0  0  0  0  0  0  0  0  0
    3.6470    7.8406   -3.2660 H   0  0  0  0  0  0  0  0  0  0  0  0
    3.3555    6.3378   -0.5910 H   0  0  0  0  0  0  0  0  0  0  0  0
    2.5197    7.8207   -1.0447 H   0  0  0  0  0  0  0  0  0  0  0  0
    4.5076    8.2880    0.4319 H   0  0  0  0  0  0  0  0  0  0  0  0
    4.6713    9.0639   -1.1489 H   0  0  0  0  0  0  0  0  0  0  0  0
    5.9740    6.4306   -0.2804 H   0  0  0  0  0  0  0  0  0  0  0  0
    7.2442    9.1488   -0.9560 H   0  0  0  0  0  0  0  0  0  0  0  0
    8.1249    7.6618   -0.5296 H   0  0  0  0  0  0  0  0  0  0  0  0
    7.0805    8.4543    0.6749 H   0  0  0  0  0  0  0  0  0  0  0  0
    7.0688    6.4103   -2.5109 H   0  0  0  0  0  0  0  0  0  0  0  0
    6.2236    7.8956   -2.9651 H   0  0  0  0  0  0  0  0  0  0  0  0
  1  2  1  0
  1 20  1  0
  1 21  1  0
  1 22  1  0
  2  3  1  0
  2 23  1  0
  2 24  1  0
  3  4  1  0
  4  5  2  0
  4  6  1  0
  6  7  2  0
  6 19  1  0
  7  8  1  0
  8  9  1  0
  8 18  2  0
  9 10  1  6
  9 12  1  0
  9 17  1  0
 10 11  1  0
 11 25  1  0
 11 26  1  0
 11 27  1  0
 12 13  1  0
 12 28  1  0
 12 29  1  0
 13 14  1  0
 13 30  1  0
 13 31  1  0
 14 15  1  0
 14 32  1  0
 14 33  1  0
 15 16  1  0
 15 17  1  0
 15 34  1  1
 16 35  1  0
 16 36  1  0
 16 37  1  0
 17 38  1  0
 17 39  1  0
 18 19  1  0
M  END

