
     RDKit          3D

 52 55  0  0  0  0  0  0  0  0999 V2000
    1.1755   -0.1340    0.5848 C   0  0  0  0  0  0  0  0  0  0  0  0
    2.5470   -0.1734    0.2563 O   0  0  0  0  0  0  0  0  0  0  0  0
    3.2585   -1.2992    0.5004 C   0  0  0  0  0  0  0  0  0  0  0  0
    4.6199   -1.2620    0.1440 C   0  0  0  0  0  0  0  0  0  0  0  0
    5.4372   -2.3643    0.3523 C   0  0  0  0  0  0  0  0  0  0  0  0
    4.8998   -3.5278    0.9247 C   0  0  0  0  0  0  0  0  0  0  0  0
    5.7345   -4.6621    1.1404 N   0  0  0  0  0  0  0  0  0  0  0  0
    7.0218   -4.6479    0.8165 N   0  0  0  0  0  0  0  0  0  0  0  0
    7.4441   -5.8756    1.1691 C   0  0  0  0  0  0  0  0  0  0  0  0
    8.7167   -6.4866    1.0714 C   0  0  0  0  0  0  0  0  0  0  0  0
    8.8684   -7.7829    1.5255 C   0  0  0  0  0  0  0  0  0  0  0  0
   10.2137   -8.4633    1.4585 C   0  0  0  0  0  0  0  0  0  0  0  0
    7.7303   -8.4985    2.0769 C   0  0  0  0  0  0  0  0  0  0  0  0
    7.9628   -9.8240    2.5114 N   0  0  0  0  0  0  0  0  0  0  0  0
    7.4967  -10.5422    3.5929 C   0  0  0  0  0  0  0  0  0  0  0  0
    7.8094  -11.7086    3.7376 O   0  0  0  0  0  0  0  0  0  0  0  0
    6.6253   -9.8345    4.6326 C   0  0  0  0  0  0  0  0  0  0  0  0
    5.2730   -9.9846    4.2435 O   0  0  0  0  0  0  0  0  0  0  0  0
    4.2833   -9.6317    5.1176 C   0  0  0  0  0  0  0  0  0  0  0  0
    2.9697   -9.8892    4.6899 C   0  0  0  0  0  0  0  0  0  0  0  0
    1.9053   -9.5526    5.5185 C   0  0  0  0  0  0  0  0  0  0  0  0
    2.1298   -8.9630    6.7700 C   0  0  0  0  0  0  0  0  0  0  0  0
    3.4338   -8.7032    7.2046 C   0  0  0  0  0  0  0  0  0  0  0  0
    3.7029   -8.0733    8.5504 C   0  0  0  0  0  0  0  0  0  0  0  0
    4.5125   -9.0422    6.3654 C   0  0  0  0  0  0  0  0  0  0  0  0
    6.4709   -7.9258    2.1541 C   0  0  0  0  0  0  0  0  0  0  0  0
    6.3344   -6.5897    1.7119 C   0  0  0  0  0  0  0  0  0  0  0  0
    5.2590   -5.7811    1.6751 N   0  0  0  0  0  0  0  0  0  0  0  0
    3.5508   -3.5781    1.2831 C   0  0  0  0  0  0  0  0  0  0  0  0
    2.7299   -2.4679    1.0725 C   0  0  0  0  0  0  0  0  0  0  0  0
    0.8148    0.8634    0.3005 H   0  0  0  0  0  0  0  0  0  0  0  0
    1.0081   -0.2798    1.6671 H   0  0  0  0  0  0  0  0  0  0  0  0
    0.5982   -0.8950    0.0296 H   0  0  0  0  0  0  0  0  0  0  0  0
    5.0143   -0.3459   -0.2997 H   0  0  0  0  0  0  0  0  0  0  0  0
    6.4916   -2.3434    0.0789 H   0  0  0  0  0  0  0  0  0  0  0  0
    9.5623   -5.9367    0.6534 H   0  0  0  0  0  0  0  0  0  0  0  0
   10.9816   -7.7739    1.0811 H   0  0  0  0  0  0  0  0  0  0  0  0
   10.2048   -9.3385    0.7835 H   0  0  0  0  0  0  0  0  0  0  0  0
   10.5366   -8.8264    2.4482 H   0  0  0  0  0  0  0  0  0  0  0  0
    8.6082  -10.3819    1.9577 H   0  0  0  0  0  0  0  0  0  0  0  0
    6.8906   -8.7675    4.7410 H   0  0  0  0  0  0  0  0  0  0  0  0
    6.8161  -10.3565    5.5840 H   0  0  0  0  0  0  0  0  0  0  0  0
    2.8164  -10.3535    3.7140 H   0  0  0  0  0  0  0  0  0  0  0  0
    0.8826   -9.7531    5.1881 H   0  0  0  0  0  0  0  0  0  0  0  0
    1.2832   -8.7044    7.4111 H   0  0  0  0  0  0  0  0  0  0  0  0
    2.7684   -7.8139    9.0689 H   0  0  0  0  0  0  0  0  0  0  0  0
    4.3007   -7.1520    8.4503 H   0  0  0  0  0  0  0  0  0  0  0  0
    4.2716   -8.7557    9.2047 H   0  0  0  0  0  0  0  0  0  0  0  0
    5.5281   -8.8332    6.7047 H   0  0  0  0  0  0  0  0  0  0  0  0
    5.6151   -8.4895    2.5223 H   0  0  0  0  0  0  0  0  0  0  0  0
    3.1523   -4.4903    1.7264 H   0  0  0  0  0  0  0  0  0  0  0  0
    1.6803   -2.5289    1.3595 H   0  0  0  0  0  0  0  0  0  0  0  0
  1  2  1  0
  1 31  1  0
  1 32  1  0
  1 33  1  0
  2  3  1  0
  3  4  2  0
  3 30  1  0
  4  5  1  0
  4 34  1  0
  5  6  2  0
  5 35  1  0
  6  7  1  0
  6 29  1  0
  7  8  1  0
  7 28  1  0
  8  9  2  0
  9 10  1  0
  9 27  1  0
 10 11  2  0
 10 36  1  0
 11 12  1  0
 11 13  1  0
 12 37  1  0
 12 38  1  0
 12 39  1  0
 13 14  1  0
 13 26  2  0
 14 15  1  0
 14 40  1  0
 15 16  2  0
 15 17  1  0
 17 18  1  0
 17 41  1  0
 17 42  1  0
 18 19  1  0
 19 20  2  0
 19 25  1  0
 20 21  1  0
 20 43  1  0
 21 22  2  0
 21 44  1  0
 22 23  1  0
 22 45  1  0
 23 24  1  0
 23 25  2  0
 24 46  1  0
 24 47  1  0
 24 48  1  0
 25 49  1  0
 26 27  1  0
 26 50  1  0
 27 28  2  0
 29 30  2  0
 29 51  1  0
 30 52  1  0
M  END

