
     RDKit          3D

 39 40  0  0  0  0  0  0  0  0999 V2000
    0.6425    0.2505   -0.3174 C   0  0  0  0  0  0  0  0  0  0  0  0
    2.1572    0.2745   -0.1438 C   0  0  0  0  0  0  0  0  0  0  0  0
    2.8215   -0.4175   -1.2386 N   0  0  0  0  0  0  0  0  0  0  0  0
    4.2810   -0.3801   -1.2259 C   0  0  1  0  0  0  0  0  0  0  0  0
    4.8766   -1.3653   -0.1688 C   0  0  0  0  0  0  0  0  0  0  0  0
    4.6081   -2.8309   -0.4114 C   0  0  0  0  0  0  0  0  0  0  0  0
    5.5723   -3.6488   -1.0213 C   0  0  0  0  0  0  0  0  0  0  0  0
    5.3355   -5.0043   -1.2619 C   0  0  0  0  0  0  0  0  0  0  0  0
    4.1088   -5.5583   -0.8899 C   0  0  0  0  0  0  0  0  0  0  0  0
    3.7980   -7.2579   -1.1832 Cl  0  0  0  0  0  0  0  0  0  0  0  0
    3.1282   -4.7703   -0.2816 C   0  0  0  0  0  0  0  0  0  0  0  0
    3.3851   -3.4179   -0.0476 C   0  0  0  0  0  0  0  0  0  0  0  0
    4.8075   -0.6464   -2.6150 C   0  0  0  0  0  0  0  0  0  0  0  0
    4.3098   -1.4846   -3.5806 C   0  0  0  0  0  0  0  0  0  0  0  0
    5.0936   -1.5301   -4.7828 C   0  0  0  0  0  0  0  0  0  0  0  0
    4.7290   -2.3812   -5.9743 C   0  0  0  0  0  0  0  0  0  0  0  0
    6.2055   -0.7163   -4.7117 C   0  0  0  0  0  0  0  0  0  0  0  0
    7.2663   -0.4822   -5.7459 C   0  0  0  0  0  0  0  0  0  0  0  0
    6.2743    0.1089   -3.1736 S   0  0  0  0  0  0  0  0  0  0  0  0
    0.1407    0.7526    0.5243 H   0  0  0  0  0  0  0  0  0  0  0  0
    0.2722   -0.7847   -0.3790 H   0  0  0  0  0  0  0  0  0  0  0  0
    0.3397    0.7710   -1.2422 H   0  0  0  0  0  0  0  0  0  0  0  0
    2.4197   -0.2210    0.8069 H   0  0  0  0  0  0  0  0  0  0  0  0
    2.5045    1.3285   -0.0384 H   0  0  0  0  0  0  0  0  0  0  0  0
    2.4896   -0.0473   -2.1278 H   0  0  0  0  0  0  0  0  0  0  0  0
    4.6487    0.6258   -0.9189 H   0  0  0  0  0  0  0  0  0  0  0  0
    4.4858   -1.0745    0.8203 H   0  0  0  0  0  0  0  0  0  0  0  0
    5.9627   -1.1876   -0.1352 H   0  0  0  0  0  0  0  0  0  0  0  0
    6.5323   -3.2177   -1.3179 H   0  0  0  0  0  0  0  0  0  0  0  0
    6.0948   -5.6303   -1.7337 H   0  0  0  0  0  0  0  0  0  0  0  0
    2.1753   -5.2171    0.0075 H   0  0  0  0  0  0  0  0  0  0  0  0
    2.6147   -2.8074    0.4276 H   0  0  0  0  0  0  0  0  0  0  0  0
    3.4017   -2.0718   -3.4350 H   0  0  0  0  0  0  0  0  0  0  0  0
    3.7950   -2.9312   -5.7887 H   0  0  0  0  0  0  0  0  0  0  0  0
    5.5082   -3.1275   -6.2028 H   0  0  0  0  0  0  0  0  0  0  0  0
    4.5802   -1.7772   -6.8851 H   0  0  0  0  0  0  0  0  0  0  0  0
    7.0645   -1.0829   -6.6444 H   0  0  0  0  0  0  0  0  0  0  0  0
    8.2696   -0.7592   -5.3800 H   0  0  0  0  0  0  0  0  0  0  0  0
    7.3154    0.5752   -6.0574 H   0  0  0  0  0  0  0  0  0  0  0  0
  1  2  1  0
  1 20  1  0
  1 21  1  0
  1 22  1  0
  2  3  1  0
  2 23  1  0
  2 24  1  0
  3  4  1  0
  3 25  1  0
  4  5  1  0
  4 13  1  0
  4 26  1  1
  5  6  1  0
  5 27  1  0
  5 28  1  0
  6  7  2  0
  6 12  1  0
  7  8  1  0
  7 29  1  0
  8  9  2  0
  8 30  1  0
  9 10  1  0
  9 11  1  0
 11 12  2  0
 11 31  1  0
 12 32  1  0
 13 14  2  0
 13 19  1  0
 14 15  1  0
 14 33  1  0
 15 16  1  0
 15 17  2  0
 16 34  1  0
 16 35  1  0
 16 36  1  0
 17 18  1  0
 17 19  1  0
 18 37  1  0
 18 38  1  0
 18 39  1  0
M  END

