
     RDKit          3D

 51 54  0  0  0  0  0  0  0  0999 V2000
    1.2608   -0.1753    0.1620 O   0  0  0  0  0  0  0  0  0  0  0  0
    1.9935   -0.1774    1.1402 C   0  0  0  0  0  0  0  0  0  0  0  0
    2.5144   -1.4845    1.7354 C   0  0  0  0  0  0  0  0  0  0  0  0
    1.9872   -2.7047    0.9802 C   0  0  0  0  0  0  0  0  0  0  0  0
    2.5885   -3.9456    1.4418 N   0  0  0  0  0  0  0  0  0  0  0  0
    2.1593   -4.3929    2.7614 C   0  0  0  0  0  0  0  0  0  0  0  0
    2.7045   -5.8249    2.8763 C   0  0  0  0  0  0  0  0  0  0  0  0
    2.8401   -6.2992    1.4085 C   0  0  0  0  0  0  0  0  0  0  0  0
    2.3817   -5.0912    0.5484 C   0  0  2  0  0  0  0  0  0  0  0  0
    3.1078   -4.9666   -0.7777 C   0  0  0  0  0  0  0  0  0  0  0  0
    4.4318   -4.4969   -0.8344 C   0  0  0  0  0  0  0  0  0  0  0  0
    5.1151   -4.4413   -2.0476 C   0  0  0  0  0  0  0  0  0  0  0  0
    4.4931   -4.8499   -3.2323 C   0  0  0  0  0  0  0  0  0  0  0  0
    3.1606   -5.3024   -3.1900 C   0  0  0  0  0  0  0  0  0  0  0  0
    2.4849   -5.3588   -1.9667 C   0  0  0  0  0  0  0  0  0  0  0  0
    2.4995   -5.6875   -4.3251 O   0  0  0  0  0  0  0  0  0  0  0  0
    3.1159   -5.2677   -5.5315 C   0  0  0  0  0  0  0  0  0  0  0  0
    4.6136   -5.5207   -5.4735 C   0  0  0  0  0  0  0  0  0  0  0  0
    5.1953   -4.7908   -4.4058 O   0  0  0  0  0  0  0  0  0  0  0  0
    2.3857    0.9958    1.7480 N   0  0  0  0  0  0  0  0  0  0  0  0
    3.2207    1.1187    2.9353 C   0  0  0  0  0  0  0  0  0  0  0  0
    4.3083    2.1713    2.6998 C   0  0  0  0  0  0  0  0  0  0  0  0
    3.7588    3.4011    2.2832 O   0  0  0  0  0  0  0  0  0  0  0  0
    3.0136    3.2656    1.0861 C   0  0  0  0  0  0  0  0  0  0  0  0
    1.8697    2.2696    1.2538 C   0  0  0  0  0  0  0  0  0  0  0  0
    2.2349   -1.5304    2.8019 H   0  0  0  0  0  0  0  0  0  0  0  0
    3.6176   -1.4995    1.7085 H   0  0  0  0  0  0  0  0  0  0  0  0
    2.2151   -2.5767   -0.0871 H   0  0  0  0  0  0  0  0  0  0  0  0
    0.8773   -2.7345    1.0532 H   0  0  0  0  0  0  0  0  0  0  0  0
    1.0461   -4.3954    2.8395 H   0  0  0  0  0  0  0  0  0  0  0  0
    2.5359   -3.7285    3.5556 H   0  0  0  0  0  0  0  0  0  0  0  0
    2.0359   -6.4634    3.4730 H   0  0  0  0  0  0  0  0  0  0  0  0
    3.6854   -5.8258    3.3749 H   0  0  0  0  0  0  0  0  0  0  0  0
    2.2351   -7.1903    1.1845 H   0  0  0  0  0  0  0  0  0  0  0  0
    3.8842   -6.5492    1.1717 H   0  0  0  0  0  0  0  0  0  0  0  0
    1.2952   -5.2123    0.3299 H   0  0  0  0  0  0  0  0  0  0  0  0
    4.9179   -4.1692    0.0867 H   0  0  0  0  0  0  0  0  0  0  0  0
    6.1460   -4.0848   -2.1067 H   0  0  0  0  0  0  0  0  0  0  0  0
    1.4495   -5.7085   -1.9734 H   0  0  0  0  0  0  0  0  0  0  0  0
    2.9253   -4.1908   -5.7004 H   0  0  0  0  0  0  0  0  0  0  0  0
    2.6484   -5.8386   -6.3474 H   0  0  0  0  0  0  0  0  0  0  0  0
    5.1082   -5.1881   -6.3982 H   0  0  0  0  0  0  0  0  0  0  0  0
    4.8037   -6.6030   -5.3418 H   0  0  0  0  0  0  0  0  0  0  0  0
    3.6873    0.1582    3.1848 H   0  0  0  0  0  0  0  0  0  0  0  0
    2.6024    1.4296    3.8006 H   0  0  0  0  0  0  0  0  0  0  0  0
    5.0237    1.7898    1.9409 H   0  0  0  0  0  0  0  0  0  0  0  0
    4.8622    2.3627    3.6319 H   0  0  0  0  0  0  0  0  0  0  0  0
    3.6756    2.9347    0.2593 H   0  0  0  0  0  0  0  0  0  0  0  0
    2.6233    4.2642    0.8377 H   0  0  0  0  0  0  0  0  0  0  0  0
    1.3543    2.0802    0.3036 H   0  0  0  0  0  0  0  0  0  0  0  0
    1.1351    2.6771    1.9749 H   0  0  0  0  0  0  0  0  0  0  0  0
  1  2  2  0
  2  3  1  0
  2 20  1  0
  3  4  1  0
  3 26  1  0
  3 27  1  0
  4  5  1  0
  4 28  1  0
  4 29  1  0
  5  6  1  0
  5  9  1  0
  6  7  1  0
  6 30  1  0
  6 31  1  0
  7  8  1  0
  7 32  1  0
  7 33  1  0
  8  9  1  0
  8 34  1  0
  8 35  1  0
  9 10  1  0
  9 36  1  6
 10 11  2  0
 10 15  1  0
 11 12  1  0
 11 37  1  0
 12 13  2  0
 12 38  1  0
 13 14  1  0
 13 19  1  0
 14 15  2  0
 14 16  1  0
 15 39  1  0
 16 17  1  0
 17 18  1  0
 17 40  1  0
 17 41  1  0
 18 19  1  0
 18 42  1  0
 18 43  1  0
 20 21  1  0
 20 25  1  0
 21 22  1  0
 21 44  1  0
 21 45  1  0
 22 23  1  0
 22 46  1  0
 22 47  1  0
 23 24  1  0
 24 25  1  0
 24 48  1  0
 24 49  1  0
 25 50  1  0
 25 51  1  0
M  END

