
     RDKit          3D

 31 32  0  0  0  0  0  0  0  0999 V2000
    5.2501    0.5734   -1.4426 C   0  0  0  0  0  0  0  0  0  0  0  0
    3.8771    0.2132   -0.8759 C   0  0  0  0  0  0  0  0  0  0  0  0
    3.4780    1.0235    0.3653 C   0  0  0  0  0  0  0  0  0  0  0  0
    4.3510    0.8083    1.5024 N   0  0  0  0  0  0  0  0  0  0  0  0
    5.1023    1.7567    2.1286 C   0  0  0  0  0  0  0  0  0  0  0  0
    5.0817    3.0179    1.6597 N   0  0  0  0  0  0  0  0  0  0  0  0
    5.8374    3.8898    2.3146 C   0  0  0  0  0  0  0  0  0  0  0  0
    6.6334    3.5939    3.4305 C   0  0  0  0  0  0  0  0  0  0  0  0
    7.4466    4.6777    4.0833 C   0  0  0  0  0  0  0  0  0  0  0  0
    6.5790    2.2360    3.8404 C   0  0  0  0  0  0  0  0  0  0  0  0
    7.3129    1.6651    4.9769 C   0  0  0  0  0  0  0  0  0  0  0  0
    8.1894    2.2015    5.9040 C   0  0  0  0  0  0  0  0  0  0  0  0
    8.6712    1.2567    6.8516 C   0  0  0  0  0  0  0  0  0  0  0  0
    8.1503    0.0045    6.6307 C   0  0  0  0  0  0  0  0  0  0  0  0
    8.4764   -1.4194    7.5496 Cl  0  0  0  0  0  0  0  0  0  0  0  0
    7.0700   -0.0489    5.2734 S   0  0  0  0  0  0  0  0  0  0  0  0
    5.8179    1.3470    3.1861 N   0  0  0  0  0  0  0  0  0  0  0  0
    5.4890   -0.0353   -2.3291 H   0  0  0  0  0  0  0  0  0  0  0  0
    6.0444    0.4062   -0.6979 H   0  0  0  0  0  0  0  0  0  0  0  0
    5.2937    1.6342   -1.7391 H   0  0  0  0  0  0  0  0  0  0  0  0
    3.8433   -0.8650   -0.6313 H   0  0  0  0  0  0  0  0  0  0  0  0
    3.0979    0.3697   -1.6428 H   0  0  0  0  0  0  0  0  0  0  0  0
    2.4373    0.7730    0.6444 H   0  0  0  0  0  0  0  0  0  0  0  0
    3.5052    2.0999    0.1459 H   0  0  0  0  0  0  0  0  0  0  0  0
    4.4053   -0.1141    1.9190 H   0  0  0  0  0  0  0  0  0  0  0  0
    5.8237    4.9206    1.9353 H   0  0  0  0  0  0  0  0  0  0  0  0
    7.2975    5.6323    3.5564 H   0  0  0  0  0  0  0  0  0  0  0  0
    8.5274    4.4581    4.0650 H   0  0  0  0  0  0  0  0  0  0  0  0
    7.1623    4.8367    5.1372 H   0  0  0  0  0  0  0  0  0  0  0  0
    8.4919    3.2449    5.9206 H   0  0  0  0  0  0  0  0  0  0  0  0
    9.3677    1.4861    7.6579 H   0  0  0  0  0  0  0  0  0  0  0  0
  1  2  1  0
  1 18  1  0
  1 19  1  0
  1 20  1  0
  2  3  1  0
  2 21  1  0
  2 22  1  0
  3  4  1  0
  3 23  1  0
  3 24  1  0
  4  5  1  0
  4 25  1  0
  5  6  2  0
  5 17  1  0
  6  7  1  0
  7  8  2  0
  7 26  1  0
  8  9  1  0
  8 10  1  0
  9 27  1  0
  9 28  1  0
  9 29  1  0
 10 11  1  0
 10 17  2  0
 11 12  2  0
 11 16  1  0
 12 13  1  0
 12 30  1  0
 13 14  2  0
 13 31  1  0
 14 15  1  0
 14 16  1  0
M  END

