
     RDKit          3D

 52 55  0  0  0  0  0  0  0  0999 V2000
    2.2970   -0.5050   -1.5850 C   0  0  0  0  0  0  0  0  0  0  0  0
    3.6934   -0.3916   -1.1620 N   0  0  0  0  0  0  0  0  0  0  0  0
    4.3823   -1.5787   -0.8140 C   0  0  0  0  0  0  0  0  0  0  0  0
    3.8464   -2.6807   -0.8630 O   0  0  0  0  0  0  0  0  0  0  0  0
    5.7324   -1.3020   -0.4095 C   0  0  0  0  0  0  0  0  0  0  0  0
    6.2732   -0.0274   -0.4051 C   0  0  0  0  0  0  0  0  0  0  0  0
    7.5740   -0.0417   -0.0249 N   0  0  0  0  0  0  0  0  0  0  0  0
    7.8372   -1.3236    0.2003 C   0  0  0  0  0  0  0  0  0  0  0  0
    9.4171   -1.9380    0.7025 S   0  0  0  0  0  0  0  0  0  0  0  0
   10.3610   -0.3744    0.6446 C   0  0  0  0  0  0  0  0  0  0  0  0
   10.7121    0.2294   -0.7238 C   0  0  0  0  0  0  0  0  0  0  0  0
   11.0627    1.3928   -0.7757 O   0  0  0  0  0  0  0  0  0  0  0  0
   10.6548   -0.6264   -1.7868 N   0  0  0  0  0  0  0  0  0  0  0  0
   10.9476   -0.3533   -3.1319 C   0  0  0  0  0  0  0  0  0  0  0  0
   11.4009    0.8809   -3.6271 C   0  0  0  0  0  0  0  0  0  0  0  0
   11.6656    1.0435   -4.9898 C   0  0  0  0  0  0  0  0  0  0  0  0
   11.4794   -0.0244   -5.8624 C   0  0  0  0  0  0  0  0  0  0  0  0
   11.7339    0.1318   -7.1682 F   0  0  0  0  0  0  0  0  0  0  0  0
   11.0306   -1.2645   -5.4088 C   0  0  0  0  0  0  0  0  0  0  0  0
   10.7735   -1.4016   -4.0530 C   0  0  0  0  0  0  0  0  0  0  0  0
   10.3371   -2.5867   -3.5787 F   0  0  0  0  0  0  0  0  0  0  0  0
    6.7733   -2.1445   -0.0171 N   0  0  0  0  0  0  0  0  0  0  0  0
    6.7024   -3.6050    0.1543 C   0  0  0  0  0  0  0  0  0  0  0  0
    6.3338   -4.0487    1.5586 C   0  0  0  0  0  0  0  0  0  0  0  0
    4.9898   -4.0482    1.9674 C   0  0  0  0  0  0  0  0  0  0  0  0
    4.6471   -4.4478    3.2613 C   0  0  0  0  0  0  0  0  0  0  0  0
    5.6385   -4.8571    4.1593 C   0  0  0  0  0  0  0  0  0  0  0  0
    6.9764   -4.8695    3.7565 C   0  0  0  0  0  0  0  0  0  0  0  0
    7.3212   -4.4677    2.4625 C   0  0  0  0  0  0  0  0  0  0  0  0
    5.5386    1.0742   -0.7688 N   0  0  0  0  0  0  0  0  0  0  0  0
    6.1033    2.4205   -0.7619 C   0  0  0  0  0  0  0  0  0  0  0  0
    4.2079    0.9191   -1.1534 C   0  0  0  0  0  0  0  0  0  0  0  0
    3.5228    1.8716   -1.4714 O   0  0  0  0  0  0  0  0  0  0  0  0
    2.0229   -1.5639   -1.5441 H   0  0  0  0  0  0  0  0  0  0  0  0
    2.1765   -0.1166   -2.6065 H   0  0  0  0  0  0  0  0  0  0  0  0
    1.6507    0.0868   -0.9211 H   0  0  0  0  0  0  0  0  0  0  0  0
   11.2990   -0.5974    1.1776 H   0  0  0  0  0  0  0  0  0  0  0  0
    9.8201    0.3961    1.2072 H   0  0  0  0  0  0  0  0  0  0  0  0
   10.3278   -1.5694   -1.5919 H   0  0  0  0  0  0  0  0  0  0  0  0
   11.5390    1.7028   -2.9283 H   0  0  0  0  0  0  0  0  0  0  0  0
   12.0175    1.9993   -5.3814 H   0  0  0  0  0  0  0  0  0  0  0  0
   10.8835   -2.1020   -6.0913 H   0  0  0  0  0  0  0  0  0  0  0  0
    7.6823   -4.0132   -0.1354 H   0  0  0  0  0  0  0  0  0  0  0  0
    5.9527   -3.9582   -0.5651 H   0  0  0  0  0  0  0  0  0  0  0  0
    4.2175   -3.7407    1.2578 H   0  0  0  0  0  0  0  0  0  0  0  0
    3.5979   -4.4465    3.5680 H   0  0  0  0  0  0  0  0  0  0  0  0
    5.3674   -5.1723    5.1702 H   0  0  0  0  0  0  0  0  0  0  0  0
    7.7558   -5.1958    4.4498 H   0  0  0  0  0  0  0  0  0  0  0  0
    8.3698   -4.4846    2.1536 H   0  0  0  0  0  0  0  0  0  0  0  0
    7.1775    2.3394   -0.5611 H   0  0  0  0  0  0  0  0  0  0  0  0
    5.6230    3.0376    0.0126 H   0  0  0  0  0  0  0  0  0  0  0  0
    5.9325    2.9019   -1.7346 H   0  0  0  0  0  0  0  0  0  0  0  0
  1  2  1  0
  1 34  1  0
  1 35  1  0
  1 36  1  0
  2  3  1  0
  2 32  1  0
  3  4  2  0
  3  5  1  0
  5  6  2  0
  5 22  1  0
  6  7  1  0
  6 30  1  0
  7  8  2  0
  8  9  1  0
  8 22  1  0
  9 10  1  0
 10 11  1  0
 10 37  1  0
 10 38  1  0
 11 12  2  0
 11 13  1  0
 13 14  1  0
 13 39  1  0
 14 15  2  0
 14 20  1  0
 15 16  1  0
 15 40  1  0
 16 17  2  0
 16 41  1  0
 17 18  1  0
 17 19  1  0
 19 20  2  0
 19 42  1  0
 20 21  1  0
 22 23  1  0
 23 24  1  0
 23 43  1  0
 23 44  1  0
 24 25  2  0
 24 29  1  0
 25 26  1  0
 25 45  1  0
 26 27  2  0
 26 46  1  0
 27 28  1  0
 27 47  1  0
 28 29  2  0
 28 48  1  0
 29 49  1  0
 30 31  1  0
 30 32  1  0
 31 50  1  0
 31 51  1  0
 31 52  1  0
 32 33  2  0
M  END

