
     RDKit          3D

 40 41  0  0  0  0  0  0  0  0999 V2000
    1.1140   -0.2807    0.4864 C   0  0  0  0  0  0  0  0  0  0  0  0
    2.5179   -0.2030    0.3468 O   0  0  0  0  0  0  0  0  0  0  0  0
    3.0996    0.9870    0.0954 C   0  0  0  0  0  0  0  0  0  0  0  0
    2.4046    2.1981   -0.0495 C   0  0  0  0  0  0  0  0  0  0  0  0
    3.1205    3.3683   -0.3061 C   0  0  0  0  0  0  0  0  0  0  0  0
    4.5112    3.3442   -0.4215 C   0  0  0  0  0  0  0  0  0  0  0  0
    5.4198    4.8530   -0.7561 S   0  0  1  0  0  0  0  0  0  0  0  0
    6.3353    5.0643    0.3917 O   0  0  0  0  0  0  0  0  0  0  0  0
    5.9634    4.7917   -2.1147 O   0  0  0  0  0  0  0  0  0  0  0  0
    4.2934    6.0828   -0.6791 N   0  0  0  0  0  0  0  0  0  0  0  0
    3.9208    6.8388   -1.8506 C   0  0  1  0  0  0  0  0  0  0  0  0
    3.6609    8.3167   -1.6918 C   0  0  0  0  0  0  0  0  0  0  0  0
    4.8404    7.8496   -2.5157 C   0  0  1  0  0  0  0  0  0  0  0  0
    6.2366    8.0615   -1.9598 C   0  0  0  0  0  0  0  0  0  0  0  0
    4.7468    7.9511   -4.0270 C   0  0  0  0  0  0  0  0  0  0  0  0
    5.2305    2.1316   -0.2878 C   0  0  0  0  0  0  0  0  0  0  0  0
    6.7426    2.0247   -0.3725 C   0  0  0  0  0  0  0  0  0  0  0  0
    7.3794    1.8719    1.0228 C   0  0  0  0  0  0  0  0  0  0  0  0
    7.7942    0.8142    1.4210 O   0  0  0  0  0  0  0  0  0  0  0  0
    7.4149    2.9733    1.7736 O   0  0  0  0  0  0  0  0  0  0  0  0
    4.5009    0.9733   -0.0234 C   0  0  0  0  0  0  0  0  0  0  0  0
    0.8797   -1.3348    0.6837 H   0  0  0  0  0  0  0  0  0  0  0  0
    0.5938    0.0363   -0.4348 H   0  0  0  0  0  0  0  0  0  0  0  0
    0.7535    0.3312    1.3321 H   0  0  0  0  0  0  0  0  0  0  0  0
    1.3195    2.2456    0.0363 H   0  0  0  0  0  0  0  0  0  0  0  0
    2.5907    4.3156   -0.4101 H   0  0  0  0  0  0  0  0  0  0  0  0
    4.3286    6.5576    0.2193 H   0  0  0  0  0  0  0  0  0  0  0  0
    3.2467    6.2897   -2.5167 H   0  0  0  0  0  0  0  0  0  0  0  0
    3.8718    8.7624   -0.7138 H   0  0  0  0  0  0  0  0  0  0  0  0
    2.7823    8.7357   -2.1910 H   0  0  0  0  0  0  0  0  0  0  0  0
    6.2797    7.9196   -0.8699 H   0  0  0  0  0  0  0  0  0  0  0  0
    6.5871    9.0832   -2.1803 H   0  0  0  0  0  0  0  0  0  0  0  0
    6.9412    7.3457   -2.4102 H   0  0  0  0  0  0  0  0  0  0  0  0
    3.7196    7.7789   -4.3860 H   0  0  0  0  0  0  0  0  0  0  0  0
    5.4020    7.2040   -4.5039 H   0  0  0  0  0  0  0  0  0  0  0  0
    5.0580    8.9506   -4.3745 H   0  0  0  0  0  0  0  0  0  0  0  0
    7.1789    2.8816   -0.9030 H   0  0  0  0  0  0  0  0  0  0  0  0
    7.0099    1.1171   -0.9283 H   0  0  0  0  0  0  0  0  0  0  0  0
    7.0527    3.7577    1.3013 H   0  0  0  0  0  0  0  0  0  0  0  0
    5.0182    0.0201    0.1044 H   0  0  0  0  0  0  0  0  0  0  0  0
  1  2  1  0
  1 22  1  0
  1 23  1  0
  1 24  1  0
  2  3  1  0
  3  4  2  0
  3 21  1  0
  4  5  1  0
  4 25  1  0
  5  6  2  0
  5 26  1  0
  6  7  1  0
  6 16  1  0
  7  8  2  0
  7  9  2  0
  7 10  1  6
 10 11  1  0
 10 27  1  0
 11 12  1  0
 11 13  1  0
 11 28  1  6
 12 13  1  0
 12 29  1  0
 12 30  1  0
 13 14  1  1
 13 15  1  0
 14 31  1  0
 14 32  1  0
 14 33  1  0
 15 34  1  0
 15 35  1  0
 15 36  1  0
 16 17  1  0
 16 21  2  0
 17 18  1  0
 17 37  1  0
 17 38  1  0
 18 19  2  0
 18 20  1  0
 20 39  1  0
 21 40  1  0
M  END

