
     RDKit          3D

 37 38  0  0  0  0  0  0  0  0999 V2000
    8.9753   -2.4010   -0.2145 C   0  0  0  0  0  0  0  0  0  0  0  0
    7.6614   -2.7437   -0.5952 O   0  0  0  0  0  0  0  0  0  0  0  0
    7.2229   -2.4213   -1.8351 C   0  0  0  0  0  0  0  0  0  0  0  0
    7.9929   -1.7672   -2.8072 C   0  0  0  0  0  0  0  0  0  0  0  0
    7.4224   -1.4805   -4.0504 C   0  0  0  0  0  0  0  0  0  0  0  0
    6.1059   -1.8439   -4.3323 C   0  0  0  0  0  0  0  0  0  0  0  0
    5.4004   -1.3739   -6.0504 Br  0  0  0  0  0  0  0  0  0  0  0  0
    5.3125   -2.5137   -3.3730 C   0  0  0  0  0  0  0  0  0  0  0  0
    3.8671   -2.8988   -3.6494 C   0  0  0  0  0  0  0  0  0  0  0  0
    3.3270   -4.0122   -2.7503 C   0  0  0  0  0  0  0  0  0  0  0  0
    2.7928   -3.6932   -1.6987 O   0  0  0  0  0  0  0  0  0  0  0  0
    3.3812   -5.4501   -3.1655 C   0  0  0  0  0  0  0  0  0  0  0  0
    2.5566   -6.3104   -2.3977 C   0  0  0  0  0  0  0  0  0  0  0  0
    2.4157   -7.6583   -2.6982 C   0  0  0  0  0  0  0  0  0  0  0  0
    1.6303   -8.5372   -2.0163 O   0  0  0  0  0  0  0  0  0  0  0  0
    0.8934   -8.0658   -0.9124 C   0  0  0  0  0  0  0  0  0  0  0  0
    3.1292   -8.1807   -3.7956 C   0  0  0  0  0  0  0  0  0  0  0  0
    3.9673   -7.3663   -4.5350 C   0  0  0  0  0  0  0  0  0  0  0  0
    4.1347   -5.9903   -4.2420 C   0  0  0  0  0  0  0  0  0  0  0  0
    4.9954   -5.2487   -5.0403 N   0  0  0  0  0  0  0  0  0  0  0  0
    5.8981   -2.7833   -2.1305 C   0  0  0  0  0  0  0  0  0  0  0  0
    9.1020   -2.7491    0.8192 H   0  0  0  0  0  0  0  0  0  0  0  0
    9.1410   -1.3090   -0.2469 H   0  0  0  0  0  0  0  0  0  0  0  0
    9.7305   -2.8946   -0.8527 H   0  0  0  0  0  0  0  0  0  0  0  0
    9.0242   -1.4719   -2.6154 H   0  0  0  0  0  0  0  0  0  0  0  0
    8.0119   -0.9627   -4.8089 H   0  0  0  0  0  0  0  0  0  0  0  0
    3.7495   -3.1564   -4.7105 H   0  0  0  0  0  0  0  0  0  0  0  0
    3.2299   -2.0226   -3.4449 H   0  0  0  0  0  0  0  0  0  0  0  0
    2.0264   -5.8442   -1.5686 H   0  0  0  0  0  0  0  0  0  0  0  0
    0.3388   -8.9261   -0.5133 H   0  0  0  0  0  0  0  0  0  0  0  0
    0.1736   -7.2785   -1.2024 H   0  0  0  0  0  0  0  0  0  0  0  0
    1.5501   -7.6631   -0.1196 H   0  0  0  0  0  0  0  0  0  0  0  0
    3.0155   -9.2395   -4.0387 H   0  0  0  0  0  0  0  0  0  0  0  0
    4.5322   -7.7952   -5.3680 H   0  0  0  0  0  0  0  0  0  0  0  0
    5.5654   -5.7975   -5.6739 H   0  0  0  0  0  0  0  0  0  0  0  0
    5.5288   -4.5078   -4.5992 H   0  0  0  0  0  0  0  0  0  0  0  0
    5.3191   -3.2708   -1.3450 H   0  0  0  0  0  0  0  0  0  0  0  0
  1  2  1  0
  1 22  1  0
  1 23  1  0
  1 24  1  0
  2  3  1  0
  3  4  2  0
  3 21  1  0
  4  5  1  0
  4 25  1  0
  5  6  2  0
  5 26  1  0
  6  7  1  0
  6  8  1  0
  8  9  1  0
  8 21  2  0
  9 10  1  0
  9 27  1  0
  9 28  1  0
 10 11  2  0
 10 12  1  0
 12 13  2  0
 12 19  1  0
 13 14  1  0
 13 29  1  0
 14 15  1  0
 14 17  2  0
 15 16  1  0
 16 30  1  0
 16 31  1  0
 16 32  1  0
 17 18  1  0
 17 33  1  0
 18 19  2  0
 18 34  1  0
 19 20  1  0
 20 35  1  0
 20 36  1  0
 21 37  1  0
M  END

