
     RDKit          3D

 27 28  0  0  0  0  0  0  0  0999 V2000
    1.0362    0.2153    0.1170 C   0  0  0  0  0  0  0  0  0  0  0  0
    2.5308    0.0069   -0.1602 C   0  0  1  0  0  0  0  0  0  0  0  0
    2.8282   -1.4564   -0.5319 C   0  0  0  0  0  0  0  0  0  0  0  0
    2.2797   -1.8003   -1.7905 O   0  0  0  0  0  0  0  0  0  0  0  0
    2.8640   -1.0596   -2.8463 C   0  0  0  0  0  0  0  0  0  0  0  0
    2.6135    0.4410   -2.6803 C   0  0  0  0  0  0  0  0  0  0  0  0
    3.0455    0.9628   -1.2845 C   0  0  2  0  0  0  0  0  0  0  0  0
    4.5181    1.2368   -1.1901 C   0  0  0  0  0  0  0  0  0  0  0  0
    5.2142    2.3812   -0.9181 C   0  0  0  0  0  0  0  0  0  0  0  0
    6.5877    1.9720   -0.9828 C   0  0  0  0  0  0  0  0  0  0  0  0
    7.7012    2.7740   -0.8475 N   0  0  0  0  0  0  0  0  0  0  0  0
    6.6976    0.6890   -1.2602 N   0  0  0  0  0  0  0  0  0  0  0  0
    5.3856    0.2294   -1.4008 O   0  0  0  0  0  0  0  0  0  0  0  0
    0.7145   -0.3948    0.9762 H   0  0  0  0  0  0  0  0  0  0  0  0
    0.4235   -0.0870   -0.7455 H   0  0  0  0  0  0  0  0  0  0  0  0
    0.8102    1.2684    0.3506 H   0  0  0  0  0  0  0  0  0  0  0  0
    3.0896    0.2382    0.7635 H   0  0  0  0  0  0  0  0  0  0  0  0
    2.3704   -2.1352    0.2050 H   0  0  0  0  0  0  0  0  0  0  0  0
    3.9202   -1.6344   -0.5277 H   0  0  0  0  0  0  0  0  0  0  0  0
    2.4037   -1.4237   -3.7780 H   0  0  0  0  0  0  0  0  0  0  0  0
    3.9507   -1.2632   -2.9014 H   0  0  0  0  0  0  0  0  0  0  0  0
    1.5353    0.6339   -2.8045 H   0  0  0  0  0  0  0  0  0  0  0  0
    3.1320    1.0028   -3.4745 H   0  0  0  0  0  0  0  0  0  0  0  0
    2.5729    1.9456   -1.1290 H   0  0  0  0  0  0  0  0  0  0  0  0
    4.8173    3.3733   -0.7191 H   0  0  0  0  0  0  0  0  0  0  0  0
    7.6103    3.5417   -0.1920 H   0  0  0  0  0  0  0  0  0  0  0  0
    8.5718    2.2619   -0.7421 H   0  0  0  0  0  0  0  0  0  0  0  0
  1  2  1  0
  1 14  1  0
  1 15  1  0
  1 16  1  0
  2  3  1  0
  2  7  1  0
  2 17  1  1
  3  4  1  0
  3 18  1  0
  3 19  1  0
  4  5  1  0
  5  6  1  0
  5 20  1  0
  5 21  1  0
  6  7  1  0
  6 22  1  0
  6 23  1  0
  7  8  1  0
  7 24  1  1
  8  9  2  0
  8 13  1  0
  9 10  1  0
  9 25  1  0
 10 11  1  0
 10 12  2  0
 11 26  1  0
 11 27  1  0
 12 13  1  0
M  END

