
     RDKit          3D

 33 33  0  0  0  0  0  0  0  0999 V2000
    1.4328   -0.4081   -1.1108 C   0  0  0  0  0  0  0  0  0  0  0  0
    2.4088    0.0016   -0.0047 C   0  0  1  0  0  0  0  0  0  0  0  0
    1.7513    0.9604    1.0030 C   0  0  0  0  0  0  0  0  0  0  0  0
    2.6966    1.4654    2.0893 C   0  0  0  0  0  0  0  0  0  0  0  0
    2.0493    2.4768    3.0235 C   0  0  0  0  0  0  0  0  0  0  0  0
    0.9042    2.8320    2.9622 O   0  0  0  0  0  0  0  0  0  0  0  0
    2.8691    2.9768    3.9797 O   0  0  0  0  0  0  0  0  0  0  0  0
    2.9632   -1.1900    0.6352 N   0  0  0  0  0  0  0  0  0  0  0  0
    4.2895   -1.3271    0.9440 C   0  0  0  0  0  0  0  0  0  0  0  0
    5.1013   -0.4279    0.7684 O   0  0  0  0  0  0  0  0  0  0  0  0
    4.6997   -2.6520    1.5353 C   0  0  0  0  0  0  0  0  0  0  0  0
    5.8673   -2.6793    2.3118 C   0  0  0  0  0  0  0  0  0  0  0  0
    6.2896   -3.8803    2.8784 C   0  0  0  0  0  0  0  0  0  0  0  0
    5.5648   -5.0518    2.6632 C   0  0  0  0  0  0  0  0  0  0  0  0
    6.1233   -6.5587    3.3697 Cl  0  0  0  0  0  0  0  0  0  0  0  0
    4.3943   -5.0665    1.8687 C   0  0  0  0  0  0  0  0  0  0  0  0
    3.6689   -6.2207    1.6747 N   0  0  0  0  0  0  0  0  0  0  0  0
    3.9869   -3.8366    1.3132 C   0  0  0  0  0  0  0  0  0  0  0  0
    1.0437    0.4778   -1.6355 H   0  0  0  0  0  0  0  0  0  0  0  0
    0.5658   -0.9514   -0.6962 H   0  0  0  0  0  0  0  0  0  0  0  0
    1.9258   -1.0581   -1.8496 H   0  0  0  0  0  0  0  0  0  0  0  0
    3.2747    0.5122   -0.4536 H   0  0  0  0  0  0  0  0  0  0  0  0
    0.8815    0.4710    1.4750 H   0  0  0  0  0  0  0  0  0  0  0  0
    1.3421    1.8241    0.4545 H   0  0  0  0  0  0  0  0  0  0  0  0
    3.6010    1.9154    1.6429 H   0  0  0  0  0  0  0  0  0  0  0  0
    3.0671    0.6267    2.7050 H   0  0  0  0  0  0  0  0  0  0  0  0
    3.7575    2.6020    3.8923 H   0  0  0  0  0  0  0  0  0  0  0  0
    2.3163   -1.9088    0.9377 H   0  0  0  0  0  0  0  0  0  0  0  0
    6.4304   -1.7564    2.4543 H   0  0  0  0  0  0  0  0  0  0  0  0
    7.1924   -3.9242    3.4903 H   0  0  0  0  0  0  0  0  0  0  0  0
    4.1358   -7.0945    1.8866 H   0  0  0  0  0  0  0  0  0  0  0  0
    3.0372   -6.2489    0.8846 H   0  0  0  0  0  0  0  0  0  0  0  0
    3.1038   -3.8379    0.6684 H   0  0  0  0  0  0  0  0  0  0  0  0
  1  2  1  0
  1 19  1  0
  1 20  1  0
  1 21  1  0
  2  3  1  0
  2  8  1  0
  2 22  1  6
  3  4  1  0
  3 23  1  0
  3 24  1  0
  4  5  1  0
  4 25  1  0
  4 26  1  0
  5  6  2  0
  5  7  1  0
  7 27  1  0
  8  9  1  0
  8 28  1  0
  9 10  2  0
  9 11  1  0
 11 12  2  0
 11 18  1  0
 12 13  1  0
 12 29  1  0
 13 14  2  0
 13 30  1  0
 14 15  1  0
 14 16  1  0
 16 17  1  0
 16 18  2  0
 17 31  1  0
 17 32  1  0
 18 33  1  0
M  END

