
     RDKit          3D

 32 33  0  0  0  0  0  0  0  0999 V2000
    4.1574    0.5031   -5.0369 N   0  0  0  0  0  0  0  0  0  0  0  0
    4.8850   -0.1810   -4.4443 C   0  0  0  0  0  0  0  0  0  0  0  0
    5.7848   -1.0269   -3.7091 C   0  0  0  0  0  0  0  0  0  0  0  0
    6.9854   -1.4623   -4.2972 C   0  0  0  0  0  0  0  0  0  0  0  0
    7.8489   -2.2813   -3.5683 C   0  0  0  0  0  0  0  0  0  0  0  0
    7.5277   -2.6676   -2.2653 C   0  0  0  0  0  0  0  0  0  0  0  0
    6.3288   -2.2409   -1.6662 C   0  0  0  0  0  0  0  0  0  0  0  0
    5.9785   -2.6829   -0.2550 C   0  0  0  0  0  0  0  0  0  0  0  0
    5.5304   -4.0655   -0.1612 N   0  0  0  0  0  0  0  0  0  0  0  0
    6.3986   -5.0917    0.0425 C   0  0  0  0  0  0  0  0  0  0  0  0
    7.6017   -4.9558    0.2098 O   0  0  0  0  0  0  0  0  0  0  0  0
    5.7356   -6.4809    0.0324 C   0  0  0  0  0  0  0  0  0  0  0  0
    5.3885   -6.9174   -1.3147 N   0  0  0  0  0  0  0  0  0  0  0  0
    6.2915   -7.7612   -2.0702 C   0  0  0  0  0  0  0  0  0  0  0  0
    5.5973   -7.8678   -3.7761 S   0  0  0  0  0  0  0  0  0  0  0  0
    3.9909   -7.1779   -3.2398 C   0  0  0  0  0  0  0  0  0  0  0  0
    4.2114   -6.5260   -1.8807 C   0  0  0  0  0  0  0  0  0  0  0  0
    3.4177   -5.7651   -1.3462 O   0  0  0  0  0  0  0  0  0  0  0  0
    5.4641   -1.4199   -2.3952 C   0  0  0  0  0  0  0  0  0  0  0  0
    7.2323   -1.1546   -5.3150 H   0  0  0  0  0  0  0  0  0  0  0  0
    8.7851   -2.6175   -4.0204 H   0  0  0  0  0  0  0  0  0  0  0  0
    8.2033   -3.3092   -1.6941 H   0  0  0  0  0  0  0  0  0  0  0  0
    5.1888   -2.0353    0.1549 H   0  0  0  0  0  0  0  0  0  0  0  0
    6.8638   -2.5889    0.3904 H   0  0  0  0  0  0  0  0  0  0  0  0
    4.5736   -4.3066   -0.4243 H   0  0  0  0  0  0  0  0  0  0  0  0
    4.8137   -6.4658    0.6344 H   0  0  0  0  0  0  0  0  0  0  0  0
    6.4490   -7.1899    0.4710 H   0  0  0  0  0  0  0  0  0  0  0  0
    6.3734   -8.7633   -1.6121 H   0  0  0  0  0  0  0  0  0  0  0  0
    7.2982   -7.3172   -2.1230 H   0  0  0  0  0  0  0  0  0  0  0  0
    3.2101   -7.9509   -3.1439 H   0  0  0  0  0  0  0  0  0  0  0  0
    3.6369   -6.4216   -3.9539 H   0  0  0  0  0  0  0  0  0  0  0  0
    4.5292   -1.0721   -1.9490 H   0  0  0  0  0  0  0  0  0  0  0  0
  1  2  3  0
  2  3  1  0
  3  4  2  0
  3 19  1  0
  4  5  1  0
  4 20  1  0
  5  6  2  0
  5 21  1  0
  6  7  1  0
  6 22  1  0
  7  8  1  0
  7 19  2  0
  8  9  1  0
  8 23  1  0
  8 24  1  0
  9 10  1  0
  9 25  1  0
 10 11  2  0
 10 12  1  0
 12 13  1  0
 12 26  1  0
 12 27  1  0
 13 14  1  0
 13 17  1  0
 14 15  1  0
 14 28  1  0
 14 29  1  0
 15 16  1  0
 16 17  1  0
 16 30  1  0
 16 31  1  0
 17 18  2  0
 19 32  1  0
M  END

