
     RDKit          3D

 36 38  0  0  0  0  0  0  0  0999 V2000
    3.5132   -0.3944   -0.7287 C   0  0  0  0  0  0  0  0  0  0  0  0
    2.3530    0.3099   -0.0132 C   0  0  1  0  0  0  0  0  0  0  0  0
    1.1957   -0.6479    0.2988 C   0  0  0  0  0  0  0  0  0  0  0  0
    2.8022    1.0260    1.1772 N   0  0  0  0  0  0  0  0  0  0  0  0
    3.3893    0.3927    2.3438 C   0  0  0  0  0  0  0  0  0  0  0  0
    3.6737    1.5586    3.2596 C   0  0  0  0  0  0  0  0  0  0  0  0
    4.2331    1.5595    4.5321 C   0  0  0  0  0  0  0  0  0  0  0  0
    4.3927    2.7848    5.2106 C   0  0  0  0  0  0  0  0  0  0  0  0
    4.9856    2.8282    6.5747 C   0  0  0  0  0  0  0  0  0  0  0  0
    6.0423    1.9689    6.9312 C   0  0  0  0  0  0  0  0  0  0  0  0
    6.5992    2.0075    8.2110 C   0  0  0  0  0  0  0  0  0  0  0  0
    6.1109    2.9054    9.1648 C   0  0  0  0  0  0  0  0  0  0  0  0
    5.0614    3.7649    8.8264 C   0  0  0  0  0  0  0  0  0  0  0  0
    4.5059    3.7275    7.5460 C   0  0  0  0  0  0  0  0  0  0  0  0
    3.9803    3.9742    4.5761 C   0  0  0  0  0  0  0  0  0  0  0  0
    3.4182    3.9598    3.2964 C   0  0  0  0  0  0  0  0  0  0  0  0
    2.9389    5.4666    2.5684 Cl  0  0  0  0  0  0  0  0  0  0  0  0
    3.2633    2.7398    2.6316 C   0  0  0  0  0  0  0  0  0  0  0  0
    2.7016    2.4057    1.2843 C   0  0  0  0  0  0  0  0  0  0  0  0
    2.2461    3.1495    0.4388 O   0  0  0  0  0  0  0  0  0  0  0  0
    3.1666   -0.8333   -1.6775 H   0  0  0  0  0  0  0  0  0  0  0  0
    3.9330   -1.2147   -0.1222 H   0  0  0  0  0  0  0  0  0  0  0  0
    4.3229    0.3153   -0.9575 H   0  0  0  0  0  0  0  0  0  0  0  0
    1.9749    1.1094   -0.6690 H   0  0  0  0  0  0  0  0  0  0  0  0
    1.5139   -1.4779    0.9520 H   0  0  0  0  0  0  0  0  0  0  0  0
    0.8071   -1.0931   -0.6306 H   0  0  0  0  0  0  0  0  0  0  0  0
    0.3684   -0.1166    0.7940 H   0  0  0  0  0  0  0  0  0  0  0  0
    4.3149   -0.1594    2.0944 H   0  0  0  0  0  0  0  0  0  0  0  0
    2.6984   -0.3314    2.8153 H   0  0  0  0  0  0  0  0  0  0  0  0
    4.5222    0.6238    5.0156 H   0  0  0  0  0  0  0  0  0  0  0  0
    6.4512    1.2800    6.1884 H   0  0  0  0  0  0  0  0  0  0  0  0
    7.4257    1.3375    8.4615 H   0  0  0  0  0  0  0  0  0  0  0  0
    6.5463    2.9356   10.1667 H   0  0  0  0  0  0  0  0  0  0  0  0
    4.6664    4.4655    9.5665 H   0  0  0  0  0  0  0  0  0  0  0  0
    3.6709    4.3887    7.3034 H   0  0  0  0  0  0  0  0  0  0  0  0
    4.1182    4.9353    5.0725 H   0  0  0  0  0  0  0  0  0  0  0  0
  1  2  1  0
  1 21  1  0
  1 22  1  0
  1 23  1  0
  2  3  1  0
  2  4  1  0
  2 24  1  6
  3 25  1  0
  3 26  1  0
  3 27  1  0
  4  5  1  0
  4 19  1  0
  5  6  1  0
  5 28  1  0
  5 29  1  0
  6  7  2  0
  6 18  1  0
  7  8  1  0
  7 30  1  0
  8  9  1  0
  8 15  2  0
  9 10  2  0
  9 14  1  0
 10 11  1  0
 10 31  1  0
 11 12  2  0
 11 32  1  0
 12 13  1  0
 12 33  1  0
 13 14  2  0
 13 34  1  0
 14 35  1  0
 15 16  1  0
 15 36  1  0
 16 17  1  0
 16 18  2  0
 18 19  1  0
 19 20  2  0
M  END

