
     RDKit          3D

 56 57  0  0  0  0  0  0  0  0999 V2000
    7.8435    0.1392    3.7037 C   0  0  0  0  0  0  0  0  0  0  0  0
    7.7758   -0.5892    2.3536 C   0  0  1  0  0  0  0  0  0  0  0  0
    8.5799   -1.9049    2.4340 C   0  0  0  0  0  0  0  0  0  0  0  0
    6.3030   -0.8906    2.0017 C   0  0  0  0  0  0  0  0  0  0  0  0
    8.3956    0.3318    1.2721 C   0  0  0  0  0  0  0  0  0  0  0  0
    8.8618    1.4322    1.5304 O   0  0  0  0  0  0  0  0  0  0  0  0
    8.4015   -0.1553   -0.0051 N   0  0  0  0  0  0  0  0  0  0  0  0
    8.9975    0.5847   -1.1040 C   0  0  0  0  0  0  0  0  0  0  0  0
    8.1554    1.7844   -1.5601 C   0  0  0  0  0  0  0  0  0  0  0  0
    8.7211    2.4020   -2.8355 C   0  0  0  0  0  0  0  0  0  0  0  0
    9.1208    1.7082   -3.7561 O   0  0  0  0  0  0  0  0  0  0  0  0
    8.7191    3.7771   -2.8492 N   0  0  0  0  0  0  0  0  0  0  0  0
    9.1227    4.6602   -3.8703 C   0  0  0  0  0  0  0  0  0  0  0  0
    9.0098    6.0414   -3.6199 C   0  0  0  0  0  0  0  0  0  0  0  0
    9.3909    6.9608   -4.5926 C   0  0  0  0  0  0  0  0  0  0  0  0
    9.8902    6.5302   -5.8267 C   0  0  0  0  0  0  0  0  0  0  0  0
   10.0049    5.1602   -6.0802 C   0  0  0  0  0  0  0  0  0  0  0  0
   10.5489    4.6279   -7.3877 C   0  0  0  0  0  0  0  0  0  0  0  0
   10.7982    5.6894   -8.2861 O   0  0  0  0  0  0  0  0  0  0  0  0
   11.3001    5.4221   -9.5176 C   0  0  0  0  0  0  0  0  0  0  0  0
   11.5971    4.1394   -9.9974 C   0  0  0  0  0  0  0  0  0  0  0  0
   12.1130    3.9800  -11.2905 C   0  0  0  0  0  0  0  0  0  0  0  0
   12.3410    5.0776  -12.1219 C   0  0  0  0  0  0  0  0  0  0  0  0
   12.9005    4.9485  -13.5334 C   0  0  0  0  0  0  0  0  0  0  0  0
   13.1846    3.5785  -13.9644 C   0  0  0  0  0  0  0  0  0  0  0  0
   13.4096    2.4946  -14.3060 N   0  0  0  0  0  0  0  0  0  0  0  0
   12.0384    6.3596  -11.6286 C   0  0  0  0  0  0  0  0  0  0  0  0
   11.5266    6.5347  -10.3493 C   0  0  0  0  0  0  0  0  0  0  0  0
    9.6224    4.2255   -5.1070 C   0  0  0  0  0  0  0  0  0  0  0  0
    7.4128   -0.4927    4.4967 H   0  0  0  0  0  0  0  0  0  0  0  0
    7.2886    1.0879    3.6707 H   0  0  0  0  0  0  0  0  0  0  0  0
    8.8820    0.3808    3.9713 H   0  0  0  0  0  0  0  0  0  0  0  0
    8.1802   -2.5458    3.2367 H   0  0  0  0  0  0  0  0  0  0  0  0
    9.6408   -1.7090    2.6559 H   0  0  0  0  0  0  0  0  0  0  0  0
    8.5341   -2.4844    1.4979 H   0  0  0  0  0  0  0  0  0  0  0  0
    5.8409   -1.4997    2.7955 H   0  0  0  0  0  0  0  0  0  0  0  0
    6.1994   -1.4516    1.0589 H   0  0  0  0  0  0  0  0  0  0  0  0
    5.7179    0.0379    1.9068 H   0  0  0  0  0  0  0  0  0  0  0  0
    8.0035   -1.0654   -0.1947 H   0  0  0  0  0  0  0  0  0  0  0  0
    9.1405   -0.0958   -1.9546 H   0  0  0  0  0  0  0  0  0  0  0  0
    9.9911    0.9445   -0.7916 H   0  0  0  0  0  0  0  0  0  0  0  0
    8.0840    2.5128   -0.7389 H   0  0  0  0  0  0  0  0  0  0  0  0
    7.1315    1.4407   -1.7917 H   0  0  0  0  0  0  0  0  0  0  0  0
    8.3803    4.2245   -2.0057 H   0  0  0  0  0  0  0  0  0  0  0  0
    8.6211    6.3895   -2.6582 H   0  0  0  0  0  0  0  0  0  0  0  0
    9.2980    8.0302   -4.3867 H   0  0  0  0  0  0  0  0  0  0  0  0
   10.1887    7.2480   -6.5902 H   0  0  0  0  0  0  0  0  0  0  0  0
    9.8257    3.9151   -7.8283 H   0  0  0  0  0  0  0  0  0  0  0  0
   11.4821    4.0626   -7.1982 H   0  0  0  0  0  0  0  0  0  0  0  0
   11.4341    3.2549   -9.3823 H   0  0  0  0  0  0  0  0  0  0  0  0
   12.3384    2.9721  -11.6470 H   0  0  0  0  0  0  0  0  0  0  0  0
   13.8358    5.5282  -13.6266 H   0  0  0  0  0  0  0  0  0  0  0  0
   12.1980    5.3887  -14.2631 H   0  0  0  0  0  0  0  0  0  0  0  0
   12.2070    7.2381  -12.2588 H   0  0  0  0  0  0  0  0  0  0  0  0
   11.2911    7.5292   -9.9654 H   0  0  0  0  0  0  0  0  0  0  0  0
    9.7069    3.1559   -5.2920 H   0  0  0  0  0  0  0  0  0  0  0  0
  1  2  1  0
  1 30  1  0
  1 31  1  0
  1 32  1  0
  2  3  1  0
  2  4  1  0
  2  5  1  6
  3 33  1  0
  3 34  1  0
  3 35  1  0
  4 36  1  0
  4 37  1  0
  4 38  1  0
  5  6  2  0
  5  7  1  0
  7  8  1  0
  7 39  1  0
  8  9  1  0
  8 40  1  0
  8 41  1  0
  9 10  1  0
  9 42  1  0
  9 43  1  0
 10 11  2  0
 10 12  1  0
 12 13  1  0
 12 44  1  0
 13 14  2  0
 13 29  1  0
 14 15  1  0
 14 45  1  0
 15 16  2  0
 15 46  1  0
 16 17  1  0
 16 47  1  0
 17 18  1  0
 17 29  2  0
 18 19  1  0
 18 48  1  0
 18 49  1  0
 19 20  1  0
 20 21  2  0
 20 28  1  0
 21 22  1  0
 21 50  1  0
 22 23  2  0
 22 51  1  0
 23 24  1  0
 23 27  1  0
 24 25  1  0
 24 52  1  0
 24 53  1  0
 25 26  3  0
 27 28  2  0
 27 54  1  0
 28 55  1  0
 29 56  1  0
M  END

