
     RDKit          3D

 52 54  0  0  0  0  0  0  0  0999 V2000
   -0.4994   -3.6159    0.7387 C   0  0  0  0  0  0  0  0  0  0  0  0
    0.4395   -2.5467    0.6421 O   0  0  0  0  0  0  0  0  0  0  0  0
    0.5650   -1.9895   -0.5782 C   0  0  0  0  0  0  0  0  0  0  0  0
   -0.1155   -2.3208   -1.5232 O   0  0  0  0  0  0  0  0  0  0  0  0
    1.5911   -0.9204   -0.6485 C   0  0  0  0  0  0  0  0  0  0  0  0
    1.7074   -0.1273   -1.8368 C   0  0  0  0  0  0  0  0  0  0  0  0
    2.6712    0.8426   -1.7778 C   0  0  0  0  0  0  0  0  0  0  0  0
    3.0353    1.8644   -2.8115 C   0  0  0  0  0  0  0  0  0  0  0  0
    3.5066    0.7687   -0.2452 S   0  0  0  0  0  0  0  0  0  0  0  0
    2.5073   -0.5503    0.3198 C   0  0  0  0  0  0  0  0  0  0  0  0
    2.7239   -1.0657    1.6008 N   0  0  0  0  0  0  0  0  0  0  0  0
    3.2966   -2.2961    1.8868 C   0  0  0  0  0  0  0  0  0  0  0  0
    4.0320   -3.2200    0.7046 S   0  0  0  0  0  0  0  0  0  0  0  0
    3.2142   -2.6501    3.2086 N   0  0  0  0  0  0  0  0  0  0  0  0
    2.2889   -2.0789    4.1815 C   0  0  0  0  0  0  0  0  0  0  0  0
    1.4366   -3.1844    4.8064 C   0  0  0  0  0  0  0  0  0  0  0  0
    2.2502   -4.2549    5.3781 N   0  0  0  0  0  0  0  0  0  0  0  0
    1.4827   -5.1396    6.2023 C   0  0  0  0  0  0  0  0  0  0  0  0
    0.9264   -6.3390    5.7328 C   0  0  0  0  0  0  0  0  0  0  0  0
    0.1655   -7.1519    6.5798 C   0  0  0  0  0  0  0  0  0  0  0  0
   -0.0840   -6.7916    7.9108 C   0  0  0  0  0  0  0  0  0  0  0  0
   -0.9110   -7.6621    8.8257 C   0  0  0  0  0  0  0  0  0  0  0  0
    0.4678   -5.5831    8.3714 C   0  0  0  0  0  0  0  0  0  0  0  0
    1.2421   -4.7775    7.5388 C   0  0  0  0  0  0  0  0  0  0  0  0
    3.1709   -4.8484    4.3948 C   0  0  2  0  0  0  0  0  0  0  0  0
    2.6105   -5.3288    3.5619 H   0  0  0  0  0  0  0  0  0  0  0  0
    4.1096   -5.8735    5.0315 C   0  0  0  0  0  0  0  0  0  0  0  0
    4.0160   -3.7286    3.7705 C   0  0  0  0  0  0  0  0  0  0  0  0
   -0.4824   -3.9447    1.7854 H   0  0  0  0  0  0  0  0  0  0  0  0
   -0.2130   -4.4468    0.0765 H   0  0  0  0  0  0  0  0  0  0  0  0
   -1.5098   -3.2806    0.4593 H   0  0  0  0  0  0  0  0  0  0  0  0
    1.0591   -0.2887   -2.6986 H   0  0  0  0  0  0  0  0  0  0  0  0
    2.3938    1.7407   -3.6964 H   0  0  0  0  0  0  0  0  0  0  0  0
    4.0839    1.7654   -3.1382 H   0  0  0  0  0  0  0  0  0  0  0  0
    2.9030    2.8938   -2.4381 H   0  0  0  0  0  0  0  0  0  0  0  0
    2.6301   -0.4054    2.3653 H   0  0  0  0  0  0  0  0  0  0  0  0
    1.6119   -1.3660    3.6957 H   0  0  0  0  0  0  0  0  0  0  0  0
    2.8519   -1.5524    4.9756 H   0  0  0  0  0  0  0  0  0  0  0  0
    0.7463   -3.5749    4.0248 H   0  0  0  0  0  0  0  0  0  0  0  0
    0.8118   -2.7478    5.6002 H   0  0  0  0  0  0  0  0  0  0  0  0
    1.0854   -6.6479    4.6974 H   0  0  0  0  0  0  0  0  0  0  0  0
   -0.2492   -8.0861    6.1899 H   0  0  0  0  0  0  0  0  0  0  0  0
   -1.2333   -8.5860    8.3231 H   0  0  0  0  0  0  0  0  0  0  0  0
   -1.8167   -7.1352    9.1710 H   0  0  0  0  0  0  0  0  0  0  0  0
   -0.3450   -7.9500    9.7275 H   0  0  0  0  0  0  0  0  0  0  0  0
    0.3007   -5.2761    9.4084 H   0  0  0  0  0  0  0  0  0  0  0  0
    1.6871   -3.8537    7.9169 H   0  0  0  0  0  0  0  0  0  0  0  0
    3.5696   -6.7410    5.4330 H   0  0  0  0  0  0  0  0  0  0  0  0
    4.6719   -5.4132    5.8595 H   0  0  0  0  0  0  0  0  0  0  0  0
    4.8285   -6.2397    4.2825 H   0  0  0  0  0  0  0  0  0  0  0  0
    4.6402   -4.1359    2.9664 H   0  0  0  0  0  0  0  0  0  0  0  0
    4.6674   -3.3047    4.5584 H   0  0  0  0  0  0  0  0  0  0  0  0
  1  2  1  0
  1 29  1  0
  1 30  1  0
  1 31  1  0
  2  3  1  0
  3  4  2  0
  3  5  1  0
  5  6  1  0
  5 10  2  0
  6  7  2  0
  6 32  1  0
  7  8  1  0
  7  9  1  0
  8 33  1  0
  8 34  1  0
  8 35  1  0
  9 10  1  0
 10 11  1  0
 11 12  1  0
 11 36  1  0
 12 13  2  0
 12 14  1  0
 14 15  1  0
 14 28  1  0
 15 16  1  0
 15 37  1  0
 15 38  1  0
 16 17  1  0
 16 39  1  0
 16 40  1  0
 17 18  1  0
 17 25  1  0
 18 19  2  0
 18 24  1  0
 19 20  1  0
 19 41  1  0
 20 21  2  0
 20 42  1  0
 21 22  1  0
 21 23  1  0
 22 43  1  0
 22 44  1  0
 22 45  1  0
 23 24  2  0
 23 46  1  0
 24 47  1  0
 25 26  1  6
 25 27  1  0
 25 28  1  0
 27 48  1  0
 27 49  1  0
 27 50  1  0
 28 51  1  0
 28 52  1  0
M  END

