
     RDKit          3D

 33 34  0  0  0  0  0  0  0  0999 V2000
    1.2681   -1.3379    0.4375 C   0  0  0  0  0  0  0  0  0  0  0  0
    2.4679   -0.5089   -0.0284 C   0  0  1  0  0  0  0  0  0  0  0  0
    2.7175   -0.7549   -1.5247 C   0  0  0  0  0  0  0  0  0  0  0  0
    3.9515   -0.0910   -1.9329 N   0  0  0  0  0  0  0  0  0  0  0  0
    4.3479    0.0721   -3.5411 S   0  0  1  0  0  0  0  0  0  0  0  0
    5.8046    0.0333   -3.6113 O   0  0  0  0  0  0  0  0  0  0  0  0
    3.4870   -0.7719   -4.3689 O   0  0  0  0  0  0  0  0  0  0  0  0
    3.8243    1.7319   -3.9235 C   0  0  0  0  0  0  0  0  0  0  0  0
    2.9227    2.1702   -4.8634 C   0  0  0  0  0  0  0  0  0  0  0  0
    2.9494    3.5901   -4.7788 C   0  0  0  0  0  0  0  0  0  0  0  0
    3.8644    3.9040   -3.7978 C   0  0  0  0  0  0  0  0  0  0  0  0
    4.3288    5.1834   -3.2560 C   0  0  0  0  0  0  0  0  0  0  0  0
    3.9155    6.2562   -3.6345 O   0  0  0  0  0  0  0  0  0  0  0  0
    4.4001    2.7615   -3.2770 O   0  0  0  0  0  0  0  0  0  0  0  0
    2.3271    1.0012    0.3366 C   0  0  0  0  0  0  0  0  0  0  0  0
    3.6033    1.3273    1.1305 C   0  0  0  0  0  0  0  0  0  0  0  0
    3.9879   -0.0442    1.6865 C   0  0  0  0  0  0  0  0  0  0  0  0
    3.6576   -0.9581    0.6509 O   0  0  0  0  0  0  0  0  0  0  0  0
    0.3427   -1.0139   -0.0659 H   0  0  0  0  0  0  0  0  0  0  0  0
    1.1213   -1.2240    1.5224 H   0  0  0  0  0  0  0  0  0  0  0  0
    1.4276   -2.4058    0.2253 H   0  0  0  0  0  0  0  0  0  0  0  0
    1.8792   -0.3548   -2.1137 H   0  0  0  0  0  0  0  0  0  0  0  0
    2.7618   -1.8418   -1.7124 H   0  0  0  0  0  0  0  0  0  0  0  0
    4.7691   -0.3658   -1.3879 H   0  0  0  0  0  0  0  0  0  0  0  0
    2.3337    1.5359   -5.5207 H   0  0  0  0  0  0  0  0  0  0  0  0
    2.3774    4.3114   -5.3583 H   0  0  0  0  0  0  0  0  0  0  0  0
    5.1046    5.0852   -2.4558 H   0  0  0  0  0  0  0  0  0  0  0  0
    1.4297    1.1547    0.9560 H   0  0  0  0  0  0  0  0  0  0  0  0
    2.2223    1.6303   -0.5588 H   0  0  0  0  0  0  0  0  0  0  0  0
    3.4464    2.0828    1.9152 H   0  0  0  0  0  0  0  0  0  0  0  0
    4.3917    1.6942    0.4549 H   0  0  0  0  0  0  0  0  0  0  0  0
    3.4193   -0.2729    2.6108 H   0  0  0  0  0  0  0  0  0  0  0  0
    5.0592   -0.1561    1.9134 H   0  0  0  0  0  0  0  0  0  0  0  0
  2  1  1  1
  1 19  1  0
  1 20  1  0
  1 21  1  0
  2  3  1  0
  2 15  1  0
  2 18  1  0
  3  4  1  0
  3 22  1  0
  3 23  1  0
  5  4  1  1
  4 24  1  0
  5  6  2  0
  5  7  2  0
  5  8  1  0
  8  9  2  0
  8 14  1  0
  9 10  1  0
  9 25  1  0
 10 11  2  0
 10 26  1  0
 11 12  1  0
 11 14  1  0
 12 13  2  0
 12 27  1  0
 15 16  1  0
 15 28  1  0
 15 29  1  0
 16 17  1  0
 16 30  1  0
 16 31  1  0
 17 18  1  0
 17 32  1  0
 17 33  1  0
M  END

