
     RDKit          3D

 40 40  0  0  0  0  0  0  0  0999 V2000
    2.3174    1.9733    0.1043 C   0  0  0  0  0  0  0  0  0  0  0  0
    2.4490    0.4475    0.0978 C   0  0  0  0  0  0  0  0  0  0  0  0
    2.9496   -0.1483    1.3457 N   0  0  0  0  0  0  0  0  0  0  0  0
    2.1168   -0.2933    2.4593 C   0  0  0  0  0  0  0  0  0  0  0  0
    2.5076   -0.7296    3.5375 O   0  0  0  0  0  0  0  0  0  0  0  0
    0.8111    0.0948    2.2921 N   0  0  0  0  0  0  0  0  0  0  0  0
   -0.1441   -0.1128    3.3576 C   0  0  1  0  0  0  0  0  0  0  0  0
    0.0903   -1.0660    3.8554 H   0  0  0  0  0  0  0  0  0  0  0  0
   -0.0568    1.0146    4.4192 C   0  0  0  0  0  0  0  0  0  0  0  0
   -0.9803    0.9108    5.6383 C   0  0  0  0  0  0  0  0  0  0  0  0
   -1.1183   -0.7522    6.4100 S   0  0  0  0  0  0  0  0  0  0  0  0
    0.6315   -1.1861    6.7052 C   0  0  0  0  0  0  0  0  0  0  0  0
   -1.5352   -0.2302    2.7263 C   0  0  0  0  0  0  0  0  0  0  0  0
   -1.7803    0.1781    1.6178 O   0  0  0  0  0  0  0  0  0  0  0  0
   -2.4695   -0.7988    3.4919 O   0  0  0  0  0  0  0  0  0  0  0  0
    4.3123   -0.5613    1.4068 C   0  0  0  0  0  0  0  0  0  0  0  0
    5.2992    0.1638    0.7117 C   0  0  0  0  0  0  0  0  0  0  0  0
    6.6305   -0.2594    0.7188 C   0  0  0  0  0  0  0  0  0  0  0  0
    7.0188   -1.4002    1.4221 C   0  0  0  0  0  0  0  0  0  0  0  0
    6.0307   -2.1026    2.1082 C   0  0  0  0  0  0  0  0  0  0  0  0
    6.3745   -3.2092    2.7866 F   0  0  0  0  0  0  0  0  0  0  0  0
    4.6955   -1.7168    2.1110 C   0  0  0  0  0  0  0  0  0  0  0  0
    1.9308    2.3222   -0.8665 H   0  0  0  0  0  0  0  0  0  0  0  0
    3.2875    2.4615    0.2812 H   0  0  0  0  0  0  0  0  0  0  0  0
    1.6253    2.3187    0.8867 H   0  0  0  0  0  0  0  0  0  0  0  0
    3.1293    0.1315   -0.7042 H   0  0  0  0  0  0  0  0  0  0  0  0
    1.4798   -0.0179   -0.1506 H   0  0  0  0  0  0  0  0  0  0  0  0
    0.4087    0.3892    1.4093 H   0  0  0  0  0  0  0  0  0  0  0  0
   -0.2487    1.9795    3.9193 H   0  0  0  0  0  0  0  0  0  0  0  0
    0.9933    1.0303    4.7468 H   0  0  0  0  0  0  0  0  0  0  0  0
   -2.0224    1.1560    5.3802 H   0  0  0  0  0  0  0  0  0  0  0  0
   -0.6616    1.6347    6.4050 H   0  0  0  0  0  0  0  0  0  0  0  0
    0.6248   -2.1945    7.1425 H   0  0  0  0  0  0  0  0  0  0  0  0
    1.0762   -0.4897    7.4316 H   0  0  0  0  0  0  0  0  0  0  0  0
    1.2280   -1.1949    5.7808 H   0  0  0  0  0  0  0  0  0  0  0  0
   -2.0828   -1.1131    4.3407 H   0  0  0  0  0  0  0  0  0  0  0  0
    5.0374    1.0736    0.1721 H   0  0  0  0  0  0  0  0  0  0  0  0
    7.3791    0.3206    0.1737 H   0  0  0  0  0  0  0  0  0  0  0  0
    8.0531   -1.7463    1.4506 H   0  0  0  0  0  0  0  0  0  0  0  0
    3.9745   -2.3067    2.6704 H   0  0  0  0  0  0  0  0  0  0  0  0
  1  2  1  0
  1 23  1  0
  1 24  1  0
  1 25  1  0
  2  3  1  0
  2 26  1  0
  2 27  1  0
  3  4  1  0
  3 16  1  0
  4  5  2  0
  4  6  1  0
  6  7  1  0
  6 28  1  0
  7  8  1  1
  7  9  1  0
  7 13  1  0
  9 10  1  0
  9 29  1  0
  9 30  1  0
 10 11  1  0
 10 31  1  0
 10 32  1  0
 11 12  1  0
 12 33  1  0
 12 34  1  0
 12 35  1  0
 13 14  2  0
 13 15  1  0
 15 36  1  0
 16 17  2  0
 16 22  1  0
 17 18  1  0
 17 37  1  0
 18 19  2  0
 18 38  1  0
 19 20  1  0
 19 39  1  0
 20 21  1  0
 20 22  2  0
 22 40  1  0
M  END

