
     RDKit          3D

 36 36  0  0  0  0  0  0  0  0999 V2000
    2.4673    1.1342    0.9582 C   0  0  0  0  0  0  0  0  0  0  0  0
    2.3929   -0.3737    1.2719 C   0  0  1  0  0  0  0  0  0  0  0  0
    3.0188   -0.6487    2.6525 C   0  0  0  0  0  0  0  0  0  0  0  0
    0.9006   -0.7696    1.3320 C   0  0  0  0  0  0  0  0  0  0  0  0
    3.0179   -1.2354    0.1344 C   0  0  0  0  0  0  0  0  0  0  0  0
    4.5458   -1.3440   -0.1175 C   0  0  2  0  0  0  0  0  0  0  0  0
    4.9883   -2.1184    1.0295 O   0  0  0  0  0  0  0  0  0  0  0  0
    6.3923   -2.4149    0.9198 O   0  0  0  0  0  0  0  0  0  0  0  0
    5.3210   -0.0381   -0.1091 C   0  0  0  0  0  0  0  0  0  0  0  0
    5.8479    0.6527   -1.1312 C   0  0  0  0  0  0  0  0  0  0  0  0
    5.7201    0.3983   -2.6148 C   0  0  0  0  0  0  0  0  0  0  0  0
    4.3842   -0.2212   -3.0478 C   0  0  0  0  0  0  0  0  0  0  0  0
    4.2232   -1.7137   -2.7179 C   0  0  0  0  0  0  0  0  0  0  0  0
    4.8197   -2.1879   -1.3833 C   0  0  0  0  0  0  0  0  0  0  0  0
    1.9232    1.7112    1.7244 H   0  0  0  0  0  0  0  0  0  0  0  0
    2.0071    1.3618   -0.0179 H   0  0  0  0  0  0  0  0  0  0  0  0
    3.4999    1.5074    0.9313 H   0  0  0  0  0  0  0  0  0  0  0  0
    2.4567   -0.1117    3.4350 H   0  0  0  0  0  0  0  0  0  0  0  0
    4.0664   -0.3204    2.7058 H   0  0  0  0  0  0  0  0  0  0  0  0
    3.0023   -1.7223    2.8944 H   0  0  0  0  0  0  0  0  0  0  0  0
    0.3660   -0.1704    2.0868 H   0  0  0  0  0  0  0  0  0  0  0  0
    0.7784   -1.8323    1.5982 H   0  0  0  0  0  0  0  0  0  0  0  0
    0.4020   -0.6070    0.3618 H   0  0  0  0  0  0  0  0  0  0  0  0
    2.5598   -0.9033   -0.8100 H   0  0  0  0  0  0  0  0  0  0  0  0
    2.6873   -2.2777    0.2818 H   0  0  0  0  0  0  0  0  0  0  0  0
    6.7761   -1.7390    1.5020 H   0  0  0  0  0  0  0  0  0  0  0  0
    5.5034    0.3505    0.8993 H   0  0  0  0  0  0  0  0  0  0  0  0
    6.4283    1.5444   -0.8645 H   0  0  0  0  0  0  0  0  0  0  0  0
    6.5631   -0.2306   -2.9633 H   0  0  0  0  0  0  0  0  0  0  0  0
    5.8528    1.3626   -3.1335 H   0  0  0  0  0  0  0  0  0  0  0  0
    4.2562   -0.0850   -4.1349 H   0  0  0  0  0  0  0  0  0  0  0  0
    3.5744    0.3607   -2.5750 H   0  0  0  0  0  0  0  0  0  0  0  0
    4.7076   -2.3096   -3.5111 H   0  0  0  0  0  0  0  0  0  0  0  0
    3.1525   -1.9736   -2.7715 H   0  0  0  0  0  0  0  0  0  0  0  0
    5.9122   -2.2706   -1.4721 H   0  0  0  0  0  0  0  0  0  0  0  0
    4.4572   -3.2070   -1.1717 H   0  0  0  0  0  0  0  0  0  0  0  0
  2  1  1  6
  1 15  1  0
  1 16  1  0
  1 17  1  0
  2  3  1  0
  2  4  1  0
  2  5  1  0
  3 18  1  0
  3 19  1  0
  3 20  1  0
  4 21  1  0
  4 22  1  0
  4 23  1  0
  5  6  1  0
  5 24  1  0
  5 25  1  0
  6  7  1  1
  6  9  1  0
  6 14  1  0
  7  8  1  0
  8 26  1  0
  9 10  2  0
  9 27  1  0
 10 11  1  0
 10 28  1  0
 11 12  1  0
 11 29  1  0
 11 30  1  0
 12 13  1  0
 12 31  1  0
 12 32  1  0
 13 14  1  0
 13 33  1  0
 13 34  1  0
 14 35  1  0
 14 36  1  0
M  END

