
     RDKit          3D

 39 42  0  0  0  0  0  0  0  0999 V2000
    1.6127    0.0162   -2.0483 N   0  0  0  0  0  0  0  0  0  0  0  0
    2.5883    0.0634   -1.4184 C   0  0  0  0  0  0  0  0  0  0  0  0
    3.7929    0.1054   -0.6584 C   0  0  0  0  0  0  0  0  0  0  0  0
    4.3548    1.3047   -0.0388 C   0  0  0  0  0  0  0  0  0  0  0  0
    3.6268    2.5996   -0.0014 C   0  0  0  0  0  0  0  0  0  0  0  0
    2.2074    2.6761    0.0314 C   0  0  0  0  0  0  0  0  0  0  0  0
    1.5377    3.8934    0.1059 C   0  0  0  0  0  0  0  0  0  0  0  0
    2.3262    5.0418    0.1366 C   0  0  0  0  0  0  0  0  0  0  0  0
    1.8857    6.3210    0.1967 O   0  0  0  0  0  0  0  0  0  0  0  0
    3.0037    7.1310    0.2170 C   0  0  0  0  0  0  0  0  0  0  0  0
    2.9093    8.6082    0.3112 C   0  0  0  0  0  0  0  0  0  0  0  0
    3.9538    9.2281    0.4302 O   0  0  0  0  0  0  0  0  0  0  0  0
    1.5956    9.3437    0.2775 C   0  0  0  0  0  0  0  0  0  0  0  0
    0.3648    8.7914   -0.1214 C   0  0  0  0  0  0  0  0  0  0  0  0
   -0.7915    9.5785   -0.1509 C   0  0  0  0  0  0  0  0  0  0  0  0
   -0.7452   10.9207    0.2227 C   0  0  0  0  0  0  0  0  0  0  0  0
    0.4835   11.4568    0.6160 C   0  0  0  0  0  0  0  0  0  0  0  0
    0.5462   12.8836    1.0140 N   0  0  0  0  0  0  0  0  0  0  0  0
   -0.4924   13.5225    0.9693 O   0  0  0  0  0  0  0  0  0  0  0  0
    1.6280   13.3249    1.3597 O   0  0  0  0  0  0  0  0  0  0  0  0
    1.6475   10.6999    0.6430 C   0  0  0  0  0  0  0  0  0  0  0  0
    4.1509    6.3847    0.1724 C   0  0  0  0  0  0  0  0  0  0  0  0
    3.7393    5.0097    0.1158 C   0  0  0  0  0  0  0  0  0  0  0  0
    4.3950    3.7728    0.0583 C   0  0  0  0  0  0  0  0  0  0  0  0
    5.5511    1.2973    0.5023 N   0  0  0  0  0  0  0  0  0  0  0  0
    6.3367    0.1893    0.5645 C   0  0  0  0  0  0  0  0  0  0  0  0
    7.8864    0.1400    1.1359 S   0  0  0  0  0  0  0  0  0  0  0  0
    5.7405   -1.0092    0.1017 N   0  0  0  0  0  0  0  0  0  0  0  0
    6.3007   -1.8541    0.1950 H   0  0  0  0  0  0  0  0  0  0  0  0
    4.5523   -1.0490   -0.5195 C   0  0  0  0  0  0  0  0  0  0  0  0
    4.0568   -2.5765   -1.1330 Cl  0  0  0  0  0  0  0  0  0  0  0  0
    1.6109    1.7652    0.0220 H   0  0  0  0  0  0  0  0  0  0  0  0
    0.4489    3.9455    0.1436 H   0  0  0  0  0  0  0  0  0  0  0  0
    0.3047    7.7459   -0.4160 H   0  0  0  0  0  0  0  0  0  0  0  0
   -1.7385    9.1373   -0.4692 H   0  0  0  0  0  0  0  0  0  0  0  0
   -1.6291   11.5579    0.2155 H   0  0  0  0  0  0  0  0  0  0  0  0
    2.5942   11.1488    0.9406 H   0  0  0  0  0  0  0  0  0  0  0  0
    5.1574    6.7947    0.1845 H   0  0  0  0  0  0  0  0  0  0  0  0
    5.4827    3.6989    0.0612 H   0  0  0  0  0  0  0  0  0  0  0  0
  1  2  3  0
  2  3  1  0
  3  4  1  0
  3 30  2  0
  4  5  1  0
  4 25  2  0
  5  6  2  0
  5 24  1  0
  6  7  1  0
  6 32  1  0
  7  8  2  0
  7 33  1  0
  8  9  1  0
  8 23  1  0
  9 10  1  0
 10 11  1  0
 10 22  2  0
 11 12  2  0
 11 13  1  0
 13 14  2  0
 13 21  1  0
 14 15  1  0
 14 34  1  0
 15 16  2  0
 15 35  1  0
 16 17  1  0
 16 36  1  0
 17 18  1  0
 17 21  2  0
 18 19  2  0
 18 20  1  0
 21 37  1  0
 22 23  1  0
 22 38  1  0
 23 24  2  0
 24 39  1  0
 25 26  1  0
 26 27  2  0
 26 28  1  0
 28 29  1  0
 28 30  1  0
 30 31  1  0
M  CHG  2  18   1  20  -1
M  END

