
     RDKit          3D

 38 39  0  0  0  0  0  0  0  0999 V2000
    3.1784    0.8441    3.2094 C   0  0  0  0  0  0  0  0  0  0  0  0
    3.6375    0.4398    1.8125 C   0  0  0  0  0  0  0  0  0  0  0  0
    3.8969    1.6120    0.9892 N   0  0  0  0  0  0  0  0  0  0  0  0
    4.4398    1.3597   -0.3472 C   0  0  1  0  0  0  0  0  0  0  0  0
    3.3853    0.7111   -1.2608 C   0  0  0  0  0  0  0  0  0  0  0  0
    4.9322    2.6637   -0.9236 C   0  0  0  0  0  0  0  0  0  0  0  0
    4.2964    3.9335   -0.8738 C   0  0  0  0  0  0  0  0  0  0  0  0
    4.9933    4.8620   -1.5233 N   0  0  0  0  0  0  0  0  0  0  0  0
    6.0704    4.2208   -2.0056 N   0  0  0  0  0  0  0  0  0  0  0  0
    7.1016    4.9679   -2.7047 C   0  0  0  0  0  0  0  0  0  0  0  0
    8.0684    5.6822   -1.7754 C   0  0  0  0  0  0  0  0  0  0  0  0
    7.6203    6.6621   -0.8782 C   0  0  0  0  0  0  0  0  0  0  0  0
    8.5057    7.3052   -0.0097 C   0  0  0  0  0  0  0  0  0  0  0  0
    9.8598    6.9779   -0.0287 C   0  0  0  0  0  0  0  0  0  0  0  0
   10.3264    6.0150   -0.9263 C   0  0  0  0  0  0  0  0  0  0  0  0
   11.7704    5.7162   -0.9361 N   0  0  0  0  0  0  0  0  0  0  0  0
   12.3974    5.9934    0.0745 O   0  0  0  0  0  0  0  0  0  0  0  0
   12.2452    5.2341   -1.9487 O   0  0  0  0  0  0  0  0  0  0  0  0
    9.4318    5.3633   -1.7912 C   0  0  0  0  0  0  0  0  0  0  0  0
    9.8508    4.4110   -2.6234 F   0  0  0  0  0  0  0  0  0  0  0  0
    6.0824    2.9019   -1.6609 C   0  0  0  0  0  0  0  0  0  0  0  0
    2.9475   -0.0413    3.8220 H   0  0  0  0  0  0  0  0  0  0  0  0
    2.2785    1.4763    3.1533 H   0  0  0  0  0  0  0  0  0  0  0  0
    3.9604    1.4172    3.7367 H   0  0  0  0  0  0  0  0  0  0  0  0
    2.8478   -0.1648    1.3359 H   0  0  0  0  0  0  0  0  0  0  0  0
    4.5261   -0.2300    1.8914 H   0  0  0  0  0  0  0  0  0  0  0  0
    4.5331    2.2354    1.4857 H   0  0  0  0  0  0  0  0  0  0  0  0
    5.3093    0.6624   -0.3066 H   0  0  0  0  0  0  0  0  0  0  0  0
    2.4960    1.3565   -1.3331 H   0  0  0  0  0  0  0  0  0  0  0  0
    3.0687   -0.2727   -0.8809 H   0  0  0  0  0  0  0  0  0  0  0  0
    3.7939    0.5630   -2.2718 H   0  0  0  0  0  0  0  0  0  0  0  0
    3.3569    4.1897   -0.3855 H   0  0  0  0  0  0  0  0  0  0  0  0
    6.5873    5.7040   -3.3401 H   0  0  0  0  0  0  0  0  0  0  0  0
    7.6441    4.2760   -3.3599 H   0  0  0  0  0  0  0  0  0  0  0  0
    6.5531    6.8952   -0.8606 H   0  0  0  0  0  0  0  0  0  0  0  0
    8.1391    8.0636    0.6848 H   0  0  0  0  0  0  0  0  0  0  0  0
   10.5808    7.4499    0.6387 H   0  0  0  0  0  0  0  0  0  0  0  0
    6.8921    2.2401   -1.9640 H   0  0  0  0  0  0  0  0  0  0  0  0
  1  2  1  0
  1 22  1  0
  1 23  1  0
  1 24  1  0
  2  3  1  0
  2 25  1  0
  2 26  1  0
  3  4  1  0
  3 27  1  0
  4  5  1  0
  4  6  1  0
  4 28  1  1
  5 29  1  0
  5 30  1  0
  5 31  1  0
  6  7  1  0
  6 21  2  0
  7  8  2  0
  7 32  1  0
  8  9  1  0
  9 10  1  0
  9 21  1  0
 10 11  1  0
 10 33  1  0
 10 34  1  0
 11 12  2  0
 11 19  1  0
 12 13  1  0
 12 35  1  0
 13 14  2  0
 13 36  1  0
 14 15  1  0
 14 37  1  0
 15 16  1  0
 15 19  2  0
 16 17  2  0
 16 18  1  0
 19 20  1  0
 21 38  1  0
M  CHG  2  16   1  18  -1
M  END

