
     RDKit          3D

 41 44  0  0  0  0  0  0  0  0999 V2000
    4.4102    0.5221   -3.1863 N   0  0  0  0  0  0  0  0  0  0  0  0
    4.1969    0.3604   -1.8532 C   0  0  0  0  0  0  0  0  0  0  0  0
    4.1178    1.2602   -1.0436 O   0  0  0  0  0  0  0  0  0  0  0  0
    4.0661   -1.0944   -1.4742 C   0  0  0  0  0  0  0  0  0  0  0  0
    3.8476   -1.4856   -0.2452 N   0  0  0  0  0  0  0  0  0  0  0  0
    3.7996   -2.8640   -0.3535 O   0  0  0  0  0  0  0  0  0  0  0  0
    3.9954   -3.1782   -1.6436 C   0  0  0  0  0  0  0  0  0  0  0  0
    3.9980   -4.6213   -2.0564 C   0  0  1  0  0  0  0  0  0  0  0  0
    4.2409   -4.6156   -3.1401 H   0  0  0  0  0  0  0  0  0  0  0  0
    5.0252   -5.4796   -1.2949 C   0  0  0  0  0  0  0  0  0  0  0  0
    4.4675   -6.8937   -1.4899 C   0  0  0  0  0  0  0  0  0  0  0  0
    2.9429   -6.6921   -1.4322 C   0  0  0  0  0  0  0  0  0  0  0  0
    2.7266   -5.2741   -1.7610 N   0  0  0  0  0  0  0  0  0  0  0  0
    1.6006   -4.9570   -2.6167 C   0  0  0  0  0  0  0  0  0  0  0  0
    0.2633   -4.9653   -1.8982 C   0  0  0  0  0  0  0  0  0  0  0  0
    0.1867   -4.8543   -0.5235 C   0  0  0  0  0  0  0  0  0  0  0  0
   -1.0692   -4.8398    0.1330 C   0  0  0  0  0  0  0  0  0  0  0  0
   -1.1004   -4.6931    2.0343 Br  0  0  0  0  0  0  0  0  0  0  0  0
   -2.2514   -4.9289   -0.5671 C   0  0  0  0  0  0  0  0  0  0  0  0
   -2.2093   -5.0361   -1.9838 C   0  0  0  0  0  0  0  0  0  0  0  0
   -3.3819   -5.1210   -2.7815 C   0  0  0  0  0  0  0  0  0  0  0  0
   -3.2649   -5.2144   -4.1508 C   0  0  0  0  0  0  0  0  0  0  0  0
   -1.9662   -5.2270   -4.7220 C   0  0  0  0  0  0  0  0  0  0  0  0
   -0.8580   -5.1519   -4.0175 N   0  0  0  0  0  0  0  0  0  0  0  0
   -0.9462   -5.0563   -2.6635 C   0  0  0  0  0  0  0  0  0  0  0  0
    4.1646   -2.1231   -2.3850 N   0  0  0  0  0  0  0  0  0  0  0  0
    4.5112    1.4614   -3.5495 H   0  0  0  0  0  0  0  0  0  0  0  0
    4.4633   -0.2800   -3.8022 H   0  0  0  0  0  0  0  0  0  0  0  0
    5.0183   -5.1992   -0.2300 H   0  0  0  0  0  0  0  0  0  0  0  0
    6.0469   -5.3461   -1.6792 H   0  0  0  0  0  0  0  0  0  0  0  0
    4.8355   -7.6072   -0.7380 H   0  0  0  0  0  0  0  0  0  0  0  0
    4.7627   -7.2759   -2.4807 H   0  0  0  0  0  0  0  0  0  0  0  0
    2.5367   -6.9319   -0.4328 H   0  0  0  0  0  0  0  0  0  0  0  0
    2.4202   -7.3486   -2.1527 H   0  0  0  0  0  0  0  0  0  0  0  0
    1.5319   -5.6332   -3.4920 H   0  0  0  0  0  0  0  0  0  0  0  0
    1.7501   -3.9497   -3.0437 H   0  0  0  0  0  0  0  0  0  0  0  0
    1.1104   -4.7686    0.0502 H   0  0  0  0  0  0  0  0  0  0  0  0
   -3.2137   -4.9153   -0.0521 H   0  0  0  0  0  0  0  0  0  0  0  0
   -4.3625   -5.1087   -2.2975 H   0  0  0  0  0  0  0  0  0  0  0  0
   -4.1451   -5.2798   -4.7942 H   0  0  0  0  0  0  0  0  0  0  0  0
   -1.8555   -5.3052   -5.8110 H   0  0  0  0  0  0  0  0  0  0  0  0
  1  2  1  0
  1 27  1  0
  1 28  1  0
  2  3  2  0
  2  4  1  0
  4  5  2  0
  4 26  1  0
  5  6  1  0
  6  7  1  0
  7  8  1  0
  7 26  2  0
  8  9  1  6
  8 10  1  0
  8 13  1  0
 10 11  1  0
 10 29  1  0
 10 30  1  0
 11 12  1  0
 11 31  1  0
 11 32  1  0
 12 13  1  0
 12 33  1  0
 12 34  1  0
 13 14  1  0
 14 15  1  0
 14 35  1  0
 14 36  1  0
 15 16  2  0
 15 25  1  0
 16 17  1  0
 16 37  1  0
 17 18  1  0
 17 19  2  0
 19 20  1  0
 19 38  1  0
 20 21  1  0
 20 25  2  0
 21 22  2  0
 21 39  1  0
 22 23  1  0
 22 40  1  0
 23 24  2  0
 23 41  1  0
 24 25  1  0
M  END

