
     RDKit          3D

 43 44  0  0  0  0  0  0  0  0999 V2000
    1.0831   -0.2102   -0.4546 C   0  0  0  0  0  0  0  0  0  0  0  0
    2.0017    0.0319   -1.6685 C   0  0  1  0  0  0  0  0  0  0  0  0
    1.3747   -0.4444   -2.9817 C   0  0  0  0  0  0  0  0  0  0  0  0
    2.3946    1.4770   -1.7513 C   0  0  0  0  0  0  0  0  0  0  0  0
    2.1127    2.3599   -2.6642 N   0  0  0  0  0  0  0  0  0  0  0  0
    2.7293    3.4978   -2.1935 C   0  0  0  0  0  0  0  0  0  0  0  0
    2.7275    4.8228   -2.8997 C   0  0  0  0  0  0  0  0  0  0  0  0
    3.5864    4.8459   -4.0854 N   0  0  0  0  0  0  0  0  0  0  0  0
    3.0022    4.1664   -5.2482 C   0  0  0  0  0  0  0  0  0  0  0  0
    4.1046    3.6162   -6.1577 C   0  0  0  0  0  0  0  0  0  0  0  0
    5.0408    2.8745   -5.4140 O   0  0  0  0  0  0  0  0  0  0  0  0
    4.1071    6.1803   -4.3820 C   0  0  0  0  0  0  0  0  0  0  0  0
    5.2479    6.6434   -3.4547 C   0  0  1  0  0  0  0  0  0  0  0  0
    6.4970    5.7230   -3.5210 C   0  0  0  0  0  0  0  0  0  0  0  0
    7.6810    6.6777   -3.7623 C   0  0  0  0  0  0  0  0  0  0  0  0
    7.0285    7.8324   -4.5251 C   0  0  0  0  0  0  0  0  0  0  0  0
    5.7565    7.9728   -3.8247 N   0  0  0  0  0  0  0  0  0  0  0  0
    3.3481    3.3325   -1.0526 N   0  0  0  0  0  0  0  0  0  0  0  0
    3.1288    1.9923   -0.7533 O   0  0  0  0  0  0  0  0  0  0  0  0
    0.8594   -1.2838   -0.3593 H   0  0  0  0  0  0  0  0  0  0  0  0
    0.1286    0.3277   -0.5729 H   0  0  0  0  0  0  0  0  0  0  0  0
    1.5552    0.1272    0.4800 H   0  0  0  0  0  0  0  0  0  0  0  0
    2.9386   -0.5275   -1.4939 H   0  0  0  0  0  0  0  0  0  0  0  0
    0.4484    0.1096   -3.1978 H   0  0  0  0  0  0  0  0  0  0  0  0
    1.1308   -1.5156   -2.9156 H   0  0  0  0  0  0  0  0  0  0  0  0
    2.0571   -0.2946   -3.8311 H   0  0  0  0  0  0  0  0  0  0  0  0
    3.0972    5.5615   -2.1775 H   0  0  0  0  0  0  0  0  0  0  0  0
    1.6789    5.0963   -3.1438 H   0  0  0  0  0  0  0  0  0  0  0  0
    2.3185    4.8306   -5.8210 H   0  0  0  0  0  0  0  0  0  0  0  0
    2.4068    3.3211   -4.8756 H   0  0  0  0  0  0  0  0  0  0  0  0
    4.5976    4.4427   -6.7124 H   0  0  0  0  0  0  0  0  0  0  0  0
    3.6527    2.9575   -6.9191 H   0  0  0  0  0  0  0  0  0  0  0  0
    5.0591    3.3063   -4.5425 H   0  0  0  0  0  0  0  0  0  0  0  0
    3.2906    6.9386   -4.3641 H   0  0  0  0  0  0  0  0  0  0  0  0
    4.4967    6.1733   -5.4118 H   0  0  0  0  0  0  0  0  0  0  0  0
    4.8632    6.6854   -2.4190 H   0  0  0  0  0  0  0  0  0  0  0  0
    6.3994    5.0158   -4.3603 H   0  0  0  0  0  0  0  0  0  0  0  0
    6.6144    5.1183   -2.6101 H   0  0  0  0  0  0  0  0  0  0  0  0
    8.5083    6.2061   -4.3141 H   0  0  0  0  0  0  0  0  0  0  0  0
    8.0790    7.0500   -2.8047 H   0  0  0  0  0  0  0  0  0  0  0  0
    6.9309    7.5659   -5.6022 H   0  0  0  0  0  0  0  0  0  0  0  0
    7.6125    8.7670   -4.4745 H   0  0  0  0  0  0  0  0  0  0  0  0
    5.0743    8.5543   -4.3051 H   0  0  0  0  0  0  0  0  0  0  0  0
  1  2  1  0
  1 20  1  0
  1 21  1  0
  1 22  1  0
  2  3  1  0
  2  4  1  0
  2 23  1  1
  3 24  1  0
  3 25  1  0
  3 26  1  0
  4  5  2  0
  4 19  1  0
  5  6  1  0
  6  7  1  0
  6 18  2  0
  7  8  1  0
  7 27  1  0
  7 28  1  0
  8  9  1  0
  8 12  1  0
  9 10  1  0
  9 29  1  0
  9 30  1  0
 10 11  1  0
 10 31  1  0
 10 32  1  0
 11 33  1  0
 12 13  1  0
 12 34  1  0
 12 35  1  0
 13 14  1  0
 13 17  1  0
 13 36  1  1
 14 15  1  0
 14 37  1  0
 14 38  1  0
 15 16  1  0
 15 39  1  0
 15 40  1  0
 16 17  1  0
 16 41  1  0
 16 42  1  0
 17 43  1  0
 18 19  1  0
M  END

