
     RDKit          3D

 52 55  0  0  0  0  0  0  0  0999 V2000
   -2.2623   -2.6936   -2.6634 C   0  0  0  0  0  0  0  0  0  0  0  0
   -0.9086   -2.6866   -2.2771 O   0  0  0  0  0  0  0  0  0  0  0  0
   -0.4143   -3.7490   -1.5911 C   0  0  0  0  0  0  0  0  0  0  0  0
   -1.1557   -4.8676   -1.1992 C   0  0  0  0  0  0  0  0  0  0  0  0
   -0.5501   -5.9031   -0.4713 C   0  0  0  0  0  0  0  0  0  0  0  0
    0.7959   -5.8208   -0.1289 C   0  0  0  0  0  0  0  0  0  0  0  0
    1.5521   -4.7053   -0.5182 C   0  0  0  0  0  0  0  0  0  0  0  0
    0.9611   -3.6790   -1.2512 C   0  0  0  0  0  0  0  0  0  0  0  0
    1.6104   -2.5497   -1.6810 O   0  0  0  0  0  0  0  0  0  0  0  0
    2.9384   -2.3516   -1.4235 C   0  0  0  0  0  0  0  0  0  0  0  0
    4.0463   -3.0337   -1.9759 C   0  0  0  0  0  0  0  0  0  0  0  0
    5.1880   -2.5060   -1.5416 N   0  0  0  0  0  0  0  0  0  0  0  0
    4.8255   -1.5022   -0.7406 N   0  0  0  0  0  0  0  0  0  0  0  0
    5.5183   -0.9388   -0.2622 H   0  0  0  0  0  0  0  0  0  0  0  0
    3.4728   -1.3400   -0.6127 C   0  0  0  0  0  0  0  0  0  0  0  0
    2.8282   -0.2937    0.1870 C   0  0  0  0  0  0  0  0  0  0  0  0
    1.4396   -0.0809    0.1062 C   0  0  0  0  0  0  0  0  0  0  0  0
    0.7795    0.8946    0.8551 C   0  0  0  0  0  0  0  0  0  0  0  0
    1.5153    1.7110    1.7263 C   0  0  0  0  0  0  0  0  0  0  0  0
    0.9912    2.6890    2.5056 O   0  0  0  0  0  0  0  0  0  0  0  0
   -0.4022    2.9506    2.4555 C   0  0  0  0  0  0  0  0  0  0  0  0
   -0.7350    4.1036    3.3714 C   0  0  0  0  0  0  0  0  0  0  0  0
    0.1390    5.1869    3.5250 C   0  0  0  0  0  0  0  0  0  0  0  0
   -0.2056    6.2681    4.3400 C   0  0  0  0  0  0  0  0  0  0  0  0
   -1.4312    6.3077    5.0213 C   0  0  0  0  0  0  0  0  0  0  0  0
   -1.8073    7.4734    5.9038 C   0  0  0  0  0  0  0  0  0  0  0  0
   -2.3019    5.2173    4.8624 C   0  0  0  0  0  0  0  0  0  0  0  0
   -1.9581    4.1314    4.0563 C   0  0  0  0  0  0  0  0  0  0  0  0
    2.9033    1.5294    1.8231 C   0  0  0  0  0  0  0  0  0  0  0  0
    3.5485    0.5510    1.0708 C   0  0  0  0  0  0  0  0  0  0  0  0
    4.9033    0.3854    1.1673 O   0  0  0  0  0  0  0  0  0  0  0  0
   -2.4378   -1.7549   -3.2061 H   0  0  0  0  0  0  0  0  0  0  0  0
   -2.9413   -2.7356   -1.7918 H   0  0  0  0  0  0  0  0  0  0  0  0
   -2.4954   -3.5419   -3.3327 H   0  0  0  0  0  0  0  0  0  0  0  0
   -2.2129   -4.9398   -1.4558 H   0  0  0  0  0  0  0  0  0  0  0  0
   -1.1455   -6.7699   -0.1751 H   0  0  0  0  0  0  0  0  0  0  0  0
    1.2727   -6.6199    0.4433 H   0  0  0  0  0  0  0  0  0  0  0  0
    2.6071   -4.6319   -0.2522 H   0  0  0  0  0  0  0  0  0  0  0  0
    4.0440   -3.8797   -2.6620 H   0  0  0  0  0  0  0  0  0  0  0  0
    0.8601   -0.7027   -0.5760 H   0  0  0  0  0  0  0  0  0  0  0  0
   -0.2986    1.0054    0.7467 H   0  0  0  0  0  0  0  0  0  0  0  0
   -0.9734    2.0518    2.7518 H   0  0  0  0  0  0  0  0  0  0  0  0
   -0.6939    3.1934    1.4144 H   0  0  0  0  0  0  0  0  0  0  0  0
    1.1015    5.1759    3.0097 H   0  0  0  0  0  0  0  0  0  0  0  0
    0.4951    7.1012    4.4484 H   0  0  0  0  0  0  0  0  0  0  0  0
   -1.0294    8.2510    5.9007 H   0  0  0  0  0  0  0  0  0  0  0  0
   -1.9576    7.1532    6.9486 H   0  0  0  0  0  0  0  0  0  0  0  0
   -2.7506    7.9394    5.5729 H   0  0  0  0  0  0  0  0  0  0  0  0
   -3.2623    5.2134    5.3866 H   0  0  0  0  0  0  0  0  0  0  0  0
   -2.6520    3.2905    3.9618 H   0  0  0  0  0  0  0  0  0  0  0  0
    3.4682    2.1727    2.5031 H   0  0  0  0  0  0  0  0  0  0  0  0
    5.2630    1.0121    1.8085 H   0  0  0  0  0  0  0  0  0  0  0  0
  1  2  1  0
  1 32  1  0
  1 33  1  0
  1 34  1  0
  2  3  1  0
  3  4  2  0
  3  8  1  0
  4  5  1  0
  4 35  1  0
  5  6  2  0
  5 36  1  0
  6  7  1  0
  6 37  1  0
  7  8  2  0
  7 38  1  0
  8  9  1  0
  9 10  1  0
 10 11  1  0
 10 15  2  0
 11 12  2  0
 11 39  1  0
 12 13  1  0
 13 14  1  0
 13 15  1  0
 15 16  1  0
 16 17  2  0
 16 30  1  0
 17 18  1  0
 17 40  1  0
 18 19  2  0
 18 41  1  0
 19 20  1  0
 19 29  1  0
 20 21  1  0
 21 22  1  0
 21 42  1  0
 21 43  1  0
 22 23  2  0
 22 28  1  0
 23 24  1  0
 23 44  1  0
 24 25  2  0
 24 45  1  0
 25 26  1  0
 25 27  1  0
 26 46  1  0
 26 47  1  0
 26 48  1  0
 27 28  2  0
 27 49  1  0
 28 50  1  0
 29 30  2  0
 29 51  1  0
 30 31  1  0
 31 52  1  0
M  END

