
     RDKit          3D

 31 31  0  0  0  0  0  0  0  0999 V2000
    3.1301   -0.4464   -1.0536 C   0  0  0  0  0  0  0  0  0  0  0  0
    2.4841   -0.0455    0.2931 C   0  0  1  0  0  0  0  0  0  0  0  0
    2.8931   -1.0495    1.3668 C   0  0  0  0  0  0  0  0  0  0  0  0
    3.9799   -1.0616    1.8940 O   0  0  0  0  0  0  0  0  0  0  0  0
    1.9865   -1.9895    1.6793 O   0  0  0  0  0  0  0  0  0  0  0  0
    2.8174    1.4345    0.6014 C   0  0  0  0  0  0  0  0  0  0  0  0
    2.0719    2.3035    0.1845 O   0  0  0  0  0  0  0  0  0  0  0  0
    3.9889    1.6390    1.2694 N   0  0  0  0  0  0  0  0  0  0  0  0
    4.5960    2.8581    1.6264 C   0  0  0  0  0  0  0  0  0  0  0  0
    4.0657    4.1165    1.2913 C   0  0  0  0  0  0  0  0  0  0  0  0
    4.7511    5.2710    1.6766 C   0  0  0  0  0  0  0  0  0  0  0  0
    5.9479    5.2020    2.3914 C   0  0  0  0  0  0  0  0  0  0  0  0
    6.4717    3.9479    2.7317 C   0  0  0  0  0  0  0  0  0  0  0  0
    7.7472    3.8495    3.5502 C   0  0  1  0  0  0  0  0  0  0  0  0
    7.5453    3.9069    5.0529 C   0  0  0  0  0  0  0  0  0  0  0  0
    8.3957    2.6785    3.2456 F   0  0  0  0  0  0  0  0  0  0  0  0
    8.5954    4.8649    3.1875 F   0  0  0  0  0  0  0  0  0  0  0  0
    5.8008    2.7858    2.3480 C   0  0  0  0  0  0  0  0  0  0  0  0
    2.8090   -1.4539   -1.3609 H   0  0  0  0  0  0  0  0  0  0  0  0
    4.2270   -0.4439   -0.9717 H   0  0  0  0  0  0  0  0  0  0  0  0
    2.8300    0.2692   -1.8324 H   0  0  0  0  0  0  0  0  0  0  0  0
    1.3896   -0.0456    0.1706 H   0  0  0  0  0  0  0  0  0  0  0  0
    1.1605   -1.8411    1.1967 H   0  0  0  0  0  0  0  0  0  0  0  0
    4.4518    0.7865    1.5922 H   0  0  0  0  0  0  0  0  0  0  0  0
    3.1328    4.1722    0.7356 H   0  0  0  0  0  0  0  0  0  0  0  0
    4.3389    6.2463    1.4055 H   0  0  0  0  0  0  0  0  0  0  0  0
    6.4817    6.1113    2.6729 H   0  0  0  0  0  0  0  0  0  0  0  0
    6.9071    3.0746    5.3809 H   0  0  0  0  0  0  0  0  0  0  0  0
    7.0651    4.8543    5.3343 H   0  0  0  0  0  0  0  0  0  0  0  0
    8.5250    3.8329    5.5478 H   0  0  0  0  0  0  0  0  0  0  0  0
    6.2261    1.8113    2.5991 H   0  0  0  0  0  0  0  0  0  0  0  0
  1  2  1  0
  1 19  1  0
  1 20  1  0
  1 21  1  0
  2  3  1  0
  2  6  1  0
  2 22  1  6
  3  4  2  0
  3  5  1  0
  5 23  1  0
  6  7  2  0
  6  8  1  0
  8  9  1  0
  8 24  1  0
  9 10  2  0
  9 18  1  0
 10 11  1  0
 10 25  1  0
 11 12  2  0
 11 26  1  0
 12 13  1  0
 12 27  1  0
 13 14  1  0
 13 18  2  0
 14 15  1  0
 14 16  1  1
 14 17  1  0
 15 28  1  0
 15 29  1  0
 15 30  1  0
 18 31  1  0
M  END

