
     RDKit          3D

 29 30  0  0  0  0  0  0  0  0999 V2000
    3.0799    3.0574    2.9144 O   0  0  0  0  0  0  0  0  0  0  0  0
    3.3562    2.8577    1.7596 C   0  0  0  0  0  0  0  0  0  0  0  0
    3.8188    3.8084    0.9485 O   0  0  0  0  0  0  0  0  0  0  0  0
    3.1943    1.4742    1.1008 C   0  0  0  0  0  0  0  0  0  0  0  0
    4.4606    0.8643    0.6721 N   0  0  0  0  0  0  0  0  0  0  0  0
    5.1139   -0.0877    1.5929 C   0  0  0  0  0  0  0  0  0  0  0  0
    5.2779   -1.4806    1.0326 C   0  0  0  0  0  0  0  0  0  0  0  0
    4.5360   -2.5614    1.5231 C   0  0  0  0  0  0  0  0  0  0  0  0
    4.7072   -3.8425    0.9895 C   0  0  0  0  0  0  0  0  0  0  0  0
    5.6270   -4.0449   -0.0416 C   0  0  0  0  0  0  0  0  0  0  0  0
    6.3723   -2.9686   -0.5339 C   0  0  0  0  0  0  0  0  0  0  0  0
    6.2104   -1.6822   -0.0051 C   0  0  0  0  0  0  0  0  0  0  0  0
    6.9903   -0.4966   -0.5205 C   0  0  0  0  0  0  0  0  0  0  0  0
    6.1307    0.5710   -1.2166 C   0  0  0  0  0  0  0  0  0  0  0  0
    4.9786    1.2870   -0.5146 C   0  0  0  0  0  0  0  0  0  0  0  0
    4.4707    2.2484   -1.1058 O   0  0  0  0  0  0  0  0  0  0  0  0
    3.9955    3.4174    0.0540 H   0  0  0  0  0  0  0  0  0  0  0  0
    2.5426    1.5753    0.2186 H   0  0  0  0  0  0  0  0  0  0  0  0
    2.7117    0.8141    1.8301 H   0  0  0  0  0  0  0  0  0  0  0  0
    4.4994   -0.1168    2.5006 H   0  0  0  0  0  0  0  0  0  0  0  0
    6.0909    0.3183    1.9032 H   0  0  0  0  0  0  0  0  0  0  0  0
    3.8198   -2.4013    2.3342 H   0  0  0  0  0  0  0  0  0  0  0  0
    4.1236   -4.6796    1.3801 H   0  0  0  0  0  0  0  0  0  0  0  0
    5.7679   -5.0430   -0.4639 H   0  0  0  0  0  0  0  0  0  0  0  0
    7.0951   -3.1316   -1.3386 H   0  0  0  0  0  0  0  0  0  0  0  0
    7.7428   -0.8379   -1.2475 H   0  0  0  0  0  0  0  0  0  0  0  0
    7.5599   -0.0338    0.3044 H   0  0  0  0  0  0  0  0  0  0  0  0
    5.6562    0.1308   -2.1113 H   0  0  0  0  0  0  0  0  0  0  0  0
    6.7717    1.3803   -1.5998 H   0  0  0  0  0  0  0  0  0  0  0  0
  1  2  2  0
  2  3  1  0
  2  4  1  0
  3 17  1  0
  4  5  1  0
  4 18  1  0
  4 19  1  0
  5  6  1  0
  5 15  1  0
  6  7  1  0
  6 20  1  0
  6 21  1  0
  7  8  2  0
  7 12  1  0
  8  9  1  0
  8 22  1  0
  9 10  2  0
  9 23  1  0
 10 11  1  0
 10 24  1  0
 11 12  2  0
 11 25  1  0
 12 13  1  0
 13 14  1  0
 13 26  1  0
 13 27  1  0
 14 15  1  0
 14 28  1  0
 14 29  1  0
 15 16  2  0
M  END

