
     RDKit          3D

 38 39  0  0  0  0  0  0  0  0999 V2000
    5.1900   -2.6683   -0.8832 C   0  0  0  0  0  0  0  0  0  0  0  0
    4.8437   -1.7718    0.1756 O   0  0  0  0  0  0  0  0  0  0  0  0
    4.9954   -0.4577   -0.0768 C   0  0  0  0  0  0  0  0  0  0  0  0
    5.3800   -0.0221   -1.1313 O   0  0  0  0  0  0  0  0  0  0  0  0
    4.5794    0.3789    1.1301 C   0  0  2  0  0  0  0  0  0  0  0  0
    3.4626    0.3374    1.1469 H   0  0  0  0  0  0  0  0  0  0  0  0
    4.9944    1.8467    0.9601 C   0  0  0  0  0  0  0  0  0  0  0  0
    4.7071    2.6443    2.2223 C   0  0  0  0  0  0  0  0  0  0  0  0
    4.1871    3.7372    2.1992 O   0  0  0  0  0  0  0  0  0  0  0  0
    5.1335    1.9682    3.5172 C   0  0  0  0  0  0  0  0  0  0  0  0
    4.6999    0.4898    3.5686 C   0  0  2  0  0  0  0  0  0  0  0  0
    3.5857    0.4755    3.6360 H   0  0  0  0  0  0  0  0  0  0  0  0
    5.2549   -0.2598    4.7859 C   0  0  0  0  0  0  0  0  0  0  0  0
    4.7555    0.2540    6.1475 C   0  0  0  0  0  0  0  0  0  0  0  0
    5.2616   -0.5742    7.3095 C   0  0  0  0  0  0  0  0  0  0  0  0
    6.4874   -0.2764    7.9264 C   0  0  0  0  0  0  0  0  0  0  0  0
    6.9750   -1.0610    8.9752 C   0  0  0  0  0  0  0  0  0  0  0  0
    6.2422   -2.1621    9.4280 C   0  0  0  0  0  0  0  0  0  0  0  0
    5.0191   -2.4698    8.8249 C   0  0  0  0  0  0  0  0  0  0  0  0
    4.5360   -1.6822    7.7761 C   0  0  0  0  0  0  0  0  0  0  0  0
    5.1595   -0.1680    2.3485 N   0  0  0  0  0  0  0  0  0  0  0  0
    5.0051   -3.6797   -0.5012 H   0  0  0  0  0  0  0  0  0  0  0  0
    6.2482   -2.5515   -1.1608 H   0  0  0  0  0  0  0  0  0  0  0  0
    4.5718   -2.4757   -1.7727 H   0  0  0  0  0  0  0  0  0  0  0  0
    4.4879    2.3171    0.1077 H   0  0  0  0  0  0  0  0  0  0  0  0
    6.0819    1.8796    0.7745 H   0  0  0  0  0  0  0  0  0  0  0  0
    4.7275    2.5519    4.3546 H   0  0  0  0  0  0  0  0  0  0  0  0
    6.2376    2.0030    3.5639 H   0  0  0  0  0  0  0  0  0  0  0  0
    6.3573   -0.2276    4.7499 H   0  0  0  0  0  0  0  0  0  0  0  0
    4.9776   -1.3252    4.6908 H   0  0  0  0  0  0  0  0  0  0  0  0
    3.6520    0.2552    6.1502 H   0  0  0  0  0  0  0  0  0  0  0  0
    5.0685    1.3014    6.2869 H   0  0  0  0  0  0  0  0  0  0  0  0
    7.0658    0.5867    7.5831 H   0  0  0  0  0  0  0  0  0  0  0  0
    7.9299   -0.8083    9.4439 H   0  0  0  0  0  0  0  0  0  0  0  0
    6.6202   -2.7747   10.2504 H   0  0  0  0  0  0  0  0  0  0  0  0
    4.4351   -3.3250    9.1757 H   0  0  0  0  0  0  0  0  0  0  0  0
    3.5743   -1.9276    7.3149 H   0  0  0  0  0  0  0  0  0  0  0  0
    4.9903   -1.1710    2.3898 H   0  0  0  0  0  0  0  0  0  0  0  0
  1  2  1  0
  1 22  1  0
  1 23  1  0
  1 24  1  0
  2  3  1  0
  3  4  2  0
  3  5  1  0
  5  6  1  1
  5  7  1  0
  5 21  1  0
  7  8  1  0
  7 25  1  0
  7 26  1  0
  8  9  2  0
  8 10  1  0
 10 11  1  0
 10 27  1  0
 10 28  1  0
 11 12  1  1
 11 13  1  0
 11 21  1  0
 13 14  1  0
 13 29  1  0
 13 30  1  0
 14 15  1  0
 14 31  1  0
 14 32  1  0
 15 16  2  0
 15 20  1  0
 16 17  1  0
 16 33  1  0
 17 18  2  0
 17 34  1  0
 18 19  1  0
 18 35  1  0
 19 20  2  0
 19 36  1  0
 20 37  1  0
 21 38  1  0
M  END

