
     RDKit          3D

 45 46  0  0  0  0  0  0  0  0999 V2000
    1.9983   -9.8539   -2.7402 O   0  0  0  0  0  0  0  0  0  0  0  0
    1.8850   -8.6797   -1.9641 C   0  0  0  0  0  0  0  0  0  0  0  0
    3.0191   -7.7519   -2.3777 C   0  0  2  0  0  0  0  0  0  0  0  0
    3.9671   -8.3238   -2.2684 H   0  0  0  0  0  0  0  0  0  0  0  0
    3.0150   -6.6514   -1.4840 O   0  0  0  0  0  0  0  0  0  0  0  0
    4.1270   -5.7629   -1.6501 C   0  0  2  0  0  0  0  0  0  0  0  0
    5.0638   -6.3390   -1.5321 H   0  0  0  0  0  0  0  0  0  0  0  0
    4.0245   -4.7660   -0.7007 O   0  0  0  0  0  0  0  0  0  0  0  0
    4.6452   -4.9004    0.5900 C   0  0  2  0  0  0  0  0  0  0  0  0
    4.2597   -6.2125    1.2827 C   0  0  0  0  0  0  0  0  0  0  0  0
    2.8839   -6.4403    1.3271 O   0  0  0  0  0  0  0  0  0  0  0  0
    4.1866   -3.8084    1.3350 O   0  0  0  0  0  0  0  0  0  0  0  0
    4.9675   -2.6280    1.0397 C   0  0  2  0  0  0  0  0  0  0  0  0
    5.3263   -2.2296    2.0078 H   0  0  0  0  0  0  0  0  0  0  0  0
    4.0632   -1.5885    0.3899 C   0  0  0  0  0  0  0  0  0  0  0  0
    2.9608   -1.2917    1.2096 O   0  0  0  0  0  0  0  0  0  0  0  0
    6.1544   -3.1165    0.1915 C   0  0  1  0  0  0  0  0  0  0  0  0
    5.9423   -2.9942   -0.8823 H   0  0  0  0  0  0  0  0  0  0  0  0
    7.3906   -2.4794    0.4208 O   0  0  0  0  0  0  0  0  0  0  0  0
    6.1571   -4.6186    0.4906 C   0  0  2  0  0  0  0  0  0  0  0  0
    6.5784   -4.7712    1.5084 H   0  0  0  0  0  0  0  0  0  0  0  0
    6.8425   -5.4048   -0.4502 O   0  0  0  0  0  0  0  0  0  0  0  0
    4.0736   -5.1318   -3.0494 C   0  0  1  0  0  0  0  0  0  0  0  0
    3.1411   -4.5486   -3.0977 H   0  0  0  0  0  0  0  0  0  0  0  0
    5.1552   -4.2647   -3.2793 O   0  0  0  0  0  0  0  0  0  0  0  0
    4.0375   -6.2402   -4.1182 C   0  0  1  0  0  0  0  0  0  0  0  0
    3.8461   -5.7699   -5.0970 H   0  0  0  0  0  0  0  0  0  0  0  0
    5.3256   -6.8370   -4.2439 O   0  0  0  0  0  0  0  0  0  0  0  0
    2.9271   -7.2699   -3.8315 C   0  0  2  0  0  0  0  0  0  0  0  0
    3.0717   -8.1483   -4.4870 H   0  0  0  0  0  0  0  0  0  0  0  0
    1.6532   -6.6829   -4.0155 O   0  0  0  0  0  0  0  0  0  0  0  0
    1.2057  -10.3874   -2.6096 H   0  0  0  0  0  0  0  0  0  0  0  0
    1.9900   -8.8784   -0.8797 H   0  0  0  0  0  0  0  0  0  0  0  0
    0.9295   -8.1524   -2.1311 H   0  0  0  0  0  0  0  0  0  0  0  0
    4.8171   -7.0346    0.7868 H   0  0  0  0  0  0  0  0  0  0  0  0
    4.6296   -6.1522    2.3185 H   0  0  0  0  0  0  0  0  0  0  0  0
    2.5822   -6.5003    0.4043 H   0  0  0  0  0  0  0  0  0  0  0  0
    3.7555   -1.9637   -0.6058 H   0  0  0  0  0  0  0  0  0  0  0  0
    4.6332   -0.6564    0.2387 H   0  0  0  0  0  0  0  0  0  0  0  0
    2.5337   -2.1399    1.4031 H   0  0  0  0  0  0  0  0  0  0  0  0
    7.5723   -2.4908    1.3716 H   0  0  0  0  0  0  0  0  0  0  0  0
    7.6758   -4.9515   -0.6456 H   0  0  0  0  0  0  0  0  0  0  0  0
    5.9003   -4.8303   -3.5393 H   0  0  0  0  0  0  0  0  0  0  0  0
    5.4657   -7.4592   -3.5173 H   0  0  0  0  0  0  0  0  0  0  0  0
    1.5071   -6.5565   -4.9612 H   0  0  0  0  0  0  0  0  0  0  0  0
  1  2  1  0
  1 32  1  0
  2  3  1  0
  2 33  1  0
  2 34  1  0
  3  4  1  6
  3  5  1  0
  3 29  1  0
  5  6  1  0
  6  7  1  1
  6  8  1  0
  6 23  1  0
  9  8  1  6
  9 10  1  0
  9 12  1  0
  9 20  1  0
 10 11  1  0
 10 35  1  0
 10 36  1  0
 11 37  1  0
 12 13  1  0
 13 14  1  1
 13 15  1  0
 13 17  1  0
 15 16  1  0
 15 38  1  0
 15 39  1  0
 16 40  1  0
 17 18  1  6
 17 19  1  0
 17 20  1  0
 19 41  1  0
 20 21  1  1
 20 22  1  0
 22 42  1  0
 23 24  1  1
 23 25  1  0
 23 26  1  0
 25 43  1  0
 26 27  1  6
 26 28  1  0
 26 29  1  0
 28 44  1  0
 29 30  1  6
 29 31  1  0
 31 45  1  0
M  END

