
     RDKit          3D

 67 69  0  0  0  0  0  0  0  0999 V2000
   -5.2090  -17.3249    2.1021 C   0  0  0  0  0  0  0  0  0  0  0  0
   -5.9735  -16.0017    2.1444 C   0  0  0  0  0  0  0  0  0  0  0  0
   -6.6911  -15.6786    0.8198 C   0  0  0  0  0  0  0  0  0  0  0  0
   -7.4643  -14.3757    0.8650 C   0  0  0  0  0  0  0  0  0  0  0  0
   -8.8178  -14.4076    1.2322 C   0  0  0  0  0  0  0  0  0  0  0  0
   -9.5800  -13.2429    1.4002 C   0  0  0  0  0  0  0  0  0  0  0  0
  -11.0270  -13.2594    1.8037 C   0  0  0  0  0  0  0  0  0  0  0  0
  -11.5918  -12.3099    2.2794 O   0  0  0  0  0  0  0  0  0  0  0  0
  -11.6960  -14.4195    1.5998 O   0  0  0  0  0  0  0  0  0  0  0  0
   -8.9578  -12.0004    1.2221 C   0  0  0  0  0  0  0  0  0  0  0  0
   -7.6207  -11.9468    0.8417 C   0  0  0  0  0  0  0  0  0  0  0  0
   -6.8560  -13.1137    0.6476 C   0  0  0  0  0  0  0  0  0  0  0  0
   -5.4285  -12.9646    0.2324 C   0  0  0  0  0  0  0  0  0  0  0  0
   -4.5167  -12.2776    1.0430 C   0  0  0  0  0  0  0  0  0  0  0  0
   -3.1867  -12.0984    0.6458 C   0  0  0  0  0  0  0  0  0  0  0  0
   -2.7505  -12.6012   -0.5854 C   0  0  0  0  0  0  0  0  0  0  0  0
   -1.4798  -12.4748   -1.0549 O   0  0  0  0  0  0  0  0  0  0  0  0
   -0.5031  -11.8047   -0.2830 C   0  0  0  0  0  0  0  0  0  0  0  0
    0.8008  -11.8237   -1.0693 C   0  0  0  0  0  0  0  0  0  0  0  0
    1.8632  -11.1782   -0.3121 N   0  0  0  0  0  0  0  0  0  0  0  0
    3.1133  -10.9165   -1.0441 C   0  0  2  0  0  0  0  0  0  0  0  0
    3.2985  -11.7012   -1.8063 H   0  0  0  0  0  0  0  0  0  0  0  0
    4.2816  -10.9029   -0.0605 C   0  0  0  0  0  0  0  0  0  0  0  0
    2.9383   -9.5534   -1.7845 C   0  0  1  0  0  0  0  0  0  0  0  0
    2.1424   -9.7055   -2.5457 H   0  0  0  0  0  0  0  0  0  0  0  0
    2.5329   -8.5832   -0.8494 O   0  0  0  0  0  0  0  0  0  0  0  0
    4.1805   -9.0977   -2.5232 C   0  0  0  0  0  0  0  0  0  0  0  0
    4.5821   -9.7382   -3.7034 C   0  0  0  0  0  0  0  0  0  0  0  0
    5.7388   -9.3469   -4.3817 C   0  0  0  0  0  0  0  0  0  0  0  0
    6.5159   -8.2881   -3.8908 C   0  0  0  0  0  0  0  0  0  0  0  0
    7.6483   -7.8591   -4.5095 O   0  0  0  0  0  0  0  0  0  0  0  0
    6.1164   -7.6304   -2.7190 C   0  0  0  0  0  0  0  0  0  0  0  0
    4.9628   -8.0342   -2.0479 C   0  0  0  0  0  0  0  0  0  0  0  0
   -3.6497  -13.2873   -1.4360 C   0  0  0  0  0  0  0  0  0  0  0  0
   -3.1708  -13.8028   -2.7673 C   0  0  0  0  0  0  0  0  0  0  0  0
   -4.9669  -13.4534   -1.0061 C   0  0  0  0  0  0  0  0  0  0  0  0
   -4.7090  -17.5302    3.0620 H   0  0  0  0  0  0  0  0  0  0  0  0
   -4.4335  -17.3147    1.3180 H   0  0  0  0  0  0  0  0  0  0  0  0
   -5.8818  -18.1728    1.8896 H   0  0  0  0  0  0  0  0  0  0  0  0
   -5.2812  -15.1771    2.3858 H   0  0  0  0  0  0  0  0  0  0  0  0
   -6.7171  -16.0228    2.9604 H   0  0  0  0  0  0  0  0  0  0  0  0
   -7.3874  -16.5012    0.5815 H   0  0  0  0  0  0  0  0  0  0  0  0
   -5.9461  -15.6615    0.0112 H   0  0  0  0  0  0  0  0  0  0  0  0
   -9.2636  -15.3888    1.4292 H   0  0  0  0  0  0  0  0  0  0  0  0
  -11.1513  -15.0337    1.0882 H   0  0  0  0  0  0  0  0  0  0  0  0
   -9.5434  -11.0919    1.3737 H   0  0  0  0  0  0  0  0  0  0  0  0
   -7.1464  -10.9770    0.6731 H   0  0  0  0  0  0  0  0  0  0  0  0
   -4.8428  -11.8808    2.0077 H   0  0  0  0  0  0  0  0  0  0  0  0
   -2.5030  -11.5640    1.3055 H   0  0  0  0  0  0  0  0  0  0  0  0
   -0.3719  -12.3100    0.6944 H   0  0  0  0  0  0  0  0  0  0  0  0
   -0.8047  -10.7613   -0.0791 H   0  0  0  0  0  0  0  0  0  0  0  0
    0.6430  -11.2778   -2.0127 H   0  0  0  0  0  0  0  0  0  0  0  0
    1.0366  -12.8719   -1.3497 H   0  0  0  0  0  0  0  0  0  0  0  0
    2.0635  -11.7141    0.5306 H   0  0  0  0  0  0  0  0  0  0  0  0
    5.2326  -10.7233   -0.5802 H   0  0  0  0  0  0  0  0  0  0  0  0
    4.3594  -11.8686    0.4661 H   0  0  0  0  0  0  0  0  0  0  0  0
    4.1465  -10.1054    0.6863 H   0  0  0  0  0  0  0  0  0  0  0  0
    1.9388   -9.0714   -0.2500 H   0  0  0  0  0  0  0  0  0  0  0  0
    3.9805  -10.5552   -4.1139 H   0  0  0  0  0  0  0  0  0  0  0  0
    6.0349   -9.8591   -5.3032 H   0  0  0  0  0  0  0  0  0  0  0  0
    7.8007   -8.3879   -5.3034 H   0  0  0  0  0  0  0  0  0  0  0  0
    6.7225   -6.7990   -2.3527 H   0  0  0  0  0  0  0  0  0  0  0  0
    4.6436   -7.5159   -1.1427 H   0  0  0  0  0  0  0  0  0  0  0  0
   -2.7823  -12.9844   -3.3954 H   0  0  0  0  0  0  0  0  0  0  0  0
   -3.9819  -14.3050   -3.3138 H   0  0  0  0  0  0  0  0  0  0  0  0
   -2.3399  -14.5167   -2.6431 H   0  0  0  0  0  0  0  0  0  0  0  0
   -5.6690  -13.9638   -1.6712 H   0  0  0  0  0  0  0  0  0  0  0  0
  1  2  1  0
  1 37  1  0
  1 38  1  0
  1 39  1  0
  2  3  1  0
  2 40  1  0
  2 41  1  0
  3  4  1  0
  3 42  1  0
  3 43  1  0
  4  5  2  0
  4 12  1  0
  5  6  1  0
  5 44  1  0
  6  7  1  0
  6 10  2  0
  7  8  2  0
  7  9  1  0
  9 45  1  0
 10 11  1  0
 10 46  1  0
 11 12  2  0
 11 47  1  0
 12 13  1  0
 13 14  2  0
 13 36  1  0
 14 15  1  0
 14 48  1  0
 15 16  2  0
 15 49  1  0
 16 17  1  0
 16 34  1  0
 17 18  1  0
 18 19  1  0
 18 50  1  0
 18 51  1  0
 19 20  1  0
 19 52  1  0
 19 53  1  0
 20 21  1  0
 20 54  1  0
 21 22  1  6
 21 23  1  0
 21 24  1  0
 23 55  1  0
 23 56  1  0
 23 57  1  0
 24 25  1  6
 24 26  1  0
 24 27  1  0
 26 58  1  0
 27 28  2  0
 27 33  1  0
 28 29  1  0
 28 59  1  0
 29 30  2  0
 29 60  1  0
 30 31  1  0
 30 32  1  0
 31 61  1  0
 32 33  2  0
 32 62  1  0
 33 63  1  0
 34 35  1  0
 34 36  2  0
 35 64  1  0
 35 65  1  0
 35 66  1  0
 36 67  1  0
M  END

