
     RDKit          3D

 41 42  0  0  0  0  0  0  0  0999 V2000
    3.9186    3.5660    3.1661 C   0  0  0  0  0  0  0  0  0  0  0  0
    4.2895    2.2977    3.6653 O   0  0  0  0  0  0  0  0  0  0  0  0
    3.8629    1.1847    3.0241 C   0  0  0  0  0  0  0  0  0  0  0  0
    3.0657    1.1748    1.8661 C   0  0  0  0  0  0  0  0  0  0  0  0
    2.6767    0.0406    1.2779 N   0  0  0  0  0  0  0  0  0  0  0  0
    3.0446   -1.1228    1.8017 C   0  0  0  0  0  0  0  0  0  0  0  0
    3.8343   -1.2377    2.9676 C   0  0  0  0  0  0  0  0  0  0  0  0
    4.2155   -2.5650    3.5133 C   0  0  0  0  0  0  0  0  0  0  0  0
    5.4737   -2.7799    4.0999 C   0  0  0  0  0  0  0  0  0  0  0  0
    5.8326   -4.0280    4.6137 C   0  0  0  0  0  0  0  0  0  0  0  0
    4.9492   -5.1154    4.5589 C   0  0  0  0  0  0  0  0  0  0  0  0
    5.3328   -6.5200    5.0721 C   0  0  1  0  0  0  0  0  0  0  0  0
    6.5416   -6.4926    6.0360 C   0  0  0  0  0  0  0  0  0  0  0  0
    4.1824   -7.0481    5.8398 C   0  0  0  0  0  0  0  0  0  0  0  0
    3.2931   -7.4816    6.4441 N   0  0  0  0  0  0  0  0  0  0  0  0
    5.5765   -7.4926    3.8421 C   0  0  1  0  0  0  0  0  0  0  0  0
    6.6946   -7.0018    2.9147 C   0  0  0  0  0  0  0  0  0  0  0  0
    5.8168   -8.9482    4.2640 C   0  0  0  0  0  0  0  0  0  0  0  0
    3.6879   -4.9005    3.9785 C   0  0  0  0  0  0  0  0  0  0  0  0
    3.3277   -3.6559    3.4658 C   0  0  0  0  0  0  0  0  0  0  0  0
    4.2442   -0.0468    3.5749 C   0  0  0  0  0  0  0  0  0  0  0  0
    4.3692    4.3089    3.8376 H   0  0  0  0  0  0  0  0  0  0  0  0
    2.8223    3.7016    3.1648 H   0  0  0  0  0  0  0  0  0  0  0  0
    4.2990    3.7312    2.1423 H   0  0  0  0  0  0  0  0  0  0  0  0
    2.7307    2.1057    1.3994 H   0  0  0  0  0  0  0  0  0  0  0  0
    2.7222   -2.0239    1.2685 H   0  0  0  0  0  0  0  0  0  0  0  0
    6.1982   -1.9632    4.1398 H   0  0  0  0  0  0  0  0  0  0  0  0
    6.8247   -4.1412    5.0515 H   0  0  0  0  0  0  0  0  0  0  0  0
    6.3657   -5.7877    6.8610 H   0  0  0  0  0  0  0  0  0  0  0  0
    7.4597   -6.1915    5.5133 H   0  0  0  0  0  0  0  0  0  0  0  0
    6.7102   -7.4864    6.4720 H   0  0  0  0  0  0  0  0  0  0  0  0
    4.6354   -7.4661    3.2667 H   0  0  0  0  0  0  0  0  0  0  0  0
    7.6807   -7.0357    3.4058 H   0  0  0  0  0  0  0  0  0  0  0  0
    6.5236   -5.9749    2.5610 H   0  0  0  0  0  0  0  0  0  0  0  0
    6.7530   -7.6548    2.0298 H   0  0  0  0  0  0  0  0  0  0  0  0
    6.7881   -9.0735    4.7694 H   0  0  0  0  0  0  0  0  0  0  0  0
    5.8287   -9.5967    3.3739 H   0  0  0  0  0  0  0  0  0  0  0  0
    5.0291   -9.3199    4.9366 H   0  0  0  0  0  0  0  0  0  0  0  0
    2.9596   -5.7148    3.9472 H   0  0  0  0  0  0  0  0  0  0  0  0
    2.3270   -3.5225    3.0492 H   0  0  0  0  0  0  0  0  0  0  0  0
    4.8389   -0.0435    4.4907 H   0  0  0  0  0  0  0  0  0  0  0  0
  1  2  1  0
  1 22  1  0
  1 23  1  0
  1 24  1  0
  2  3  1  0
  3  4  2  0
  3 21  1  0
  4  5  1  0
  4 25  1  0
  5  6  2  0
  6  7  1  0
  6 26  1  0
  7  8  1  0
  7 21  2  0
  8  9  2  0
  8 20  1  0
  9 10  1  0
  9 27  1  0
 10 11  2  0
 10 28  1  0
 11 12  1  0
 11 19  1  0
 12 13  1  0
 12 14  1  1
 12 16  1  0
 13 29  1  0
 13 30  1  0
 13 31  1  0
 14 15  3  0
 16 17  1  0
 16 18  1  0
 16 32  1  6
 17 33  1  0
 17 34  1  0
 17 35  1  0
 18 36  1  0
 18 37  1  0
 18 38  1  0
 19 20  2  0
 19 39  1  0
 20 40  1  0
 21 41  1  0
M  END

