
     RDKit          3D

 38 38  0  0  0  0  0  0  0  0999 V2000
    0.8788    0.5695    0.1073 C   0  0  0  0  0  0  0  0  0  0  0  0
    2.3494    0.1482    0.1091 C   0  0  0  0  0  0  0  0  0  0  0  0
    2.6786   -1.0940   -0.7610 C   0  0  1  0  0  0  0  0  0  0  0  0
    1.8884   -2.3135   -0.2630 C   0  0  0  0  0  0  0  0  0  0  0  0
    2.1826   -0.8896   -2.0988 O   0  0  0  0  0  0  0  0  0  0  0  0
    2.7558    0.1090   -2.9078 C   0  0  0  0  0  0  0  0  0  0  0  0
    4.2427   -1.3066   -0.7635 C   0  0  1  0  0  0  0  0  0  0  0  0
    4.8665   -1.4448    0.5543 N   0  0  0  0  0  0  0  0  0  0  0  0
    4.6474   -2.6157    1.3776 C   0  0  0  0  0  0  0  0  0  0  0  0
    4.8197   -2.3670   -1.6994 C   0  0  0  0  0  0  0  0  0  0  0  0
    4.1108   -3.0681   -2.6084 C   0  0  0  0  0  0  0  0  0  0  0  0
    4.6142   -3.9937   -3.4685 O   0  0  0  0  0  0  0  0  0  0  0  0
    5.9604   -4.3992   -3.2523 C   0  0  0  0  0  0  0  0  0  0  0  0
    6.8525   -3.2125   -2.9158 C   0  0  0  0  0  0  0  0  0  0  0  0
    6.3301   -2.5231   -1.6510 C   0  0  0  0  0  0  0  0  0  0  0  0
    0.7410    1.5039    0.6742 H   0  0  0  0  0  0  0  0  0  0  0  0
    0.2321   -0.1930    0.5681 H   0  0  0  0  0  0  0  0  0  0  0  0
    0.5142    0.7341   -0.9177 H   0  0  0  0  0  0  0  0  0  0  0  0
    2.6724   -0.0606    1.1417 H   0  0  0  0  0  0  0  0  0  0  0  0
    2.9711    0.9961   -0.2292 H   0  0  0  0  0  0  0  0  0  0  0  0
    0.8474   -2.2268   -0.6055 H   0  0  0  0  0  0  0  0  0  0  0  0
    1.8868   -2.3735    0.8337 H   0  0  0  0  0  0  0  0  0  0  0  0
    2.2954   -3.2540   -0.6555 H   0  0  0  0  0  0  0  0  0  0  0  0
    2.1228    0.1884   -3.8048 H   0  0  0  0  0  0  0  0  0  0  0  0
    3.7803   -0.1453   -3.2369 H   0  0  0  0  0  0  0  0  0  0  0  0
    2.7778    1.1016   -2.4205 H   0  0  0  0  0  0  0  0  0  0  0  0
    4.6482   -0.3445   -1.1345 H   0  0  0  0  0  0  0  0  0  0  0  0
    4.8383   -0.5820    1.0862 H   0  0  0  0  0  0  0  0  0  0  0  0
    4.6915   -3.5205    0.7514 H   0  0  0  0  0  0  0  0  0  0  0  0
    3.6842   -2.6505    1.9272 H   0  0  0  0  0  0  0  0  0  0  0  0
    5.4533   -2.6973    2.1274 H   0  0  0  0  0  0  0  0  0  0  0  0
    3.0428   -2.9277   -2.7698 H   0  0  0  0  0  0  0  0  0  0  0  0
    6.2758   -4.9101   -4.1742 H   0  0  0  0  0  0  0  0  0  0  0  0
    5.9841   -5.1383   -2.4271 H   0  0  0  0  0  0  0  0  0  0  0  0
    6.8421   -2.5106   -3.7678 H   0  0  0  0  0  0  0  0  0  0  0  0
    7.8934   -3.5514   -2.7873 H   0  0  0  0  0  0  0  0  0  0  0  0
    6.7956   -1.5300   -1.5306 H   0  0  0  0  0  0  0  0  0  0  0  0
    6.6371   -3.0895   -0.7543 H   0  0  0  0  0  0  0  0  0  0  0  0
  1  2  1  0
  1 16  1  0
  1 17  1  0
  1 18  1  0
  2  3  1  0
  2 19  1  0
  2 20  1  0
  3  4  1  0
  3  5  1  6
  3  7  1  0
  4 21  1  0
  4 22  1  0
  4 23  1  0
  5  6  1  0
  6 24  1  0
  6 25  1  0
  6 26  1  0
  7  8  1  0
  7 10  1  0
  7 27  1  6
  8  9  1  0
  8 28  1  0
  9 29  1  0
  9 30  1  0
  9 31  1  0
 10 11  2  0
 10 15  1  0
 11 12  1  0
 11 32  1  0
 12 13  1  0
 13 14  1  0
 13 33  1  0
 13 34  1  0
 14 15  1  0
 14 35  1  0
 14 36  1  0
 15 37  1  0
 15 38  1  0
M  END

