
     RDKit          3D

 77 81  0  0  0  0  0  0  0  0999 V2000
    1.6483   -1.6968    2.9514 C   0  0  0  0  0  0  0  0  0  0  0  0
    2.6716   -2.6340    3.2116 O   0  0  0  0  0  0  0  0  0  0  0  0
    3.2980   -3.2343    2.1626 C   0  0  0  0  0  0  0  0  0  0  0  0
    3.0267   -2.9792    0.8145 C   0  0  0  0  0  0  0  0  0  0  0  0
    3.7590   -3.6179   -0.1926 C   0  0  0  0  0  0  0  0  0  0  0  0
    4.7830   -4.5341    0.0942 C   0  0  0  0  0  0  0  0  0  0  0  0
    5.4636   -5.2958   -1.0562 C   0  0  1  0  0  0  0  0  0  0  0  0
    5.8485   -4.3489   -2.2161 C   0  0  0  0  0  0  0  0  0  0  0  0
    6.8223   -3.2430   -1.7736 C   0  0  0  0  0  0  0  0  0  0  0  0
    7.9776   -3.7567   -0.8733 C   0  0  1  0  0  0  0  0  0  0  0  0
    8.9348   -3.3991   -1.2769 H   0  0  0  0  0  0  0  0  0  0  0  0
    7.9132   -3.1759    0.4715 N   0  0  0  0  0  0  0  0  0  0  0  0
    9.0512   -3.0579    1.2086 C   0  0  0  0  0  0  0  0  0  0  0  0
   10.1588   -3.3835    0.8293 O   0  0  0  0  0  0  0  0  0  0  0  0
    8.8449   -2.5425    2.5263 N   0  0  0  0  0  0  0  0  0  0  0  0
   10.0877   -2.2455    3.1377 O   0  0  0  0  0  0  0  0  0  0  0  0
   10.6598   -3.2951    3.7638 C   0  0  0  0  0  0  0  0  0  0  0  0
   10.2368   -4.4009    3.8835 O   0  0  0  0  0  0  0  0  0  0  0  0
   12.0165   -2.8120    4.3353 C   0  0  1  0  0  0  0  0  0  0  0  0
   12.8475   -2.4573    3.3519 F   0  0  0  0  0  0  0  0  0  0  0  0
   11.8377   -1.7541    5.1383 F   0  0  0  0  0  0  0  0  0  0  0  0
   12.5806   -3.7868    5.0408 F   0  0  0  0  0  0  0  0  0  0  0  0
    7.8952   -1.5078    2.8188 C   0  0  0  0  0  0  0  0  0  0  0  0
    6.7155   -1.8528    3.4822 C   0  0  0  0  0  0  0  0  0  0  0  0
    5.7671   -0.8583    3.7440 C   0  0  0  0  0  0  0  0  0  0  0  0
    6.0143    0.4642    3.3774 C   0  0  0  0  0  0  0  0  0  0  0  0
    7.2111    0.8303    2.7260 C   0  0  0  0  0  0  0  0  0  0  0  0
    7.4782    2.2435    2.3428 C   0  0  0  0  0  0  0  0  0  0  0  0
    8.7761    2.7825    2.4270 C   0  0  0  0  0  0  0  0  0  0  0  0
    9.0283    4.1080    2.0678 C   0  0  0  0  0  0  0  0  0  0  0  0
    7.9887    4.9260    1.6155 C   0  0  0  0  0  0  0  0  0  0  0  0
    6.6942    4.4056    1.5260 C   0  0  0  0  0  0  0  0  0  0  0  0
    6.4424    3.0801    1.8857 C   0  0  0  0  0  0  0  0  0  0  0  0
    8.1430   -0.1805    2.4426 C   0  0  0  0  0  0  0  0  0  0  0  0
    8.0736   -5.2949   -0.8842 C   0  0  0  0  0  0  0  0  0  0  0  0
    6.7559   -6.0948   -0.6982 C   0  0  2  0  0  0  0  0  0  0  0  0
    6.6928   -6.4662    0.3454 H   0  0  0  0  0  0  0  0  0  0  0  0
    6.7353   -7.2179   -1.6424 N   0  0  0  0  0  0  0  0  0  0  0  0
    7.6267   -8.3150   -1.3611 C   0  0  0  0  0  0  0  0  0  0  0  0
    5.3754   -7.5808   -2.0190 C   0  0  0  0  0  0  0  0  0  0  0  0
    4.4955   -6.4271   -1.5167 C   0  0  0  0  0  0  0  0  0  0  0  0
    5.0352   -4.7871    1.4550 C   0  0  0  0  0  0  0  0  0  0  0  0
    4.3174   -4.1619    2.4766 C   0  0  0  0  0  0  0  0  0  0  0  0
    4.6891   -4.3939    3.7722 O   0  0  0  0  0  0  0  0  0  0  0  0
    3.7740   -5.0970    4.6021 C   0  0  0  0  0  0  0  0  0  0  0  0
    1.2841   -1.3519    3.9282 H   0  0  0  0  0  0  0  0  0  0  0  0
    0.8081   -2.1505    2.3960 H   0  0  0  0  0  0  0  0  0  0  0  0
    2.0254   -0.8293    2.3810 H   0  0  0  0  0  0  0  0  0  0  0  0
    2.2500   -2.2684    0.5317 H   0  0  0  0  0  0  0  0  0  0  0  0
    3.5057   -3.3870   -1.2286 H   0  0  0  0  0  0  0  0  0  0  0  0
    4.9560   -3.8943   -2.6737 H   0  0  0  0  0  0  0  0  0  0  0  0
    6.3104   -4.9658   -3.0032 H   0  0  0  0  0  0  0  0  0  0  0  0
    6.2741   -2.4483   -1.2438 H   0  0  0  0  0  0  0  0  0  0  0  0
    7.2472   -2.7641   -2.6702 H   0  0  0  0  0  0  0  0  0  0  0  0
    7.0090   -3.0350    0.9087 H   0  0  0  0  0  0  0  0  0  0  0  0
    6.5403   -2.8853    3.7868 H   0  0  0  0  0  0  0  0  0  0  0  0
    4.8344   -1.1344    4.2406 H   0  0  0  0  0  0  0  0  0  0  0  0
    5.2811    1.2364    3.6212 H   0  0  0  0  0  0  0  0  0  0  0  0
    9.5940    2.1630    2.8021 H   0  0  0  0  0  0  0  0  0  0  0  0
   10.0430    4.5060    2.1497 H   0  0  0  0  0  0  0  0  0  0  0  0
    8.1863    5.9634    1.3342 H   0  0  0  0  0  0  0  0  0  0  0  0
    5.8752    5.0334    1.1654 H   0  0  0  0  0  0  0  0  0  0  0  0
    5.4305    2.6803    1.7866 H   0  0  0  0  0  0  0  0  0  0  0  0
    9.0684    0.0554    1.9139 H   0  0  0  0  0  0  0  0  0  0  0  0
    8.8392   -5.5966   -0.1544 H   0  0  0  0  0  0  0  0  0  0  0  0
    8.4609   -5.5750   -1.8767 H   0  0  0  0  0  0  0  0  0  0  0  0
    8.6571   -7.9546   -1.2164 H   0  0  0  0  0  0  0  0  0  0  0  0
    7.6441   -9.0186   -2.2097 H   0  0  0  0  0  0  0  0  0  0  0  0
    7.3419   -8.8948   -0.4508 H   0  0  0  0  0  0  0  0  0  0  0  0
    5.0511   -8.5386   -1.5599 H   0  0  0  0  0  0  0  0  0  0  0  0
    5.3042   -7.7233   -3.1144 H   0  0  0  0  0  0  0  0  0  0  0  0
    3.9102   -6.7591   -0.6462 H   0  0  0  0  0  0  0  0  0  0  0  0
    3.7737   -6.0684   -2.2670 H   0  0  0  0  0  0  0  0  0  0  0  0
    5.8111   -5.4825    1.7756 H   0  0  0  0  0  0  0  0  0  0  0  0
    4.2202   -5.1273    5.6055 H   0  0  0  0  0  0  0  0  0  0  0  0
    3.6341   -6.1325    4.2417 H   0  0  0  0  0  0  0  0  0  0  0  0
    2.7976   -4.5912    4.6545 H   0  0  0  0  0  0  0  0  0  0  0  0
  1  2  1  0
  1 46  1  0
  1 47  1  0
  1 48  1  0
  2  3  1  0
  3  4  2  0
  3 43  1  0
  4  5  1  0
  4 49  1  0
  5  6  2  0
  5 50  1  0
  7  6  1  1
  6 42  1  0
  7  8  1  0
  7 36  1  0
  7 41  1  0
  8  9  1  0
  8 51  1  0
  8 52  1  0
  9 10  1  0
  9 53  1  0
  9 54  1  0
 10 11  1  6
 10 12  1  0
 10 35  1  0
 12 13  1  0
 12 55  1  0
 13 14  2  0
 13 15  1  0
 15 16  1  0
 15 23  1  0
 16 17  1  0
 17 18  2  0
 17 19  1  0
 19 20  1  6
 19 21  1  0
 19 22  1  0
 23 24  2  0
 23 34  1  0
 24 25  1  0
 24 56  1  0
 25 26  2  0
 25 57  1  0
 26 27  1  0
 26 58  1  0
 27 28  1  0
 27 34  2  0
 28 29  2  0
 28 33  1  0
 29 30  1  0
 29 59  1  0
 30 31  2  0
 30 60  1  0
 31 32  1  0
 31 61  1  0
 32 33  2  0
 32 62  1  0
 33 63  1  0
 34 64  1  0
 35 36  1  0
 35 65  1  0
 35 66  1  0
 36 37  1  1
 36 38  1  0
 38 39  1  0
 38 40  1  0
 39 67  1  0
 39 68  1  0
 39 69  1  0
 40 41  1  0
 40 70  1  0
 40 71  1  0
 41 72  1  0
 41 73  1  0
 42 43  2  0
 42 74  1  0
 43 44  1  0
 44 45  1  0
 45 75  1  0
 45 76  1  0
 45 77  1  0
M  END

