
     RDKit          3D

 37 38  0  0  0  0  0  0  0  0999 V2000
    5.9250   -0.9665   -2.0010 C   0  0  0  0  0  0  0  0  0  0  0  0
    4.9150   -0.3294   -1.2635 O   0  0  0  0  0  0  0  0  0  0  0  0
    5.3611    0.2755   -0.0796 C   0  0  0  0  0  0  0  0  0  0  0  0
    4.1583    0.9363    0.6096 C   0  0  1  0  0  0  0  0  0  0  0  0
    3.0565   -0.0561    0.9888 C   0  0  0  0  0  0  0  0  0  0  0  0
    4.5929    1.7683    1.7324 N   0  0  0  0  0  0  0  0  0  0  0  0
    4.5272    3.1647    1.7543 C   0  0  0  0  0  0  0  0  0  0  0  0
    4.9715    3.5576    2.9907 C   0  0  0  0  0  0  0  0  0  0  0  0
    5.1000    4.9405    3.5458 C   0  0  0  0  0  0  0  0  0  0  0  0
    5.3256    2.4474    3.7320 N   0  0  0  0  0  0  0  0  0  0  0  0
    5.0916    1.4049    2.9637 C   0  0  0  0  0  0  0  0  0  0  0  0
    5.2613    0.0856    3.3659 N   0  0  0  0  0  0  0  0  0  0  0  0
    5.8543   -0.1404    4.6735 C   0  0  1  0  0  0  0  0  0  0  0  0
    4.9643    0.0411    5.9262 C   0  0  0  0  0  0  0  0  0  0  0  0
    5.6021   -1.2467    6.5101 C   0  0  0  0  0  0  0  0  0  0  0  0
    6.0688   -1.6168    5.0772 C   0  0  0  0  0  0  0  0  0  0  0  0
    5.4627   -1.3983   -2.9004 H   0  0  0  0  0  0  0  0  0  0  0  0
    6.4068   -1.7827   -1.4249 H   0  0  0  0  0  0  0  0  0  0  0  0
    6.7179   -0.2583   -2.3157 H   0  0  0  0  0  0  0  0  0  0  0  0
    6.1295    1.0482   -0.2874 H   0  0  0  0  0  0  0  0  0  0  0  0
    5.8372   -0.4801    0.5844 H   0  0  0  0  0  0  0  0  0  0  0  0
    3.7443    1.6366   -0.1321 H   0  0  0  0  0  0  0  0  0  0  0  0
    3.3883   -0.7401    1.7831 H   0  0  0  0  0  0  0  0  0  0  0  0
    2.7763   -0.6446    0.1040 H   0  0  0  0  0  0  0  0  0  0  0  0
    2.1691    0.4811    1.3559 H   0  0  0  0  0  0  0  0  0  0  0  0
    4.1724    3.7261    0.8935 H   0  0  0  0  0  0  0  0  0  0  0  0
    4.7821    5.6982    2.8141 H   0  0  0  0  0  0  0  0  0  0  0  0
    6.1426    5.1553    3.8350 H   0  0  0  0  0  0  0  0  0  0  0  0
    4.4868    5.0595    4.4549 H   0  0  0  0  0  0  0  0  0  0  0  0
    5.6350   -0.5295    2.6491 H   0  0  0  0  0  0  0  0  0  0  0  0
    6.7843    0.4453    4.7957 H   0  0  0  0  0  0  0  0  0  0  0  0
    3.9045   -0.1077    5.6685 H   0  0  0  0  0  0  0  0  0  0  0  0
    5.0710    0.9845    6.4788 H   0  0  0  0  0  0  0  0  0  0  0  0
    4.9374   -1.9588    7.0218 H   0  0  0  0  0  0  0  0  0  0  0  0
    6.4512   -1.0267    7.1757 H   0  0  0  0  0  0  0  0  0  0  0  0
    5.3364   -2.2684    4.5733 H   0  0  0  0  0  0  0  0  0  0  0  0
    7.0760   -2.0441    4.9479 H   0  0  0  0  0  0  0  0  0  0  0  0
  1  2  1  0
  1 17  1  0
  1 18  1  0
  1 19  1  0
  2  3  1  0
  3  4  1  0
  3 20  1  0
  3 21  1  0
  4  5  1  0
  4  6  1  0
  4 22  1  6
  5 23  1  0
  5 24  1  0
  5 25  1  0
  6  7  1  0
  6 11  1  0
  7  8  2  0
  7 26  1  0
  8  9  1  0
  8 10  1  0
  9 27  1  0
  9 28  1  0
  9 29  1  0
 10 11  2  0
 11 12  1  0
 12 13  1  0
 12 30  1  0
 13 14  1  0
 13 16  1  0
 13 31  1  1
 14 15  1  0
 14 32  1  0
 14 33  1  0
 15 16  1  0
 15 34  1  0
 15 35  1  0
 16 36  1  0
 16 37  1  0
M  END

