
     RDKit          3D

 78 85  0  0  0  0  0  0  0  0999 V2000
    0.3912    0.7710    3.7673 C   0  0  0  0  0  0  0  0  0  0  0  0
    0.0816    1.5095    2.6207 C   0  0  0  0  0  0  0  0  0  0  0  0
    0.9089    1.4558    1.4976 C   0  0  0  0  0  0  0  0  0  0  0  0
    2.0744    0.6692    1.5109 C   0  0  0  0  0  0  0  0  0  0  0  0
    2.9267    0.6254    0.3720 N   0  0  0  0  0  0  0  0  0  0  0  0
    3.2575    1.8394   -0.2930 C   0  0  0  0  0  0  0  0  0  0  0  0
    3.6196    2.9796    0.4460 C   0  0  0  0  0  0  0  0  0  0  0  0
    3.9294    4.1739   -0.2069 C   0  0  0  0  0  0  0  0  0  0  0  0
    3.8991    4.2492   -1.6031 C   0  0  0  0  0  0  0  0  0  0  0  0
    3.5453    3.1155   -2.3419 C   0  0  0  0  0  0  0  0  0  0  0  0
    3.2179    1.9219   -1.6965 C   0  0  0  0  0  0  0  0  0  0  0  0
    3.4358   -0.6057   -0.0922 C   0  0  0  0  0  0  0  0  0  0  0  0
    2.6617   -1.7822   -0.0222 C   0  0  0  0  0  0  0  0  0  0  0  0
    3.1692   -2.9948   -0.4753 C   0  0  0  0  0  0  0  0  0  0  0  0
    4.4613   -3.0868   -1.0261 C   0  0  0  0  0  0  0  0  0  0  0  0
    5.0259   -4.3441   -1.5170 C   0  0  0  0  0  0  0  0  0  0  0  0
    6.2048   -4.4611   -2.0747 N   0  0  0  0  0  0  0  0  0  0  0  0
    6.4783   -5.7395   -2.4383 C   0  0  0  0  0  0  0  0  0  0  0  0
    5.5033   -6.6854   -2.1711 C   0  0  0  0  0  0  0  0  0  0  0  0
    5.5049   -8.1050   -2.4404 C   0  0  0  0  0  0  0  0  0  0  0  0
    4.5124   -9.0432   -2.2132 C   0  0  0  0  0  0  0  0  0  0  0  0
    4.7882  -10.3227   -2.5711 N   0  0  0  0  0  0  0  0  0  0  0  0
    5.9854  -10.4479   -3.0864 C   0  0  0  0  0  0  0  0  0  0  0  0
    6.5559  -11.7082   -3.5626 C   0  0  0  0  0  0  0  0  0  0  0  0
    5.8089  -12.8974   -3.4350 C   0  0  0  0  0  0  0  0  0  0  0  0
    6.3171  -14.1147   -3.8687 C   0  0  0  0  0  0  0  0  0  0  0  0
    7.5954  -14.1963   -4.4615 C   0  0  0  0  0  0  0  0  0  0  0  0
    8.1114  -15.4317   -4.9063 N   0  0  0  0  0  0  0  0  0  0  0  0
    7.2495  -16.4096   -5.4774 C   0  0  0  0  0  0  0  0  0  0  0  0
    6.2766  -16.0434   -6.4247 C   0  0  0  0  0  0  0  0  0  0  0  0
    5.4342  -17.0086   -6.9790 C   0  0  0  0  0  0  0  0  0  0  0  0
    5.5572  -18.3533   -6.6146 C   0  0  0  0  0  0  0  0  0  0  0  0
    6.5303  -18.7227   -5.6804 C   0  0  0  0  0  0  0  0  0  0  0  0
    7.3656  -17.7616   -5.1087 C   0  0  0  0  0  0  0  0  0  0  0  0
    9.5024  -15.7120   -4.7986 C   0  0  0  0  0  0  0  0  0  0  0  0
   10.2012  -15.4249   -3.6122 C   0  0  0  0  0  0  0  0  0  0  0  0
   11.5659  -15.7010   -3.5134 C   0  0  0  0  0  0  0  0  0  0  0  0
   12.2527  -16.2822   -4.5845 C   0  0  0  0  0  0  0  0  0  0  0  0
   11.5591  -16.5784   -5.7621 C   0  0  0  0  0  0  0  0  0  0  0  0
   10.1978  -16.2904   -5.8752 C   0  0  0  0  0  0  0  0  0  0  0  0
    8.3420  -13.0080   -4.5967 C   0  0  0  0  0  0  0  0  0  0  0  0
    7.8319  -11.7937   -4.1507 C   0  0  0  0  0  0  0  0  0  0  0  0
    6.8775   -8.9227   -3.1548 S   0  0  0  0  0  0  0  0  0  0  0  0
    4.1547   -5.8784   -1.4013 S   0  0  0  0  0  0  0  0  0  0  0  0
    5.2304   -1.9074   -1.1008 C   0  0  0  0  0  0  0  0  0  0  0  0
    4.7332   -0.6953   -0.6402 C   0  0  0  0  0  0  0  0  0  0  0  0
    2.3880   -0.0637    2.6696 C   0  0  0  0  0  0  0  0  0  0  0  0
    1.5465   -0.0173    3.7823 C   0  0  0  0  0  0  0  0  0  0  0  0
   -0.2617    0.8103    4.6425 H   0  0  0  0  0  0  0  0  0  0  0  0
   -0.8208    2.1259    2.5932 H   0  0  0  0  0  0  0  0  0  0  0  0
    0.6563    2.0249    0.6009 H   0  0  0  0  0  0  0  0  0  0  0  0
    3.6568    2.9230    1.5355 H   0  0  0  0  0  0  0  0  0  0  0  0
    4.2092    5.0506    0.3830 H   0  0  0  0  0  0  0  0  0  0  0  0
    4.1483    5.1837   -2.1112 H   0  0  0  0  0  0  0  0  0  0  0  0
    3.5098    3.1619   -3.4335 H   0  0  0  0  0  0  0  0  0  0  0  0
    2.9285    1.0446   -2.2783 H   0  0  0  0  0  0  0  0  0  0  0  0
    1.6510   -1.7390    0.3861 H   0  0  0  0  0  0  0  0  0  0  0  0
    2.5353   -3.8836   -0.4124 H   0  0  0  0  0  0  0  0  0  0  0  0
    7.4316   -5.9719   -2.9184 H   0  0  0  0  0  0  0  0  0  0  0  0
    3.5423   -8.8032   -1.7722 H   0  0  0  0  0  0  0  0  0  0  0  0
    4.8224  -12.8434   -2.9718 H   0  0  0  0  0  0  0  0  0  0  0  0
    5.7236  -15.0218   -3.7447 H   0  0  0  0  0  0  0  0  0  0  0  0
    6.1849  -14.9975   -6.7240 H   0  0  0  0  0  0  0  0  0  0  0  0
    4.6832  -16.7065   -7.7137 H   0  0  0  0  0  0  0  0  0  0  0  0
    4.9005  -19.1070   -7.0554 H   0  0  0  0  0  0  0  0  0  0  0  0
    6.6340  -19.7693   -5.3821 H   0  0  0  0  0  0  0  0  0  0  0  0
    8.1152  -18.0535   -4.3706 H   0  0  0  0  0  0  0  0  0  0  0  0
    9.6671  -14.9852   -2.7677 H   0  0  0  0  0  0  0  0  0  0  0  0
   12.0935  -15.4718   -2.5838 H   0  0  0  0  0  0  0  0  0  0  0  0
   13.3194  -16.5034   -4.5013 H   0  0  0  0  0  0  0  0  0  0  0  0
   12.0844  -17.0280   -6.6089 H   0  0  0  0  0  0  0  0  0  0  0  0
    9.6638  -16.5129   -6.8010 H   0  0  0  0  0  0  0  0  0  0  0  0
    9.3281  -13.0407   -5.0621 H   0  0  0  0  0  0  0  0  0  0  0  0
    8.4371  -10.8924   -4.2811 H   0  0  0  0  0  0  0  0  0  0  0  0
    6.2370   -1.9697   -1.5174 H   0  0  0  0  0  0  0  0  0  0  0  0
    5.3556    0.1992   -0.6969 H   0  0  0  0  0  0  0  0  0  0  0  0
    3.2962   -0.6691    2.6927 H   0  0  0  0  0  0  0  0  0  0  0  0
    1.8054   -0.5931    4.6748 H   0  0  0  0  0  0  0  0  0  0  0  0
  1  2  2  0
  1 48  1  0
  1 49  1  0
  2  3  1  0
  2 50  1  0
  3  4  2  0
  3 51  1  0
  4  5  1  0
  4 47  1  0
  5  6  1  0
  5 12  1  0
  6  7  2  0
  6 11  1  0
  7  8  1  0
  7 52  1  0
  8  9  2  0
  8 53  1  0
  9 10  1  0
  9 54  1  0
 10 11  2  0
 10 55  1  0
 11 56  1  0
 12 13  2  0
 12 46  1  0
 13 14  1  0
 13 57  1  0
 14 15  2  0
 14 58  1  0
 15 16  1  0
 15 45  1  0
 16 17  2  0
 16 44  1  0
 17 18  1  0
 18 19  2  0
 18 59  1  0
 19 20  1  0
 19 44  1  0
 20 21  2  0
 20 43  1  0
 21 22  1  0
 21 60  1  0
 22 23  2  0
 23 24  1  0
 23 43  1  0
 24 25  2  0
 24 42  1  0
 25 26  1  0
 25 61  1  0
 26 27  2  0
 26 62  1  0
 27 28  1  0
 27 41  1  0
 28 29  1  0
 28 35  1  0
 29 30  2  0
 29 34  1  0
 30 31  1  0
 30 63  1  0
 31 32  2  0
 31 64  1  0
 32 33  1  0
 32 65  1  0
 33 34  2  0
 33 66  1  0
 34 67  1  0
 35 36  2  0
 35 40  1  0
 36 37  1  0
 36 68  1  0
 37 38  2  0
 37 69  1  0
 38 39  1  0
 38 70  1  0
 39 40  2  0
 39 71  1  0
 40 72  1  0
 41 42  2  0
 41 73  1  0
 42 74  1  0
 45 46  2  0
 45 75  1  0
 46 76  1  0
 47 48  2  0
 47 77  1  0
 48 78  1  0
M  END

