
     RDKit          3D

 45 46  0  0  0  0  0  0  0  0999 V2000
    1.3474   -0.0416    0.7581 C   0  0  0  0  0  0  0  0  0  0  0  0
    2.8056    0.0319    0.2787 C   0  0  1  0  0  0  0  0  0  0  0  0
    3.3400   -1.3276   -0.2185 C   0  0  0  0  0  0  0  0  0  0  0  0
    2.7735   -1.7259   -1.5886 C   0  0  0  0  0  0  0  0  0  0  0  0
    3.0099   -0.6299   -2.6354 C   0  0  0  0  0  0  0  0  0  0  0  0
    2.4559    0.7180   -2.1765 C   0  0  2  0  0  0  0  0  0  0  0  0
    2.7829    1.6798   -3.1789 O   0  0  0  0  0  0  0  0  0  0  0  0
    1.9880    2.8457   -3.2224 C   0  0  0  0  0  0  0  0  0  0  0  0
    2.5903    3.7591   -4.2871 C   0  0  1  0  0  0  0  0  0  0  0  0
    3.9533    4.0054   -3.9988 O   0  0  0  0  0  0  0  0  0  0  0  0
    2.4245    3.1933   -5.7063 C   0  0  0  0  0  0  0  0  0  0  0  0
    3.1714    4.0118   -6.6320 N   0  0  0  0  0  0  0  0  0  0  0  0
    3.1367    3.8803   -7.9912 C   0  0  0  0  0  0  0  0  0  0  0  0
    2.2210    3.0251   -8.6491 C   0  0  0  0  0  0  0  0  0  0  0  0
    2.1902    2.9400  -10.0384 C   0  0  0  0  0  0  0  0  0  0  0  0
    3.0663    3.6882  -10.8358 C   0  0  0  0  0  0  0  0  0  0  0  0
    3.9846    4.5287  -10.2139 C   0  0  0  0  0  0  0  0  0  0  0  0
    4.0333    4.6345   -8.8124 C   0  0  0  0  0  0  0  0  0  0  0  0
    4.9863    5.5007   -8.1888 C   0  0  0  0  0  0  0  0  0  0  0  0
    5.7534    6.1930   -7.6546 N   0  0  0  0  0  0  0  0  0  0  0  0
    3.0262    1.1101   -0.8053 C   0  0  0  0  0  0  0  0  0  0  0  0
    1.2427   -0.7670    1.5810 H   0  0  0  0  0  0  0  0  0  0  0  0
    0.6504   -0.3497   -0.0376 H   0  0  0  0  0  0  0  0  0  0  0  0
    1.0053    0.9370    1.1327 H   0  0  0  0  0  0  0  0  0  0  0  0
    3.4119    0.3271    1.1529 H   0  0  0  0  0  0  0  0  0  0  0  0
    3.1257   -2.1120    0.5271 H   0  0  0  0  0  0  0  0  0  0  0  0
    4.4405   -1.2665   -0.2961 H   0  0  0  0  0  0  0  0  0  0  0  0
    1.6910   -1.9290   -1.5055 H   0  0  0  0  0  0  0  0  0  0  0  0
    3.2318   -2.6698   -1.9267 H   0  0  0  0  0  0  0  0  0  0  0  0
    2.5580   -0.8987   -3.6039 H   0  0  0  0  0  0  0  0  0  0  0  0
    4.0932   -0.5070   -2.8144 H   0  0  0  0  0  0  0  0  0  0  0  0
    1.3515    0.6461   -2.1126 H   0  0  0  0  0  0  0  0  0  0  0  0
    1.9998    3.3766   -2.2527 H   0  0  0  0  0  0  0  0  0  0  0  0
    0.9334    2.6011   -3.4635 H   0  0  0  0  0  0  0  0  0  0  0  0
    2.0835    4.7379   -4.2417 H   0  0  0  0  0  0  0  0  0  0  0  0
    4.3371    3.1438   -3.7686 H   0  0  0  0  0  0  0  0  0  0  0  0
    1.3514    3.1983   -5.9662 H   0  0  0  0  0  0  0  0  0  0  0  0
    2.7573    2.1361   -5.7189 H   0  0  0  0  0  0  0  0  0  0  0  0
    3.9764    4.4773   -6.2184 H   0  0  0  0  0  0  0  0  0  0  0  0
    1.5305    2.4200   -8.0613 H   0  0  0  0  0  0  0  0  0  0  0  0
    1.4672    2.2685  -10.5096 H   0  0  0  0  0  0  0  0  0  0  0  0
    3.0343    3.6122  -11.9242 H   0  0  0  0  0  0  0  0  0  0  0  0
    4.6853    5.1218  -10.8055 H   0  0  0  0  0  0  0  0  0  0  0  0
    2.5984    2.0696   -0.4702 H   0  0  0  0  0  0  0  0  0  0  0  0
    4.1094    1.2772   -0.9398 H   0  0  0  0  0  0  0  0  0  0  0  0
  1  2  1  0
  1 22  1  0
  1 23  1  0
  1 24  1  0
  2  3  1  0
  2 21  1  0
  2 25  1  1
  3  4  1  0
  3 26  1  0
  3 27  1  0
  4  5  1  0
  4 28  1  0
  4 29  1  0
  5  6  1  0
  5 30  1  0
  5 31  1  0
  6  7  1  0
  6 21  1  0
  6 32  1  1
  7  8  1  0
  8  9  1  0
  8 33  1  0
  8 34  1  0
  9 10  1  0
  9 11  1  0
  9 35  1  6
 10 36  1  0
 11 12  1  0
 11 37  1  0
 11 38  1  0
 12 13  1  0
 12 39  1  0
 13 14  2  0
 13 18  1  0
 14 15  1  0
 14 40  1  0
 15 16  2  0
 15 41  1  0
 16 17  1  0
 16 42  1  0
 17 18  2  0
 17 43  1  0
 18 19  1  0
 19 20  3  0
 21 44  1  0
 21 45  1  0
M  END

