
     RDKit          3D

 38 38  0  0  0  0  0  0  0  0999 V2000
    1.9584   -1.1814    1.1114 C   0  0  0  0  0  0  0  0  0  0  0  0
    2.2759   -0.0210    0.1666 C   0  0  0  0  0  0  0  0  0  0  0  0
    2.8415   -0.4389   -1.1184 N   0  0  0  0  0  0  0  0  0  0  0  0
    1.9020   -0.8106   -2.1630 C   0  0  0  0  0  0  0  0  0  0  0  0
    1.3465    0.3767   -3.0007 C   0  0  1  0  0  0  0  0  0  0  0  0
    2.4366    1.1285   -3.7625 C   0  0  0  0  0  0  0  0  0  0  0  0
    0.2211   -0.1371   -3.9064 C   0  0  0  0  0  0  0  0  0  0  0  0
    0.2942   -0.3784   -5.1607 N   0  0  0  0  0  0  0  0  0  0  0  0
   -0.9421   -0.4427   -3.2254 N   0  0  0  0  0  0  0  0  0  0  0  0
    4.2090   -0.6909   -1.1369 C   0  0  0  0  0  0  0  0  0  0  0  0
    4.8928   -0.5564   -0.1298 O   0  0  0  0  0  0  0  0  0  0  0  0
    4.7523   -1.0958   -2.3406 N   0  0  0  0  0  0  0  0  0  0  0  0
    6.1559   -1.3789   -2.4889 C   0  0  1  0  0  0  0  0  0  0  0  0
    6.5986   -2.6753   -3.2174 C   0  0  0  0  0  0  0  0  0  0  0  0
    7.7804   -1.8728   -3.8212 C   0  0  0  0  0  0  0  0  0  0  0  0
    7.0102   -0.5658   -3.4999 C   0  0  0  0  0  0  0  0  0  0  0  0
    1.5042   -0.8067    2.0433 H   0  0  0  0  0  0  0  0  0  0  0  0
    2.8832   -1.7167    1.3710 H   0  0  0  0  0  0  0  0  0  0  0  0
    1.2525   -1.8977    0.6591 H   0  0  0  0  0  0  0  0  0  0  0  0
    2.9958    0.6554    0.6465 H   0  0  0  0  0  0  0  0  0  0  0  0
    1.3652    0.5652   -0.0426 H   0  0  0  0  0  0  0  0  0  0  0  0
    1.0470   -1.3332   -1.7040 H   0  0  0  0  0  0  0  0  0  0  0  0
    2.3568   -1.5491   -2.8410 H   0  0  0  0  0  0  0  0  0  0  0  0
    0.8871    1.0843   -2.2859 H   0  0  0  0  0  0  0  0  0  0  0  0
    2.9342    0.4816   -4.5053 H   0  0  0  0  0  0  0  0  0  0  0  0
    3.2089    1.4932   -3.0702 H   0  0  0  0  0  0  0  0  0  0  0  0
    2.0240    1.9937   -4.3035 H   0  0  0  0  0  0  0  0  0  0  0  0
    1.2253   -0.1709   -5.5236 H   0  0  0  0  0  0  0  0  0  0  0  0
   -1.1731    0.0953   -2.3989 H   0  0  0  0  0  0  0  0  0  0  0  0
   -1.7292   -0.6957   -3.8144 H   0  0  0  0  0  0  0  0  0  0  0  0
    4.1964   -1.0595   -3.1834 H   0  0  0  0  0  0  0  0  0  0  0  0
    6.5889   -1.3221   -1.4813 H   0  0  0  0  0  0  0  0  0  0  0  0
    5.8690   -2.9629   -3.9932 H   0  0  0  0  0  0  0  0  0  0  0  0
    6.8190   -3.5605   -2.6006 H   0  0  0  0  0  0  0  0  0  0  0  0
    8.0400   -2.0644   -4.8728 H   0  0  0  0  0  0  0  0  0  0  0  0
    8.6937   -1.9694   -3.2139 H   0  0  0  0  0  0  0  0  0  0  0  0
    6.4018   -0.2359   -4.3590 H   0  0  0  0  0  0  0  0  0  0  0  0
    7.5718    0.3001   -3.1161 H   0  0  0  0  0  0  0  0  0  0  0  0
  1  2  1  0
  1 17  1  0
  1 18  1  0
  1 19  1  0
  2  3  1  0
  2 20  1  0
  2 21  1  0
  3  4  1  0
  3 10  1  0
  4  5  1  0
  4 22  1  0
  4 23  1  0
  5  6  1  0
  5  7  1  0
  5 24  1  1
  6 25  1  0
  6 26  1  0
  6 27  1  0
  7  8  2  0
  7  9  1  0
  8 28  1  0
  9 29  1  0
  9 30  1  0
 10 11  2  0
 10 12  1  0
 12 13  1  0
 12 31  1  0
 13 14  1  0
 13 16  1  0
 13 32  1  1
 14 15  1  0
 14 33  1  0
 14 34  1  0
 15 16  1  0
 15 35  1  0
 15 36  1  0
 16 37  1  0
 16 38  1  0
M  END

