
     RDKit          3D

 33 34  0  0  0  0  0  0  0  0999 V2000
   -0.2122   -0.6203    1.1078 O   0  0  0  0  0  0  0  0  0  0  0  0
    0.7896    0.0261    1.2676 C   0  0  0  0  0  0  0  0  0  0  0  0
    0.9416    1.2156    0.6390 O   0  0  0  0  0  0  0  0  0  0  0  0
    1.9228   -0.4188    2.1448 C   0  0  0  0  0  0  0  0  0  0  0  0
    2.9194    0.4393    2.6246 C   0  0  0  0  0  0  0  0  0  0  0  0
    3.9395   -0.0322    3.4582 C   0  0  0  0  0  0  0  0  0  0  0  0
    3.9784   -1.3825    3.8314 C   0  0  0  0  0  0  0  0  0  0  0  0
    4.9047   -1.9515    4.6235 O   0  0  0  0  0  0  0  0  0  0  0  0
    6.0069   -1.1884    5.0929 C   0  0  0  0  0  0  0  0  0  0  0  0
    6.8724   -2.1146    5.9607 C   0  0  1  0  0  0  0  0  0  0  0  0
    7.4623   -3.3146    5.2042 C   0  0  0  0  0  0  0  0  0  0  0  0
    8.6655   -2.9221    4.3371 C   0  0  0  0  0  0  0  0  0  0  0  0
    9.6762   -2.1337    5.1776 C   0  0  0  0  0  0  0  0  0  0  0  0
    8.9861   -0.9535    5.8576 C   0  0  0  0  0  0  0  0  0  0  0  0
    7.8660   -1.3553    6.6343 O   0  0  0  0  0  0  0  0  0  0  0  0
    2.9589   -2.2370    3.3501 C   0  0  0  0  0  0  0  0  0  0  0  0
    2.9969   -3.5231    3.7090 F   0  0  0  0  0  0  0  0  0  0  0  0
    1.9469   -1.7713    2.5347 C   0  0  0  0  0  0  0  0  0  0  0  0
    1.8455    1.5421    0.7449 H   0  0  0  0  0  0  0  0  0  0  0  0
    2.9059    1.5070    2.3874 H   0  0  0  0  0  0  0  0  0  0  0  0
    4.6954    0.6606    3.8274 H   0  0  0  0  0  0  0  0  0  0  0  0
    5.6635   -0.3439    5.7161 H   0  0  0  0  0  0  0  0  0  0  0  0
    6.5671   -0.7767    4.2345 H   0  0  0  0  0  0  0  0  0  0  0  0
    6.2110   -2.4919    6.7571 H   0  0  0  0  0  0  0  0  0  0  0  0
    6.6672   -3.7890    4.6084 H   0  0  0  0  0  0  0  0  0  0  0  0
    7.7879   -4.0551    5.9544 H   0  0  0  0  0  0  0  0  0  0  0  0
    8.3381   -2.3062    3.4793 H   0  0  0  0  0  0  0  0  0  0  0  0
    9.1306   -3.8227    3.9045 H   0  0  0  0  0  0  0  0  0  0  0  0
   10.5138   -1.7664    4.5609 H   0  0  0  0  0  0  0  0  0  0  0  0
   10.1073   -2.7911    5.9530 H   0  0  0  0  0  0  0  0  0  0  0  0
    8.6895   -0.2053    5.0930 H   0  0  0  0  0  0  0  0  0  0  0  0
    9.6639   -0.4431    6.5589 H   0  0  0  0  0  0  0  0  0  0  0  0
    1.1663   -2.4506    2.1889 H   0  0  0  0  0  0  0  0  0  0  0  0
  1  2  2  0
  2  3  1  0
  2  4  1  0
  3 19  1  0
  4  5  2  0
  4 18  1  0
  5  6  1  0
  5 20  1  0
  6  7  2  0
  6 21  1  0
  7  8  1  0
  7 16  1  0
  8  9  1  0
  9 10  1  0
  9 22  1  0
  9 23  1  0
 10 11  1  0
 10 15  1  0
 10 24  1  1
 11 12  1  0
 11 25  1  0
 11 26  1  0
 12 13  1  0
 12 27  1  0
 12 28  1  0
 13 14  1  0
 13 29  1  0
 13 30  1  0
 14 15  1  0
 14 31  1  0
 14 32  1  0
 16 17  1  0
 16 18  2  0
 18 33  1  0
M  END

