
     RDKit          3D

 37 38  0  0  0  0  0  0  0  0999 V2000
   12.8016   -6.0561   -9.5838 N   0  0  0  0  0  0  0  0  0  0  0  0
   11.8741   -5.6032   -8.6548 C   0  0  0  0  0  0  0  0  0  0  0  0
   11.0674   -6.5026   -7.9324 C   0  0  0  0  0  0  0  0  0  0  0  0
   10.1743   -6.0397   -6.9647 C   0  0  0  0  0  0  0  0  0  0  0  0
   10.0435   -4.6740   -6.6790 C   0  0  0  0  0  0  0  0  0  0  0  0
    9.0720   -4.1678   -5.6276 C   0  0  0  0  0  0  0  0  0  0  0  0
    9.7789   -3.3496   -4.5451 C   0  0  0  0  0  0  0  0  0  0  0  0
    9.9305   -2.1426   -4.6416 O   0  0  0  0  0  0  0  0  0  0  0  0
   10.2608   -4.0789   -3.4925 N   0  0  0  0  0  0  0  0  0  0  0  0
   11.0431   -3.5007   -2.4256 C   0  0  0  0  0  0  0  0  0  0  0  0
   10.5119   -3.8826   -1.0353 C   0  0  2  0  0  0  0  0  0  0  0  0
   11.2312   -3.4658   -0.3020 H   0  0  0  0  0  0  0  0  0  0  0  0
   10.5233   -5.3033   -0.9958 O   0  0  0  0  0  0  0  0  0  0  0  0
    9.1411   -3.3088   -0.7279 C   0  0  0  0  0  0  0  0  0  0  0  0
    7.9608   -3.9807   -1.0708 C   0  0  0  0  0  0  0  0  0  0  0  0
    6.7322   -3.3825   -0.7875 C   0  0  0  0  0  0  0  0  0  0  0  0
    6.7261   -2.1299   -0.1661 C   0  0  0  0  0  0  0  0  0  0  0  0
    7.8412   -1.4808    0.1777 N   0  0  0  0  0  0  0  0  0  0  0  0
    9.0091   -2.0606   -0.0986 C   0  0  0  0  0  0  0  0  0  0  0  0
   10.8508   -3.7784   -7.4013 C   0  0  0  0  0  0  0  0  0  0  0  0
   11.7463   -4.2280   -8.3677 C   0  0  0  0  0  0  0  0  0  0  0  0
   12.6356   -6.9761   -9.9750 H   0  0  0  0  0  0  0  0  0  0  0  0
   13.1103   -5.3832  -10.2759 H   0  0  0  0  0  0  0  0  0  0  0  0
   11.1446   -7.5756   -8.1313 H   0  0  0  0  0  0  0  0  0  0  0  0
    9.5581   -6.7662   -6.4255 H   0  0  0  0  0  0  0  0  0  0  0  0
    8.5295   -5.0160   -5.1804 H   0  0  0  0  0  0  0  0  0  0  0  0
    8.3278   -3.4929   -6.0783 H   0  0  0  0  0  0  0  0  0  0  0  0
   10.1631   -5.0872   -3.4973 H   0  0  0  0  0  0  0  0  0  0  0  0
   11.0289   -2.4109   -2.5621 H   0  0  0  0  0  0  0  0  0  0  0  0
   12.0927   -3.8419   -2.4853 H   0  0  0  0  0  0  0  0  0  0  0  0
   10.1819   -5.5902   -0.1385 H   0  0  0  0  0  0  0  0  0  0  0  0
    8.0144   -4.9633   -1.5443 H   0  0  0  0  0  0  0  0  0  0  0  0
    5.7918   -3.8769   -1.0425 H   0  0  0  0  0  0  0  0  0  0  0  0
    5.7769   -1.6337    0.0691 H   0  0  0  0  0  0  0  0  0  0  0  0
    9.9094   -1.5069    0.2002 H   0  0  0  0  0  0  0  0  0  0  0  0
   10.7754   -2.7081   -7.1920 H   0  0  0  0  0  0  0  0  0  0  0  0
   12.3632   -3.5067   -8.9118 H   0  0  0  0  0  0  0  0  0  0  0  0
  1  2  1  0
  1 22  1  0
  1 23  1  0
  2  3  2  0
  2 21  1  0
  3  4  1  0
  3 24  1  0
  4  5  2  0
  4 25  1  0
  5  6  1  0
  5 20  1  0
  6  7  1  0
  6 26  1  0
  6 27  1  0
  7  8  2  0
  7  9  1  0
  9 10  1  0
  9 28  1  0
 10 11  1  0
 10 29  1  0
 10 30  1  0
 11 12  1  1
 11 13  1  0
 11 14  1  0
 13 31  1  0
 14 15  2  0
 14 19  1  0
 15 16  1  0
 15 32  1  0
 16 17  2  0
 16 33  1  0
 17 18  1  0
 17 34  1  0
 18 19  2  0
 19 35  1  0
 20 21  2  0
 20 36  1  0
 21 37  1  0
M  END

