
     RDKit          3D

 34 35  0  0  0  0  0  0  0  0999 V2000
    2.1561    1.0646    2.4048 C   0  0  0  0  0  0  0  0  0  0  0  0
    3.0907    0.7115    1.2883 C   0  0  0  0  0  0  0  0  0  0  0  0
    3.2849    1.3833    0.0502 C   0  0  0  0  0  0  0  0  0  0  0  0
    4.2551    0.6557   -0.6192 C   0  0  0  0  0  0  0  0  0  0  0  0
    4.8522    0.8431   -1.9774 C   0  0  0  0  0  0  0  0  0  0  0  0
    4.5952   -0.3679    0.2246 N   0  0  0  0  0  0  0  0  0  0  0  0
    5.4918   -1.4823   -0.0252 C   0  0  1  0  0  0  0  0  0  0  0  0
    6.4463   -1.7398    1.1380 C   0  0  0  0  0  0  0  0  0  0  0  0
    4.7240   -2.7532   -0.4107 C   0  0  0  0  0  0  0  0  0  0  0  0
    5.0363   -3.8726   -0.1308 O   0  0  0  0  0  0  0  0  0  0  0  0
    3.6510   -2.4397   -1.2038 O   0  0  0  0  0  0  0  0  0  0  0  0
    2.9032   -3.4585   -1.7415 C   0  0  0  0  0  0  0  0  0  0  0  0
    1.8152   -4.0029   -1.0422 C   0  0  0  0  0  0  0  0  0  0  0  0
    1.4514   -3.4174    0.5526 Cl  0  0  0  0  0  0  0  0  0  0  0  0
    1.0236   -4.9957   -1.6259 C   0  0  0  0  0  0  0  0  0  0  0  0
    1.3229   -5.4518   -2.9108 C   0  0  0  0  0  0  0  0  0  0  0  0
    2.4030   -4.9236   -3.6205 C   0  0  0  0  0  0  0  0  0  0  0  0
    3.1900   -3.9330   -3.0299 C   0  0  0  0  0  0  0  0  0  0  0  0
    4.5448   -3.2598   -3.8989 Cl  0  0  0  0  0  0  0  0  0  0  0  0
    3.8860   -0.3493    1.3731 N   0  0  0  0  0  0  0  0  0  0  0  0
    2.3884    2.0557    2.8291 H   0  0  0  0  0  0  0  0  0  0  0  0
    2.2356    0.3179    3.2071 H   0  0  0  0  0  0  0  0  0  0  0  0
    1.1096    1.0947    2.0594 H   0  0  0  0  0  0  0  0  0  0  0  0
    2.7851    2.2804   -0.3097 H   0  0  0  0  0  0  0  0  0  0  0  0
    4.4085    1.7251   -2.4592 H   0  0  0  0  0  0  0  0  0  0  0  0
    4.6632   -0.0276   -2.6272 H   0  0  0  0  0  0  0  0  0  0  0  0
    5.9435    1.0022   -1.9371 H   0  0  0  0  0  0  0  0  0  0  0  0
    6.0710   -1.2260   -0.9279 H   0  0  0  0  0  0  0  0  0  0  0  0
    5.8760   -1.9479    2.0527 H   0  0  0  0  0  0  0  0  0  0  0  0
    7.0739   -0.8534    1.3096 H   0  0  0  0  0  0  0  0  0  0  0  0
    7.0885   -2.6020    0.9139 H   0  0  0  0  0  0  0  0  0  0  0  0
    0.1814   -5.4013   -1.0640 H   0  0  0  0  0  0  0  0  0  0  0  0
    0.7044   -6.2281   -3.3667 H   0  0  0  0  0  0  0  0  0  0  0  0
    2.6458   -5.2716   -4.6253 H   0  0  0  0  0  0  0  0  0  0  0  0
  1  2  1  0
  1 21  1  0
  1 22  1  0
  1 23  1  0
  2  3  1  0
  2 20  2  0
  3  4  2  0
  3 24  1  0
  4  5  1  0
  4  6  1  0
  5 25  1  0
  5 26  1  0
  5 27  1  0
  6  7  1  0
  6 20  1  0
  7  8  1  0
  7  9  1  0
  7 28  1  6
  8 29  1  0
  8 30  1  0
  8 31  1  0
  9 10  2  0
  9 11  1  0
 11 12  1  0
 12 13  2  0
 12 18  1  0
 13 14  1  0
 13 15  1  0
 15 16  2  0
 15 32  1  0
 16 17  1  0
 16 33  1  0
 17 18  2  0
 17 34  1  0
 18 19  1  0
M  END

