
     RDKit          3D

 47 50  0  0  0  0  0  0  0  0999 V2000
    1.4418    0.6316    0.2815 O   0  0  0  0  0  0  0  0  0  0  0  0
    2.4212   -0.0846    0.4632 C   0  0  0  0  0  0  0  0  0  0  0  0
    2.5997   -1.2269   -0.4745 C   0  0  0  0  0  0  0  0  0  0  0  0
    1.8705   -1.4609   -1.6147 C   0  0  0  0  0  0  0  0  0  0  0  0
    2.3446   -2.6928   -2.1583 C   0  0  0  0  0  0  0  0  0  0  0  0
    3.3240   -3.1264   -1.3079 C   0  0  0  0  0  0  0  0  0  0  0  0
    3.4868   -2.2513   -0.2879 O   0  0  0  0  0  0  0  0  0  0  0  0
    3.3037    0.1419    1.4956 N   0  0  0  0  0  0  0  0  0  0  0  0
    4.6205   -0.4524    1.7131 C   0  0  0  0  0  0  0  0  0  0  0  0
    5.7097    0.6252    1.6693 C   0  0  0  0  0  0  0  0  0  0  0  0
    5.4108    1.7208    2.5856 N   0  0  0  0  0  0  0  0  0  0  0  0
    6.3508    2.0899    3.5194 C   0  0  0  0  0  0  0  0  0  0  0  0
    7.4153    1.4947    3.6205 O   0  0  0  0  0  0  0  0  0  0  0  0
    6.0340    3.2803    4.4484 C   0  0  1  0  0  0  0  0  0  0  0  0
    5.0130    2.8668    5.5094 C   0  0  0  0  0  0  0  0  0  0  0  0
    5.1985    1.6421    6.1806 C   0  0  0  0  0  0  0  0  0  0  0  0
    4.3241    1.2323    7.1881 C   0  0  0  0  0  0  0  0  0  0  0  0
    3.2425    2.0403    7.5561 C   0  0  0  0  0  0  0  0  0  0  0  0
    3.0512    3.2606    6.9064 C   0  0  0  0  0  0  0  0  0  0  0  0
    3.9282    3.6694    5.8942 C   0  0  0  0  0  0  0  0  0  0  0  0
    7.3236    3.8922    5.1012 C   0  0  0  0  0  0  0  0  0  0  0  0
    6.8461    5.3068    4.7012 C   0  0  0  0  0  0  0  0  0  0  0  0
    5.8195    4.6631    3.7419 C   0  0  0  0  0  0  0  0  0  0  0  0
    4.0908    2.3080    2.3896 C   0  0  0  0  0  0  0  0  0  0  0  0
    3.0060    1.2253    2.4284 C   0  0  0  0  0  0  0  0  0  0  0  0
    1.0845   -0.8122   -1.9914 H   0  0  0  0  0  0  0  0  0  0  0  0
    2.0022   -3.1957   -3.0602 H   0  0  0  0  0  0  0  0  0  0  0  0
    3.9676   -4.0025   -1.2935 H   0  0  0  0  0  0  0  0  0  0  0  0
    4.8273   -1.2185    0.9627 H   0  0  0  0  0  0  0  0  0  0  0  0
    4.6335   -0.9412    2.7047 H   0  0  0  0  0  0  0  0  0  0  0  0
    5.7834    1.0208    0.6381 H   0  0  0  0  0  0  0  0  0  0  0  0
    6.6833    0.2074    1.9534 H   0  0  0  0  0  0  0  0  0  0  0  0
    6.0479    1.0095    5.9096 H   0  0  0  0  0  0  0  0  0  0  0  0
    4.4901    0.2761    7.6914 H   0  0  0  0  0  0  0  0  0  0  0  0
    2.5568    1.7209    8.3448 H   0  0  0  0  0  0  0  0  0  0  0  0
    2.2137    3.9054    7.1856 H   0  0  0  0  0  0  0  0  0  0  0  0
    3.7538    4.6305    5.4070 H   0  0  0  0  0  0  0  0  0  0  0  0
    8.2219    3.5609    4.5643 H   0  0  0  0  0  0  0  0  0  0  0  0
    7.4580    3.6877    6.1728 H   0  0  0  0  0  0  0  0  0  0  0  0
    7.5941    5.9741    4.2474 H   0  0  0  0  0  0  0  0  0  0  0  0
    6.3623    5.8430    5.5318 H   0  0  0  0  0  0  0  0  0  0  0  0
    6.1859    4.6288    2.7046 H   0  0  0  0  0  0  0  0  0  0  0  0
    4.8042    5.0852    3.7225 H   0  0  0  0  0  0  0  0  0  0  0  0
    4.0555    2.8228    1.4107 H   0  0  0  0  0  0  0  0  0  0  0  0
    3.8815    3.0476    3.1675 H   0  0  0  0  0  0  0  0  0  0  0  0
    2.0318    1.6486    2.1573 H   0  0  0  0  0  0  0  0  0  0  0  0
    2.9486    0.8113    3.4514 H   0  0  0  0  0  0  0  0  0  0  0  0
  1  2  2  0
  2  3  1  0
  2  8  1  0
  3  4  2  0
  3  7  1  0
  4  5  1  0
  4 26  1  0
  5  6  2  0
  5 27  1  0
  6  7  1  0
  6 28  1  0
  8  9  1  0
  8 25  1  0
  9 10  1  0
  9 29  1  0
  9 30  1  0
 10 11  1  0
 10 31  1  0
 10 32  1  0
 11 12  1  0
 11 24  1  0
 12 13  2  0
 14 12  1  6
 14 15  1  0
 14 21  1  0
 14 23  1  0
 15 16  2  0
 15 20  1  0
 16 17  1  0
 16 33  1  0
 17 18  2  0
 17 34  1  0
 18 19  1  0
 18 35  1  0
 19 20  2  0
 19 36  1  0
 20 37  1  0
 21 22  1  0
 21 38  1  0
 21 39  1  0
 22 23  1  0
 22 40  1  0
 22 41  1  0
 23 42  1  0
 23 43  1  0
 24 25  1  0
 24 44  1  0
 24 45  1  0
 25 46  1  0
 25 47  1  0
M  END

