
     RDKit          3D

 34 36  0  0  0  0  0  0  0  0999 V2000
    1.1013   -0.1388    1.0134 N   0  0  0  0  0  0  0  0  0  0  0  0
    2.4131   -0.1142    0.6161 C   0  0  0  0  0  0  0  0  0  0  0  0
    3.1980   -1.2660    0.6480 C   0  0  0  0  0  0  0  0  0  0  0  0
    4.5381   -1.2252    0.1975 C   0  0  0  0  0  0  0  0  0  0  0  0
    5.4089   -2.4713    0.2056 C   0  0  0  0  0  0  0  0  0  0  0  0
    6.5180   -2.4593   -0.2783 O   0  0  0  0  0  0  0  0  0  0  0  0
    4.8577   -3.7675    0.8188 C   0  0  0  0  0  0  0  0  0  0  0  0
    4.0140   -4.5655   -0.1608 C   0  0  0  0  0  0  0  0  0  0  0  0
    4.5207   -4.8173   -1.4506 C   0  0  0  0  0  0  0  0  0  0  0  0
    3.8089   -5.5594   -2.3916 C   0  0  0  0  0  0  0  0  0  0  0  0
    2.5536   -6.0789   -2.0643 C   0  0  0  0  0  0  0  0  0  0  0  0
    2.0232   -5.8535   -0.7939 C   0  0  0  0  0  0  0  0  0  0  0  0
    2.7505   -5.1058    0.1387 C   0  0  0  0  0  0  0  0  0  0  0  0
    1.9436   -4.8689    1.8692 Br  0  0  0  0  0  0  0  0  0  0  0  0
    5.1237   -0.1288   -0.2519 N   0  0  0  0  0  0  0  0  0  0  0  0
    4.3956    1.0123   -0.2914 C   0  0  0  0  0  0  0  0  0  0  0  0
    5.0306    2.1956   -0.7724 C   0  0  0  0  0  0  0  0  0  0  0  0
    4.3444    3.3871   -0.8546 C   0  0  0  0  0  0  0  0  0  0  0  0
    2.9832    3.4554   -0.4648 C   0  0  0  0  0  0  0  0  0  0  0  0
    2.3380    2.3303    0.0086 C   0  0  0  0  0  0  0  0  0  0  0  0
    3.0214    1.0898    0.1189 C   0  0  0  0  0  0  0  0  0  0  0  0
    0.7685   -0.9646    1.4948 H   0  0  0  0  0  0  0  0  0  0  0  0
    0.6459    0.7246    1.2751 H   0  0  0  0  0  0  0  0  0  0  0  0
    2.7589   -2.1917    1.0196 H   0  0  0  0  0  0  0  0  0  0  0  0
    4.2942   -3.5684    1.7382 H   0  0  0  0  0  0  0  0  0  0  0  0
    5.7440   -4.3612    1.0915 H   0  0  0  0  0  0  0  0  0  0  0  0
    5.5039   -4.4139   -1.7053 H   0  0  0  0  0  0  0  0  0  0  0  0
    4.2367   -5.7322   -3.3820 H   0  0  0  0  0  0  0  0  0  0  0  0
    1.9844   -6.6622   -2.7922 H   0  0  0  0  0  0  0  0  0  0  0  0
    1.0469   -6.2564   -0.5201 H   0  0  0  0  0  0  0  0  0  0  0  0
    6.0764    2.1063   -1.0723 H   0  0  0  0  0  0  0  0  0  0  0  0
    4.8451    4.2844   -1.2272 H   0  0  0  0  0  0  0  0  0  0  0  0
    2.4418    4.4012   -0.5456 H   0  0  0  0  0  0  0  0  0  0  0  0
    1.2828    2.4036    0.2832 H   0  0  0  0  0  0  0  0  0  0  0  0
  1  2  1  0
  1 22  1  0
  1 23  1  0
  2  3  2  0
  2 21  1  0
  3  4  1  0
  3 24  1  0
  4  5  1  0
  4 15  2  0
  5  6  2  0
  5  7  1  0
  7  8  1  0
  7 25  1  0
  7 26  1  0
  8  9  2  0
  8 13  1  0
  9 10  1  0
  9 27  1  0
 10 11  2  0
 10 28  1  0
 11 12  1  0
 11 29  1  0
 12 13  2  0
 12 30  1  0
 13 14  1  0
 15 16  1  0
 16 17  1  0
 16 21  2  0
 17 18  2  0
 17 31  1  0
 18 19  1  0
 18 32  1  0
 19 20  2  0
 19 33  1  0
 20 21  1  0
 20 34  1  0
M  END

