
     RDKit          3D

 84 88  0  0  0  0  0  0  0  0999 V2000
    6.3674    1.2074    3.0197 C   0  0  0  0  0  0  0  0  0  0  0  0
    7.7962    0.7344    2.8090 C   0  0  0  0  0  0  0  0  0  0  0  0
    8.1857    0.8137    1.4256 O   0  0  0  0  0  0  0  0  0  0  0  0
    7.8864   -0.2339    0.6316 C   0  0  0  0  0  0  0  0  0  0  0  0
    7.3183   -1.2272    1.0160 O   0  0  0  0  0  0  0  0  0  0  0  0
    8.3587    0.0117   -0.7873 C   0  0  0  0  0  0  0  0  0  0  0  0
    8.0920   -1.1585   -1.7305 C   0  0  0  0  0  0  0  0  0  0  0  0
    8.5608   -0.8912   -3.1637 C   0  0  0  0  0  0  0  0  0  0  0  0
    8.2941   -2.0717   -4.1025 C   0  0  0  0  0  0  0  0  0  0  0  0
    8.7610   -1.8968   -5.5559 C   0  0  0  0  0  0  0  0  0  0  0  0
   10.2166   -1.8013   -5.7427 N   0  0  0  0  0  0  0  0  0  0  0  0
   10.8446   -0.5696   -5.9251 C   0  0  0  0  0  0  0  0  0  0  0  0
   10.1266    0.6544   -5.8918 C   0  0  0  0  0  0  0  0  0  0  0  0
   10.7677    1.8692   -6.0923 C   0  0  0  0  0  0  0  0  0  0  0  0
   12.1510    1.9349   -6.3273 C   0  0  0  0  0  0  0  0  0  0  0  0
   12.8717    0.7532   -6.3528 C   0  0  0  0  0  0  0  0  0  0  0  0
   12.2476   -0.4946   -6.1563 C   0  0  0  0  0  0  0  0  0  0  0  0
   13.0881   -1.7023   -6.1948 C   0  0  0  0  0  0  0  0  0  0  0  0
   14.3005   -1.6644   -6.3916 O   0  0  0  0  0  0  0  0  0  0  0  0
   12.3626   -2.9707   -5.9788 C   0  0  0  0  0  0  0  0  0  0  0  0
   13.1022   -4.1518   -6.0191 C   0  0  0  0  0  0  0  0  0  0  0  0
   12.5136   -5.4134   -5.8724 C   0  0  0  0  0  0  0  0  0  0  0  0
   11.1073   -5.4334   -5.6612 C   0  0  0  0  0  0  0  0  0  0  0  0
   10.3645   -4.2500   -5.6102 C   0  0  0  0  0  0  0  0  0  0  0  0
   10.9571   -2.9889   -5.7710 C   0  0  0  0  0  0  0  0  0  0  0  0
   10.3769   -6.7060   -5.4837 C   0  0  0  0  0  0  0  0  0  0  0  0
    9.1641   -6.7491   -5.3038 O   0  0  0  0  0  0  0  0  0  0  0  0
   11.2204   -7.9136   -5.5340 C   0  0  0  0  0  0  0  0  0  0  0  0
   10.5906   -9.1598   -5.3500 C   0  0  0  0  0  0  0  0  0  0  0  0
   11.3250  -10.3319   -5.3762 C   0  0  0  0  0  0  0  0  0  0  0  0
   10.3759  -12.2136   -5.1007 I   0  0  0  0  0  0  0  0  0  0  0  0
   12.7127  -10.2736   -5.5888 C   0  0  0  0  0  0  0  0  0  0  0  0
   13.3467   -9.0533   -5.7750 C   0  0  0  0  0  0  0  0  0  0  0  0
   12.6226   -7.8319   -5.7524 C   0  0  0  0  0  0  0  0  0  0  0  0
   13.2519   -6.6036   -5.9272 N   0  0  0  0  0  0  0  0  0  0  0  0
   14.7048   -6.5696   -6.1593 C   0  0  0  0  0  0  0  0  0  0  0  0
   15.1460   -6.8912   -7.5991 C   0  0  0  0  0  0  0  0  0  0  0  0
   14.8484   -5.8418   -8.6815 C   0  0  0  0  0  0  0  0  0  0  0  0
   15.7421   -4.5941   -8.6312 C   0  0  0  0  0  0  0  0  0  0  0  0
   15.5873   -3.6486   -9.8257 C   0  0  0  0  0  0  0  0  0  0  0  0
   14.2566   -2.9256   -9.9099 C   0  0  0  0  0  0  0  0  0  0  0  0
   13.2648   -3.1866   -9.2702 O   0  0  0  0  0  0  0  0  0  0  0  0
   14.3124   -1.9378  -10.8234 O   0  0  0  0  0  0  0  0  0  0  0  0
   13.1211   -1.1599  -11.0420 C   0  0  0  0  0  0  0  0  0  0  0  0
   12.1905   -1.8223  -12.0445 C   0  0  0  0  0  0  0  0  0  0  0  0
    6.1274    1.2106    4.0952 H   0  0  0  0  0  0  0  0  0  0  0  0
    5.6561    0.5377    2.5138 H   0  0  0  0  0  0  0  0  0  0  0  0
    6.2296    2.2296    2.6336 H   0  0  0  0  0  0  0  0  0  0  0  0
    7.9214   -0.3018    3.1568 H   0  0  0  0  0  0  0  0  0  0  0  0
    8.5120    1.3800    3.3387 H   0  0  0  0  0  0  0  0  0  0  0  0
    9.4337    0.2594   -0.7430 H   0  0  0  0  0  0  0  0  0  0  0  0
    7.8676    0.9355   -1.1418 H   0  0  0  0  0  0  0  0  0  0  0  0
    7.0137   -1.3915   -1.7222 H   0  0  0  0  0  0  0  0  0  0  0  0
    8.5883   -2.0613   -1.3361 H   0  0  0  0  0  0  0  0  0  0  0  0
    9.6395   -0.6556   -3.1579 H   0  0  0  0  0  0  0  0  0  0  0  0
    8.0555    0.0135   -3.5492 H   0  0  0  0  0  0  0  0  0  0  0  0
    7.2087   -2.2754   -4.1345 H   0  0  0  0  0  0  0  0  0  0  0  0
    8.7549   -2.9801   -3.6802 H   0  0  0  0  0  0  0  0  0  0  0  0
    8.2943   -1.0125   -6.0041 H   0  0  0  0  0  0  0  0  0  0  0  0
    8.4043   -2.7450   -6.1566 H   0  0  0  0  0  0  0  0  0  0  0  0
    9.0574    0.6684   -5.6969 H   0  0  0  0  0  0  0  0  0  0  0  0
   10.1748    2.7872   -6.0587 H   0  0  0  0  0  0  0  0  0  0  0  0
   12.6442    2.8973   -6.4801 H   0  0  0  0  0  0  0  0  0  0  0  0
   13.9499    0.7366   -6.5241 H   0  0  0  0  0  0  0  0  0  0  0  0
   14.1640   -4.0113   -6.1933 H   0  0  0  0  0  0  0  0  0  0  0  0
    9.3001   -4.3892   -5.4356 H   0  0  0  0  0  0  0  0  0  0  0  0
    9.5120   -9.1432   -5.1870 H   0  0  0  0  0  0  0  0  0  0  0  0
   13.3070  -11.1890   -5.6119 H   0  0  0  0  0  0  0  0  0  0  0  0
   14.4210   -9.0649   -5.9431 H   0  0  0  0  0  0  0  0  0  0  0  0
   15.1695   -7.2864   -5.4673 H   0  0  0  0  0  0  0  0  0  0  0  0
   15.0827   -5.5914   -5.8457 H   0  0  0  0  0  0  0  0  0  0  0  0
   14.6856   -7.8468   -7.8976 H   0  0  0  0  0  0  0  0  0  0  0  0
   16.2349   -7.0800   -7.5661 H   0  0  0  0  0  0  0  0  0  0  0  0
   13.7900   -5.5411   -8.6468 H   0  0  0  0  0  0  0  0  0  0  0  0
   14.9926   -6.3295   -9.6625 H   0  0  0  0  0  0  0  0  0  0  0  0
   16.7986   -4.9140   -8.5945 H   0  0  0  0  0  0  0  0  0  0  0  0
   15.5651   -4.0136   -7.7114 H   0  0  0  0  0  0  0  0  0  0  0  0
   15.7175   -4.1912  -10.7803 H   0  0  0  0  0  0  0  0  0  0  0  0
   16.3744   -2.8778   -9.8202 H   0  0  0  0  0  0  0  0  0  0  0  0
   13.4858   -0.1921  -11.4159 H   0  0  0  0  0  0  0  0  0  0  0  0
   12.6152   -1.0030  -10.0781 H   0  0  0  0  0  0  0  0  0  0  0  0
   12.7098   -2.0170  -12.9960 H   0  0  0  0  0  0  0  0  0  0  0  0
   11.3311   -1.1641  -12.2506 H   0  0  0  0  0  0  0  0  0  0  0  0
   11.8043   -2.7736  -11.6496 H   0  0  0  0  0  0  0  0  0  0  0  0
  1  2  1  0
  1 46  1  0
  1 47  1  0
  1 48  1  0
  2  3  1  0
  2 49  1  0
  2 50  1  0
  3  4  1  0
  4  5  2  0
  4  6  1  0
  6  7  1  0
  6 51  1  0
  6 52  1  0
  7  8  1  0
  7 53  1  0
  7 54  1  0
  8  9  1  0
  8 55  1  0
  8 56  1  0
  9 10  1  0
  9 57  1  0
  9 58  1  0
 10 11  1  0
 10 59  1  0
 10 60  1  0
 11 12  1  0
 11 25  1  0
 12 13  2  0
 12 17  1  0
 13 14  1  0
 13 61  1  0
 14 15  2  0
 14 62  1  0
 15 16  1  0
 15 63  1  0
 16 17  2  0
 16 64  1  0
 17 18  1  0
 18 19  2  0
 18 20  1  0
 20 21  1  0
 20 25  2  0
 21 22  2  0
 21 65  1  0
 22 23  1  0
 22 35  1  0
 23 24  2  0
 23 26  1  0
 24 25  1  0
 24 66  1  0
 26 27  2  0
 26 28  1  0
 28 29  2  0
 28 34  1  0
 29 30  1  0
 29 67  1  0
 30 31  1  0
 30 32  2  0
 32 33  1  0
 32 68  1  0
 33 34  2  0
 33 69  1  0
 34 35  1  0
 35 36  1  0
 36 37  1  0
 36 70  1  0
 36 71  1  0
 37 38  1  0
 37 72  1  0
 37 73  1  0
 38 39  1  0
 38 74  1  0
 38 75  1  0
 39 40  1  0
 39 76  1  0
 39 77  1  0
 40 41  1  0
 40 78  1  0
 40 79  1  0
 41 42  2  0
 41 43  1  0
 43 44  1  0
 44 45  1  0
 44 80  1  0
 44 81  1  0
 45 82  1  0
 45 83  1  0
 45 84  1  0
M  END

