
     RDKit          3D

 63 64  0  0  0  0  0  0  0  0999 V2000
   10.3268   -3.6738    1.2764 C   0  0  0  0  0  0  0  0  0  0  0  0
    9.2371   -4.2991    0.4046 C   0  0  0  0  0  0  0  0  0  0  0  0
    8.1887   -3.2928   -0.0814 C   0  0  0  0  0  0  0  0  0  0  0  0
    7.0985   -3.9221   -0.9558 C   0  0  0  0  0  0  0  0  0  0  0  0
    5.9896   -2.9623   -1.4081 C   0  0  0  0  0  0  0  0  0  0  0  0
    6.4210   -1.8496   -2.3828 C   0  0  0  0  0  0  0  0  0  0  0  0
    6.9648   -2.3322   -3.6522 N   0  0  0  0  0  0  0  0  0  0  0  0
    6.0820   -3.1409   -4.4911 C   0  0  0  0  0  0  0  0  0  0  0  0
    4.6893   -2.5295   -4.6999 C   0  0  0  0  0  0  0  0  0  0  0  0
    3.8585   -3.2516   -5.7713 C   0  0  0  0  0  0  0  0  0  0  0  0
    3.4360   -4.6835   -5.4207 C   0  0  0  0  0  0  0  0  0  0  0  0
    2.5320   -5.3289   -6.4762 C   0  0  0  0  0  0  0  0  0  0  0  0
    2.1083   -6.7566   -6.1293 C   0  0  0  0  0  0  0  0  0  0  0  0
    8.3269   -2.2825   -3.9239 C   0  0  0  0  0  0  0  0  0  0  0  0
    9.1591   -1.2608   -3.3921 C   0  0  0  0  0  0  0  0  0  0  0  0
   10.5125   -1.1966   -3.6880 C   0  0  0  0  0  0  0  0  0  0  0  0
   11.1305   -2.1431   -4.5367 C   0  0  0  0  0  0  0  0  0  0  0  0
   12.5181   -2.0721   -4.8408 C   0  0  0  0  0  0  0  0  0  0  0  0
   13.7103   -2.0103   -5.1023 C   0  0  0  0  0  0  0  0  0  0  0  0
   15.0982   -1.9383   -5.4073 C   0  0  0  0  0  0  0  0  0  0  0  0
   15.9085   -0.9156   -4.8604 C   0  0  0  0  0  0  0  0  0  0  0  0
   17.2637   -0.8442   -5.1577 C   0  0  0  0  0  0  0  0  0  0  0  0
   17.8552   -1.7949   -6.0135 C   0  0  0  0  0  0  0  0  0  0  0  0
   19.2545   -1.7222   -6.3212 C   0  0  0  0  0  0  0  0  0  0  0  0
   20.3878   -1.6633   -6.5705 N   0  0  0  0  0  0  0  0  0  0  0  0
   17.0572   -2.8179   -6.5638 C   0  0  0  0  0  0  0  0  0  0  0  0
   15.7022   -2.8875   -6.2651 C   0  0  0  0  0  0  0  0  0  0  0  0
   10.3103   -3.1605   -5.0686 C   0  0  0  0  0  0  0  0  0  0  0  0
    8.9554   -3.2334   -4.7704 C   0  0  0  0  0  0  0  0  0  0  0  0
   11.0615   -4.4252    1.6071 H   0  0  0  0  0  0  0  0  0  0  0  0
    9.8998   -3.2065    2.1799 H   0  0  0  0  0  0  0  0  0  0  0  0
   10.8770   -2.8904    0.7287 H   0  0  0  0  0  0  0  0  0  0  0  0
    8.7325   -5.1069    0.9658 H   0  0  0  0  0  0  0  0  0  0  0  0
    9.7011   -4.7868   -0.4717 H   0  0  0  0  0  0  0  0  0  0  0  0
    8.7031   -2.4888   -0.6374 H   0  0  0  0  0  0  0  0  0  0  0  0
    7.7178   -2.8056    0.7936 H   0  0  0  0  0  0  0  0  0  0  0  0
    6.6299   -4.7505   -0.3950 H   0  0  0  0  0  0  0  0  0  0  0  0
    7.5659   -4.3893   -1.8412 H   0  0  0  0  0  0  0  0  0  0  0  0
    5.5457   -2.4678   -0.5248 H   0  0  0  0  0  0  0  0  0  0  0  0
    5.1705   -3.5463   -1.8607 H   0  0  0  0  0  0  0  0  0  0  0  0
    7.1729   -1.2185   -1.8969 H   0  0  0  0  0  0  0  0  0  0  0  0
    5.5580   -1.1902   -2.5737 H   0  0  0  0  0  0  0  0  0  0  0  0
    5.9905   -4.1748   -4.1022 H   0  0  0  0  0  0  0  0  0  0  0  0
    6.5510   -3.2246   -5.4816 H   0  0  0  0  0  0  0  0  0  0  0  0
    4.8205   -1.4745   -4.9951 H   0  0  0  0  0  0  0  0  0  0  0  0
    4.1188   -2.5211   -3.7557 H   0  0  0  0  0  0  0  0  0  0  0  0
    4.4164   -3.2578   -6.7263 H   0  0  0  0  0  0  0  0  0  0  0  0
    2.9499   -2.6539   -5.9627 H   0  0  0  0  0  0  0  0  0  0  0  0
    2.9118   -4.6791   -4.4462 H   0  0  0  0  0  0  0  0  0  0  0  0
    4.3278   -5.3204   -5.2784 H   0  0  0  0  0  0  0  0  0  0  0  0
    3.0537   -5.3249   -7.4507 H   0  0  0  0  0  0  0  0  0  0  0  0
    1.6337   -4.7002   -6.6163 H   0  0  0  0  0  0  0  0  0  0  0  0
    2.9828   -7.4201   -6.0210 H   0  0  0  0  0  0  0  0  0  0  0  0
    1.4599   -7.1871   -6.9090 H   0  0  0  0  0  0  0  0  0  0  0  0
    1.5509   -6.7899   -5.1780 H   0  0  0  0  0  0  0  0  0  0  0  0
    8.7323   -0.4795   -2.7632 H   0  0  0  0  0  0  0  0  0  0  0  0
   11.1132   -0.3860   -3.2693 H   0  0  0  0  0  0  0  0  0  0  0  0
   15.4558   -0.1765   -4.1970 H   0  0  0  0  0  0  0  0  0  0  0  0
   17.8783   -0.0500   -4.7293 H   0  0  0  0  0  0  0  0  0  0  0  0
   17.5114   -3.5565   -7.2273 H   0  0  0  0  0  0  0  0  0  0  0  0
   15.0890   -3.6819   -6.6943 H   0  0  0  0  0  0  0  0  0  0  0  0
   10.7557   -3.9179   -5.7175 H   0  0  0  0  0  0  0  0  0  0  0  0
    8.3827   -4.0633   -5.1826 H   0  0  0  0  0  0  0  0  0  0  0  0
  1  2  1  0
  1 30  1  0
  1 31  1  0
  1 32  1  0
  2  3  1  0
  2 33  1  0
  2 34  1  0
  3  4  1  0
  3 35  1  0
  3 36  1  0
  4  5  1  0
  4 37  1  0
  4 38  1  0
  5  6  1  0
  5 39  1  0
  5 40  1  0
  6  7  1  0
  6 41  1  0
  6 42  1  0
  7  8  1  0
  7 14  1  0
  8  9  1  0
  8 43  1  0
  8 44  1  0
  9 10  1  0
  9 45  1  0
  9 46  1  0
 10 11  1  0
 10 47  1  0
 10 48  1  0
 11 12  1  0
 11 49  1  0
 11 50  1  0
 12 13  1  0
 12 51  1  0
 12 52  1  0
 13 53  1  0
 13 54  1  0
 13 55  1  0
 14 15  2  0
 14 29  1  0
 15 16  1  0
 15 56  1  0
 16 17  2  0
 16 57  1  0
 17 18  1  0
 17 28  1  0
 18 19  3  0
 19 20  1  0
 20 21  2  0
 20 27  1  0
 21 22  1  0
 21 58  1  0
 22 23  2  0
 22 59  1  0
 23 24  1  0
 23 26  1  0
 24 25  3  0
 26 27  2  0
 26 60  1  0
 27 61  1  0
 28 29  2  0
 28 62  1  0
 29 63  1  0
M  END

