
     RDKit          3D

 61 64  0  0  0  0  0  0  0  0999 V2000
    2.9713   -1.2473   -0.4434 C   0  0  0  0  0  0  0  0  0  0  0  0
    2.2866    0.1268   -0.4108 C   0  0  1  0  0  0  0  0  0  0  0  0
    0.7468   -0.0397   -0.3598 C   0  0  0  0  0  0  0  0  0  0  0  0
    2.8187    0.9007    0.7181 N   0  0  0  0  0  0  0  0  0  0  0  0
    2.6222    0.9278   -1.6490 C   0  0  0  0  0  0  0  0  0  0  0  0
    2.5079    2.2140   -1.7851 N   0  0  0  0  0  0  0  0  0  0  0  0
    2.9377    2.4325   -3.0719 C   0  0  0  0  0  0  0  0  0  0  0  0
    3.0765    3.7927   -3.6916 C   0  0  1  0  0  0  0  0  0  0  0  0
    1.7617    4.6046   -3.7006 C   0  0  0  0  0  0  0  0  0  0  0  0
    1.3900    5.1632   -2.3103 C   0  0  2  0  0  0  0  0  0  0  0  0
    0.1439    6.0282   -2.3324 C   0  0  0  0  0  0  0  0  0  0  0  0
   -0.9386    5.7282   -1.4920 C   0  0  0  0  0  0  0  0  0  0  0  0
   -2.0907    6.5182   -1.4789 C   0  0  0  0  0  0  0  0  0  0  0  0
   -2.1790    7.6350   -2.3134 C   0  0  0  0  0  0  0  0  0  0  0  0
   -3.4035    8.5138   -2.3193 C   0  0  1  0  0  0  0  0  0  0  0  0
   -4.3719    8.0467   -1.5135 F   0  0  0  0  0  0  0  0  0  0  0  0
   -3.1161    9.7665   -1.9139 F   0  0  0  0  0  0  0  0  0  0  0  0
   -3.9282    8.6227   -3.5558 F   0  0  0  0  0  0  0  0  0  0  0  0
   -1.1072    7.9538   -3.1580 C   0  0  0  0  0  0  0  0  0  0  0  0
    0.0369    7.1586   -3.1643 C   0  0  0  0  0  0  0  0  0  0  0  0
    2.5963    5.9215   -1.7104 C   0  0  0  0  0  0  0  0  0  0  0  0
    3.8087    5.1129   -1.6931 N   0  0  0  0  0  0  0  0  0  0  0  0
    4.1679    4.5014   -0.4933 C   0  0  0  0  0  0  0  0  0  0  0  0
    3.4165    4.4560    0.4689 O   0  0  0  0  0  0  0  0  0  0  0  0
    5.4526    3.9495   -0.4676 N   0  0  0  0  0  0  0  0  0  0  0  0
    5.7558    3.0894    0.6792 C   0  0  0  0  0  0  0  0  0  0  0  0
    6.9931    2.2547    0.3666 C   0  0  0  0  0  0  0  0  0  0  0  0
    8.1011    3.0567   -0.0005 O   0  0  0  0  0  0  0  0  0  0  0  0
    7.8116    3.8582   -1.1228 C   0  0  0  0  0  0  0  0  0  0  0  0
    6.6078    4.7611   -0.8673 C   0  0  0  0  0  0  0  0  0  0  0  0
    4.2053    4.6057   -2.9990 C   0  0  0  0  0  0  0  0  0  0  0  0
    3.2800    1.3370   -3.7057 N   0  0  0  0  0  0  0  0  0  0  0  0
    3.0686    0.3326   -2.7577 O   0  0  0  0  0  0  0  0  0  0  0  0
    2.7351   -1.7935    0.4832 H   0  0  0  0  0  0  0  0  0  0  0  0
    4.0627   -1.1346   -0.5060 H   0  0  0  0  0  0  0  0  0  0  0  0
    2.6274   -1.8516   -1.2952 H   0  0  0  0  0  0  0  0  0  0  0  0
    0.4681   -0.6024    0.5460 H   0  0  0  0  0  0  0  0  0  0  0  0
    0.3636   -0.5907   -1.2338 H   0  0  0  0  0  0  0  0  0  0  0  0
    0.2551    0.9441   -0.3247 H   0  0  0  0  0  0  0  0  0  0  0  0
    2.4792    0.5115    1.5977 H   0  0  0  0  0  0  0  0  0  0  0  0
    2.5130    1.8755    0.6714 H   0  0  0  0  0  0  0  0  0  0  0  0
    3.3920    3.6165   -4.7317 H   0  0  0  0  0  0  0  0  0  0  0  0
    0.9375    3.9904   -4.0974 H   0  0  0  0  0  0  0  0  0  0  0  0
    1.8954    5.4399   -4.4100 H   0  0  0  0  0  0  0  0  0  0  0  0
    1.2003    4.3121   -1.6416 H   0  0  0  0  0  0  0  0  0  0  0  0
   -0.8780    4.8581   -0.8331 H   0  0  0  0  0  0  0  0  0  0  0  0
   -2.9225    6.2657   -0.8196 H   0  0  0  0  0  0  0  0  0  0  0  0
   -1.1700    8.8254   -3.8137 H   0  0  0  0  0  0  0  0  0  0  0  0
    0.8587    7.4270   -3.8328 H   0  0  0  0  0  0  0  0  0  0  0  0
    2.3721    6.2254   -0.6812 H   0  0  0  0  0  0  0  0  0  0  0  0
    2.7954    6.8327   -2.3058 H   0  0  0  0  0  0  0  0  0  0  0  0
    4.9009    2.4260    0.8689 H   0  0  0  0  0  0  0  0  0  0  0  0
    5.9298    3.6965    1.5891 H   0  0  0  0  0  0  0  0  0  0  0  0
    6.7558    1.5390   -0.4477 H   0  0  0  0  0  0  0  0  0  0  0  0
    7.2961    1.6783    1.2535 H   0  0  0  0  0  0  0  0  0  0  0  0
    7.6143    3.2225   -2.0124 H   0  0  0  0  0  0  0  0  0  0  0  0
    8.7062    4.4667   -1.3269 H   0  0  0  0  0  0  0  0  0  0  0  0
    6.3780    5.3518   -1.7635 H   0  0  0  0  0  0  0  0  0  0  0  0
    6.8643    5.4751   -0.0577 H   0  0  0  0  0  0  0  0  0  0  0  0
    5.0959    3.9763   -2.8988 H   0  0  0  0  0  0  0  0  0  0  0  0
    4.4631    5.4563   -3.6575 H   0  0  0  0  0  0  0  0  0  0  0  0
  1  2  1  0
  1 34  1  0
  1 35  1  0
  1 36  1  0
  2  3  1  0
  2  4  1  1
  2  5  1  0
  3 37  1  0
  3 38  1  0
  3 39  1  0
  4 40  1  0
  4 41  1  0
  5  6  2  0
  5 33  1  0
  6  7  1  0
  7  8  1  0
  7 32  2  0
  8  9  1  0
  8 31  1  0
  8 42  1  6
  9 10  1  0
  9 43  1  0
  9 44  1  0
 10 11  1  0
 10 21  1  0
 10 45  1  1
 11 12  2  0
 11 20  1  0
 12 13  1  0
 12 46  1  0
 13 14  2  0
 13 47  1  0
 14 15  1  0
 14 19  1  0
 15 16  1  1
 15 17  1  0
 15 18  1  0
 19 20  2  0
 19 48  1  0
 20 49  1  0
 21 22  1  0
 21 50  1  0
 21 51  1  0
 22 23  1  0
 22 31  1  0
 23 24  2  0
 23 25  1  0
 25 26  1  0
 25 30  1  0
 26 27  1  0
 26 52  1  0
 26 53  1  0
 27 28  1  0
 27 54  1  0
 27 55  1  0
 28 29  1  0
 29 30  1  0
 29 56  1  0
 29 57  1  0
 30 58  1  0
 30 59  1  0
 31 60  1  0
 31 61  1  0
 32 33  1  0
M  END

