
     RDKit          3D

 34 36  0  0  0  0  0  0  0  0999 V2000
    2.3719    0.5326   -2.7919 C   0  0  0  0  0  0  0  0  0  0  0  0
    2.5286    0.6300   -1.2809 C   0  0  1  0  0  0  0  0  0  0  0  0
    0.7636    1.1101   -0.4846 Br  0  0  0  0  0  0  0  0  0  0  0  0
    3.0442   -0.6365   -0.5956 C   0  0  0  0  0  0  0  0  0  0  0  0
    4.4973   -1.0136   -0.9734 C   0  0  1  0  0  0  0  0  0  0  0  0
    5.5268    0.0564   -0.5228 C   0  0  0  0  0  0  0  0  0  0  0  0
    6.7197   -0.7418    0.0183 C   0  0  0  0  0  0  0  0  0  0  0  0
    6.0540   -1.9727    0.6346 C   0  0  0  0  0  0  0  0  0  0  0  0
    4.9482   -2.2319   -0.2914 N   0  0  0  0  0  0  0  0  0  0  0  0
    4.4942   -3.5050   -0.5216 C   0  0  0  0  0  0  0  0  0  0  0  0
    4.9225   -4.4680    0.3061 N   0  0  0  0  0  0  0  0  0  0  0  0
    4.5235   -5.7373    0.1246 C   0  0  0  0  0  0  0  0  0  0  0  0
    3.7101   -6.2126   -0.8046 N   0  0  0  0  0  0  0  0  0  0  0  0
    3.2704   -5.2757   -1.6588 C   0  0  0  0  0  0  0  0  0  0  0  0
    2.4406   -5.4869   -2.7395 N   0  0  0  0  0  0  0  0  0  0  0  0
    2.3036   -4.3127   -3.2944 C   0  0  0  0  0  0  0  0  0  0  0  0
    2.9891   -3.3124   -2.6523 N   0  0  0  0  0  0  0  0  0  0  0  0
    3.0244   -2.3445   -2.9406 H   0  0  0  0  0  0  0  0  0  0  0  0
    3.6311   -3.9071   -1.5744 C   0  0  0  0  0  0  0  0  0  0  0  0
    1.9700    1.4651   -3.2128 H   0  0  0  0  0  0  0  0  0  0  0  0
    1.6830   -0.2823   -3.0678 H   0  0  0  0  0  0  0  0  0  0  0  0
    3.3506    0.3490   -3.2688 H   0  0  0  0  0  0  0  0  0  0  0  0
    3.1557    1.4932   -1.0201 H   0  0  0  0  0  0  0  0  0  0  0  0
    2.3608   -1.4700   -0.8219 H   0  0  0  0  0  0  0  0  0  0  0  0
    3.0100   -0.4996    0.4962 H   0  0  0  0  0  0  0  0  0  0  0  0
    4.5796   -1.1569   -2.0675 H   0  0  0  0  0  0  0  0  0  0  0  0
    5.0905    0.6655    0.2864 H   0  0  0  0  0  0  0  0  0  0  0  0
    5.7963    0.7436   -1.3385 H   0  0  0  0  0  0  0  0  0  0  0  0
    7.3214   -0.1712    0.7412 H   0  0  0  0  0  0  0  0  0  0  0  0
    7.3856   -1.0506   -0.8043 H   0  0  0  0  0  0  0  0  0  0  0  0
    5.6842   -1.7671    1.6573 H   0  0  0  0  0  0  0  0  0  0  0  0
    6.6993   -2.8574    0.7001 H   0  0  0  0  0  0  0  0  0  0  0  0
    4.9249   -6.4603    0.8458 H   0  0  0  0  0  0  0  0  0  0  0  0
    1.7098   -4.1026   -4.1860 H   0  0  0  0  0  0  0  0  0  0  0  0
  1  2  1  0
  1 20  1  0
  1 21  1  0
  1 22  1  0
  2  3  1  0
  2  4  1  0
  2 23  1  6
  4  5  1  0
  4 24  1  0
  4 25  1  0
  5  6  1  0
  5  9  1  0
  5 26  1  6
  6  7  1  0
  6 27  1  0
  6 28  1  0
  7  8  1  0
  7 29  1  0
  7 30  1  0
  8  9  1  0
  8 31  1  0
  8 32  1  0
  9 10  1  0
 10 11  2  0
 10 19  1  0
 11 12  1  0
 12 13  2  0
 12 33  1  0
 13 14  1  0
 14 15  1  0
 14 19  2  0
 15 16  2  0
 16 17  1  0
 16 34  1  0
 17 18  1  0
 17 19  1  0
M  END

