
     RDKit          3D

 44 46  0  0  0  0  0  0  0  0999 V2000
    0.6727    1.8563    1.5943 O   0  0  0  0  0  0  0  0  0  0  0  0
    2.0617    1.7047    1.8539 C   0  0  1  0  0  0  0  0  0  0  0  0
    2.3100    1.3414    3.3218 C   0  0  0  0  0  0  0  0  0  0  0  0
    1.5784    2.2535    4.1946 N   0  0  0  0  0  0  0  0  0  0  0  0
    2.0526    2.3383    5.5479 C   0  0  1  0  0  0  0  0  0  0  0  0
    1.0880    2.6007    6.6641 C   0  0  0  0  0  0  0  0  0  0  0  0
    1.7884    1.2602    6.5833 C   0  0  0  0  0  0  0  0  0  0  0  0
    2.5705    0.6397    0.8792 C   0  0  0  0  0  0  0  0  0  0  0  0
    4.0052    0.4077    1.0023 N   0  0  0  0  0  0  0  0  0  0  0  0
    4.4664   -0.9584    0.7759 C   0  0  0  0  0  0  0  0  0  0  0  0
    4.5641   -1.3377   -0.7042 C   0  0  0  0  0  0  0  0  0  0  0  0
    5.3774   -0.3643   -1.4343 N   0  0  0  0  0  0  0  0  0  0  0  0
    6.0967   -0.7707   -2.5474 C   0  0  0  0  0  0  0  0  0  0  0  0
    6.6186    0.1450   -3.5010 C   0  0  0  0  0  0  0  0  0  0  0  0
    7.3717   -0.3478   -4.5598 C   0  0  0  0  0  0  0  0  0  0  0  0
    7.5935   -1.7244   -4.6820 C   0  0  0  0  0  0  0  0  0  0  0  0
    7.0182   -2.5444   -3.7111 C   0  0  0  0  0  0  0  0  0  0  0  0
    6.2971   -2.0927   -2.6873 N   0  0  0  0  0  0  0  0  0  0  0  0
    4.9915    1.0241   -1.2295 C   0  0  0  0  0  0  0  0  0  0  0  0
    4.8550    1.3387    0.2721 C   0  0  0  0  0  0  0  0  0  0  0  0
    0.3922    2.6601    2.0521 H   0  0  0  0  0  0  0  0  0  0  0  0
    2.5816    2.6639    1.6547 H   0  0  0  0  0  0  0  0  0  0  0  0
    3.3873    1.4266    3.5285 H   0  0  0  0  0  0  0  0  0  0  0  0
    2.0416    0.2759    3.4903 H   0  0  0  0  0  0  0  0  0  0  0  0
    0.5887    2.0130    4.1843 H   0  0  0  0  0  0  0  0  0  0  0  0
    3.0257    2.8400    5.6203 H   0  0  0  0  0  0  0  0  0  0  0  0
    0.0215    2.6333    6.4156 H   0  0  0  0  0  0  0  0  0  0  0  0
    1.3758    3.3020    7.4525 H   0  0  0  0  0  0  0  0  0  0  0  0
    1.1905    0.3974    6.2729 H   0  0  0  0  0  0  0  0  0  0  0  0
    2.5644    1.0287    7.3195 H   0  0  0  0  0  0  0  0  0  0  0  0
    2.2451    0.9360   -0.1389 H   0  0  0  0  0  0  0  0  0  0  0  0
    2.0378   -0.2983    1.1055 H   0  0  0  0  0  0  0  0  0  0  0  0
    3.7966   -1.6614    1.2954 H   0  0  0  0  0  0  0  0  0  0  0  0
    5.4677   -1.0626    1.2321 H   0  0  0  0  0  0  0  0  0  0  0  0
    3.5474   -1.3898   -1.1488 H   0  0  0  0  0  0  0  0  0  0  0  0
    5.0233   -2.3249   -0.8294 H   0  0  0  0  0  0  0  0  0  0  0  0
    6.4333    1.2154   -3.4272 H   0  0  0  0  0  0  0  0  0  0  0  0
    7.7789    0.3478   -5.2990 H   0  0  0  0  0  0  0  0  0  0  0  0
    8.1768   -2.1455   -5.5027 H   0  0  0  0  0  0  0  0  0  0  0  0
    7.1448   -3.6333   -3.7646 H   0  0  0  0  0  0  0  0  0  0  0  0
    4.0429    1.2531   -1.7605 H   0  0  0  0  0  0  0  0  0  0  0  0
    5.7588    1.6921   -1.6422 H   0  0  0  0  0  0  0  0  0  0  0  0
    4.4760    2.3655    0.3921 H   0  0  0  0  0  0  0  0  0  0  0  0
    5.8643    1.3119    0.7208 H   0  0  0  0  0  0  0  0  0  0  0  0
  1  2  1  0
  1 21  1  0
  2  3  1  0
  2  8  1  0
  2 22  1  6
  3  4  1  0
  3 23  1  0
  3 24  1  0
  4  5  1  0
  4 25  1  0
  5  6  1  0
  5  7  1  0
  5 26  1  6
  6  7  1  0
  6 27  1  0
  6 28  1  0
  7 29  1  0
  7 30  1  0
  8  9  1  0
  8 31  1  0
  8 32  1  0
  9 10  1  0
  9 20  1  0
 10 11  1  0
 10 33  1  0
 10 34  1  0
 11 12  1  0
 11 35  1  0
 11 36  1  0
 12 13  1  0
 12 19  1  0
 13 14  2  0
 13 18  1  0
 14 15  1  0
 14 37  1  0
 15 16  2  0
 15 38  1  0
 16 17  1  0
 16 39  1  0
 17 18  2  0
 17 40  1  0
 19 20  1  0
 19 41  1  0
 19 42  1  0
 20 43  1  0
 20 44  1  0
M  END

