
     RDKit          3D

 31 32  0  0  0  0  0  0  0  0999 V2000
    0.7106    1.9242    0.8513 C   0  0  0  0  0  0  0  0  0  0  0  0
    1.9981    1.4236    0.6021 O   0  0  0  0  0  0  0  0  0  0  0  0
    2.2737    1.1236   -0.7537 C   0  0  1  0  0  0  0  0  0  0  0  0
    2.6423    2.3887   -1.5774 C   0  0  0  0  0  0  0  0  0  0  0  0
    4.1967    2.4565   -1.5917 C   0  0  0  0  0  0  0  0  0  0  0  0
    4.6605    1.3468   -0.6281 C   0  0  0  0  0  0  0  0  0  0  0  0
    3.5607    0.2749   -0.7486 C   0  0  2  0  0  0  0  0  0  0  0  0
    3.6571   -0.4797   -1.9930 N   0  0  0  0  0  0  0  0  0  0  0  0
    4.1843   -1.7049   -2.1115 C   0  0  0  0  0  0  0  0  0  0  0  0
    4.6353   -2.3333   -1.0014 N   0  0  0  0  0  0  0  0  0  0  0  0
    5.1346   -3.5433   -1.1520 C   0  0  0  0  0  0  0  0  0  0  0  0
    5.2600   -4.2404   -2.2934 N   0  0  0  0  0  0  0  0  0  0  0  0
    4.8329   -3.6361   -3.3807 C   0  0  0  0  0  0  0  0  0  0  0  0
    5.0034   -4.5484   -4.8700 Cl  0  0  0  0  0  0  0  0  0  0  0  0
    4.2673   -2.3464   -3.4049 C   0  0  0  0  0  0  0  0  0  0  0  0
    3.8012   -1.6862   -4.6226 C   0  0  0  0  0  0  0  0  0  0  0  0
    3.3134   -0.5620   -4.6590 O   0  0  0  0  0  0  0  0  0  0  0  0
    0.6195    2.0799    1.9362 H   0  0  0  0  0  0  0  0  0  0  0  0
   -0.0762    1.2126    0.5286 H   0  0  0  0  0  0  0  0  0  0  0  0
    0.5212    2.8917    0.3458 H   0  0  0  0  0  0  0  0  0  0  0  0
    1.4249    0.5654   -1.1944 H   0  0  0  0  0  0  0  0  0  0  0  0
    2.1913    3.2764   -1.1096 H   0  0  0  0  0  0  0  0  0  0  0  0
    2.2328    2.3320   -2.5986 H   0  0  0  0  0  0  0  0  0  0  0  0
    4.5804    3.4465   -1.3039 H   0  0  0  0  0  0  0  0  0  0  0  0
    4.5742    2.2574   -2.6076 H   0  0  0  0  0  0  0  0  0  0  0  0
    4.6576    1.7121    0.4102 H   0  0  0  0  0  0  0  0  0  0  0  0
    5.6634    0.9522   -0.8493 H   0  0  0  0  0  0  0  0  0  0  0  0
    3.5622   -0.4365    0.0845 H   0  0  0  0  0  0  0  0  0  0  0  0
    3.3627   -0.0649   -2.8824 H   0  0  0  0  0  0  0  0  0  0  0  0
    5.4919   -4.0450   -0.2438 H   0  0  0  0  0  0  0  0  0  0  0  0
    3.9140   -2.2733   -5.5586 H   0  0  0  0  0  0  0  0  0  0  0  0
  1  2  1  0
  1 18  1  0
  1 19  1  0
  1 20  1  0
  2  3  1  0
  3  4  1  0
  3  7  1  0
  3 21  1  6
  4  5  1  0
  4 22  1  0
  4 23  1  0
  5  6  1  0
  5 24  1  0
  5 25  1  0
  6  7  1  0
  6 26  1  0
  6 27  1  0
  7  8  1  0
  7 28  1  1
  8  9  1  0
  8 29  1  0
  9 10  2  0
  9 15  1  0
 10 11  1  0
 11 12  2  0
 11 30  1  0
 12 13  1  0
 13 14  1  0
 13 15  2  0
 15 16  1  0
 16 17  2  0
 16 31  1  0
M  END

