
     RDKit          3D

 35 36  0  0  0  0  0  0  0  0999 V2000
    0.4824    0.9469   -0.4984 C   0  0  0  0  0  0  0  0  0  0  0  0
    1.6794    0.0472   -0.2029 C   0  0  1  0  0  0  0  0  0  0  0  0
    1.4921   -0.5467    0.7046 H   0  0  0  0  0  0  0  0  0  0  0  0
    1.8587   -0.8949   -1.3120 N   0  0  0  0  0  0  0  0  0  0  0  0
    2.3978   -2.1421   -1.1830 C   0  0  0  0  0  0  0  0  0  0  0  0
    2.3846   -3.0533   -2.2778 C   0  0  0  0  0  0  0  0  0  0  0  0
    2.9461   -4.3024   -2.1092 C   0  0  0  0  0  0  0  0  0  0  0  0
    3.5053   -4.6182   -0.8611 C   0  0  0  0  0  0  0  0  0  0  0  0
    4.1106   -5.9267   -0.6360 N   0  0  0  0  0  0  0  0  0  0  0  0
    4.1043   -6.7188   -1.5683 O   0  0  0  0  0  0  0  0  0  0  0  0
    4.5856   -6.1511    0.4682 O   0  0  0  0  0  0  0  0  0  0  0  0
    3.4766   -3.6700    0.1625 C   0  0  0  0  0  0  0  0  0  0  0  0
    2.9399   -2.4640    0.0062 N   0  0  0  0  0  0  0  0  0  0  0  0
    2.9973    0.8465    0.0295 C   0  0  1  0  0  0  0  0  0  0  0  0
    3.7838    0.0918    0.2166 H   0  0  0  0  0  0  0  0  0  0  0  0
    3.3159    1.6217   -1.1099 O   0  0  0  0  0  0  0  0  0  0  0  0
    2.9202    1.7455    1.2462 C   0  0  0  0  0  0  0  0  0  0  0  0
    2.8624    1.1798    2.5298 C   0  0  0  0  0  0  0  0  0  0  0  0
    2.7727    1.9830    3.6682 C   0  0  0  0  0  0  0  0  0  0  0  0
    2.7473    3.3731    3.5221 C   0  0  0  0  0  0  0  0  0  0  0  0
    2.6277    4.4815    5.0716 Br  0  0  0  0  0  0  0  0  0  0  0  0
    2.8163    3.9582    2.2562 C   0  0  0  0  0  0  0  0  0  0  0  0
    2.9028    3.1411    1.1249 C   0  0  0  0  0  0  0  0  0  0  0  0
   -0.4273    0.3489   -0.6632 H   0  0  0  0  0  0  0  0  0  0  0  0
    0.6740    1.5657   -1.3896 H   0  0  0  0  0  0  0  0  0  0  0  0
    0.2958    1.6285    0.3428 H   0  0  0  0  0  0  0  0  0  0  0  0
    1.3592   -0.7005   -2.1713 H   0  0  0  0  0  0  0  0  0  0  0  0
    1.9346   -2.7658   -3.2309 H   0  0  0  0  0  0  0  0  0  0  0  0
    2.9652   -5.0438   -2.9084 H   0  0  0  0  0  0  0  0  0  0  0  0
    3.9104   -3.9147    1.1358 H   0  0  0  0  0  0  0  0  0  0  0  0
    3.4533    1.0070   -1.8426 H   0  0  0  0  0  0  0  0  0  0  0  0
    2.9006    0.0929    2.6484 H   0  0  0  0  0  0  0  0  0  0  0  0
    2.7310    1.5336    4.6617 H   0  0  0  0  0  0  0  0  0  0  0  0
    2.8061    5.0447    2.1529 H   0  0  0  0  0  0  0  0  0  0  0  0
    2.9689    3.5879    0.1323 H   0  0  0  0  0  0  0  0  0  0  0  0
  1  2  1  0
  1 24  1  0
  1 25  1  0
  1 26  1  0
  2  3  1  1
  2  4  1  0
  2 14  1  0
  4  5  1  0
  4 27  1  0
  5  6  2  0
  5 13  1  0
  6  7  1  0
  6 28  1  0
  7  8  2  0
  7 29  1  0
  8  9  1  0
  8 12  1  0
  9 10  2  0
  9 11  1  0
 12 13  2  0
 12 30  1  0
 14 15  1  1
 14 16  1  0
 14 17  1  0
 16 31  1  0
 17 18  2  0
 17 23  1  0
 18 19  1  0
 18 32  1  0
 19 20  2  0
 19 33  1  0
 20 21  1  0
 20 22  1  0
 22 23  2  0
 22 34  1  0
 23 35  1  0
M  CHG  2   9   1  11  -1
M  END

