
     RDKit          3D

 45 46  0  0  0  0  0  0  0  0999 V2000
    2.2678    1.0441   -0.4101 C   0  0  0  0  0  0  0  0  0  0  0  0
    1.9689   -0.2412    0.0835 O   0  0  0  0  0  0  0  0  0  0  0  0
    2.6020   -0.7052    1.2958 C   0  0  1  0  0  0  0  0  0  0  0  0
    1.9810    0.1019    2.4920 C   0  0  1  0  0  0  0  0  0  0  0  0
    0.5211    0.1606    2.4434 N   0  0  0  0  0  0  0  0  0  0  0  0
    2.4243   -0.3793    3.8904 C   0  0  0  0  0  0  0  0  0  0  0  0
    2.3581    0.6633    4.9904 C   0  0  0  0  0  0  0  0  0  0  0  0
    1.2404    1.4899    5.1898 C   0  0  0  0  0  0  0  0  0  0  0  0
    1.2569    2.4148    6.2372 C   0  0  0  0  0  0  0  0  0  0  0  0
    2.2800    2.5696    7.0834 N   0  0  0  0  0  0  0  0  0  0  0  0
    3.3437    1.7859    6.8958 C   0  0  0  0  0  0  0  0  0  0  0  0
    3.4319    0.8325    5.8769 C   0  0  0  0  0  0  0  0  0  0  0  0
    2.2455   -2.2003    1.3512 C   0  0  0  0  0  0  0  0  0  0  0  0
    2.8563   -2.9976    0.1921 C   0  0  0  0  0  0  0  0  0  0  0  0
    4.3938   -2.8594    0.0746 C   0  0  2  0  0  0  0  0  0  0  0  0
    4.8618   -3.5070   -1.2394 C   0  0  0  0  0  0  0  0  0  0  0  0
    5.1026   -3.5692    1.2453 C   0  0  0  0  0  0  0  0  0  0  0  0
    4.7445   -1.3508    0.0513 C   0  0  0  0  0  0  0  0  0  0  0  0
    4.1336   -0.5515    1.2109 C   0  0  0  0  0  0  0  0  0  0  0  0
    1.6014    1.2126   -1.2695 H   0  0  0  0  0  0  0  0  0  0  0  0
    3.3100    1.1378   -0.7664 H   0  0  0  0  0  0  0  0  0  0  0  0
    2.0845    1.8493    0.3259 H   0  0  0  0  0  0  0  0  0  0  0  0
    2.3500    1.1375    2.3799 H   0  0  0  0  0  0  0  0  0  0  0  0
    0.1261   -0.7507    2.6801 H   0  0  0  0  0  0  0  0  0  0  0  0
    0.2230    0.3533    1.4870 H   0  0  0  0  0  0  0  0  0  0  0  0
    3.4535   -0.7628    3.8521 H   0  0  0  0  0  0  0  0  0  0  0  0
    1.7950   -1.2422    4.1775 H   0  0  0  0  0  0  0  0  0  0  0  0
    0.3817    1.4094    4.5207 H   0  0  0  0  0  0  0  0  0  0  0  0
    0.3890    3.0662    6.3990 H   0  0  0  0  0  0  0  0  0  0  0  0
    4.1810    1.9200    7.5920 H   0  0  0  0  0  0  0  0  0  0  0  0
    4.3369    0.2259    5.7786 H   0  0  0  0  0  0  0  0  0  0  0  0
    1.1487   -2.3006    1.3265 H   0  0  0  0  0  0  0  0  0  0  0  0
    2.5813   -2.6115    2.3167 H   0  0  0  0  0  0  0  0  0  0  0  0
    2.3999   -2.6419   -0.7454 H   0  0  0  0  0  0  0  0  0  0  0  0
    2.5867   -4.0635    0.2923 H   0  0  0  0  0  0  0  0  0  0  0  0
    4.6164   -4.5817   -1.2622 H   0  0  0  0  0  0  0  0  0  0  0  0
    5.9531   -3.4103   -1.3653 H   0  0  0  0  0  0  0  0  0  0  0  0
    4.3794   -3.0347   -2.1108 H   0  0  0  0  0  0  0  0  0  0  0  0
    4.8606   -4.6448    1.2530 H   0  0  0  0  0  0  0  0  0  0  0  0
    4.8196   -3.1641    2.2289 H   0  0  0  0  0  0  0  0  0  0  0  0
    6.1975   -3.4754    1.1549 H   0  0  0  0  0  0  0  0  0  0  0  0
    4.3862   -0.9298   -0.9029 H   0  0  0  0  0  0  0  0  0  0  0  0
    5.8414   -1.2253    0.0535 H   0  0  0  0  0  0  0  0  0  0  0  0
    4.4050    0.5137    1.1223 H   0  0  0  0  0  0  0  0  0  0  0  0
    4.5757   -0.8863    2.1614 H   0  0  0  0  0  0  0  0  0  0  0  0
  1  2  1  0
  1 20  1  0
  1 21  1  0
  1 22  1  0
  3  2  1  6
  3  4  1  0
  3 13  1  0
  3 19  1  0
  4  5  1  0
  4  6  1  0
  4 23  1  6
  5 24  1  0
  5 25  1  0
  6  7  1  0
  6 26  1  0
  6 27  1  0
  7  8  2  0
  7 12  1  0
  8  9  1  0
  8 28  1  0
  9 10  2  0
  9 29  1  0
 10 11  1  0
 11 12  2  0
 11 30  1  0
 12 31  1  0
 13 14  1  0
 13 32  1  0
 13 33  1  0
 14 15  1  0
 14 34  1  0
 14 35  1  0
 15 16  1  6
 15 17  1  0
 15 18  1  0
 16 36  1  0
 16 37  1  0
 16 38  1  0
 17 39  1  0
 17 40  1  0
 17 41  1  0
 18 19  1  0
 18 42  1  0
 18 43  1  0
 19 44  1  0
 19 45  1  0
M  END

