
     RDKit          3D

 23 24  0  0  0  0  0  0  0  0999 V2000
    1.1655    1.2144   -0.9399 C   0  0  0  0  0  0  0  0  0  0  0  0
    2.5921    1.2642   -0.9097 O   0  0  0  0  0  0  0  0  0  0  0  0
    3.1638    1.1010    0.2843 C   0  0  0  0  0  0  0  0  0  0  0  0
    2.5419    0.9180    1.3073 O   0  0  0  0  0  0  0  0  0  0  0  0
    4.6623    1.1634    0.2539 C   0  0  0  0  0  0  0  0  0  0  0  0
    5.3088    0.9984    1.4547 C   0  0  0  0  0  0  0  0  0  0  0  0
    6.7262    1.0436    1.5142 C   0  0  0  0  0  0  0  0  0  0  0  0
    7.4278    1.2545    0.3572 C   0  0  0  0  0  0  0  0  0  0  0  0
    6.8598    1.4183   -0.8159 O   0  0  0  0  0  0  0  0  0  0  0  0
    5.4138    1.3893   -0.9900 C   0  0  0  0  0  0  0  0  0  0  0  0
    5.0374    1.5515   -2.1074 O   0  0  0  0  0  0  0  0  0  0  0  0
    8.9162    1.2852    0.5373 C   0  0  0  0  0  0  0  0  0  0  0  0
    9.0895    1.0504    2.0555 C   0  0  0  0  0  0  0  0  0  0  0  0
    7.6692    0.9029    2.6444 C   0  0  0  0  0  0  0  0  0  0  0  0
    7.3999    0.7102    3.8066 O   0  0  0  0  0  0  0  0  0  0  0  0
    0.8808    1.3697   -1.9874 H   0  0  0  0  0  0  0  0  0  0  0  0
    0.7339    2.0012   -0.3029 H   0  0  0  0  0  0  0  0  0  0  0  0
    0.8014    0.2392   -0.5827 H   0  0  0  0  0  0  0  0  0  0  0  0
    4.7117    0.8333    2.3553 H   0  0  0  0  0  0  0  0  0  0  0  0
    9.3209    2.2511    0.1915 H   0  0  0  0  0  0  0  0  0  0  0  0
    9.3911    0.5093   -0.0863 H   0  0  0  0  0  0  0  0  0  0  0  0
    9.6006    1.8831    2.5630 H   0  0  0  0  0  0  0  0  0  0  0  0
    9.6657    0.1407    2.2853 H   0  0  0  0  0  0  0  0  0  0  0  0
  1  2  1  0
  1 16  1  0
  1 17  1  0
  1 18  1  0
  2  3  1  0
  3  4  2  0
  3  5  1  0
  5  6  2  0
  5 10  1  0
  6  7  1  0
  6 19  1  0
  7  8  2  0
  7 14  1  0
  8  9  1  0
  8 12  1  0
  9 10  1  0
 10 11  2  0
 12 13  1  0
 12 20  1  0
 12 21  1  0
 13 14  1  0
 13 22  1  0
 13 23  1  0
 14 15  2  0
M  END

