
     RDKit          3D

 28 29  0  0  0  0  0  0  0  0999 V2000
    2.9861    0.0434    1.0827 O   0  0  0  0  0  0  0  0  0  0  0  0
    2.4112   -0.4110    0.1232 C   0  0  0  0  0  0  0  0  0  0  0  0
    2.9887   -0.6705   -1.0662 O   0  0  0  0  0  0  0  0  0  0  0  0
    4.4062   -0.4012   -1.2016 C   0  0  0  0  0  0  0  0  0  0  0  0
    5.2465   -1.6086   -0.8649 C   0  0  0  0  0  0  0  0  0  0  0  0
    5.6217   -2.5129   -1.8700 C   0  0  0  0  0  0  0  0  0  0  0  0
    6.3861   -3.6417   -1.5636 C   0  0  0  0  0  0  0  0  0  0  0  0
    6.7833   -3.8787   -0.2442 C   0  0  0  0  0  0  0  0  0  0  0  0
    6.4141   -2.9834    0.7648 C   0  0  0  0  0  0  0  0  0  0  0  0
    5.6506   -1.8545    0.4578 C   0  0  0  0  0  0  0  0  0  0  0  0
    0.9724   -0.7557    0.0888 C   0  0  0  0  0  0  0  0  0  0  0  0
    0.2742   -1.4177   -1.3624 S   0  0  0  0  0  0  0  0  0  0  0  0
   -1.2807   -1.5183   -0.6095 C   0  0  0  0  0  0  0  0  0  0  0  0
   -2.6388   -2.1307   -1.4704 Cl  0  0  0  0  0  0  0  0  0  0  0  0
   -1.2702   -1.0677    0.6899 C   0  0  0  0  0  0  0  0  0  0  0  0
    0.0222   -0.6306    1.0915 C   0  0  0  0  0  0  0  0  0  0  0  0
    0.2710   -0.0924    2.4860 C   0  0  1  0  0  0  0  0  0  0  0  0
    1.1589   -0.8298    3.1617 F   0  0  0  0  0  0  0  0  0  0  0  0
    0.7010    1.1736    2.4696 F   0  0  0  0  0  0  0  0  0  0  0  0
   -0.8781   -0.1104    3.1948 F   0  0  0  0  0  0  0  0  0  0  0  0
    4.6594    0.4523   -0.5584 H   0  0  0  0  0  0  0  0  0  0  0  0
    4.5306   -0.1181   -2.2552 H   0  0  0  0  0  0  0  0  0  0  0  0
    5.3146   -2.3289   -2.9037 H   0  0  0  0  0  0  0  0  0  0  0  0
    6.6744   -4.3364   -2.3567 H   0  0  0  0  0  0  0  0  0  0  0  0
    7.3829   -4.7602   -0.0026 H   0  0  0  0  0  0  0  0  0  0  0  0
    6.7241   -3.1640    1.7973 H   0  0  0  0  0  0  0  0  0  0  0  0
    5.3532   -1.1586    1.2457 H   0  0  0  0  0  0  0  0  0  0  0  0
   -2.1488   -1.0502    1.3316 H   0  0  0  0  0  0  0  0  0  0  0  0
  1  2  2  0
  2  3  1  0
  2 11  1  0
  3  4  1  0
  4  5  1  0
  4 21  1  0
  4 22  1  0
  5  6  2  0
  5 10  1  0
  6  7  1  0
  6 23  1  0
  7  8  2  0
  7 24  1  0
  8  9  1  0
  8 25  1  0
  9 10  2  0
  9 26  1  0
 10 27  1  0
 11 12  1  0
 11 16  2  0
 12 13  1  0
 13 14  1  0
 13 15  2  0
 15 16  1  0
 15 28  1  0
 16 17  1  0
 17 18  1  1
 17 19  1  0
 17 20  1  0
M  END

