
     RDKit          3D

 36 37  0  0  0  0  0  0  0  0999 V2000
    3.3381    0.4422   -1.5949 C   0  0  0  0  0  0  0  0  0  0  0  0
    2.8380    0.1435   -0.1845 C   0  0  0  0  0  0  0  0  0  0  0  0
    3.2203   -1.1851    0.2793 N   0  0  0  0  0  0  0  0  0  0  0  0
    4.1169   -1.5075    1.2437 C   0  0  0  0  0  0  0  0  0  0  0  0
    4.1573   -2.8996    1.3087 C   0  0  0  0  0  0  0  0  0  0  0  0
    4.9147   -3.8316    2.1780 C   0  0  0  0  0  0  0  0  0  0  0  0
    4.6608   -5.0243    2.2188 O   0  0  0  0  0  0  0  0  0  0  0  0
    5.9225   -3.2578    2.9283 N   0  0  0  0  0  0  0  0  0  0  0  0
    6.7461   -3.9297    3.8353 C   0  0  0  0  0  0  0  0  0  0  0  0
    6.7196   -5.2993    4.2384 C   0  0  0  0  0  0  0  0  0  0  0  0
    7.6669   -5.5485    5.1312 N   0  0  0  0  0  0  0  0  0  0  0  0
    8.3174   -4.3876    5.3099 N   0  0  0  0  0  0  0  0  0  0  0  0
    9.3589   -4.2901    6.2822 C   0  0  0  0  0  0  0  0  0  0  0  0
    8.8734   -3.6387    7.4349 O   0  0  0  0  0  0  0  0  0  0  0  0
    9.8163   -3.5338    8.4583 C   0  0  0  0  0  0  0  0  0  0  0  0
    9.2246   -2.7036    9.5843 C   0  0  1  0  0  0  0  0  0  0  0  0
    8.1190   -3.2588   10.0893 F   0  0  0  0  0  0  0  0  0  0  0  0
   10.1279   -2.5993   10.5765 F   0  0  0  0  0  0  0  0  0  0  0  0
    8.9179   -1.4648    9.1768 F   0  0  0  0  0  0  0  0  0  0  0  0
    7.7926   -3.3736    4.5531 C   0  0  0  0  0  0  0  0  0  0  0  0
    3.2230   -3.3094    0.3203 C   0  0  0  0  0  0  0  0  0  0  0  0
    2.6726   -2.2722   -0.2940 N   0  0  0  0  0  0  0  0  0  0  0  0
    2.9944    1.4379   -1.9156 H   0  0  0  0  0  0  0  0  0  0  0  0
    2.9505   -0.3058   -2.3015 H   0  0  0  0  0  0  0  0  0  0  0  0
    4.4384    0.4244   -1.6395 H   0  0  0  0  0  0  0  0  0  0  0  0
    1.7391    0.2041   -0.1438 H   0  0  0  0  0  0  0  0  0  0  0  0
    3.2369    0.8674    0.5422 H   0  0  0  0  0  0  0  0  0  0  0  0
    4.6261   -0.7323    1.8144 H   0  0  0  0  0  0  0  0  0  0  0  0
    6.1198   -2.2762    2.7834 H   0  0  0  0  0  0  0  0  0  0  0  0
    6.0458   -6.0752    3.8885 H   0  0  0  0  0  0  0  0  0  0  0  0
   10.2125   -3.7218    5.8607 H   0  0  0  0  0  0  0  0  0  0  0  0
    9.6820   -5.3221    6.5033 H   0  0  0  0  0  0  0  0  0  0  0  0
   10.7456   -3.0268    8.1287 H   0  0  0  0  0  0  0  0  0  0  0  0
   10.0982   -4.5198    8.8775 H   0  0  0  0  0  0  0  0  0  0  0  0
    8.1861   -2.3604    4.5959 H   0  0  0  0  0  0  0  0  0  0  0  0
    2.9519   -4.3313    0.0597 H   0  0  0  0  0  0  0  0  0  0  0  0
  1  2  1  0
  1 23  1  0
  1 24  1  0
  1 25  1  0
  2  3  1  0
  2 26  1  0
  2 27  1  0
  3  4  1  0
  3 22  1  0
  4  5  2  0
  4 28  1  0
  5  6  1  0
  5 21  1  0
  6  7  2  0
  6  8  1  0
  8  9  1  0
  8 29  1  0
  9 10  1  0
  9 20  2  0
 10 11  2  0
 10 30  1  0
 11 12  1  0
 12 13  1  0
 12 20  1  0
 13 14  1  0
 13 31  1  0
 13 32  1  0
 14 15  1  0
 15 16  1  0
 15 33  1  0
 15 34  1  0
 16 17  1  1
 16 18  1  0
 16 19  1  0
 20 35  1  0
 21 22  2  0
 21 36  1  0
M  END

