
     RDKit          3D

 40 41  0  0  0  0  0  0  0  0999 V2000
    2.5429    0.0235    2.6002 C   0  0  0  0  0  0  0  0  0  0  0  0
    2.2316   -1.2823    1.8711 C   0  0  0  0  0  0  0  0  0  0  0  0
    2.5182   -1.2325    0.3741 C   0  0  2  0  0  0  0  0  0  0  0  0
    1.9484   -0.4155   -0.1158 H   0  0  0  0  0  0  0  0  0  0  0  0
    2.1478   -2.4682   -0.2514 O   0  0  0  0  0  0  0  0  0  0  0  0
    0.8981   -2.6764   -0.7492 C   0  0  0  0  0  0  0  0  0  0  0  0
    0.7208   -3.8426   -1.5112 C   0  0  0  0  0  0  0  0  0  0  0  0
   -0.5223   -4.1437   -2.0605 C   0  0  0  0  0  0  0  0  0  0  0  0
   -1.6292   -3.3007   -1.8776 C   0  0  0  0  0  0  0  0  0  0  0  0
   -2.8549   -3.5597   -2.3993 O   0  0  0  0  0  0  0  0  0  0  0  0
   -1.4426   -2.1393   -1.1125 C   0  0  0  0  0  0  0  0  0  0  0  0
   -2.7929   -1.0647   -0.8493 Cl  0  0  0  0  0  0  0  0  0  0  0  0
   -0.2005   -1.8270   -0.5481 C   0  0  0  0  0  0  0  0  0  0  0  0
    3.8779   -1.0649    0.1902 O   0  0  0  0  0  0  0  0  0  0  0  0
    4.3154   -0.7647   -1.1481 C   0  0  1  0  0  0  0  0  0  0  0  0
    4.4067    0.7544   -1.3559 C   0  0  0  0  0  0  0  0  0  0  0  0
    5.5078    1.3945   -0.4992 C   0  0  0  0  0  0  0  0  0  0  0  0
    6.8639    0.7086   -0.7155 C   0  0  0  0  0  0  0  0  0  0  0  0
    6.7690   -0.8047   -0.4778 C   0  0  0  0  0  0  0  0  0  0  0  0
    5.6753   -1.4397   -1.3466 C   0  0  0  0  0  0  0  0  0  0  0  0
    2.3080   -0.0604    3.6726 H   0  0  0  0  0  0  0  0  0  0  0  0
    1.9521    0.8636    2.1974 H   0  0  0  0  0  0  0  0  0  0  0  0
    3.6072    0.2842    2.5037 H   0  0  0  0  0  0  0  0  0  0  0  0
    1.1738   -1.5580    2.0103 H   0  0  0  0  0  0  0  0  0  0  0  0
    2.8317   -2.1122    2.2791 H   0  0  0  0  0  0  0  0  0  0  0  0
    1.5762   -4.5032   -1.6622 H   0  0  0  0  0  0  0  0  0  0  0  0
   -0.6435   -5.0567   -2.6525 H   0  0  0  0  0  0  0  0  0  0  0  0
   -2.8219   -4.3914   -2.8893 H   0  0  0  0  0  0  0  0  0  0  0  0
   -0.1299   -0.9204    0.0498 H   0  0  0  0  0  0  0  0  0  0  0  0
    3.5927   -1.1994   -1.8586 H   0  0  0  0  0  0  0  0  0  0  0  0
    3.4288    1.2202   -1.1455 H   0  0  0  0  0  0  0  0  0  0  0  0
    4.6107    0.9386   -2.4263 H   0  0  0  0  0  0  0  0  0  0  0  0
    5.2265    1.3140    0.5648 H   0  0  0  0  0  0  0  0  0  0  0  0
    5.5797    2.4719   -0.7237 H   0  0  0  0  0  0  0  0  0  0  0  0
    7.6261    1.1541   -0.0542 H   0  0  0  0  0  0  0  0  0  0  0  0
    7.2056    0.8946   -1.7514 H   0  0  0  0  0  0  0  0  0  0  0  0
    6.5351   -0.9956    0.5835 H   0  0  0  0  0  0  0  0  0  0  0  0
    7.7390   -1.2891   -0.6799 H   0  0  0  0  0  0  0  0  0  0  0  0
    5.5707   -2.5141   -1.1276 H   0  0  0  0  0  0  0  0  0  0  0  0
    5.9485   -1.3502   -2.4134 H   0  0  0  0  0  0  0  0  0  0  0  0
  1  2  1  0
  1 21  1  0
  1 22  1  0
  1 23  1  0
  2  3  1  0
  2 24  1  0
  2 25  1  0
  3  4  1  6
  3  5  1  0
  3 14  1  0
  5  6  1  0
  6  7  2  0
  6 13  1  0
  7  8  1  0
  7 26  1  0
  8  9  2  0
  8 27  1  0
  9 10  1  0
  9 11  1  0
 10 28  1  0
 11 12  1  0
 11 13  2  0
 13 29  1  0
 14 15  1  0
 15 16  1  0
 15 20  1  0
 15 30  1  6
 16 17  1  0
 16 31  1  0
 16 32  1  0
 17 18  1  0
 17 33  1  0
 17 34  1  0
 18 19  1  0
 18 35  1  0
 18 36  1  0
 19 20  1  0
 19 37  1  0
 19 38  1  0
 20 39  1  0
 20 40  1  0
M  END

