
     RDKit          3D

 54 58  0  0  0  0  0  0  0  0999 V2000
    3.5043    6.6302    5.9180 C   0  0  0  0  0  0  0  0  0  0  0  0
    4.3793    5.5846    5.5647 O   0  0  0  0  0  0  0  0  0  0  0  0
    4.5600    5.2852    4.2519 C   0  0  0  0  0  0  0  0  0  0  0  0
    3.9369    5.9542    3.1876 C   0  0  0  0  0  0  0  0  0  0  0  0
    4.2001    5.5606    1.8716 C   0  0  0  0  0  0  0  0  0  0  0  0
    5.0749    4.5079    1.5713 C   0  0  0  0  0  0  0  0  0  0  0  0
    5.3004    4.0841    0.1186 C   0  0  1  0  0  0  0  0  0  0  0  0
    5.3815    5.2570   -0.7456 N   0  0  0  0  0  0  0  0  0  0  0  0
    4.7560    5.3456   -1.9464 C   0  0  0  0  0  0  0  0  0  0  0  0
    4.0322    4.4830   -2.4222 O   0  0  0  0  0  0  0  0  0  0  0  0
    4.9751    6.6823   -2.6720 C   0  0  0  0  0  0  0  0  0  0  0  0
    6.1621    7.4054   -2.2310 N   0  0  0  0  0  0  0  0  0  0  0  0
    7.3972    6.9634   -2.8952 C   0  0  0  0  0  0  0  0  0  0  0  0
    7.5298    7.7994   -4.1956 C   0  0  2  0  0  0  0  0  0  0  0  0
    8.9217    8.4275   -4.4270 C   0  0  1  0  0  0  0  0  0  0  0  0
    8.9663    9.1245   -5.8051 C   0  0  0  0  0  0  0  0  0  0  0  0
    8.1141   10.3971   -5.5228 C   0  0  0  0  0  0  0  0  0  0  0  0
    7.7479   10.1833   -4.0370 C   0  0  2  0  0  0  0  0  0  0  0  0
    8.9161    9.5348   -3.5153 O   0  0  0  0  0  0  0  0  0  0  0  0
    6.6730    9.0818   -3.9087 C   0  0  2  0  0  0  0  0  0  0  0  0
    6.1395    8.8521   -2.4702 C   0  0  0  0  0  0  0  0  0  0  0  0
    6.4908    3.1562   -0.0826 C   0  0  1  0  0  0  0  0  0  0  0  0
    6.3101    1.6600    0.0085 C   0  0  0  0  0  0  0  0  0  0  0  0
    6.5578    2.3101   -1.3283 C   0  0  0  0  0  0  0  0  0  0  0  0
    5.6887    3.8497    2.6518 C   0  0  0  0  0  0  0  0  0  0  0  0
    5.4392    4.2281    3.9684 C   0  0  0  0  0  0  0  0  0  0  0  0
    3.5126    6.6898    7.0149 H   0  0  0  0  0  0  0  0  0  0  0  0
    2.4700    6.4359    5.5797 H   0  0  0  0  0  0  0  0  0  0  0  0
    3.8334    7.6019    5.5061 H   0  0  0  0  0  0  0  0  0  0  0  0
    3.2474    6.7794    3.3677 H   0  0  0  0  0  0  0  0  0  0  0  0
    3.7074    6.0945    1.0556 H   0  0  0  0  0  0  0  0  0  0  0  0
    4.4046    3.5428   -0.2329 H   0  0  0  0  0  0  0  0  0  0  0  0
    5.9764    6.0457   -0.4990 H   0  0  0  0  0  0  0  0  0  0  0  0
    4.0824    7.2937   -2.4587 H   0  0  0  0  0  0  0  0  0  0  0  0
    4.9434    6.4539   -3.7560 H   0  0  0  0  0  0  0  0  0  0  0  0
    7.3781    5.8783   -3.0720 H   0  0  0  0  0  0  0  0  0  0  0  0
    8.2519    7.1817   -2.2335 H   0  0  0  0  0  0  0  0  0  0  0  0
    7.1794    7.2379   -5.0740 H   0  0  0  0  0  0  0  0  0  0  0  0
    9.7738    7.7701   -4.2044 H   0  0  0  0  0  0  0  0  0  0  0  0
    8.5582    8.4945   -6.6095 H   0  0  0  0  0  0  0  0  0  0  0  0
   10.0011    9.3850   -6.0704 H   0  0  0  0  0  0  0  0  0  0  0  0
    7.2264   10.4807   -6.1675 H   0  0  0  0  0  0  0  0  0  0  0  0
    8.7087   11.3140   -5.6442 H   0  0  0  0  0  0  0  0  0  0  0  0
    7.5481   11.1001   -3.4647 H   0  0  0  0  0  0  0  0  0  0  0  0
    5.8511    9.2176   -4.6273 H   0  0  0  0  0  0  0  0  0  0  0  0
    5.1315    9.2598   -2.3048 H   0  0  0  0  0  0  0  0  0  0  0  0
    6.8217    9.3358   -1.7511 H   0  0  0  0  0  0  0  0  0  0  0  0
    7.4415    3.5576    0.2886 H   0  0  0  0  0  0  0  0  0  0  0  0
    5.3041    1.2814    0.2148 H   0  0  0  0  0  0  0  0  0  0  0  0
    7.1102    1.0663    0.4601 H   0  0  0  0  0  0  0  0  0  0  0  0
    5.7215    2.3863   -2.0283 H   0  0  0  0  0  0  0  0  0  0  0  0
    7.5346    2.1653   -1.7986 H   0  0  0  0  0  0  0  0  0  0  0  0
    6.3713    3.0195    2.4659 H   0  0  0  0  0  0  0  0  0  0  0  0
    5.9193    3.7149    4.8044 H   0  0  0  0  0  0  0  0  0  0  0  0
  1  2  1  0
  1 27  1  0
  1 28  1  0
  1 29  1  0
  2  3  1  0
  3  4  2  0
  3 26  1  0
  4  5  1  0
  4 30  1  0
  5  6  2  0
  5 31  1  0
  6  7  1  0
  6 25  1  0
  7  8  1  0
  7 22  1  0
  7 32  1  6
  8  9  1  0
  8 33  1  0
  9 10  2  0
  9 11  1  0
 11 12  1  0
 11 34  1  0
 11 35  1  0
 12 13  1  0
 12 21  1  0
 13 14  1  0
 13 36  1  0
 13 37  1  0
 14 15  1  0
 14 20  1  0
 14 38  1  6
 15 16  1  0
 15 19  1  0
 15 39  1  1
 16 17  1  0
 16 40  1  0
 16 41  1  0
 17 18  1  0
 17 42  1  0
 17 43  1  0
 18 19  1  0
 18 20  1  0
 18 44  1  1
 20 21  1  0
 20 45  1  6
 21 46  1  0
 21 47  1  0
 22 23  1  0
 22 24  1  0
 22 48  1  1
 23 24  1  0
 23 49  1  0
 23 50  1  0
 24 51  1  0
 24 52  1  0
 25 26  2  0
 25 53  1  0
 26 54  1  0
M  END

