
     RDKit          3D

 51 53  0  0  0  0  0  0  0  0999 V2000
    0.8121   -0.2689    0.7946 C   0  0  0  0  0  0  0  0  0  0  0  0
    2.2726   -0.0572    0.4857 C   0  0  0  0  0  0  0  0  0  0  0  0
    3.2135    0.0604    1.5155 C   0  0  0  0  0  0  0  0  0  0  0  0
    4.5727    0.2633    1.2684 C   0  0  0  0  0  0  0  0  0  0  0  0
    5.0281    0.3460   -0.0548 C   0  0  0  0  0  0  0  0  0  0  0  0
    6.4146    0.5728   -0.3820 N   0  0  0  0  0  0  0  0  0  0  0  0
    6.6968    1.4629   -1.5043 C   0  0  0  0  0  0  0  0  0  0  0  0
    6.1335    2.8912   -1.3943 C   0  0  0  0  0  0  0  0  0  0  0  0
    5.9388    3.5364   -2.4051 O   0  0  0  0  0  0  0  0  0  0  0  0
    5.9680    3.3537   -0.1125 N   0  0  0  0  0  0  0  0  0  0  0  0
    5.5182    4.6103    0.3203 C   0  0  0  0  0  0  0  0  0  0  0  0
    5.2277    5.6724   -0.5587 C   0  0  0  0  0  0  0  0  0  0  0  0
    4.7883    6.8888   -0.0446 C   0  0  0  0  0  0  0  0  0  0  0  0
    4.6444    7.0960    1.3361 C   0  0  0  0  0  0  0  0  0  0  0  0
    4.1571    8.4356    1.8029 C   0  0  0  0  0  0  0  0  0  0  0  0
    3.6135    9.2300    1.0813 O   0  0  0  0  0  0  0  0  0  0  0  0
    4.3615    8.7322    3.1095 O   0  0  0  0  0  0  0  0  0  0  0  0
    4.9233    6.0268    2.2033 C   0  0  0  0  0  0  0  0  0  0  0  0
    5.3534    4.8011    1.7053 C   0  0  0  0  0  0  0  0  0  0  0  0
    7.4336   -0.0691    0.3310 C   0  0  0  0  0  0  0  0  0  0  0  0
    7.2551   -0.5756    1.4229 O   0  0  0  0  0  0  0  0  0  0  0  0
    8.8035   -0.1547   -0.2953 C   0  0  0  0  0  0  0  0  0  0  0  0
    9.0374   -0.6366   -1.5911 C   0  0  0  0  0  0  0  0  0  0  0  0
   10.3537   -0.8122   -2.0178 C   0  0  0  0  0  0  0  0  0  0  0  0
   11.3896   -0.4889   -1.1353 C   0  0  0  0  0  0  0  0  0  0  0  0
   11.1819   -0.0375    0.1048 N   0  0  0  0  0  0  0  0  0  0  0  0
    9.9232    0.1068    0.5145 C   0  0  0  0  0  0  0  0  0  0  0  0
    4.0929    0.2267   -1.0958 C   0  0  0  0  0  0  0  0  0  0  0  0
    2.7291    0.0294   -0.8498 C   0  0  0  0  0  0  0  0  0  0  0  0
    1.7635   -0.0915   -2.0027 C   0  0  0  0  0  0  0  0  0  0  0  0
    0.6342   -0.3077    1.8789 H   0  0  0  0  0  0  0  0  0  0  0  0
    0.4359   -1.2101    0.3587 H   0  0  0  0  0  0  0  0  0  0  0  0
    0.1866    0.5399    0.3798 H   0  0  0  0  0  0  0  0  0  0  0  0
    2.8752   -0.0056    2.5534 H   0  0  0  0  0  0  0  0  0  0  0  0
    5.2742    0.3325    2.0958 H   0  0  0  0  0  0  0  0  0  0  0  0
    6.3394    1.0756   -2.4698 H   0  0  0  0  0  0  0  0  0  0  0  0
    7.7839    1.5803   -1.6009 H   0  0  0  0  0  0  0  0  0  0  0  0
    6.1257    2.6698    0.6203 H   0  0  0  0  0  0  0  0  0  0  0  0
    5.3440    5.5248   -1.6296 H   0  0  0  0  0  0  0  0  0  0  0  0
    4.5475    7.7145   -0.7170 H   0  0  0  0  0  0  0  0  0  0  0  0
    4.9366    8.0721    3.5200 H   0  0  0  0  0  0  0  0  0  0  0  0
    4.7766    6.1227    3.2834 H   0  0  0  0  0  0  0  0  0  0  0  0
    5.5531    3.9755    2.3939 H   0  0  0  0  0  0  0  0  0  0  0  0
    8.2037   -0.8887   -2.2516 H   0  0  0  0  0  0  0  0  0  0  0  0
   10.5761   -1.1967   -3.0156 H   0  0  0  0  0  0  0  0  0  0  0  0
   12.4347   -0.6078   -1.4446 H   0  0  0  0  0  0  0  0  0  0  0  0
    9.7705    0.4486    1.5443 H   0  0  0  0  0  0  0  0  0  0  0  0
    4.4229    0.2807   -2.1343 H   0  0  0  0  0  0  0  0  0  0  0  0
    2.2773   -0.0070   -2.9711 H   0  0  0  0  0  0  0  0  0  0  0  0
    0.9891    0.6933   -1.9646 H   0  0  0  0  0  0  0  0  0  0  0  0
    1.2313   -1.0576   -1.9860 H   0  0  0  0  0  0  0  0  0  0  0  0
  1  2  1  0
  1 31  1  0
  1 32  1  0
  1 33  1  0
  2  3  2  0
  2 29  1  0
  3  4  1  0
  3 34  1  0
  4  5  2  0
  4 35  1  0
  5  6  1  0
  5 28  1  0
  6  7  1  0
  6 20  1  0
  7  8  1  0
  7 36  1  0
  7 37  1  0
  8  9  2  0
  8 10  1  0
 10 11  1  0
 10 38  1  0
 11 12  2  0
 11 19  1  0
 12 13  1  0
 12 39  1  0
 13 14  2  0
 13 40  1  0
 14 15  1  0
 14 18  1  0
 15 16  2  0
 15 17  1  0
 17 41  1  0
 18 19  2  0
 18 42  1  0
 19 43  1  0
 20 21  2  0
 20 22  1  0
 22 23  2  0
 22 27  1  0
 23 24  1  0
 23 44  1  0
 24 25  2  0
 24 45  1  0
 25 26  1  0
 25 46  1  0
 26 27  2  0
 27 47  1  0
 28 29  2  0
 28 48  1  0
 29 30  1  0
 30 49  1  0
 30 50  1  0
 30 51  1  0
M  END

