
     RDKit          3D

 46 48  0  0  0  0  0  0  0  0999 V2000
    5.8485   -2.7042   -4.8085 C   0  0  0  0  0  0  0  0  0  0  0  0
    5.8765   -4.1229   -4.2660 C   0  0  0  0  0  0  0  0  0  0  0  0
    5.4417   -5.0695   -4.9024 O   0  0  0  0  0  0  0  0  0  0  0  0
    6.4246   -4.2722   -3.0201 N   0  0  0  0  0  0  0  0  0  0  0  0
    6.5050   -5.5710   -2.3698 C   0  0  0  0  0  0  0  0  0  0  0  0
    5.3083   -5.8852   -1.4914 C   0  0  0  0  0  0  0  0  0  0  0  0
    4.0660   -6.2546   -2.0460 C   0  0  0  0  0  0  0  0  0  0  0  0
    3.0101   -6.5123   -1.2792 N   0  0  0  0  0  0  0  0  0  0  0  0
    3.1722   -6.4062    0.0436 C   0  0  0  0  0  0  0  0  0  0  0  0
    4.4013   -6.0435    0.6119 C   0  0  0  0  0  0  0  0  0  0  0  0
    4.6490   -5.9383    2.1132 C   0  0  2  0  0  0  0  0  0  0  0  0
    5.1220   -4.9633    2.2989 H   0  0  0  0  0  0  0  0  0  0  0  0
    5.5508   -7.0919    2.6093 C   0  0  0  0  0  0  0  0  0  0  0  0
    4.5409   -8.2153    2.8744 C   0  0  0  0  0  0  0  0  0  0  0  0
    3.3292   -7.4762    3.4606 C   0  0  0  0  0  0  0  0  0  0  0  0
    3.4427   -6.0988    2.9361 N   0  0  0  0  0  0  0  0  0  0  0  0
    2.7698   -5.1113    3.6247 C   0  0  0  0  0  0  0  0  0  0  0  0
    2.0273   -5.3962    4.5541 O   0  0  0  0  0  0  0  0  0  0  0  0
    2.9696   -3.6689    3.2436 C   0  0  0  0  0  0  0  0  0  0  0  0
    3.0437   -3.1697    1.9383 C   0  0  0  0  0  0  0  0  0  0  0  0
    3.1413   -1.7918    1.7398 C   0  0  0  0  0  0  0  0  0  0  0  0
    3.1723   -0.9355    2.8505 C   0  0  0  0  0  0  0  0  0  0  0  0
    3.2847    0.5593    2.7050 C   0  0  0  0  0  0  0  0  0  0  0  0
    3.0927   -1.4128    4.1037 N   0  0  0  0  0  0  0  0  0  0  0  0
    2.9799   -2.7236    4.2876 C   0  0  0  0  0  0  0  0  0  0  0  0
    5.4591   -5.7862   -0.1698 N   0  0  0  0  0  0  0  0  0  0  0  0
    4.8000   -2.4077   -4.9663 H   0  0  0  0  0  0  0  0  0  0  0  0
    6.3367   -2.6981   -5.7943 H   0  0  0  0  0  0  0  0  0  0  0  0
    6.3385   -1.9657   -4.1572 H   0  0  0  0  0  0  0  0  0  0  0  0
    6.6956   -3.4516   -2.4925 H   0  0  0  0  0  0  0  0  0  0  0  0
    7.4067   -5.6068   -1.7419 H   0  0  0  0  0  0  0  0  0  0  0  0
    6.5892   -6.3225   -3.1679 H   0  0  0  0  0  0  0  0  0  0  0  0
    3.9511   -6.3322   -3.1326 H   0  0  0  0  0  0  0  0  0  0  0  0
    2.3031   -6.6087    0.6766 H   0  0  0  0  0  0  0  0  0  0  0  0
    6.0428   -6.7839    3.5463 H   0  0  0  0  0  0  0  0  0  0  0  0
    6.3326   -7.3453    1.8802 H   0  0  0  0  0  0  0  0  0  0  0  0
    4.9234   -8.9880    3.5571 H   0  0  0  0  0  0  0  0  0  0  0  0
    4.2731   -8.7162    1.9299 H   0  0  0  0  0  0  0  0  0  0  0  0
    3.3475   -7.4371    4.5616 H   0  0  0  0  0  0  0  0  0  0  0  0
    2.3649   -7.9286    3.1796 H   0  0  0  0  0  0  0  0  0  0  0  0
    2.9985   -3.8387    1.0775 H   0  0  0  0  0  0  0  0  0  0  0  0
    3.1839   -1.3817    0.7281 H   0  0  0  0  0  0  0  0  0  0  0  0
    3.3400    0.8718    1.6525 H   0  0  0  0  0  0  0  0  0  0  0  0
    4.1804    0.9247    3.2327 H   0  0  0  0  0  0  0  0  0  0  0  0
    2.4189    1.0509    3.1771 H   0  0  0  0  0  0  0  0  0  0  0  0
    2.8882   -3.0781    5.3200 H   0  0  0  0  0  0  0  0  0  0  0  0
  1  2  1  0
  1 27  1  0
  1 28  1  0
  1 29  1  0
  2  3  2  0
  2  4  1  0
  4  5  1  0
  4 30  1  0
  5  6  1  0
  5 31  1  0
  5 32  1  0
  6  7  2  0
  6 26  1  0
  7  8  1  0
  7 33  1  0
  8  9  2  0
  9 10  1  0
  9 34  1  0
 10 11  1  0
 10 26  2  0
 11 12  1  6
 11 13  1  0
 11 16  1  0
 13 14  1  0
 13 35  1  0
 13 36  1  0
 14 15  1  0
 14 37  1  0
 14 38  1  0
 15 16  1  0
 15 39  1  0
 15 40  1  0
 16 17  1  0
 17 18  2  0
 17 19  1  0
 19 20  2  0
 19 25  1  0
 20 21  1  0
 20 41  1  0
 21 22  2  0
 21 42  1  0
 22 23  1  0
 22 24  1  0
 23 43  1  0
 23 44  1  0
 23 45  1  0
 24 25  2  0
 25 46  1  0
M  END

