
     RDKit          3D

 41 42  0  0  0  0  0  0  0  0999 V2000
    2.0604    1.3669   -0.3475 N   0  0  0  0  0  0  0  0  0  0  0  0
    3.2212    0.8304    0.1546 C   0  0  0  0  0  0  0  0  0  0  0  0
    3.0591   -0.1402    1.3143 C   0  0  0  0  0  0  0  0  0  0  0  0
    2.3031    0.3886    2.4546 N   0  0  0  0  0  0  0  0  0  0  0  0
    0.9386    0.2665    2.4011 C   0  0  0  0  0  0  0  0  0  0  0  0
    0.3798   -0.2060    1.4153 O   0  0  0  0  0  0  0  0  0  0  0  0
    0.1224    0.7163    3.6246 C   0  0  0  0  0  0  0  0  0  0  0  0
   -1.3699    0.5579    3.4529 C   0  0  0  0  0  0  0  0  0  0  0  0
   -1.9537   -0.7140    3.3344 C   0  0  0  0  0  0  0  0  0  0  0  0
   -3.3329   -0.8657    3.1948 C   0  0  0  0  0  0  0  0  0  0  0  0
   -4.1379    0.2722    3.1705 C   0  0  0  0  0  0  0  0  0  0  0  0
   -5.4664    0.1318    3.0375 F   0  0  0  0  0  0  0  0  0  0  0  0
   -3.5953    1.5481    3.2815 C   0  0  0  0  0  0  0  0  0  0  0  0
   -2.2101    1.6792    3.4215 C   0  0  0  0  0  0  0  0  0  0  0  0
    3.0507    0.9701    3.5734 C   0  0  1  0  0  0  0  0  0  0  0  0
    3.8590   -0.0349    4.4256 C   0  0  0  0  0  0  0  0  0  0  0  0
    4.8679    0.8377    5.2117 C   0  0  0  0  0  0  0  0  0  0  0  0
    4.8661    2.2330    4.5204 C   0  0  0  0  0  0  0  0  0  0  0  0
    4.0928    2.0423    3.2039 C   0  0  0  0  0  0  0  0  0  0  0  0
    4.3467    1.1722   -0.3724 N   0  0  0  0  0  0  0  0  0  0  0  0
    5.4541    0.6338    0.3252 O   0  0  0  0  0  0  0  0  0  0  0  0
    1.2115    0.8272   -0.1955 H   0  0  0  0  0  0  0  0  0  0  0  0
    2.1444    1.8851   -1.2148 H   0  0  0  0  0  0  0  0  0  0  0  0
    4.0517   -0.4546    1.6474 H   0  0  0  0  0  0  0  0  0  0  0  0
    2.5216   -1.0245    0.9397 H   0  0  0  0  0  0  0  0  0  0  0  0
    0.3541    1.7703    3.8436 H   0  0  0  0  0  0  0  0  0  0  0  0
    0.4681    0.1419    4.5020 H   0  0  0  0  0  0  0  0  0  0  0  0
   -1.3188   -1.6028    3.3416 H   0  0  0  0  0  0  0  0  0  0  0  0
   -3.7948   -1.8505    3.1010 H   0  0  0  0  0  0  0  0  0  0  0  0
   -4.2546    2.4178    3.2578 H   0  0  0  0  0  0  0  0  0  0  0  0
   -1.7787    2.6805    3.5079 H   0  0  0  0  0  0  0  0  0  0  0  0
    2.3197    1.4525    4.2341 H   0  0  0  0  0  0  0  0  0  0  0  0
    4.3917   -0.7317    3.7592 H   0  0  0  0  0  0  0  0  0  0  0  0
    3.2096   -0.6448    5.0731 H   0  0  0  0  0  0  0  0  0  0  0  0
    5.8709    0.3846    5.1973 H   0  0  0  0  0  0  0  0  0  0  0  0
    4.5813    0.9252    6.2712 H   0  0  0  0  0  0  0  0  0  0  0  0
    5.8822    2.6217    4.3542 H   0  0  0  0  0  0  0  0  0  0  0  0
    4.3498    2.9699    5.1578 H   0  0  0  0  0  0  0  0  0  0  0  0
    4.7628    1.6686    2.4137 H   0  0  0  0  0  0  0  0  0  0  0  0
    3.6266    2.9674    2.8304 H   0  0  0  0  0  0  0  0  0  0  0  0
    6.1959    1.0072   -0.1656 H   0  0  0  0  0  0  0  0  0  0  0  0
  1  2  1  0
  1 22  1  0
  1 23  1  0
  2  3  1  0
  2 20  2  0
  3  4  1  0
  3 24  1  0
  3 25  1  0
  4  5  1  0
  4 15  1  0
  5  6  2  0
  5  7  1  0
  7  8  1  0
  7 26  1  0
  7 27  1  0
  8  9  2  0
  8 14  1  0
  9 10  1  0
  9 28  1  0
 10 11  2  0
 10 29  1  0
 11 12  1  0
 11 13  1  0
 13 14  2  0
 13 30  1  0
 14 31  1  0
 15 16  1  0
 15 19  1  0
 15 32  1  1
 16 17  1  0
 16 33  1  0
 16 34  1  0
 17 18  1  0
 17 35  1  0
 17 36  1  0
 18 19  1  0
 18 37  1  0
 18 38  1  0
 19 39  1  0
 19 40  1  0
 20 21  1  0
 21 41  1  0
M  END

