
     RDKit          3D

 93103  0  0  0  0  0  0  0  0999 V2000
    6.6803    5.0173    5.6410 C   0  0  0  0  0  0  0  0  0  0  0  0
    6.3953    6.3463    4.9082 C   0  0  2  0  0  0  0  0  0  0  0  0
    7.6397    6.7886    4.1081 C   0  0  0  0  0  0  0  0  0  0  0  0
    5.9444    7.4356    5.8842 C   0  0  0  0  0  0  0  0  0  0  0  0
    6.6399    7.9910    6.9554 C   0  0  0  0  0  0  0  0  0  0  0  0
    6.0271    8.9891    7.7272 C   0  0  0  0  0  0  0  0  0  0  0  0
    4.7306    9.4251    7.4252 C   0  0  0  0  0  0  0  0  0  0  0  0
    4.0265    8.8726    6.3500 C   0  0  0  0  0  0  0  0  0  0  0  0
    4.6371    7.8760    5.5803 C   0  0  0  0  0  0  0  0  0  0  0  0
    4.1547    7.1268    4.4140 C   0  0  0  0  0  0  0  0  0  0  0  0
    2.9442    7.1775    3.7140 C   0  0  0  0  0  0  0  0  0  0  0  0
    2.7453    6.3312    2.6226 C   0  0  0  0  0  0  0  0  0  0  0  0
    3.7529    5.4382    2.2045 C   0  0  0  0  0  0  0  0  0  0  0  0
    3.5416    4.5883    1.0867 N   0  0  0  0  0  0  0  0  0  0  0  0
    3.9601    3.2324    1.1406 C   0  0  0  0  0  0  0  0  0  0  0  0
    3.7478    2.4625    2.2994 C   0  0  0  0  0  0  0  0  0  0  0  0
    4.1687    1.1327    2.3514 C   0  0  0  0  0  0  0  0  0  0  0  0
    4.7926    0.5396    1.2489 C   0  0  0  0  0  0  0  0  0  0  0  0
    4.9989    1.2985    0.0922 C   0  0  0  0  0  0  0  0  0  0  0  0
    4.5961    2.6337    0.0370 C   0  0  0  0  0  0  0  0  0  0  0  0
    2.9119    5.0903   -0.0815 C   0  0  0  0  0  0  0  0  0  0  0  0
    3.2328    6.3742   -0.5695 C   0  0  0  0  0  0  0  0  0  0  0  0
    2.6141    6.8835   -1.7113 C   0  0  0  0  0  0  0  0  0  0  0  0
    1.6731    6.1025   -2.3921 C   0  0  0  0  0  0  0  0  0  0  0  0
    1.3536    4.8128   -1.9144 C   0  0  0  0  0  0  0  0  0  0  0  0
    1.9565    4.3106   -0.7678 C   0  0  0  0  0  0  0  0  0  0  0  0
    0.3035    4.1455   -2.8062 C   0  0  1  0  0  0  0  0  0  0  0  0
    0.8543    2.8536   -3.4478 C   0  0  0  0  0  0  0  0  0  0  0  0
   -0.9904    3.8387   -2.0216 C   0  0  0  0  0  0  0  0  0  0  0  0
    0.0720    5.2354   -3.8560 C   0  0  0  0  0  0  0  0  0  0  0  0
   -0.7891    5.2158   -4.9460 C   0  0  0  0  0  0  0  0  0  0  0  0
   -0.8560    6.3272   -5.8154 C   0  0  0  0  0  0  0  0  0  0  0  0
   -1.7361    6.3227   -7.0111 C   0  0  0  0  0  0  0  0  0  0  0  0
   -1.3523    6.9045   -8.2118 C   0  0  0  0  0  0  0  0  0  0  0  0
   -2.1790    6.9301   -9.3741 C   0  0  0  0  0  0  0  0  0  0  0  0
   -1.7255    7.5350  -10.5790 C   0  0  0  0  0  0  0  0  0  0  0  0
   -2.5200    7.5619  -11.7073 C   0  0  0  0  0  0  0  0  0  0  0  0
   -3.8088    6.9796  -11.6771 C   0  0  0  0  0  0  0  0  0  0  0  0
   -4.2806    6.3807  -10.5238 C   0  0  0  0  0  0  0  0  0  0  0  0
   -3.4878    6.3365   -9.3478 C   0  0  0  0  0  0  0  0  0  0  0  0
   -3.8988    5.7348   -8.1171 C   0  0  0  0  0  0  0  0  0  0  0  0
   -3.0336    5.7413   -7.0190 C   0  0  0  0  0  0  0  0  0  0  0  0
   -3.6005    5.1387   -5.9286 O   0  0  0  0  0  0  0  0  0  0  0  0
   -4.8473    4.7303   -6.3074 C   0  0  0  0  0  0  0  0  0  0  0  0
   -5.7561    4.0711   -5.4861 C   0  0  0  0  0  0  0  0  0  0  0  0
   -6.9870    3.7328   -6.0528 C   0  0  0  0  0  0  0  0  0  0  0  0
   -7.2793    4.0504   -7.3921 C   0  0  0  0  0  0  0  0  0  0  0  0
   -6.3535    4.7125   -8.1993 C   0  0  0  0  0  0  0  0  0  0  0  0
   -5.1052    5.0652   -7.6554 C   0  0  0  0  0  0  0  0  0  0  0  0
   -0.0452    7.4485   -5.5394 C   0  0  0  0  0  0  0  0  0  0  0  0
    0.8187    7.4754   -4.4435 C   0  0  0  0  0  0  0  0  0  0  0  0
    0.8813    6.3630   -3.5973 C   0  0  0  0  0  0  0  0  0  0  0  0
    4.9745    5.3970    2.9092 C   0  0  0  0  0  0  0  0  0  0  0  0
    5.1641    6.2283    4.0066 C   0  0  0  0  0  0  0  0  0  0  0  0
    7.5286    5.1288    6.3355 H   0  0  0  0  0  0  0  0  0  0  0  0
    6.9350    4.2214    4.9227 H   0  0  0  0  0  0  0  0  0  0  0  0
    5.8047    4.6883    6.2209 H   0  0  0  0  0  0  0  0  0  0  0  0
    8.5022    6.9356    4.7780 H   0  0  0  0  0  0  0  0  0  0  0  0
    7.4544    7.7342    3.5765 H   0  0  0  0  0  0  0  0  0  0  0  0
    7.9185    6.0250    3.3641 H   0  0  0  0  0  0  0  0  0  0  0  0
    7.6528    7.6584    7.1999 H   0  0  0  0  0  0  0  0  0  0  0  0
    6.5651    9.4300    8.5703 H   0  0  0  0  0  0  0  0  0  0  0  0
    4.2654   10.2041    8.0349 H   0  0  0  0  0  0  0  0  0  0  0  0
    3.0154    9.2176    6.1182 H   0  0  0  0  0  0  0  0  0  0  0  0
    2.1480    7.8612    4.0198 H   0  0  0  0  0  0  0  0  0  0  0  0
    1.7982    6.3546    2.0807 H   0  0  0  0  0  0  0  0  0  0  0  0
    3.2493    2.9145    3.1589 H   0  0  0  0  0  0  0  0  0  0  0  0
    3.9939    0.5507    3.2603 H   0  0  0  0  0  0  0  0  0  0  0  0
    5.1149   -0.5034    1.2909 H   0  0  0  0  0  0  0  0  0  0  0  0
    5.4920    0.8516   -0.7752 H   0  0  0  0  0  0  0  0  0  0  0  0
    4.7730    3.2236   -0.8643 H   0  0  0  0  0  0  0  0  0  0  0  0
    3.9780    6.9719   -0.0417 H   0  0  0  0  0  0  0  0  0  0  0  0
    2.8802    7.8809   -2.0708 H   0  0  0  0  0  0  0  0  0  0  0  0
    1.7017    3.3197   -0.3860 H   0  0  0  0  0  0  0  0  0  0  0  0
    1.0838    2.1011   -2.6763 H   0  0  0  0  0  0  0  0  0  0  0  0
    1.7754    3.0538   -4.0160 H   0  0  0  0  0  0  0  0  0  0  0  0
    0.1152    2.4153   -4.1375 H   0  0  0  0  0  0  0  0  0  0  0  0
   -0.8001    3.0989   -1.2274 H   0  0  0  0  0  0  0  0  0  0  0  0
   -1.7622    3.4248   -2.6901 H   0  0  0  0  0  0  0  0  0  0  0  0
   -1.3960    4.7485   -1.5536 H   0  0  0  0  0  0  0  0  0  0  0  0
   -1.4103    4.3412   -5.1434 H   0  0  0  0  0  0  0  0  0  0  0  0
   -0.3570    7.3483   -8.2871 H   0  0  0  0  0  0  0  0  0  0  0  0
   -0.7282    7.9831  -10.5965 H   0  0  0  0  0  0  0  0  0  0  0  0
   -2.1564    8.0318  -12.6245 H   0  0  0  0  0  0  0  0  0  0  0  0
   -4.4354    7.0026  -12.5723 H   0  0  0  0  0  0  0  0  0  0  0  0
   -5.2752    5.9349  -10.5184 H   0  0  0  0  0  0  0  0  0  0  0  0
   -5.5085    3.8373   -4.4493 H   0  0  0  0  0  0  0  0  0  0  0  0
   -7.7335    3.2148   -5.4459 H   0  0  0  0  0  0  0  0  0  0  0  0
   -8.2510    3.7732   -7.8077 H   0  0  0  0  0  0  0  0  0  0  0  0
   -6.6076    4.9466   -9.2336 H   0  0  0  0  0  0  0  0  0  0  0  0
   -0.1130    8.3263   -6.1857 H   0  0  0  0  0  0  0  0  0  0  0  0
    1.4272    8.3627   -4.2507 H   0  0  0  0  0  0  0  0  0  0  0  0
    5.7576    4.7103    2.5806 H   0  0  0  0  0  0  0  0  0  0  0  0
  2  1  1  1
  1 55  1  0
  1 56  1  0
  1 57  1  0
  2  3  1  0
  2  4  1  0
  2 54  1  0
  3 58  1  0
  3 59  1  0
  3 60  1  0
  4  5  2  0
  4  9  1  0
  5  6  1  0
  5 61  1  0
  6  7  2  0
  6 62  1  0
  7  8  1  0
  7 63  1  0
  8  9  2  0
  8 64  1  0
  9 10  1  0
 10 11  2  0
 10 54  1  0
 11 12  1  0
 11 65  1  0
 12 13  2  0
 12 66  1  0
 13 14  1  0
 13 53  1  0
 14 15  1  0
 14 21  1  0
 15 16  2  0
 15 20  1  0
 16 17  1  0
 16 67  1  0
 17 18  2  0
 17 68  1  0
 18 19  1  0
 18 69  1  0
 19 20  2  0
 19 70  1  0
 20 71  1  0
 21 22  2  0
 21 26  1  0
 22 23  1  0
 22 72  1  0
 23 24  2  0
 23 73  1  0
 24 25  1  0
 24 52  1  0
 25 26  2  0
 25 27  1  0
 26 74  1  0
 27 28  1  6
 27 29  1  0
 27 30  1  0
 28 75  1  0
 28 76  1  0
 28 77  1  0
 29 78  1  0
 29 79  1  0
 29 80  1  0
 30 31  1  0
 30 52  2  0
 31 32  2  0
 31 81  1  0
 32 33  1  0
 32 50  1  0
 33 34  2  0
 33 42  1  0
 34 35  1  0
 34 82  1  0
 35 36  2  0
 35 40  1  0
 36 37  1  0
 36 83  1  0
 37 38  2  0
 37 84  1  0
 38 39  1  0
 38 85  1  0
 39 40  2  0
 39 86  1  0
 40 41  1  0
 41 42  2  0
 41 49  1  0
 42 43  1  0
 43 44  1  0
 44 45  1  0
 44 49  2  0
 45 46  2  0
 45 87  1  0
 46 47  1  0
 46 88  1  0
 47 48  2  0
 47 89  1  0
 48 49  1  0
 48 90  1  0
 50 51  2  0
 50 91  1  0
 51 52  1  0
 51 92  1  0
 53 54  2  0
 53 93  1  0
M  END

