
     RDKit          3D

 45 47  0  0  0  0  0  0  0  0999 V2000
    1.2185    4.2227   -3.8792 C   0  0  0  0  0  0  0  0  0  0  0  0
    2.7319    4.2870   -3.9712 C   0  0  0  0  0  0  0  0  0  0  0  0
    3.2848    3.2481   -3.1939 O   0  0  0  0  0  0  0  0  0  0  0  0
    4.6910    3.2013   -3.2046 C   0  0  0  0  0  0  0  0  0  0  0  0
    5.1306    1.9650   -2.4075 C   0  0  1  0  0  0  0  0  0  0  0  0
    4.6706    0.6557   -3.0572 C   0  0  0  0  0  0  0  0  0  0  0  0
    6.5726    1.9912   -2.1613 N   0  0  0  0  0  0  0  0  0  0  0  0
    7.1307    1.9806   -0.8177 C   0  0  0  0  0  0  0  0  0  0  0  0
    8.6185    1.9443   -1.0628 C   0  0  0  0  0  0  0  0  0  0  0  0
    9.6709    1.9248   -0.1532 C   0  0  0  0  0  0  0  0  0  0  0  0
   10.9886    1.8788   -0.6484 C   0  0  0  0  0  0  0  0  0  0  0  0
   12.1439    1.8564    0.2849 C   0  0  0  0  0  0  0  0  0  0  0  0
   13.2950    1.0903    0.0330 C   0  0  0  0  0  0  0  0  0  0  0  0
   14.3460    1.1078    0.9486 C   0  0  0  0  0  0  0  0  0  0  0  0
   14.2181    1.8914    2.0997 C   0  0  0  0  0  0  0  0  0  0  0  0
   13.1377    2.6324    2.3566 N   0  0  0  0  0  0  0  0  0  0  0  0
   12.1398    2.6136    1.4744 C   0  0  0  0  0  0  0  0  0  0  0  0
   11.1990    1.8549   -2.0448 C   0  0  0  0  0  0  0  0  0  0  0  0
   10.1494    1.8740   -2.9725 C   0  0  0  0  0  0  0  0  0  0  0  0
   10.4024    1.8559   -4.4571 C   0  0  0  0  0  0  0  0  0  0  0  0
    8.8497    1.9191   -2.4404 C   0  0  0  0  0  0  0  0  0  0  0  0
    7.5366    1.9454   -3.1499 C   0  0  0  0  0  0  0  0  0  0  0  0
    7.3294    1.9315   -4.3543 O   0  0  0  0  0  0  0  0  0  0  0  0
    0.7601    5.0280   -4.4742 H   0  0  0  0  0  0  0  0  0  0  0  0
    0.8893    4.3306   -2.8339 H   0  0  0  0  0  0  0  0  0  0  0  0
    0.8478    3.2568   -4.2563 H   0  0  0  0  0  0  0  0  0  0  0  0
    3.0997    5.2717   -3.6115 H   0  0  0  0  0  0  0  0  0  0  0  0
    3.0630    4.1932   -5.0267 H   0  0  0  0  0  0  0  0  0  0  0  0
    5.1203    4.1108   -2.7336 H   0  0  0  0  0  0  0  0  0  0  0  0
    5.0869    3.1436   -4.2359 H   0  0  0  0  0  0  0  0  0  0  0  0
    4.6502    2.0531   -1.4189 H   0  0  0  0  0  0  0  0  0  0  0  0
    5.1653    0.5184   -4.0296 H   0  0  0  0  0  0  0  0  0  0  0  0
    3.5828    0.6859   -3.2121 H   0  0  0  0  0  0  0  0  0  0  0  0
    4.9118   -0.2062   -2.4151 H   0  0  0  0  0  0  0  0  0  0  0  0
    6.7869    1.0991   -0.2431 H   0  0  0  0  0  0  0  0  0  0  0  0
    6.8276    2.8777   -0.2450 H   0  0  0  0  0  0  0  0  0  0  0  0
    9.4850    1.9173    0.9233 H   0  0  0  0  0  0  0  0  0  0  0  0
   13.3548    0.4677   -0.8631 H   0  0  0  0  0  0  0  0  0  0  0  0
   15.2480    0.5148    0.7802 H   0  0  0  0  0  0  0  0  0  0  0  0
   15.0228    1.9198    2.8440 H   0  0  0  0  0  0  0  0  0  0  0  0
   11.2802    3.2548    1.7029 H   0  0  0  0  0  0  0  0  0  0  0  0
   12.2251    1.8455   -2.4215 H   0  0  0  0  0  0  0  0  0  0  0  0
   11.4794    1.8175   -4.6765 H   0  0  0  0  0  0  0  0  0  0  0  0
    9.9710    2.7450   -4.9425 H   0  0  0  0  0  0  0  0  0  0  0  0
    9.9094    0.9931   -4.9310 H   0  0  0  0  0  0  0  0  0  0  0  0
  1  2  1  0
  1 24  1  0
  1 25  1  0
  1 26  1  0
  2  3  1  0
  2 27  1  0
  2 28  1  0
  3  4  1  0
  4  5  1  0
  4 29  1  0
  4 30  1  0
  5  6  1  0
  5  7  1  0
  5 31  1  1
  6 32  1  0
  6 33  1  0
  6 34  1  0
  7  8  1  0
  7 22  1  0
  8  9  1  0
  8 35  1  0
  8 36  1  0
  9 10  2  0
  9 21  1  0
 10 11  1  0
 10 37  1  0
 11 12  1  0
 11 18  2  0
 12 13  2  0
 12 17  1  0
 13 14  1  0
 13 38  1  0
 14 15  2  0
 14 39  1  0
 15 16  1  0
 15 40  1  0
 16 17  2  0
 17 41  1  0
 18 19  1  0
 18 42  1  0
 19 20  1  0
 19 21  2  0
 20 43  1  0
 20 44  1  0
 20 45  1  0
 21 22  1  0
 22 23  2  0
M  END

