
     RDKit          3D

 66 70  0  0  0  0  0  0  0  0999 V2000
    2.8641   -0.8014    0.6328 C   0  0  0  0  0  0  0  0  0  0  0  0
    3.1900   -1.5333   -0.6694 C   0  0  0  0  0  0  0  0  0  0  0  0
    4.4082   -0.9857   -1.4253 C   0  0  0  0  0  0  0  0  0  0  0  0
    5.6707   -1.1262   -0.6985 N   0  0  0  0  0  0  0  0  0  0  0  0
    6.3373   -0.2232    0.1042 C   0  0  0  0  0  0  0  0  0  0  0  0
    5.9492    1.1078    0.3116 N   0  0  0  0  0  0  0  0  0  0  0  0
    5.7139    2.0802   -0.6428 C   0  0  0  0  0  0  0  0  0  0  0  0
    5.5185    1.8244   -1.8190 O   0  0  0  0  0  0  0  0  0  0  0  0
    5.6788    3.4938   -0.1247 C   0  0  0  0  0  0  0  0  0  0  0  0
    6.3933    3.9261    1.0032 C   0  0  0  0  0  0  0  0  0  0  0  0
    6.3376    5.2721    1.3735 C   0  0  0  0  0  0  0  0  0  0  0  0
    5.5958    6.1850    0.6258 C   0  0  0  0  0  0  0  0  0  0  0  0
    4.8791    5.7594   -0.5093 C   0  0  0  0  0  0  0  0  0  0  0  0
    4.1338    6.7027   -1.2344 N   0  0  0  0  0  0  0  0  0  0  0  0
    3.7399    6.6612   -2.8868 S   0  0  1  0  0  0  0  0  0  0  0  0
    3.1078    5.3758   -3.1674 O   0  0  0  0  0  0  0  0  0  0  0  0
    3.0554    7.9360   -3.0910 O   0  0  0  0  0  0  0  0  0  0  0  0
    5.3068    6.7090   -3.7622 C   0  0  0  0  0  0  0  0  0  0  0  0
    5.9408    5.5153   -4.1241 C   0  0  0  0  0  0  0  0  0  0  0  0
    7.1673    5.5828   -4.7916 C   0  0  0  0  0  0  0  0  0  0  0  0
    7.7369    6.8226   -5.0971 C   0  0  0  0  0  0  0  0  0  0  0  0
    7.0827    8.0077   -4.7408 C   0  0  0  0  0  0  0  0  0  0  0  0
    5.8595    7.9577   -4.0700 C   0  0  0  0  0  0  0  0  0  0  0  0
    4.9204    4.4048   -0.8702 C   0  0  0  0  0  0  0  0  0  0  0  0
    7.3610   -0.7248    0.7509 N   0  0  0  0  0  0  0  0  0  0  0  0
    7.4111   -2.0474    0.3638 C   0  0  0  0  0  0  0  0  0  0  0  0
    8.3022   -3.0631    0.7371 C   0  0  0  0  0  0  0  0  0  0  0  0
    8.1375   -4.3271    0.1704 C   0  0  0  0  0  0  0  0  0  0  0  0
    9.0557   -5.3859    0.5012 N   0  0  0  0  0  0  0  0  0  0  0  0
   10.4275   -5.2531    0.0233 C   0  0  0  0  0  0  0  0  0  0  0  0
    8.5714   -6.4289    1.2647 C   0  0  0  0  0  0  0  0  0  0  0  0
    7.4610   -6.3970    1.7741 O   0  0  0  0  0  0  0  0  0  0  0  0
    9.4282   -7.6376    1.4747 C   0  0  0  0  0  0  0  0  0  0  0  0
   10.3970   -8.2798    0.7291 C   0  0  0  0  0  0  0  0  0  0  0  0
   10.8543   -9.4684    1.2239 N   0  0  0  0  0  0  0  0  0  0  0  0
   10.2521   -9.7561    2.3445 C   0  0  0  0  0  0  0  0  0  0  0  0
    9.0600   -8.6145    2.8701 S   0  0  0  0  0  0  0  0  0  0  0  0
    7.0944   -4.5813   -0.7484 C   0  0  0  0  0  0  0  0  0  0  0  0
    6.1913   -3.5879   -1.1200 C   0  0  0  0  0  0  0  0  0  0  0  0
    6.3655   -2.3207   -0.5532 C   0  0  0  0  0  0  0  0  0  0  0  0
    1.9603   -1.2204    1.1022 H   0  0  0  0  0  0  0  0  0  0  0  0
    2.6843    0.2720    0.4578 H   0  0  0  0  0  0  0  0  0  0  0  0
    3.6828   -0.8903    1.3648 H   0  0  0  0  0  0  0  0  0  0  0  0
    2.3311   -1.4649   -1.3597 H   0  0  0  0  0  0  0  0  0  0  0  0
    3.3345   -2.6084   -0.4672 H   0  0  0  0  0  0  0  0  0  0  0  0
    4.2875    0.0735   -1.6799 H   0  0  0  0  0  0  0  0  0  0  0  0
    4.5275   -1.5194   -2.3817 H   0  0  0  0  0  0  0  0  0  0  0  0
    6.2110    1.4301    1.2369 H   0  0  0  0  0  0  0  0  0  0  0  0
    7.0246    3.2421    1.5754 H   0  0  0  0  0  0  0  0  0  0  0  0
    6.8968    5.6209    2.2449 H   0  0  0  0  0  0  0  0  0  0  0  0
    5.5733    7.2389    0.9163 H   0  0  0  0  0  0  0  0  0  0  0  0
    4.1298    7.6589   -0.8905 H   0  0  0  0  0  0  0  0  0  0  0  0
    5.4827    4.5519   -3.8966 H   0  0  0  0  0  0  0  0  0  0  0  0
    7.6745    4.6588   -5.0787 H   0  0  0  0  0  0  0  0  0  0  0  0
    8.6938    6.8669   -5.6231 H   0  0  0  0  0  0  0  0  0  0  0  0
    7.5226    8.9753   -4.9939 H   0  0  0  0  0  0  0  0  0  0  0  0
    5.3224    8.8693   -3.8022 H   0  0  0  0  0  0  0  0  0  0  0  0
    4.3535    4.0429   -1.7258 H   0  0  0  0  0  0  0  0  0  0  0  0
    9.0967   -2.8627    1.4581 H   0  0  0  0  0  0  0  0  0  0  0  0
   10.6940   -4.1878   -0.0064 H   0  0  0  0  0  0  0  0  0  0  0  0
   10.5600   -5.6568   -0.9971 H   0  0  0  0  0  0  0  0  0  0  0  0
   11.1281   -5.7592    0.6992 H   0  0  0  0  0  0  0  0  0  0  0  0
   10.7929   -7.9223   -0.2214 H   0  0  0  0  0  0  0  0  0  0  0  0
   10.4620  -10.6531    2.9330 H   0  0  0  0  0  0  0  0  0  0  0  0
    6.9948   -5.5864   -1.1620 H   0  0  0  0  0  0  0  0  0  0  0  0
    5.3865   -3.8040   -1.8250 H   0  0  0  0  0  0  0  0  0  0  0  0
  1  2  1  0
  1 41  1  0
  1 42  1  0
  1 43  1  0
  2  3  1  0
  2 44  1  0
  2 45  1  0
  3  4  1  0
  3 46  1  0
  3 47  1  0
  4  5  1  0
  4 40  1  0
  5  6  1  0
  5 25  2  0
  6  7  1  0
  6 48  1  0
  7  8  2  0
  7  9  1  0
  9 10  2  0
  9 24  1  0
 10 11  1  0
 10 49  1  0
 11 12  2  0
 11 50  1  0
 12 13  1  0
 12 51  1  0
 13 14  1  0
 13 24  2  0
 15 14  1  1
 14 52  1  0
 15 16  2  0
 15 17  2  0
 15 18  1  0
 18 19  2  0
 18 23  1  0
 19 20  1  0
 19 53  1  0
 20 21  2  0
 20 54  1  0
 21 22  1  0
 21 55  1  0
 22 23  2  0
 22 56  1  0
 23 57  1  0
 24 58  1  0
 25 26  1  0
 26 27  1  0
 26 40  2  0
 27 28  2  0
 27 59  1  0
 28 29  1  0
 28 38  1  0
 29 30  1  0
 29 31  1  0
 30 60  1  0
 30 61  1  0
 30 62  1  0
 31 32  2  0
 31 33  1  0
 33 34  2  0
 33 37  1  0
 34 35  1  0
 34 63  1  0
 35 36  2  0
 36 37  1  0
 36 64  1  0
 38 39  2  0
 38 65  1  0
 39 40  1  0
 39 66  1  0
M  END

