
     RDKit          3D

 51 53  0  0  0  0  0  0  0  0999 V2000
    2.1695   -0.1909   -0.2136 C   0  0  0  0  0  0  0  0  0  0  0  0
    3.5732   -0.7259   -0.0638 C   0  0  0  0  0  0  0  0  0  0  0  0
    4.3658   -1.0017   -1.1939 C   0  0  0  0  0  0  0  0  0  0  0  0
    5.6599   -1.4966   -1.0728 C   0  0  0  0  0  0  0  0  0  0  0  0
    6.2129   -1.7328    0.1977 C   0  0  0  0  0  0  0  0  0  0  0  0
    7.4962   -2.2012    0.2107 O   0  0  0  0  0  0  0  0  0  0  0  0
    8.1597   -2.5337    1.4275 C   0  0  1  0  0  0  0  0  0  0  0  0
    7.7801   -3.9259    1.9252 C   0  0  0  0  0  0  0  0  0  0  0  0
    9.6819   -2.4411    1.2116 C   0  0  0  0  0  0  0  0  0  0  0  0
   10.4424   -2.7464    2.1166 O   0  0  0  0  0  0  0  0  0  0  0  0
   10.0725   -1.9947   -0.0081 N   0  0  0  0  0  0  0  0  0  0  0  0
   11.4606   -1.9039   -0.3980 C   0  0  0  0  0  0  0  0  0  0  0  0
   11.9031   -3.0716   -1.3208 C   0  0  1  0  0  0  0  0  0  0  0  0
   10.9469   -3.2135   -2.4734 C   0  0  0  0  0  0  0  0  0  0  0  0
   10.7737   -2.5165   -3.6397 C   0  0  0  0  0  0  0  0  0  0  0  0
    9.6334   -3.0950   -4.2921 C   0  0  0  0  0  0  0  0  0  0  0  0
    9.1984   -4.0962   -3.4714 C   0  0  0  0  0  0  0  0  0  0  0  0
    9.9877   -4.1748   -2.3691 O   0  0  0  0  0  0  0  0  0  0  0  0
   13.2596   -2.8602   -1.8081 N   0  0  0  0  0  0  0  0  0  0  0  0
   14.2788   -2.5907   -0.7911 C   0  0  0  0  0  0  0  0  0  0  0  0
   15.6116   -2.6976   -1.5574 C   0  0  0  0  0  0  0  0  0  0  0  0
   15.2806   -3.5719   -2.7961 C   0  0  0  0  0  0  0  0  0  0  0  0
   13.8097   -3.9636   -2.5967 C   0  0  0  0  0  0  0  0  0  0  0  0
    5.4412   -1.4705    1.3358 C   0  0  0  0  0  0  0  0  0  0  0  0
    4.1395   -0.9716    1.1914 C   0  0  0  0  0  0  0  0  0  0  0  0
    2.1590    0.7705   -0.7545 H   0  0  0  0  0  0  0  0  0  0  0  0
    1.6934   -0.0280    0.7647 H   0  0  0  0  0  0  0  0  0  0  0  0
    1.5305   -0.8861   -0.7843 H   0  0  0  0  0  0  0  0  0  0  0  0
    3.9579   -0.8245   -2.1938 H   0  0  0  0  0  0  0  0  0  0  0  0
    6.2681   -1.7110   -1.9545 H   0  0  0  0  0  0  0  0  0  0  0  0
    7.9307   -1.7773    2.1994 H   0  0  0  0  0  0  0  0  0  0  0  0
    7.9944   -4.6721    1.1447 H   0  0  0  0  0  0  0  0  0  0  0  0
    6.7117   -3.9820    2.1791 H   0  0  0  0  0  0  0  0  0  0  0  0
    8.3776   -4.1650    2.8156 H   0  0  0  0  0  0  0  0  0  0  0  0
    9.3403   -1.8232   -0.6885 H   0  0  0  0  0  0  0  0  0  0  0  0
   12.0492   -1.9121    0.5286 H   0  0  0  0  0  0  0  0  0  0  0  0
   11.6435   -0.9537   -0.9270 H   0  0  0  0  0  0  0  0  0  0  0  0
   11.8231   -4.0075   -0.7206 H   0  0  0  0  0  0  0  0  0  0  0  0
   11.3989   -1.6981   -3.9891 H   0  0  0  0  0  0  0  0  0  0  0  0
    9.2006   -2.8064   -5.2479 H   0  0  0  0  0  0  0  0  0  0  0  0
    8.3840   -4.8134   -3.5301 H   0  0  0  0  0  0  0  0  0  0  0  0
   14.2414   -3.3470    0.0264 H   0  0  0  0  0  0  0  0  0  0  0  0
   14.1407   -1.6029   -0.3279 H   0  0  0  0  0  0  0  0  0  0  0  0
   16.3974   -3.1371   -0.9253 H   0  0  0  0  0  0  0  0  0  0  0  0
   15.9633   -1.7019   -1.8661 H   0  0  0  0  0  0  0  0  0  0  0  0
   15.9285   -4.4570   -2.8812 H   0  0  0  0  0  0  0  0  0  0  0  0
   15.3982   -2.9895   -3.7224 H   0  0  0  0  0  0  0  0  0  0  0  0
   13.7384   -4.9266   -2.0390 H   0  0  0  0  0  0  0  0  0  0  0  0
   13.2603   -4.0915   -3.5405 H   0  0  0  0  0  0  0  0  0  0  0  0
    5.8316   -1.6492    2.3378 H   0  0  0  0  0  0  0  0  0  0  0  0
    3.5532   -0.7729    2.0933 H   0  0  0  0  0  0  0  0  0  0  0  0
  1  2  1  0
  1 26  1  0
  1 27  1  0
  1 28  1  0
  2  3  2  0
  2 25  1  0
  3  4  1  0
  3 29  1  0
  4  5  2  0
  4 30  1  0
  5  6  1  0
  5 24  1  0
  6  7  1  0
  7  8  1  0
  7  9  1  0
  7 31  1  1
  8 32  1  0
  8 33  1  0
  8 34  1  0
  9 10  2  0
  9 11  1  0
 11 12  1  0
 11 35  1  0
 12 13  1  0
 12 36  1  0
 12 37  1  0
 13 14  1  0
 13 19  1  0
 13 38  1  1
 14 15  2  0
 14 18  1  0
 15 16  1  0
 15 39  1  0
 16 17  2  0
 16 40  1  0
 17 18  1  0
 17 41  1  0
 19 20  1  0
 19 23  1  0
 20 21  1  0
 20 42  1  0
 20 43  1  0
 21 22  1  0
 21 44  1  0
 21 45  1  0
 22 23  1  0
 22 46  1  0
 22 47  1  0
 23 48  1  0
 23 49  1  0
 24 25  2  0
 24 50  1  0
 25 51  1  0
M  END

