
     RDKit          3D

 61 63  0  0  0  0  0  0  0  0999 V2000
    0.6186    2.4532    2.6584 C   0  0  0  0  0  0  0  0  0  0  0  0
    1.9927    1.9814    2.5605 N   0  0  0  0  0  0  0  0  0  0  0  0
    2.2635    0.9527    1.5571 C   0  0  1  0  0  0  0  0  0  0  0  0
    1.7975    1.3617    0.1530 C   0  0  0  0  0  0  0  0  0  0  0  0
    3.7695    0.6402    1.4852 C   0  0  0  0  0  0  0  0  0  0  0  0
    4.1763   -0.3889    0.9628 O   0  0  0  0  0  0  0  0  0  0  0  0
    4.5768    1.6027    2.0068 N   0  0  0  0  0  0  0  0  0  0  0  0
    6.0260    1.5619    1.8889 C   0  0  1  0  0  0  0  0  0  0  0  0
    6.4126    2.3645    0.6323 C   0  0  0  0  0  0  0  0  0  0  0  0
    6.1826    3.5795    0.6066 O   0  0  0  0  0  0  0  0  0  0  0  0
    6.9639    1.7130   -0.4160 N   0  0  0  0  0  0  0  0  0  0  0  0
    7.2236    0.2586   -0.5189 C   0  0  0  0  0  0  0  0  0  0  0  0
    7.7722    0.0873   -1.9420 C   0  0  0  0  0  0  0  0  0  0  0  0
    7.1415    1.2474   -2.7236 C   0  0  0  0  0  0  0  0  0  0  0  0
    7.1526    2.3987   -1.7153 C   0  0  2  0  0  0  0  0  0  0  0  0
    8.4772    3.2120   -1.7646 C   0  0  0  0  0  0  0  0  0  0  0  0
    9.3931    2.8934   -2.5088 O   0  0  0  0  0  0  0  0  0  0  0  0
    8.4720    4.2794   -0.9175 N   0  0  0  0  0  0  0  0  0  0  0  0
    9.4928    5.2215   -0.6561 C   0  0  0  0  0  0  0  0  0  0  0  0
   10.7255    5.2265   -1.3615 C   0  0  0  0  0  0  0  0  0  0  0  0
   11.7023    6.1750   -1.0770 C   0  0  0  0  0  0  0  0  0  0  0  0
   11.4468    7.1261   -0.0820 C   0  0  0  0  0  0  0  0  0  0  0  0
   12.2174    8.1649    0.4001 N   0  0  0  0  0  0  0  0  0  0  0  0
   13.1444    8.4045    0.0769 H   0  0  0  0  0  0  0  0  0  0  0  0
   11.5215    8.8268    1.3905 C   0  0  0  0  0  0  0  0  0  0  0  0
   10.2939    8.2340    1.5696 C   0  0  0  0  0  0  0  0  0  0  0  0
   10.2172    7.1395    0.6380 C   0  0  0  0  0  0  0  0  0  0  0  0
    9.2415    6.1726    0.3391 C   0  0  0  0  0  0  0  0  0  0  0  0
    6.7250    2.1434    3.1397 C   0  0  1  0  0  0  0  0  0  0  0  0
    6.2976    1.4082    4.4144 C   0  0  0  0  0  0  0  0  0  0  0  0
    8.2505    2.1199    2.9764 C   0  0  0  0  0  0  0  0  0  0  0  0
    0.5254    3.1076    3.5385 H   0  0  0  0  0  0  0  0  0  0  0  0
   -0.1354    1.6423    2.7556 H   0  0  0  0  0  0  0  0  0  0  0  0
    0.3470    3.0561    1.7788 H   0  0  0  0  0  0  0  0  0  0  0  0
    2.2830    1.6269    3.4713 H   0  0  0  0  0  0  0  0  0  0  0  0
    1.7819   -0.0189    1.7987 H   0  0  0  0  0  0  0  0  0  0  0  0
    2.2284    2.3355   -0.1309 H   0  0  0  0  0  0  0  0  0  0  0  0
    0.7016    1.4329    0.0925 H   0  0  0  0  0  0  0  0  0  0  0  0
    2.1282    0.6027   -0.5698 H   0  0  0  0  0  0  0  0  0  0  0  0
    4.1189    2.4746    2.2680 H   0  0  0  0  0  0  0  0  0  0  0  0
    6.2930    0.5033    1.7808 H   0  0  0  0  0  0  0  0  0  0  0  0
    6.2856   -0.2972   -0.3602 H   0  0  0  0  0  0  0  0  0  0  0  0
    7.9480   -0.0659    0.2440 H   0  0  0  0  0  0  0  0  0  0  0  0
    7.5288   -0.9015   -2.3573 H   0  0  0  0  0  0  0  0  0  0  0  0
    8.8667    0.2017   -1.9494 H   0  0  0  0  0  0  0  0  0  0  0  0
    6.1011    1.0118   -3.0000 H   0  0  0  0  0  0  0  0  0  0  0  0
    7.7035    1.5037   -3.6303 H   0  0  0  0  0  0  0  0  0  0  0  0
    6.3173    3.1032   -1.8547 H   0  0  0  0  0  0  0  0  0  0  0  0
    7.6207    4.3692   -0.3529 H   0  0  0  0  0  0  0  0  0  0  0  0
   10.8903    4.4719   -2.1268 H   0  0  0  0  0  0  0  0  0  0  0  0
   12.6470    6.1682   -1.6270 H   0  0  0  0  0  0  0  0  0  0  0  0
   11.9617    9.6830    1.8989 H   0  0  0  0  0  0  0  0  0  0  0  0
    9.5327    8.5437    2.2826 H   0  0  0  0  0  0  0  0  0  0  0  0
    8.2905    6.1586    0.8788 H   0  0  0  0  0  0  0  0  0  0  0  0
    6.4086    3.1994    3.2111 H   0  0  0  0  0  0  0  0  0  0  0  0
    6.6042    0.3487    4.3835 H   0  0  0  0  0  0  0  0  0  0  0  0
    5.2073    1.4352    4.5572 H   0  0  0  0  0  0  0  0  0  0  0  0
    6.7659    1.8652    5.3006 H   0  0  0  0  0  0  0  0  0  0  0  0
    8.6230    1.0870    2.8641 H   0  0  0  0  0  0  0  0  0  0  0  0
    8.7406    2.5511    3.8631 H   0  0  0  0  0  0  0  0  0  0  0  0
    8.5858    2.7007    2.1037 H   0  0  0  0  0  0  0  0  0  0  0  0
  1  2  1  0
  1 32  1  0
  1 33  1  0
  1 34  1  0
  2  3  1  0
  2 35  1  0
  3  4  1  0
  3  5  1  0
  3 36  1  1
  4 37  1  0
  4 38  1  0
  4 39  1  0
  5  6  2  0
  5  7  1  0
  7  8  1  0
  7 40  1  0
  8  9  1  0
  8 29  1  0
  8 41  1  6
  9 10  2  0
  9 11  1  0
 11 12  1  0
 11 15  1  0
 12 13  1  0
 12 42  1  0
 12 43  1  0
 13 14  1  0
 13 44  1  0
 13 45  1  0
 14 15  1  0
 14 46  1  0
 14 47  1  0
 15 16  1  0
 15 48  1  6
 16 17  2  0
 16 18  1  0
 18 19  1  0
 18 49  1  0
 19 20  2  0
 19 28  1  0
 20 21  1  0
 20 50  1  0
 21 22  2  0
 21 51  1  0
 22 23  1  0
 22 27  1  0
 23 24  1  0
 23 25  1  0
 25 26  2  0
 25 52  1  0
 26 27  1  0
 26 53  1  0
 27 28  2  0
 28 54  1  0
 29 30  1  0
 29 31  1  0
 29 55  1  1
 30 56  1  0
 30 57  1  0
 30 58  1  0
 31 59  1  0
 31 60  1  0
 31 61  1  0
M  END

