
     RDKit          3D

 26 27  0  0  0  0  0  0  0  0999 V2000
    0.9222    0.2831   -0.4173 C   0  0  0  0  0  0  0  0  0  0  0  0
    2.3910    0.0391   -0.1674 C   0  0  0  0  0  0  0  0  0  0  0  0
    3.2241    1.1270    0.1267 C   0  0  0  0  0  0  0  0  0  0  0  0
    2.6789    2.3534    0.1418 F   0  0  0  0  0  0  0  0  0  0  0  0
    4.5787    1.0008    0.4170 C   0  0  0  0  0  0  0  0  0  0  0  0
    5.1513   -0.2716    0.4199 C   0  0  0  0  0  0  0  0  0  0  0  0
    4.3660   -1.3870    0.1323 C   0  0  0  0  0  0  0  0  0  0  0  0
    3.0012   -1.2377   -0.1696 C   0  0  0  0  0  0  0  0  0  0  0  0
    2.2150   -2.4522   -0.5148 C   0  0  0  0  0  0  0  0  0  0  0  0
    1.6380   -2.4647   -1.7585 N   0  0  0  0  0  0  0  0  0  0  0  0
    1.7871   -1.6792   -2.3845 H   0  0  0  0  0  0  0  0  0  0  0  0
    0.8738   -3.4902   -2.2879 C   0  0  0  0  0  0  0  0  0  0  0  0
    0.2144   -3.4012   -3.8013 S   0  0  0  0  0  0  0  0  0  0  0  0
    0.7369   -4.5553   -1.4391 N   0  0  0  0  0  0  0  0  0  0  0  0
    0.1865   -5.3391   -1.7834 H   0  0  0  0  0  0  0  0  0  0  0  0
    1.2738   -4.7113   -0.1455 C   0  0  0  0  0  0  0  0  0  0  0  0
    1.0755   -5.7216    0.4881 O   0  0  0  0  0  0  0  0  0  0  0  0
    2.0547   -3.5426    0.3128 C   0  0  0  0  0  0  0  0  0  0  0  0
    2.5970   -3.5857    1.6314 C   0  0  0  0  0  0  0  0  0  0  0  0
    3.0373   -3.6300    2.7051 N   0  0  0  0  0  0  0  0  0  0  0  0
    0.5698    1.1286    0.1895 H   0  0  0  0  0  0  0  0  0  0  0  0
    0.3106   -0.5949   -0.1693 H   0  0  0  0  0  0  0  0  0  0  0  0
    0.7212    0.5483   -1.4700 H   0  0  0  0  0  0  0  0  0  0  0  0
    5.1580    1.8983    0.6419 H   0  0  0  0  0  0  0  0  0  0  0  0
    6.2117   -0.3937    0.6496 H   0  0  0  0  0  0  0  0  0  0  0  0
    4.8113   -2.3830    0.1322 H   0  0  0  0  0  0  0  0  0  0  0  0
  1  2  1  0
  1 21  1  0
  1 22  1  0
  1 23  1  0
  2  3  2  0
  2  8  1  0
  3  4  1  0
  3  5  1  0
  5  6  2  0
  5 24  1  0
  6  7  1  0
  6 25  1  0
  7  8  2  0
  7 26  1  0
  8  9  1  0
  9 10  1  0
  9 18  2  0
 10 11  1  0
 10 12  1  0
 12 13  2  0
 12 14  1  0
 14 15  1  0
 14 16  1  0
 16 17  2  0
 16 18  1  0
 18 19  1  0
 19 20  3  0
M  END

