
     RDKit          3D

 43 44  0  0  0  0  0  0  0  0999 V2000
   -0.0091   -1.3136    3.6061 O   0  0  0  0  0  0  0  0  0  0  0  0
    1.1053   -1.6930    3.8980 C   0  0  0  0  0  0  0  0  0  0  0  0
    2.0969   -0.9149    4.4269 N   0  0  0  0  0  0  0  0  0  0  0  0
    3.4185   -1.4252    4.7454 C   0  0  0  0  0  0  0  0  0  0  0  0
    4.5032   -0.5757    4.0739 C   0  0  0  0  0  0  0  0  0  0  0  0
    4.3056    0.8381    4.3961 N   0  0  0  0  0  0  0  0  0  0  0  0
    5.3371    1.5218    4.9676 C   0  0  0  0  0  0  0  0  0  0  0  0
    6.4266    1.0038    5.1945 O   0  0  0  0  0  0  0  0  0  0  0  0
    5.1472    3.0165    5.3702 C   0  0  0  0  0  0  0  0  0  0  0  0
    4.0837    3.6254    5.3646 O   0  0  0  0  0  0  0  0  0  0  0  0
    6.3274    3.5447    5.7467 N   0  0  0  0  0  0  0  0  0  0  0  0
    6.4879    4.8934    6.2392 C   0  0  0  0  0  0  0  0  0  0  0  0
    7.3927    4.9131    7.4762 C   0  0  0  0  0  0  0  0  0  0  0  0
    8.6784    4.2716    7.2111 N   0  0  0  0  0  0  0  0  0  0  0  0
    9.6641    5.1032    6.5134 C   0  0  0  0  0  0  0  0  0  0  0  0
   10.4389    6.0166    7.4691 C   0  0  0  0  0  0  0  0  0  0  0  0
   11.0403    5.2696    8.5098 O   0  0  0  0  0  0  0  0  0  0  0  0
   10.0888    4.5287    9.2520 C   0  0  0  0  0  0  0  0  0  0  0  0
    9.3084    3.5805    8.3377 C   0  0  0  0  0  0  0  0  0  0  0  0
    2.9806    1.3431    4.0147 C   0  0  0  0  0  0  0  0  0  0  0  0
    1.8862    0.5043    4.6797 C   0  0  0  0  0  0  0  0  0  0  0  0
    1.4412   -2.7504    3.7563 H   0  0  0  0  0  0  0  0  0  0  0  0
    3.4922   -2.4708    4.4079 H   0  0  0  0  0  0  0  0  0  0  0  0
    3.5774   -1.4127    5.8406 H   0  0  0  0  0  0  0  0  0  0  0  0
    4.4449   -0.7058    2.9776 H   0  0  0  0  0  0  0  0  0  0  0  0
    5.5041   -0.8694    4.4110 H   0  0  0  0  0  0  0  0  0  0  0  0
    7.1338    2.9223    5.7697 H   0  0  0  0  0  0  0  0  0  0  0  0
    5.4921    5.2949    6.4785 H   0  0  0  0  0  0  0  0  0  0  0  0
    6.9094    5.5424    5.4484 H   0  0  0  0  0  0  0  0  0  0  0  0
    6.8918    4.3495    8.2793 H   0  0  0  0  0  0  0  0  0  0  0  0
    7.4765    5.9615    7.8321 H   0  0  0  0  0  0  0  0  0  0  0  0
    9.1673    5.6983    5.7306 H   0  0  0  0  0  0  0  0  0  0  0  0
   10.3840    4.4370    6.0055 H   0  0  0  0  0  0  0  0  0  0  0  0
    9.7651    6.7904    7.8954 H   0  0  0  0  0  0  0  0  0  0  0  0
   11.2503    6.5388    6.9379 H   0  0  0  0  0  0  0  0  0  0  0  0
    9.3928    5.2169    9.7785 H   0  0  0  0  0  0  0  0  0  0  0  0
   10.6468    3.9663   10.0174 H   0  0  0  0  0  0  0  0  0  0  0  0
    8.5428    3.0299    8.9075 H   0  0  0  0  0  0  0  0  0  0  0  0
   10.0145    2.8343    7.9307 H   0  0  0  0  0  0  0  0  0  0  0  0
    2.8839    1.2615    2.9164 H   0  0  0  0  0  0  0  0  0  0  0  0
    2.8932    2.3923    4.3079 H   0  0  0  0  0  0  0  0  0  0  0  0
    0.8944    0.7677    4.2882 H   0  0  0  0  0  0  0  0  0  0  0  0
    1.8934    0.6954    5.7690 H   0  0  0  0  0  0  0  0  0  0  0  0
  1  2  2  0
  2  3  1  0
  2 22  1  0
  3  4  1  0
  3 21  1  0
  4  5  1  0
  4 23  1  0
  4 24  1  0
  5  6  1  0
  5 25  1  0
  5 26  1  0
  6  7  1  0
  6 20  1  0
  7  8  2  0
  7  9  1  0
  9 10  2  0
  9 11  1  0
 11 12  1  0
 11 27  1  0
 12 13  1  0
 12 28  1  0
 12 29  1  0
 13 14  1  0
 13 30  1  0
 13 31  1  0
 14 15  1  0
 14 19  1  0
 15 16  1  0
 15 32  1  0
 15 33  1  0
 16 17  1  0
 16 34  1  0
 16 35  1  0
 17 18  1  0
 18 19  1  0
 18 36  1  0
 18 37  1  0
 19 38  1  0
 19 39  1  0
 20 21  1  0
 20 40  1  0
 20 41  1  0
 21 42  1  0
 21 43  1  0
M  END

