
     RDKit          3D

 37 38  0  0  0  0  0  0  0  0999 V2000
    4.6007    2.4243    0.1056 C   0  0  0  0  0  0  0  0  0  0  0  0
    4.1072    1.1328    0.7126 C   0  0  0  0  0  0  0  0  0  0  0  0
    2.9912    1.1092    1.5622 C   0  0  0  0  0  0  0  0  0  0  0  0
    2.5331   -0.0808    2.1484 C   0  0  0  0  0  0  0  0  0  0  0  0
    1.3313   -0.0889    3.0631 C   0  0  0  0  0  0  0  0  0  0  0  0
    3.2144   -1.2747    1.8728 C   0  0  0  0  0  0  0  0  0  0  0  0
    4.3212   -1.2621    1.0182 C   0  0  0  0  0  0  0  0  0  0  0  0
    5.0612   -2.4000    0.7721 O   0  0  0  0  0  0  0  0  0  0  0  0
    4.4740   -3.5836    0.4139 C   0  0  0  0  0  0  0  0  0  0  0  0
    5.1589   -4.7589    0.7332 C   0  0  0  0  0  0  0  0  0  0  0  0
    4.6430   -5.9927    0.3392 C   0  0  0  0  0  0  0  0  0  0  0  0
    3.4424   -6.1003   -0.3760 C   0  0  0  0  0  0  0  0  0  0  0  0
    2.9009   -7.4753   -0.7484 C   0  0  0  0  0  0  0  0  0  0  0  0
    3.9234   -8.5125   -0.6669 N   0  0  0  0  0  0  0  0  0  0  0  0
    2.7646   -4.9014   -0.6901 C   0  0  0  0  0  0  0  0  0  0  0  0
    1.4680   -4.9226   -1.4691 C   0  0  1  0  0  0  0  0  0  0  0  0
    0.5471   -5.7247   -0.8943 F   0  0  0  0  0  0  0  0  0  0  0  0
    0.9112   -3.7046   -1.5729 F   0  0  0  0  0  0  0  0  0  0  0  0
    1.6415   -5.3774   -2.7295 F   0  0  0  0  0  0  0  0  0  0  0  0
    3.2750   -3.6572   -0.3037 C   0  0  0  0  0  0  0  0  0  0  0  0
    4.7688   -0.0728    0.4403 C   0  0  0  0  0  0  0  0  0  0  0  0
    3.8961    3.2502    0.2825 H   0  0  0  0  0  0  0  0  0  0  0  0
    4.7455    2.3275   -0.9826 H   0  0  0  0  0  0  0  0  0  0  0  0
    5.5744    2.7177    0.5342 H   0  0  0  0  0  0  0  0  0  0  0  0
    2.4645    2.0438    1.7756 H   0  0  0  0  0  0  0  0  0  0  0  0
    0.9503    0.9276    3.2395 H   0  0  0  0  0  0  0  0  0  0  0  0
    1.5759   -0.5333    4.0420 H   0  0  0  0  0  0  0  0  0  0  0  0
    0.5087   -0.6868    2.6357 H   0  0  0  0  0  0  0  0  0  0  0  0
    2.8893   -2.2146    2.3250 H   0  0  0  0  0  0  0  0  0  0  0  0
    6.0954   -4.6880    1.2903 H   0  0  0  0  0  0  0  0  0  0  0  0
    5.1678   -6.9160    0.5890 H   0  0  0  0  0  0  0  0  0  0  0  0
    2.4077   -7.4140   -1.7360 H   0  0  0  0  0  0  0  0  0  0  0  0
    2.0995   -7.7340   -0.0342 H   0  0  0  0  0  0  0  0  0  0  0  0
    4.5701   -8.4388   -1.4535 H   0  0  0  0  0  0  0  0  0  0  0  0
    3.4939   -9.4341   -0.7299 H   0  0  0  0  0  0  0  0  0  0  0  0
    2.7382   -2.7463   -0.5641 H   0  0  0  0  0  0  0  0  0  0  0  0
    5.6406   -0.1059   -0.2172 H   0  0  0  0  0  0  0  0  0  0  0  0
  1  2  1  0
  1 22  1  0
  1 23  1  0
  1 24  1  0
  2  3  2  0
  2 21  1  0
  3  4  1  0
  3 25  1  0
  4  5  1  0
  4  6  2  0
  5 26  1  0
  5 27  1  0
  5 28  1  0
  6  7  1  0
  6 29  1  0
  7  8  1  0
  7 21  2  0
  8  9  1  0
  9 10  2  0
  9 20  1  0
 10 11  1  0
 10 30  1  0
 11 12  2  0
 11 31  1  0
 12 13  1  0
 12 15  1  0
 13 14  1  0
 13 32  1  0
 13 33  1  0
 14 34  1  0
 14 35  1  0
 15 16  1  0
 15 20  2  0
 16 17  1  1
 16 18  1  0
 16 19  1  0
 20 36  1  0
 21 37  1  0
M  END

