
     RDKit          3D

 27 28  0  0  0  0  0  0  0  0999 V2000
    4.9702   -1.4831    1.4282 C   0  0  0  0  0  0  0  0  0  0  0  0
    3.7461   -1.5283    1.1048 N   0  0  0  0  0  0  0  0  0  0  0  0
    3.1358   -2.8294    0.9847 C   0  0  1  0  0  0  0  0  0  0  0  0
    1.8019   -3.0249    1.7562 C   0  0  0  0  0  0  0  0  0  0  0  0
    1.1612   -3.5023    0.4311 C   0  0  0  0  0  0  0  0  0  0  0  0
    2.3693   -3.0091   -0.2634 N   0  0  0  0  0  0  0  0  0  0  0  0
    3.0459   -3.7387   -1.6219 S   0  0  1  0  0  0  0  0  0  0  0  0
    4.4977   -3.6406   -1.4372 O   0  0  0  0  0  0  0  0  0  0  0  0
    2.3918   -5.0323   -1.8533 O   0  0  0  0  0  0  0  0  0  0  0  0
    2.5673   -2.6423   -2.9601 C   0  0  0  0  0  0  0  0  0  0  0  0
    2.9455   -1.2961   -2.9071 C   0  0  0  0  0  0  0  0  0  0  0  0
    2.6088   -0.4614   -3.9730 C   0  0  0  0  0  0  0  0  0  0  0  0
    1.9102   -0.9727   -5.0746 C   0  0  0  0  0  0  0  0  0  0  0  0
    1.5415   -2.3201   -5.1123 C   0  0  0  0  0  0  0  0  0  0  0  0
    1.8695   -3.1675   -4.0487 C   0  0  0  0  0  0  0  0  0  0  0  0
    5.4657   -0.5079    1.5423 H   0  0  0  0  0  0  0  0  0  0  0  0
    5.5908   -2.3846    1.6030 H   0  0  0  0  0  0  0  0  0  0  0  0
    3.8642   -3.6482    1.1533 H   0  0  0  0  0  0  0  0  0  0  0  0
    1.4071   -2.0629    2.1072 H   0  0  0  0  0  0  0  0  0  0  0  0
    1.8308   -3.7491    2.5811 H   0  0  0  0  0  0  0  0  0  0  0  0
    0.2311   -3.0033    0.1177 H   0  0  0  0  0  0  0  0  0  0  0  0
    1.0355   -4.5940    0.3505 H   0  0  0  0  0  0  0  0  0  0  0  0
    3.4791   -0.9113   -2.0355 H   0  0  0  0  0  0  0  0  0  0  0  0
    2.8916    0.5937   -3.9453 H   0  0  0  0  0  0  0  0  0  0  0  0
    1.6505   -0.3135   -5.9069 H   0  0  0  0  0  0  0  0  0  0  0  0
    0.9954   -2.7164   -5.9719 H   0  0  0  0  0  0  0  0  0  0  0  0
    1.5924   -4.2230   -4.0499 H   0  0  0  0  0  0  0  0  0  0  0  0
  1  2  2  0
  1 16  1  0
  1 17  1  0
  2  3  1  0
  3  4  1  0
  3  6  1  0
  3 18  1  1
  4  5  1  0
  4 19  1  0
  4 20  1  0
  5  6  1  0
  5 21  1  0
  5 22  1  0
  6  7  1  0
  7  8  2  0
  7  9  2  0
  7 10  1  6
 10 11  2  0
 10 15  1  0
 11 12  1  0
 11 23  1  0
 12 13  2  0
 12 24  1  0
 13 14  1  0
 13 25  1  0
 14 15  2  0
 14 26  1  0
 15 27  1  0
M  END

