
     RDKit          3D

 34 35  0  0  0  0  0  0  0  0999 V2000
    0.9129    1.1032    1.0693 C   0  0  0  0  0  0  0  0  0  0  0  0
    2.3808    1.4849    1.0379 C   0  0  0  0  0  0  0  0  0  0  0  0
    3.1487    0.3123    1.2356 O   0  0  0  0  0  0  0  0  0  0  0  0
    4.5135    0.3857    1.2639 C   0  0  0  0  0  0  0  0  0  0  0  0
    5.2436    1.5606    1.0854 C   0  0  0  0  0  0  0  0  0  0  0  0
    6.6571    1.5546    1.1148 C   0  0  0  0  0  0  0  0  0  0  0  0
    7.3431    2.7697    0.9794 N   0  0  0  0  0  0  0  0  0  0  0  0
    8.7261    2.8726    0.6085 C   0  0  1  0  0  0  0  0  0  0  0  0
    9.0730    2.4166   -0.8044 C   0  0  0  0  0  0  0  0  0  0  0  0
    8.3254    3.1045   -1.7883 O   0  0  0  0  0  0  0  0  0  0  0  0
    9.4481    4.0745    1.1652 C   0  0  0  0  0  0  0  0  0  0  0  0
    9.7606    2.7016    1.6994 C   0  0  0  0  0  0  0  0  0  0  0  0
    7.3076    0.3295    1.3195 C   0  0  0  0  0  0  0  0  0  0  0  0
    6.5642   -0.8454    1.4970 C   0  0  0  0  0  0  0  0  0  0  0  0
    5.1676   -0.8553    1.4770 C   0  0  0  0  0  0  0  0  0  0  0  0
    4.4054   -2.0033    1.7113 N   0  0  0  0  0  0  0  0  0  0  0  0
    0.2834    1.9944    0.9216 H   0  0  0  0  0  0  0  0  0  0  0  0
    0.6504    0.6481    2.0367 H   0  0  0  0  0  0  0  0  0  0  0  0
    0.6810    0.3789    0.2732 H   0  0  0  0  0  0  0  0  0  0  0  0
    2.6094    2.2235    1.8297 H   0  0  0  0  0  0  0  0  0  0  0  0
    2.6428    1.9515    0.0685 H   0  0  0  0  0  0  0  0  0  0  0  0
    4.7255    2.5076    0.9258 H   0  0  0  0  0  0  0  0  0  0  0  0
    6.7722    3.5417    0.6537 H   0  0  0  0  0  0  0  0  0  0  0  0
    8.9304    1.3217   -0.8893 H   0  0  0  0  0  0  0  0  0  0  0  0
   10.1358    2.6222   -1.0083 H   0  0  0  0  0  0  0  0  0  0  0  0
    7.4149    2.7870   -1.7306 H   0  0  0  0  0  0  0  0  0  0  0  0
    8.8741    4.7483    1.8067 H   0  0  0  0  0  0  0  0  0  0  0  0
   10.1806    4.5682    0.5208 H   0  0  0  0  0  0  0  0  0  0  0  0
    9.3894    2.4449    2.6942 H   0  0  0  0  0  0  0  0  0  0  0  0
   10.7177    2.2419    1.4340 H   0  0  0  0  0  0  0  0  0  0  0  0
    8.3957    0.2826    1.3548 H   0  0  0  0  0  0  0  0  0  0  0  0
    7.0936   -1.7883    1.6631 H   0  0  0  0  0  0  0  0  0  0  0  0
    4.8507   -2.8717    1.4343 H   0  0  0  0  0  0  0  0  0  0  0  0
    3.4532   -1.9331    1.3677 H   0  0  0  0  0  0  0  0  0  0  0  0
  1  2  1  0
  1 17  1  0
  1 18  1  0
  1 19  1  0
  2  3  1  0
  2 20  1  0
  2 21  1  0
  3  4  1  0
  4  5  2  0
  4 15  1  0
  5  6  1  0
  5 22  1  0
  6  7  1  0
  6 13  2  0
  8  7  1  1
  7 23  1  0
  8  9  1  0
  8 11  1  0
  8 12  1  0
  9 10  1  0
  9 24  1  0
  9 25  1  0
 10 26  1  0
 11 12  1  0
 11 27  1  0
 11 28  1  0
 12 29  1  0
 12 30  1  0
 13 14  1  0
 13 31  1  0
 14 15  2  0
 14 32  1  0
 15 16  1  0
 16 33  1  0
 16 34  1  0
M  END

