
     RDKit          3D

 44 44  0  0  0  0  0  0  0  0999 V2000
    5.7616   -0.7343    1.2709 O   0  0  0  0  0  0  0  0  0  0  0  0
    4.7050   -1.1828    0.9009 C   0  0  0  0  0  0  0  0  0  0  0  0
    3.5545   -0.6994    1.4154 O   0  0  0  0  0  0  0  0  0  0  0  0
    4.5803   -2.2450   -0.1805 C   0  0  0  0  0  0  0  0  0  0  0  0
    4.6556   -1.6585   -1.6083 C   0  0  0  0  0  0  0  0  0  0  0  0
    5.8616   -0.7315   -1.8508 C   0  0  0  0  0  0  0  0  0  0  0  0
    7.1258   -1.2548   -1.3752 N   0  0  0  0  0  0  0  0  0  0  0  0
    7.8223   -2.1886   -2.1049 C   0  0  0  0  0  0  0  0  0  0  0  0
    7.4806   -2.5476   -3.2250 O   0  0  0  0  0  0  0  0  0  0  0  0
    8.9358   -2.6989   -1.4567 N   0  0  0  0  0  0  0  0  0  0  0  0
    9.8850   -3.5234   -2.1677 C   0  0  0  0  0  0  0  0  0  0  0  0
   11.2172   -2.7917   -2.3832 C   0  0  1  0  0  0  0  0  0  0  0  0
   11.7231   -2.2987   -1.1531 O   0  0  0  0  0  0  0  0  0  0  0  0
   12.2225   -3.6739   -3.1132 C   0  0  0  0  0  0  0  0  0  0  0  0
   13.3845   -2.9151   -3.3779 O   0  0  0  0  0  0  0  0  0  0  0  0
   14.4432   -3.4888   -3.9953 C   0  0  0  0  0  0  0  0  0  0  0  0
   15.5634   -2.6590   -4.1941 C   0  0  0  0  0  0  0  0  0  0  0  0
   16.6991   -3.1546   -4.8193 C   0  0  0  0  0  0  0  0  0  0  0  0
   16.7434   -4.4882   -5.2589 C   0  0  0  0  0  0  0  0  0  0  0  0
   17.9991   -5.0267   -5.8885 C   0  0  1  0  0  0  0  0  0  0  0  0
   18.5770   -4.1223   -6.7022 F   0  0  0  0  0  0  0  0  0  0  0  0
   18.9250   -5.3559   -4.9635 F   0  0  0  0  0  0  0  0  0  0  0  0
   17.7661   -6.1342   -6.6162 F   0  0  0  0  0  0  0  0  0  0  0  0
   15.6315   -5.3093   -5.0650 C   0  0  0  0  0  0  0  0  0  0  0  0
   14.4815   -4.8206   -4.4376 C   0  0  0  0  0  0  0  0  0  0  0  0
    2.7940   -1.1594    1.0329 H   0  0  0  0  0  0  0  0  0  0  0  0
    3.6497   -2.8258   -0.0637 H   0  0  0  0  0  0  0  0  0  0  0  0
    5.4182   -2.9416   -0.0329 H   0  0  0  0  0  0  0  0  0  0  0  0
    3.7313   -1.1001   -1.8393 H   0  0  0  0  0  0  0  0  0  0  0  0
    4.7062   -2.5020   -2.3144 H   0  0  0  0  0  0  0  0  0  0  0  0
    5.6999    0.2411   -1.3607 H   0  0  0  0  0  0  0  0  0  0  0  0
    5.9485   -0.5477   -2.9313 H   0  0  0  0  0  0  0  0  0  0  0  0
    7.2958   -1.1580   -0.3778 H   0  0  0  0  0  0  0  0  0  0  0  0
    9.3287   -2.1649   -0.6873 H   0  0  0  0  0  0  0  0  0  0  0  0
    9.4237   -3.7970   -3.1279 H   0  0  0  0  0  0  0  0  0  0  0  0
   10.0762   -4.4602   -1.6064 H   0  0  0  0  0  0  0  0  0  0  0  0
   11.0339   -1.8965   -2.9999 H   0  0  0  0  0  0  0  0  0  0  0  0
   12.0598   -3.0452   -0.6368 H   0  0  0  0  0  0  0  0  0  0  0  0
   11.7753   -4.0488   -4.0528 H   0  0  0  0  0  0  0  0  0  0  0  0
   12.4728   -4.5571   -2.4903 H   0  0  0  0  0  0  0  0  0  0  0  0
   15.5094   -1.6253   -3.8479 H   0  0  0  0  0  0  0  0  0  0  0  0
   17.5603   -2.5017   -4.9758 H   0  0  0  0  0  0  0  0  0  0  0  0
   15.6551   -6.3436   -5.4126 H   0  0  0  0  0  0  0  0  0  0  0  0
   13.6266   -5.4835   -4.3065 H   0  0  0  0  0  0  0  0  0  0  0  0
  1  2  2  0
  2  3  1  0
  2  4  1  0
  3 26  1  0
  4  5  1  0
  4 27  1  0
  4 28  1  0
  5  6  1  0
  5 29  1  0
  5 30  1  0
  6  7  1  0
  6 31  1  0
  6 32  1  0
  7  8  1  0
  7 33  1  0
  8  9  2  0
  8 10  1  0
 10 11  1  0
 10 34  1  0
 11 12  1  0
 11 35  1  0
 11 36  1  0
 12 13  1  0
 12 14  1  0
 12 37  1  6
 13 38  1  0
 14 15  1  0
 14 39  1  0
 14 40  1  0
 15 16  1  0
 16 17  2  0
 16 25  1  0
 17 18  1  0
 17 41  1  0
 18 19  2  0
 18 42  1  0
 19 20  1  0
 19 24  1  0
 20 21  1  6
 20 22  1  0
 20 23  1  0
 24 25  2  0
 24 43  1  0
 25 44  1  0
M  END

