
     RDKit          3D

 39 39  0  0  0  0  0  0  0  0999 V2000
    0.4741   -0.2507    4.5555 C   0  0  0  0  0  0  0  0  0  0  0  0
    1.9795   -0.0140    4.4273 C   0  0  0  0  0  0  0  0  0  0  0  0
    2.7449   -1.2182    3.8699 C   0  0  0  0  0  0  0  0  0  0  0  0
    4.2495   -0.9766    3.7309 C   0  0  0  0  0  0  0  0  0  0  0  0
    5.0148   -2.1810    3.1783 C   0  0  0  0  0  0  0  0  0  0  0  0
    6.4799   -1.8608    2.8882 C   0  0  0  0  0  0  0  0  0  0  0  0
    6.8338   -0.7868    2.4282 O   0  0  0  0  0  0  0  0  0  0  0  0
    7.3646   -2.8717    3.1470 N   0  0  0  0  0  0  0  0  0  0  0  0
    8.7875   -2.7411    2.8826 C   0  0  0  0  0  0  0  0  0  0  0  0
    9.5990   -2.1044    4.0298 C   0  0  1  0  0  0  0  0  0  0  0  0
    9.4722   -2.8569    5.3700 C   0  0  0  0  0  0  0  0  0  0  0  0
   10.2532   -4.1803    5.3802 C   0  0  0  0  0  0  0  0  0  0  0  0
   11.7092   -3.9519    4.9409 C   0  0  0  0  0  0  0  0  0  0  0  0
   11.8408   -3.2377    3.6764 N   0  0  0  0  0  0  0  0  0  0  0  0
   11.0928   -1.9849    3.6480 C   0  0  0  0  0  0  0  0  0  0  0  0
   -0.0424    0.6346    4.9596 H   0  0  0  0  0  0  0  0  0  0  0  0
    0.2565   -1.0979    5.2278 H   0  0  0  0  0  0  0  0  0  0  0  0
    0.0197   -0.4828    3.5775 H   0  0  0  0  0  0  0  0  0  0  0  0
    2.3966    0.2544    5.4151 H   0  0  0  0  0  0  0  0  0  0  0  0
    2.1632    0.8612    3.7783 H   0  0  0  0  0  0  0  0  0  0  0  0
    2.3260   -1.4907    2.8827 H   0  0  0  0  0  0  0  0  0  0  0  0
    2.5667   -2.0949    4.5214 H   0  0  0  0  0  0  0  0  0  0  0  0
    4.6725   -0.6966    4.7127 H   0  0  0  0  0  0  0  0  0  0  0  0
    4.4402   -0.1186    3.0660 H   0  0  0  0  0  0  0  0  0  0  0  0
    4.5626   -2.4943    2.2189 H   0  0  0  0  0  0  0  0  0  0  0  0
    4.9294   -3.0474    3.8572 H   0  0  0  0  0  0  0  0  0  0  0  0
    7.0152   -3.7308    3.5513 H   0  0  0  0  0  0  0  0  0  0  0  0
    8.8960   -2.1080    1.9887 H   0  0  0  0  0  0  0  0  0  0  0  0
    9.1794   -3.7402    2.6303 H   0  0  0  0  0  0  0  0  0  0  0  0
    9.1971   -1.0850    4.1580 H   0  0  0  0  0  0  0  0  0  0  0  0
    8.4098   -3.0238    5.6152 H   0  0  0  0  0  0  0  0  0  0  0  0
    9.8683   -2.2071    6.1712 H   0  0  0  0  0  0  0  0  0  0  0  0
    9.7803   -4.9127    4.6992 H   0  0  0  0  0  0  0  0  0  0  0  0
   10.2243   -4.6347    6.3859 H   0  0  0  0  0  0  0  0  0  0  0  0
   12.2526   -4.9087    4.8687 H   0  0  0  0  0  0  0  0  0  0  0  0
   12.2267   -3.3592    5.7195 H   0  0  0  0  0  0  0  0  0  0  0  0
   11.5749   -3.8385    2.8977 H   0  0  0  0  0  0  0  0  0  0  0  0
   11.1986   -1.5313    2.6480 H   0  0  0  0  0  0  0  0  0  0  0  0
   11.5777   -1.2880    4.3562 H   0  0  0  0  0  0  0  0  0  0  0  0
  1  2  1  0
  1 16  1  0
  1 17  1  0
  1 18  1  0
  2  3  1  0
  2 19  1  0
  2 20  1  0
  3  4  1  0
  3 21  1  0
  3 22  1  0
  4  5  1  0
  4 23  1  0
  4 24  1  0
  5  6  1  0
  5 25  1  0
  5 26  1  0
  6  7  2  0
  6  8  1  0
  8  9  1  0
  8 27  1  0
  9 10  1  0
  9 28  1  0
  9 29  1  0
 10 11  1  0
 10 15  1  0
 10 30  1  1
 11 12  1  0
 11 31  1  0
 11 32  1  0
 12 13  1  0
 12 33  1  0
 12 34  1  0
 13 14  1  0
 13 35  1  0
 13 36  1  0
 14 15  1  0
 14 37  1  0
 15 38  1  0
 15 39  1  0
M  END

