
     RDKit          3D

 35 36  0  0  0  0  0  0  0  0999 V2000
    0.9996    0.0979   -0.2388 C   0  0  0  0  0  0  0  0  0  0  0  0
    2.3199   -0.0882    0.2258 O   0  0  0  0  0  0  0  0  0  0  0  0
    2.8774    0.8291    1.1757 C   0  0  1  0  0  0  0  0  0  0  0  0
    2.1650    0.6608    2.5080 C   0  0  0  0  0  0  0  0  0  0  0  0
    2.6851    0.0063    3.5149 N   0  0  0  0  0  0  0  0  0  0  0  0
    1.6973    0.0657    4.4953 O   0  0  0  0  0  0  0  0  0  0  0  0
    0.6776    0.7575    3.9791 C   0  0  0  0  0  0  0  0  0  0  0  0
   -0.5193    1.0342    4.8322 C   0  0  0  0  0  0  0  0  0  0  0  0
   -1.7171    1.0996    4.0137 N   0  0  0  0  0  0  0  0  0  0  0  0
    0.9029    1.1586    2.7651 N   0  0  0  0  0  0  0  0  0  0  0  0
    4.3565    0.4169    1.2907 C   0  0  0  0  0  0  0  0  0  0  0  0
    5.1174    0.6562   -0.0193 C   0  0  0  0  0  0  0  0  0  0  0  0
    5.0284    2.1133   -0.5169 C   0  0  2  0  0  0  0  0  0  0  0  0
    5.8768    3.0818    0.3204 C   0  0  0  0  0  0  0  0  0  0  0  0
    3.5475    2.5379   -0.5985 C   0  0  0  0  0  0  0  0  0  0  0  0
    2.7790    2.2980    0.7080 C   0  0  0  0  0  0  0  0  0  0  0  0
    0.7742   -0.7696   -0.8767 H   0  0  0  0  0  0  0  0  0  0  0  0
    0.8887    1.0115   -0.8523 H   0  0  0  0  0  0  0  0  0  0  0  0
    0.2601    0.1395    0.5782 H   0  0  0  0  0  0  0  0  0  0  0  0
   -0.2879    1.9571    5.4125 H   0  0  0  0  0  0  0  0  0  0  0  0
   -0.6042    0.2240    5.5747 H   0  0  0  0  0  0  0  0  0  0  0  0
   -1.5794    1.7667    3.2539 H   0  0  0  0  0  0  0  0  0  0  0  0
   -2.5049    1.4307    4.5682 H   0  0  0  0  0  0  0  0  0  0  0  0
    4.3994   -0.6455    1.5715 H   0  0  0  0  0  0  0  0  0  0  0  0
    4.8130    0.9779    2.1208 H   0  0  0  0  0  0  0  0  0  0  0  0
    4.6971   -0.0106   -0.7886 H   0  0  0  0  0  0  0  0  0  0  0  0
    6.1732    0.3644    0.1121 H   0  0  0  0  0  0  0  0  0  0  0  0
    5.4349    2.1386   -1.5437 H   0  0  0  0  0  0  0  0  0  0  0  0
    5.5533    3.1304    1.3728 H   0  0  0  0  0  0  0  0  0  0  0  0
    5.8248    4.1056   -0.0854 H   0  0  0  0  0  0  0  0  0  0  0  0
    6.9362    2.7773    0.3200 H   0  0  0  0  0  0  0  0  0  0  0  0
    3.0612    1.9669   -1.4067 H   0  0  0  0  0  0  0  0  0  0  0  0
    3.4711    3.6024   -0.8790 H   0  0  0  0  0  0  0  0  0  0  0  0
    1.7230    2.5892    0.6027 H   0  0  0  0  0  0  0  0  0  0  0  0
    3.1816    2.9336    1.5145 H   0  0  0  0  0  0  0  0  0  0  0  0
  1  2  1  0
  1 17  1  0
  1 18  1  0
  1 19  1  0
  3  2  1  6
  3  4  1  0
  3 11  1  0
  3 16  1  0
  4  5  2  0
  4 10  1  0
  5  6  1  0
  6  7  1  0
  7  8  1  0
  7 10  2  0
  8  9  1  0
  8 20  1  0
  8 21  1  0
  9 22  1  0
  9 23  1  0
 11 12  1  0
 11 24  1  0
 11 25  1  0
 12 13  1  0
 12 26  1  0
 12 27  1  0
 13 14  1  0
 13 15  1  0
 13 28  1  6
 14 29  1  0
 14 30  1  0
 14 31  1  0
 15 16  1  0
 15 32  1  0
 15 33  1  0
 16 34  1  0
 16 35  1  0
M  END

