
     RDKit          3D

 37 39  0  0  0  0  0  0  0  0999 V2000
    4.5534   -0.3107   -0.1644 O   0  0  0  0  0  0  0  0  0  0  0  0
    4.3135   -0.1213   -1.3414 C   0  0  0  0  0  0  0  0  0  0  0  0
    2.8803   -0.2687   -1.8801 C   0  0  0  0  0  0  0  0  0  0  0  0
    1.9604    1.3049   -2.1307 S   0  0  0  0  0  0  0  0  0  0  0  0
    2.5091    1.7901   -3.7141 C   0  0  0  0  0  0  0  0  0  0  0  0
    3.4705    1.2305   -4.3728 N   0  0  0  0  0  0  0  0  0  0  0  0
    3.7405    1.8464   -5.6074 C   0  0  0  0  0  0  0  0  0  0  0  0
    4.6521    1.4793   -6.3215 O   0  0  0  0  0  0  0  0  0  0  0  0
    2.8000    2.9886   -5.8761 C   0  0  0  0  0  0  0  0  0  0  0  0
    2.6647    3.8442   -6.9295 C   0  0  0  0  0  0  0  0  0  0  0  0
    3.3355    4.0218   -8.2133 C   0  0  0  0  0  0  0  0  0  0  0  0
    2.8314    5.0596   -9.0364 C   0  0  0  0  0  0  0  0  0  0  0  0
    3.3852    5.3275  -10.2848 C   0  0  0  0  0  0  0  0  0  0  0  0
    4.4626    4.5630  -10.7456 C   0  0  0  0  0  0  0  0  0  0  0  0
    4.9753    3.5349   -9.9467 C   0  0  0  0  0  0  0  0  0  0  0  0
    4.4259    3.2605   -8.6952 C   0  0  0  0  0  0  0  0  0  0  0  0
    1.6981    3.1581   -4.4791 S   0  0  0  0  0  0  0  0  0  0  0  0
    5.2282    0.1960   -2.3090 N   0  0  0  0  0  0  0  0  0  0  0  0
    6.6072    0.3943   -2.1738 C   0  0  0  0  0  0  0  0  0  0  0  0
    7.3108    0.2676   -0.9641 C   0  0  0  0  0  0  0  0  0  0  0  0
    8.6898    0.4930   -0.9811 C   0  0  0  0  0  0  0  0  0  0  0  0
    9.3935    0.8219   -2.0673 N   0  0  0  0  0  0  0  0  0  0  0  0
    8.7133    0.9386   -3.2123 C   0  0  0  0  0  0  0  0  0  0  0  0
    7.3388    0.7390   -3.3260 C   0  0  0  0  0  0  0  0  0  0  0  0
    2.2995   -0.7921   -1.1100 H   0  0  0  0  0  0  0  0  0  0  0  0
    2.8429   -0.8298   -2.8246 H   0  0  0  0  0  0  0  0  0  0  0  0
    1.8597    4.5767   -6.7959 H   0  0  0  0  0  0  0  0  0  0  0  0
    1.9896    5.6606   -8.6814 H   0  0  0  0  0  0  0  0  0  0  0  0
    2.9777    6.1331  -10.9002 H   0  0  0  0  0  0  0  0  0  0  0  0
    4.9022    4.7692  -11.7248 H   0  0  0  0  0  0  0  0  0  0  0  0
    5.8181    2.9370  -10.3025 H   0  0  0  0  0  0  0  0  0  0  0  0
    4.8307    2.4618   -8.0769 H   0  0  0  0  0  0  0  0  0  0  0  0
    4.8312    0.3869   -3.2364 H   0  0  0  0  0  0  0  0  0  0  0  0
    6.7905    0.0028   -0.0466 H   0  0  0  0  0  0  0  0  0  0  0  0
    9.2543    0.3985   -0.0453 H   0  0  0  0  0  0  0  0  0  0  0  0
    9.2938    1.2077   -4.1032 H   0  0  0  0  0  0  0  0  0  0  0  0
    6.8395    0.8465   -4.2932 H   0  0  0  0  0  0  0  0  0  0  0  0
  1  2  2  0
  2  3  1  0
  2 18  1  0
  3  4  1  0
  3 25  1  0
  3 26  1  0
  4  5  2  0
  5  6  1  0
  5 17  1  0
  6  7  2  0
  7  8  1  0
  7  9  1  0
  9 10  2  0
  9 17  1  0
 10 11  1  0
 10 27  1  0
 11 12  2  0
 11 16  1  0
 12 13  1  0
 12 28  1  0
 13 14  2  0
 13 29  1  0
 14 15  1  0
 14 30  1  0
 15 16  2  0
 15 31  1  0
 16 32  1  0
 18 19  1  0
 18 33  1  0
 19 20  2  0
 19 24  1  0
 20 21  1  0
 20 34  1  0
 21 22  2  0
 21 35  1  0
 22 23  1  0
 23 24  2  0
 23 36  1  0
 24 37  1  0
M  CHG  2   4   1   8  -1
M  END

