
     RDKit          3D

 64 68  0  0  0  0  0  0  0  0999 V2000
   19.0883   12.6497    0.0774 C   0  0  0  0  0  0  0  0  0  0  0  0
   18.9315   11.2593   -0.4819 C   0  0  0  0  0  0  0  0  0  0  0  0
   17.9212   10.3912   -0.0444 C   0  0  0  0  0  0  0  0  0  0  0  0
   17.8138    9.1119   -0.5895 C   0  0  0  0  0  0  0  0  0  0  0  0
   18.7333    8.7287   -1.5730 C   0  0  0  0  0  0  0  0  0  0  0  0
   18.7184    7.3671   -2.2309 C   0  0  0  0  0  0  0  0  0  0  0  0
   17.6390    6.5995   -1.7399 O   0  0  0  0  0  0  0  0  0  0  0  0
   17.4423    5.3330   -2.1914 C   0  0  0  0  0  0  0  0  0  0  0  0
   18.2724    4.7076   -3.1541 C   0  0  0  0  0  0  0  0  0  0  0  0
   18.0239    3.4028   -3.5799 C   0  0  0  0  0  0  0  0  0  0  0  0
   16.9325    2.7183   -3.0369 C   0  0  0  0  0  0  0  0  0  0  0  0
   16.4422    1.4453   -3.2735 N   0  0  0  0  0  0  0  0  0  0  0  0
   15.3857    1.2879   -2.5121 C   0  0  0  0  0  0  0  0  0  0  0  0
   14.5139    0.0614   -2.4703 C   0  0  2  0  0  0  0  0  0  0  0  0
   13.4805    0.4512   -2.4131 H   0  0  0  0  0  0  0  0  0  0  0  0
   14.7060   -0.8180   -1.2108 C   0  0  0  0  0  0  0  0  0  0  0  0
   13.5545   -1.8273   -1.0945 C   0  0  0  0  0  0  0  0  0  0  0  0
   13.3737   -2.6576   -2.3721 C   0  0  0  0  0  0  0  0  0  0  0  0
   13.3088   -1.7909   -3.6399 C   0  0  0  0  0  0  0  0  0  0  0  0
   14.5087   -0.8275   -3.7522 C   0  0  2  0  0  0  0  0  0  0  0  0
   14.3586   -0.1619   -4.6214 H   0  0  0  0  0  0  0  0  0  0  0  0
   15.7980   -1.6397   -4.0781 C   0  0  0  0  0  0  0  0  0  0  0  0
   15.7408   -2.8204   -4.3339 O   0  0  0  0  0  0  0  0  0  0  0  0
   16.9477   -0.9851   -4.1216 O   0  0  0  0  0  0  0  0  0  0  0  0
   15.1342    2.4235   -1.7481 N   0  0  0  0  0  0  0  0  0  0  0  0
   14.0408    2.6757   -0.8312 C   0  0  0  0  0  0  0  0  0  0  0  0
   14.4082    2.6887    0.6463 C   0  0  0  0  0  0  0  0  0  0  0  0
   13.4532    3.1459    1.5695 C   0  0  0  0  0  0  0  0  0  0  0  0
   13.7234    3.1559    2.9345 C   0  0  0  0  0  0  0  0  0  0  0  0
   14.9725    2.7080    3.4063 C   0  0  0  0  0  0  0  0  0  0  0  0
   15.2605    2.7204    4.8138 C   0  0  0  0  0  0  0  0  0  0  0  0
   15.4907    2.7319    5.9517 N   0  0  0  0  0  0  0  0  0  0  0  0
   15.9339    2.2541    2.4872 C   0  0  0  0  0  0  0  0  0  0  0  0
   15.6495    2.2463    1.1211 C   0  0  0  0  0  0  0  0  0  0  0  0
   16.1144    3.3547   -2.0760 C   0  0  0  0  0  0  0  0  0  0  0  0
   16.3452    4.6574   -1.6356 C   0  0  0  0  0  0  0  0  0  0  0  0
   19.7019    9.5419   -2.0028 N   0  0  0  0  0  0  0  0  0  0  0  0
   19.7929   10.7610   -1.4729 C   0  0  0  0  0  0  0  0  0  0  0  0
   19.2683   12.6269    1.1651 H   0  0  0  0  0  0  0  0  0  0  0  0
   18.1804   13.2537   -0.0869 H   0  0  0  0  0  0  0  0  0  0  0  0
   19.9319   13.1782   -0.3909 H   0  0  0  0  0  0  0  0  0  0  0  0
   17.2158   10.7169    0.7264 H   0  0  0  0  0  0  0  0  0  0  0  0
   17.0386    8.4172   -0.2671 H   0  0  0  0  0  0  0  0  0  0  0  0
   19.6840    6.8652   -2.0317 H   0  0  0  0  0  0  0  0  0  0  0  0
   18.6444    7.5023   -3.3261 H   0  0  0  0  0  0  0  0  0  0  0  0
   19.1214    5.2451   -3.5746 H   0  0  0  0  0  0  0  0  0  0  0  0
   18.6659    2.9262   -4.3232 H   0  0  0  0  0  0  0  0  0  0  0  0
   14.7526   -0.1928   -0.3046 H   0  0  0  0  0  0  0  0  0  0  0  0
   15.6780   -1.3365   -1.2819 H   0  0  0  0  0  0  0  0  0  0  0  0
   12.6232   -1.2700   -0.8775 H   0  0  0  0  0  0  0  0  0  0  0  0
   13.7239   -2.4896   -0.2294 H   0  0  0  0  0  0  0  0  0  0  0  0
   12.4601   -3.2700   -2.2931 H   0  0  0  0  0  0  0  0  0  0  0  0
   14.2150   -3.3589   -2.4794 H   0  0  0  0  0  0  0  0  0  0  0  0
   12.3796   -1.1925   -3.6409 H   0  0  0  0  0  0  0  0  0  0  0  0
   13.2817   -2.4380   -4.5270 H   0  0  0  0  0  0  0  0  0  0  0  0
   16.8480   -0.0081   -3.9084 H   0  0  0  0  0  0  0  0  0  0  0  0
   13.2639    1.9156   -1.0029 H   0  0  0  0  0  0  0  0  0  0  0  0
   13.5820    3.6438   -1.0963 H   0  0  0  0  0  0  0  0  0  0  0  0
   12.4810    3.5005    1.2149 H   0  0  0  0  0  0  0  0  0  0  0  0
   12.9739    3.5121    3.6436 H   0  0  0  0  0  0  0  0  0  0  0  0
   16.9052    1.9095    2.8468 H   0  0  0  0  0  0  0  0  0  0  0  0
   16.4091    1.8973    0.4196 H   0  0  0  0  0  0  0  0  0  0  0  0
   15.7300    5.1579   -0.8874 H   0  0  0  0  0  0  0  0  0  0  0  0
   20.6027   11.3967   -1.8539 H   0  0  0  0  0  0  0  0  0  0  0  0
  1  2  1  0
  1 39  1  0
  1 40  1  0
  1 41  1  0
  2  3  2  0
  2 38  1  0
  3  4  1  0
  3 42  1  0
  4  5  2  0
  4 43  1  0
  5  6  1  0
  5 37  1  0
  6  7  1  0
  6 44  1  0
  6 45  1  0
  7  8  1  0
  8  9  2  0
  8 36  1  0
  9 10  1  0
  9 46  1  0
 10 11  2  0
 10 47  1  0
 11 12  1  0
 11 35  1  0
 12 13  2  0
 13 14  1  0
 13 25  1  0
 14 15  1  1
 14 16  1  0
 14 20  1  0
 16 17  1  0
 16 48  1  0
 16 49  1  0
 17 18  1  0
 17 50  1  0
 17 51  1  0
 18 19  1  0
 18 52  1  0
 18 53  1  0
 19 20  1  0
 19 54  1  0
 19 55  1  0
 20 21  1  6
 20 22  1  0
 22 23  2  0
 22 24  1  0
 24 56  1  0
 25 26  1  0
 25 35  1  0
 26 27  1  0
 26 57  1  0
 26 58  1  0
 27 28  2  0
 27 34  1  0
 28 29  1  0
 28 59  1  0
 29 30  2  0
 29 60  1  0
 30 31  1  0
 30 33  1  0
 31 32  3  0
 33 34  2  0
 33 61  1  0
 34 62  1  0
 35 36  2  0
 36 63  1  0
 37 38  2  0
 38 64  1  0
M  END

