
     RDKit          3D

 26 28  0  0  0  0  0  0  0  0999 V2000
    1.1433    0.0930   -0.1373 C   0  0  0  0  0  0  0  0  0  0  0  0
    2.6418    0.0502   -0.0892 C   0  0  0  0  0  0  0  0  0  0  0  0
    3.3151    1.1750   -0.1939 N   0  0  0  0  0  0  0  0  0  0  0  0
    4.9660    0.8782   -0.0997 S   0  0  0  0  0  0  0  0  0  0  0  0
    4.7874   -0.8423    0.0634 C   0  0  0  0  0  0  0  0  0  0  0  0
    5.8613   -1.7193    0.1840 N   0  0  0  0  0  0  0  0  0  0  0  0
    3.4333   -1.1564    0.0450 C   0  0  0  0  0  0  0  0  0  0  0  0
    2.8992   -2.5139    0.0893 C   0  0  0  0  0  0  0  0  0  0  0  0
    1.6715   -2.8603    0.4086 N   0  0  0  0  0  0  0  0  0  0  0  0
    1.6223   -4.2335    0.2778 C   0  0  0  0  0  0  0  0  0  0  0  0
    0.5606   -5.1271    0.4908 C   0  0  0  0  0  0  0  0  0  0  0  0
    0.7818   -6.4858    0.2790 C   0  0  0  0  0  0  0  0  0  0  0  0
    2.0452   -6.9393   -0.1391 C   0  0  0  0  0  0  0  0  0  0  0  0
    2.2140   -8.2585   -0.3344 F   0  0  0  0  0  0  0  0  0  0  0  0
    3.1269   -6.0932   -0.3597 C   0  0  0  0  0  0  0  0  0  0  0  0
    2.8863   -4.7324   -0.1406 C   0  0  0  0  0  0  0  0  0  0  0  0
    3.6849   -3.6143   -0.2402 N   0  0  0  0  0  0  0  0  0  0  0  0
    4.6253   -3.5587   -0.6153 H   0  0  0  0  0  0  0  0  0  0  0  0
    0.8148    1.1302   -0.2853 H   0  0  0  0  0  0  0  0  0  0  0  0
    0.7130   -0.3125    0.7900 H   0  0  0  0  0  0  0  0  0  0  0  0
    0.7579   -0.5401   -0.9513 H   0  0  0  0  0  0  0  0  0  0  0  0
    6.7750   -1.2761    0.2145 H   0  0  0  0  0  0  0  0  0  0  0  0
    5.7635   -2.3857    0.9495 H   0  0  0  0  0  0  0  0  0  0  0  0
   -0.4138   -4.7555    0.8131 H   0  0  0  0  0  0  0  0  0  0  0  0
   -0.0092   -7.2230    0.4282 H   0  0  0  0  0  0  0  0  0  0  0  0
    4.0872   -6.4964   -0.6843 H   0  0  0  0  0  0  0  0  0  0  0  0
  1  2  1  0
  1 19  1  0
  1 20  1  0
  1 21  1  0
  2  3  2  0
  2  7  1  0
  3  4  1  0
  4  5  1  0
  5  6  1  0
  5  7  2  0
  6 22  1  0
  6 23  1  0
  7  8  1  0
  8  9  2  0
  8 17  1  0
  9 10  1  0
 10 11  2  0
 10 16  1  0
 11 12  1  0
 11 24  1  0
 12 13  2  0
 12 25  1  0
 13 14  1  0
 13 15  1  0
 15 16  2  0
 15 26  1  0
 16 17  1  0
 17 18  1  0
M  END

