
     RDKit          3D

 62 65  0  0  0  0  0  0  0  0999 V2000
    3.9999   -3.4562   -0.7197 C   0  0  0  0  0  0  0  0  0  0  0  0
    3.1621   -2.2013   -0.6030 C   0  0  0  0  0  0  0  0  0  0  0  0
    2.2445   -1.8566   -1.4159 N   0  0  0  0  0  0  0  0  0  0  0  0
    3.4038   -1.2963    0.6046 C   0  0  0  0  0  0  0  0  0  0  0  0
    4.8377   -0.7866    0.7422 C   0  0  0  0  0  0  0  0  0  0  0  0
    5.2423    0.3123    0.2162 N   0  0  0  0  0  0  0  0  0  0  0  0
    4.4526    1.1988   -0.5187 C   0  0  0  0  0  0  0  0  0  0  0  0
    3.6578    2.1655    0.1305 C   0  0  0  0  0  0  0  0  0  0  0  0
    2.9337    3.1044   -0.6074 C   0  0  0  0  0  0  0  0  0  0  0  0
    2.9896    3.1074   -2.0043 C   0  0  0  0  0  0  0  0  0  0  0  0
    3.7840    2.1581   -2.6560 C   0  0  0  0  0  0  0  0  0  0  0  0
    4.5112    1.2173   -1.9261 C   0  0  0  0  0  0  0  0  0  0  0  0
    5.7667   -1.5838    1.4032 N   0  0  0  0  0  0  0  0  0  0  0  0
    5.3989   -2.5365    2.4504 C   0  0  0  0  0  0  0  0  0  0  0  0
    6.4719   -3.6287    2.6032 C   0  0  0  0  0  0  0  0  0  0  0  0
    7.8258   -3.1252    2.8114 N   0  0  0  0  0  0  0  0  0  0  0  0
    8.0902   -2.6369    4.1722 C   0  0  1  0  0  0  0  0  0  0  0  0
    8.0029   -3.7859    5.2327 C   0  0  0  0  0  0  0  0  0  0  0  0
    9.2524   -3.7827    6.0173 N   0  0  0  0  0  0  0  0  0  0  0  0
    9.8665   -2.4607    5.8056 C   0  0  2  0  0  0  0  0  0  0  0  0
    9.3002   -1.4249    6.8026 C   0  0  0  0  0  0  0  0  0  0  0  0
    8.6106   -0.4833    6.4292 O   0  0  0  0  0  0  0  0  0  0  0  0
    9.6049   -1.5959    8.1220 N   0  0  0  0  0  0  0  0  0  0  0  0
   10.4118   -2.6787    8.6933 C   0  0  0  0  0  0  0  0  0  0  0  0
   10.0890   -2.7117   10.1845 C   0  0  0  0  0  0  0  0  0  0  0  0
    9.9258   -0.9493   10.6652 S   0  0  0  0  0  0  0  0  0  0  0  0
    9.0973   -0.6021    9.0711 C   0  0  0  0  0  0  0  0  0  0  0  0
    9.5222   -2.0933    4.3556 C   0  0  0  0  0  0  0  0  0  0  0  0
    8.1375   -2.1969    1.7238 C   0  0  0  0  0  0  0  0  0  0  0  0
    7.1280   -1.0577    1.5480 C   0  0  0  0  0  0  0  0  0  0  0  0
    3.7851   -3.9888   -1.6581 H   0  0  0  0  0  0  0  0  0  0  0  0
    3.7879   -4.1408    0.1201 H   0  0  0  0  0  0  0  0  0  0  0  0
    5.0752   -3.2243   -0.6733 H   0  0  0  0  0  0  0  0  0  0  0  0
    2.1566   -2.5463   -2.1727 H   0  0  0  0  0  0  0  0  0  0  0  0
    3.0844   -1.8295    1.5132 H   0  0  0  0  0  0  0  0  0  0  0  0
    2.7375   -0.4346    0.4823 H   0  0  0  0  0  0  0  0  0  0  0  0
    3.6289    2.1765    1.2229 H   0  0  0  0  0  0  0  0  0  0  0  0
    2.3223    3.8437   -0.0824 H   0  0  0  0  0  0  0  0  0  0  0  0
    2.4235    3.8441   -2.5793 H   0  0  0  0  0  0  0  0  0  0  0  0
    3.8394    2.1494   -3.7482 H   0  0  0  0  0  0  0  0  0  0  0  0
    5.1381    0.4821   -2.4358 H   0  0  0  0  0  0  0  0  0  0  0  0
    4.4489   -3.0274    2.2087 H   0  0  0  0  0  0  0  0  0  0  0  0
    5.2538   -2.0116    3.4172 H   0  0  0  0  0  0  0  0  0  0  0  0
    6.4743   -4.2411    1.6834 H   0  0  0  0  0  0  0  0  0  0  0  0
    6.1824   -4.2943    3.4305 H   0  0  0  0  0  0  0  0  0  0  0  0
    7.3926   -1.8329    4.4750 H   0  0  0  0  0  0  0  0  0  0  0  0
    7.8785   -4.7642    4.7460 H   0  0  0  0  0  0  0  0  0  0  0  0
    7.1392   -3.6320    5.9006 H   0  0  0  0  0  0  0  0  0  0  0  0
    9.8818   -4.4888    5.6405 H   0  0  0  0  0  0  0  0  0  0  0  0
   10.9546   -2.5313    5.9688 H   0  0  0  0  0  0  0  0  0  0  0  0
   11.4905   -2.4855    8.5453 H   0  0  0  0  0  0  0  0  0  0  0  0
   10.1458   -3.6250    8.2011 H   0  0  0  0  0  0  0  0  0  0  0  0
   10.8900   -3.1753   10.7768 H   0  0  0  0  0  0  0  0  0  0  0  0
    9.1468   -3.2482   10.3808 H   0  0  0  0  0  0  0  0  0  0  0  0
    9.3377    0.4198    8.7427 H   0  0  0  0  0  0  0  0  0  0  0  0
    8.0003   -0.6758    9.1617 H   0  0  0  0  0  0  0  0  0  0  0  0
   10.2066   -2.6400    3.6864 H   0  0  0  0  0  0  0  0  0  0  0  0
    9.6033   -1.0167    4.1585 H   0  0  0  0  0  0  0  0  0  0  0  0
    8.1699   -2.7826    0.7871 H   0  0  0  0  0  0  0  0  0  0  0  0
    9.1405   -1.7709    1.8652 H   0  0  0  0  0  0  0  0  0  0  0  0
    7.3603   -0.4691    0.6521 H   0  0  0  0  0  0  0  0  0  0  0  0
    7.1738   -0.3531    2.4024 H   0  0  0  0  0  0  0  0  0  0  0  0
  1  2  1  0
  1 31  1  0
  1 32  1  0
  1 33  1  0
  2  3  2  0
  2  4  1  0
  3 34  1  0
  4  5  1  0
  4 35  1  0
  4 36  1  0
  5  6  2  0
  5 13  1  0
  6  7  1  0
  7  8  2  0
  7 12  1  0
  8  9  1  0
  8 37  1  0
  9 10  2  0
  9 38  1  0
 10 11  1  0
 10 39  1  0
 11 12  2  0
 11 40  1  0
 12 41  1  0
 13 14  1  0
 13 30  1  0
 14 15  1  0
 14 42  1  0
 14 43  1  0
 15 16  1  0
 15 44  1  0
 15 45  1  0
 16 17  1  0
 16 29  1  0
 17 18  1  0
 17 28  1  0
 17 46  1  1
 18 19  1  0
 18 47  1  0
 18 48  1  0
 19 20  1  0
 19 49  1  0
 20 21  1  0
 20 28  1  0
 20 50  1  6
 21 22  2  0
 21 23  1  0
 23 24  1  0
 23 27  1  0
 24 25  1  0
 24 51  1  0
 24 52  1  0
 25 26  1  0
 25 53  1  0
 25 54  1  0
 26 27  1  0
 27 55  1  0
 27 56  1  0
 28 57  1  0
 28 58  1  0
 29 30  1  0
 29 59  1  0
 29 60  1  0
 30 61  1  0
 30 62  1  0
M  END

