
     RDKit          3D

 32 33  0  0  0  0  0  0  0  0999 V2000
    2.4084    1.3019    0.1025 C   0  0  0  0  0  0  0  0  0  0  0  0
    2.3513   -0.1077    0.0657 O   0  0  0  0  0  0  0  0  0  0  0  0
    2.9481   -0.7995   -0.9546 C   0  0  0  0  0  0  0  0  0  0  0  0
    3.6424   -0.1622   -1.9906 C   0  0  0  0  0  0  0  0  0  0  0  0
    4.2388   -0.8962   -3.0162 C   0  0  0  0  0  0  0  0  0  0  0  0
    4.1587   -2.2988   -3.0409 C   0  0  0  0  0  0  0  0  0  0  0  0
    4.7956   -3.0452   -4.0282 N   0  0  0  0  0  0  0  0  0  0  0  0
    3.4568   -2.9246   -1.9997 C   0  0  0  0  0  0  0  0  0  0  0  0
    2.8501   -2.2138   -0.9556 C   0  0  0  0  0  0  0  0  0  0  0  0
    2.1368   -3.0825    0.0623 C   0  0  0  0  0  0  0  0  0  0  0  0
    2.0860   -4.2944   -0.0975 O   0  0  0  0  0  0  0  0  0  0  0  0
    1.5783   -2.4394    1.1431 N   0  0  0  0  0  0  0  0  0  0  0  0
    0.8785   -3.0041    2.2134 C   0  0  0  0  0  0  0  0  0  0  0  0
    0.6128   -4.3843    2.3385 C   0  0  0  0  0  0  0  0  0  0  0  0
   -0.0948   -4.8801    3.4335 C   0  0  0  0  0  0  0  0  0  0  0  0
   -0.5603   -4.0273    4.4369 C   0  0  0  0  0  0  0  0  0  0  0  0
   -0.3090   -2.6580    4.3363 C   0  0  0  0  0  0  0  0  0  0  0  0
    0.3983   -2.1597    3.2433 C   0  0  0  0  0  0  0  0  0  0  0  0
    0.6921   -0.4240    3.1717 Cl  0  0  0  0  0  0  0  0  0  0  0  0
    1.8536    1.6079    0.9986 H   0  0  0  0  0  0  0  0  0  0  0  0
    1.9336    1.7511   -0.7875 H   0  0  0  0  0  0  0  0  0  0  0  0
    3.4481    1.6659    0.1785 H   0  0  0  0  0  0  0  0  0  0  0  0
    3.7263    0.9241   -2.0097 H   0  0  0  0  0  0  0  0  0  0  0  0
    4.7784   -0.3669   -3.8067 H   0  0  0  0  0  0  0  0  0  0  0  0
    4.9626   -2.5699   -4.9078 H   0  0  0  0  0  0  0  0  0  0  0  0
    4.4499   -3.9894   -4.1577 H   0  0  0  0  0  0  0  0  0  0  0  0
    3.3583   -4.0116   -1.9695 H   0  0  0  0  0  0  0  0  0  0  0  0
    1.6845   -1.4256    1.1569 H   0  0  0  0  0  0  0  0  0  0  0  0
    0.9768   -5.0459    1.5572 H   0  0  0  0  0  0  0  0  0  0  0  0
   -0.2825   -5.9548    3.4976 H   0  0  0  0  0  0  0  0  0  0  0  0
   -1.1142   -4.4182    5.2934 H   0  0  0  0  0  0  0  0  0  0  0  0
   -0.6563   -1.9623    5.1020 H   0  0  0  0  0  0  0  0  0  0  0  0
  1  2  1  0
  1 20  1  0
  1 21  1  0
  1 22  1  0
  2  3  1  0
  3  4  2  0
  3  9  1  0
  4  5  1  0
  4 23  1  0
  5  6  2  0
  5 24  1  0
  6  7  1  0
  6  8  1  0
  7 25  1  0
  7 26  1  0
  8  9  2  0
  8 27  1  0
  9 10  1  0
 10 11  2  0
 10 12  1  0
 12 13  1  0
 12 28  1  0
 13 14  2  0
 13 18  1  0
 14 15  1  0
 14 29  1  0
 15 16  2  0
 15 30  1  0
 16 17  1  0
 16 31  1  0
 17 18  2  0
 17 32  1  0
 18 19  1  0
M  END

