
     RDKit          3D

 88 89  0  0  0  0  0  0  0  0999 V2000
   -7.2606   11.8764    5.4262 C   0  0  0  0  0  0  0  0  0  0  0  0
   -7.9374   11.3592    4.1899 C   0  0  0  0  0  0  0  0  0  0  0  0
   -7.4563   11.3137    2.9382 C   0  0  0  0  0  0  0  0  0  0  0  0
   -6.1052   11.7597    2.4492 C   0  0  0  0  0  0  0  0  0  0  0  0
   -5.2795   10.6039    1.8357 C   0  0  0  0  0  0  0  0  0  0  0  0
   -3.9344   11.0404    1.3434 C   0  0  0  0  0  0  0  0  0  0  0  0
   -3.4954   10.9250    0.0783 C   0  0  0  0  0  0  0  0  0  0  0  0
   -2.1248   11.3276   -0.3622 C   0  0  0  0  0  0  0  0  0  0  0  0
   -1.2428   11.4377    0.5713 N   0  0  0  0  0  0  0  0  0  0  0  0
    0.1618   11.8377    0.4050 C   0  0  1  0  0  0  0  0  0  0  0  0
    1.1441   10.9168    1.1029 C   0  0  0  0  0  0  0  0  0  0  0  0
    1.5184    9.6719    0.7146 C   0  0  0  0  0  0  0  0  0  0  0  0
    1.0613    8.9148   -0.4276 C   0  0  0  0  0  0  0  0  0  0  0  0
    1.4870    7.4634   -0.4597 C   0  0  0  0  0  0  0  0  0  0  0  0
    2.6680    7.1866   -0.3027 O   0  0  0  0  0  0  0  0  0  0  0  0
    0.5384    6.5002   -0.7253 N   0  0  0  0  0  0  0  0  0  0  0  0
    1.0481    5.1469   -0.8552 C   0  0  0  0  0  0  0  0  0  0  0  0
    1.2837    4.4414    0.4653 C   0  0  0  0  0  0  0  0  0  0  0  0
    0.9141    4.8410    1.5404 O   0  0  0  0  0  0  0  0  0  0  0  0
   -0.8877    6.6515   -0.4129 C   0  0  0  0  0  0  0  0  0  0  0  0
   -1.8581    6.3717   -1.5669 C   0  0  0  0  0  0  0  0  0  0  0  0
   -1.9578    4.9704   -1.9725 N   0  0  0  0  0  0  0  0  0  0  0  0
   -2.6390    4.1494   -0.9852 C   0  0  0  0  0  0  0  0  0  0  0  0
   -2.5830    4.8112   -3.2965 C   0  0  0  0  0  0  0  0  0  0  0  0
   -1.8538    5.4926   -4.4320 C   0  0  0  0  0  0  0  0  0  0  0  0
   -0.6957    5.0671   -4.9813 C   0  0  0  0  0  0  0  0  0  0  0  0
    0.0546    3.8824   -4.5847 C   0  0  0  0  0  0  0  0  0  0  0  0
    1.2242    3.4519   -5.1067 C   0  0  0  0  0  0  0  0  0  0  0  0
    2.0368    4.0761   -6.2062 C   0  0  0  0  0  0  0  0  0  0  0  0
    2.2392    3.1360   -7.4047 C   0  0  0  0  0  0  0  0  0  0  0  0
    0.3963    9.4302   -1.5107 C   0  0  0  0  0  0  0  0  0  0  0  0
    0.0831   10.8016   -1.7746 C   0  0  0  0  0  0  0  0  0  0  0  0
    0.4073   11.9264   -1.0530 C   0  0  0  0  0  0  0  0  0  0  0  0
   -1.0219   11.0235   -2.6455 N   0  0  0  0  0  0  0  0  0  0  0  0
   -2.0299   11.4273   -1.9354 C   0  0  0  0  0  0  0  0  0  0  0  0
   -3.3036   11.7886   -2.6787 C   0  0  0  0  0  0  0  0  0  0  0  0
   -3.1227   12.6546   -3.9430 C   0  0  0  0  0  0  0  0  0  0  0  0
   -2.4601   12.0576   -5.1973 C   0  0  0  0  0  0  0  0  0  0  0  0
   -3.1482   10.8451   -5.8404 C   0  0  0  0  0  0  0  0  0  0  0  0
   -2.9056    9.4274   -5.3090 C   0  0  0  0  0  0  0  0  0  0  0  0
   -3.5556    8.4963   -5.7204 O   0  0  0  0  0  0  0  0  0  0  0  0
   -1.9163    9.2259   -4.4337 O   0  0  0  0  0  0  0  0  0  0  0  0
   -7.2053   11.0905    6.1997 H   0  0  0  0  0  0  0  0  0  0  0  0
   -7.8378   12.7062    5.8710 H   0  0  0  0  0  0  0  0  0  0  0  0
   -6.2393   12.2395    5.2422 H   0  0  0  0  0  0  0  0  0  0  0  0
   -8.9548   10.9780    4.3449 H   0  0  0  0  0  0  0  0  0  0  0  0
   -8.1113   10.8934    2.1639 H   0  0  0  0  0  0  0  0  0  0  0  0
   -5.5253   12.2302    3.2590 H   0  0  0  0  0  0  0  0  0  0  0  0
   -6.2377   12.5372    1.6741 H   0  0  0  0  0  0  0  0  0  0  0  0
   -5.8502   10.1262    1.0212 H   0  0  0  0  0  0  0  0  0  0  0  0
   -5.1400    9.8311    2.6148 H   0  0  0  0  0  0  0  0  0  0  0  0
   -3.2533   11.4915    2.0749 H   0  0  0  0  0  0  0  0  0  0  0  0
   -4.1620   10.4843   -0.6675 H   0  0  0  0  0  0  0  0  0  0  0  0
    0.2463   12.8293    0.8812 H   0  0  0  0  0  0  0  0  0  0  0  0
    1.6251   11.3270    1.9956 H   0  0  0  0  0  0  0  0  0  0  0  0
    2.2434    9.1482    1.3446 H   0  0  0  0  0  0  0  0  0  0  0  0
    1.9975    5.1543   -1.4115 H   0  0  0  0  0  0  0  0  0  0  0  0
    0.3244    4.5536   -1.4424 H   0  0  0  0  0  0  0  0  0  0  0  0
    1.8197    3.4586    0.3641 H   0  0  0  0  0  0  0  0  0  0  0  0
   -1.0538    7.6817   -0.0752 H   0  0  0  0  0  0  0  0  0  0  0  0
   -1.1151    6.0139    0.4572 H   0  0  0  0  0  0  0  0  0  0  0  0
   -1.5521    6.9609   -2.4439 H   0  0  0  0  0  0  0  0  0  0  0  0
   -2.8570    6.7649   -1.2598 H   0  0  0  0  0  0  0  0  0  0  0  0
   -2.1301    4.1965   -0.0110 H   0  0  0  0  0  0  0  0  0  0  0  0
   -2.6401    3.0963   -1.3078 H   0  0  0  0  0  0  0  0  0  0  0  0
   -3.6990    4.4550   -0.8261 H   0  0  0  0  0  0  0  0  0  0  0  0
   -3.6324    5.1820   -3.2766 H   0  0  0  0  0  0  0  0  0  0  0  0
   -2.6474    3.7266   -3.4878 H   0  0  0  0  0  0  0  0  0  0  0  0
   -2.3191    6.3945   -4.8423 H   0  0  0  0  0  0  0  0  0  0  0  0
   -0.2892    5.6623   -5.8051 H   0  0  0  0  0  0  0  0  0  0  0  0
   -0.3804    3.2843   -3.7777 H   0  0  0  0  0  0  0  0  0  0  0  0
    1.6444    2.5246   -4.6955 H   0  0  0  0  0  0  0  0  0  0  0  0
    3.0300    4.3463   -5.7994 H   0  0  0  0  0  0  0  0  0  0  0  0
    1.5824    5.0193   -6.5464 H   0  0  0  0  0  0  0  0  0  0  0  0
    2.7180    2.1915   -7.0964 H   0  0  0  0  0  0  0  0  0  0  0  0
    2.8810    3.6008   -8.1703 H   0  0  0  0  0  0  0  0  0  0  0  0
    1.2767    2.8808   -7.8762 H   0  0  0  0  0  0  0  0  0  0  0  0
    0.0576    8.7330   -2.2828 H   0  0  0  0  0  0  0  0  0  0  0  0
    0.2000   12.8900   -1.5305 H   0  0  0  0  0  0  0  0  0  0  0  0
   -3.9729   12.3290   -1.9939 H   0  0  0  0  0  0  0  0  0  0  0  0
   -3.8368   10.8526   -2.9302 H   0  0  0  0  0  0  0  0  0  0  0  0
   -2.5638   13.5634   -3.6603 H   0  0  0  0  0  0  0  0  0  0  0  0
   -4.1323   13.0006   -4.2263 H   0  0  0  0  0  0  0  0  0  0  0  0
   -1.3994   11.8366   -5.0050 H   0  0  0  0  0  0  0  0  0  0  0  0
   -2.4526   12.8622   -5.9517 H   0  0  0  0  0  0  0  0  0  0  0  0
   -2.8379   10.7793   -6.8976 H   0  0  0  0  0  0  0  0  0  0  0  0
   -4.2424   10.9751   -5.8793 H   0  0  0  0  0  0  0  0  0  0  0  0
   -1.5197   10.0375   -4.0156 H   0  0  0  0  0  0  0  0  0  0  0  0
  1  2  1  0
  1 43  1  0
  1 44  1  0
  1 45  1  0
  2  3  2  0
  2 46  1  0
  3  4  1  0
  3 47  1  0
  4  5  1  0
  4 48  1  0
  4 49  1  0
  5  6  1  0
  5 50  1  0
  5 51  1  0
  6  7  2  0
  6 52  1  0
  7  8  1  0
  7 53  1  0
  8  9  2  0
  8 35  1  0
  9 10  1  0
 10 11  1  0
 10 33  1  0
 10 54  1  1
 11 12  2  0
 11 55  1  0
 12 13  1  0
 12 56  1  0
 13 14  1  0
 13 31  2  0
 14 15  2  0
 14 16  1  0
 16 17  1  0
 16 20  1  0
 17 18  1  0
 17 57  1  0
 17 58  1  0
 18 19  2  0
 18 59  1  0
 20 21  1  0
 20 60  1  0
 20 61  1  0
 21 22  1  0
 21 62  1  0
 21 63  1  0
 22 23  1  0
 22 24  1  0
 23 64  1  0
 23 65  1  0
 23 66  1  0
 24 25  1  0
 24 67  1  0
 24 68  1  0
 25 26  2  0
 25 69  1  0
 26 27  1  0
 26 70  1  0
 27 28  2  0
 27 71  1  0
 28 29  1  0
 28 72  1  0
 29 30  1  0
 29 73  1  0
 29 74  1  0
 30 75  1  0
 30 76  1  0
 30 77  1  0
 31 32  1  0
 31 78  1  0
 32 33  2  0
 32 34  1  0
 33 79  1  0
 34 35  2  0
 35 36  1  0
 36 37  1  0
 36 80  1  0
 36 81  1  0
 37 38  1  0
 37 82  1  0
 37 83  1  0
 38 39  1  0
 38 84  1  0
 38 85  1  0
 39 40  1  0
 39 86  1  0
 39 87  1  0
 40 41  2  0
 40 42  1  0
 42 88  1  0
M  END

