
     RDKit          3D

 23 25  0  0  0  0  0  0  0  0999 V2000
   10.1868    4.9979   -0.1099 Cl  0  0  0  0  0  0  0  0  0  0  0  0
    9.4229    3.4350   -0.0821 C   0  0  0  0  0  0  0  0  0  0  0  0
   10.1577    2.2963   -0.4555 C   0  0  0  0  0  0  0  0  0  0  0  0
    9.5037    1.0780   -0.4152 C   0  0  0  0  0  0  0  0  0  0  0  0
    8.1577    1.1170   -0.0018 C   0  0  0  0  0  0  0  0  0  0  0  0
    7.0222   -0.2592    0.1650 S   0  0  0  0  0  0  0  0  0  0  0  0
    7.9141   -1.6893   -0.3281 C   0  0  0  0  0  0  0  0  0  0  0  0
    9.1692   -1.8603   -0.7018 N   0  0  0  0  0  0  0  0  0  0  0  0
    9.3064   -3.1823   -0.9646 N   0  0  0  0  0  0  0  0  0  0  0  0
    8.2084   -3.8116   -0.7752 N   0  0  0  0  0  0  0  0  0  0  0  0
    7.2950   -2.8999   -0.3634 N   0  0  0  0  0  0  0  0  0  0  0  0
    5.9213   -3.2284   -0.0949 C   0  0  1  0  0  0  0  0  0  0  0  0
    5.6167   -4.5493    0.5488 C   0  0  0  0  0  0  0  0  0  0  0  0
    5.4463   -3.2820    1.3397 C   0  0  0  0  0  0  0  0  0  0  0  0
    7.5264    2.2361    0.3384 N   0  0  0  0  0  0  0  0  0  0  0  0
    8.1576    3.3988    0.3000 N   0  0  0  0  0  0  0  0  0  0  0  0
   11.2015    2.3801   -0.7620 H   0  0  0  0  0  0  0  0  0  0  0  0
    9.9823    0.1344   -0.6813 H   0  0  0  0  0  0  0  0  0  0  0  0
    5.2346   -2.8449   -0.8568 H   0  0  0  0  0  0  0  0  0  0  0  0
    6.4689   -5.1922    0.7788 H   0  0  0  0  0  0  0  0  0  0  0  0
    4.7286   -5.0775    0.1937 H   0  0  0  0  0  0  0  0  0  0  0  0
    6.1820   -3.0628    2.1181 H   0  0  0  0  0  0  0  0  0  0  0  0
    4.4400   -2.9085    1.5451 H   0  0  0  0  0  0  0  0  0  0  0  0
  1  2  1  0
  2  3  2  0
  2 16  1  0
  3  4  1  0
  3 17  1  0
  4  5  2  0
  4 18  1  0
  5  6  1  0
  5 15  1  0
  6  7  1  0
  7  8  2  0
  7 11  1  0
  8  9  1  0
  9 10  2  0
 10 11  1  0
 11 12  1  0
 12 13  1  0
 12 14  1  0
 12 19  1  6
 13 14  1  0
 13 20  1  0
 13 21  1  0
 14 22  1  0
 14 23  1  0
 15 16  2  0
M  END

