
     RDKit          3D

 26 29  0  0  0  0  0  0  0  0999 V2000
    1.0176   -0.2055   -0.0648 O   0  0  0  0  0  0  0  0  0  0  0  0
    2.2094   -0.0687   -0.0642 C   0  0  0  0  0  0  0  0  0  0  0  0
    2.9897   -1.2145   -0.0671 O   0  0  0  0  0  0  0  0  0  0  0  0
    4.3324   -1.2001   -0.0659 C   0  0  0  0  0  0  0  0  0  0  0  0
    4.9681   -2.4657   -0.0679 C   0  0  0  0  0  0  0  0  0  0  0  0
    6.3383   -2.5396   -0.0652 C   0  0  0  0  0  0  0  0  0  0  0  0
    7.1315   -1.3551   -0.0605 C   0  0  0  0  0  0  0  0  0  0  0  0
    8.5486   -1.4023   -0.0549 C   0  0  0  0  0  0  0  0  0  0  0  0
    9.2943   -0.2377   -0.0471 C   0  0  0  0  0  0  0  0  0  0  0  0
    8.6506    1.0128   -0.0465 C   0  0  0  0  0  0  0  0  0  0  0  0
    7.2572    1.1089   -0.0556 C   0  0  0  0  0  0  0  0  0  0  0  0
    6.5571    2.3842   -0.0592 C   0  0  0  0  0  0  0  0  0  0  0  0
    7.2597    3.5302   -0.0600 O   0  0  0  0  0  0  0  0  0  0  0  0
    5.1791    2.4647   -0.0598 C   0  0  0  0  0  0  0  0  0  0  0  0
    4.5357    4.0834   -0.0626 Cl  0  0  0  0  0  0  0  0  0  0  0  0
    4.3375    1.2780   -0.0604 C   0  0  0  0  0  0  0  0  0  0  0  0
    2.9480    1.2062   -0.0605 C   0  0  0  0  0  0  0  0  0  0  0  0
    1.8548    2.5476   -0.0555 Cl  0  0  0  0  0  0  0  0  0  0  0  0
    5.0509   -0.0028   -0.0626 C   0  0  0  0  0  0  0  0  0  0  0  0
    6.4745   -0.0839   -0.0601 C   0  0  0  0  0  0  0  0  0  0  0  0
    4.3354   -3.3547   -0.0710 H   0  0  0  0  0  0  0  0  0  0  0  0
    6.8380   -3.5114   -0.0661 H   0  0  0  0  0  0  0  0  0  0  0  0
    9.0434   -2.3768   -0.0555 H   0  0  0  0  0  0  0  0  0  0  0  0
   10.3855   -0.2813   -0.0404 H   0  0  0  0  0  0  0  0  0  0  0  0
    9.2832    1.9057   -0.0358 H   0  0  0  0  0  0  0  0  0  0  0  0
    8.2063    3.3438   -0.0884 H   0  0  0  0  0  0  0  0  0  0  0  0
  1  2  2  0
  2  3  1  0
  2 17  1  0
  3  4  1  0
  4  5  2  0
  4 19  1  0
  5  6  1  0
  5 21  1  0
  6  7  2  0
  6 22  1  0
  7  8  1  0
  7 20  1  0
  8  9  2  0
  8 23  1  0
  9 10  1  0
  9 24  1  0
 10 11  2  0
 10 25  1  0
 11 12  1  0
 11 20  1  0
 12 13  1  0
 12 14  2  0
 13 26  1  0
 14 15  1  0
 14 16  1  0
 16 17  2  0
 16 19  1  0
 17 18  1  0
 19 20  2  0
M  END

