
     RDKit          3D

 26 29  0  0  0  0  0  0  0  0999 V2000
   -0.5308    1.2130   -0.1076 C   0  0  0  0  0  0  0  0  0  0  0  0
   -1.4413    0.1952    0.0381 C   0  0  0  0  0  0  0  0  0  0  0  0
   -0.6733   -1.3486    0.1300 S   0  0  0  0  0  0  0  0  0  0  0  0
    0.9193   -0.6290   -0.0277 C   0  0  0  0  0  0  0  0  0  0  0  0
    2.1249   -1.4420   -0.0250 C   0  0  0  0  0  0  0  0  0  0  0  0
    2.1324   -2.8276    0.1043 C   0  0  0  0  0  0  0  0  0  0  0  0
    3.2221   -3.6353    0.1146 N   0  0  0  0  0  0  0  0  0  0  0  0
    4.4497   -3.1659   -0.0030 C   0  0  0  0  0  0  0  0  0  0  0  0
    5.5694   -4.0851    0.0168 C   0  0  0  0  0  0  0  0  0  0  0  0
    6.9286   -3.8293   -0.0881 C   0  0  0  0  0  0  0  0  0  0  0  0
    7.7154   -5.0087   -0.0240 C   0  0  0  0  0  0  0  0  0  0  0  0
    6.9496   -6.1434    0.1282 C   0  0  0  0  0  0  0  0  0  0  0  0
    5.2624   -5.7977    0.1971 S   0  0  0  0  0  0  0  0  0  0  0  0
    4.6034   -1.7341   -0.1471 C   0  0  0  0  0  0  0  0  0  0  0  0
    5.6749   -0.9780   -0.2847 N   0  0  0  0  0  0  0  0  0  0  0  0
    5.2103    0.2851   -0.3754 O   0  0  0  0  0  0  0  0  0  0  0  0
    3.8577    0.3639   -0.2997 N   0  0  0  0  0  0  0  0  0  0  0  0
    3.4449   -0.8828   -0.1571 C   0  0  0  0  0  0  0  0  0  0  0  0
    0.8124    0.7477   -0.1459 C   0  0  0  0  0  0  0  0  0  0  0  0
   -0.8120    2.2641   -0.1855 H   0  0  0  0  0  0  0  0  0  0  0  0
   -2.5267    0.2634    0.0964 H   0  0  0  0  0  0  0  0  0  0  0  0
    1.1784   -3.3550    0.2118 H   0  0  0  0  0  0  0  0  0  0  0  0
    7.3297   -2.8231   -0.2070 H   0  0  0  0  0  0  0  0  0  0  0  0
    8.8044   -5.0193   -0.0880 H   0  0  0  0  0  0  0  0  0  0  0  0
    7.2961   -7.1737    0.2043 H   0  0  0  0  0  0  0  0  0  0  0  0
    1.6833    1.3928   -0.2565 H   0  0  0  0  0  0  0  0  0  0  0  0
  1  2  2  0
  1 19  1  0
  1 20  1  0
  2  3  1  0
  2 21  1  0
  3  4  1  0
  4  5  1  0
  4 19  2  0
  5  6  2  0
  5 18  1  0
  6  7  1  0
  6 22  1  0
  7  8  2  0
  8  9  1  0
  8 14  1  0
  9 10  2  0
  9 13  1  0
 10 11  1  0
 10 23  1  0
 11 12  2  0
 11 24  1  0
 12 13  1  0
 12 25  1  0
 14 15  2  0
 14 18  1  0
 15 16  1  0
 16 17  1  0
 17 18  2  0
 19 26  1  0
M  END

