
     RDKit          3D

 54 58  0  0  0  0  0  0  0  0999 V2000
    0.8032    0.4779   -0.1108 O   0  0  0  0  0  0  0  0  0  0  0  0
    1.9048    0.2579   -0.5713 C   0  0  0  0  0  0  0  0  0  0  0  0
    2.7075    1.3282   -1.3373 C   0  0  0  0  0  0  0  0  0  0  0  0
    2.3727    2.4768   -1.5406 O   0  0  0  0  0  0  0  0  0  0  0  0
    3.8877    0.7458   -1.7155 N   0  0  0  0  0  0  0  0  0  0  0  0
    4.9363    1.5160   -2.3605 C   0  0  0  0  0  0  0  0  0  0  0  0
    5.8745    2.2324   -1.3635 C   0  0  0  0  0  0  0  0  0  0  0  0
    6.7582    3.2455   -2.0291 C   0  0  0  0  0  0  0  0  0  0  0  0
    8.1152    3.1697   -2.2495 C   0  0  0  0  0  0  0  0  0  0  0  0
    8.5535    4.3040   -2.9054 N   0  0  0  0  0  0  0  0  0  0  0  0
    9.5111    4.4944   -3.1655 H   0  0  0  0  0  0  0  0  0  0  0  0
    7.4838    5.1457   -3.1246 C   0  0  0  0  0  0  0  0  0  0  0  0
    7.4218    6.4050   -3.7384 C   0  0  0  0  0  0  0  0  0  0  0  0
    6.1775    7.0262   -3.8083 C   0  0  0  0  0  0  0  0  0  0  0  0
    5.0200    6.4118   -3.2807 C   0  0  0  0  0  0  0  0  0  0  0  0
    5.0814    5.1620   -2.6716 C   0  0  0  0  0  0  0  0  0  0  0  0
    6.3284    4.5092   -2.5867 C   0  0  0  0  0  0  0  0  0  0  0  0
    4.0475   -0.6436   -1.2961 C   0  0  2  0  0  0  0  0  0  0  0  0
    4.9005   -0.7225   -0.5921 H   0  0  0  0  0  0  0  0  0  0  0  0
    4.3567   -1.5641   -2.4810 C   0  0  0  0  0  0  0  0  0  0  0  0
    5.5680   -2.2708   -2.5385 C   0  0  0  0  0  0  0  0  0  0  0  0
    5.8553   -3.1130   -3.6209 C   0  0  0  0  0  0  0  0  0  0  0  0
    4.9358   -3.2467   -4.6619 C   0  0  0  0  0  0  0  0  0  0  0  0
    3.7274   -2.5383   -4.6180 C   0  0  0  0  0  0  0  0  0  0  0  0
    3.4396   -1.7056   -3.5372 C   0  0  0  0  0  0  0  0  0  0  0  0
    2.7429   -0.9465   -0.5529 C   0  0  0  0  0  0  0  0  0  0  0  0
    2.4558   -2.1944   -0.0487 C   0  0  0  0  0  0  0  0  0  0  0  0
    3.2607   -3.2436   -0.3062 O   0  0  0  0  0  0  0  0  0  0  0  0
    1.3078   -2.5949    0.7910 C   0  0  0  0  0  0  0  0  0  0  0  0
    0.8250   -3.9163    0.6850 C   0  0  0  0  0  0  0  0  0  0  0  0
   -0.2351   -4.3593    1.4714 C   0  0  0  0  0  0  0  0  0  0  0  0
   -0.8038   -3.4764    2.3884 C   0  0  0  0  0  0  0  0  0  0  0  0
   -1.8185   -3.8960    3.1522 F   0  0  0  0  0  0  0  0  0  0  0  0
   -0.3371   -2.1714    2.5343 C   0  0  0  0  0  0  0  0  0  0  0  0
    0.7146   -1.7330    1.7329 C   0  0  0  0  0  0  0  0  0  0  0  0
    4.4370    2.2666   -2.9893 H   0  0  0  0  0  0  0  0  0  0  0  0
    5.5135    0.8559   -3.0262 H   0  0  0  0  0  0  0  0  0  0  0  0
    6.4864    1.4901   -0.8237 H   0  0  0  0  0  0  0  0  0  0  0  0
    5.2434    2.7334   -0.6102 H   0  0  0  0  0  0  0  0  0  0  0  0
    8.8164    2.3824   -1.9756 H   0  0  0  0  0  0  0  0  0  0  0  0
    8.3157    6.8838   -4.1465 H   0  0  0  0  0  0  0  0  0  0  0  0
    6.0954    8.0085   -4.2806 H   0  0  0  0  0  0  0  0  0  0  0  0
    4.0602    6.9291   -3.3541 H   0  0  0  0  0  0  0  0  0  0  0  0
    4.1784    4.6926   -2.2710 H   0  0  0  0  0  0  0  0  0  0  0  0
    6.2972   -2.1586   -1.7299 H   0  0  0  0  0  0  0  0  0  0  0  0
    6.8027   -3.6570   -3.6498 H   0  0  0  0  0  0  0  0  0  0  0  0
    5.1572   -3.9002   -5.5093 H   0  0  0  0  0  0  0  0  0  0  0  0
    3.0059   -2.6386   -5.4327 H   0  0  0  0  0  0  0  0  0  0  0  0
    2.4953   -1.1558   -3.5078 H   0  0  0  0  0  0  0  0  0  0  0  0
    3.8798   -3.0410   -1.0299 H   0  0  0  0  0  0  0  0  0  0  0  0
    1.2888   -4.5979   -0.0284 H   0  0  0  0  0  0  0  0  0  0  0  0
   -0.6260   -5.3750    1.3887 H   0  0  0  0  0  0  0  0  0  0  0  0
   -0.8022   -1.5139    3.2708 H   0  0  0  0  0  0  0  0  0  0  0  0
    1.0745   -0.7135    1.8449 H   0  0  0  0  0  0  0  0  0  0  0  0
  1  2  2  0
  2  3  1  0
  2 26  1  0
  3  4  2  0
  3  5  1  0
  5  6  1  0
  5 18  1  0
  6  7  1  0
  6 36  1  0
  6 37  1  0
  7  8  1  0
  7 38  1  0
  7 39  1  0
  8  9  2  0
  8 17  1  0
  9 10  1  0
  9 40  1  0
 10 11  1  0
 10 12  1  0
 12 13  1  0
 12 17  2  0
 13 14  2  0
 13 41  1  0
 14 15  1  0
 14 42  1  0
 15 16  2  0
 15 43  1  0
 16 17  1  0
 16 44  1  0
 18 19  1  1
 18 20  1  0
 18 26  1  0
 20 21  2  0
 20 25  1  0
 21 22  1  0
 21 45  1  0
 22 23  2  0
 22 46  1  0
 23 24  1  0
 23 47  1  0
 24 25  2  0
 24 48  1  0
 25 49  1  0
 26 27  2  0
 27 28  1  0
 27 29  1  0
 28 50  1  0
 29 30  2  0
 29 35  1  0
 30 31  1  0
 30 51  1  0
 31 32  2  0
 31 52  1  0
 32 33  1  0
 32 34  1  0
 34 35  2  0
 34 53  1  0
 35 54  1  0
M  END

