
     RDKit          3D

 43 45  0  0  0  0  0  0  0  0999 V2000
    2.2760    2.2775   -0.3587 C   0  0  0  0  0  0  0  0  0  0  0  0
    2.2369    1.8316    1.1068 C   0  0  1  0  0  0  0  0  0  0  0  0
    0.8176    1.4469    1.5408 C   0  0  0  0  0  0  0  0  0  0  0  0
    3.1903    0.6550    1.3882 C   0  0  0  0  0  0  0  0  0  0  0  0
    4.5908    0.9260    1.0961 N   0  0  0  0  0  0  0  0  0  0  0  0
    5.2778    0.4498   -0.0116 C   0  0  0  0  0  0  0  0  0  0  0  0
    4.8093   -0.2508   -0.8803 O   0  0  0  0  0  0  0  0  0  0  0  0
    6.6992    0.9744    0.1054 C   0  0  0  0  0  0  0  0  0  0  0  0
    7.9568    0.6506   -1.0532 S   0  0  0  0  0  0  0  0  0  0  0  0
    7.0449    0.4673   -2.6776 C   0  0  0  0  0  0  0  0  0  0  0  0
    8.0346    0.3834   -3.7762 C   0  0  0  0  0  0  0  0  0  0  0  0
    8.5627   -0.6692   -4.4782 C   0  0  0  0  0  0  0  0  0  0  0  0
    9.4934   -0.1081   -5.4120 C   0  0  0  0  0  0  0  0  0  0  0  0
    9.4648    1.2416   -5.2026 C   0  0  0  0  0  0  0  0  0  0  0  0
    8.5887    1.5492   -4.2162 O   0  0  0  0  0  0  0  0  0  0  0  0
    6.8029    1.6537    1.2851 C   0  0  0  0  0  0  0  0  0  0  0  0
    7.9273    2.3742    1.9007 C   0  0  0  0  0  0  0  0  0  0  0  0
    7.7327    3.7065    2.3235 C   0  0  0  0  0  0  0  0  0  0  0  0
    8.7539    4.4614    2.8910 C   0  0  0  0  0  0  0  0  0  0  0  0
   10.0131    3.8787    3.0655 C   0  0  0  0  0  0  0  0  0  0  0  0
   11.3108    4.8083    3.7700 Cl  0  0  0  0  0  0  0  0  0  0  0  0
   10.2426    2.5541    2.6949 C   0  0  0  0  0  0  0  0  0  0  0  0
    9.2017    1.8127    2.1281 C   0  0  0  0  0  0  0  0  0  0  0  0
    9.5182    0.1308    1.7755 Cl  0  0  0  0  0  0  0  0  0  0  0  0
    5.4434    1.6594    1.9286 C   0  0  0  0  0  0  0  0  0  0  0  0
    5.1067    2.1927    2.9613 O   0  0  0  0  0  0  0  0  0  0  0  0
    1.5926    3.1250   -0.5272 H   0  0  0  0  0  0  0  0  0  0  0  0
    1.9737    1.4592   -1.0336 H   0  0  0  0  0  0  0  0  0  0  0  0
    3.2836    2.6036   -0.6611 H   0  0  0  0  0  0  0  0  0  0  0  0
    2.5709    2.6733    1.7389 H   0  0  0  0  0  0  0  0  0  0  0  0
    0.4373    0.5964    0.9489 H   0  0  0  0  0  0  0  0  0  0  0  0
    0.1204    2.2876    1.3988 H   0  0  0  0  0  0  0  0  0  0  0  0
    0.7814    1.1589    2.6040 H   0  0  0  0  0  0  0  0  0  0  0  0
    2.9085   -0.2191    0.7808 H   0  0  0  0  0  0  0  0  0  0  0  0
    3.1212    0.3744    2.4507 H   0  0  0  0  0  0  0  0  0  0  0  0
    6.3941    1.3439   -2.8022 H   0  0  0  0  0  0  0  0  0  0  0  0
    6.4253   -0.4333   -2.6333 H   0  0  0  0  0  0  0  0  0  0  0  0
    8.3116   -1.7192   -4.3430 H   0  0  0  0  0  0  0  0  0  0  0  0
   10.1000   -0.6390   -6.1426 H   0  0  0  0  0  0  0  0  0  0  0  0
    9.9850    2.0791   -5.6604 H   0  0  0  0  0  0  0  0  0  0  0  0
    6.7486    4.1576    2.1920 H   0  0  0  0  0  0  0  0  0  0  0  0
    8.5818    5.4940    3.1971 H   0  0  0  0  0  0  0  0  0  0  0  0
   11.2159    2.0919    2.8565 H   0  0  0  0  0  0  0  0  0  0  0  0
  1  2  1  0
  1 27  1  0
  1 28  1  0
  1 29  1  0
  2  3  1  0
  2  4  1  0
  2 30  1  1
  3 31  1  0
  3 32  1  0
  3 33  1  0
  4  5  1  0
  4 34  1  0
  4 35  1  0
  5  6  1  0
  5 25  1  0
  6  7  2  0
  6  8  1  0
  8  9  2  0
  8 16  1  0
  9 10  1  0
 10 11  1  0
 10 36  1  0
 10 37  1  0
 11 12  2  0
 11 15  1  0
 12 13  1  0
 12 38  1  0
 13 14  2  0
 13 39  1  0
 14 15  1  0
 14 40  1  0
 16 17  1  0
 16 25  2  0
 17 18  2  0
 17 23  1  0
 18 19  1  0
 18 41  1  0
 19 20  2  0
 19 42  1  0
 20 21  1  0
 20 22  1  0
 22 23  2  0
 22 43  1  0
 23 24  1  0
 25 26  1  0
M  CHG  2   9   1  26  -1
M  END

