
     RDKit          3D

 37 39  0  0  0  0  0  0  0  0999 V2000
    0.5515    0.6791    0.2080 N   0  0  0  0  0  0  0  0  0  0  0  0
    1.6846    0.6108    0.2668 N   0  0  0  0  0  0  0  0  0  0  0  0
    2.8881    0.4048    0.3988 N   0  0  0  0  0  0  0  0  0  0  0  0
    3.8242    1.3828   -0.1483 C   0  0  1  0  0  0  0  0  0  0  0  0
    3.6627    1.5259   -1.2292 H   0  0  0  0  0  0  0  0  0  0  0  0
    3.7677    2.7903    0.5070 C   0  0  1  0  0  0  0  0  0  0  0  0
    3.0605    3.4457   -0.0222 H   0  0  0  0  0  0  0  0  0  0  0  0
    3.3938    2.7792    1.8504 O   0  0  0  0  0  0  0  0  0  0  0  0
    5.2253    3.2936    0.3043 C   0  0  2  0  0  0  0  0  0  0  0  0
    5.5225    3.8245    1.2228 H   0  0  0  0  0  0  0  0  0  0  0  0
    5.4258    4.2512   -0.7713 N   0  0  0  0  0  0  0  0  0  0  0  0
    6.1343    5.4384   -0.6480 C   0  0  0  0  0  0  0  0  0  0  0  0
    6.2339    6.1189   -1.7573 N   0  0  0  0  0  0  0  0  0  0  0  0
    5.5662    5.3485   -2.6853 C   0  0  0  0  0  0  0  0  0  0  0  0
    5.3094    5.5245   -4.0677 C   0  0  0  0  0  0  0  0  0  0  0  0
    5.7427    6.6074   -4.7454 N   0  0  0  0  0  0  0  0  0  0  0  0
    4.6122    4.5766   -4.7150 N   0  0  0  0  0  0  0  0  0  0  0  0
    4.1865    3.5070   -4.0357 C   0  0  0  0  0  0  0  0  0  0  0  0
    4.3612    3.2279   -2.7410 N   0  0  0  0  0  0  0  0  0  0  0  0
    5.0564    4.1780   -2.1048 C   0  0  0  0  0  0  0  0  0  0  0  0
    6.0433    2.1530    0.1231 O   0  0  0  0  0  0  0  0  0  0  0  0
    5.2859    0.9182    0.0546 C   0  0  1  0  0  0  0  0  0  0  0  0
    5.5359    0.1450    1.3585 C   0  0  0  0  0  0  0  0  0  0  0  0
    5.3620    0.9556    2.5161 O   0  0  0  0  0  0  0  0  0  0  0  0
    5.8235    0.1329   -1.1495 C   0  0  0  0  0  0  0  0  0  0  0  0
    7.2103   -0.0912   -1.0596 O   0  0  0  0  0  0  0  0  0  0  0  0
    3.9290    2.0934    2.3024 H   0  0  0  0  0  0  0  0  0  0  0  0
    6.5474    5.7364    0.3173 H   0  0  0  0  0  0  0  0  0  0  0  0
    6.2635    7.3292   -4.2669 H   0  0  0  0  0  0  0  0  0  0  0  0
    5.5305    6.6899   -5.7307 H   0  0  0  0  0  0  0  0  0  0  0  0
    3.6229    2.7670   -4.6162 H   0  0  0  0  0  0  0  0  0  0  0  0
    6.5566   -0.2674    1.3211 H   0  0  0  0  0  0  0  0  0  0  0  0
    4.8209   -0.6847    1.4345 H   0  0  0  0  0  0  0  0  0  0  0  0
    6.1318    1.5382    2.5761 H   0  0  0  0  0  0  0  0  0  0  0  0
    5.5531    0.6857   -2.0684 H   0  0  0  0  0  0  0  0  0  0  0  0
    5.3297   -0.8518   -1.1905 H   0  0  0  0  0  0  0  0  0  0  0  0
    7.6260    0.7814   -1.0000 H   0  0  0  0  0  0  0  0  0  0  0  0
  1  2  1  0
  2  3  3  0
  3  4  1  0
  4  5  1  6
  4  6  1  0
  4 22  1  0
  6  7  1  6
  6  8  1  0
  6  9  1  0
  8 27  1  0
  9 10  1  1
  9 11  1  0
  9 21  1  0
 11 12  1  0
 11 20  2  0
 12 13  1  0
 12 28  1  0
 13 14  2  0
 14 15  1  0
 14 20  1  0
 15 16  1  0
 15 17  2  0
 16 29  1  0
 16 30  1  0
 17 18  1  0
 18 19  2  0
 18 31  1  0
 19 20  1  0
 21 22  1  0
 22 23  1  1
 22 25  1  0
 23 24  1  0
 23 32  1  0
 23 33  1  0
 24 34  1  0
 25 26  1  0
 25 35  1  0
 25 36  1  0
 26 37  1  0
M  CHG  5   1  -2   2   1   3   1  11   1  12  -1
M  END

