
     RDKit          3D

 31 32  0  0  0  0  0  0  0  0999 V2000
    0.9936    0.0539    0.2961 C   0  0  0  0  0  0  0  0  0  0  0  0
    2.5057    0.1330    0.0735 C   0  0  1  0  0  0  0  0  0  0  0  0
    2.9352   -0.8679    0.2362 H   0  0  0  0  0  0  0  0  0  0  0  0
    2.9335    0.5801   -1.3251 C   0  0  0  0  0  0  0  0  0  0  0  0
    2.0753    1.1872   -2.2487 C   0  0  0  0  0  0  0  0  0  0  0  0
    2.5807    1.5790   -3.4957 C   0  0  0  0  0  0  0  0  0  0  0  0
    3.8478    1.4041   -3.8691 N   0  0  0  0  0  0  0  0  0  0  0  0
    4.6686    0.8174   -2.9908 C   0  0  0  0  0  0  0  0  0  0  0  0
    4.2675    0.3940   -1.7230 C   0  0  0  0  0  0  0  0  0  0  0  0
    3.1607    0.9593    1.0884 N   0  0  0  0  0  0  0  0  0  0  0  0
    2.8187    2.3534    1.3373 C   0  0  0  0  0  0  0  0  0  0  0  0
    3.9806    2.8569    2.2155 C   0  0  1  0  0  0  0  0  0  0  0  0
    4.7693    3.2713    1.5621 H   0  0  0  0  0  0  0  0  0  0  0  0
    3.5678    3.9603    3.1830 C   0  0  0  0  0  0  0  0  0  0  0  0
    2.4648    4.4279    3.2514 O   0  0  0  0  0  0  0  0  0  0  0  0
    4.5524    4.4035    3.9966 O   0  0  0  0  0  0  0  0  0  0  0  0
    4.5259    1.5771    2.8859 C   0  0  0  0  0  0  0  0  0  0  0  0
    4.1309    0.4586    1.9178 C   0  0  0  0  0  0  0  0  0  0  0  0
    4.5796   -0.6703    1.8970 O   0  0  0  0  0  0  0  0  0  0  0  0
    0.5310   -0.6231   -0.4376 H   0  0  0  0  0  0  0  0  0  0  0  0
    0.5014    1.0348    0.2071 H   0  0  0  0  0  0  0  0  0  0  0  0
    0.7839   -0.3385    1.3023 H   0  0  0  0  0  0  0  0  0  0  0  0
    1.0217    1.3594   -2.0216 H   0  0  0  0  0  0  0  0  0  0  0  0
    1.9163    2.0590   -4.2246 H   0  0  0  0  0  0  0  0  0  0  0  0
    5.7062    0.6707   -3.3141 H   0  0  0  0  0  0  0  0  0  0  0  0
    4.9824   -0.0864   -1.0495 H   0  0  0  0  0  0  0  0  0  0  0  0
    1.8599    2.4617    1.8720 H   0  0  0  0  0  0  0  0  0  0  0  0
    2.7389    2.9175    0.3946 H   0  0  0  0  0  0  0  0  0  0  0  0
    5.3811    3.9336    3.8245 H   0  0  0  0  0  0  0  0  0  0  0  0
    4.0388    1.3739    3.8554 H   0  0  0  0  0  0  0  0  0  0  0  0
    5.6129    1.5614    3.0507 H   0  0  0  0  0  0  0  0  0  0  0  0
  1  2  1  0
  1 20  1  0
  1 21  1  0
  1 22  1  0
  2  3  1  1
  2  4  1  0
  2 10  1  0
  4  5  2  0
  4  9  1  0
  5  6  1  0
  5 23  1  0
  6  7  2  0
  6 24  1  0
  7  8  1  0
  8  9  2  0
  8 25  1  0
  9 26  1  0
 10 11  1  0
 10 18  1  0
 11 12  1  0
 11 27  1  0
 11 28  1  0
 12 13  1  6
 12 14  1  0
 12 17  1  0
 14 15  2  0
 14 16  1  0
 16 29  1  0
 17 18  1  0
 17 30  1  0
 17 31  1  0
 18 19  2  0
M  END

