
     RDKit          3D

 52 54  0  0  0  0  0  0  0  0999 V2000
    2.1623   -0.8679   -0.4514 O   0  0  0  0  0  0  0  0  0  0  0  0
    2.0469    0.3001   -0.1138 C   0  0  0  0  0  0  0  0  0  0  0  0
    1.1611    1.1688   -0.7153 N   0  0  0  0  0  0  0  0  0  0  0  0
    0.2439    0.9199   -1.7554 C   0  0  0  0  0  0  0  0  0  0  0  0
    0.1100   -0.3301   -2.3810 C   0  0  0  0  0  0  0  0  0  0  0  0
   -0.8255   -0.4738   -3.4031 C   0  0  0  0  0  0  0  0  0  0  0  0
   -1.0107   -2.0291   -4.2012 Cl  0  0  0  0  0  0  0  0  0  0  0  0
   -1.6520    0.5729   -3.8497 C   0  0  0  0  0  0  0  0  0  0  0  0
   -2.5545    0.4340   -4.8367 O   0  0  0  0  0  0  0  0  0  0  0  0
   -1.4955    1.8138   -3.2047 C   0  0  0  0  0  0  0  0  0  0  0  0
   -2.4875    3.1546   -3.7079 Cl  0  0  0  0  0  0  0  0  0  0  0  0
   -0.5687    1.9855   -2.1796 C   0  0  0  0  0  0  0  0  0  0  0  0
    2.9001    0.9304    0.9929 C   0  0  1  0  0  0  0  0  0  0  0  0
    2.4657    0.5411    2.4463 C   0  0  1  0  0  0  0  0  0  0  0  0
    1.0004    0.9185    2.7789 C   0  0  0  0  0  0  0  0  0  0  0  0
   -0.0488   -0.1385    2.4007 C   0  0  0  0  0  0  0  0  0  0  0  0
    0.3020   -1.5080    2.9945 C   0  0  0  0  0  0  0  0  0  0  0  0
    1.7034   -1.9529    2.5607 C   0  0  0  0  0  0  0  0  0  0  0  0
    2.7664   -0.9035    2.9201 C   0  0  0  0  0  0  0  0  0  0  0  0
    4.3969    0.6439    0.6675 C   0  0  1  0  0  0  0  0  0  0  0  0
    4.8144    1.2074   -0.7129 C   0  0  0  0  0  0  0  0  0  0  0  0
    4.9522    2.7373   -0.7341 C   0  0  0  0  0  0  0  0  0  0  0  0
    5.9100    3.2341    0.3569 C   0  0  0  0  0  0  0  0  0  0  0  0
    5.5223    2.6933    1.7398 C   0  0  0  0  0  0  0  0  0  0  0  0
    5.3929    1.1629    1.7275 C   0  0  0  0  0  0  0  0  0  0  0  0
    1.1585    2.1164   -0.3589 H   0  0  0  0  0  0  0  0  0  0  0  0
    0.7298   -1.1658   -2.0690 H   0  0  0  0  0  0  0  0  0  0  0  0
   -2.5159   -0.4835   -5.1540 H   0  0  0  0  0  0  0  0  0  0  0  0
   -0.4880    2.9691   -1.7124 H   0  0  0  0  0  0  0  0  0  0  0  0
    2.7418    2.0216    0.9449 H   0  0  0  0  0  0  0  0  0  0  0  0
    3.0866    1.2006    3.0731 H   0  0  0  0  0  0  0  0  0  0  0  0
    0.7479    1.8942    2.3262 H   0  0  0  0  0  0  0  0  0  0  0  0
    0.9396    1.0756    3.8711 H   0  0  0  0  0  0  0  0  0  0  0  0
   -0.1340   -0.2304    1.3052 H   0  0  0  0  0  0  0  0  0  0  0  0
   -1.0400    0.1923    2.7550 H   0  0  0  0  0  0  0  0  0  0  0  0
   -0.4495   -2.2577    2.6953 H   0  0  0  0  0  0  0  0  0  0  0  0
    0.2580   -1.4468    4.0987 H   0  0  0  0  0  0  0  0  0  0  0  0
    1.7148   -2.1333    1.4755 H   0  0  0  0  0  0  0  0  0  0  0  0
    1.9647   -2.9092    3.0451 H   0  0  0  0  0  0  0  0  0  0  0  0
    3.7541   -1.2311    2.5606 H   0  0  0  0  0  0  0  0  0  0  0  0
    2.8483   -0.8635    4.0222 H   0  0  0  0  0  0  0  0  0  0  0  0
    4.4876   -0.4522    0.6105 H   0  0  0  0  0  0  0  0  0  0  0  0
    4.1200    0.8701   -1.4989 H   0  0  0  0  0  0  0  0  0  0  0  0
    5.7926    0.7651   -0.9730 H   0  0  0  0  0  0  0  0  0  0  0  0
    3.9624    3.2101   -0.5955 H   0  0  0  0  0  0  0  0  0  0  0  0
    5.3018    3.0656   -1.7273 H   0  0  0  0  0  0  0  0  0  0  0  0
    5.9443    4.3367    0.3682 H   0  0  0  0  0  0  0  0  0  0  0  0
    6.9345    2.8951    0.1152 H   0  0  0  0  0  0  0  0  0  0  0  0
    4.5686    3.1518    2.0605 H   0  0  0  0  0  0  0  0  0  0  0  0
    6.2701    2.9990    2.4908 H   0  0  0  0  0  0  0  0  0  0  0  0
    5.1427    0.7893    2.7318 H   0  0  0  0  0  0  0  0  0  0  0  0
    6.3819    0.7314    1.4891 H   0  0  0  0  0  0  0  0  0  0  0  0
  1  2  2  0
  2  3  1  0
  2 13  1  0
  3  4  1  0
  3 26  1  0
  4  5  2  0
  4 12  1  0
  5  6  1  0
  5 27  1  0
  6  7  1  0
  6  8  2  0
  8  9  1  0
  8 10  1  0
  9 28  1  0
 10 11  1  0
 10 12  2  0
 12 29  1  0
 13 14  1  0
 13 20  1  0
 13 30  1  1
 14 15  1  0
 14 19  1  0
 14 31  1  1
 15 16  1  0
 15 32  1  0
 15 33  1  0
 16 17  1  0
 16 34  1  0
 16 35  1  0
 17 18  1  0
 17 36  1  0
 17 37  1  0
 18 19  1  0
 18 38  1  0
 18 39  1  0
 19 40  1  0
 19 41  1  0
 20 21  1  0
 20 25  1  0
 20 42  1  6
 21 22  1  0
 21 43  1  0
 21 44  1  0
 22 23  1  0
 22 45  1  0
 22 46  1  0
 23 24  1  0
 23 47  1  0
 23 48  1  0
 24 25  1  0
 24 49  1  0
 24 50  1  0
 25 51  1  0
 25 52  1  0
M  END

