
     RDKit          3D

 48 49  0  0  0  0  0  0  0  0999 V2000
    1.0193    0.1145   -0.5651 C   0  0  0  0  0  0  0  0  0  0  0  0
    2.4759   -0.1449   -0.1814 C   0  0  0  0  0  0  0  0  0  0  0  0
    2.9264    0.6334    1.0552 C   0  0  0  0  0  0  0  0  0  0  0  0
    4.3084    0.3363    1.3926 N   0  0  0  0  0  0  0  0  0  0  0  0
    4.8514    1.0227    2.5632 C   0  0  1  0  0  0  0  0  0  0  0  0
    4.3628    0.3298    3.8513 C   0  0  0  0  0  0  0  0  0  0  0  0
    4.6794    1.0284    5.1829 C   0  0  0  0  0  0  0  0  0  0  0  0
    4.0521    2.4121    5.3935 C   0  0  1  0  0  0  0  0  0  0  0  0
    2.5108    2.4559    5.3646 C   0  0  0  0  0  0  0  0  0  0  0  0
    2.1217    3.7796    6.0699 C   0  0  0  0  0  0  0  0  0  0  0  0
    3.3799    4.2210    6.8729 C   0  0  0  0  0  0  0  0  0  0  0  0
    4.3688    3.0467    6.7595 C   0  0  0  0  0  0  0  0  0  0  0  0
    6.3975    1.1205    2.4544 C   0  0  0  0  0  0  0  0  0  0  0  0
    7.1472   -0.1812    2.2588 C   0  0  0  0  0  0  0  0  0  0  0  0
    7.4973   -0.9749    3.3670 C   0  0  0  0  0  0  0  0  0  0  0  0
    8.1874   -2.1805    3.2343 C   0  0  0  0  0  0  0  0  0  0  0  0
    8.5626   -2.6299    1.9662 C   0  0  0  0  0  0  0  0  0  0  0  0
    8.2509   -1.8617    0.8442 C   0  0  0  0  0  0  0  0  0  0  0  0
    7.5565   -0.6585    0.9994 C   0  0  0  0  0  0  0  0  0  0  0  0
    7.2341    0.2692   -0.4675 Cl  0  0  0  0  0  0  0  0  0  0  0  0
    0.7312   -0.4591   -1.4602 H   0  0  0  0  0  0  0  0  0  0  0  0
    0.8418    1.1810   -0.7836 H   0  0  0  0  0  0  0  0  0  0  0  0
    0.3321   -0.1737    0.2482 H   0  0  0  0  0  0  0  0  0  0  0  0
    3.1344    0.1176   -1.0304 H   0  0  0  0  0  0  0  0  0  0  0  0
    2.6401   -1.2192    0.0079 H   0  0  0  0  0  0  0  0  0  0  0  0
    2.2765    0.3567    1.9039 H   0  0  0  0  0  0  0  0  0  0  0  0
    2.7503    1.7238    0.8880 H   0  0  0  0  0  0  0  0  0  0  0  0
    4.8935    0.5193    0.5796 H   0  0  0  0  0  0  0  0  0  0  0  0
    4.5000    2.0796    2.5925 H   0  0  0  0  0  0  0  0  0  0  0  0
    4.7696   -0.6946    3.8619 H   0  0  0  0  0  0  0  0  0  0  0  0
    3.2707    0.2048    3.7736 H   0  0  0  0  0  0  0  0  0  0  0  0
    5.7727    1.1150    5.3180 H   0  0  0  0  0  0  0  0  0  0  0  0
    4.3369    0.3695    6.0021 H   0  0  0  0  0  0  0  0  0  0  0  0
    4.4283    3.1022    4.6141 H   0  0  0  0  0  0  0  0  0  0  0  0
    2.1214    1.5916    5.9322 H   0  0  0  0  0  0  0  0  0  0  0  0
    2.0946    2.3810    4.3480 H   0  0  0  0  0  0  0  0  0  0  0  0
    1.2452    3.6409    6.7218 H   0  0  0  0  0  0  0  0  0  0  0  0
    1.8401    4.5505    5.3352 H   0  0  0  0  0  0  0  0  0  0  0  0
    3.1488    4.4765    7.9188 H   0  0  0  0  0  0  0  0  0  0  0  0
    3.8207    5.1242    6.4200 H   0  0  0  0  0  0  0  0  0  0  0  0
    4.1755    2.3026    7.5541 H   0  0  0  0  0  0  0  0  0  0  0  0
    5.4219    3.3567    6.8588 H   0  0  0  0  0  0  0  0  0  0  0  0
    6.7733    1.6084    3.3665 H   0  0  0  0  0  0  0  0  0  0  0  0
    6.6363    1.7995    1.6223 H   0  0  0  0  0  0  0  0  0  0  0  0
    7.2251   -0.6236    4.3650 H   0  0  0  0  0  0  0  0  0  0  0  0
    8.4369   -2.7651    4.1231 H   0  0  0  0  0  0  0  0  0  0  0  0
    9.1046   -3.5711    1.8458 H   0  0  0  0  0  0  0  0  0  0  0  0
    8.5441   -2.1838   -0.1562 H   0  0  0  0  0  0  0  0  0  0  0  0
  1  2  1  0
  1 21  1  0
  1 22  1  0
  1 23  1  0
  2  3  1  0
  2 24  1  0
  2 25  1  0
  3  4  1  0
  3 26  1  0
  3 27  1  0
  4  5  1  0
  4 28  1  0
  5  6  1  0
  5 13  1  0
  5 29  1  1
  6  7  1  0
  6 30  1  0
  6 31  1  0
  7  8  1  0
  7 32  1  0
  7 33  1  0
  8  9  1  0
  8 12  1  0
  8 34  1  6
  9 10  1  0
  9 35  1  0
  9 36  1  0
 10 11  1  0
 10 37  1  0
 10 38  1  0
 11 12  1  0
 11 39  1  0
 11 40  1  0
 12 41  1  0
 12 42  1  0
 13 14  1  0
 13 43  1  0
 13 44  1  0
 14 15  2  0
 14 19  1  0
 15 16  1  0
 15 45  1  0
 16 17  2  0
 16 46  1  0
 17 18  1  0
 17 47  1  0
 18 19  2  0
 18 48  1  0
 19 20  1  0
M  END

