
     RDKit          3D

 23 22  0  0  0  0  0  0  0  0999 V2000
    1.6842   -0.3790    1.1268 C   0  0  0  0  0  0  0  0  0  0  0  0
    2.5010   -0.1018    0.1083 C   0  0  0  0  0  0  0  0  0  0  0  0
    3.1716   -1.1321   -0.7477 C   0  0  0  0  0  0  0  0  0  0  0  0
    4.5669   -0.8607   -0.7873 O   0  0  0  0  0  0  0  0  0  0  0  0
    5.3282   -1.7157   -1.6021 C   0  0  1  0  0  0  0  0  0  0  0  0
    5.0067   -1.5166   -3.0408 C   0  0  0  0  0  0  0  0  0  0  0  0
    4.7427   -1.3571   -4.1578 N   0  0  0  0  0  0  0  0  0  0  0  0
    6.8301   -1.4845   -1.3147 C   0  0  1  0  0  0  0  0  0  0  0  0
    7.2497   -0.0384   -1.6020 C   0  0  0  0  0  0  0  0  0  0  0  0
    7.1570   -1.9042    0.1231 C   0  0  0  0  0  0  0  0  0  0  0  0
    1.1923    0.4137    1.6969 H   0  0  0  0  0  0  0  0  0  0  0  0
    1.4689   -1.4101    1.4270 H   0  0  0  0  0  0  0  0  0  0  0  0
    2.7063    0.9388   -0.1691 H   0  0  0  0  0  0  0  0  0  0  0  0
    2.7561   -1.0916   -1.7757 H   0  0  0  0  0  0  0  0  0  0  0  0
    2.9863   -2.1520   -0.3560 H   0  0  0  0  0  0  0  0  0  0  0  0
    5.0879   -2.7759   -1.3763 H   0  0  0  0  0  0  0  0  0  0  0  0
    7.3722   -2.1527   -2.0074 H   0  0  0  0  0  0  0  0  0  0  0  0
    6.7088    0.6602   -0.9462 H   0  0  0  0  0  0  0  0  0  0  0  0
    7.0430    0.2442   -2.6461 H   0  0  0  0  0  0  0  0  0  0  0  0
    8.3290    0.0895   -1.4256 H   0  0  0  0  0  0  0  0  0  0  0  0
    6.5930   -1.2925    0.8431 H   0  0  0  0  0  0  0  0  0  0  0  0
    8.2310   -1.7756    0.3280 H   0  0  0  0  0  0  0  0  0  0  0  0
    6.9048   -2.9619    0.3044 H   0  0  0  0  0  0  0  0  0  0  0  0
  1  2  2  0
  1 11  1  0
  1 12  1  0
  2  3  1  0
  2 13  1  0
  3  4  1  0
  3 14  1  0
  3 15  1  0
  4  5  1  0
  5  6  1  0
  5  8  1  0
  5 16  1  1
  6  7  3  0
  8  9  1  0
  8 10  1  0
  8 17  1  6
  9 18  1  0
  9 19  1  0
  9 20  1  0
 10 21  1  0
 10 22  1  0
 10 23  1  0
M  END

