
     RDKit          3D

 58 60  0  0  0  0  0  0  0  0999 V2000
    0.8384   -1.1251   -0.3114 C   0  0  0  0  0  0  0  0  0  0  0  0
    2.3351   -0.8530   -0.1535 C   0  0  0  0  0  0  0  0  0  0  0  0
    3.1918   -2.1182   -0.2521 C   0  0  0  0  0  0  0  0  0  0  0  0
    4.6794   -1.8440   -0.0949 C   0  0  0  0  0  0  0  0  0  0  0  0
    5.3720   -3.0759   -0.2003 O   0  0  0  0  0  0  0  0  0  0  0  0
    6.7242   -3.1044   -0.0942 C   0  0  0  0  0  0  0  0  0  0  0  0
    7.5317   -1.9754    0.1199 C   0  0  0  0  0  0  0  0  0  0  0  0
    8.9179   -2.1199    0.2137 C   0  0  0  0  0  0  0  0  0  0  0  0
    9.5397   -3.3728    0.0997 C   0  0  0  0  0  0  0  0  0  0  0  0
   11.0037   -3.5397    0.1973 C   0  0  0  0  0  0  0  0  0  0  0  0
   11.9392   -2.5508    0.4044 C   0  0  0  0  0  0  0  0  0  0  0  0
   13.5480   -3.2038    0.4502 S   0  0  0  0  0  0  0  0  0  0  0  0
   12.8384   -4.7843    0.1837 C   0  0  0  0  0  0  0  0  0  0  0  0
   13.5915   -5.9460    0.0925 N   0  0  0  0  0  0  0  0  0  0  0  0
   14.9517   -6.0133    0.1962 C   0  0  0  0  0  0  0  0  0  0  0  0
   15.6685   -5.0476    0.3824 O   0  0  0  0  0  0  0  0  0  0  0  0
   15.5491   -7.4105    0.0625 C   0  0  0  0  0  0  0  0  0  0  0  0
   14.5274   -8.3569   -0.1478 O   0  0  0  0  0  0  0  0  0  0  0  0
   14.8235   -9.6742   -0.2976 C   0  0  0  0  0  0  0  0  0  0  0  0
   16.1198  -10.2001   -0.2569 C   0  0  0  0  0  0  0  0  0  0  0  0
   16.3314  -11.5735   -0.4214 C   0  0  0  0  0  0  0  0  0  0  0  0
   15.2714  -12.4622   -0.6301 C   0  0  0  0  0  0  0  0  0  0  0  0
   15.5146  -13.9557   -0.8085 C   0  0  1  0  0  0  0  0  0  0  0  0
   14.8586  -14.7851    0.3087 C   0  0  0  0  0  0  0  0  0  0  0  0
   15.0803  -14.4485   -2.1997 C   0  0  0  0  0  0  0  0  0  0  0  0
   13.9717  -11.9262   -0.6697 C   0  0  0  0  0  0  0  0  0  0  0  0
   13.7489  -10.5621   -0.5073 C   0  0  0  0  0  0  0  0  0  0  0  0
   11.9699   -9.8810   -0.5687 Br  0  0  0  0  0  0  0  0  0  0  0  0
   11.5450   -4.8045    0.0749 N   0  0  0  0  0  0  0  0  0  0  0  0
    8.7132   -4.4947   -0.1152 C   0  0  0  0  0  0  0  0  0  0  0  0
    7.3335   -4.3661   -0.2106 C   0  0  0  0  0  0  0  0  0  0  0  0
    0.2496   -0.1972   -0.2358 H   0  0  0  0  0  0  0  0  0  0  0  0
    0.4732   -1.8164    0.4662 H   0  0  0  0  0  0  0  0  0  0  0  0
    0.6159   -1.5828   -1.2896 H   0  0  0  0  0  0  0  0  0  0  0  0
    2.5183   -0.3606    0.8190 H   0  0  0  0  0  0  0  0  0  0  0  0
    2.6599   -0.1289   -0.9229 H   0  0  0  0  0  0  0  0  0  0  0  0
    3.0279   -2.6135   -1.2250 H   0  0  0  0  0  0  0  0  0  0  0  0
    2.8864   -2.8453    0.5204 H   0  0  0  0  0  0  0  0  0  0  0  0
    4.8855   -1.3731    0.8860 H   0  0  0  0  0  0  0  0  0  0  0  0
    5.0293   -1.1414   -0.8760 H   0  0  0  0  0  0  0  0  0  0  0  0
    7.0944   -0.9815    0.2150 H   0  0  0  0  0  0  0  0  0  0  0  0
    9.5194   -1.2233    0.3805 H   0  0  0  0  0  0  0  0  0  0  0  0
   11.7810   -1.4825    0.5324 H   0  0  0  0  0  0  0  0  0  0  0  0
   13.0682   -6.8060   -0.0638 H   0  0  0  0  0  0  0  0  0  0  0  0
   16.1194   -7.6190    0.9861 H   0  0  0  0  0  0  0  0  0  0  0  0
   16.2676   -7.3870   -0.7770 H   0  0  0  0  0  0  0  0  0  0  0  0
   16.9752   -9.5431   -0.0964 H   0  0  0  0  0  0  0  0  0  0  0  0
   17.3553  -11.9554   -0.3848 H   0  0  0  0  0  0  0  0  0  0  0  0
   16.6056  -14.1058   -0.7322 H   0  0  0  0  0  0  0  0  0  0  0  0
   13.7598  -14.6963    0.2847 H   0  0  0  0  0  0  0  0  0  0  0  0
   15.1984  -14.4581    1.3038 H   0  0  0  0  0  0  0  0  0  0  0  0
   15.1061  -15.8534    0.1974 H   0  0  0  0  0  0  0  0  0  0  0  0
   13.9922  -14.3426   -2.3432 H   0  0  0  0  0  0  0  0  0  0  0  0
   15.3287  -15.5143   -2.3306 H   0  0  0  0  0  0  0  0  0  0  0  0
   15.5795  -13.8810   -3.0005 H   0  0  0  0  0  0  0  0  0  0  0  0
   13.1098  -12.5767   -0.8299 H   0  0  0  0  0  0  0  0  0  0  0  0
    9.1812   -5.4758   -0.2060 H   0  0  0  0  0  0  0  0  0  0  0  0
    6.6943   -5.2358   -0.3769 H   0  0  0  0  0  0  0  0  0  0  0  0
  1  2  1  0
  1 32  1  0
  1 33  1  0
  1 34  1  0
  2  3  1  0
  2 35  1  0
  2 36  1  0
  3  4  1  0
  3 37  1  0
  3 38  1  0
  4  5  1  0
  4 39  1  0
  4 40  1  0
  5  6  1  0
  6  7  2  0
  6 31  1  0
  7  8  1  0
  7 41  1  0
  8  9  2  0
  8 42  1  0
  9 10  1  0
  9 30  1  0
 10 11  2  0
 10 29  1  0
 11 12  1  0
 11 43  1  0
 12 13  1  0
 13 14  1  0
 13 29  2  0
 14 15  1  0
 14 44  1  0
 15 16  2  0
 15 17  1  0
 17 18  1  0
 17 45  1  0
 17 46  1  0
 18 19  1  0
 19 20  2  0
 19 27  1  0
 20 21  1  0
 20 47  1  0
 21 22  2  0
 21 48  1  0
 22 23  1  0
 22 26  1  0
 23 24  1  0
 23 25  1  0
 23 49  1  6
 24 50  1  0
 24 51  1  0
 24 52  1  0
 25 53  1  0
 25 54  1  0
 25 55  1  0
 26 27  2  0
 26 56  1  0
 27 28  1  0
 30 31  2  0
 30 57  1  0
 31 58  1  0
M  END

