
     RDKit          3D

115128  0  0  0  0  0  0  0  0999 V2000
    5.8170   -0.9138   -5.7777 O   0  0  0  0  0  0  0  0  0  0  0  0
    4.7833   -1.5021   -4.9169 S   0  0  1  0  0  0  0  0  0  0  0  0
    3.7825   -2.4041   -5.4937 O   0  0  0  0  0  0  0  0  0  0  0  0
    5.5488   -2.2095   -3.4599 C   0  0  0  0  0  0  0  0  0  0  0  0
    5.2442   -1.4937   -2.3492 C   0  0  0  0  0  0  0  0  0  0  0  0
    4.3581   -0.3495   -2.5509 C   0  0  0  0  0  0  0  0  0  0  0  0
    3.8616    0.5887   -1.6401 C   0  0  0  0  0  0  0  0  0  0  0  0
    3.0166    1.6056   -2.0959 C   0  0  0  0  0  0  0  0  0  0  0  0
    2.6427    1.7288   -3.4501 C   0  0  0  0  0  0  0  0  0  0  0  0
    1.7450    2.8161   -3.9062 C   0  0  0  0  0  0  0  0  0  0  0  0
    1.7455    4.0812   -3.2860 C   0  0  0  0  0  0  0  0  0  0  0  0
    0.8999    5.1027   -3.7074 C   0  0  0  0  0  0  0  0  0  0  0  0
    0.0134    4.9072   -4.7852 C   0  0  0  0  0  0  0  0  0  0  0  0
   -0.8433    5.9419   -5.2197 N   0  0  0  0  0  0  0  0  0  0  0  0
   -0.4067    7.2960   -5.1952 C   0  0  0  0  0  0  0  0  0  0  0  0
    0.8731    7.6456   -5.6624 C   0  0  0  0  0  0  0  0  0  0  0  0
    1.2953    8.9757   -5.6331 C   0  0  0  0  0  0  0  0  0  0  0  0
    0.4469    9.9805   -5.1566 C   0  0  0  0  0  0  0  0  0  0  0  0
   -0.8303    9.6383   -4.7011 C   0  0  0  0  0  0  0  0  0  0  0  0
   -1.2543    8.3083   -4.7111 C   0  0  0  0  0  0  0  0  0  0  0  0
   -2.1530    5.6429   -5.6890 C   0  0  0  0  0  0  0  0  0  0  0  0
   -2.9771    4.7423   -4.9903 C   0  0  0  0  0  0  0  0  0  0  0  0
   -4.2599    4.4521   -5.4578 C   0  0  0  0  0  0  0  0  0  0  0  0
   -4.7500    5.0653   -6.6154 C   0  0  0  0  0  0  0  0  0  0  0  0
   -3.9376    5.9694   -7.3071 C   0  0  0  0  0  0  0  0  0  0  0  0
   -2.6473    6.2525   -6.8559 C   0  0  0  0  0  0  0  0  0  0  0  0
    0.0092    3.6474   -5.4160 C   0  0  0  0  0  0  0  0  0  0  0  0
    0.8529    2.6299   -4.9807 C   0  0  0  0  0  0  0  0  0  0  0  0
    3.1562    0.7802   -4.3694 C   0  0  0  0  0  0  0  0  0  0  0  0
    3.9881   -0.2177   -3.9056 C   0  0  0  0  0  0  0  0  0  0  0  0
    5.9795   -2.0645   -1.1426 C   0  0  1  0  0  0  0  0  0  0  0  0
    6.8513   -1.0234   -0.4514 C   0  0  0  0  0  0  0  0  0  0  0  0
    6.4911   -0.9059    0.8505 C   0  0  0  0  0  0  0  0  0  0  0  0
    5.3876   -1.7864    1.1940 C   0  0  0  0  0  0  0  0  0  0  0  0
    4.6874   -2.0055    2.3827 C   0  0  0  0  0  0  0  0  0  0  0  0
    3.6494   -2.9450    2.3762 C   0  0  0  0  0  0  0  0  0  0  0  0
    3.3229   -3.6472    1.2092 C   0  0  0  0  0  0  0  0  0  0  0  0
    4.0272   -3.4266    0.0142 C   0  0  0  0  0  0  0  0  0  0  0  0
    5.0567   -2.4951    0.0114 C   0  0  0  0  0  0  0  0  0  0  0  0
    7.4246    0.3861    1.6673 S   0  0  1  0  0  0  0  0  0  0  0  0
    6.5376    1.5158    1.9721 O   0  0  0  0  0  0  0  0  0  0  0  0
    8.2972   -0.1568    2.7123 O   0  0  0  0  0  0  0  0  0  0  0  0
    8.3631    0.7054    0.1436 C   0  0  0  0  0  0  0  0  0  0  0  0
    9.3619    1.6441   -0.0123 C   0  0  0  0  0  0  0  0  0  0  0  0
    9.9742    1.7912   -1.2820 C   0  0  0  0  0  0  0  0  0  0  0  0
   11.0514    2.7870   -1.4922 C   0  0  0  0  0  0  0  0  0  0  0  0
   11.9534    3.1212   -0.4628 C   0  0  0  0  0  0  0  0  0  0  0  0
   12.9653    4.0576   -0.6520 C   0  0  0  0  0  0  0  0  0  0  0  0
   13.1279    4.7028   -1.8940 C   0  0  0  0  0  0  0  0  0  0  0  0
   14.1554    5.6504   -2.0928 N   0  0  0  0  0  0  0  0  0  0  0  0
   15.4229    5.4792   -1.4689 C   0  0  0  0  0  0  0  0  0  0  0  0
   16.0622    4.2265   -1.4759 C   0  0  0  0  0  0  0  0  0  0  0  0
   17.3043    4.0654   -0.8597 C   0  0  0  0  0  0  0  0  0  0  0  0
   17.9380    5.1495   -0.2437 C   0  0  0  0  0  0  0  0  0  0  0  0
   17.3103    6.3993   -0.2439 C   0  0  0  0  0  0  0  0  0  0  0  0
   16.0604    6.5652   -0.8430 C   0  0  0  0  0  0  0  0  0  0  0  0
   13.9358    6.7886   -2.9182 C   0  0  0  0  0  0  0  0  0  0  0  0
   12.7495    7.5363   -2.8083 C   0  0  0  0  0  0  0  0  0  0  0  0
   12.5404    8.6505   -3.6226 C   0  0  0  0  0  0  0  0  0  0  0  0
   13.5132    9.0494   -4.5450 C   0  0  0  0  0  0  0  0  0  0  0  0
   14.6986    8.3147   -4.6499 C   0  0  0  0  0  0  0  0  0  0  0  0
   14.9086    7.1892   -3.8513 C   0  0  0  0  0  0  0  0  0  0  0  0
   12.2327    4.3733   -2.9311 C   0  0  0  0  0  0  0  0  0  0  0  0
   11.2188    3.4420   -2.7283 C   0  0  0  0  0  0  0  0  0  0  0  0
    9.5227    0.9658   -2.3326 C   0  0  0  0  0  0  0  0  0  0  0  0
    8.5083    0.0186   -2.1599 C   0  0  0  0  0  0  0  0  0  0  0  0
    7.9141   -0.1276   -0.9022 C   0  0  0  0  0  0  0  0  0  0  0  0
    6.7642   -3.2193   -1.7894 C   0  0  0  0  0  0  0  0  0  0  0  0
    7.6382   -4.1259   -1.2047 C   0  0  0  0  0  0  0  0  0  0  0  0
    8.2376   -5.1024   -2.0171 C   0  0  0  0  0  0  0  0  0  0  0  0
    7.9618   -5.1646   -3.3887 C   0  0  0  0  0  0  0  0  0  0  0  0
    7.0804   -4.2556   -3.9863 C   0  0  0  0  0  0  0  0  0  0  0  0
    6.4844   -3.2847   -3.1779 C   0  0  0  0  0  0  0  0  0  0  0  0
    4.1269    0.5347   -0.5824 H   0  0  0  0  0  0  0  0  0  0  0  0
    2.6174    2.3144   -1.3680 H   0  0  0  0  0  0  0  0  0  0  0  0
    2.4332    4.2806   -2.4611 H   0  0  0  0  0  0  0  0  0  0  0  0
    0.9274    6.0686   -3.2008 H   0  0  0  0  0  0  0  0  0  0  0  0
    1.5344    6.8681   -6.0497 H   0  0  0  0  0  0  0  0  0  0  0  0
    2.2931    9.2297   -6.0003 H   0  0  0  0  0  0  0  0  0  0  0  0
    0.7781   11.0215   -5.1415 H   0  0  0  0  0  0  0  0  0  0  0  0
   -1.5020   10.4124   -4.3211 H   0  0  0  0  0  0  0  0  0  0  0  0
   -2.2478    8.0453   -4.3432 H   0  0  0  0  0  0  0  0  0  0  0  0
   -2.6058    4.2718   -4.0777 H   0  0  0  0  0  0  0  0  0  0  0  0
   -4.8869    3.7496   -4.9025 H   0  0  0  0  0  0  0  0  0  0  0  0
   -5.7570    4.8410   -6.9749 H   0  0  0  0  0  0  0  0  0  0  0  0
   -4.3057    6.4520   -8.2163 H   0  0  0  0  0  0  0  0  0  0  0  0
   -2.0129    6.9498   -7.4064 H   0  0  0  0  0  0  0  0  0  0  0  0
   -0.6666    3.4659   -6.2530 H   0  0  0  0  0  0  0  0  0  0  0  0
    0.8034    1.6615   -5.4839 H   0  0  0  0  0  0  0  0  0  0  0  0
    2.9222    0.8512   -5.4333 H   0  0  0  0  0  0  0  0  0  0  0  0
    4.9466   -1.4550    3.2894 H   0  0  0  0  0  0  0  0  0  0  0  0
    3.0873   -3.1328    3.2942 H   0  0  0  0  0  0  0  0  0  0  0  0
    2.5090   -4.3760    1.2269 H   0  0  0  0  0  0  0  0  0  0  0  0
    3.7669   -3.9780   -0.8927 H   0  0  0  0  0  0  0  0  0  0  0  0
    9.6536    2.2814    0.8247 H   0  0  0  0  0  0  0  0  0  0  0  0
   11.8750    2.6286    0.5091 H   0  0  0  0  0  0  0  0  0  0  0  0
   13.6436    4.2915    0.1699 H   0  0  0  0  0  0  0  0  0  0  0  0
   15.5796    3.3800   -1.9681 H   0  0  0  0  0  0  0  0  0  0  0  0
   17.7871    3.0847   -0.8743 H   0  0  0  0  0  0  0  0  0  0  0  0
   18.9132    5.0215    0.2318 H   0  0  0  0  0  0  0  0  0  0  0  0
   17.7915    7.2540    0.2385 H   0  0  0  0  0  0  0  0  0  0  0  0
   15.5693    7.5400   -0.8296 H   0  0  0  0  0  0  0  0  0  0  0  0
   11.9928    7.2391   -2.0796 H   0  0  0  0  0  0  0  0  0  0  0  0
   11.6127    9.2203   -3.5238 H   0  0  0  0  0  0  0  0  0  0  0  0
   13.3493    9.9261   -5.1760 H   0  0  0  0  0  0  0  0  0  0  0  0
   15.4654    8.6119   -5.3701 H   0  0  0  0  0  0  0  0  0  0  0  0
   15.8306    6.6124   -3.9457 H   0  0  0  0  0  0  0  0  0  0  0  0
   12.3321    4.8585   -3.9032 H   0  0  0  0  0  0  0  0  0  0  0  0
   10.5323    3.2310   -3.5512 H   0  0  0  0  0  0  0  0  0  0  0  0
    9.9937    1.0497   -3.3137 H   0  0  0  0  0  0  0  0  0  0  0  0
    8.1887   -0.5967   -3.0032 H   0  0  0  0  0  0  0  0  0  0  0  0
    7.8587   -4.0831   -0.1352 H   0  0  0  0  0  0  0  0  0  0  0  0
    8.9290   -5.8217   -1.5717 H   0  0  0  0  0  0  0  0  0  0  0  0
    8.4402   -5.9327   -4.0012 H   0  0  0  0  0  0  0  0  0  0  0  0
    6.8615   -4.2991   -5.0551 H   0  0  0  0  0  0  0  0  0  0  0  0
  1  2  2  0
  2  3  2  0
  2  4  1  1
  2 30  1  0
  4  5  2  0
  4 73  1  0
  5  6  1  0
 31  5  1  6
  6  7  2  0
  6 30  1  0
  7  8  1  0
  7 74  1  0
  8  9  2  0
  8 75  1  0
  9 10  1  0
  9 29  1  0
 10 11  2  0
 10 28  1  0
 11 12  1  0
 11 76  1  0
 12 13  2  0
 12 77  1  0
 13 14  1  0
 13 27  1  0
 14 15  1  0
 14 21  1  0
 15 16  2  0
 15 20  1  0
 16 17  1  0
 16 78  1  0
 17 18  2  0
 17 79  1  0
 18 19  1  0
 18 80  1  0
 19 20  2  0
 19 81  1  0
 20 82  1  0
 21 22  2  0
 21 26  1  0
 22 23  1  0
 22 83  1  0
 23 24  2  0
 23 84  1  0
 24 25  1  0
 24 85  1  0
 25 26  2  0
 25 86  1  0
 26 87  1  0
 27 28  2  0
 27 88  1  0
 28 89  1  0
 29 30  2  0
 29 90  1  0
 31 32  1  0
 31 39  1  0
 31 68  1  0
 32 33  2  0
 32 67  1  0
 33 34  1  0
 40 33  1  6
 34 35  2  0
 34 39  1  0
 35 36  1  0
 35 91  1  0
 36 37  2  0
 36 92  1  0
 37 38  1  0
 37 93  1  0
 38 39  2  0
 38 94  1  0
 40 41  2  0
 40 42  2  0
 40 43  1  0
 43 44  1  0
 43 67  2  0
 44 45  2  0
 44 95  1  0
 45 46  1  0
 45 65  1  0
 46 47  2  0
 46 64  1  0
 47 48  1  0
 47 96  1  0
 48 49  2  0
 48 97  1  0
 49 50  1  0
 49 63  1  0
 50 51  1  0
 50 57  1  0
 51 52  2  0
 51 56  1  0
 52 53  1  0
 52 98  1  0
 53 54  2  0
 53 99  1  0
 54 55  1  0
 54100  1  0
 55 56  2  0
 55101  1  0
 56102  1  0
 57 58  2  0
 57 62  1  0
 58 59  1  0
 58103  1  0
 59 60  2  0
 59104  1  0
 60 61  1  0
 60105  1  0
 61 62  2  0
 61106  1  0
 62107  1  0
 63 64  2  0
 63108  1  0
 64109  1  0
 65 66  2  0
 65110  1  0
 66 67  1  0
 66111  1  0
 68 69  2  0
 68 73  1  0
 69 70  1  0
 69112  1  0
 70 71  2  0
 70113  1  0
 71 72  1  0
 71114  1  0
 72 73  2  0
 72115  1  0
M  END

