
     RDKit          3D

 32 32  0  0  0  0  0  0  0  0999 V2000
    1.1236    0.0902   -0.5522 O   0  0  0  0  0  0  0  0  0  0  0  0
    2.4436   -0.0496   -0.0718 C   0  0  1  0  0  0  0  0  0  0  0  0
    2.9355   -1.5020   -0.1862 C   0  0  0  0  0  0  0  0  0  0  0  0
    2.2262   -2.4651    0.7551 C   0  0  0  0  0  0  0  0  0  0  0  0
    0.8346   -2.4694    0.4646 O   0  0  0  0  0  0  0  0  0  0  0  0
    0.0464   -3.2261    1.3417 C   0  0  0  0  0  0  0  0  0  0  0  0
   -1.3980   -3.1033    0.8986 C   0  0  1  0  0  0  0  0  0  0  0  0
   -2.1719   -3.8614    1.7169 F   0  0  0  0  0  0  0  0  0  0  0  0
   -1.8038   -1.8115    1.0037 F   0  0  0  0  0  0  0  0  0  0  0  0
    3.3332    0.9130   -0.8738 C   0  0  0  0  0  0  0  0  0  0  0  0
    2.9817    2.3704   -0.6872 C   0  0  0  0  0  0  0  0  0  0  0  0
    1.8477    2.9409   -1.2863 C   0  0  0  0  0  0  0  0  0  0  0  0
    1.5414    4.2883   -1.0887 C   0  0  0  0  0  0  0  0  0  0  0  0
    0.1209    4.9708   -1.8535 Cl  0  0  0  0  0  0  0  0  0  0  0  0
    2.3501    5.1041   -0.2913 C   0  0  0  0  0  0  0  0  0  0  0  0
    3.4779    4.5511    0.3157 C   0  0  0  0  0  0  0  0  0  0  0  0
    3.7706    3.2046    0.1141 C   0  0  0  0  0  0  0  0  0  0  0  0
    4.8641    2.6918    0.7138 F   0  0  0  0  0  0  0  0  0  0  0  0
    0.5927   -0.6230   -0.1628 H   0  0  0  0  0  0  0  0  0  0  0  0
    2.5034    0.2472    0.9991 H   0  0  0  0  0  0  0  0  0  0  0  0
    4.0136   -1.5492    0.0430 H   0  0  0  0  0  0  0  0  0  0  0  0
    2.8053   -1.8403   -1.2284 H   0  0  0  0  0  0  0  0  0  0  0  0
    2.3832   -2.1573    1.8091 H   0  0  0  0  0  0  0  0  0  0  0  0
    2.6338   -3.4900    0.6480 H   0  0  0  0  0  0  0  0  0  0  0  0
    0.1202   -2.8635    2.3864 H   0  0  0  0  0  0  0  0  0  0  0  0
    0.3316   -4.2965    1.3296 H   0  0  0  0  0  0  0  0  0  0  0  0
   -1.5500   -3.4284   -0.1457 H   0  0  0  0  0  0  0  0  0  0  0  0
    3.2363    0.6444   -1.9390 H   0  0  0  0  0  0  0  0  0  0  0  0
    4.3812    0.7533   -0.5838 H   0  0  0  0  0  0  0  0  0  0  0  0
    1.1963    2.3148   -1.8955 H   0  0  0  0  0  0  0  0  0  0  0  0
    2.0982    6.1560   -0.1500 H   0  0  0  0  0  0  0  0  0  0  0  0
    4.1373    5.1509    0.9459 H   0  0  0  0  0  0  0  0  0  0  0  0
  1  2  1  0
  1 19  1  0
  2  3  1  0
  2 10  1  0
  2 20  1  1
  3  4  1  0
  3 21  1  0
  3 22  1  0
  4  5  1  0
  4 23  1  0
  4 24  1  0
  5  6  1  0
  6  7  1  0
  6 25  1  0
  6 26  1  0
  7  8  1  0
  7  9  1  0
  7 27  1  6
 10 11  1  0
 10 28  1  0
 10 29  1  0
 11 12  2  0
 11 17  1  0
 12 13  1  0
 12 30  1  0
 13 14  1  0
 13 15  2  0
 15 16  1  0
 15 31  1  0
 16 17  2  0
 16 32  1  0
 17 18  1  0
M  END

