
     RDKit          3D

 66 67  0  0  0  0  0  0  0  0999 V2000
    2.5769    0.5132   -0.7888 N   0  0  0  0  0  0  0  0  0  0  0  0
    3.3294    0.1204    0.3856 C   0  0  1  0  0  0  0  0  0  0  0  0
    2.6400    0.3663    1.7669 C   0  0  0  0  0  0  0  0  0  0  0  0
    2.2979    1.8052    2.0231 C   0  0  0  0  0  0  0  0  0  0  0  0
    3.0806    2.7315    2.6796 C   0  0  0  0  0  0  0  0  0  0  0  0
    2.4508    3.9582    2.7005 N   0  0  0  0  0  0  0  0  0  0  0  0
    2.8150    4.7934    3.1383 H   0  0  0  0  0  0  0  0  0  0  0  0
    1.2355    3.8585    2.0603 C   0  0  0  0  0  0  0  0  0  0  0  0
    0.2411    4.8218    1.8374 C   0  0  0  0  0  0  0  0  0  0  0  0
   -0.9062    4.4203    1.1597 C   0  0  0  0  0  0  0  0  0  0  0  0
   -1.0642    3.0888    0.7147 C   0  0  0  0  0  0  0  0  0  0  0  0
   -0.0757    2.1355    0.9354 C   0  0  0  0  0  0  0  0  0  0  0  0
    1.1019    2.5103    1.6151 C   0  0  0  0  0  0  0  0  0  0  0  0
    3.6225   -1.3760    0.2634 C   0  0  0  0  0  0  0  0  0  0  0  0
    2.7086   -2.1546   -0.0374 O   0  0  0  0  0  0  0  0  0  0  0  0
    4.8888   -1.7498    0.5384 N   0  0  0  0  0  0  0  0  0  0  0  0
    5.4654   -3.0825    0.7315 C   0  0  1  0  0  0  0  0  0  0  0  0
    4.6870   -4.2714    0.1439 C   0  0  0  0  0  0  0  0  0  0  0  0
    4.6011   -4.3400   -1.3849 C   0  0  0  0  0  0  0  0  0  0  0  0
    5.4409   -4.9303   -2.0313 O   0  0  0  0  0  0  0  0  0  0  0  0
    3.5756   -3.7292   -1.9513 O   0  0  0  0  0  0  0  0  0  0  0  0
    6.9616   -2.9398    0.3532 C   0  0  0  0  0  0  0  0  0  0  0  0
    7.5368   -1.9042    0.7194 O   0  0  0  0  0  0  0  0  0  0  0  0
    7.5553   -3.9658   -0.2624 N   0  0  0  0  0  0  0  0  0  0  0  0
    8.9524   -4.0623   -0.6686 C   0  0  1  0  0  0  0  0  0  0  0  0
    9.9708   -3.4266    0.3050 C   0  0  0  0  0  0  0  0  0  0  0  0
    9.8349   -3.9501    1.7369 C   0  0  0  0  0  0  0  0  0  0  0  0
   10.3447   -4.9782    2.0985 O   0  0  0  0  0  0  0  0  0  0  0  0
    9.0965   -3.1954    2.5633 O   0  0  0  0  0  0  0  0  0  0  0  0
    9.2242   -5.5701   -0.8972 C   0  0  0  0  0  0  0  0  0  0  0  0
    8.3882   -6.4167   -0.6160 O   0  0  0  0  0  0  0  0  0  0  0  0
   10.4132   -5.8622   -1.4712 N   0  0  0  0  0  0  0  0  0  0  0  0
   10.8993   -7.2171   -1.6206 C   0  0  1  0  0  0  0  0  0  0  0  0
   10.0369   -8.0087   -2.6353 C   0  0  0  0  0  0  0  0  0  0  0  0
   10.1838   -9.5153   -2.5376 C   0  0  0  0  0  0  0  0  0  0  0  0
   11.1901  -10.0735   -2.1511 O   0  0  0  0  0  0  0  0  0  0  0  0
    9.1382  -10.2451   -2.9254 O   0  0  0  0  0  0  0  0  0  0  0  0
   12.3964   -7.0975   -2.0049 C   0  0  0  0  0  0  0  0  0  0  0  0
   12.9152   -6.0109   -2.1182 O   0  0  0  0  0  0  0  0  0  0  0  0
   13.0528   -8.2253   -2.1843 O   0  0  0  0  0  0  0  0  0  0  0  0
    2.2384    1.4698   -0.6980 H   0  0  0  0  0  0  0  0  0  0  0  0
    1.7663   -0.0983   -0.8934 H   0  0  0  0  0  0  0  0  0  0  0  0
    4.2836    0.6767    0.3906 H   0  0  0  0  0  0  0  0  0  0  0  0
    3.3103   -0.0018    2.5629 H   0  0  0  0  0  0  0  0  0  0  0  0
    1.7313   -0.2575    1.8048 H   0  0  0  0  0  0  0  0  0  0  0  0
    4.0535    2.6009    3.1519 H   0  0  0  0  0  0  0  0  0  0  0  0
    0.3603    5.8513    2.1844 H   0  0  0  0  0  0  0  0  0  0  0  0
   -1.6998    5.1472    0.9702 H   0  0  0  0  0  0  0  0  0  0  0  0
   -1.9800    2.8064    0.1897 H   0  0  0  0  0  0  0  0  0  0  0  0
   -0.2117    1.1092    0.5860 H   0  0  0  0  0  0  0  0  0  0  0  0
    5.5726   -1.0196    0.7291 H   0  0  0  0  0  0  0  0  0  0  0  0
    5.5105   -3.2721    1.8225 H   0  0  0  0  0  0  0  0  0  0  0  0
    3.6830   -4.2749    0.5862 H   0  0  0  0  0  0  0  0  0  0  0  0
    5.1985   -5.1872    0.4746 H   0  0  0  0  0  0  0  0  0  0  0  0
    3.0709   -3.2099   -1.2688 H   0  0  0  0  0  0  0  0  0  0  0  0
    6.9815   -4.7313   -0.6307 H   0  0  0  0  0  0  0  0  0  0  0  0
    9.0800   -3.5579   -1.6451 H   0  0  0  0  0  0  0  0  0  0  0  0
    9.8702   -2.3354    0.2659 H   0  0  0  0  0  0  0  0  0  0  0  0
   10.9815   -3.6920   -0.0343 H   0  0  0  0  0  0  0  0  0  0  0  0
    8.6715   -2.4688    2.0592 H   0  0  0  0  0  0  0  0  0  0  0  0
   11.1290   -5.1577   -1.6495 H   0  0  0  0  0  0  0  0  0  0  0  0
   10.8407   -7.7395   -0.6480 H   0  0  0  0  0  0  0  0  0  0  0  0
   10.2703   -7.7036   -3.6710 H   0  0  0  0  0  0  0  0  0  0  0  0
    8.9888   -7.7392   -2.4377 H   0  0  0  0  0  0  0  0  0  0  0  0
    8.3848   -9.6811   -3.1565 H   0  0  0  0  0  0  0  0  0  0  0  0
   12.4586   -9.0175   -2.0798 H   0  0  0  0  0  0  0  0  0  0  0  0
  1  2  1  0
  1 41  1  0
  1 42  1  0
  2  3  1  0
  2 14  1  0
  2 43  1  1
  3  4  1  0
  3 44  1  0
  3 45  1  0
  4  5  2  0
  4 13  1  0
  5  6  1  0
  5 46  1  0
  6  7  1  0
  6  8  1  0
  8  9  1  0
  8 13  2  0
  9 10  2  0
  9 47  1  0
 10 11  1  0
 10 48  1  0
 11 12  2  0
 11 49  1  0
 12 13  1  0
 12 50  1  0
 14 15  2  0
 14 16  1  0
 16 17  1  0
 16 51  1  0
 17 18  1  0
 17 22  1  0
 17 52  1  1
 18 19  1  0
 18 53  1  0
 18 54  1  0
 19 20  2  0
 19 21  1  0
 21 55  1  0
 22 23  2  0
 22 24  1  0
 24 25  1  0
 24 56  1  0
 25 26  1  0
 25 30  1  0
 25 57  1  6
 26 27  1  0
 26 58  1  0
 26 59  1  0
 27 28  2  0
 27 29  1  0
 29 60  1  0
 30 31  2  0
 30 32  1  0
 32 33  1  0
 32 61  1  0
 33 34  1  0
 33 38  1  0
 33 62  1  1
 34 35  1  0
 34 63  1  0
 34 64  1  0
 35 36  2  0
 35 37  1  0
 37 65  1  0
 38 39  2  0
 38 40  1  0
 40 66  1  0
M  END

