
     RDKit          3D

 53 56  0  0  0  0  0  0  0  0999 V2000
    0.4202   -2.5324   -0.4301 C   0  0  0  0  0  0  0  0  0  0  0  0
    1.8658   -2.4441   -0.4925 N   0  0  0  0  0  0  0  0  0  0  0  0
    2.4790   -3.1175   -1.6296 C   0  0  0  0  0  0  0  0  0  0  0  0
    2.4283   -2.3084   -2.9438 C   0  0  0  0  0  0  0  0  0  0  0  0
    2.9745   -0.8675   -2.8170 C   0  0  2  0  0  0  0  0  0  0  0  0
    4.4550   -0.7618   -2.6923 N   0  0  0  0  0  0  0  0  0  0  0  0
    5.2999   -1.8826   -3.1155 C   0  0  0  0  0  0  0  0  0  0  0  0
    5.5306   -1.9442   -4.6279 C   0  0  0  0  0  0  0  0  0  0  0  0
    6.0641   -0.7255   -5.1072 O   0  0  0  0  0  0  0  0  0  0  0  0
    5.2491    0.3814   -4.7785 C   0  0  0  0  0  0  0  0  0  0  0  0
    5.0563    0.4753   -3.2520 C   0  0  1  0  0  0  0  0  0  0  0  0
    6.0762    0.5249   -2.8249 H   0  0  0  0  0  0  0  0  0  0  0  0
    4.3640    1.7536   -2.8862 C   0  0  0  0  0  0  0  0  0  0  0  0
    3.4554    2.3841   -3.6075 N   0  0  0  0  0  0  0  0  0  0  0  0
    3.1247    3.5054   -2.9027 C   0  0  0  0  0  0  0  0  0  0  0  0
    3.8430    3.5777   -1.7158 C   0  0  0  0  0  0  0  0  0  0  0  0
    3.8442    4.5575   -0.6312 C   0  0  0  0  0  0  0  0  0  0  0  0
    4.3615    4.2546    0.6442 C   0  0  0  0  0  0  0  0  0  0  0  0
    4.3546    5.1999    1.6683 C   0  0  0  0  0  0  0  0  0  0  0  0
    3.8203    6.4731    1.4462 C   0  0  0  0  0  0  0  0  0  0  0  0
    3.8558    7.5155    2.5335 C   0  0  1  0  0  0  0  0  0  0  0  0
    3.8559    6.9618    3.7592 F   0  0  0  0  0  0  0  0  0  0  0  0
    4.9609    8.2833    2.4521 F   0  0  0  0  0  0  0  0  0  0  0  0
    2.8003    8.3463    2.4637 F   0  0  0  0  0  0  0  0  0  0  0  0
    3.2915    6.7881    0.1870 C   0  0  0  0  0  0  0  0  0  0  0  0
    3.3082    5.8461   -0.8365 C   0  0  0  0  0  0  0  0  0  0  0  0
    4.6312    2.4398   -1.7347 N   0  0  0  0  0  0  0  0  0  0  0  0
    5.3093    2.1663   -1.0344 H   0  0  0  0  0  0  0  0  0  0  0  0
    2.2760   -0.2249   -1.5915 C   0  0  0  0  0  0  0  0  0  0  0  0
    2.4099   -1.0986   -0.3351 C   0  0  0  0  0  0  0  0  0  0  0  0
    0.1120   -3.5908   -0.4391 H   0  0  0  0  0  0  0  0  0  0  0  0
   -0.1303   -2.0230   -1.2532 H   0  0  0  0  0  0  0  0  0  0  0  0
    0.0639   -2.0942    0.5166 H   0  0  0  0  0  0  0  0  0  0  0  0
    1.9857   -4.0926   -1.7762 H   0  0  0  0  0  0  0  0  0  0  0  0
    3.5282   -3.3396   -1.3638 H   0  0  0  0  0  0  0  0  0  0  0  0
    1.3742   -2.2113   -3.2536 H   0  0  0  0  0  0  0  0  0  0  0  0
    2.9204   -2.8654   -3.7559 H   0  0  0  0  0  0  0  0  0  0  0  0
    2.6429   -0.3154   -3.7158 H   0  0  0  0  0  0  0  0  0  0  0  0
    4.8986   -2.8354   -2.7499 H   0  0  0  0  0  0  0  0  0  0  0  0
    6.2865   -1.7549   -2.6321 H   0  0  0  0  0  0  0  0  0  0  0  0
    4.5824   -2.1788   -5.1557 H   0  0  0  0  0  0  0  0  0  0  0  0
    6.2591   -2.7321   -4.8789 H   0  0  0  0  0  0  0  0  0  0  0  0
    4.2638    0.3163   -5.2791 H   0  0  0  0  0  0  0  0  0  0  0  0
    5.7564    1.2800   -5.1590 H   0  0  0  0  0  0  0  0  0  0  0  0
    2.3732    4.2059   -3.2642 H   0  0  0  0  0  0  0  0  0  0  0  0
    4.7550    3.2576    0.8570 H   0  0  0  0  0  0  0  0  0  0  0  0
    4.7526    4.9414    2.6513 H   0  0  0  0  0  0  0  0  0  0  0  0
    2.8680    7.7783    0.0086 H   0  0  0  0  0  0  0  0  0  0  0  0
    2.9120    6.1149   -1.8175 H   0  0  0  0  0  0  0  0  0  0  0  0
    1.2098   -0.0807   -1.8389 H   0  0  0  0  0  0  0  0  0  0  0  0
    2.6773    0.7765   -1.3906 H   0  0  0  0  0  0  0  0  0  0  0  0
    1.9211   -0.6147    0.5267 H   0  0  0  0  0  0  0  0  0  0  0  0
    3.4836   -1.1885   -0.0898 H   0  0  0  0  0  0  0  0  0  0  0  0
  1  2  1  0
  1 31  1  0
  1 32  1  0
  1 33  1  0
  2  3  1  0
  2 30  1  0
  3  4  1  0
  3 34  1  0
  3 35  1  0
  4  5  1  0
  4 36  1  0
  4 37  1  0
  5  6  1  0
  5 29  1  0
  5 38  1  6
  6  7  1  0
  6 11  1  0
  7  8  1  0
  7 39  1  0
  7 40  1  0
  8  9  1  0
  8 41  1  0
  8 42  1  0
  9 10  1  0
 10 11  1  0
 10 43  1  0
 10 44  1  0
 11 12  1  1
 11 13  1  0
 13 14  2  0
 13 27  1  0
 14 15  1  0
 15 16  2  0
 15 45  1  0
 16 17  1  0
 16 27  1  0
 17 18  2  0
 17 26  1  0
 18 19  1  0
 18 46  1  0
 19 20  2  0
 19 47  1  0
 20 21  1  0
 20 25  1  0
 21 22  1  1
 21 23  1  0
 21 24  1  0
 25 26  2  0
 25 48  1  0
 26 49  1  0
 27 28  1  0
 29 30  1  0
 29 50  1  0
 29 51  1  0
 30 52  1  0
 30 53  1  0
M  END

