
     RDKit          3D

 29 30  0  0  0  0  0  0  0  0999 V2000
    2.5681   -2.1893    3.0987 C   0  0  0  0  0  0  0  0  0  0  0  0
    2.4241   -1.9622    1.6712 N   0  0  0  0  0  0  0  0  0  0  0  0
    3.0583   -0.7504    1.1737 C   0  0  0  0  0  0  0  0  0  0  0  0
    4.5771   -0.7965    1.1752 C   0  0  0  0  0  0  0  0  0  0  0  0
    5.2761    0.1657    1.8315 C   0  0  0  0  0  0  0  0  0  0  0  0
    6.7336    0.2600    1.8382 C   0  0  0  0  0  0  0  0  0  0  0  0
    7.3435    1.1321    2.4418 O   0  0  0  0  0  0  0  0  0  0  0  0
    7.4028   -0.7240    1.0863 N   0  0  0  0  0  0  0  0  0  0  0  0
    8.8581   -0.6505    1.0540 C   0  0  0  0  0  0  0  0  0  0  0  0
    6.7353   -1.7347    0.3984 C   0  0  0  0  0  0  0  0  0  0  0  0
    7.4520   -2.6971   -0.3469 C   0  0  0  0  0  0  0  0  0  0  0  0
    6.7914   -3.7095   -1.0339 C   0  0  0  0  0  0  0  0  0  0  0  0
    5.3982   -3.7766   -0.9805 C   0  0  0  0  0  0  0  0  0  0  0  0
    4.7661   -4.7653   -1.6349 F   0  0  0  0  0  0  0  0  0  0  0  0
    4.6611   -2.8535   -0.2622 C   0  0  0  0  0  0  0  0  0  0  0  0
    5.3111   -1.8124    0.4339 C   0  0  0  0  0  0  0  0  0  0  0  0
    2.0178   -3.0981    3.3868 H   0  0  0  0  0  0  0  0  0  0  0  0
    2.2048   -1.3497    3.7316 H   0  0  0  0  0  0  0  0  0  0  0  0
    3.6276   -2.3538    3.3515 H   0  0  0  0  0  0  0  0  0  0  0  0
    1.4408   -1.9616    1.4092 H   0  0  0  0  0  0  0  0  0  0  0  0
    2.7537    0.1581    1.7371 H   0  0  0  0  0  0  0  0  0  0  0  0
    2.7222   -0.6019    0.1324 H   0  0  0  0  0  0  0  0  0  0  0  0
    4.7718    0.9503    2.3987 H   0  0  0  0  0  0  0  0  0  0  0  0
    9.1505    0.2092    1.6660 H   0  0  0  0  0  0  0  0  0  0  0  0
    9.2236   -0.5084    0.0246 H   0  0  0  0  0  0  0  0  0  0  0  0
    9.3092   -1.5656    1.4693 H   0  0  0  0  0  0  0  0  0  0  0  0
    8.5385   -2.6585   -0.3951 H   0  0  0  0  0  0  0  0  0  0  0  0
    7.3447   -4.4545   -1.6088 H   0  0  0  0  0  0  0  0  0  0  0  0
    3.5798   -2.9586   -0.1909 H   0  0  0  0  0  0  0  0  0  0  0  0
  1  2  1  0
  1 17  1  0
  1 18  1  0
  1 19  1  0
  2  3  1  0
  2 20  1  0
  3  4  1  0
  3 21  1  0
  3 22  1  0
  4  5  2  0
  4 16  1  0
  5  6  1  0
  5 23  1  0
  6  7  2  0
  6  8  1  0
  8  9  1  0
  8 10  1  0
  9 24  1  0
  9 25  1  0
  9 26  1  0
 10 11  1  0
 10 16  2  0
 11 12  2  0
 11 27  1  0
 12 13  1  0
 12 28  1  0
 13 14  1  0
 13 15  2  0
 15 16  1  0
 15 29  1  0
M  END

