
     RDKit          3D

 23 24  0  0  0  0  0  0  0  0999 V2000
    0.6794    0.3122   -0.0819 N   0  0  0  0  0  0  0  0  0  0  0  0
    2.1453    0.2102   -0.0710 C   0  0  1  0  0  0  0  0  0  0  0  0
    2.7812    0.6773   -1.3790 C   0  0  0  0  0  0  0  0  0  0  0  0
    2.9301    2.0343   -1.6956 C   0  0  0  0  0  0  0  0  0  0  0  0
    3.4369    2.3896   -2.9452 C   0  0  0  0  0  0  0  0  0  0  0  0
    3.7857    1.3716   -3.8397 C   0  0  0  0  0  0  0  0  0  0  0  0
    3.6578    0.0749   -3.5521 N   0  0  0  0  0  0  0  0  0  0  0  0
    3.1702   -0.2526   -2.3550 C   0  0  0  0  0  0  0  0  0  0  0  0
    2.6851    0.9260    1.1489 C   0  0  0  0  0  0  0  0  0  0  0  0
    1.5847    1.6050    2.3172 S   0  0  0  0  0  0  0  0  0  0  0  0
    2.8851    2.1479    3.3208 C   0  0  0  0  0  0  0  0  0  0  0  0
    4.1089    1.8083    2.8082 C   0  0  0  0  0  0  0  0  0  0  0  0
    3.9840    1.1082    1.5691 C   0  0  0  0  0  0  0  0  0  0  0  0
    5.3727    0.5118    0.7004 Cl  0  0  0  0  0  0  0  0  0  0  0  0
    0.2827   -0.3996   -0.6941 H   0  0  0  0  0  0  0  0  0  0  0  0
    0.3939    1.2121   -0.4718 H   0  0  0  0  0  0  0  0  0  0  0  0
    2.3868   -0.8614    0.0446 H   0  0  0  0  0  0  0  0  0  0  0  0
    2.6640    2.8034   -0.9644 H   0  0  0  0  0  0  0  0  0  0  0  0
    3.5694    3.4381   -3.2226 H   0  0  0  0  0  0  0  0  0  0  0  0
    4.1898    1.6188   -4.8288 H   0  0  0  0  0  0  0  0  0  0  0  0
    3.0849   -1.3267   -2.1409 H   0  0  0  0  0  0  0  0  0  0  0  0
    2.6759    2.6819    4.2469 H   0  0  0  0  0  0  0  0  0  0  0  0
    5.0677    2.0323    3.2762 H   0  0  0  0  0  0  0  0  0  0  0  0
  1  2  1  0
  1 15  1  0
  1 16  1  0
  2  3  1  0
  2  9  1  0
  2 17  1  1
  3  4  2  0
  3  8  1  0
  4  5  1  0
  4 18  1  0
  5  6  2  0
  5 19  1  0
  6  7  1  0
  6 20  1  0
  7  8  2  0
  8 21  1  0
  9 10  1  0
  9 13  2  0
 10 11  1  0
 11 12  2  0
 11 22  1  0
 12 13  1  0
 12 23  1  0
 13 14  1  0
M  END

