
     RDKit          3D

 66 70  0  0  0  0  0  0  0  0999 V2000
    1.0102   -0.3344    1.0180 C   0  0  0  0  0  0  0  0  0  0  0  0
    2.3100   -0.0934    0.2480 C   0  0  0  0  0  0  0  0  0  0  0  0
    3.0615    1.0720    0.7280 N   0  0  0  0  0  0  0  0  0  0  0  0
    3.8045    1.0710    1.9174 C   0  0  0  0  0  0  0  0  0  0  0  0
    4.4530    0.0214    2.6148 C   0  0  0  0  0  0  0  0  0  0  0  0
    4.5812   -1.3690    2.1210 C   0  0  0  0  0  0  0  0  0  0  0  0
    5.2182   -1.8348    0.9903 C   0  0  0  0  0  0  0  0  0  0  0  0
    5.1934   -3.2569    0.8683 C   0  0  0  0  0  0  0  0  0  0  0  0
    4.5398   -3.8668    1.9096 C   0  0  0  0  0  0  0  0  0  0  0  0
    3.9461   -2.7088    3.0488 S   0  0  0  0  0  0  0  0  0  0  0  0
    5.0715    0.3534    3.8313 C   0  0  0  0  0  0  0  0  0  0  0  0
    5.1236    1.6566    4.3716 C   0  0  0  0  0  0  0  0  0  0  0  0
    5.8447    1.8955    5.7136 C   0  0  1  0  0  0  0  0  0  0  0  0
    7.3291    1.4806    5.5880 C   0  0  0  0  0  0  0  0  0  0  0  0
    5.7951    3.3740    6.1392 C   0  0  0  0  0  0  0  0  0  0  0  0
    5.1685    1.0529    6.8198 C   0  0  0  0  0  0  0  0  0  0  0  0
    4.5251    2.6811    3.6340 C   0  0  0  0  0  0  0  0  0  0  0  0
    3.8729    2.3932    2.4283 C   0  0  0  0  0  0  0  0  0  0  0  0
    3.1563    3.2381    1.4985 C   0  0  0  0  0  0  0  0  0  0  0  0
    2.8859    4.6124    1.5092 C   0  0  0  0  0  0  0  0  0  0  0  0
    2.1271    5.1874    0.4866 C   0  0  0  0  0  0  0  0  0  0  0  0
    1.7750    6.6881    0.4411 C   0  0  1  0  0  0  0  0  0  0  0  0
    2.3323    7.4478    1.6584 C   0  0  0  0  0  0  0  0  0  0  0  0
    2.3699    7.3238   -0.8368 C   0  0  0  0  0  0  0  0  0  0  0  0
    0.2381    6.8572    0.4304 C   0  0  0  0  0  0  0  0  0  0  0  0
    1.6917    4.3381   -0.5536 C   0  0  0  0  0  0  0  0  0  0  0  0
    1.9609    2.9612   -0.6208 C   0  0  0  0  0  0  0  0  0  0  0  0
    1.5380    2.2235   -1.8332 C   0  0  0  0  0  0  0  0  0  0  0  0
    2.3143    1.5918   -2.7817 C   0  0  0  0  0  0  0  0  0  0  0  0
    1.5583    1.0363   -3.8577 C   0  0  0  0  0  0  0  0  0  0  0  0
    0.2095    1.2514   -3.7242 C   0  0  0  0  0  0  0  0  0  0  0  0
   -0.1506    2.1331   -2.2805 S   0  0  0  0  0  0  0  0  0  0  0  0
    2.6822    2.3952    0.4600 C   0  0  0  0  0  0  0  0  0  0  0  0
    0.4954   -1.2207    0.6135 H   0  0  0  0  0  0  0  0  0  0  0  0
    0.3255    0.5234    0.9286 H   0  0  0  0  0  0  0  0  0  0  0  0
    1.2042   -0.5154    2.0868 H   0  0  0  0  0  0  0  0  0  0  0  0
    2.0971    0.0536   -0.8160 H   0  0  0  0  0  0  0  0  0  0  0  0
    2.9609   -0.9709    0.3208 H   0  0  0  0  0  0  0  0  0  0  0  0
    5.7011   -1.1678    0.2742 H   0  0  0  0  0  0  0  0  0  0  0  0
    5.6508   -3.8054    0.0430 H   0  0  0  0  0  0  0  0  0  0  0  0
    4.3766   -4.9315    2.0719 H   0  0  0  0  0  0  0  0  0  0  0  0
    5.5687   -0.4611    4.3619 H   0  0  0  0  0  0  0  0  0  0  0  0
    7.8384    2.0696    4.8087 H   0  0  0  0  0  0  0  0  0  0  0  0
    7.4383    0.4168    5.3274 H   0  0  0  0  0  0  0  0  0  0  0  0
    7.8586    1.6457    6.5411 H   0  0  0  0  0  0  0  0  0  0  0  0
    6.2930    4.0293    5.4075 H   0  0  0  0  0  0  0  0  0  0  0  0
    6.3125    3.5030    7.1030 H   0  0  0  0  0  0  0  0  0  0  0  0
    4.7608    3.7294    6.2693 H   0  0  0  0  0  0  0  0  0  0  0  0
    5.2046   -0.0242    6.5959 H   0  0  0  0  0  0  0  0  0  0  0  0
    4.1100    1.3344    6.9383 H   0  0  0  0  0  0  0  0  0  0  0  0
    5.6733    1.2089    7.7877 H   0  0  0  0  0  0  0  0  0  0  0  0
    4.5475    3.7132    3.9843 H   0  0  0  0  0  0  0  0  0  0  0  0
    3.2705    5.2162    2.3314 H   0  0  0  0  0  0  0  0  0  0  0  0
    3.4313    7.3960    1.7074 H   0  0  0  0  0  0  0  0  0  0  0  0
    1.9284    7.0577    2.6058 H   0  0  0  0  0  0  0  0  0  0  0  0
    2.0551    8.5118    1.5939 H   0  0  0  0  0  0  0  0  0  0  0  0
    3.4668    7.2226   -0.8535 H   0  0  0  0  0  0  0  0  0  0  0  0
    2.1257    8.3982   -0.8838 H   0  0  0  0  0  0  0  0  0  0  0  0
    1.9772    6.8537   -1.7513 H   0  0  0  0  0  0  0  0  0  0  0  0
   -0.2128    6.4212    1.3361 H   0  0  0  0  0  0  0  0  0  0  0  0
   -0.2232    6.3679   -0.4410 H   0  0  0  0  0  0  0  0  0  0  0  0
   -0.0332    7.9255    0.3947 H   0  0  0  0  0  0  0  0  0  0  0  0
    1.1356    4.7661   -1.3901 H   0  0  0  0  0  0  0  0  0  0  0  0
    3.4020    1.5418   -2.7085 H   0  0  0  0  0  0  0  0  0  0  0  0
    2.0008    0.5050   -4.7021 H   0  0  0  0  0  0  0  0  0  0  0  0
   -0.5917    0.9432   -4.3947 H   0  0  0  0  0  0  0  0  0  0  0  0
  1  2  1  0
  1 34  1  0
  1 35  1  0
  1 36  1  0
  2  3  1  0
  2 37  1  0
  2 38  1  0
  3  4  1  0
  3 33  1  0
  4  5  2  0
  4 18  1  0
  5  6  1  0
  5 11  1  0
  6  7  2  0
  6 10  1  0
  7  8  1  0
  7 39  1  0
  8  9  2  0
  8 40  1  0
  9 10  1  0
  9 41  1  0
 11 12  2  0
 11 42  1  0
 12 13  1  0
 12 17  1  0
 13 14  1  6
 13 15  1  0
 13 16  1  0
 14 43  1  0
 14 44  1  0
 14 45  1  0
 15 46  1  0
 15 47  1  0
 15 48  1  0
 16 49  1  0
 16 50  1  0
 16 51  1  0
 17 18  2  0
 17 52  1  0
 18 19  1  0
 19 20  1  0
 19 33  2  0
 20 21  2  0
 20 53  1  0
 21 22  1  0
 21 26  1  0
 22 23  1  1
 22 24  1  0
 22 25  1  0
 23 54  1  0
 23 55  1  0
 23 56  1  0
 24 57  1  0
 24 58  1  0
 24 59  1  0
 25 60  1  0
 25 61  1  0
 25 62  1  0
 26 27  2  0
 26 63  1  0
 27 28  1  0
 27 33  1  0
 28 29  2  0
 28 32  1  0
 29 30  1  0
 29 64  1  0
 30 31  2  0
 30 65  1  0
 31 32  1  0
 31 66  1  0
M  END

