
     RDKit          3D

 50 52  0  0  0  0  0  0  0  0999 V2000
    4.2747   -3.6658    3.7437 C   0  0  0  0  0  0  0  0  0  0  0  0
    4.1992   -3.0649    2.4724 O   0  0  0  0  0  0  0  0  0  0  0  0
    4.4620   -1.7269    2.3472 C   0  0  0  0  0  0  0  0  0  0  0  0
    4.8203   -0.8836    3.3971 C   0  0  0  0  0  0  0  0  0  0  0  0
    5.0598    0.4792    3.1578 C   0  0  0  0  0  0  0  0  0  0  0  0
    4.9302    0.9838    1.8677 C   0  0  0  0  0  0  0  0  0  0  0  0
    4.5671    0.1409    0.8084 C   0  0  0  0  0  0  0  0  0  0  0  0
    4.3348   -1.2250    1.0207 C   0  0  0  0  0  0  0  0  0  0  0  0
    4.0244   -2.1379    0.0138 N   0  0  0  0  0  0  0  0  0  0  0  0
    3.5121   -1.7616   -1.2928 C   0  0  2  0  0  0  0  0  0  0  0  0
    4.1044   -0.9124   -1.6682 H   0  0  0  0  0  0  0  0  0  0  0  0
    2.0271   -1.3565   -1.2947 C   0  0  0  0  0  0  0  0  0  0  0  0
    1.5861   -1.0394   -2.6438 N   0  0  0  0  0  0  0  0  0  0  0  0
    0.3211   -0.2983   -2.7482 C   0  0  1  0  0  0  0  0  0  0  0  0
   -0.8977   -1.0382   -2.1707 C   0  0  0  0  0  0  0  0  0  0  0  0
    0.4991    1.1299   -2.2197 C   0  0  0  0  0  0  0  0  0  0  0  0
    1.6050    1.8790   -2.6609 C   0  0  0  0  0  0  0  0  0  0  0  0
    1.7976    3.1956   -2.2425 C   0  0  0  0  0  0  0  0  0  0  0  0
    0.8863    3.7960   -1.3654 C   0  0  0  0  0  0  0  0  0  0  0  0
   -0.2136    3.0643   -0.9170 C   0  0  0  0  0  0  0  0  0  0  0  0
   -0.4053    1.7432   -1.3415 C   0  0  0  0  0  0  0  0  0  0  0  0
    1.7400   -2.1585   -3.5634 C   0  0  0  0  0  0  0  0  0  0  0  0
    3.2038   -2.5972   -3.6429 C   0  0  0  0  0  0  0  0  0  0  0  0
    3.7547   -2.9286   -2.2609 C   0  0  1  0  0  0  0  0  0  0  0  0
    3.1876   -3.8043   -1.8644 H   0  0  0  0  0  0  0  0  0  0  0  0
    5.1250   -3.2341   -2.3587 O   0  0  0  0  0  0  0  0  0  0  0  0
    4.0232   -4.7265    3.6079 H   0  0  0  0  0  0  0  0  0  0  0  0
    3.5580   -3.2153    4.4544 H   0  0  0  0  0  0  0  0  0  0  0  0
    5.2905   -3.5914    4.1722 H   0  0  0  0  0  0  0  0  0  0  0  0
    4.9160   -1.2773    4.4095 H   0  0  0  0  0  0  0  0  0  0  0  0
    5.3406    1.1322    3.9871 H   0  0  0  0  0  0  0  0  0  0  0  0
    5.1055    2.0440    1.6696 H   0  0  0  0  0  0  0  0  0  0  0  0
    4.4622    0.5576   -0.1941 H   0  0  0  0  0  0  0  0  0  0  0  0
    3.6462   -3.0049    0.3867 H   0  0  0  0  0  0  0  0  0  0  0  0
    1.8874   -0.4755   -0.6500 H   0  0  0  0  0  0  0  0  0  0  0  0
    1.4426   -2.1888   -0.8361 H   0  0  0  0  0  0  0  0  0  0  0  0
    0.1436   -0.1965   -3.8346 H   0  0  0  0  0  0  0  0  0  0  0  0
   -0.8477   -1.1317   -1.0747 H   0  0  0  0  0  0  0  0  0  0  0  0
   -0.9645   -2.0526   -2.5931 H   0  0  0  0  0  0  0  0  0  0  0  0
   -1.8345   -0.5177   -2.4216 H   0  0  0  0  0  0  0  0  0  0  0  0
    2.3229    1.4044   -3.3337 H   0  0  0  0  0  0  0  0  0  0  0  0
    2.6632    3.7587   -2.6021 H   0  0  0  0  0  0  0  0  0  0  0  0
    1.0358    4.8269   -1.0344 H   0  0  0  0  0  0  0  0  0  0  0  0
   -0.9314    3.5193   -0.2292 H   0  0  0  0  0  0  0  0  0  0  0  0
   -1.2750    1.1961   -0.9746 H   0  0  0  0  0  0  0  0  0  0  0  0
    1.3919   -1.8445   -4.5607 H   0  0  0  0  0  0  0  0  0  0  0  0
    1.1137   -3.0344   -3.2716 H   0  0  0  0  0  0  0  0  0  0  0  0
    3.8150   -1.7879   -4.0748 H   0  0  0  0  0  0  0  0  0  0  0  0
    3.3072   -3.4761   -4.2995 H   0  0  0  0  0  0  0  0  0  0  0  0
    5.4773   -3.1636   -1.4570 H   0  0  0  0  0  0  0  0  0  0  0  0
  1  2  1  0
  1 27  1  0
  1 28  1  0
  1 29  1  0
  2  3  1  0
  3  4  2  0
  3  8  1  0
  4  5  1  0
  4 30  1  0
  5  6  2  0
  5 31  1  0
  6  7  1  0
  6 32  1  0
  7  8  2  0
  7 33  1  0
  8  9  1  0
  9 10  1  0
  9 34  1  0
 10 11  1  6
 10 12  1  0
 10 24  1  0
 12 13  1  0
 12 35  1  0
 12 36  1  0
 13 14  1  0
 13 22  1  0
 14 15  1  0
 14 16  1  0
 14 37  1  6
 15 38  1  0
 15 39  1  0
 15 40  1  0
 16 17  2  0
 16 21  1  0
 17 18  1  0
 17 41  1  0
 18 19  2  0
 18 42  1  0
 19 20  1  0
 19 43  1  0
 20 21  2  0
 20 44  1  0
 21 45  1  0
 22 23  1  0
 22 46  1  0
 22 47  1  0
 23 24  1  0
 23 48  1  0
 23 49  1  0
 24 25  1  1
 24 26  1  0
 26 50  1  0
M  END

