
     RDKit          3D

 47 48  0  0  0  0  0  0  0  0999 V2000
    0.7009    0.5000    1.9903 C   0  0  0  0  0  0  0  0  0  0  0  0
    2.0958    0.4008    1.7992 O   0  0  0  0  0  0  0  0  0  0  0  0
    2.8151    1.5229    1.5253 C   0  0  0  0  0  0  0  0  0  0  0  0
    2.2825    2.8086    1.4015 C   0  0  0  0  0  0  0  0  0  0  0  0
    3.1147    3.8904    1.1057 C   0  0  0  0  0  0  0  0  0  0  0  0
    4.4914    3.7012    0.9218 C   0  0  0  0  0  0  0  0  0  0  0  0
    5.3223    4.9094    0.6090 C   0  0  0  0  0  0  0  0  0  0  0  0
    4.8178    6.0194    0.6104 O   0  0  0  0  0  0  0  0  0  0  0  0
    6.8242    4.7411    0.2511 C   0  0  1  0  0  0  0  0  0  0  0  0
    6.9337    4.2569   -1.2089 C   0  0  0  0  0  0  0  0  0  0  0  0
    7.6584    5.8916    0.5200 N   0  0  0  0  0  0  0  0  0  0  0  0
    7.6692    7.0828   -0.3189 C   0  0  0  0  0  0  0  0  0  0  0  0
    7.0287    8.3105    0.3561 C   0  0  0  0  0  0  0  0  0  0  0  0
    7.5519    8.5597    1.7071 N   0  0  0  0  0  0  0  0  0  0  0  0
    8.8392    9.2565    1.7613 C   0  0  0  0  0  0  0  0  0  0  0  0
    8.6122   10.7679    1.6304 C   0  0  0  0  0  0  0  0  0  0  0  0
    7.6269   11.1906    2.5351 O   0  0  0  0  0  0  0  0  0  0  0  0
    7.4380    7.3504    2.5265 C   0  0  0  0  0  0  0  0  0  0  0  0
    8.1187    6.1335    1.8779 C   0  0  0  0  0  0  0  0  0  0  0  0
    5.0212    2.4000    1.0506 C   0  0  0  0  0  0  0  0  0  0  0  0
    4.2099    1.3016    1.3534 C   0  0  0  0  0  0  0  0  0  0  0  0
    4.7114    0.0248    1.5412 N   0  0  0  0  0  0  0  0  0  0  0  0
    0.3394   -0.5158    2.1985 H   0  0  0  0  0  0  0  0  0  0  0  0
    0.1916    0.8857    1.0892 H   0  0  0  0  0  0  0  0  0  0  0  0
    0.4530    1.1520    2.8464 H   0  0  0  0  0  0  0  0  0  0  0  0
    1.2129    2.9750    1.5332 H   0  0  0  0  0  0  0  0  0  0  0  0
    2.7107    4.8990    1.0111 H   0  0  0  0  0  0  0  0  0  0  0  0
    7.2217    3.9309    0.8852 H   0  0  0  0  0  0  0  0  0  0  0  0
    6.4695    4.9681   -1.9087 H   0  0  0  0  0  0  0  0  0  0  0  0
    6.4251    3.2911   -1.3430 H   0  0  0  0  0  0  0  0  0  0  0  0
    7.9938    4.1423   -1.4815 H   0  0  0  0  0  0  0  0  0  0  0  0
    7.1487    6.8831   -1.2654 H   0  0  0  0  0  0  0  0  0  0  0  0
    8.7198    7.3245   -0.5872 H   0  0  0  0  0  0  0  0  0  0  0  0
    5.9454    8.1394    0.4331 H   0  0  0  0  0  0  0  0  0  0  0  0
    7.1897    9.2062   -0.2655 H   0  0  0  0  0  0  0  0  0  0  0  0
    9.5753    8.9139    1.0048 H   0  0  0  0  0  0  0  0  0  0  0  0
    9.2831    9.0621    2.7512 H   0  0  0  0  0  0  0  0  0  0  0  0
    8.3427   11.0198    0.5810 H   0  0  0  0  0  0  0  0  0  0  0  0
    9.5522   11.3038    1.8491 H   0  0  0  0  0  0  0  0  0  0  0  0
    6.9895   10.4520    2.5359 H   0  0  0  0  0  0  0  0  0  0  0  0
    6.3654    7.1335    2.6637 H   0  0  0  0  0  0  0  0  0  0  0  0
    7.8699    7.5486    3.5216 H   0  0  0  0  0  0  0  0  0  0  0  0
    7.9452    5.2333    2.4901 H   0  0  0  0  0  0  0  0  0  0  0  0
    9.2170    6.3037    1.8734 H   0  0  0  0  0  0  0  0  0  0  0  0
    6.0906    2.2178    0.9281 H   0  0  0  0  0  0  0  0  0  0  0  0
    5.5958   -0.1882    1.0966 H   0  0  0  0  0  0  0  0  0  0  0  0
    4.0265   -0.7203    1.4917 H   0  0  0  0  0  0  0  0  0  0  0  0
  1  2  1  0
  1 23  1  0
  1 24  1  0
  1 25  1  0
  2  3  1  0
  3  4  2  0
  3 21  1  0
  4  5  1  0
  4 26  1  0
  5  6  2  0
  5 27  1  0
  6  7  1  0
  6 20  1  0
  7  8  2  0
  7  9  1  0
  9 10  1  0
  9 11  1  0
  9 28  1  1
 10 29  1  0
 10 30  1  0
 10 31  1  0
 11 12  1  0
 11 19  1  0
 12 13  1  0
 12 32  1  0
 12 33  1  0
 13 14  1  0
 13 34  1  0
 13 35  1  0
 14 15  1  0
 14 18  1  0
 15 16  1  0
 15 36  1  0
 15 37  1  0
 16 17  1  0
 16 38  1  0
 16 39  1  0
 17 40  1  0
 18 19  1  0
 18 41  1  0
 18 42  1  0
 19 43  1  0
 19 44  1  0
 20 21  2  0
 20 45  1  0
 21 22  1  0
 22 46  1  0
 22 47  1  0
M  END

