
     RDKit          3D

 52 52  0  0  0  0  0  0  0  0999 V2000
    0.7060    0.8458   -0.1010 C   0  0  0  0  0  0  0  0  0  0  0  0
    2.1427    0.3289   -0.1076 C   0  0  0  0  0  0  0  0  0  0  0  0
    3.1572    1.2559    0.5934 C   0  0  1  0  0  0  0  0  0  0  0  0
    4.5836    0.6621    0.5715 C   0  0  0  0  0  0  0  0  0  0  0  0
    5.2318    0.7279   -0.7365 N   0  0  0  0  0  0  0  0  0  0  0  0
    5.2295    2.0704   -1.3435 C   0  0  2  0  0  0  0  0  0  0  0  0
    6.4078    2.9202   -0.7906 C   0  0  1  0  0  0  0  0  0  0  0  0
    7.7427    2.2082   -1.0497 C   0  0  0  0  0  0  0  0  0  0  0  0
    6.4395    4.3378   -1.3774 C   0  0  0  0  0  0  0  0  0  0  0  0
    3.8134    2.7048   -1.2635 C   0  0  0  0  0  0  0  0  0  0  0  0
    3.1506    2.6177    0.0370 N   0  0  0  0  0  0  0  0  0  0  0  0
    3.3976    3.7046    0.9803 C   0  0  0  0  0  0  0  0  0  0  0  0
    2.7616    5.0455    0.5853 C   0  0  0  0  0  0  0  0  0  0  0  0
    1.2363    5.0183    0.4576 C   0  0  0  0  0  0  0  0  0  0  0  0
    0.6358    6.3814    0.0984 C   0  0  0  0  0  0  0  0  0  0  0  0
   -0.8868    6.3992   -0.1363 C   0  0  1  0  0  0  0  0  0  0  0  0
   -1.6847    6.0270    1.1207 C   0  0  0  0  0  0  0  0  0  0  0  0
   -1.3353    7.7630   -0.6776 C   0  0  0  0  0  0  0  0  0  0  0  0
    0.0214    0.1300   -0.5838 H   0  0  0  0  0  0  0  0  0  0  0  0
    0.6296    1.8064   -0.6310 H   0  0  0  0  0  0  0  0  0  0  0  0
    0.3453    1.0095    0.9286 H   0  0  0  0  0  0  0  0  0  0  0  0
    2.4603    0.1385   -1.1480 H   0  0  0  0  0  0  0  0  0  0  0  0
    2.1889   -0.6522    0.3978 H   0  0  0  0  0  0  0  0  0  0  0  0
    2.8375    1.3397    1.6466 H   0  0  0  0  0  0  0  0  0  0  0  0
    4.5728   -0.3898    0.9041 H   0  0  0  0  0  0  0  0  0  0  0  0
    5.2080    1.2087    1.2994 H   0  0  0  0  0  0  0  0  0  0  0  0
    4.8044    0.0595   -1.3739 H   0  0  0  0  0  0  0  0  0  0  0  0
    5.4456    1.9257   -2.4188 H   0  0  0  0  0  0  0  0  0  0  0  0
    6.2866    3.0116    0.3037 H   0  0  0  0  0  0  0  0  0  0  0  0
    7.9526    2.1570   -2.1330 H   0  0  0  0  0  0  0  0  0  0  0  0
    7.7176    1.1797   -0.6652 H   0  0  0  0  0  0  0  0  0  0  0  0
    8.5790    2.7471   -0.5755 H   0  0  0  0  0  0  0  0  0  0  0  0
    6.4674    4.3097   -2.4810 H   0  0  0  0  0  0  0  0  0  0  0  0
    7.3413    4.8747   -1.0419 H   0  0  0  0  0  0  0  0  0  0  0  0
    5.5722    4.9461   -1.0804 H   0  0  0  0  0  0  0  0  0  0  0  0
    3.1864    2.1756   -2.0050 H   0  0  0  0  0  0  0  0  0  0  0  0
    3.8275    3.7538   -1.5905 H   0  0  0  0  0  0  0  0  0  0  0  0
    4.4775    3.8789    1.1787 H   0  0  0  0  0  0  0  0  0  0  0  0
    2.9640    3.3959    1.9463 H   0  0  0  0  0  0  0  0  0  0  0  0
    3.2030    5.4131   -0.3587 H   0  0  0  0  0  0  0  0  0  0  0  0
    3.0566    5.7873    1.3499 H   0  0  0  0  0  0  0  0  0  0  0  0
    0.8078    4.6517    1.4073 H   0  0  0  0  0  0  0  0  0  0  0  0
    0.9527    4.2751   -0.3065 H   0  0  0  0  0  0  0  0  0  0  0  0
    1.1326    6.7537   -0.8165 H   0  0  0  0  0  0  0  0  0  0  0  0
    0.8834    7.1153    0.8898 H   0  0  0  0  0  0  0  0  0  0  0  0
   -1.1091    5.6410   -0.9120 H   0  0  0  0  0  0  0  0  0  0  0  0
   -1.4801    6.7375    1.9410 H   0  0  0  0  0  0  0  0  0  0  0  0
   -1.4410    5.0172    1.4851 H   0  0  0  0  0  0  0  0  0  0  0  0
   -2.7690    6.0527    0.9238 H   0  0  0  0  0  0  0  0  0  0  0  0
   -1.1329    8.5641    0.0546 H   0  0  0  0  0  0  0  0  0  0  0  0
   -2.4164    7.7761   -0.8922 H   0  0  0  0  0  0  0  0  0  0  0  0
   -0.8050    8.0232   -1.6083 H   0  0  0  0  0  0  0  0  0  0  0  0
  1  2  1  0
  1 19  1  0
  1 20  1  0
  1 21  1  0
  2  3  1  0
  2 22  1  0
  2 23  1  0
  3  4  1  0
  3 11  1  0
  3 24  1  1
  4  5  1  0
  4 25  1  0
  4 26  1  0
  5  6  1  0
  5 27  1  0
  6  7  1  0
  6 10  1  0
  6 28  1  6
  7  8  1  0
  7  9  1  0
  7 29  1  1
  8 30  1  0
  8 31  1  0
  8 32  1  0
  9 33  1  0
  9 34  1  0
  9 35  1  0
 10 11  1  0
 10 36  1  0
 10 37  1  0
 11 12  1  0
 12 13  1  0
 12 38  1  0
 12 39  1  0
 13 14  1  0
 13 40  1  0
 13 41  1  0
 14 15  1  0
 14 42  1  0
 14 43  1  0
 15 16  1  0
 15 44  1  0
 15 45  1  0
 16 17  1  0
 16 18  1  0
 16 46  1  6
 17 47  1  0
 17 48  1  0
 17 49  1  0
 18 50  1  0
 18 51  1  0
 18 52  1  0
M  END

