
     RDKit          3D

 38 39  0  0  0  0  0  0  0  0999 V2000
    2.6472    0.3325    3.2816 C   0  0  0  0  0  0  0  0  0  0  0  0
    4.1233    0.0449    3.0042 C   0  0  0  0  0  0  0  0  0  0  0  0
    4.4300   -0.1781    1.5205 C   0  0  0  0  0  0  0  0  0  0  0  0
    5.9049   -0.4644    1.2106 C   0  0  0  0  0  0  0  0  0  0  0  0
    6.4121   -1.6890    1.8158 N   0  0  0  0  0  0  0  0  0  0  0  0
    6.4776   -2.8640    1.1400 C   0  0  0  0  0  0  0  0  0  0  0  0
    6.0984   -3.0184   -0.0122 O   0  0  0  0  0  0  0  0  0  0  0  0
    7.1119   -4.0178    1.9427 C   0  0  0  0  0  0  0  0  0  0  0  0
    8.5598   -3.9012    2.0539 N   0  0  0  0  0  0  0  0  0  0  0  0
    9.1029   -3.1544    3.0789 C   0  0  0  0  0  0  0  0  0  0  0  0
    8.4780   -2.5273    3.9092 O   0  0  0  0  0  0  0  0  0  0  0  0
   10.6479   -3.2708    2.9367 C   0  0  0  0  0  0  0  0  0  0  0  0
   11.4501   -2.7665    3.6816 O   0  0  0  0  0  0  0  0  0  0  0  0
   10.8451   -4.0905    1.7290 C   0  0  0  0  0  0  0  0  0  0  0  0
   12.0394   -4.4791    1.1283 C   0  0  0  0  0  0  0  0  0  0  0  0
   11.9320   -5.2401   -0.0302 C   0  0  0  0  0  0  0  0  0  0  0  0
   13.0406   -5.6488   -0.6628 F   0  0  0  0  0  0  0  0  0  0  0  0
   10.6893   -5.5861   -0.5598 C   0  0  0  0  0  0  0  0  0  0  0  0
    9.4693   -5.2022    0.0350 C   0  0  0  0  0  0  0  0  0  0  0  0
    8.1728   -5.6197   -0.6182 C   0  0  0  0  0  0  0  0  0  0  0  0
    9.5770   -4.4409    1.2125 C   0  0  0  0  0  0  0  0  0  0  0  0
    2.4604    0.4866    4.3562 H   0  0  0  0  0  0  0  0  0  0  0  0
    2.0076   -0.5018    2.9483 H   0  0  0  0  0  0  0  0  0  0  0  0
    2.3082    1.2383    2.7515 H   0  0  0  0  0  0  0  0  0  0  0  0
    4.4356   -0.8453    3.5789 H   0  0  0  0  0  0  0  0  0  0  0  0
    4.7403    0.8814    3.3817 H   0  0  0  0  0  0  0  0  0  0  0  0
    4.1316    0.7163    0.9441 H   0  0  0  0  0  0  0  0  0  0  0  0
    3.8203   -1.0121    1.1307 H   0  0  0  0  0  0  0  0  0  0  0  0
    6.5340    0.3732    1.5567 H   0  0  0  0  0  0  0  0  0  0  0  0
    6.0402   -0.5613    0.1237 H   0  0  0  0  0  0  0  0  0  0  0  0
    6.7938   -1.6643    2.7590 H   0  0  0  0  0  0  0  0  0  0  0  0
    6.8393   -4.9615    1.4651 H   0  0  0  0  0  0  0  0  0  0  0  0
    6.7161   -4.0140    2.9697 H   0  0  0  0  0  0  0  0  0  0  0  0
   13.0069   -4.1950    1.5455 H   0  0  0  0  0  0  0  0  0  0  0  0
   10.6744   -6.1767   -1.4787 H   0  0  0  0  0  0  0  0  0  0  0  0
    8.3690   -6.0170   -1.6239 H   0  0  0  0  0  0  0  0  0  0  0  0
    7.4606   -4.7854   -0.7121 H   0  0  0  0  0  0  0  0  0  0  0  0
    7.6730   -6.4218   -0.0486 H   0  0  0  0  0  0  0  0  0  0  0  0
  1  2  1  0
  1 22  1  0
  1 23  1  0
  1 24  1  0
  2  3  1  0
  2 25  1  0
  2 26  1  0
  3  4  1  0
  3 27  1  0
  3 28  1  0
  4  5  1  0
  4 29  1  0
  4 30  1  0
  5  6  1  0
  5 31  1  0
  6  7  2  0
  6  8  1  0
  8  9  1  0
  8 32  1  0
  8 33  1  0
  9 10  1  0
  9 21  1  0
 10 11  2  0
 10 12  1  0
 12 13  2  0
 12 14  1  0
 14 15  2  0
 14 21  1  0
 15 16  1  0
 15 34  1  0
 16 17  1  0
 16 18  2  0
 18 19  1  0
 18 35  1  0
 19 20  1  0
 19 21  2  0
 20 36  1  0
 20 37  1  0
 20 38  1  0
M  END

