
     RDKit          3D

 41 42  0  0  0  0  0  0  0  0999 V2000
    5.5220   -0.1132    2.2338 C   0  0  0  0  0  0  0  0  0  0  0  0
    6.6908   -0.7416    1.4737 C   0  0  0  0  0  0  0  0  0  0  0  0
    6.4636   -0.7944   -0.0410 C   0  0  0  0  0  0  0  0  0  0  0  0
    7.6348   -1.4293   -0.7781 C   0  0  0  0  0  0  0  0  0  0  0  0
    7.3744   -1.5477   -2.1951 O   0  0  0  0  0  0  0  0  0  0  0  0
    7.6643   -0.4969   -2.9987 C   0  0  0  0  0  0  0  0  0  0  0  0
    8.1392    0.5300   -2.5760 O   0  0  0  0  0  0  0  0  0  0  0  0
    7.3472   -0.7350   -4.4454 C   0  0  0  0  0  0  0  0  0  0  0  0
    7.6542    0.3404   -5.2978 C   0  0  0  0  0  0  0  0  0  0  0  0
    7.4218    0.2793   -6.6676 C   0  0  0  0  0  0  0  0  0  0  0  0
    6.8669   -0.8831   -7.2110 C   0  0  0  0  0  0  0  0  0  0  0  0
    6.5493   -1.9685   -6.3976 C   0  0  0  0  0  0  0  0  0  0  0  0
    6.7819   -1.9158   -5.0094 C   0  0  0  0  0  0  0  0  0  0  0  0
    6.4622   -3.0075   -4.1882 N   0  0  0  0  0  0  0  0  0  0  0  0
    5.9235   -4.2033   -4.5152 C   0  0  0  0  0  0  0  0  0  0  0  0
    5.5858   -4.6217   -5.6143 O   0  0  0  0  0  0  0  0  0  0  0  0
    5.7506   -5.0900   -3.2589 C   0  0  0  0  0  0  0  0  0  0  0  0
    6.0576   -4.7455   -2.1380 O   0  0  0  0  0  0  0  0  0  0  0  0
    5.2079   -6.2979   -3.6038 N   0  0  0  0  0  0  0  0  0  0  0  0
    4.9482   -7.2666   -2.6766 N   0  0  0  0  0  0  0  0  0  0  0  0
    3.7986   -7.4398   -1.9385 C   0  0  0  0  0  0  0  0  0  0  0  0
    3.9394   -8.4519   -1.1303 N   0  0  0  0  0  0  0  0  0  0  0  0
    5.2055   -8.9670   -1.3141 N   0  0  0  0  0  0  0  0  0  0  0  0
    5.7981   -8.2535   -2.2291 C   0  0  0  0  0  0  0  0  0  0  0  0
    5.7156   -0.0868    3.3177 H   0  0  0  0  0  0  0  0  0  0  0  0
    4.5900   -0.6809    2.0754 H   0  0  0  0  0  0  0  0  0  0  0  0
    5.3392    0.9222    1.9019 H   0  0  0  0  0  0  0  0  0  0  0  0
    6.8701   -1.7639    1.8531 H   0  0  0  0  0  0  0  0  0  0  0  0
    7.6150   -0.1736    1.6843 H   0  0  0  0  0  0  0  0  0  0  0  0
    6.3068    0.2256   -0.4302 H   0  0  0  0  0  0  0  0  0  0  0  0
    5.5494   -1.3720   -0.2639 H   0  0  0  0  0  0  0  0  0  0  0  0
    7.8016   -2.4634   -0.4447 H   0  0  0  0  0  0  0  0  0  0  0  0
    8.5557   -0.8447   -0.6412 H   0  0  0  0  0  0  0  0  0  0  0  0
    8.0856    1.2314   -4.8392 H   0  0  0  0  0  0  0  0  0  0  0  0
    7.6704    1.1296   -7.3062 H   0  0  0  0  0  0  0  0  0  0  0  0
    6.6760   -0.9516   -8.2850 H   0  0  0  0  0  0  0  0  0  0  0  0
    6.1175   -2.8728   -6.8202 H   0  0  0  0  0  0  0  0  0  0  0  0
    6.6648   -2.8826   -3.1916 H   0  0  0  0  0  0  0  0  0  0  0  0
    4.9918   -6.4630   -4.5866 H   0  0  0  0  0  0  0  0  0  0  0  0
    2.9218   -6.8025   -2.0470 H   0  0  0  0  0  0  0  0  0  0  0  0
    6.8095   -8.3844   -2.6119 H   0  0  0  0  0  0  0  0  0  0  0  0
  1  2  1  0
  1 25  1  0
  1 26  1  0
  1 27  1  0
  2  3  1  0
  2 28  1  0
  2 29  1  0
  3  4  1  0
  3 30  1  0
  3 31  1  0
  4  5  1  0
  4 32  1  0
  4 33  1  0
  5  6  1  0
  6  7  2  0
  6  8  1  0
  8  9  2  0
  8 13  1  0
  9 10  1  0
  9 34  1  0
 10 11  2  0
 10 35  1  0
 11 12  1  0
 11 36  1  0
 12 13  2  0
 12 37  1  0
 13 14  1  0
 14 15  1  0
 14 38  1  0
 15 16  2  0
 15 17  1  0
 17 18  2  0
 17 19  1  0
 19 20  1  0
 19 39  1  0
 20 21  1  0
 20 24  1  0
 21 22  2  0
 21 40  1  0
 22 23  1  0
 23 24  2  0
 24 41  1  0
M  END

