
     RDKit          3D

 54 57  0  0  0  0  0  0  0  0999 V2000
    1.3828    2.5457   -0.8222 C   0  0  0  0  0  0  0  0  0  0  0  0
    2.6856    2.2374   -0.2655 N   0  0  0  0  0  0  0  0  0  0  0  0
    2.9495    2.7890    1.0648 C   0  0  0  0  0  0  0  0  0  0  0  0
    2.4204    1.9071    2.2030 C   0  0  0  0  0  0  0  0  0  0  0  0
    2.9635    0.5640    2.0354 N   0  0  0  0  0  0  0  0  0  0  0  0
    2.5608   -0.0360    0.7730 C   0  0  0  0  0  0  0  0  0  0  0  0
    3.0870    0.8397   -0.3873 C   0  0  2  0  0  0  0  0  0  0  0  0
    4.5854    0.6880   -0.5289 C   0  0  0  0  0  0  0  0  0  0  0  0
    5.4245    1.6892   -0.6272 N   0  0  0  0  0  0  0  0  0  0  0  0
    6.6620    1.0644   -0.7660 O   0  0  0  0  0  0  0  0  0  0  0  0
    6.4413   -0.2586   -0.7431 C   0  0  0  0  0  0  0  0  0  0  0  0
    7.5779   -1.1719   -0.8784 C   0  0  0  0  0  0  0  0  0  0  0  0
    8.8870   -0.6792   -1.0320 C   0  0  0  0  0  0  0  0  0  0  0  0
    9.9521   -1.5706   -1.1579 C   0  0  0  0  0  0  0  0  0  0  0  0
    9.7268   -2.9486   -1.1325 C   0  0  0  0  0  0  0  0  0  0  0  0
    8.4221   -3.4471   -0.9794 C   0  0  0  0  0  0  0  0  0  0  0  0
    8.1964   -4.9017   -0.9533 C   0  0  0  0  0  0  0  0  0  0  0  0
    7.0084   -5.4410   -0.7982 N   0  0  0  0  0  0  0  0  0  0  0  0
    7.2603   -6.8021   -0.8304 O   0  0  0  0  0  0  0  0  0  0  0  0
    8.5840   -6.9624   -1.0043 C   0  0  0  0  0  0  0  0  0  0  0  0
    9.1210   -8.3500   -1.0917 C   0  0  0  0  0  0  0  0  0  0  0  0
    9.3052   -8.9129   -2.5374 C   0  0  1  0  0  0  0  0  0  0  0  0
   10.3804   -8.1097   -3.2900 C   0  0  0  0  0  0  0  0  0  0  0  0
    9.7609  -10.3771   -2.4002 C   0  0  0  0  0  0  0  0  0  0  0  0
    7.9737   -8.8605   -3.3078 C   0  0  0  0  0  0  0  0  0  0  0  0
    9.2106   -5.8257   -1.0845 N   0  0  0  0  0  0  0  0  0  0  0  0
    7.3488   -2.5546   -0.8525 C   0  0  0  0  0  0  0  0  0  0  0  0
    5.1793   -0.5492   -0.5991 N   0  0  0  0  0  0  0  0  0  0  0  0
    1.2272    3.6365   -0.8067 H   0  0  0  0  0  0  0  0  0  0  0  0
    0.5164    2.0815   -0.3003 H   0  0  0  0  0  0  0  0  0  0  0  0
    1.3416    2.2239   -1.8758 H   0  0  0  0  0  0  0  0  0  0  0  0
    2.5099    3.7975    1.1190 H   0  0  0  0  0  0  0  0  0  0  0  0
    4.0395    2.8965    1.1852 H   0  0  0  0  0  0  0  0  0  0  0  0
    1.3053    1.9209    2.2066 H   0  0  0  0  0  0  0  0  0  0  0  0
    2.7523    2.3173    3.1711 H   0  0  0  0  0  0  0  0  0  0  0  0
    2.7182   -0.0374    2.8181 H   0  0  0  0  0  0  0  0  0  0  0  0
    1.4555   -0.1205    0.6624 H   0  0  0  0  0  0  0  0  0  0  0  0
    2.9834   -1.0481    0.6899 H   0  0  0  0  0  0  0  0  0  0  0  0
    2.6600    0.4433   -1.3247 H   0  0  0  0  0  0  0  0  0  0  0  0
    9.0581    0.3985   -1.0513 H   0  0  0  0  0  0  0  0  0  0  0  0
   10.9685   -1.1884   -1.2769 H   0  0  0  0  0  0  0  0  0  0  0  0
   10.5527   -3.6551   -1.2293 H   0  0  0  0  0  0  0  0  0  0  0  0
    8.4380   -9.0096   -0.5343 H   0  0  0  0  0  0  0  0  0  0  0  0
   10.0943   -8.3612   -0.5775 H   0  0  0  0  0  0  0  0  0  0  0  0
   11.3532   -8.1654   -2.7746 H   0  0  0  0  0  0  0  0  0  0  0  0
   10.1111   -7.0463   -3.3747 H   0  0  0  0  0  0  0  0  0  0  0  0
   10.5158   -8.5100   -4.3078 H   0  0  0  0  0  0  0  0  0  0  0  0
   10.7022  -10.4528   -1.8315 H   0  0  0  0  0  0  0  0  0  0  0  0
    9.9323  -10.8252   -3.3920 H   0  0  0  0  0  0  0  0  0  0  0  0
    9.0032  -10.9876   -1.8823 H   0  0  0  0  0  0  0  0  0  0  0  0
    7.6285   -7.8262   -3.4634 H   0  0  0  0  0  0  0  0  0  0  0  0
    7.1761   -9.4019   -2.7734 H   0  0  0  0  0  0  0  0  0  0  0  0
    8.0875   -9.3238   -4.3010 H   0  0  0  0  0  0  0  0  0  0  0  0
    6.3314   -2.9292   -0.7332 H   0  0  0  0  0  0  0  0  0  0  0  0
  1  2  1  0
  1 29  1  0
  1 30  1  0
  1 31  1  0
  2  3  1  0
  2  7  1  0
  3  4  1  0
  3 32  1  0
  3 33  1  0
  4  5  1  0
  4 34  1  0
  4 35  1  0
  5  6  1  0
  5 36  1  0
  6  7  1  0
  6 37  1  0
  6 38  1  0
  7  8  1  0
  7 39  1  6
  8  9  2  0
  8 28  1  0
  9 10  1  0
 10 11  1  0
 11 12  1  0
 11 28  2  0
 12 13  2  0
 12 27  1  0
 13 14  1  0
 13 40  1  0
 14 15  2  0
 14 41  1  0
 15 16  1  0
 15 42  1  0
 16 17  1  0
 16 27  2  0
 17 18  2  0
 17 26  1  0
 18 19  1  0
 19 20  1  0
 20 21  1  0
 20 26  2  0
 22 21  1  1
 21 43  1  0
 21 44  1  0
 22 23  1  0
 22 24  1  0
 22 25  1  0
 23 45  1  0
 23 46  1  0
 23 47  1  0
 24 48  1  0
 24 49  1  0
 24 50  1  0
 25 51  1  0
 25 52  1  0
 25 53  1  0
 27 54  1  0
M  END

