
     RDKit          3D

 92 94  0  0  0  0  0  0  0  0999 V2000
   13.7843    2.1351   -4.0618 O   0  0  0  0  0  0  0  0  0  0  0  0
   13.1283    2.8036   -4.8355 C   0  0  0  0  0  0  0  0  0  0  0  0
   13.1825    4.3285   -4.7675 C   0  0  0  0  0  0  0  0  0  0  0  0
   12.2865    4.9117   -5.6883 O   0  0  0  0  0  0  0  0  0  0  0  0
   12.1845    6.3042   -5.6582 C   0  0  0  0  0  0  0  0  0  0  0  0
   13.3990    7.0166   -6.2506 C   0  0  0  0  0  0  0  0  0  0  0  0
   14.4090    6.4724   -6.6191 O   0  0  0  0  0  0  0  0  0  0  0  0
   13.1746    8.3377   -6.2922 O   0  0  0  0  0  0  0  0  0  0  0  0
   14.2221    9.1833   -6.8114 C   0  0  0  0  0  0  0  0  0  0  0  0
   15.2103    9.5882   -5.7253 C   0  0  0  0  0  0  0  0  0  0  0  0
   16.2747   10.5634   -6.2381 C   0  0  0  0  0  0  0  0  0  0  0  0
   17.2860   10.9807   -5.1660 C   0  0  0  0  0  0  0  0  0  0  0  0
   18.3548   11.9543   -5.6709 C   0  0  0  0  0  0  0  0  0  0  0  0
   19.3696   12.3686   -4.6012 C   0  0  0  0  0  0  0  0  0  0  0  0
   20.4379   13.3440   -5.1043 C   0  0  0  0  0  0  0  0  0  0  0  0
   21.4552   13.7556   -4.0361 C   0  0  0  0  0  0  0  0  0  0  0  0
   22.5217   14.7333   -4.5384 C   0  0  0  0  0  0  0  0  0  0  0  0
   23.5346   15.1466   -3.4672 C   0  0  0  0  0  0  0  0  0  0  0  0
   24.5971   16.1250   -3.9769 C   0  0  0  0  0  0  0  0  0  0  0  0
   25.5800   16.5903   -2.9083 C   0  0  0  0  0  0  0  0  0  0  0  0
   24.9080   17.2571   -1.8262 O   0  0  0  0  0  0  0  0  0  0  0  0
   24.7183   18.5813   -1.9295 C   0  0  0  0  0  0  0  0  0  0  0  0
   25.1394   19.2458   -2.8520 O   0  0  0  0  0  0  0  0  0  0  0  0
   23.9664   19.1731   -0.7779 C   0  0  0  0  0  0  0  0  0  0  0  0
   24.0166   20.5749   -0.6692 C   0  0  0  0  0  0  0  0  0  0  0  0
   23.3705   21.2610    0.3546 C   0  0  0  0  0  0  0  0  0  0  0  0
   22.6371   20.5353    1.2996 C   0  0  0  0  0  0  0  0  0  0  0  0
   22.5567   19.1481    1.2066 C   0  0  0  0  0  0  0  0  0  0  0  0
   23.2111   18.4488    0.1767 C   0  0  0  0  0  0  0  0  0  0  0  0
   23.1010   17.1035    0.0889 O   0  0  0  0  0  0  0  0  0  0  0  0
   12.3046    2.3205   -5.8238 N   0  0  0  0  0  0  0  0  0  0  0  0
   12.0182    1.0065   -6.1800 C   0  0  0  0  0  0  0  0  0  0  0  0
   12.6118   -0.1057   -5.5051 C   0  0  0  0  0  0  0  0  0  0  0  0
   12.2151   -1.3387   -5.9393 C   0  0  0  0  0  0  0  0  0  0  0  0
   11.3066   -1.4703   -6.9367 N   0  0  0  0  0  0  0  0  0  0  0  0
   10.9095   -2.7672   -7.4483 C   0  0  2  0  0  0  0  0  0  0  0  0
    9.8711   -2.6595   -7.8005 H   0  0  0  0  0  0  0  0  0  0  0  0
   10.9985   -3.7384   -6.4235 O   0  0  0  0  0  0  0  0  0  0  0  0
   11.0476   -5.0085   -7.0694 C   0  0  2  0  0  0  0  0  0  0  0  0
   10.0317   -5.2726   -7.4366 H   0  0  0  0  0  0  0  0  0  0  0  0
   11.4804   -6.0506   -6.0559 C   0  0  0  0  0  0  0  0  0  0  0  0
   10.5567   -6.1869   -5.0062 O   0  0  0  0  0  0  0  0  0  0  0  0
   11.9815   -4.7928   -8.2729 C   0  0  1  0  0  0  0  0  0  0  0  0
   13.0266   -4.9062   -7.9420 H   0  0  0  0  0  0  0  0  0  0  0  0
   11.7988   -5.7056   -9.3252 O   0  0  0  0  0  0  0  0  0  0  0  0
   11.7921   -3.2900   -8.6209 C   0  0  2  0  0  0  0  0  0  0  0  0
   11.2329   -3.1854   -9.5677 H   0  0  0  0  0  0  0  0  0  0  0  0
   12.9986   -2.5677   -8.6594 O   0  0  0  0  0  0  0  0  0  0  0  0
   10.7956   -0.3348   -7.6479 C   0  0  0  0  0  0  0  0  0  0  0  0
   10.0727   -0.5264   -8.6101 O   0  0  0  0  0  0  0  0  0  0  0  0
   11.1668    0.8923   -7.1742 N   0  0  0  0  0  0  0  0  0  0  0  0
   14.2254    4.6289   -4.9670 H   0  0  0  0  0  0  0  0  0  0  0  0
   12.9369    4.6155   -3.7262 H   0  0  0  0  0  0  0  0  0  0  0  0
   12.0249    6.6909   -4.6313 H   0  0  0  0  0  0  0  0  0  0  0  0
   11.2989    6.5887   -6.2475 H   0  0  0  0  0  0  0  0  0  0  0  0
   13.6988   10.0601   -7.2201 H   0  0  0  0  0  0  0  0  0  0  0  0
   14.7326    8.6552   -7.6305 H   0  0  0  0  0  0  0  0  0  0  0  0
   15.6972    8.6799   -5.3322 H   0  0  0  0  0  0  0  0  0  0  0  0
   14.6528   10.0429   -4.8877 H   0  0  0  0  0  0  0  0  0  0  0  0
   15.7825   11.4660   -6.6458 H   0  0  0  0  0  0  0  0  0  0  0  0
   16.8136   10.1045   -7.0873 H   0  0  0  0  0  0  0  0  0  0  0  0
   17.7767   10.0775   -4.7589 H   0  0  0  0  0  0  0  0  0  0  0  0
   16.7472   11.4379   -4.3154 H   0  0  0  0  0  0  0  0  0  0  0  0
   17.8630   12.8580   -6.0768 H   0  0  0  0  0  0  0  0  0  0  0  0
   18.8902   11.4974   -6.5239 H   0  0  0  0  0  0  0  0  0  0  0  0
   19.8622   11.4646   -4.1969 H   0  0  0  0  0  0  0  0  0  0  0  0
   18.8340   12.8234   -3.7470 H   0  0  0  0  0  0  0  0  0  0  0  0
   19.9451   14.2488   -5.5065 H   0  0  0  0  0  0  0  0  0  0  0  0
   20.9714   12.8902   -5.9603 H   0  0  0  0  0  0  0  0  0  0  0  0
   21.9492   12.8507   -3.6354 H   0  0  0  0  0  0  0  0  0  0  0  0
   20.9225   14.2085   -3.1792 H   0  0  0  0  0  0  0  0  0  0  0  0
   22.0270   15.6376   -4.9392 H   0  0  0  0  0  0  0  0  0  0  0  0
   23.0556   14.2815   -5.3956 H   0  0  0  0  0  0  0  0  0  0  0  0
   24.0337   14.2441   -3.0666 H   0  0  0  0  0  0  0  0  0  0  0  0
   23.0075   15.6022   -2.6113 H   0  0  0  0  0  0  0  0  0  0  0  0
   24.1174   17.0131   -4.4233 H   0  0  0  0  0  0  0  0  0  0  0  0
   25.1846   15.6563   -4.7876 H   0  0  0  0  0  0  0  0  0  0  0  0
   26.3324   17.2669   -3.3376 H   0  0  0  0  0  0  0  0  0  0  0  0
   26.0849   15.7332   -2.4374 H   0  0  0  0  0  0  0  0  0  0  0  0
   24.5906   21.1085   -1.4289 H   0  0  0  0  0  0  0  0  0  0  0  0
   23.4349   22.3492    0.4169 H   0  0  0  0  0  0  0  0  0  0  0  0
   22.1194   21.0500    2.1133 H   0  0  0  0  0  0  0  0  0  0  0  0
   21.9738   18.5815    1.9404 H   0  0  0  0  0  0  0  0  0  0  0  0
   22.5336   16.7903    0.8063 H   0  0  0  0  0  0  0  0  0  0  0  0
   11.8210    3.0192   -6.3862 H   0  0  0  0  0  0  0  0  0  0  0  0
   13.3234    0.0328   -4.6974 H   0  0  0  0  0  0  0  0  0  0  0  0
   12.5788   -2.2685   -5.5027 H   0  0  0  0  0  0  0  0  0  0  0  0
   12.4953   -5.7859   -5.6917 H   0  0  0  0  0  0  0  0  0  0  0  0
   11.5559   -7.0241   -6.5660 H   0  0  0  0  0  0  0  0  0  0  0  0
   10.4299   -5.3073   -4.6232 H   0  0  0  0  0  0  0  0  0  0  0  0
   10.8789   -5.6602   -9.6213 H   0  0  0  0  0  0  0  0  0  0  0  0
   13.4471   -2.7611   -9.4925 H   0  0  0  0  0  0  0  0  0  0  0  0
  1  2  2  0
  2  3  1  0
  2 31  1  0
  3  4  1  0
  3 52  1  0
  3 53  1  0
  4  5  1  0
  5  6  1  0
  5 54  1  0
  5 55  1  0
  6  7  2  0
  6  8  1  0
  8  9  1  0
  9 10  1  0
  9 56  1  0
  9 57  1  0
 10 11  1  0
 10 58  1  0
 10 59  1  0
 11 12  1  0
 11 60  1  0
 11 61  1  0
 12 13  1  0
 12 62  1  0
 12 63  1  0
 13 14  1  0
 13 64  1  0
 13 65  1  0
 14 15  1  0
 14 66  1  0
 14 67  1  0
 15 16  1  0
 15 68  1  0
 15 69  1  0
 16 17  1  0
 16 70  1  0
 16 71  1  0
 17 18  1  0
 17 72  1  0
 17 73  1  0
 18 19  1  0
 18 74  1  0
 18 75  1  0
 19 20  1  0
 19 76  1  0
 19 77  1  0
 20 21  1  0
 20 78  1  0
 20 79  1  0
 21 22  1  0
 22 23  2  0
 22 24  1  0
 24 25  2  0
 24 29  1  0
 25 26  1  0
 25 80  1  0
 26 27  2  0
 26 81  1  0
 27 28  1  0
 27 82  1  0
 28 29  2  0
 28 83  1  0
 29 30  1  0
 30 84  1  0
 31 32  1  0
 31 85  1  0
 32 33  1  0
 32 51  2  0
 33 34  2  0
 33 86  1  0
 34 35  1  0
 34 87  1  0
 35 36  1  0
 35 49  1  0
 36 37  1  6
 36 38  1  0
 36 46  1  0
 38 39  1  0
 39 40  1  6
 39 41  1  0
 39 43  1  0
 41 42  1  0
 41 88  1  0
 41 89  1  0
 42 90  1  0
 43 44  1  1
 43 45  1  0
 43 46  1  0
 45 91  1  0
 46 47  1  6
 46 48  1  0
 48 92  1  0
 49 50  2  0
 49 51  1  0
M  END

