
     RDKit          3D

 71 72  0  0  0  0  0  0  0  0999 V2000
    2.6559   -1.1874    0.8662 C   0  0  0  0  0  0  0  0  0  0  0  0
    2.1672   -0.0993    0.2266 C   0  0  0  0  0  0  0  0  0  0  0  0
    0.9290   -0.1100   -0.4255 N   0  0  0  0  0  0  0  0  0  0  0  0
   -0.1066   -0.9997   -0.2385 C   0  0  0  0  0  0  0  0  0  0  0  0
   -1.0994   -1.0433   -1.0309 N   0  0  0  0  0  0  0  0  0  0  0  0
   -2.1826   -1.9435   -0.7278 C   0  0  0  0  0  0  0  0  0  0  0  0
    2.8823    1.2154    0.1715 C   0  0  0  0  0  0  0  0  0  0  0  0
    2.1807    2.3553    0.0323 C   0  0  0  0  0  0  0  0  0  0  0  0
    4.4075    1.1904    0.1867 C   0  0  1  0  0  0  0  0  0  0  0  0
    4.9546    0.8294   -1.2365 C   0  0  0  0  0  0  0  0  0  0  0  0
    4.6374    1.7952   -2.3586 C   0  0  0  0  0  0  0  0  0  0  0  0
    3.5100    1.6045   -3.1731 C   0  0  0  0  0  0  0  0  0  0  0  0
    3.2102    2.4913   -4.2101 C   0  0  0  0  0  0  0  0  0  0  0  0
    4.0483    3.5777   -4.4307 C   0  0  0  0  0  0  0  0  0  0  0  0
    3.7620    4.4332   -5.4312 F   0  0  0  0  0  0  0  0  0  0  0  0
    5.1915    3.8145   -3.6584 C   0  0  0  0  0  0  0  0  0  0  0  0
    6.0745    4.9987   -3.9534 C   0  0  0  0  0  0  0  0  0  0  0  0
    5.4609    2.9020   -2.6289 C   0  0  0  0  0  0  0  0  0  0  0  0
    5.0706    2.4300    0.8192 C   0  0  1  0  0  0  0  0  0  0  0  0
    4.6467    2.7225    2.2662 C   0  0  0  0  0  0  0  0  0  0  0  0
    5.6779    3.7467    2.7728 C   0  0  1  0  0  0  0  0  0  0  0  0
    5.3770    4.7238    2.3569 H   0  0  0  0  0  0  0  0  0  0  0  0
    5.7061    3.8933    4.3024 C   0  0  0  0  0  0  0  0  0  0  0  0
    4.3884    4.3654    4.9421 C   0  0  0  0  0  0  0  0  0  0  0  0
    3.9294    5.7660    4.5283 C   0  0  0  0  0  0  0  0  0  0  0  0
    7.0400    3.3656    2.0470 C   0  0  2  0  0  0  0  0  0  0  0  0
    8.0770    2.7340    3.0099 C   0  0  0  0  0  0  0  0  0  0  0  0
    9.3877    2.2651    2.3690 C   0  0  0  0  0  0  0  0  0  0  0  0
    7.6255    4.6086    1.3240 C   0  0  0  0  0  0  0  0  0  0  0  0
    8.0515    5.7842    2.2069 C   0  0  0  0  0  0  0  0  0  0  0  0
    6.5996    2.3180    0.9729 C   0  0  0  0  0  0  0  0  0  0  0  0
    2.1427   -2.1494    0.8429 H   0  0  0  0  0  0  0  0  0  0  0  0
    3.5660   -1.1291    1.4602 H   0  0  0  0  0  0  0  0  0  0  0  0
    0.7891    0.5508   -1.1834 H   0  0  0  0  0  0  0  0  0  0  0  0
   -0.0062   -1.6306    0.6648 H   0  0  0  0  0  0  0  0  0  0  0  0
   -3.1227   -1.3789   -0.5940 H   0  0  0  0  0  0  0  0  0  0  0  0
   -2.0233   -2.5581    0.1838 H   0  0  0  0  0  0  0  0  0  0  0  0
   -2.3547   -2.6299   -1.5757 H   0  0  0  0  0  0  0  0  0  0  0  0
    1.0886    2.3625    0.0155 H   0  0  0  0  0  0  0  0  0  0  0  0
    2.6738    3.3252   -0.0484 H   0  0  0  0  0  0  0  0  0  0  0  0
    4.7130    0.3394    0.8169 H   0  0  0  0  0  0  0  0  0  0  0  0
    4.5520   -0.1621   -1.4966 H   0  0  0  0  0  0  0  0  0  0  0  0
    6.0458    0.7046   -1.1578 H   0  0  0  0  0  0  0  0  0  0  0  0
    2.8612    0.7411   -3.0049 H   0  0  0  0  0  0  0  0  0  0  0  0
    2.3396    2.3501   -4.8538 H   0  0  0  0  0  0  0  0  0  0  0  0
    5.5167    5.9458   -3.8673 H   0  0  0  0  0  0  0  0  0  0  0  0
    6.4679    4.9589   -4.9825 H   0  0  0  0  0  0  0  0  0  0  0  0
    6.9275    5.0387   -3.2610 H   0  0  0  0  0  0  0  0  0  0  0  0
    6.3586    3.0605   -2.0254 H   0  0  0  0  0  0  0  0  0  0  0  0
    4.8451    3.3193    0.2041 H   0  0  0  0  0  0  0  0  0  0  0  0
    4.7120    1.7905    2.8600 H   0  0  0  0  0  0  0  0  0  0  0  0
    3.6114    3.0810    2.3521 H   0  0  0  0  0  0  0  0  0  0  0  0
    5.9799    2.9270    4.7584 H   0  0  0  0  0  0  0  0  0  0  0  0
    6.5038    4.5999    4.5907 H   0  0  0  0  0  0  0  0  0  0  0  0
    4.5174    4.3441    6.0385 H   0  0  0  0  0  0  0  0  0  0  0  0
    3.5867    3.6375    4.7265 H   0  0  0  0  0  0  0  0  0  0  0  0
    4.7091    6.5197    4.7326 H   0  0  0  0  0  0  0  0  0  0  0  0
    3.0259    6.0672    5.0824 H   0  0  0  0  0  0  0  0  0  0  0  0
    3.6867    5.8259    3.4550 H   0  0  0  0  0  0  0  0  0  0  0  0
    7.6023    1.8711    3.5081 H   0  0  0  0  0  0  0  0  0  0  0  0
    8.3182    3.4425    3.8181 H   0  0  0  0  0  0  0  0  0  0  0  0
    9.2174    1.5466    1.5509 H   0  0  0  0  0  0  0  0  0  0  0  0
   10.0236    1.7631    3.1159 H   0  0  0  0  0  0  0  0  0  0  0  0
    9.9732    3.1021    1.9568 H   0  0  0  0  0  0  0  0  0  0  0  0
    6.8701    4.9633    0.5997 H   0  0  0  0  0  0  0  0  0  0  0  0
    8.4884    4.2921    0.7131 H   0  0  0  0  0  0  0  0  0  0  0  0
    7.2140    6.1794    2.8036 H   0  0  0  0  0  0  0  0  0  0  0  0
    8.4299    6.6147    1.5893 H   0  0  0  0  0  0  0  0  0  0  0  0
    8.8560    5.5075    2.9068 H   0  0  0  0  0  0  0  0  0  0  0  0
    6.8355    1.2987    1.3274 H   0  0  0  0  0  0  0  0  0  0  0  0
    7.1457    2.4513    0.0271 H   0  0  0  0  0  0  0  0  0  0  0  0
  1  2  2  0
  1 32  1  0
  1 33  1  0
  2  3  1  0
  2  7  1  0
  3  4  1  0
  3 34  1  0
  4  5  2  0
  4 35  1  0
  5  6  1  0
  6 36  1  0
  6 37  1  0
  6 38  1  0
  7  8  2  0
  7  9  1  0
  8 39  1  0
  8 40  1  0
  9 10  1  0
  9 19  1  0
  9 41  1  1
 10 11  1  0
 10 42  1  0
 10 43  1  0
 11 12  2  0
 11 18  1  0
 12 13  1  0
 12 44  1  0
 13 14  2  0
 13 45  1  0
 14 15  1  0
 14 16  1  0
 16 17  1  0
 16 18  2  0
 17 46  1  0
 17 47  1  0
 17 48  1  0
 18 49  1  0
 19 20  1  0
 19 31  1  0
 19 50  1  6
 20 21  1  0
 20 51  1  0
 20 52  1  0
 21 22  1  6
 21 23  1  0
 21 26  1  0
 23 24  1  0
 23 53  1  0
 23 54  1  0
 24 25  1  0
 24 55  1  0
 24 56  1  0
 25 57  1  0
 25 58  1  0
 25 59  1  0
 26 27  1  1
 26 29  1  0
 26 31  1  0
 27 28  1  0
 27 60  1  0
 27 61  1  0
 28 62  1  0
 28 63  1  0
 28 64  1  0
 29 30  1  0
 29 65  1  0
 29 66  1  0
 30 67  1  0
 30 68  1  0
 30 69  1  0
 31 70  1  0
 31 71  1  0
M  END

