
     RDKit          3D

 43 44  0  0  0  0  0  0  0  0999 V2000
    1.2150    0.0607   -0.1393 C   0  0  0  0  0  0  0  0  0  0  0  0
    2.6805   -0.1403    0.2599 C   0  0  1  0  0  0  0  0  0  0  0  0
    2.8835   -0.4023    1.7763 C   0  0  0  0  0  0  0  0  0  0  0  0
    2.3154   -1.7078    2.2928 C   0  0  0  0  0  0  0  0  0  0  0  0
    3.0865   -2.8801    2.2870 C   0  0  0  0  0  0  0  0  0  0  0  0
    2.5523   -4.0947    2.7401 C   0  0  0  0  0  0  0  0  0  0  0  0
    1.2422   -4.1510    3.2062 C   0  0  0  0  0  0  0  0  0  0  0  0
    0.6212   -5.2778    3.6757 O   0  0  0  0  0  0  0  0  0  0  0  0
    0.4527   -2.9818    3.2269 C   0  0  0  0  0  0  0  0  0  0  0  0
   -0.8185   -3.0308    3.6908 O   0  0  0  0  0  0  0  0  0  0  0  0
    0.9946   -1.7800    2.7720 C   0  0  0  0  0  0  0  0  0  0  0  0
    3.2994   -1.1897   -0.5424 N   0  0  0  0  0  0  0  0  0  0  0  0
    4.3094   -0.9636   -1.4322 C   0  0  0  0  0  0  0  0  0  0  0  0
    4.7881    0.1497   -1.6185 O   0  0  0  0  0  0  0  0  0  0  0  0
    4.7896   -2.1995   -2.1976 C   0  0  1  0  0  0  0  0  0  0  0  0
    4.4105   -2.1045   -3.6964 C   0  0  0  0  0  0  0  0  0  0  0  0
    5.2578   -1.0835   -4.4667 C   0  0  0  0  0  0  0  0  0  0  0  0
    6.7391   -1.3564   -4.2767 C   0  0  2  0  0  0  0  0  0  0  0  0
    7.4740   -0.4121   -4.9395 F   0  0  0  0  0  0  0  0  0  0  0  0
    7.0481   -2.5638   -4.8767 F   0  0  0  0  0  0  0  0  0  0  0  0
    7.1624   -1.4114   -2.8204 C   0  0  0  0  0  0  0  0  0  0  0  0
    6.3124   -2.4213   -2.0373 C   0  0  0  0  0  0  0  0  0  0  0  0
    0.7607    0.8809    0.4393 H   0  0  0  0  0  0  0  0  0  0  0  0
    0.6154   -0.8468    0.0377 H   0  0  0  0  0  0  0  0  0  0  0  0
    1.1423    0.3167   -1.2073 H   0  0  0  0  0  0  0  0  0  0  0  0
    3.2425    0.7709    0.0082 H   0  0  0  0  0  0  0  0  0  0  0  0
    2.4347    0.4411    2.3260 H   0  0  0  0  0  0  0  0  0  0  0  0
    3.9662   -0.3707    1.9767 H   0  0  0  0  0  0  0  0  0  0  0  0
    4.1234   -2.8476    1.9439 H   0  0  0  0  0  0  0  0  0  0  0  0
    3.1652   -5.0017    2.7396 H   0  0  0  0  0  0  0  0  0  0  0  0
    1.2300   -6.0269    3.6692 H   0  0  0  0  0  0  0  0  0  0  0  0
   -0.9968   -3.9427    3.9687 H   0  0  0  0  0  0  0  0  0  0  0  0
    0.3621   -0.8903    2.8121 H   0  0  0  0  0  0  0  0  0  0  0  0
    2.9532   -2.1355   -0.4265 H   0  0  0  0  0  0  0  0  0  0  0  0
    4.2777   -3.0828   -1.7800 H   0  0  0  0  0  0  0  0  0  0  0  0
    3.3402   -1.8631   -3.8015 H   0  0  0  0  0  0  0  0  0  0  0  0
    4.5566   -3.0999   -4.1475 H   0  0  0  0  0  0  0  0  0  0  0  0
    5.0575   -0.0647   -4.1060 H   0  0  0  0  0  0  0  0  0  0  0  0
    5.0376   -1.1221   -5.5453 H   0  0  0  0  0  0  0  0  0  0  0  0
    7.0416   -0.4039   -2.3996 H   0  0  0  0  0  0  0  0  0  0  0  0
    8.2292   -1.6834   -2.7844 H   0  0  0  0  0  0  0  0  0  0  0  0
    6.5896   -2.3956   -0.9709 H   0  0  0  0  0  0  0  0  0  0  0  0
    6.5441   -3.4366   -2.4000 H   0  0  0  0  0  0  0  0  0  0  0  0
  1  2  1  0
  1 23  1  0
  1 24  1  0
  1 25  1  0
  2  3  1  0
  2 12  1  0
  2 26  1  6
  3  4  1  0
  3 27  1  0
  3 28  1  0
  4  5  2  0
  4 11  1  0
  5  6  1  0
  5 29  1  0
  6  7  2  0
  6 30  1  0
  7  8  1  0
  7  9  1  0
  8 31  1  0
  9 10  1  0
  9 11  2  0
 10 32  1  0
 11 33  1  0
 12 13  1  0
 12 34  1  0
 13 14  2  0
 13 15  1  0
 15 16  1  0
 15 22  1  0
 15 35  1  1
 16 17  1  0
 16 36  1  0
 16 37  1  0
 17 18  1  0
 17 38  1  0
 17 39  1  0
 18 19  1  6
 18 20  1  0
 18 21  1  0
 21 22  1  0
 21 40  1  0
 21 41  1  0
 22 42  1  0
 22 43  1  0
M  END

