
     RDKit          3D

 44 44  0  0  0  0  0  0  0  0999 V2000
    1.1466   -0.7671   -3.4773 C   0  0  0  0  0  0  0  0  0  0  0  0
    2.5553   -1.0538   -3.2900 N   0  0  0  0  0  0  0  0  0  0  0  0
    2.8516   -1.8198   -2.0912 C   0  0  0  0  0  0  0  0  0  0  0  0
    4.3328   -2.2259   -1.9984 C   0  0  1  0  0  0  0  0  0  0  0  0
    5.2551   -1.0031   -2.0809 C   0  0  0  0  0  0  0  0  0  0  0  0
    4.6415   -3.0589   -0.7168 C   0  0  1  0  0  0  0  0  0  0  0  0
    3.6466   -4.2179   -0.4967 C   0  0  0  0  0  0  0  0  0  0  0  0
    6.0482   -3.4588   -0.6852 N   0  0  0  0  0  0  0  0  0  0  0  0
    6.7942   -3.3922    0.5615 C   0  0  0  0  0  0  0  0  0  0  0  0
    6.9278   -4.7386    1.2944 C   0  0  0  0  0  0  0  0  0  0  0  0
    7.4789   -5.8477    0.3741 C   0  0  2  0  0  0  0  0  0  0  0  0
    8.9861   -5.7212    0.1337 C   0  0  0  0  0  0  0  0  0  0  0  0
    9.6614   -5.8042    1.3672 O   0  0  0  0  0  0  0  0  0  0  0  0
   11.0532   -5.6864    1.2646 C   0  0  0  0  0  0  0  0  0  0  0  0
    6.6841   -5.8788   -0.9477 C   0  0  0  0  0  0  0  0  0  0  0  0
    6.5377   -4.4844   -1.5920 C   0  0  0  0  0  0  0  0  0  0  0  0
    1.0049   -0.1437   -4.3747 H   0  0  0  0  0  0  0  0  0  0  0  0
    0.6609   -0.2446   -2.6210 H   0  0  0  0  0  0  0  0  0  0  0  0
    0.5875   -1.7050   -3.6391 H   0  0  0  0  0  0  0  0  0  0  0  0
    3.0837   -0.1838   -3.2890 H   0  0  0  0  0  0  0  0  0  0  0  0
    2.2210   -2.7230   -2.1256 H   0  0  0  0  0  0  0  0  0  0  0  0
    2.5624   -1.2831   -1.1530 H   0  0  0  0  0  0  0  0  0  0  0  0
    4.5345   -2.8645   -2.8778 H   0  0  0  0  0  0  0  0  0  0  0  0
    5.0019   -0.2619   -1.3013 H   0  0  0  0  0  0  0  0  0  0  0  0
    5.1861   -0.5077   -3.0620 H   0  0  0  0  0  0  0  0  0  0  0  0
    6.3009   -1.3033   -1.9278 H   0  0  0  0  0  0  0  0  0  0  0  0
    4.5196   -2.3672    0.1363 H   0  0  0  0  0  0  0  0  0  0  0  0
    3.6242   -4.9060   -1.3583 H   0  0  0  0  0  0  0  0  0  0  0  0
    2.6203   -3.8531   -0.3383 H   0  0  0  0  0  0  0  0  0  0  0  0
    3.9254   -4.7995    0.3942 H   0  0  0  0  0  0  0  0  0  0  0  0
    6.3198   -2.6487    1.2215 H   0  0  0  0  0  0  0  0  0  0  0  0
    7.8111   -3.0013    0.3501 H   0  0  0  0  0  0  0  0  0  0  0  0
    5.9376   -5.0493    1.6701 H   0  0  0  0  0  0  0  0  0  0  0  0
    7.5856   -4.6306    2.1712 H   0  0  0  0  0  0  0  0  0  0  0  0
    7.3445   -6.8164    0.8862 H   0  0  0  0  0  0  0  0  0  0  0  0
    9.2402   -4.7682   -0.3760 H   0  0  0  0  0  0  0  0  0  0  0  0
    9.3193   -6.5373   -0.5431 H   0  0  0  0  0  0  0  0  0  0  0  0
   11.4754   -5.7619    2.2778 H   0  0  0  0  0  0  0  0  0  0  0  0
   11.3593   -4.7133    0.8275 H   0  0  0  0  0  0  0  0  0  0  0  0
   11.4952   -6.4897    0.6393 H   0  0  0  0  0  0  0  0  0  0  0  0
    5.6815   -6.2875   -0.7418 H   0  0  0  0  0  0  0  0  0  0  0  0
    7.1607   -6.5685   -1.6674 H   0  0  0  0  0  0  0  0  0  0  0  0
    5.8723   -4.5494   -2.4663 H   0  0  0  0  0  0  0  0  0  0  0  0
    7.5233   -4.1698   -1.9925 H   0  0  0  0  0  0  0  0  0  0  0  0
  1  2  1  0
  1 17  1  0
  1 18  1  0
  1 19  1  0
  2  3  1  0
  2 20  1  0
  3  4  1  0
  3 21  1  0
  3 22  1  0
  4  5  1  0
  4  6  1  0
  4 23  1  6
  5 24  1  0
  5 25  1  0
  5 26  1  0
  6  7  1  0
  6  8  1  0
  6 27  1  1
  7 28  1  0
  7 29  1  0
  7 30  1  0
  8  9  1  0
  8 16  1  0
  9 10  1  0
  9 31  1  0
  9 32  1  0
 10 11  1  0
 10 33  1  0
 10 34  1  0
 11 12  1  0
 11 15  1  0
 11 35  1  1
 12 13  1  0
 12 36  1  0
 12 37  1  0
 13 14  1  0
 14 38  1  0
 14 39  1  0
 14 40  1  0
 15 16  1  0
 15 41  1  0
 15 42  1  0
 16 43  1  0
 16 44  1  0
M  END

