
     RDKit          3D

 50 53  0  0  0  0  0  0  0  0999 V2000
    2.9366    0.9538   -1.4993 C   0  0  0  0  0  0  0  0  0  0  0  0
    3.2623   -0.1109   -0.4520 C   0  0  0  0  0  0  0  0  0  0  0  0
    4.3273    0.3462    0.5326 C   0  0  0  0  0  0  0  0  0  0  0  0
    4.5582   -0.7070    1.4598 O   0  0  0  0  0  0  0  0  0  0  0  0
    5.4632   -0.5563    2.4489 C   0  0  0  0  0  0  0  0  0  0  0  0
    6.2396    0.5985    2.6531 C   0  0  0  0  0  0  0  0  0  0  0  0
    7.1453    0.6446    3.7120 C   0  0  0  0  0  0  0  0  0  0  0  0
    7.3172   -0.4440    4.5791 C   0  0  0  0  0  0  0  0  0  0  0  0
    8.3137   -0.2864    5.6891 C   0  0  0  0  0  0  0  0  0  0  0  0
    8.7255    0.8100    6.0294 O   0  0  0  0  0  0  0  0  0  0  0  0
    8.7352   -1.4725    6.2727 N   0  0  0  0  0  0  0  0  0  0  0  0
    9.6170   -1.6682    7.3427 C   0  0  0  0  0  0  0  0  0  0  0  0
   10.2073   -0.6011    8.0452 C   0  0  0  0  0  0  0  0  0  0  0  0
   11.0703   -0.8544    9.1066 C   0  0  0  0  0  0  0  0  0  0  0  0
   11.3730   -2.1672    9.4984 C   0  0  0  0  0  0  0  0  0  0  0  0
   12.2794   -2.4578   10.6112 C   0  0  0  0  0  0  0  0  0  0  0  0
   12.5824   -3.6634   10.9944 N   0  0  0  0  0  0  0  0  0  0  0  0
   13.4368   -3.6055   12.0405 N   0  0  0  0  0  0  0  0  0  0  0  0
   14.0832   -4.5197   12.8413 C   0  0  0  0  0  0  0  0  0  0  0  0
   13.9645   -5.9962   12.7104 C   0  0  0  0  0  0  0  0  0  0  0  0
   14.8049   -3.8536   13.7189 N   0  0  0  0  0  0  0  0  0  0  0  0
   14.6524   -2.4941   13.5191 N   0  0  0  0  0  0  0  0  0  0  0  0
   13.8325   -2.3745   12.5131 C   0  0  0  0  0  0  0  0  0  0  0  0
   13.0566   -1.1358   11.5508 S   0  0  0  0  0  0  0  0  0  0  0  0
   10.7784   -3.2277    8.7883 C   0  0  0  0  0  0  0  0  0  0  0  0
    9.9099   -3.0082    7.7226 C   0  0  0  0  0  0  0  0  0  0  0  0
    9.2910   -4.1759    6.9926 C   0  0  0  0  0  0  0  0  0  0  0  0
    6.5226   -1.5890    4.3718 C   0  0  0  0  0  0  0  0  0  0  0  0
    5.6111   -1.6483    3.3257 C   0  0  0  0  0  0  0  0  0  0  0  0
    2.1644    0.5963   -2.1974 H   0  0  0  0  0  0  0  0  0  0  0  0
    3.8242    1.2209   -2.0968 H   0  0  0  0  0  0  0  0  0  0  0  0
    2.5585    1.8792   -1.0338 H   0  0  0  0  0  0  0  0  0  0  0  0
    3.6129   -1.0363   -0.9392 H   0  0  0  0  0  0  0  0  0  0  0  0
    2.3567   -0.3825    0.1161 H   0  0  0  0  0  0  0  0  0  0  0  0
    3.9973    1.2558    1.0695 H   0  0  0  0  0  0  0  0  0  0  0  0
    5.2666    0.5955    0.0031 H   0  0  0  0  0  0  0  0  0  0  0  0
    6.1427    1.4627    1.9963 H   0  0  0  0  0  0  0  0  0  0  0  0
    7.7445    1.5402    3.8868 H   0  0  0  0  0  0  0  0  0  0  0  0
    8.4082   -2.3172    5.8241 H   0  0  0  0  0  0  0  0  0  0  0  0
    9.9818    0.4174    7.7408 H   0  0  0  0  0  0  0  0  0  0  0  0
   11.5123   -0.0035    9.6314 H   0  0  0  0  0  0  0  0  0  0  0  0
   14.2950   -6.3400   11.7168 H   0  0  0  0  0  0  0  0  0  0  0  0
   12.9232   -6.3302   12.8479 H   0  0  0  0  0  0  0  0  0  0  0  0
   14.5939   -6.4646   13.4779 H   0  0  0  0  0  0  0  0  0  0  0  0
   11.0104   -4.2509    9.0895 H   0  0  0  0  0  0  0  0  0  0  0  0
    9.6319   -5.1293    7.4184 H   0  0  0  0  0  0  0  0  0  0  0  0
    9.5591   -4.1850    5.9208 H   0  0  0  0  0  0  0  0  0  0  0  0
    8.1881   -4.1665    7.0576 H   0  0  0  0  0  0  0  0  0  0  0  0
    6.5792   -2.4442    5.0509 H   0  0  0  0  0  0  0  0  0  0  0  0
    4.9855   -2.5285    3.1667 H   0  0  0  0  0  0  0  0  0  0  0  0
  1  2  1  0
  1 30  1  0
  1 31  1  0
  1 32  1  0
  2  3  1  0
  2 33  1  0
  2 34  1  0
  3  4  1  0
  3 35  1  0
  3 36  1  0
  4  5  1  0
  5  6  2  0
  5 29  1  0
  6  7  1  0
  6 37  1  0
  7  8  2  0
  7 38  1  0
  8  9  1  0
  8 28  1  0
  9 10  2  0
  9 11  1  0
 11 12  1  0
 11 39  1  0
 12 13  2  0
 12 26  1  0
 13 14  1  0
 13 40  1  0
 14 15  2  0
 14 41  1  0
 15 16  1  0
 15 25  1  0
 16 17  2  0
 16 24  1  0
 17 18  1  0
 18 19  1  0
 18 23  1  0
 19 20  1  0
 19 21  2  0
 20 42  1  0
 20 43  1  0
 20 44  1  0
 21 22  1  0
 22 23  2  0
 23 24  1  0
 25 26  2  0
 25 45  1  0
 26 27  1  0
 27 46  1  0
 27 47  1  0
 27 48  1  0
 28 29  2  0
 28 49  1  0
 29 50  1  0
M  END

