
     RDKit          3D

 45 47  0  0  0  0  0  0  0  0999 V2000
    7.4120   -5.0577    4.4134 C   0  0  0  0  0  0  0  0  0  0  0  0
    7.5970   -4.5786    2.9964 C   0  0  0  0  0  0  0  0  0  0  0  0
    8.7375   -4.8964    2.1885 C   0  0  0  0  0  0  0  0  0  0  0  0
    8.6857   -4.3592    0.9294 C   0  0  0  0  0  0  0  0  0  0  0  0
    7.2439   -3.4345    0.6985 S   0  0  0  0  0  0  0  0  0  0  0  0
    6.6891   -3.7855    2.3176 C   0  0  0  0  0  0  0  0  0  0  0  0
    5.3964   -3.2814    2.8327 C   0  0  1  0  0  0  0  0  0  0  0  0
    4.5344   -2.3036    2.1031 C   0  0  0  0  0  0  0  0  0  0  0  0
    4.0640   -3.7372    2.2034 C   0  0  2  0  0  0  0  0  0  0  0  0
    2.9445   -4.0454    3.1381 C   0  0  0  0  0  0  0  0  0  0  0  0
    2.7530   -3.3586    4.1528 O   0  0  0  0  0  0  0  0  0  0  0  0
    2.1805   -5.1187    2.8219 N   0  0  0  0  0  0  0  0  0  0  0  0
    0.9409   -5.5808    3.4924 C   0  0  1  0  0  0  0  0  0  0  0  0
    1.2416   -6.0831    4.9414 C   0  0  0  0  0  0  0  0  0  0  0  0
    0.8823   -7.1682    5.3246 O   0  0  0  0  0  0  0  0  0  0  0  0
    1.8646   -5.2249    5.7411 O   0  0  0  0  0  0  0  0  0  0  0  0
   -0.1184   -4.4471    3.5686 C   0  0  0  0  0  0  0  0  0  0  0  0
   -0.6409   -4.0277    2.1886 C   0  0  0  0  0  0  0  0  0  0  0  0
   -1.2078   -5.2023    1.3662 C   0  0  2  0  0  0  0  0  0  0  0  0
   -2.5593   -5.7029    1.8963 C   0  0  0  0  0  0  0  0  0  0  0  0
   -0.1512   -6.3228    1.2847 C   0  0  0  0  0  0  0  0  0  0  0  0
    0.3800   -6.7500    2.6605 C   0  0  0  0  0  0  0  0  0  0  0  0
    8.2663   -5.6711    4.7347 H   0  0  0  0  0  0  0  0  0  0  0  0
    6.5026   -5.6709    4.5263 H   0  0  0  0  0  0  0  0  0  0  0  0
    7.3238   -4.2180    5.1231 H   0  0  0  0  0  0  0  0  0  0  0  0
    9.5684   -5.5096    2.5433 H   0  0  0  0  0  0  0  0  0  0  0  0
    9.4151   -4.4457    0.1255 H   0  0  0  0  0  0  0  0  0  0  0  0
    5.3440   -3.2134    3.9234 H   0  0  0  0  0  0  0  0  0  0  0  0
    4.8541   -1.9548    1.1174 H   0  0  0  0  0  0  0  0  0  0  0  0
    3.9896   -1.5747    2.7075 H   0  0  0  0  0  0  0  0  0  0  0  0
    4.1477   -4.3545    1.3048 H   0  0  0  0  0  0  0  0  0  0  0  0
    2.4679   -5.6552    2.0117 H   0  0  0  0  0  0  0  0  0  0  0  0
    2.1408   -4.3975    5.2582 H   0  0  0  0  0  0  0  0  0  0  0  0
    0.2999   -3.5787    4.0953 H   0  0  0  0  0  0  0  0  0  0  0  0
   -0.9454   -4.8240    4.1926 H   0  0  0  0  0  0  0  0  0  0  0  0
    0.1813   -3.5571    1.6220 H   0  0  0  0  0  0  0  0  0  0  0  0
   -1.4088   -3.2460    2.3150 H   0  0  0  0  0  0  0  0  0  0  0  0
   -1.3818   -4.8350    0.3393 H   0  0  0  0  0  0  0  0  0  0  0  0
   -2.4938   -6.1035    2.9203 H   0  0  0  0  0  0  0  0  0  0  0  0
   -2.9588   -6.5066    1.2567 H   0  0  0  0  0  0  0  0  0  0  0  0
   -3.3017   -4.8885    1.9099 H   0  0  0  0  0  0  0  0  0  0  0  0
    0.6822   -5.9749    0.6468 H   0  0  0  0  0  0  0  0  0  0  0  0
   -0.5690   -7.2046    0.7708 H   0  0  0  0  0  0  0  0  0  0  0  0
    1.1553   -7.5284    2.5609 H   0  0  0  0  0  0  0  0  0  0  0  0
   -0.4141   -7.2152    3.2591 H   0  0  0  0  0  0  0  0  0  0  0  0
  1  2  1  0
  1 23  1  0
  1 24  1  0
  1 25  1  0
  2  3  1  0
  2  6  2  0
  3  4  2  0
  3 26  1  0
  4  5  1  0
  4 27  1  0
  5  6  1  0
  6  7  1  0
  7  8  1  0
  7  9  1  0
  7 28  1  1
  8  9  1  0
  8 29  1  0
  8 30  1  0
  9 10  1  0
  9 31  1  6
 10 11  2  0
 10 12  1  0
 12 13  1  0
 12 32  1  0
 13 14  1  1
 13 17  1  0
 13 22  1  0
 14 15  2  0
 14 16  1  0
 16 33  1  0
 17 18  1  0
 17 34  1  0
 17 35  1  0
 18 19  1  0
 18 36  1  0
 18 37  1  0
 19 20  1  0
 19 21  1  0
 19 38  1  6
 20 39  1  0
 20 40  1  0
 20 41  1  0
 21 22  1  0
 21 42  1  0
 21 43  1  0
 22 44  1  0
 22 45  1  0
M  END

