
     RDKit          3D

 34 36  0  0  0  0  0  0  0  0999 V2000
    1.1498   -0.1336   -1.1092 N   0  0  0  0  0  0  0  0  0  0  0  0
    2.4222   -0.0510   -0.5023 C   0  0  0  0  0  0  0  0  0  0  0  0
    2.9787    1.2104   -0.2274 C   0  0  0  0  0  0  0  0  0  0  0  0
    4.2255    1.3327    0.3828 C   0  0  0  0  0  0  0  0  0  0  0  0
    4.9597    0.1893    0.7134 C   0  0  0  0  0  0  0  0  0  0  0  0
    4.4153   -1.0651    0.4513 C   0  0  0  0  0  0  0  0  0  0  0  0
    3.1416   -1.2140   -0.1240 C   0  0  0  0  0  0  0  0  0  0  0  0
    2.6551   -2.6382   -0.2525 C   0  0  0  0  0  0  0  0  0  0  0  0
    3.4377   -3.5752   -0.2562 O   0  0  0  0  0  0  0  0  0  0  0  0
    1.2846   -2.7937   -0.2977 N   0  0  0  0  0  0  0  0  0  0  0  0
    0.5403   -3.9819   -0.3458 C   0  0  0  0  0  0  0  0  0  0  0  0
    1.1168   -5.2667   -0.4207 C   0  0  0  0  0  0  0  0  0  0  0  0
    0.2971   -6.3937   -0.4654 C   0  0  0  0  0  0  0  0  0  0  0  0
   -1.0888   -6.2679   -0.4430 C   0  0  0  0  0  0  0  0  0  0  0  0
   -1.6622   -4.9941   -0.3821 C   0  0  0  0  0  0  0  0  0  0  0  0
   -0.8612   -3.8597   -0.3297 C   0  0  0  0  0  0  0  0  0  0  0  0
   -3.0354   -4.8351   -0.3600 O   0  0  0  0  0  0  0  0  0  0  0  0
   -3.7733   -5.9276   -0.7271 C   0  0  2  0  0  0  0  0  0  0  0  0
   -3.7926   -6.0565   -2.0731 F   0  0  0  0  0  0  0  0  0  0  0  0
   -5.0233   -5.7303   -0.3093 F   0  0  0  0  0  0  0  0  0  0  0  0
   -3.1866   -7.2337   -0.1281 C   0  0  1  0  0  0  0  0  0  0  0  0
   -3.3059   -7.1621    1.2178 F   0  0  0  0  0  0  0  0  0  0  0  0
   -3.8693   -8.2972   -0.5514 F   0  0  0  0  0  0  0  0  0  0  0  0
   -1.8811   -7.4031   -0.4904 O   0  0  0  0  0  0  0  0  0  0  0  0
    0.7670    0.7768   -1.3498 H   0  0  0  0  0  0  0  0  0  0  0  0
    1.1234   -0.7397   -1.9279 H   0  0  0  0  0  0  0  0  0  0  0  0
    2.4229    2.1072   -0.5167 H   0  0  0  0  0  0  0  0  0  0  0  0
    4.6310    2.3276    0.5839 H   0  0  0  0  0  0  0  0  0  0  0  0
    5.9455    0.2763    1.1751 H   0  0  0  0  0  0  0  0  0  0  0  0
    4.9580   -1.9783    0.7015 H   0  0  0  0  0  0  0  0  0  0  0  0
    0.7444   -1.9299   -0.2533 H   0  0  0  0  0  0  0  0  0  0  0  0
    2.1990   -5.3627   -0.4335 H   0  0  0  0  0  0  0  0  0  0  0  0
    0.7282   -7.3955   -0.5137 H   0  0  0  0  0  0  0  0  0  0  0  0
   -1.3488   -2.8841   -0.2777 H   0  0  0  0  0  0  0  0  0  0  0  0
  1  2  1  0
  1 25  1  0
  1 26  1  0
  2  3  2  0
  2  7  1  0
  3  4  1  0
  3 27  1  0
  4  5  2  0
  4 28  1  0
  5  6  1  0
  5 29  1  0
  6  7  2  0
  6 30  1  0
  7  8  1  0
  8  9  2  0
  8 10  1  0
 10 11  1  0
 10 31  1  0
 11 12  2  0
 11 16  1  0
 12 13  1  0
 12 32  1  0
 13 14  2  0
 13 33  1  0
 14 15  1  0
 14 24  1  0
 15 16  2  0
 15 17  1  0
 16 34  1  0
 17 18  1  0
 18 19  1  6
 18 20  1  0
 18 21  1  0
 21 22  1  1
 21 23  1  0
 21 24  1  0
M  END

