
     RDKit          3D

 53 57  0  0  0  0  0  0  0  0999 V2000
    3.1295   -0.5231   -0.8841 O   0  0  0  0  0  0  0  0  0  0  0  0
    2.4615    0.3799   -0.4182 C   0  0  0  0  0  0  0  0  0  0  0  0
    3.0610    1.2589    0.6123 C   0  0  0  0  0  0  0  0  0  0  0  0
    2.5348    2.3937    0.9822 N   0  0  0  0  0  0  0  0  0  0  0  0
    3.3830    3.0557    1.8322 N   0  0  0  0  0  0  0  0  0  0  0  0
    4.2540    2.0472    2.4005 C   0  0  2  0  0  0  0  0  0  0  0  0
    5.6574    2.1444    2.9632 C   0  0  0  0  0  0  0  0  0  0  0  0
    6.2280    3.0171    3.5545 O   0  0  0  0  0  0  0  0  0  0  0  0
    6.1686    0.8434    2.6839 N   0  0  0  0  0  0  0  0  0  0  0  0
    7.3393    0.3146    3.3108 C   0  0  0  0  0  0  0  0  0  0  0  0
    8.5783    0.4598    2.6842 C   0  0  0  0  0  0  0  0  0  0  0  0
    9.7339   -0.0522    3.2788 C   0  0  0  0  0  0  0  0  0  0  0  0
    9.6508   -0.7114    4.5059 C   0  0  0  0  0  0  0  0  0  0  0  0
    8.4136   -0.8591    5.1381 C   0  0  0  0  0  0  0  0  0  0  0  0
    7.2524   -0.3504    4.5492 C   0  0  0  0  0  0  0  0  0  0  0  0
    5.9183   -0.5212    5.2441 C   0  0  1  0  0  0  0  0  0  0  0  0
    5.0427   -1.2135    4.4937 F   0  0  0  0  0  0  0  0  0  0  0  0
    6.0413   -1.1676    6.4117 F   0  0  0  0  0  0  0  0  0  0  0  0
    5.3384    0.6700    5.5110 F   0  0  0  0  0  0  0  0  0  0  0  0
    5.4061    0.1055    1.7123 C   0  0  0  0  0  0  0  0  0  0  0  0
    5.6050   -1.0341    1.4146 O   0  0  0  0  0  0  0  0  0  0  0  0
    4.4594    1.1669    1.1752 C   0  0  1  0  0  0  0  0  0  0  0  0
    1.0071    0.6510   -0.8257 C   0  0  1  0  0  0  0  0  0  0  0  0
    0.8466    0.6796   -2.3441 C   0  0  0  0  0  0  0  0  0  0  0  0
    1.0037   -0.4710   -3.1330 C   0  0  0  0  0  0  0  0  0  0  0  0
    0.8604   -0.4047   -4.5207 C   0  0  0  0  0  0  0  0  0  0  0  0
    0.5558    0.8098   -5.1445 C   0  0  0  0  0  0  0  0  0  0  0  0
    0.3980    1.9607   -4.3690 C   0  0  0  0  0  0  0  0  0  0  0  0
    0.5450    1.8934   -2.9800 C   0  0  0  0  0  0  0  0  0  0  0  0
    0.0615   -0.3346   -0.1287 C   0  0  0  0  0  0  0  0  0  0  0  0
    0.3834   -1.6868    0.0701 C   0  0  0  0  0  0  0  0  0  0  0  0
   -0.5292   -2.5530    0.6814 C   0  0  0  0  0  0  0  0  0  0  0  0
   -1.7749   -2.0843    1.1053 C   0  0  0  0  0  0  0  0  0  0  0  0
   -2.1034   -0.7381    0.9164 C   0  0  0  0  0  0  0  0  0  0  0  0
   -1.1913    0.1267    0.3083 C   0  0  0  0  0  0  0  0  0  0  0  0
    2.8993    3.7133    2.4375 H   0  0  0  0  0  0  0  0  0  0  0  0
    3.6933    1.4561    3.1595 H   0  0  0  0  0  0  0  0  0  0  0  0
    8.6268    0.9791    1.7254 H   0  0  0  0  0  0  0  0  0  0  0  0
   10.6987    0.0664    2.7805 H   0  0  0  0  0  0  0  0  0  0  0  0
   10.5503   -1.1144    4.9766 H   0  0  0  0  0  0  0  0  0  0  0  0
    8.3441   -1.3744    6.0965 H   0  0  0  0  0  0  0  0  0  0  0  0
    5.0944    1.7419    0.4647 H   0  0  0  0  0  0  0  0  0  0  0  0
    0.7544    1.6504   -0.4500 H   0  0  0  0  0  0  0  0  0  0  0  0
    1.2436   -1.4236   -2.6600 H   0  0  0  0  0  0  0  0  0  0  0  0
    0.9870   -1.3103   -5.1198 H   0  0  0  0  0  0  0  0  0  0  0  0
    0.4414    0.8573   -6.2306 H   0  0  0  0  0  0  0  0  0  0  0  0
    0.1593    2.9159   -4.8441 H   0  0  0  0  0  0  0  0  0  0  0  0
    0.4234    2.7997   -2.3795 H   0  0  0  0  0  0  0  0  0  0  0  0
    1.3575   -2.0655   -0.2457 H   0  0  0  0  0  0  0  0  0  0  0  0
   -0.2591   -3.6019    0.8294 H   0  0  0  0  0  0  0  0  0  0  0  0
   -2.4858   -2.7628    1.5837 H   0  0  0  0  0  0  0  0  0  0  0  0
   -3.0738   -0.3581    1.2466 H   0  0  0  0  0  0  0  0  0  0  0  0
   -1.4565    1.1779    0.1640 H   0  0  0  0  0  0  0  0  0  0  0  0
  1  2  2  0
  2  3  1  0
  2 23  1  0
  3  4  2  0
  3 22  1  0
  4  5  1  0
  5  6  1  0
  5 36  1  0
  6  7  1  0
  6 22  1  0
  6 37  1  1
  7  8  2  0
  7  9  1  0
  9 10  1  0
  9 20  1  0
 10 11  2  0
 10 15  1  0
 11 12  1  0
 11 38  1  0
 12 13  2  0
 12 39  1  0
 13 14  1  0
 13 40  1  0
 14 15  2  0
 14 41  1  0
 15 16  1  0
 16 17  1  6
 16 18  1  0
 16 19  1  0
 20 21  2  0
 20 22  1  0
 22 42  1  6
 23 24  1  0
 23 30  1  0
 23 43  1  1
 24 25  2  0
 24 29  1  0
 25 26  1  0
 25 44  1  0
 26 27  2  0
 26 45  1  0
 27 28  1  0
 27 46  1  0
 28 29  2  0
 28 47  1  0
 29 48  1  0
 30 31  2  0
 30 35  1  0
 31 32  1  0
 31 49  1  0
 32 33  2  0
 32 50  1  0
 33 34  1  0
 33 51  1  0
 34 35  2  0
 34 52  1  0
 35 53  1  0
M  END

