
     RDKit          3D

 85 93  0  0  0  0  0  0  0  0999 V2000
    1.3901   -0.7813    0.2154 C   0  0  0  0  0  0  0  0  0  0  0  0
    2.7674   -0.0529   -0.8517 Si  0  0  1  0  0  4  0  0  0  0  0  0
    2.0695    1.2364   -2.0421 C   0  0  0  0  0  0  0  0  0  0  0  0
    4.1130    0.7075    0.2333 C   0  0  0  0  0  0  0  0  0  0  0  0
    3.5219   -1.4204   -1.8474 C   0  0  0  0  0  0  0  0  0  0  0  0
    4.0212   -2.3258   -2.5075 C   0  0  0  0  0  0  0  0  0  0  0  0
    4.7767   -3.6983   -3.5091 Si  0  0  1  0  0  4  0  0  0  0  0  0
    3.2586   -4.6076   -4.2836 C   0  0  0  0  0  0  0  0  0  0  0  0
    2.2085   -3.8163   -4.8434 C   0  0  0  0  0  0  0  0  0  0  0  0
    2.3357   -2.4113   -5.1123 C   0  0  0  0  0  0  0  0  0  0  0  0
    1.3084   -1.6760   -5.6515 C   0  0  0  0  0  0  0  0  0  0  0  0
    0.0574   -2.2822   -5.9596 C   0  0  0  0  0  0  0  0  0  0  0  0
   -0.1130   -3.6243   -5.7421 C   0  0  0  0  0  0  0  0  0  0  0  0
    0.9445   -4.4275   -5.2047 C   0  0  0  0  0  0  0  0  0  0  0  0
    0.7754   -5.8053   -5.0367 C   0  0  0  0  0  0  0  0  0  0  0  0
    1.8170   -6.6222   -4.5877 C   0  0  0  0  0  0  0  0  0  0  0  0
    1.6431   -8.0416   -4.5030 C   0  0  0  0  0  0  0  0  0  0  0  0
    2.6731   -8.8624   -4.1247 C   0  0  0  0  0  0  0  0  0  0  0  0
    3.9418   -8.2949   -3.8167 C   0  0  0  0  0  0  0  0  0  0  0  0
    4.1366   -6.9358   -3.8607 C   0  0  0  0  0  0  0  0  0  0  0  0
    3.0887   -6.0238   -4.2248 C   0  0  0  0  0  0  0  0  0  0  0  0
    5.8928   -2.7856   -4.7942 C   0  0  0  0  0  0  0  0  0  0  0  0
    6.7099   -1.7064   -4.3364 C   0  0  0  0  0  0  0  0  0  0  0  0
    6.9626   -1.4413   -2.9477 C   0  0  0  0  0  0  0  0  0  0  0  0
    7.7529   -0.3957   -2.5370 C   0  0  0  0  0  0  0  0  0  0  0  0
    8.3520    0.4845   -3.4826 C   0  0  0  0  0  0  0  0  0  0  0  0
    8.1610    0.2664   -4.8218 C   0  0  0  0  0  0  0  0  0  0  0  0
    7.3640   -0.8292   -5.2873 C   0  0  0  0  0  0  0  0  0  0  0  0
    7.2206   -1.0725   -6.6568 C   0  0  0  0  0  0  0  0  0  0  0  0
    6.5138   -2.1799   -7.1344 C   0  0  0  0  0  0  0  0  0  0  0  0
    6.4525   -2.4529   -8.5393 C   0  0  0  0  0  0  0  0  0  0  0  0
    5.8175   -3.5683   -9.0193 C   0  0  0  0  0  0  0  0  0  0  0  0
    5.2133   -4.4765   -8.1047 C   0  0  0  0  0  0  0  0  0  0  0  0
    5.2288   -4.2320   -6.7531 C   0  0  0  0  0  0  0  0  0  0  0  0
    5.8557   -3.0676   -6.1931 C   0  0  0  0  0  0  0  0  0  0  0  0
    5.7536   -4.7464   -2.2136 C   0  0  0  0  0  0  0  0  0  0  0  0
    5.1220   -5.0417   -0.9663 C   0  0  0  0  0  0  0  0  0  0  0  0
    3.7191   -4.8490   -0.7264 C   0  0  0  0  0  0  0  0  0  0  0  0
    3.1391   -5.1425    0.4836 C   0  0  0  0  0  0  0  0  0  0  0  0
    3.9166   -5.6457    1.5652 C   0  0  0  0  0  0  0  0  0  0  0  0
    5.2568   -5.8679    1.3859 C   0  0  0  0  0  0  0  0  0  0  0  0
    5.8908   -5.5973    0.1300 C   0  0  0  0  0  0  0  0  0  0  0  0
    7.2478   -5.8780   -0.0563 C   0  0  0  0  0  0  0  0  0  0  0  0
    7.8705   -5.6966   -1.2946 C   0  0  0  0  0  0  0  0  0  0  0  0
    9.2409   -6.0701   -1.4810 C   0  0  0  0  0  0  0  0  0  0  0  0
    9.8479   -5.9575   -2.7044 C   0  0  0  0  0  0  0  0  0  0  0  0
    9.1011   -5.4666   -3.8125 C   0  0  0  0  0  0  0  0  0  0  0  0
    7.7934   -5.0733   -3.6638 C   0  0  0  0  0  0  0  0  0  0  0  0
    7.1119   -5.1435   -2.4016 C   0  0  0  0  0  0  0  0  0  0  0  0
    0.9259   -0.0016    0.8425 H   0  0  0  0  0  0  0  0  0  0  0  0
    1.7822   -1.5670    0.8812 H   0  0  0  0  0  0  0  0  0  0  0  0
    0.6012   -1.2301   -0.4097 H   0  0  0  0  0  0  0  0  0  0  0  0
    1.5885    2.0609   -1.4893 H   0  0  0  0  0  0  0  0  0  0  0  0
    1.3166    0.7876   -2.7099 H   0  0  0  0  0  0  0  0  0  0  0  0
    2.8659    1.6665   -2.6706 H   0  0  0  0  0  0  0  0  0  0  0  0
    3.7104    1.5436    0.8297 H   0  0  0  0  0  0  0  0  0  0  0  0
    4.9421    1.0938   -0.3812 H   0  0  0  0  0  0  0  0  0  0  0  0
    4.5275   -0.0391    0.9298 H   0  0  0  0  0  0  0  0  0  0  0  0
    3.2776   -1.9064   -4.9063 H   0  0  0  0  0  0  0  0  0  0  0  0
    1.4567   -0.6119   -5.8526 H   0  0  0  0  0  0  0  0  0  0  0  0
   -0.7521   -1.6796   -6.3791 H   0  0  0  0  0  0  0  0  0  0  0  0
   -1.0586   -4.1145   -5.9897 H   0  0  0  0  0  0  0  0  0  0  0  0
   -0.1862   -6.2599   -5.2929 H   0  0  0  0  0  0  0  0  0  0  0  0
    0.6664   -8.4574   -4.7658 H   0  0  0  0  0  0  0  0  0  0  0  0
    2.5317   -9.9447   -4.0722 H   0  0  0  0  0  0  0  0  0  0  0  0
    4.7742   -8.9484   -3.5436 H   0  0  0  0  0  0  0  0  0  0  0  0
    5.1237   -6.5458   -3.6260 H   0  0  0  0  0  0  0  0  0  0  0  0
    6.5375   -2.0950   -2.1885 H   0  0  0  0  0  0  0  0  0  0  0  0
    7.9293   -0.2419   -1.4694 H   0  0  0  0  0  0  0  0  0  0  0  0
    8.9699    1.3172   -3.1373 H   0  0  0  0  0  0  0  0  0  0  0  0
    8.6278    0.9179   -5.5658 H   0  0  0  0  0  0  0  0  0  0  0  0
    7.7003   -0.3974   -7.3717 H   0  0  0  0  0  0  0  0  0  0  0  0
    6.9430   -1.7533   -9.2218 H   0  0  0  0  0  0  0  0  0  0  0  0
    5.7848   -3.7714  -10.0926 H   0  0  0  0  0  0  0  0  0  0  0  0
    4.7323   -5.3828   -8.4813 H   0  0  0  0  0  0  0  0  0  0  0  0
    4.7632   -4.9567   -6.0901 H   0  0  0  0  0  0  0  0  0  0  0  0
    3.0815   -4.4795   -1.5273 H   0  0  0  0  0  0  0  0  0  0  0  0
    2.0643   -4.9935    0.6150 H   0  0  0  0  0  0  0  0  0  0  0  0
    3.4401   -5.8645    2.5240 H   0  0  0  0  0  0  0  0  0  0  0  0
    5.8692   -6.2724    2.1966 H   0  0  0  0  0  0  0  0  0  0  0  0
    7.8291   -6.2796    0.7790 H   0  0  0  0  0  0  0  0  0  0  0  0
    9.7884   -6.4657   -0.6210 H   0  0  0  0  0  0  0  0  0  0  0  0
   10.8913   -6.2540   -2.8373 H   0  0  0  0  0  0  0  0  0  0  0  0
    9.5724   -5.4038   -4.7966 H   0  0  0  0  0  0  0  0  0  0  0  0
    7.2580   -4.7130   -4.5385 H   0  0  0  0  0  0  0  0  0  0  0  0
  1  2  1  0
  1 50  1  0
  1 51  1  0
  1 52  1  0
  2  3  1  0
  2  4  1  0
  2  5  1  6
  3 53  1  0
  3 54  1  0
  3 55  1  0
  4 56  1  0
  4 57  1  0
  4 58  1  0
  5  6  3  0
  7  6  1  1
  7  8  1  0
  7 22  1  0
  7 36  1  0
  8  9  1  0
  8 21  2  0
  9 10  2  0
  9 14  1  0
 10 11  1  0
 10 59  1  0
 11 12  2  0
 11 60  1  0
 12 13  1  0
 12 61  1  0
 13 14  2  0
 13 62  1  0
 14 15  1  0
 15 16  2  0
 15 63  1  0
 16 17  1  0
 16 21  1  0
 17 18  2  0
 17 64  1  0
 18 19  1  0
 18 65  1  0
 19 20  2  0
 19 66  1  0
 20 21  1  0
 20 67  1  0
 22 23  1  0
 22 35  2  0
 23 24  2  0
 23 28  1  0
 24 25  1  0
 24 68  1  0
 25 26  2  0
 25 69  1  0
 26 27  1  0
 26 70  1  0
 27 28  2  0
 27 71  1  0
 28 29  1  0
 29 30  2  0
 29 72  1  0
 30 31  1  0
 30 35  1  0
 31 32  2  0
 31 73  1  0
 32 33  1  0
 32 74  1  0
 33 34  2  0
 33 75  1  0
 34 35  1  0
 34 76  1  0
 36 37  1  0
 36 49  2  0
 37 38  2  0
 37 42  1  0
 38 39  1  0
 38 77  1  0
 39 40  2  0
 39 78  1  0
 40 41  1  0
 40 79  1  0
 41 42  2  0
 41 80  1  0
 42 43  1  0
 43 44  2  0
 43 81  1  0
 44 45  1  0
 44 49  1  0
 45 46  2  0
 45 82  1  0
 46 47  1  0
 46 83  1  0
 47 48  2  0
 47 84  1  0
 48 49  1  0
 48 85  1  0
M  END

