
     RDKit          3D

106109  0  0  0  0  0  0  0  0999 V2000
    7.8730   -0.5528    5.0677 C   0  0  0  0  0  0  0  0  0  0  0  0
    8.6195    0.0294    3.8669 C   0  0  0  0  0  0  0  0  0  0  0  0
    9.9450   -0.6928    3.5271 C   0  0  1  0  0  0  0  0  0  0  0  0
   10.5399   -0.2125    2.1899 C   0  0  0  0  0  0  0  0  0  0  0  0
   10.9674   -0.7269    4.6700 C   0  0  0  0  0  0  0  0  0  0  0  0
   11.2551   -1.9956    5.2142 C   0  0  0  0  0  0  0  0  0  0  0  0
   12.1797   -2.1722    6.2433 C   0  0  0  0  0  0  0  0  0  0  0  0
   12.4850   -3.3957    6.7899 O   0  0  0  0  0  0  0  0  0  0  0  0
   11.7723   -4.5453    6.3781 C   0  0  0  0  0  0  0  0  0  0  0  0
   12.8587   -1.0612    6.7771 C   0  0  0  0  0  0  0  0  0  0  0  0
   13.8568   -1.2220    7.9062 C   0  0  2  0  0  0  0  0  0  0  0  0
   13.4963   -2.0326    8.5734 H   0  0  0  0  0  0  0  0  0  0  0  0
   13.9168   -0.0109    8.6383 O   0  0  0  0  0  0  0  0  0  0  0  0
   14.7148   -0.0828    9.8175 C   0  0  2  0  0  0  0  0  0  0  0  0
   14.2978   -0.8752   10.4744 H   0  0  0  0  0  0  0  0  0  0  0  0
   14.5337    1.2573   10.5211 C   0  0  0  0  0  0  0  0  0  0  0  0
   13.1838    1.5132   10.8097 O   0  0  0  0  0  0  0  0  0  0  0  0
   16.1566   -0.4166    9.4507 C   0  0  0  0  0  0  0  0  0  0  0  0
   16.2423   -1.6922    8.6014 C   0  0  2  0  0  0  0  0  0  0  0  0
   15.9339   -2.5656    9.2150 H   0  0  0  0  0  0  0  0  0  0  0  0
   17.5422   -1.8806    8.0818 O   0  0  0  0  0  0  0  0  0  0  0  0
   15.2721   -1.6261    7.4134 C   0  0  1  0  0  0  0  0  0  0  0  0
   15.6347   -0.8263    6.7402 H   0  0  0  0  0  0  0  0  0  0  0  0
   15.2614   -2.8370    6.6972 O   0  0  0  0  0  0  0  0  0  0  0  0
   12.5714    0.1897    6.2376 C   0  0  0  0  0  0  0  0  0  0  0  0
   11.6437    0.3940    5.1999 C   0  0  0  0  0  0  0  0  0  0  0  0
   11.4732    1.8244    4.6960 C   0  0  0  0  0  0  0  0  0  0  0  0
   11.2983    2.8724    5.7803 C   0  0  0  0  0  0  0  0  0  0  0  0
   12.1350    3.9931    5.8514 C   0  0  0  0  0  0  0  0  0  0  0  0
   11.9486    4.9734    6.8293 C   0  0  0  0  0  0  0  0  0  0  0  0
   10.9178    4.8756    7.7810 C   0  0  0  0  0  0  0  0  0  0  0  0
   10.7714    5.9391    8.7891 C   0  0  0  0  0  0  0  0  0  0  0  0
    9.8618    6.0003    9.7771 C   0  0  0  0  0  0  0  0  0  0  0  0
    9.7156    7.1016   10.8152 C   0  0  1  0  0  0  0  0  0  0  0  0
    9.6422    6.4573   12.2218 C   0  0  0  0  0  0  0  0  0  0  0  0
   10.8638    8.1162   10.7798 C   0  0  0  0  0  0  0  0  0  0  0  0
    8.3825    7.8676   10.5197 C   0  0  0  0  0  0  0  0  0  0  0  0
    8.3800    9.0570   10.2281 O   0  0  0  0  0  0  0  0  0  0  0  0
    7.2574    7.1131   10.6085 N   0  0  0  0  0  0  0  0  0  0  0  0
    5.8848    7.5632   10.3519 C   0  0  1  0  0  0  0  0  0  0  0  0
    5.5291    8.6728   11.3676 C   0  0  0  0  0  0  0  0  0  0  0  0
    5.7891    8.0412    8.8846 C   0  0  0  0  0  0  0  0  0  0  0  0
    5.0295    6.2698   10.5944 C   0  0  0  0  0  0  0  0  0  0  0  0
    5.6136    5.2329   10.9059 O   0  0  0  0  0  0  0  0  0  0  0  0
    3.6667    6.2827   10.4685 N   0  0  0  0  0  0  0  0  0  0  0  0
    2.7759    7.3922   10.1270 C   0  0  0  0  0  0  0  0  0  0  0  0
    1.8545    6.9937    8.9567 C   0  0  0  0  0  0  0  0  0  0  0  0
    1.1140    5.7624    9.1809 N   0  0  0  0  0  0  0  0  0  0  0  0
   -0.0771    5.8929    9.9995 C   0  0  0  0  0  0  0  0  0  0  0  0
    2.0191    4.6849    9.5631 C   0  0  0  0  0  0  0  0  0  0  0  0
    2.9320    5.0397   10.7464 C   0  0  0  0  0  0  0  0  0  0  0  0
   10.0781    3.7436    7.7067 C   0  0  0  0  0  0  0  0  0  0  0  0
   10.2663    2.7687    6.7320 C   0  0  0  0  0  0  0  0  0  0  0  0
    6.9240   -0.0205    5.2408 H   0  0  0  0  0  0  0  0  0  0  0  0
    8.4696   -0.4833    5.9913 H   0  0  0  0  0  0  0  0  0  0  0  0
    7.6318   -1.6181    4.9124 H   0  0  0  0  0  0  0  0  0  0  0  0
    8.7950    1.1055    4.0314 H   0  0  0  0  0  0  0  0  0  0  0  0
    7.9722   -0.0291    2.9737 H   0  0  0  0  0  0  0  0  0  0  0  0
    9.6637   -1.7478    3.3634 H   0  0  0  0  0  0  0  0  0  0  0  0
   10.7915    0.8583    2.1955 H   0  0  0  0  0  0  0  0  0  0  0  0
    9.8191   -0.3754    1.3717 H   0  0  0  0  0  0  0  0  0  0  0  0
   11.4585   -0.7684    1.9454 H   0  0  0  0  0  0  0  0  0  0  0  0
   10.7320   -2.8597    4.8043 H   0  0  0  0  0  0  0  0  0  0  0  0
   12.1535   -5.3808    6.9802 H   0  0  0  0  0  0  0  0  0  0  0  0
   11.9373   -4.7678    5.3095 H   0  0  0  0  0  0  0  0  0  0  0  0
   10.6895   -4.4338    6.5599 H   0  0  0  0  0  0  0  0  0  0  0  0
   14.9833    2.0506    9.8877 H   0  0  0  0  0  0  0  0  0  0  0  0
   15.0846    1.2454   11.4758 H   0  0  0  0  0  0  0  0  0  0  0  0
   12.7030    1.3897    9.9775 H   0  0  0  0  0  0  0  0  0  0  0  0
   16.7651   -0.5311   10.3653 H   0  0  0  0  0  0  0  0  0  0  0  0
   16.5909    0.4128    8.8673 H   0  0  0  0  0  0  0  0  0  0  0  0
   18.1369   -2.0774    8.8163 H   0  0  0  0  0  0  0  0  0  0  0  0
   14.4135   -3.2843    6.8414 H   0  0  0  0  0  0  0  0  0  0  0  0
   13.0845    1.0528    6.6643 H   0  0  0  0  0  0  0  0  0  0  0  0
   10.6159    1.8877    4.0143 H   0  0  0  0  0  0  0  0  0  0  0  0
   12.3539    2.0946    4.0880 H   0  0  0  0  0  0  0  0  0  0  0  0
   12.9485    4.1046    5.1284 H   0  0  0  0  0  0  0  0  0  0  0  0
   12.6198    5.8365    6.8590 H   0  0  0  0  0  0  0  0  0  0  0  0
   11.5001    6.7497    8.6950 H   0  0  0  0  0  0  0  0  0  0  0  0
    9.1334    5.1865    9.8699 H   0  0  0  0  0  0  0  0  0  0  0  0
   10.6015    5.9737   12.4641 H   0  0  0  0  0  0  0  0  0  0  0  0
    8.8591    5.6863   12.2913 H   0  0  0  0  0  0  0  0  0  0  0  0
    9.4364    7.2190   12.9906 H   0  0  0  0  0  0  0  0  0  0  0  0
   11.8251    7.6124   10.9624 H   0  0  0  0  0  0  0  0  0  0  0  0
   10.7165    8.8832   11.5532 H   0  0  0  0  0  0  0  0  0  0  0  0
   10.9090    8.6414    9.8165 H   0  0  0  0  0  0  0  0  0  0  0  0
    7.3005    6.1263   10.8564 H   0  0  0  0  0  0  0  0  0  0  0  0
    6.2691    9.4785   11.2699 H   0  0  0  0  0  0  0  0  0  0  0  0
    5.5779    8.2760   12.3934 H   0  0  0  0  0  0  0  0  0  0  0  0
    4.5306    9.1004   11.2092 H   0  0  0  0  0  0  0  0  0  0  0  0
    6.5423    8.8252    8.7278 H   0  0  0  0  0  0  0  0  0  0  0  0
    4.8056    8.4557    8.6268 H   0  0  0  0  0  0  0  0  0  0  0  0
    6.0057    7.2074    8.1995 H   0  0  0  0  0  0  0  0  0  0  0  0
    3.3433    8.2843    9.8569 H   0  0  0  0  0  0  0  0  0  0  0  0
    2.1704    7.6497   11.0166 H   0  0  0  0  0  0  0  0  0  0  0  0
    2.4836    6.8670    8.0563 H   0  0  0  0  0  0  0  0  0  0  0  0
    1.1486    7.8146    8.7504 H   0  0  0  0  0  0  0  0  0  0  0  0
   -0.7437    6.6542    9.5630 H   0  0  0  0  0  0  0  0  0  0  0  0
    0.0974    6.1771   11.0613 H   0  0  0  0  0  0  0  0  0  0  0  0
   -0.6267    4.9377   10.0048 H   0  0  0  0  0  0  0  0  0  0  0  0
    2.6566    4.4386    8.6945 H   0  0  0  0  0  0  0  0  0  0  0  0
    1.4329    3.7832    9.8030 H   0  0  0  0  0  0  0  0  0  0  0  0
    3.6654    4.2485   10.9372 H   0  0  0  0  0  0  0  0  0  0  0  0
    2.3343    5.1803   11.6664 H   0  0  0  0  0  0  0  0  0  0  0  0
    9.2622    3.6221    8.4227 H   0  0  0  0  0  0  0  0  0  0  0  0
    9.6012    1.9010    6.7097 H   0  0  0  0  0  0  0  0  0  0  0  0
  1  2  1  0
  1 54  1  0
  1 55  1  0
  1 56  1  0
  2  3  1  0
  2 57  1  0
  2 58  1  0
  3  4  1  0
  3  5  1  0
  3 59  1  6
  4 60  1  0
  4 61  1  0
  4 62  1  0
  5  6  2  0
  5 26  1  0
  6  7  1  0
  6 63  1  0
  7  8  1  0
  7 10  2  0
  8  9  1  0
  9 64  1  0
  9 65  1  0
  9 66  1  0
 10 11  1  0
 10 25  1  0
 11 12  1  1
 11 13  1  0
 11 22  1  0
 13 14  1  0
 14 15  1  1
 14 16  1  0
 14 18  1  0
 16 17  1  0
 16 67  1  0
 16 68  1  0
 17 69  1  0
 18 19  1  0
 18 70  1  0
 18 71  1  0
 19 20  1  1
 19 21  1  0
 19 22  1  0
 21 72  1  0
 22 23  1  6
 22 24  1  0
 24 73  1  0
 25 26  2  0
 25 74  1  0
 26 27  1  0
 27 28  1  0
 27 75  1  0
 27 76  1  0
 28 29  2  0
 28 53  1  0
 29 30  1  0
 29 77  1  0
 30 31  2  0
 30 78  1  0
 31 32  1  0
 31 52  1  0
 32 33  2  0
 32 79  1  0
 34 33  1  6
 33 80  1  0
 34 35  1  0
 34 36  1  0
 34 37  1  0
 35 81  1  0
 35 82  1  0
 35 83  1  0
 36 84  1  0
 36 85  1  0
 36 86  1  0
 37 38  2  0
 37 39  1  0
 39 40  1  0
 39 87  1  0
 40 41  1  0
 40 42  1  0
 40 43  1  6
 41 88  1  0
 41 89  1  0
 41 90  1  0
 42 91  1  0
 42 92  1  0
 42 93  1  0
 43 44  2  0
 43 45  1  0
 45 46  1  0
 45 51  1  0
 46 47  1  0
 46 94  1  0
 46 95  1  0
 47 48  1  0
 47 96  1  0
 47 97  1  0
 48 49  1  0
 48 50  1  0
 49 98  1  0
 49 99  1  0
 49100  1  0
 50 51  1  0
 50101  1  0
 50102  1  0
 51103  1  0
 51104  1  0
 52 53  2  0
 52105  1  0
 53106  1  0
M  END

