
     RDKit          3D

 49 51  0  0  0  0  0  0  0  0999 V2000
    0.8989    0.8026    0.2719 C   0  0  0  0  0  0  0  0  0  0  0  0
    2.1342    1.3007    0.0675 C   0  0  0  0  0  0  0  0  0  0  0  0
    2.8616    2.0175    1.0470 N   0  0  0  0  0  0  0  0  0  0  0  0
    2.3537    2.0547    2.3356 N   0  0  0  0  0  0  0  0  0  0  0  0
    2.9977    1.3588    3.3332 C   0  0  0  0  0  0  0  0  0  0  0  0
    3.9582    0.6442    3.0981 O   0  0  0  0  0  0  0  0  0  0  0  0
    2.4667    1.5617    4.7245 C   0  0  0  0  0  0  0  0  0  0  0  0
    3.3095    1.2309    5.7959 C   0  0  0  0  0  0  0  0  0  0  0  0
    2.8740    1.3857    7.1084 C   0  0  0  0  0  0  0  0  0  0  0  0
    1.5841    1.8621    7.3755 C   0  0  0  0  0  0  0  0  0  0  0  0
    1.0680    2.0437    9.0235 Cl  0  0  0  0  0  0  0  0  0  0  0  0
    0.7262    2.1784    6.3073 C   0  0  0  0  0  0  0  0  0  0  0  0
   -0.8924    2.7492    6.5917 Cl  0  0  0  0  0  0  0  0  0  0  0  0
    1.1709    2.0239    4.9911 C   0  0  0  0  0  0  0  0  0  0  0  0
    2.8438    1.2279   -1.2364 C   0  0  0  0  0  0  0  0  0  0  0  0
    3.6765    2.2721   -1.6776 C   0  0  0  0  0  0  0  0  0  0  0  0
    4.3404    2.2216   -2.9037 C   0  0  0  0  0  0  0  0  0  0  0  0
    4.1854    1.0981   -3.7344 C   0  0  0  0  0  0  0  0  0  0  0  0
    4.8174    0.9626   -4.9834 N   0  0  0  0  0  0  0  0  0  0  0  0
    5.6695    1.8323   -5.6294 C   0  0  0  0  0  0  0  0  0  0  0  0
    6.0167    2.9074   -5.1719 O   0  0  0  0  0  0  0  0  0  0  0  0
    6.1453    1.3554   -7.0003 C   0  0  1  0  0  0  0  0  0  0  0  0
    5.6555    2.2676   -8.1450 C   0  0  0  0  0  0  0  0  0  0  0  0
    6.5734    1.8873   -9.3142 C   0  0  0  0  0  0  0  0  0  0  0  0
    7.9576    1.6373   -8.6646 C   0  0  0  0  0  0  0  0  0  0  0  0
    7.6845    1.4111   -7.1513 C   0  0  0  0  0  0  0  0  0  0  0  0
    3.3594    0.0436   -3.3000 C   0  0  0  0  0  0  0  0  0  0  0  0
    2.7061    0.1063   -2.0744 C   0  0  0  0  0  0  0  0  0  0  0  0
    0.4215    0.8463    1.2512 H   0  0  0  0  0  0  0  0  0  0  0  0
    0.3379    0.3651   -0.5531 H   0  0  0  0  0  0  0  0  0  0  0  0
    3.8516    1.7683    1.0741 H   0  0  0  0  0  0  0  0  0  0  0  0
    1.8220    2.8878    2.5680 H   0  0  0  0  0  0  0  0  0  0  0  0
    4.3078    0.8489    5.5764 H   0  0  0  0  0  0  0  0  0  0  0  0
    3.5260    1.1376    7.9475 H   0  0  0  0  0  0  0  0  0  0  0  0
    0.4697    2.2472    4.1857 H   0  0  0  0  0  0  0  0  0  0  0  0
    3.7937    3.1598   -1.0529 H   0  0  0  0  0  0  0  0  0  0  0  0
    4.9737    3.0421   -3.2321 H   0  0  0  0  0  0  0  0  0  0  0  0
    4.6135    0.1007   -5.4749 H   0  0  0  0  0  0  0  0  0  0  0  0
    5.7906    0.3266   -7.1920 H   0  0  0  0  0  0  0  0  0  0  0  0
    5.8174    3.3159   -7.8429 H   0  0  0  0  0  0  0  0  0  0  0  0
    4.5833    2.1447   -8.3670 H   0  0  0  0  0  0  0  0  0  0  0  0
    6.5999    2.6564  -10.1016 H   0  0  0  0  0  0  0  0  0  0  0  0
    6.2025    0.9614   -9.7861 H   0  0  0  0  0  0  0  0  0  0  0  0
    8.6214    2.5043   -8.8067 H   0  0  0  0  0  0  0  0  0  0  0  0
    8.4669    0.7771   -9.1258 H   0  0  0  0  0  0  0  0  0  0  0  0
    8.0513    2.2625   -6.5588 H   0  0  0  0  0  0  0  0  0  0  0  0
    8.1690    0.5046   -6.7567 H   0  0  0  0  0  0  0  0  0  0  0  0
    3.2401   -0.8445   -3.9285 H   0  0  0  0  0  0  0  0  0  0  0  0
    2.0942   -0.7372   -1.7487 H   0  0  0  0  0  0  0  0  0  0  0  0
  1  2  2  0
  1 29  1  0
  1 30  1  0
  2  3  1  0
  2 15  1  0
  3  4  1  0
  3 31  1  0
  4  5  1  0
  4 32  1  0
  5  6  2  0
  5  7  1  0
  7  8  2  0
  7 14  1  0
  8  9  1  0
  8 33  1  0
  9 10  2  0
  9 34  1  0
 10 11  1  0
 10 12  1  0
 12 13  1  0
 12 14  2  0
 14 35  1  0
 15 16  2  0
 15 28  1  0
 16 17  1  0
 16 36  1  0
 17 18  2  0
 17 37  1  0
 18 19  1  0
 18 27  1  0
 19 20  1  0
 19 38  1  0
 20 21  2  0
 20 22  1  0
 22 23  1  0
 22 26  1  0
 22 39  1  6
 23 24  1  0
 23 40  1  0
 23 41  1  0
 24 25  1  0
 24 42  1  0
 24 43  1  0
 25 26  1  0
 25 44  1  0
 25 45  1  0
 26 46  1  0
 26 47  1  0
 27 28  2  0
 27 48  1  0
 28 49  1  0
M  END

