
     RDKit          3D

 60 62  0  0  0  0  0  0  0  0999 V2000
   12.8598    6.8374   -5.2168 C   0  0  0  0  0  0  0  0  0  0  0  0
   12.2100    5.4938   -4.9879 C   0  0  0  0  0  0  0  0  0  0  0  0
   10.8092    5.3539   -5.0199 C   0  0  0  0  0  0  0  0  0  0  0  0
   10.1952    4.1245   -4.8084 C   0  0  0  0  0  0  0  0  0  0  0  0
   10.9704    2.9791   -4.5550 C   0  0  0  0  0  0  0  0  0  0  0  0
   10.2862    1.8185   -4.3625 O   0  0  0  0  0  0  0  0  0  0  0  0
   10.9921    0.6228   -4.0975 C   0  0  0  0  0  0  0  0  0  0  0  0
    9.9682   -0.4997   -3.8827 C   0  0  1  0  0  0  0  0  0  0  0  0
    9.0692   -0.7192   -5.0963 C   0  0  0  0  0  0  0  0  0  0  0  0
   10.6630   -1.7327   -3.5319 N   0  0  0  0  0  0  0  0  0  0  0  0
   11.0337   -2.0212   -2.2449 C   0  0  0  0  0  0  0  0  0  0  0  0
   10.8205   -1.2469   -1.3224 O   0  0  0  0  0  0  0  0  0  0  0  0
   11.7064   -3.3506   -2.0241 C   0  0  0  0  0  0  0  0  0  0  0  0
   12.3363   -4.0911   -3.0384 C   0  0  0  0  0  0  0  0  0  0  0  0
   12.9511   -5.3107   -2.7542 C   0  0  0  0  0  0  0  0  0  0  0  0
   12.9556   -5.8248   -1.4490 C   0  0  0  0  0  0  0  0  0  0  0  0
   13.5705   -7.1824   -1.1478 C   0  0  0  0  0  0  0  0  0  0  0  0
   14.7566   -7.4698   -1.9389 N   0  0  0  0  0  0  0  0  0  0  0  0
   15.9497   -6.7098   -1.5635 C   0  0  0  0  0  0  0  0  0  0  0  0
   16.6815   -7.2855   -0.3393 C   0  0  0  0  0  0  0  0  0  0  0  0
   17.0016   -8.7715   -0.5476 C   0  0  0  0  0  0  0  0  0  0  0  0
   15.7483   -9.5730   -0.9409 C   0  0  2  0  0  0  0  0  0  0  0  0
   16.0657  -11.0376   -1.2462 C   0  0  0  0  0  0  0  0  0  0  0  0
   15.0598   -8.8826   -2.1387 C   0  0  0  0  0  0  0  0  0  0  0  0
   12.3441   -5.0730   -0.4344 C   0  0  0  0  0  0  0  0  0  0  0  0
   11.7317   -3.8520   -0.7145 C   0  0  0  0  0  0  0  0  0  0  0  0
   12.3657    3.0948   -4.5182 C   0  0  0  0  0  0  0  0  0  0  0  0
   12.9642    4.3437   -4.7338 C   0  0  0  0  0  0  0  0  0  0  0  0
   12.5927    7.2540   -6.2029 H   0  0  0  0  0  0  0  0  0  0  0  0
   13.9569    6.7677   -5.1707 H   0  0  0  0  0  0  0  0  0  0  0  0
   12.5408    7.5751   -4.4608 H   0  0  0  0  0  0  0  0  0  0  0  0
   10.1853    6.2317   -5.2145 H   0  0  0  0  0  0  0  0  0  0  0  0
    9.1082    4.0217   -4.8318 H   0  0  0  0  0  0  0  0  0  0  0  0
   11.6064    0.7249   -3.1861 H   0  0  0  0  0  0  0  0  0  0  0  0
   11.6615    0.3674   -4.9427 H   0  0  0  0  0  0  0  0  0  0  0  0
    9.3578   -0.2118   -3.0118 H   0  0  0  0  0  0  0  0  0  0  0  0
    9.6559   -1.0472   -5.9726 H   0  0  0  0  0  0  0  0  0  0  0  0
    8.5649    0.2188   -5.3650 H   0  0  0  0  0  0  0  0  0  0  0  0
    8.3036   -1.4818   -4.8853 H   0  0  0  0  0  0  0  0  0  0  0  0
   10.7527   -2.4477   -4.2423 H   0  0  0  0  0  0  0  0  0  0  0  0
   12.3822   -3.7066   -4.0612 H   0  0  0  0  0  0  0  0  0  0  0  0
   13.4562   -5.8763   -3.5402 H   0  0  0  0  0  0  0  0  0  0  0  0
   12.8200   -7.9565   -1.3897 H   0  0  0  0  0  0  0  0  0  0  0  0
   13.7285   -7.2582   -0.0498 H   0  0  0  0  0  0  0  0  0  0  0  0
   15.6652   -5.6596   -1.3945 H   0  0  0  0  0  0  0  0  0  0  0  0
   16.6409   -6.7138   -2.4272 H   0  0  0  0  0  0  0  0  0  0  0  0
   16.0549   -7.1638    0.5623 H   0  0  0  0  0  0  0  0  0  0  0  0
   17.6044   -6.7102   -0.1533 H   0  0  0  0  0  0  0  0  0  0  0  0
   17.4629   -9.2026    0.3576 H   0  0  0  0  0  0  0  0  0  0  0  0
   17.7523   -8.8725   -1.3554 H   0  0  0  0  0  0  0  0  0  0  0  0
   15.0456   -9.5445   -0.0859 H   0  0  0  0  0  0  0  0  0  0  0  0
   16.7514  -11.1235   -2.1069 H   0  0  0  0  0  0  0  0  0  0  0  0
   15.1538  -11.6076   -1.4897 H   0  0  0  0  0  0  0  0  0  0  0  0
   16.5494  -11.5311   -0.3876 H   0  0  0  0  0  0  0  0  0  0  0  0
   14.1294   -9.4126   -2.4035 H   0  0  0  0  0  0  0  0  0  0  0  0
   15.7302   -8.9669   -3.0165 H   0  0  0  0  0  0  0  0  0  0  0  0
   12.3530   -5.4484    0.5934 H   0  0  0  0  0  0  0  0  0  0  0  0
   11.2680   -3.2566    0.0743 H   0  0  0  0  0  0  0  0  0  0  0  0
   12.9969    2.2283   -4.3202 H   0  0  0  0  0  0  0  0  0  0  0  0
   14.0555    4.4141   -4.6997 H   0  0  0  0  0  0  0  0  0  0  0  0
  1  2  1  0
  1 29  1  0
  1 30  1  0
  1 31  1  0
  2  3  2  0
  2 28  1  0
  3  4  1  0
  3 32  1  0
  4  5  2  0
  4 33  1  0
  5  6  1  0
  5 27  1  0
  6  7  1  0
  7  8  1  0
  7 34  1  0
  7 35  1  0
  8  9  1  0
  8 10  1  0
  8 36  1  1
  9 37  1  0
  9 38  1  0
  9 39  1  0
 10 11  1  0
 10 40  1  0
 11 12  2  0
 11 13  1  0
 13 14  2  0
 13 26  1  0
 14 15  1  0
 14 41  1  0
 15 16  2  0
 15 42  1  0
 16 17  1  0
 16 25  1  0
 17 18  1  0
 17 43  1  0
 17 44  1  0
 18 19  1  0
 18 24  1  0
 19 20  1  0
 19 45  1  0
 19 46  1  0
 20 21  1  0
 20 47  1  0
 20 48  1  0
 21 22  1  0
 21 49  1  0
 21 50  1  0
 22 23  1  0
 22 24  1  0
 22 51  1  1
 23 52  1  0
 23 53  1  0
 23 54  1  0
 24 55  1  0
 24 56  1  0
 25 26  2  0
 25 57  1  0
 26 58  1  0
 27 28  2  0
 27 59  1  0
 28 60  1  0
M  END

