
     RDKit          3D

 51 53  0  0  0  0  0  0  0  0999 V2000
    2.7414   -2.1778   -0.9302 O   0  0  0  0  0  0  0  0  0  0  0  0
    3.9134   -1.4934   -0.5670 C   0  0  2  0  0  0  0  0  0  0  0  0
    4.7813   -2.1817   -0.5517 H   0  0  0  0  0  0  0  0  0  0  0  0
    3.7677   -0.8977    0.8344 C   0  0  0  0  0  0  0  0  0  0  0  0
    3.5265   -1.9905    1.6894 O   0  0  0  0  0  0  0  0  0  0  0  0
    3.3003   -1.7841    3.0263 C   0  0  0  0  0  0  0  0  0  0  0  0
    3.2775   -0.5206    3.6297 C   0  0  0  0  0  0  0  0  0  0  0  0
    3.0376   -0.4222    5.0068 C   0  0  0  0  0  0  0  0  0  0  0  0
    2.8223   -1.5636    5.7787 C   0  0  0  0  0  0  0  0  0  0  0  0
    2.8480   -2.8225    5.1642 C   0  0  0  0  0  0  0  0  0  0  0  0
    3.0858   -2.9372    3.7965 C   0  0  0  0  0  0  0  0  0  0  0  0
    4.0884   -0.4428   -1.6658 C   0  0  0  0  0  0  0  0  0  0  0  0
    5.3424    0.3726   -1.5893 N   0  0  1  0  0  0  0  0  0  0  0  0
    5.4248    0.7526   -0.6365 H   0  0  0  0  0  0  0  0  0  0  0  0
    6.6025   -0.4380   -1.8497 C   0  0  0  0  0  0  0  0  0  0  0  0
    7.8369    0.4763   -1.8295 C   0  0  0  0  0  0  0  0  0  0  0  0
    7.7209    1.5819   -2.7529 N   0  0  0  0  0  0  0  0  0  0  0  0
    7.9094    1.2917   -4.1447 C   0  0  0  0  0  0  0  0  0  0  0  0
    8.4089    2.2332   -5.0274 C   0  0  0  0  0  0  0  0  0  0  0  0
    7.9850    2.2136   -6.3767 C   0  0  0  0  0  0  0  0  0  0  0  0
    6.8103    1.4573   -6.6432 C   0  0  0  0  0  0  0  0  0  0  0  0
    5.9511    1.8389   -7.8080 C   0  0  1  0  0  0  0  0  0  0  0  0
    6.6704    2.0307   -8.9357 F   0  0  0  0  0  0  0  0  0  0  0  0
    5.0103    0.9107   -8.1011 F   0  0  0  0  0  0  0  0  0  0  0  0
    5.2700    2.9968   -7.6031 F   0  0  0  0  0  0  0  0  0  0  0  0
    6.3667    0.5117   -5.7346 C   0  0  0  0  0  0  0  0  0  0  0  0
    7.2949    0.0922   -4.7137 N   0  0  0  0  0  0  0  0  0  0  0  0
    8.0348   -0.4778   -5.1444 H   0  0  0  0  0  0  0  0  0  0  0  0
    6.5549    2.3891   -2.4160 C   0  0  0  0  0  0  0  0  0  0  0  0
    5.2624    1.5810   -2.5154 C   0  0  0  0  0  0  0  0  0  0  0  0
    2.5254   -2.7807   -0.2034 H   0  0  0  0  0  0  0  0  0  0  0  0
    2.9187   -0.1877    0.8493 H   0  0  0  0  0  0  0  0  0  0  0  0
    4.6830   -0.3546    1.1487 H   0  0  0  0  0  0  0  0  0  0  0  0
    3.4401    0.3883    3.0496 H   0  0  0  0  0  0  0  0  0  0  0  0
    3.0199    0.5660    5.4732 H   0  0  0  0  0  0  0  0  0  0  0  0
    2.6359   -1.4770    6.8512 H   0  0  0  0  0  0  0  0  0  0  0  0
    2.6819   -3.7253    5.7572 H   0  0  0  0  0  0  0  0  0  0  0  0
    3.1119   -3.9107    3.3025 H   0  0  0  0  0  0  0  0  0  0  0  0
    3.2364    0.2525   -1.6404 H   0  0  0  0  0  0  0  0  0  0  0  0
    4.0845   -0.9430   -2.6432 H   0  0  0  0  0  0  0  0  0  0  0  0
    6.5100   -0.8361   -2.8737 H   0  0  0  0  0  0  0  0  0  0  0  0
    6.6462   -1.2311   -1.0898 H   0  0  0  0  0  0  0  0  0  0  0  0
    8.7074   -0.1407   -2.0976 H   0  0  0  0  0  0  0  0  0  0  0  0
    8.0053    0.8532   -0.7979 H   0  0  0  0  0  0  0  0  0  0  0  0
    9.0248    3.0579   -4.6480 H   0  0  0  0  0  0  0  0  0  0  0  0
    8.3860    2.9089   -7.1145 H   0  0  0  0  0  0  0  0  0  0  0  0
    5.3977    0.0092   -5.8091 H   0  0  0  0  0  0  0  0  0  0  0  0
    6.4832    3.2355   -3.1116 H   0  0  0  0  0  0  0  0  0  0  0  0
    6.6564    2.8064   -1.3912 H   0  0  0  0  0  0  0  0  0  0  0  0
    5.1455    1.2021   -3.5460 H   0  0  0  0  0  0  0  0  0  0  0  0
    4.3653    2.1452   -2.2182 H   0  0  0  0  0  0  0  0  0  0  0  0
  1  2  1  0
  1 31  1  0
  2  3  1  1
  2  4  1  0
  2 12  1  0
  4  5  1  0
  4 32  1  0
  4 33  1  0
  5  6  1  0
  6  7  2  0
  6 11  1  0
  7  8  1  0
  7 34  1  0
  8  9  2  0
  8 35  1  0
  9 10  1  0
  9 36  1  0
 10 11  2  0
 10 37  1  0
 11 38  1  0
 12 13  1  0
 12 39  1  0
 12 40  1  0
 13 14  1  1
 13 15  1  0
 13 30  1  0
 15 16  1  0
 15 41  1  0
 15 42  1  0
 16 17  1  0
 16 43  1  0
 16 44  1  0
 17 18  1  0
 17 29  1  0
 18 19  1  0
 18 27  1  0
 19 20  2  0
 19 45  1  0
 20 21  1  0
 20 46  1  0
 21 22  1  0
 21 26  2  0
 22 23  1  6
 22 24  1  0
 22 25  1  0
 26 27  1  0
 26 47  1  0
 27 28  1  0
 29 30  1  0
 29 48  1  0
 29 49  1  0
 30 50  1  0
 30 51  1  0
M  CHG  2  13   1  18  -1
M  END

