
     RDKit          3D

 55 59  0  0  0  0  0  0  0  0999 V2000
    3.1494    1.3075    2.6349 C   0  0  0  0  0  0  0  0  0  0  0  0
    4.0595    1.0769    1.5824 O   0  0  0  0  0  0  0  0  0  0  0  0
    4.0086    1.8546    0.4750 C   0  0  0  0  0  0  0  0  0  0  0  0
    3.0980    2.9042    0.2783 C   0  0  0  0  0  0  0  0  0  0  0  0
    3.1336    3.6399   -0.9094 C   0  0  0  0  0  0  0  0  0  0  0  0
    4.0699    3.3658   -1.9201 C   0  0  0  0  0  0  0  0  0  0  0  0
    4.1114    4.1661   -3.1503 C   0  0  0  0  0  0  0  0  0  0  0  0
    3.7773    5.4930   -3.1557 N   0  0  0  0  0  0  0  0  0  0  0  0
    3.5692    6.0619   -2.3448 H   0  0  0  0  0  0  0  0  0  0  0  0
    3.8622    6.0825   -4.3617 N   0  0  0  0  0  0  0  0  0  0  0  0
    4.2496    5.0935   -5.1412 C   0  0  0  0  0  0  0  0  0  0  0  0
    4.4335    3.8632   -4.4783 C   0  0  0  0  0  0  0  0  0  0  0  0
    4.8136    2.6003   -5.2067 C   0  0  1  0  0  0  0  0  0  0  0  0
    5.7580    2.2025   -4.7930 H   0  0  0  0  0  0  0  0  0  0  0  0
    3.7797    1.4775   -5.0889 C   0  0  0  0  0  0  0  0  0  0  0  0
    2.4124    1.7094   -5.2756 C   0  0  0  0  0  0  0  0  0  0  0  0
    1.4785    0.6750   -5.2126 C   0  0  0  0  0  0  0  0  0  0  0  0
    1.8764   -0.6537   -4.9440 C   0  0  0  0  0  0  0  0  0  0  0  0
    0.9494   -1.7045   -4.8339 N   0  0  0  0  0  0  0  0  0  0  0  0
    1.2713   -2.9975   -5.4374 C   0  0  0  0  0  0  0  0  0  0  0  0
    0.3922   -4.0969   -4.8505 C   0  0  0  0  0  0  0  0  0  0  0  0
   -0.9792   -3.7885   -4.9825 O   0  0  0  0  0  0  0  0  0  0  0  0
   -1.2869   -2.5717   -4.3391 C   0  0  0  0  0  0  0  0  0  0  0  0
   -0.4734   -1.4053   -4.8990 C   0  0  0  0  0  0  0  0  0  0  0  0
    3.2568   -0.8834   -4.7577 C   0  0  0  0  0  0  0  0  0  0  0  0
    4.1783    0.1587   -4.8332 C   0  0  0  0  0  0  0  0  0  0  0  0
    5.0797    2.9844   -6.6703 C   0  0  0  0  0  0  0  0  0  0  0  0
    5.5609    1.9869   -7.5585 C   0  0  0  0  0  0  0  0  0  0  0  0
    5.9641    1.1907   -8.3089 N   0  0  0  0  0  0  0  0  0  0  0  0
    4.8838    4.2418   -7.1949 C   0  0  0  0  0  0  0  0  0  0  0  0
    5.1348    4.6084   -8.4800 N   0  0  0  0  0  0  0  0  0  0  0  0
    4.4410    5.3014   -6.4753 O   0  0  0  0  0  0  0  0  0  0  0  0
    4.9746    2.3053   -1.7051 C   0  0  0  0  0  0  0  0  0  0  0  0
    4.9460    1.5629   -0.5329 C   0  0  0  0  0  0  0  0  0  0  0  0
    3.3785    0.5684    3.4140 H   0  0  0  0  0  0  0  0  0  0  0  0
    2.1022    1.1712    2.3099 H   0  0  0  0  0  0  0  0  0  0  0  0
    3.2610    2.3213    3.0601 H   0  0  0  0  0  0  0  0  0  0  0  0
    2.3492    3.1483    1.0318 H   0  0  0  0  0  0  0  0  0  0  0  0
    2.3908    4.4285   -1.0553 H   0  0  0  0  0  0  0  0  0  0  0  0
    2.0604    2.7225   -5.4895 H   0  0  0  0  0  0  0  0  0  0  0  0
    0.4300    0.9127   -5.3901 H   0  0  0  0  0  0  0  0  0  0  0  0
    2.3239   -3.2516   -5.2599 H   0  0  0  0  0  0  0  0  0  0  0  0
    1.1209   -2.9619   -6.5381 H   0  0  0  0  0  0  0  0  0  0  0  0
    0.6515   -4.2429   -3.7811 H   0  0  0  0  0  0  0  0  0  0  0  0
    0.5641   -5.0450   -5.3826 H   0  0  0  0  0  0  0  0  0  0  0  0
   -1.0959   -2.6558   -3.2488 H   0  0  0  0  0  0  0  0  0  0  0  0
   -2.3618   -2.3878   -4.4891 H   0  0  0  0  0  0  0  0  0  0  0  0
   -0.6892   -0.5116   -4.2948 H   0  0  0  0  0  0  0  0  0  0  0  0
   -0.8032   -1.1948   -5.9401 H   0  0  0  0  0  0  0  0  0  0  0  0
    3.6192   -1.8861   -4.5270 H   0  0  0  0  0  0  0  0  0  0  0  0
    5.2388   -0.0644   -4.6827 H   0  0  0  0  0  0  0  0  0  0  0  0
    5.3135    3.8853   -9.1655 H   0  0  0  0  0  0  0  0  0  0  0  0
    4.7531    5.4892   -8.7997 H   0  0  0  0  0  0  0  0  0  0  0  0
    5.7231    2.0718   -2.4637 H   0  0  0  0  0  0  0  0  0  0  0  0
    5.6486    0.7444   -0.3647 H   0  0  0  0  0  0  0  0  0  0  0  0
  1  2  1  0
  1 35  1  0
  1 36  1  0
  1 37  1  0
  2  3  1  0
  3  4  2  0
  3 34  1  0
  4  5  1  0
  4 38  1  0
  5  6  2  0
  5 39  1  0
  6  7  1  0
  6 33  1  0
  7  8  1  0
  7 12  2  0
  8  9  1  0
  8 10  1  0
 10 11  2  0
 11 12  1  0
 11 32  1  0
 12 13  1  0
 13 14  1  1
 13 15  1  0
 13 27  1  0
 15 16  2  0
 15 26  1  0
 16 17  1  0
 16 40  1  0
 17 18  2  0
 17 41  1  0
 18 19  1  0
 18 25  1  0
 19 20  1  0
 19 24  1  0
 20 21  1  0
 20 42  1  0
 20 43  1  0
 21 22  1  0
 21 44  1  0
 21 45  1  0
 22 23  1  0
 23 24  1  0
 23 46  1  0
 23 47  1  0
 24 48  1  0
 24 49  1  0
 25 26  2  0
 25 50  1  0
 26 51  1  0
 27 28  1  0
 27 30  2  0
 28 29  3  0
 30 31  1  0
 30 32  1  0
 31 52  1  0
 31 53  1  0
 33 34  2  0
 33 54  1  0
 34 55  1  0
M  END

