
     RDKit          3D

 55 57  0  0  0  0  0  0  0  0999 V2000
    0.7318    1.0324   -0.4780 C   0  0  0  0  0  0  0  0  0  0  0  0
    2.2247    0.7218   -0.6025 C   0  0  0  0  0  0  0  0  0  0  0  0
    3.0959    1.8470   -0.0430 C   0  0  0  0  0  0  0  0  0  0  0  0
    4.8604    1.4315   -0.1714 S   0  0  1  0  0  0  0  0  0  0  0  0
    5.1471    0.3673    0.7945 O   0  0  0  0  0  0  0  0  0  0  0  0
    5.1591    1.2252   -1.5916 O   0  0  0  0  0  0  0  0  0  0  0  0
    5.6930    2.8148    0.3768 N   0  0  0  0  0  0  0  0  0  0  0  0
    6.2070    2.8111    1.7541 C   0  0  0  0  0  0  0  0  0  0  0  0
    5.4442    3.8043    2.6271 C   0  0  0  0  0  0  0  0  0  0  0  0
    5.5869    5.2130    2.0496 C   0  0  0  0  0  0  0  0  0  0  0  0
    5.4434    5.2514    0.5402 C   0  0  0  0  0  0  0  0  0  0  0  0
    5.2797    6.4773   -0.1186 C   0  0  0  0  0  0  0  0  0  0  0  0
    5.1792    6.5940   -1.5026 C   0  0  0  0  0  0  0  0  0  0  0  0
    5.2633    5.4277   -2.2832 C   0  0  0  0  0  0  0  0  0  0  0  0
    5.1883    5.4231   -3.6877 N   0  0  0  0  0  0  0  0  0  0  0  0
    5.0393    6.4846   -4.5511 C   0  0  0  0  0  0  0  0  0  0  0  0
    4.9891    7.6501   -4.1902 O   0  0  0  0  0  0  0  0  0  0  0  0
    4.9603    6.1131   -6.0129 C   0  0  0  0  0  0  0  0  0  0  0  0
    4.5989    4.8427   -6.4629 C   0  0  0  0  0  0  0  0  0  0  0  0
    4.5363    4.5815   -7.8457 C   0  0  0  0  0  0  0  0  0  0  0  0
    4.1708    3.3223   -8.1907 O   0  0  0  0  0  0  0  0  0  0  0  0
    4.0756    2.9799   -9.5556 C   0  0  0  0  0  0  0  0  0  0  0  0
    4.8333    5.5915   -8.7624 C   0  0  0  0  0  0  0  0  0  0  0  0
    5.1843    6.8750   -8.2989 C   0  0  0  0  0  0  0  0  0  0  0  0
    5.4474    7.7869   -9.2663 O   0  0  0  0  0  0  0  0  0  0  0  0
    5.7977    9.1031   -8.8937 C   0  0  0  0  0  0  0  0  0  0  0  0
    5.2427    7.1423   -6.9291 C   0  0  0  0  0  0  0  0  0  0  0  0
    5.4411    4.1864   -1.6541 C   0  0  0  0  0  0  0  0  0  0  0  0
    5.5167    4.0830   -0.2557 C   0  0  0  0  0  0  0  0  0  0  0  0
    0.1272    0.2094   -0.8898 H   0  0  0  0  0  0  0  0  0  0  0  0
    0.4627    1.9507   -1.0256 H   0  0  0  0  0  0  0  0  0  0  0  0
    0.4332    1.1711    0.5742 H   0  0  0  0  0  0  0  0  0  0  0  0
    2.4965    0.5588   -1.6574 H   0  0  0  0  0  0  0  0  0  0  0  0
    2.4657   -0.2113   -0.0675 H   0  0  0  0  0  0  0  0  0  0  0  0
    2.9116    2.0230    1.0280 H   0  0  0  0  0  0  0  0  0  0  0  0
    2.9568    2.7917   -0.5907 H   0  0  0  0  0  0  0  0  0  0  0  0
    7.2779    3.0800    1.7167 H   0  0  0  0  0  0  0  0  0  0  0  0
    6.1403    1.7864    2.1357 H   0  0  0  0  0  0  0  0  0  0  0  0
    5.8244    3.7674    3.6606 H   0  0  0  0  0  0  0  0  0  0  0  0
    4.3821    3.5060    2.6678 H   0  0  0  0  0  0  0  0  0  0  0  0
    6.5835    5.6111    2.3181 H   0  0  0  0  0  0  0  0  0  0  0  0
    4.8584    5.9002    2.5106 H   0  0  0  0  0  0  0  0  0  0  0  0
    5.2228    7.3871    0.4870 H   0  0  0  0  0  0  0  0  0  0  0  0
    5.0499    7.5591   -1.9845 H   0  0  0  0  0  0  0  0  0  0  0  0
    5.3161    4.5145   -4.1164 H   0  0  0  0  0  0  0  0  0  0  0  0
    4.3208    4.0297   -5.7901 H   0  0  0  0  0  0  0  0  0  0  0  0
    3.7674    1.9265   -9.5928 H   0  0  0  0  0  0  0  0  0  0  0  0
    5.0450    3.0880  -10.0745 H   0  0  0  0  0  0  0  0  0  0  0  0
    3.3216    3.5932  -10.0810 H   0  0  0  0  0  0  0  0  0  0  0  0
    4.7992    5.4348   -9.8394 H   0  0  0  0  0  0  0  0  0  0  0  0
    5.9613    9.6578   -9.8273 H   0  0  0  0  0  0  0  0  0  0  0  0
    6.7250    9.1261   -8.2943 H   0  0  0  0  0  0  0  0  0  0  0  0
    4.9927    9.5943   -8.3191 H   0  0  0  0  0  0  0  0  0  0  0  0
    5.4933    8.1229   -6.5297 H   0  0  0  0  0  0  0  0  0  0  0  0
    5.5298    3.2801   -2.2522 H   0  0  0  0  0  0  0  0  0  0  0  0
  1  2  1  0
  1 30  1  0
  1 31  1  0
  1 32  1  0
  2  3  1  0
  2 33  1  0
  2 34  1  0
  4  3  1  6
  3 35  1  0
  3 36  1  0
  4  5  2  0
  4  6  2  0
  4  7  1  0
  7  8  1  0
  7 29  1  0
  8  9  1  0
  8 37  1  0
  8 38  1  0
  9 10  1  0
  9 39  1  0
  9 40  1  0
 10 11  1  0
 10 41  1  0
 10 42  1  0
 11 12  1  0
 11 29  2  0
 12 13  2  0
 12 43  1  0
 13 14  1  0
 13 44  1  0
 14 15  1  0
 14 28  2  0
 15 16  1  0
 15 45  1  0
 16 17  2  0
 16 18  1  0
 18 19  2  0
 18 27  1  0
 19 20  1  0
 19 46  1  0
 20 21  1  0
 20 23  2  0
 21 22  1  0
 22 47  1  0
 22 48  1  0
 22 49  1  0
 23 24  1  0
 23 50  1  0
 24 25  1  0
 24 27  2  0
 25 26  1  0
 26 51  1  0
 26 52  1  0
 26 53  1  0
 27 54  1  0
 28 29  1  0
 28 55  1  0
M  END

