
     RDKit          3D

 28 29  0  0  0  0  0  0  0  0999 V2000
    2.1748    0.9465   -0.8602 O   0  0  0  0  0  0  0  0  0  0  0  0
    1.9027   -0.1584   -0.4652 C   0  0  0  0  0  0  0  0  0  0  0  0
    0.8331   -0.3681    0.3022 O   0  0  0  0  0  0  0  0  0  0  0  0
    2.7681   -1.3531   -0.8653 C   0  0  0  0  0  0  0  0  0  0  0  0
    3.6941   -1.0697   -1.8826 C   0  0  0  0  0  0  0  0  0  0  0  0
    4.5625   -2.0437   -2.3726 C   0  0  0  0  0  0  0  0  0  0  0  0
    5.5020   -1.7173   -3.5124 C   0  0  1  0  0  0  0  0  0  0  0  0
    5.8315   -0.4186   -3.5311 F   0  0  0  0  0  0  0  0  0  0  0  0
    6.6392   -2.4293   -3.4280 F   0  0  0  0  0  0  0  0  0  0  0  0
    4.9416   -2.0067   -4.7002 F   0  0  0  0  0  0  0  0  0  0  0  0
    4.5373   -3.3357   -1.8379 C   0  0  0  0  0  0  0  0  0  0  0  0
    3.6360   -3.6350   -0.8187 C   0  0  0  0  0  0  0  0  0  0  0  0
    2.7537   -2.6608   -0.3261 C   0  0  0  0  0  0  0  0  0  0  0  0
    1.5959   -3.2178    0.9380 S   0  0  0  0  0  0  0  0  0  0  0  0
    2.3335   -2.6698    2.4788 C   0  0  0  0  0  0  0  0  0  0  0  0
    3.5936   -2.0752    2.5932 C   0  0  0  0  0  0  0  0  0  0  0  0
    4.0408   -1.7217    3.8717 C   0  0  0  0  0  0  0  0  0  0  0  0
    3.3417   -1.9208    4.9895 N   0  0  0  0  0  0  0  0  0  0  0  0
    2.1406   -2.4912    4.8668 C   0  0  0  0  0  0  0  0  0  0  0  0
    1.5869   -2.8835    3.6459 C   0  0  0  0  0  0  0  0  0  0  0  0
    0.7452   -1.3125    0.5512 H   0  0  0  0  0  0  0  0  0  0  0  0
    3.7130   -0.0518   -2.2735 H   0  0  0  0  0  0  0  0  0  0  0  0
    5.2217   -4.1007   -2.2088 H   0  0  0  0  0  0  0  0  0  0  0  0
    3.6098   -4.6376   -0.3880 H   0  0  0  0  0  0  0  0  0  0  0  0
    4.2224   -1.8854    1.7225 H   0  0  0  0  0  0  0  0  0  0  0  0
    5.0249   -1.2513    3.9844 H   0  0  0  0  0  0  0  0  0  0  0  0
    1.5733   -2.6486    5.7917 H   0  0  0  0  0  0  0  0  0  0  0  0
    0.5961   -3.3430    3.6122 H   0  0  0  0  0  0  0  0  0  0  0  0
  1  2  2  0
  2  3  1  0
  2  4  1  0
  3 21  1  0
  4  5  2  0
  4 13  1  0
  5  6  1  0
  5 22  1  0
  6  7  1  0
  6 11  2  0
  7  8  1  6
  7  9  1  0
  7 10  1  0
 11 12  1  0
 11 23  1  0
 12 13  2  0
 12 24  1  0
 13 14  1  0
 14 15  1  0
 15 16  2  0
 15 20  1  0
 16 17  1  0
 16 25  1  0
 17 18  2  0
 17 26  1  0
 18 19  1  0
 19 20  2  0
 19 27  1  0
 20 28  1  0
M  END

