
     RDKit          3D

 40 41  0  0  0  0  0  0  0  0999 V2000
    0.5919   -0.3555    0.2653 C   0  0  0  0  0  0  0  0  0  0  0  0
    2.1066   -0.3470    0.0914 C   0  0  0  0  0  0  0  0  0  0  0  0
    2.7808   -0.6348    1.3501 N   0  0  0  0  0  0  0  0  0  0  0  0
    4.2337   -0.7668    1.2803 C   0  0  1  0  0  0  0  0  0  0  0  0
    4.9351    0.6159    1.1124 C   0  0  0  0  0  0  0  0  0  0  0  0
    4.8102    1.5577    2.2869 C   0  0  0  0  0  0  0  0  0  0  0  0
    3.6573    2.3308    2.5020 C   0  0  0  0  0  0  0  0  0  0  0  0
    3.6000    3.1705    3.6127 C   0  0  0  0  0  0  0  0  0  0  0  0
    4.6866    3.2353    4.4964 C   0  0  0  0  0  0  0  0  0  0  0  0
    4.6656    4.0966    5.7379 C   0  0  0  0  0  0  0  0  0  0  0  0
    3.9677    3.4256    6.9314 C   0  0  0  0  0  0  0  0  0  0  0  0
    5.7894    2.4260    4.1826 C   0  0  0  0  0  0  0  0  0  0  0  0
    5.8553    1.6187    3.1237 N   0  0  0  0  0  0  0  0  0  0  0  0
    4.7564   -1.5171    2.4936 C   0  0  0  0  0  0  0  0  0  0  0  0
    4.1911   -1.3603    3.7704 C   0  0  0  0  0  0  0  0  0  0  0  0
    4.6390   -1.9861    4.8609 N   0  0  0  0  0  0  0  0  0  0  0  0
    5.6848   -2.8028    4.7500 C   0  0  0  0  0  0  0  0  0  0  0  0
    6.3205   -3.0272    3.5233 C   0  0  0  0  0  0  0  0  0  0  0  0
    7.8045   -4.2177    3.4235 Br  0  0  0  0  0  0  0  0  0  0  0  0
    5.8530   -2.3805    2.3806 C   0  0  0  0  0  0  0  0  0  0  0  0
    0.0854   -0.1117   -0.6814 H   0  0  0  0  0  0  0  0  0  0  0  0
    0.2810    0.3766    1.0268 H   0  0  0  0  0  0  0  0  0  0  0  0
    0.2329   -1.3481    0.5869 H   0  0  0  0  0  0  0  0  0  0  0  0
    2.4236    0.6473   -0.2673 H   0  0  0  0  0  0  0  0  0  0  0  0
    2.3947   -1.0627   -0.7129 H   0  0  0  0  0  0  0  0  0  0  0  0
    2.3860   -1.4839    1.7529 H   0  0  0  0  0  0  0  0  0  0  0  0
    4.5348   -1.3552    0.3840 H   0  0  0  0  0  0  0  0  0  0  0  0
    4.5355    1.0908    0.2018 H   0  0  0  0  0  0  0  0  0  0  0  0
    6.0062    0.4348    0.9430 H   0  0  0  0  0  0  0  0  0  0  0  0
    2.8186    2.2697    1.8067 H   0  0  0  0  0  0  0  0  0  0  0  0
    2.7105    3.7828    3.7919 H   0  0  0  0  0  0  0  0  0  0  0  0
    4.1616    5.0517    5.5107 H   0  0  0  0  0  0  0  0  0  0  0  0
    5.7011    4.3528    6.0185 H   0  0  0  0  0  0  0  0  0  0  0  0
    2.9186    3.1843    6.6958 H   0  0  0  0  0  0  0  0  0  0  0  0
    3.9732    4.0851    7.8142 H   0  0  0  0  0  0  0  0  0  0  0  0
    4.4690    2.4839    7.2061 H   0  0  0  0  0  0  0  0  0  0  0  0
    6.6740    2.4437    4.8331 H   0  0  0  0  0  0  0  0  0  0  0  0
    3.3329   -0.6946    3.9032 H   0  0  0  0  0  0  0  0  0  0  0  0
    6.0383   -3.3045    5.6573 H   0  0  0  0  0  0  0  0  0  0  0  0
    6.3343   -2.5483    1.4141 H   0  0  0  0  0  0  0  0  0  0  0  0
  1  2  1  0
  1 21  1  0
  1 22  1  0
  1 23  1  0
  2  3  1  0
  2 24  1  0
  2 25  1  0
  3  4  1  0
  3 26  1  0
  4  5  1  0
  4 14  1  0
  4 27  1  6
  5  6  1  0
  5 28  1  0
  5 29  1  0
  6  7  2  0
  6 13  1  0
  7  8  1  0
  7 30  1  0
  8  9  2  0
  8 31  1  0
  9 10  1  0
  9 12  1  0
 10 11  1  0
 10 32  1  0
 10 33  1  0
 11 34  1  0
 11 35  1  0
 11 36  1  0
 12 13  2  0
 12 37  1  0
 14 15  2  0
 14 20  1  0
 15 16  1  0
 15 38  1  0
 16 17  2  0
 17 18  1  0
 17 39  1  0
 18 19  1  0
 18 20  2  0
 20 40  1  0
M  END

