
     RDKit          3D

104117  0  0  0  0  0  0  0  0999 V2000
    1.1435    0.2987    1.4245 N   0  0  0  0  0  0  0  0  0  0  0  0
    2.2242    0.2819    1.0002 C   0  0  0  0  0  0  0  0  0  0  0  0
    3.5640    0.2908    0.4814 C   0  0  0  0  0  0  0  0  0  0  0  0
    4.2183    1.5219    0.3343 C   0  0  0  0  0  0  0  0  0  0  0  0
    5.5320    1.6102   -0.1431 C   0  0  0  0  0  0  0  0  0  0  0  0
    6.1191    2.8877   -0.2793 N   0  0  0  0  0  0  0  0  0  0  0  0
    6.2247    3.8377    0.7496 C   0  0  0  0  0  0  0  0  0  0  0  0
    5.9117    3.7184    2.1090 C   0  0  0  0  0  0  0  0  0  0  0  0
    6.1432    4.8237    2.9311 C   0  0  0  0  0  0  0  0  0  0  0  0
    6.6776    6.0188    2.4172 C   0  0  0  0  0  0  0  0  0  0  0  0
    6.9948    6.1291    1.0636 C   0  0  0  0  0  0  0  0  0  0  0  0
    6.7697    5.0349    0.2170 C   0  0  0  0  0  0  0  0  0  0  0  0
    6.9799    4.8079   -1.2004 C   0  0  0  0  0  0  0  0  0  0  0  0
    7.4536    5.6145   -2.2445 C   0  0  0  0  0  0  0  0  0  0  0  0
    7.4922    5.0965   -3.5383 C   0  0  0  0  0  0  0  0  0  0  0  0
    7.0519    3.7858   -3.7962 C   0  0  0  0  0  0  0  0  0  0  0  0
    6.5777    2.9626   -2.7733 C   0  0  0  0  0  0  0  0  0  0  0  0
    6.5606    3.4798   -1.4743 C   0  0  0  0  0  0  0  0  0  0  0  0
    6.2155    0.4118   -0.4750 C   0  0  0  0  0  0  0  0  0  0  0  0
    7.5430    0.4035   -0.9521 N   0  0  0  0  0  0  0  0  0  0  0  0
    8.6798    0.8778   -0.2737 C   0  0  0  0  0  0  0  0  0  0  0  0
    8.7818    1.4738    0.9867 C   0  0  0  0  0  0  0  0  0  0  0  0
   10.0542    1.8280    1.4380 C   0  0  0  0  0  0  0  0  0  0  0  0
   11.2016    1.5876    0.6608 C   0  0  0  0  0  0  0  0  0  0  0  0
   11.0966    0.9705   -0.5846 C   0  0  0  0  0  0  0  0  0  0  0  0
    9.8293    0.6045   -1.0592 C   0  0  0  0  0  0  0  0  0  0  0  0
    9.3733   -0.0769   -2.2560 C   0  0  0  0  0  0  0  0  0  0  0  0
   10.0279   -0.5808   -3.3880 C   0  0  0  0  0  0  0  0  0  0  0  0
    9.2782   -1.1920   -4.3930 C   0  0  0  0  0  0  0  0  0  0  0  0
    7.8807   -1.2968   -4.2778 C   0  0  0  0  0  0  0  0  0  0  0  0
    7.2047   -0.8008   -3.1604 C   0  0  0  0  0  0  0  0  0  0  0  0
    7.9633   -0.1978   -2.1500 C   0  0  0  0  0  0  0  0  0  0  0  0
    5.5459   -0.8147   -0.3311 C   0  0  0  0  0  0  0  0  0  0  0  0
    4.2318   -0.9107    0.1333 C   0  0  0  0  0  0  0  0  0  0  0  0
    3.5728   -2.2420    0.2586 C   0  0  0  0  0  0  0  0  0  0  0  0
    2.3919   -2.5136   -0.4369 C   0  0  0  0  0  0  0  0  0  0  0  0
    1.7308   -3.7508   -0.3619 C   0  0  0  0  0  0  0  0  0  0  0  0
    0.5431   -3.9268   -1.1024 N   0  0  0  0  0  0  0  0  0  0  0  0
    0.4189   -3.7154   -2.4854 C   0  0  0  0  0  0  0  0  0  0  0  0
    1.4023   -3.4084   -3.4335 C   0  0  0  0  0  0  0  0  0  0  0  0
    1.0075   -3.2826   -4.7676 C   0  0  0  0  0  0  0  0  0  0  0  0
   -0.3324   -3.4628   -5.1537 C   0  0  0  0  0  0  0  0  0  0  0  0
   -1.3062   -3.7790   -4.2064 C   0  0  0  0  0  0  0  0  0  0  0  0
   -0.9359   -3.9088   -2.8611 C   0  0  0  0  0  0  0  0  0  0  0  0
   -1.6682   -4.2265   -1.6497 C   0  0  0  0  0  0  0  0  0  0  0  0
   -3.0206   -4.4804   -1.3821 C   0  0  0  0  0  0  0  0  0  0  0  0
   -3.4193   -4.7111   -0.0665 C   0  0  0  0  0  0  0  0  0  0  0  0
   -2.4812   -4.6762    0.9809 C   0  0  0  0  0  0  0  0  0  0  0  0
   -1.1294   -4.4263    0.7396 C   0  0  0  0  0  0  0  0  0  0  0  0
   -0.7310   -4.2204   -0.5845 C   0  0  0  0  0  0  0  0  0  0  0  0
    2.2838   -4.7768    0.4475 C   0  0  0  0  0  0  0  0  0  0  0  0
    1.6999   -6.0578    0.5621 N   0  0  0  0  0  0  0  0  0  0  0  0
    1.5182   -6.9876   -0.4752 C   0  0  0  0  0  0  0  0  0  0  0  0
    1.8093   -6.8724   -1.8380 C   0  0  0  0  0  0  0  0  0  0  0  0
    1.5490   -7.9739   -2.6552 C   0  0  0  0  0  0  0  0  0  0  0  0
    1.0192   -9.1668   -2.1315 C   0  0  0  0  0  0  0  0  0  0  0  0
    0.7504   -9.2837   -0.7684 C   0  0  0  0  0  0  0  0  0  0  0  0
    1.0048   -8.1919    0.0732 C   0  0  0  0  0  0  0  0  0  0  0  0
    0.8852   -7.9886    1.5046 C   0  0  0  0  0  0  0  0  0  0  0  0
    0.4409   -8.7958    2.5609 C   0  0  0  0  0  0  0  0  0  0  0  0
    0.4508   -8.2850    3.8586 C   0  0  0  0  0  0  0  0  0  0  0  0
    0.8952   -6.9740    4.1073 C   0  0  0  0  0  0  0  0  0  0  0  0
    1.3406   -6.1488    3.0721 C   0  0  0  0  0  0  0  0  0  0  0  0
    1.3360   -6.6700    1.7726 C   0  0  0  0  0  0  0  0  0  0  0  0
    3.4607   -4.5086    1.1578 C   0  0  0  0  0  0  0  0  0  0  0  0
    4.1064   -3.2667    1.0810 C   0  0  0  0  0  0  0  0  0  0  0  0
    5.2970   -3.0617    1.8587 C   0  0  0  0  0  0  0  0  0  0  0  0
    6.2552   -2.9177    2.4985 N   0  0  0  0  0  0  0  0  0  0  0  0
    3.6879    2.4419    0.5824 H   0  0  0  0  0  0  0  0  0  0  0  0
    5.5016    2.7959    2.5238 H   0  0  0  0  0  0  0  0  0  0  0  0
    5.9036    4.7537    3.9950 H   0  0  0  0  0  0  0  0  0  0  0  0
    6.8463    6.8656    3.0864 H   0  0  0  0  0  0  0  0  0  0  0  0
    7.4154    7.0564    0.6668 H   0  0  0  0  0  0  0  0  0  0  0  0
    7.7810    6.6381   -2.0464 H   0  0  0  0  0  0  0  0  0  0  0  0
    7.8601    5.7138   -4.3610 H   0  0  0  0  0  0  0  0  0  0  0  0
    7.0798    3.3988   -4.8178 H   0  0  0  0  0  0  0  0  0  0  0  0
    6.2339    1.9523   -2.9933 H   0  0  0  0  0  0  0  0  0  0  0  0
    7.9060    1.6545    1.6090 H   0  0  0  0  0  0  0  0  0  0  0  0
   10.1557    2.2995    2.4184 H   0  0  0  0  0  0  0  0  0  0  0  0
   12.1827    1.8785    1.0432 H   0  0  0  0  0  0  0  0  0  0  0  0
   11.9897    0.7661   -1.1804 H   0  0  0  0  0  0  0  0  0  0  0  0
   11.1131   -0.4933   -3.4820 H   0  0  0  0  0  0  0  0  0  0  0  0
    9.7780   -1.5908   -5.2787 H   0  0  0  0  0  0  0  0  0  0  0  0
    7.3084   -1.7744   -5.0771 H   0  0  0  0  0  0  0  0  0  0  0  0
    6.1189   -0.8839   -3.0878 H   0  0  0  0  0  0  0  0  0  0  0  0
    6.0934   -1.7240   -0.5816 H   0  0  0  0  0  0  0  0  0  0  0  0
    1.9439   -1.7357   -1.0562 H   0  0  0  0  0  0  0  0  0  0  0  0
    2.4472   -3.2717   -3.1496 H   0  0  0  0  0  0  0  0  0  0  0  0
    1.7583   -3.0401   -5.5238 H   0  0  0  0  0  0  0  0  0  0  0  0
   -0.6100   -3.3564   -6.2049 H   0  0  0  0  0  0  0  0  0  0  0  0
   -2.3460   -3.9261   -4.5088 H   0  0  0  0  0  0  0  0  0  0  0  0
   -3.7522   -4.4886   -2.1938 H   0  0  0  0  0  0  0  0  0  0  0  0
   -4.4699   -4.9107    0.1568 H   0  0  0  0  0  0  0  0  0  0  0  0
   -2.8131   -4.8447    2.0082 H   0  0  0  0  0  0  0  0  0  0  0  0
   -0.4196   -4.3884    1.5652 H   0  0  0  0  0  0  0  0  0  0  0  0
    2.2271   -5.9590   -2.2604 H   0  0  0  0  0  0  0  0  0  0  0  0
    1.7630   -7.9024   -3.7244 H   0  0  0  0  0  0  0  0  0  0  0  0
    0.8243  -10.0095   -2.7989 H   0  0  0  0  0  0  0  0  0  0  0  0
    0.3535  -10.2158   -0.3588 H   0  0  0  0  0  0  0  0  0  0  0  0
    0.0898   -9.8126    2.3683 H   0  0  0  0  0  0  0  0  0  0  0  0
    0.1092   -8.9055    4.6903 H   0  0  0  0  0  0  0  0  0  0  0  0
    0.8929   -6.5888    5.1299 H   0  0  0  0  0  0  0  0  0  0  0  0
    1.6772   -5.1317    3.2804 H   0  0  0  0  0  0  0  0  0  0  0  0
    3.8919   -5.2979    1.7744 H   0  0  0  0  0  0  0  0  0  0  0  0
  1  2  3  0
  2  3  1  0
  3  4  2  0
  3 34  1  0
  4  5  1  0
  4 69  1  0
  5  6  1  0
  5 19  2  0
  6  7  1  0
  6 18  1  0
  7  8  2  0
  7 12  1  0
  8  9  1  0
  8 70  1  0
  9 10  2  0
  9 71  1  0
 10 11  1  0
 10 72  1  0
 11 12  2  0
 11 73  1  0
 12 13  1  0
 13 14  1  0
 13 18  2  0
 14 15  2  0
 14 74  1  0
 15 16  1  0
 15 75  1  0
 16 17  2  0
 16 76  1  0
 17 18  1  0
 17 77  1  0
 19 20  1  0
 19 33  1  0
 20 21  1  0
 20 32  1  0
 21 22  2  0
 21 26  1  0
 22 23  1  0
 22 78  1  0
 23 24  2  0
 23 79  1  0
 24 25  1  0
 24 80  1  0
 25 26  2  0
 25 81  1  0
 26 27  1  0
 27 28  1  0
 27 32  2  0
 28 29  2  0
 28 82  1  0
 29 30  1  0
 29 83  1  0
 30 31  2  0
 30 84  1  0
 31 32  1  0
 31 85  1  0
 33 34  2  0
 33 86  1  0
 34 35  1  0
 35 36  2  0
 35 66  1  0
 36 37  1  0
 36 87  1  0
 37 38  1  0
 37 51  2  0
 38 39  1  0
 38 50  1  0
 39 40  2  0
 39 44  1  0
 40 41  1  0
 40 88  1  0
 41 42  2  0
 41 89  1  0
 42 43  1  0
 42 90  1  0
 43 44  2  0
 43 91  1  0
 44 45  1  0
 45 46  1  0
 45 50  2  0
 46 47  2  0
 46 92  1  0
 47 48  1  0
 47 93  1  0
 48 49  2  0
 48 94  1  0
 49 50  1  0
 49 95  1  0
 51 52  1  0
 51 65  1  0
 52 53  1  0
 52 64  1  0
 53 54  2  0
 53 58  1  0
 54 55  1  0
 54 96  1  0
 55 56  2  0
 55 97  1  0
 56 57  1  0
 56 98  1  0
 57 58  2  0
 57 99  1  0
 58 59  1  0
 59 60  1  0
 59 64  2  0
 60 61  2  0
 60100  1  0
 61 62  1  0
 61101  1  0
 62 63  2  0
 62102  1  0
 63 64  1  0
 63103  1  0
 65 66  2  0
 65104  1  0
 66 67  1  0
 67 68  3  0
M  END

