
     RDKit          3D

 38 38  0  0  0  0  0  0  0  0999 V2000
    0.6578    0.1250   -0.1368 C   0  0  0  0  0  0  0  0  0  0  0  0
    2.0581    0.1628   -0.1520 O   0  0  0  0  0  0  0  0  0  0  0  0
    2.6277   -0.2459   -1.3748 C   0  0  0  0  0  0  0  0  0  0  0  0
    4.1436   -0.1569   -1.2352 C   0  0  0  0  0  0  0  0  0  0  0  0
    5.0021   -0.5656   -2.4628 C   0  0  1  0  0  0  0  0  0  0  0  0
    4.6559   -1.9967   -2.9229 C   0  0  0  0  0  0  0  0  0  0  0  0
    4.7269    0.3952   -3.6484 C   0  0  0  0  0  0  0  0  0  0  0  0
    5.5449    0.0626   -4.8035 N   0  0  0  0  0  0  0  0  0  0  0  0
    6.4595   -0.4850   -2.1388 N   0  0  0  0  0  0  0  0  0  0  0  0
    6.9955    0.8363   -1.8403 C   0  0  0  0  0  0  0  0  0  0  0  0
    6.9818   -1.4745   -1.2058 C   0  0  0  0  0  0  0  0  0  0  0  0
    8.4281   -1.8200   -1.4814 C   0  0  0  0  0  0  0  0  0  0  0  0
    9.0499   -1.9869   -2.6943 C   0  0  0  0  0  0  0  0  0  0  0  0
   10.4185   -2.3724   -2.5526 C   0  0  0  0  0  0  0  0  0  0  0  0
   11.5557   -2.6787   -4.0410 Br  0  0  0  0  0  0  0  0  0  0  0  0
   10.8319   -2.4970   -1.2523 C   0  0  0  0  0  0  0  0  0  0  0  0
    9.5316   -2.1301   -0.1688 S   0  0  0  0  0  0  0  0  0  0  0  0
    0.3210    0.4603    0.8553 H   0  0  0  0  0  0  0  0  0  0  0  0
    0.2648   -0.8977   -0.3142 H   0  0  0  0  0  0  0  0  0  0  0  0
    0.2129    0.7936   -0.9030 H   0  0  0  0  0  0  0  0  0  0  0  0
    2.2607    0.4012   -2.1990 H   0  0  0  0  0  0  0  0  0  0  0  0
    2.3084   -1.2806   -1.6169 H   0  0  0  0  0  0  0  0  0  0  0  0
    4.4252   -0.7904   -0.3771 H   0  0  0  0  0  0  0  0  0  0  0  0
    4.3813    0.8787   -0.9426 H   0  0  0  0  0  0  0  0  0  0  0  0
    3.6742   -2.0068   -3.4183 H   0  0  0  0  0  0  0  0  0  0  0  0
    4.6020   -2.7110   -2.0876 H   0  0  0  0  0  0  0  0  0  0  0  0
    5.3931   -2.3491   -3.6560 H   0  0  0  0  0  0  0  0  0  0  0  0
    4.8333    1.4415   -3.2909 H   0  0  0  0  0  0  0  0  0  0  0  0
    3.6672    0.2876   -3.9310 H   0  0  0  0  0  0  0  0  0  0  0  0
    6.5305    0.0692   -4.5427 H   0  0  0  0  0  0  0  0  0  0  0  0
    5.4165    0.7425   -5.5511 H   0  0  0  0  0  0  0  0  0  0  0  0
    6.8144    1.5428   -2.6623 H   0  0  0  0  0  0  0  0  0  0  0  0
    8.0865    0.7566   -1.7215 H   0  0  0  0  0  0  0  0  0  0  0  0
    6.5956    1.2860   -0.9063 H   0  0  0  0  0  0  0  0  0  0  0  0
    6.3931   -2.3979   -1.2887 H   0  0  0  0  0  0  0  0  0  0  0  0
    6.8895   -1.1535   -0.1442 H   0  0  0  0  0  0  0  0  0  0  0  0
    8.5497   -1.8380   -3.6503 H   0  0  0  0  0  0  0  0  0  0  0  0
   11.8155   -2.7746   -0.8795 H   0  0  0  0  0  0  0  0  0  0  0  0
  1  2  1  0
  1 18  1  0
  1 19  1  0
  1 20  1  0
  2  3  1  0
  3  4  1  0
  3 21  1  0
  3 22  1  0
  4  5  1  0
  4 23  1  0
  4 24  1  0
  5  6  1  0
  5  7  1  0
  5  9  1  1
  6 25  1  0
  6 26  1  0
  6 27  1  0
  7  8  1  0
  7 28  1  0
  7 29  1  0
  8 30  1  0
  8 31  1  0
  9 10  1  0
  9 11  1  0
 10 32  1  0
 10 33  1  0
 10 34  1  0
 11 12  1  0
 11 35  1  0
 11 36  1  0
 12 13  2  0
 12 17  1  0
 13 14  1  0
 13 37  1  0
 14 15  1  0
 14 16  2  0
 16 17  1  0
 16 38  1  0
M  END

