
     RDKit          3D

 23 22  0  0  0  0  0  0  0  0999 V2000
    1.3841   -0.5490    1.4173 C   0  0  0  0  0  0  0  0  0  0  0  0
    2.5807   -0.3862    1.5147 C   0  0  0  0  0  0  0  0  0  0  0  0
    4.0215   -0.1731    1.6369 C   0  0  0  0  0  0  0  0  0  0  0  0
    4.3964    1.3030    1.8552 C   0  0  0  0  0  0  0  0  0  0  0  0
    5.9095    1.4935    1.8372 C   0  0  0  0  0  0  0  0  0  0  0  0
    6.6514    0.8627    1.1107 O   0  0  0  0  0  0  0  0  0  0  0  0
    6.3477    2.5108    2.6554 N   0  0  0  0  0  0  0  0  0  0  0  0
    7.7020    2.6341    2.8776 O   0  0  0  0  0  0  0  0  0  0  0  0
    8.3349    3.5771    2.0140 C   0  0  0  0  0  0  0  0  0  0  0  0
    9.7343    3.1004    1.6084 C   0  0  0  0  0  0  0  0  0  0  0  0
   10.0127    1.6227    1.7006 C   0  0  0  0  0  0  0  0  0  0  0  0
   10.5255    3.9182    1.1977 O   0  0  0  0  0  0  0  0  0  0  0  0
    0.3254   -0.7025    1.3266 H   0  0  0  0  0  0  0  0  0  0  0  0
    4.5389   -0.5302    0.7316 H   0  0  0  0  0  0  0  0  0  0  0  0
    4.4146   -0.7835    2.4688 H   0  0  0  0  0  0  0  0  0  0  0  0
    3.9510    1.6864    2.7875 H   0  0  0  0  0  0  0  0  0  0  0  0
    3.9773    1.9108    1.0352 H   0  0  0  0  0  0  0  0  0  0  0  0
    5.7892    2.8226    3.4457 H   0  0  0  0  0  0  0  0  0  0  0  0
    8.4202    4.5676    2.4945 H   0  0  0  0  0  0  0  0  0  0  0  0
    7.7526    3.6933    1.0839 H   0  0  0  0  0  0  0  0  0  0  0  0
    9.2001    1.0546    1.2201 H   0  0  0  0  0  0  0  0  0  0  0  0
   10.0114    1.3135    2.7590 H   0  0  0  0  0  0  0  0  0  0  0  0
   10.9877    1.4041    1.2460 H   0  0  0  0  0  0  0  0  0  0  0  0
  1  2  3  0
  1 13  1  0
  2  3  1  0
  3  4  1  0
  3 14  1  0
  3 15  1  0
  4  5  1  0
  4 16  1  0
  4 17  1  0
  5  6  2  0
  5  7  1  0
  7  8  1  0
  7 18  1  0
  8  9  1  0
  9 10  1  0
  9 19  1  0
  9 20  1  0
 10 11  1  0
 10 12  2  0
 11 21  1  0
 11 22  1  0
 11 23  1  0
M  END

