
     RDKit          3D

 48 50  0  0  0  0  0  0  0  0999 V2000
    2.9953   -1.3409   -0.5677 O   0  0  0  0  0  0  0  0  0  0  0  0
    3.1683   -0.2204   -0.1110 C   0  0  0  0  0  0  0  0  0  0  0  0
    3.1076    0.9548   -1.0696 C   0  0  0  0  0  0  0  0  0  0  0  0
    3.9707    0.9543   -2.1756 C   0  0  0  0  0  0  0  0  0  0  0  0
    3.8673    1.9536   -3.1376 C   0  0  0  0  0  0  0  0  0  0  0  0
    4.7146    1.9496   -4.1766 F   0  0  0  0  0  0  0  0  0  0  0  0
    2.8993    2.9539   -3.0556 C   0  0  0  0  0  0  0  0  0  0  0  0
    2.0163    2.9465   -1.9749 C   0  0  0  0  0  0  0  0  0  0  0  0
    2.1301    1.9530   -1.0052 C   0  0  0  0  0  0  0  0  0  0  0  0
    1.2612    1.9581    0.0232 F   0  0  0  0  0  0  0  0  0  0  0  0
    3.4372    0.0184    1.2137 N   0  0  0  0  0  0  0  0  0  0  0  0
    3.5040   -1.1370    2.1066 C   0  0  0  0  0  0  0  0  0  0  0  0
    2.7209   -0.9956    3.4182 C   0  0  0  0  0  0  0  0  0  0  0  0
    3.3283   -0.0097    4.4295 C   0  0  0  0  0  0  0  0  0  0  0  0
    3.0104    1.4927    4.2260 C   0  0  2  0  0  0  0  0  0  0  0  0
    1.7530    1.8840    5.0285 C   0  0  0  0  0  0  0  0  0  0  0  0
    1.3803    3.2868    4.9262 N   0  0  0  0  0  0  0  0  0  0  0  0
    2.2497    4.1834    5.6787 C   0  0  0  0  0  0  0  0  0  0  0  0
    1.8491    5.6371    5.4399 C   0  0  0  0  0  0  0  0  0  0  0  0
    0.4921    5.8601    5.7587 O   0  0  0  0  0  0  0  0  0  0  0  0
   -0.3571    5.0103    5.0151 C   0  0  0  0  0  0  0  0  0  0  0  0
   -0.0187    3.5408    5.2491 C   0  0  0  0  0  0  0  0  0  0  0  0
    2.8586    1.9273    2.7546 C   0  0  0  0  0  0  0  0  0  0  0  0
    3.8487    1.3149    1.7496 C   0  0  0  0  0  0  0  0  0  0  0  0
    4.7184    0.1680   -2.2905 H   0  0  0  0  0  0  0  0  0  0  0  0
    2.8426    3.7162   -3.8346 H   0  0  0  0  0  0  0  0  0  0  0  0
    1.2319    3.6989   -1.8742 H   0  0  0  0  0  0  0  0  0  0  0  0
    4.5659   -1.3441    2.3477 H   0  0  0  0  0  0  0  0  0  0  0  0
    3.1336   -1.9925    1.5291 H   0  0  0  0  0  0  0  0  0  0  0  0
    2.7092   -1.9984    3.8778 H   0  0  0  0  0  0  0  0  0  0  0  0
    1.6672   -0.7515    3.1999 H   0  0  0  0  0  0  0  0  0  0  0  0
    4.4224   -0.1559    4.4240 H   0  0  0  0  0  0  0  0  0  0  0  0
    3.0086   -0.2923    5.4471 H   0  0  0  0  0  0  0  0  0  0  0  0
    3.8656    2.0464    4.6531 H   0  0  0  0  0  0  0  0  0  0  0  0
    1.8944    1.5805    6.0923 H   0  0  0  0  0  0  0  0  0  0  0  0
    0.9052    1.2867    4.6499 H   0  0  0  0  0  0  0  0  0  0  0  0
    3.2964    4.0438    5.3644 H   0  0  0  0  0  0  0  0  0  0  0  0
    2.2025    3.9693    6.7726 H   0  0  0  0  0  0  0  0  0  0  0  0
    2.0430    5.8991    4.3789 H   0  0  0  0  0  0  0  0  0  0  0  0
    2.4448    6.3090    6.0766 H   0  0  0  0  0  0  0  0  0  0  0  0
   -0.2720    5.2345    3.9316 H   0  0  0  0  0  0  0  0  0  0  0  0
   -1.3884    5.2245    5.3346 H   0  0  0  0  0  0  0  0  0  0  0  0
   -0.6595    2.9114    4.6094 H   0  0  0  0  0  0  0  0  0  0  0  0
   -0.2511    3.2832    6.3092 H   0  0  0  0  0  0  0  0  0  0  0  0
    2.9425    3.0238    2.7122 H   0  0  0  0  0  0  0  0  0  0  0  0
    1.8411    1.7066    2.3983 H   0  0  0  0  0  0  0  0  0  0  0  0
    4.8488    1.2025    2.2108 H   0  0  0  0  0  0  0  0  0  0  0  0
    3.9832    2.0012    0.9044 H   0  0  0  0  0  0  0  0  0  0  0  0
  1  2  2  0
  2  3  1  0
  2 11  1  0
  3  4  2  0
  3  9  1  0
  4  5  1  0
  4 25  1  0
  5  6  1  0
  5  7  2  0
  7  8  1  0
  7 26  1  0
  8  9  2  0
  8 27  1  0
  9 10  1  0
 11 12  1  0
 11 24  1  0
 12 13  1  0
 12 28  1  0
 12 29  1  0
 13 14  1  0
 13 30  1  0
 13 31  1  0
 14 15  1  0
 14 32  1  0
 14 33  1  0
 15 16  1  0
 15 23  1  0
 15 34  1  1
 16 17  1  0
 16 35  1  0
 16 36  1  0
 17 18  1  0
 17 22  1  0
 18 19  1  0
 18 37  1  0
 18 38  1  0
 19 20  1  0
 19 39  1  0
 19 40  1  0
 20 21  1  0
 21 22  1  0
 21 41  1  0
 21 42  1  0
 22 43  1  0
 22 44  1  0
 23 24  1  0
 23 45  1  0
 23 46  1  0
 24 47  1  0
 24 48  1  0
M  END

