
     RDKit          3D

 35 36  0  0  0  0  0  0  0  0999 V2000
    5.3529   -3.6982   -2.0319 C   0  0  0  0  0  0  0  0  0  0  0  0
    4.1116   -3.9338   -1.1749 C   0  0  0  0  0  0  0  0  0  0  0  0
    4.1354   -3.1854    0.0733 N   0  0  0  0  0  0  0  0  0  0  0  0
    4.3297   -3.6604    1.3338 C   0  0  0  0  0  0  0  0  0  0  0  0
    4.3205   -2.5679    2.1907 C   0  0  0  0  0  0  0  0  0  0  0  0
    4.4695   -2.5832    3.6801 C   0  0  0  0  0  0  0  0  0  0  0  0
    5.5110   -1.6262    4.2654 C   0  0  0  0  0  0  0  0  0  0  0  0
    5.9946   -0.7256    3.6156 O   0  0  0  0  0  0  0  0  0  0  0  0
    5.9010   -1.8867    5.7264 C   0  0  1  0  0  0  0  0  0  0  0  0
    7.2444   -2.6434    5.7411 C   0  0  0  0  0  0  0  0  0  0  0  0
    5.9583   -0.6347    6.6100 C   0  0  1  0  0  0  0  0  0  0  0  0
    6.9200    0.5472    6.3061 C   0  0  0  0  0  0  0  0  0  0  0  0
    5.8471    1.4772    6.7205 N   0  0  0  0  0  0  0  0  0  0  0  0
    4.8264    0.4249    6.5695 C   0  0  0  0  0  0  0  0  0  0  0  0
    4.1164   -1.4647    1.3193 C   0  0  0  0  0  0  0  0  0  0  0  0
    4.0075   -1.8506    0.0520 N   0  0  0  0  0  0  0  0  0  0  0  0
    5.2737   -4.2534   -2.9800 H   0  0  0  0  0  0  0  0  0  0  0  0
    6.2645   -4.0301   -1.5106 H   0  0  0  0  0  0  0  0  0  0  0  0
    5.4567   -2.6275   -2.2607 H   0  0  0  0  0  0  0  0  0  0  0  0
    4.0058   -4.9980   -0.9140 H   0  0  0  0  0  0  0  0  0  0  0  0
    3.2043   -3.6367   -1.7244 H   0  0  0  0  0  0  0  0  0  0  0  0
    4.4524   -4.7243    1.5310 H   0  0  0  0  0  0  0  0  0  0  0  0
    4.6849   -3.6029    4.0418 H   0  0  0  0  0  0  0  0  0  0  0  0
    3.5201   -2.3064    4.1831 H   0  0  0  0  0  0  0  0  0  0  0  0
    5.1334   -2.5558    6.1555 H   0  0  0  0  0  0  0  0  0  0  0  0
    8.0424   -2.0206    5.3081 H   0  0  0  0  0  0  0  0  0  0  0  0
    7.1951   -3.5788    5.1607 H   0  0  0  0  0  0  0  0  0  0  0  0
    7.5295   -2.9024    6.7731 H   0  0  0  0  0  0  0  0  0  0  0  0
    6.1095   -0.9709    7.6488 H   0  0  0  0  0  0  0  0  0  0  0  0
    7.1836    0.5974    5.2370 H   0  0  0  0  0  0  0  0  0  0  0  0
    7.8413    0.6084    6.9123 H   0  0  0  0  0  0  0  0  0  0  0  0
    5.7247    2.2969    6.1280 H   0  0  0  0  0  0  0  0  0  0  0  0
    4.2950    0.4356    5.5976 H   0  0  0  0  0  0  0  0  0  0  0  0
    4.0707    0.3864    7.3746 H   0  0  0  0  0  0  0  0  0  0  0  0
    4.0574   -0.4085    1.5769 H   0  0  0  0  0  0  0  0  0  0  0  0
  1  2  1  0
  1 17  1  0
  1 18  1  0
  1 19  1  0
  2  3  1  0
  2 20  1  0
  2 21  1  0
  3  4  1  0
  3 16  1  0
  4  5  2  0
  4 22  1  0
  5  6  1  0
  5 15  1  0
  6  7  1  0
  6 23  1  0
  6 24  1  0
  7  8  2  0
  7  9  1  0
  9 10  1  0
  9 11  1  0
  9 25  1  1
 10 26  1  0
 10 27  1  0
 10 28  1  0
 11 12  1  0
 11 14  1  0
 11 29  1  1
 12 13  1  0
 12 30  1  0
 12 31  1  0
 13 14  1  0
 13 32  1  0
 14 33  1  0
 14 34  1  0
 15 16  2  0
 15 35  1  0
M  END

