
     RDKit          3D

 62 65  0  0  0  0  0  0  0  0999 V2000
    9.1146   -0.7062   -0.3383 C   0  0  0  0  0  0  0  0  0  0  0  0
    9.2725   -1.5158    0.8055 O   0  0  0  0  0  0  0  0  0  0  0  0
    8.1783   -2.0468    1.4015 C   0  0  0  0  0  0  0  0  0  0  0  0
    8.4175   -2.8424    2.5393 C   0  0  0  0  0  0  0  0  0  0  0  0
    7.3600   -3.4259    3.2229 C   0  0  0  0  0  0  0  0  0  0  0  0
    6.0303   -3.2398    2.8013 C   0  0  0  0  0  0  0  0  0  0  0  0
    4.8733   -3.9117    3.5345 C   0  0  2  0  0  0  0  0  0  0  0  0
    3.9322   -3.5399    3.0880 H   0  0  0  0  0  0  0  0  0  0  0  0
    4.8683   -3.7482    5.0482 C   0  0  0  0  0  0  0  0  0  0  0  0
    4.8614   -2.6296    5.8723 C   0  0  0  0  0  0  0  0  0  0  0  0
    4.9625   -2.8059    7.1781 O   0  0  0  0  0  0  0  0  0  0  0  0
    4.7757   -1.2093    5.4714 C   0  0  0  0  0  0  0  0  0  0  0  0
    4.1354   -0.7899    4.2928 C   0  0  0  0  0  0  0  0  0  0  0  0
    4.0526    0.5625    3.9633 C   0  0  0  0  0  0  0  0  0  0  0  0
    4.6239    1.5122    4.8151 C   0  0  0  0  0  0  0  0  0  0  0  0
    4.5267    3.3582    4.3635 Br  0  0  0  0  0  0  0  0  0  0  0  0
    5.2585    1.1218    5.9991 C   0  0  0  0  0  0  0  0  0  0  0  0
    5.3214   -0.2309    6.3252 C   0  0  0  0  0  0  0  0  0  0  0  0
    4.9446   -5.0463    5.6636 C   0  0  0  0  0  0  0  0  0  0  0  0
    5.0144   -5.2969    6.8735 O   0  0  0  0  0  0  0  0  0  0  0  0
    4.9268   -6.0920    4.5531 C   0  0  0  0  0  0  0  0  0  0  0  0
    4.9322   -7.2987    4.6739 O   0  0  0  0  0  0  0  0  0  0  0  0
    4.9032   -5.3783    3.3816 N   0  0  0  0  0  0  0  0  0  0  0  0
    4.8379   -6.0380    2.0912 C   0  0  0  0  0  0  0  0  0  0  0  0
    3.4011   -6.1810    1.5431 C   0  0  0  0  0  0  0  0  0  0  0  0
    3.3612   -6.8971    0.2118 C   0  0  0  0  0  0  0  0  0  0  0  0
    3.2190   -8.2823    0.1420 C   0  0  0  0  0  0  0  0  0  0  0  0
    3.2278   -8.9463   -1.0946 C   0  0  0  0  0  0  0  0  0  0  0  0
    3.3816   -8.2357   -2.2855 C   0  0  0  0  0  0  0  0  0  0  0  0
    3.3995   -8.7826   -3.5256 O   0  0  0  0  0  0  0  0  0  0  0  0
    3.2576  -10.1768   -3.6568 C   0  0  0  0  0  0  0  0  0  0  0  0
    3.5290   -6.8215   -2.2299 C   0  0  0  0  0  0  0  0  0  0  0  0
    3.6676   -6.1988   -3.4268 O   0  0  0  0  0  0  0  0  0  0  0  0
    3.8190   -4.8013   -3.4576 C   0  0  0  0  0  0  0  0  0  0  0  0
    3.5180   -6.1782   -0.9916 C   0  0  0  0  0  0  0  0  0  0  0  0
    5.8066   -2.4574    1.6664 C   0  0  0  0  0  0  0  0  0  0  0  0
    6.8603   -1.8570    0.9640 C   0  0  0  0  0  0  0  0  0  0  0  0
   10.1223   -0.3919   -0.6408 H   0  0  0  0  0  0  0  0  0  0  0  0
    8.5085    0.1927   -0.1249 H   0  0  0  0  0  0  0  0  0  0  0  0
    8.6477   -1.2603   -1.1727 H   0  0  0  0  0  0  0  0  0  0  0  0
    9.4506   -2.9829    2.8636 H   0  0  0  0  0  0  0  0  0  0  0  0
    7.5684   -4.0393    4.1034 H   0  0  0  0  0  0  0  0  0  0  0  0
    5.0168   -3.8077    7.3509 H   0  0  0  0  0  0  0  0  0  0  0  0
    3.6626   -1.5176    3.6351 H   0  0  0  0  0  0  0  0  0  0  0  0
    3.5423    0.8783    3.0523 H   0  0  0  0  0  0  0  0  0  0  0  0
    5.6959    1.8710    6.6608 H   0  0  0  0  0  0  0  0  0  0  0  0
    5.8026   -0.5452    7.2520 H   0  0  0  0  0  0  0  0  0  0  0  0
    5.2744   -7.0386    2.2232 H   0  0  0  0  0  0  0  0  0  0  0  0
    5.4663   -5.4865    1.3741 H   0  0  0  0  0  0  0  0  0  0  0  0
    2.9453   -5.1807    1.4439 H   0  0  0  0  0  0  0  0  0  0  0  0
    2.8042   -6.7336    2.2857 H   0  0  0  0  0  0  0  0  0  0  0  0
    3.0956   -8.8648    1.0588 H   0  0  0  0  0  0  0  0  0  0  0  0
    3.1095  -10.0298   -1.1159 H   0  0  0  0  0  0  0  0  0  0  0  0
    3.3020  -10.3964   -4.7322 H   0  0  0  0  0  0  0  0  0  0  0  0
    2.2893  -10.5330   -3.2593 H   0  0  0  0  0  0  0  0  0  0  0  0
    4.0707  -10.7251   -3.1463 H   0  0  0  0  0  0  0  0  0  0  0  0
    3.9155   -4.5195   -4.5150 H   0  0  0  0  0  0  0  0  0  0  0  0
    4.7250   -4.4708   -2.9161 H   0  0  0  0  0  0  0  0  0  0  0  0
    2.9431   -4.2800   -3.0285 H   0  0  0  0  0  0  0  0  0  0  0  0
    3.6263   -5.0934   -0.9469 H   0  0  0  0  0  0  0  0  0  0  0  0
    4.7836   -2.3023    1.3097 H   0  0  0  0  0  0  0  0  0  0  0  0
    6.6396   -1.2493    0.0865 H   0  0  0  0  0  0  0  0  0  0  0  0
  1  2  1  0
  1 38  1  0
  1 39  1  0
  1 40  1  0
  2  3  1  0
  3  4  2  0
  3 37  1  0
  4  5  1  0
  4 41  1  0
  5  6  2  0
  5 42  1  0
  6  7  1  0
  6 36  1  0
  7  8  1  6
  7  9  1  0
  7 23  1  0
  9 10  2  0
  9 19  1  0
 10 11  1  0
 10 12  1  0
 11 43  1  0
 12 13  2  0
 12 18  1  0
 13 14  1  0
 13 44  1  0
 14 15  2  0
 14 45  1  0
 15 16  1  0
 15 17  1  0
 17 18  2  0
 17 46  1  0
 18 47  1  0
 19 20  2  0
 19 21  1  0
 21 22  2  0
 21 23  1  0
 23 24  1  0
 24 25  1  0
 24 48  1  0
 24 49  1  0
 25 26  1  0
 25 50  1  0
 25 51  1  0
 26 27  2  0
 26 35  1  0
 27 28  1  0
 27 52  1  0
 28 29  2  0
 28 53  1  0
 29 30  1  0
 29 32  1  0
 30 31  1  0
 31 54  1  0
 31 55  1  0
 31 56  1  0
 32 33  1  0
 32 35  2  0
 33 34  1  0
 34 57  1  0
 34 58  1  0
 34 59  1  0
 35 60  1  0
 36 37  2  0
 36 61  1  0
 37 62  1  0
M  END

