
     RDKit          3D

 33 34  0  0  0  0  0  0  0  0999 V2000
    3.1910   -0.0879    1.9271 O   0  0  0  0  0  0  0  0  0  0  0  0
    2.8173    0.0184    0.5049 S   0  0  1  0  0  0  0  0  0  0  0  0
    1.4237    0.2433    0.1239 O   0  0  0  0  0  0  0  0  0  0  0  0
    3.8363    1.3318   -0.0931 C   0  0  0  0  0  0  0  0  0  0  0  0
    4.1087    1.8579   -1.3427 C   0  0  0  0  0  0  0  0  0  0  0  0
    4.9141    2.9521   -1.2176 N   0  0  0  0  0  0  0  0  0  0  0  0
    5.1254    3.1000    0.0768 C   0  0  0  0  0  0  0  0  0  0  0  0
    4.4933    2.1435    0.8049 N   0  0  0  0  0  0  0  0  0  0  0  0
    4.4787    1.9999    1.8107 H   0  0  0  0  0  0  0  0  0  0  0  0
    3.3520   -1.3075   -0.3709 N   0  0  0  0  0  0  0  0  0  0  0  0
    4.5884   -1.9571    0.0861 C   0  0  0  0  0  0  0  0  0  0  0  0
    4.2990   -3.1064    1.0556 C   0  0  0  0  0  0  0  0  0  0  0  0
    3.2770   -4.0885    0.4663 C   0  0  0  0  0  0  0  0  0  0  0  0
    1.9909   -3.3782    0.0013 C   0  0  2  0  0  0  0  0  0  0  0  0
    0.9833   -4.3153   -0.6862 C   0  0  0  0  0  0  0  0  0  0  0  0
    0.3863   -5.3632    0.2432 C   0  0  0  0  0  0  0  0  0  0  0  0
   -0.8294   -6.3923   -0.6178 Cl  0  0  0  0  0  0  0  0  0  0  0  0
    2.3536   -2.2176   -0.9428 C   0  0  0  0  0  0  0  0  0  0  0  0
    3.7643    1.4919   -2.3086 H   0  0  0  0  0  0  0  0  0  0  0  0
    5.7300    3.8808    0.5386 H   0  0  0  0  0  0  0  0  0  0  0  0
    5.2421   -1.2022    0.5459 H   0  0  0  0  0  0  0  0  0  0  0  0
    5.1103   -2.3294   -0.8138 H   0  0  0  0  0  0  0  0  0  0  0  0
    3.9118   -2.6767    1.9939 H   0  0  0  0  0  0  0  0  0  0  0  0
    5.2391   -3.6296    1.2985 H   0  0  0  0  0  0  0  0  0  0  0  0
    3.0447   -4.8680    1.2098 H   0  0  0  0  0  0  0  0  0  0  0  0
    3.7239   -4.6111   -0.4015 H   0  0  0  0  0  0  0  0  0  0  0  0
    1.5012   -2.9271    0.8850 H   0  0  0  0  0  0  0  0  0  0  0  0
    1.4648   -4.8244   -1.5394 H   0  0  0  0  0  0  0  0  0  0  0  0
    0.1573   -3.7172   -1.1066 H   0  0  0  0  0  0  0  0  0  0  0  0
   -0.1383   -4.8982    1.0900 H   0  0  0  0  0  0  0  0  0  0  0  0
    1.1434   -6.0528    0.6393 H   0  0  0  0  0  0  0  0  0  0  0  0
    1.4641   -1.6335   -1.2099 H   0  0  0  0  0  0  0  0  0  0  0  0
    2.7839   -2.6196   -1.8788 H   0  0  0  0  0  0  0  0  0  0  0  0
  1  2  2  0
  2  3  2  0
  2  4  1  6
  2 10  1  0
  4  5  2  0
  4  8  1  0
  5  6  1  0
  5 19  1  0
  6  7  2  0
  7  8  1  0
  7 20  1  0
  8  9  1  0
 10 11  1  0
 10 18  1  0
 11 12  1  0
 11 21  1  0
 11 22  1  0
 12 13  1  0
 12 23  1  0
 12 24  1  0
 13 14  1  0
 13 25  1  0
 13 26  1  0
 14 15  1  0
 14 18  1  0
 14 27  1  1
 15 16  1  0
 15 28  1  0
 15 29  1  0
 16 17  1  0
 16 30  1  0
 16 31  1  0
 18 32  1  0
 18 33  1  0
M  END

