
     RDKit          3D

 60 62  0  0  0  0  0  0  0  0999 V2000
    0.1833   -0.2390   -2.8644 C   0  0  0  0  0  0  0  0  0  0  0  0
    0.7998   -0.6187   -1.6523 O   0  0  0  0  0  0  0  0  0  0  0  0
    2.0791   -1.0852   -1.6653 C   0  0  0  0  0  0  0  0  0  0  0  0
    2.8657   -1.1561   -2.8209 C   0  0  0  0  0  0  0  0  0  0  0  0
    4.1647   -1.6630   -2.7781 C   0  0  0  0  0  0  0  0  0  0  0  0
    4.7272   -2.1310   -1.5767 C   0  0  0  0  0  0  0  0  0  0  0  0
    6.1139   -2.6251   -1.5971 C   0  0  0  0  0  0  0  0  0  0  0  0
    6.8219   -3.4631   -0.8001 C   0  0  0  0  0  0  0  0  0  0  0  0
    6.4841   -4.3213    0.3499 C   0  0  0  0  0  0  0  0  0  0  0  0
    5.2013   -4.8461    0.5974 C   0  0  0  0  0  0  0  0  0  0  0  0
    4.9835   -5.7026    1.6851 C   0  0  0  0  0  0  0  0  0  0  0  0
    3.7883   -6.2663    1.9892 O   0  0  0  0  0  0  0  0  0  0  0  0
    2.6174   -5.8070    1.3470 C   0  0  0  0  0  0  0  0  0  0  0  0
    6.0438   -6.0443    2.5528 C   0  0  0  0  0  0  0  0  0  0  0  0
    5.8327   -6.8209    3.6501 O   0  0  0  0  0  0  0  0  0  0  0  0
    5.7284   -8.2169    3.4218 C   0  0  0  0  0  0  0  0  0  0  0  0
    7.3349   -5.5435    2.2902 C   0  0  0  0  0  0  0  0  0  0  0  0
    8.3039   -5.9445    3.1506 O   0  0  0  0  0  0  0  0  0  0  0  0
    9.6130   -5.4528    2.9887 C   0  0  0  0  0  0  0  0  0  0  0  0
    7.5460   -4.6889    1.2004 C   0  0  0  0  0  0  0  0  0  0  0  0
    3.9396   -2.0252   -0.4173 C   0  0  0  0  0  0  0  0  0  0  0  0
    2.6299   -1.5240   -0.4306 C   0  0  0  0  0  0  0  0  0  0  0  0
    1.9422   -1.5331    0.7885 N   0  0  0  0  0  0  0  0  0  0  0  0
    0.7796   -0.9619    1.1685 C   0  0  0  0  0  0  0  0  0  0  0  0
    0.2346   -1.1335    2.4250 C   0  0  0  0  0  0  0  0  0  0  0  0
    0.8532   -1.9719    3.4253 C   0  0  0  0  0  0  0  0  0  0  0  0
    1.9288   -2.5686    3.2057 O   0  0  0  0  0  0  0  0  0  0  0  0
    0.2045   -2.1511    4.7703 C   0  0  0  0  0  0  0  0  0  0  0  0
    0.8638   -2.9663    5.7078 C   0  0  0  0  0  0  0  0  0  0  0  0
    0.3320   -3.1851    6.9763 C   0  0  0  0  0  0  0  0  0  0  0  0
   -0.8819   -2.5809    7.3213 C   0  0  0  0  0  0  0  0  0  0  0  0
   -1.5607   -2.8468    8.9095 Cl  0  0  0  0  0  0  0  0  0  0  0  0
   -1.5593   -1.7659    6.4095 C   0  0  0  0  0  0  0  0  0  0  0  0
   -1.0134   -1.5564    5.1426 C   0  0  0  0  0  0  0  0  0  0  0  0
   -0.8418    0.0622   -2.6109 H   0  0  0  0  0  0  0  0  0  0  0  0
    0.1451   -1.0772   -3.5822 H   0  0  0  0  0  0  0  0  0  0  0  0
    0.7007    0.6143   -3.3374 H   0  0  0  0  0  0  0  0  0  0  0  0
    2.4628   -0.8136   -3.7737 H   0  0  0  0  0  0  0  0  0  0  0  0
    4.7518   -1.7001   -3.6990 H   0  0  0  0  0  0  0  0  0  0  0  0
    6.6891   -2.2112   -2.4337 H   0  0  0  0  0  0  0  0  0  0  0  0
    7.8811   -3.5394   -1.0726 H   0  0  0  0  0  0  0  0  0  0  0  0
    4.3842   -4.6127   -0.0807 H   0  0  0  0  0  0  0  0  0  0  0  0
    1.7850   -6.3796    1.7780 H   0  0  0  0  0  0  0  0  0  0  0  0
    2.6421   -5.9866    0.2571 H   0  0  0  0  0  0  0  0  0  0  0  0
    2.4455   -4.7346    1.5416 H   0  0  0  0  0  0  0  0  0  0  0  0
    5.5765   -8.6897    4.4027 H   0  0  0  0  0  0  0  0  0  0  0  0
    6.6537   -8.6200    2.9718 H   0  0  0  0  0  0  0  0  0  0  0  0
    4.8714   -8.4579    2.7705 H   0  0  0  0  0  0  0  0  0  0  0  0
   10.2128   -5.8884    3.7995 H   0  0  0  0  0  0  0  0  0  0  0  0
    9.6529   -4.3511    3.0679 H   0  0  0  0  0  0  0  0  0  0  0  0
   10.0529   -5.7531    2.0198 H   0  0  0  0  0  0  0  0  0  0  0  0
    8.5425   -4.3004    0.9920 H   0  0  0  0  0  0  0  0  0  0  0  0
    4.3547   -2.3292    0.5444 H   0  0  0  0  0  0  0  0  0  0  0  0
    2.3688   -2.0608    1.5687 H   0  0  0  0  0  0  0  0  0  0  0  0
    0.2736   -0.3461    0.4270 H   0  0  0  0  0  0  0  0  0  0  0  0
   -0.6980   -0.6141    2.6335 H   0  0  0  0  0  0  0  0  0  0  0  0
    1.8089   -3.4245    5.4116 H   0  0  0  0  0  0  0  0  0  0  0  0
    0.8483   -3.8183    7.6998 H   0  0  0  0  0  0  0  0  0  0  0  0
   -2.5052   -1.3024    6.6943 H   0  0  0  0  0  0  0  0  0  0  0  0
   -1.5579   -0.9185    4.4452 H   0  0  0  0  0  0  0  0  0  0  0  0
  1  2  1  0
  1 35  1  0
  1 36  1  0
  1 37  1  0
  2  3  1  0
  3  4  2  0
  3 22  1  0
  4  5  1  0
  4 38  1  0
  5  6  2  0
  5 39  1  0
  6  7  1  0
  6 21  1  0
  7  8  2  0
  7 40  1  0
  8  9  1  0
  8 41  1  0
  9 10  2  0
  9 20  1  0
 10 11  1  0
 10 42  1  0
 11 12  1  0
 11 14  2  0
 12 13  1  0
 13 43  1  0
 13 44  1  0
 13 45  1  0
 14 15  1  0
 14 17  1  0
 15 16  1  0
 16 46  1  0
 16 47  1  0
 16 48  1  0
 17 18  1  0
 17 20  2  0
 18 19  1  0
 19 49  1  0
 19 50  1  0
 19 51  1  0
 20 52  1  0
 21 22  2  0
 21 53  1  0
 22 23  1  0
 23 24  1  0
 23 54  1  0
 24 25  2  0
 24 55  1  0
 25 26  1  0
 25 56  1  0
 26 27  2  0
 26 28  1  0
 28 29  2  0
 28 34  1  0
 29 30  1  0
 29 57  1  0
 30 31  2  0
 30 58  1  0
 31 32  1  0
 31 33  1  0
 33 34  2  0
 33 59  1  0
 34 60  1  0
M  END

