
     RDKit          3D

 43 44  0  0  0  0  0  0  0  0999 V2000
    3.1270   -1.7078   -1.3068 C   0  0  0  0  0  0  0  0  0  0  0  0
    3.8989   -1.0475   -0.6479 C   0  0  0  0  0  0  0  0  0  0  0  0
    4.8316   -0.2512    0.1476 C   0  0  0  0  0  0  0  0  0  0  0  0
    5.7946   -1.0917    0.8445 N   0  0  0  0  0  0  0  0  0  0  0  0
    6.7378   -0.5402    1.6448 C   0  0  0  0  0  0  0  0  0  0  0  0
    6.8466    0.6581    1.8429 O   0  0  0  0  0  0  0  0  0  0  0  0
    7.6873   -1.5244    2.3262 C   0  0  0  0  0  0  0  0  0  0  0  0
    7.4431   -2.8444    1.8930 O   0  0  0  0  0  0  0  0  0  0  0  0
    8.1761   -3.8829    2.4025 C   0  0  0  0  0  0  0  0  0  0  0  0
    9.1651   -3.7155    3.3766 C   0  0  0  0  0  0  0  0  0  0  0  0
    9.8322   -4.8422    3.8699 C   0  0  0  0  0  0  0  0  0  0  0  0
    9.5258   -6.1092    3.3846 C   0  0  0  0  0  0  0  0  0  0  0  0
    8.5507   -6.2814    2.3833 C   0  0  0  0  0  0  0  0  0  0  0  0
    7.8584   -5.1612    1.8862 C   0  0  0  0  0  0  0  0  0  0  0  0
    6.7295   -5.2800    0.8794 C   0  0  0  0  0  0  0  0  0  0  0  0
    6.6057   -6.6629    0.2308 C   0  0  0  0  0  0  0  0  0  0  0  0
    6.8617   -7.7777    1.2461 C   0  0  0  0  0  0  0  0  0  0  0  0
    8.2836   -7.6780    1.8160 C   0  0  1  0  0  0  0  0  0  0  0  0
    9.2540   -8.0953    0.7933 N   0  0  0  0  0  0  0  0  0  0  0  0
   10.5854   -8.4823    1.2355 C   0  0  0  0  0  0  0  0  0  0  0  0
   11.4015   -9.0399    0.0728 C   0  0  0  0  0  0  0  0  0  0  0  0
    2.4389   -2.2878   -1.8929 H   0  0  0  0  0  0  0  0  0  0  0  0
    4.2768    0.3658    0.8778 H   0  0  0  0  0  0  0  0  0  0  0  0
    5.3624    0.4698   -0.5010 H   0  0  0  0  0  0  0  0  0  0  0  0
    5.7722   -2.0988    0.7308 H   0  0  0  0  0  0  0  0  0  0  0  0
    7.5433   -1.4204    3.4173 H   0  0  0  0  0  0  0  0  0  0  0  0
    8.7187   -1.2025    2.0961 H   0  0  0  0  0  0  0  0  0  0  0  0
    9.4112   -2.7277    3.7655 H   0  0  0  0  0  0  0  0  0  0  0  0
   10.5916   -4.7190    4.6462 H   0  0  0  0  0  0  0  0  0  0  0  0
   10.0344   -6.9848    3.7944 H   0  0  0  0  0  0  0  0  0  0  0  0
    6.8401   -4.5008    0.1074 H   0  0  0  0  0  0  0  0  0  0  0  0
    5.7857   -5.0341    1.4027 H   0  0  0  0  0  0  0  0  0  0  0  0
    7.3251   -6.7589   -0.6016 H   0  0  0  0  0  0  0  0  0  0  0  0
    5.6083   -6.7705   -0.2252 H   0  0  0  0  0  0  0  0  0  0  0  0
    6.7391   -8.7682    0.7825 H   0  0  0  0  0  0  0  0  0  0  0  0
    6.1315   -7.7004    2.0716 H   0  0  0  0  0  0  0  0  0  0  0  0
    8.3820   -8.4029    2.6417 H   0  0  0  0  0  0  0  0  0  0  0  0
    9.3301   -7.3789    0.0721 H   0  0  0  0  0  0  0  0  0  0  0  0
   10.4712   -9.2608    2.0113 H   0  0  0  0  0  0  0  0  0  0  0  0
   11.1541   -7.6551    1.7136 H   0  0  0  0  0  0  0  0  0  0  0  0
   10.8823   -9.8916   -0.3936 H   0  0  0  0  0  0  0  0  0  0  0  0
   12.3957   -9.3725    0.4110 H   0  0  0  0  0  0  0  0  0  0  0  0
   11.5577   -8.2740   -0.7062 H   0  0  0  0  0  0  0  0  0  0  0  0
  1  2  3  0
  1 22  1  0
  2  3  1  0
  3  4  1  0
  3 23  1  0
  3 24  1  0
  4  5  1  0
  4 25  1  0
  5  6  2  0
  5  7  1  0
  7  8  1  0
  7 26  1  0
  7 27  1  0
  8  9  1  0
  9 10  2  0
  9 14  1  0
 10 11  1  0
 10 28  1  0
 11 12  2  0
 11 29  1  0
 12 13  1  0
 12 30  1  0
 13 14  2  0
 13 18  1  0
 14 15  1  0
 15 16  1  0
 15 31  1  0
 15 32  1  0
 16 17  1  0
 16 33  1  0
 16 34  1  0
 17 18  1  0
 17 35  1  0
 17 36  1  0
 18 19  1  0
 18 37  1  1
 19 20  1  0
 19 38  1  0
 20 21  1  0
 20 39  1  0
 20 40  1  0
 21 41  1  0
 21 42  1  0
 21 43  1  0
M  END

