
     RDKit          3D

 51 54  0  0  0  0  0  0  0  0999 V2000
    1.0640    0.2588    0.0291 C   0  0  0  0  0  0  0  0  0  0  0  0
    2.3346    0.5317    0.5867 O   0  0  0  0  0  0  0  0  0  0  0  0
    3.0008   -0.4343    1.2467 C   0  0  0  0  0  0  0  0  0  0  0  0
    2.5200   -1.7429    1.4400 C   0  0  0  0  0  0  0  0  0  0  0  0
    3.2927   -2.6657    2.1410 C   0  0  0  0  0  0  0  0  0  0  0  0
    4.5538   -2.3220    2.6603 C   0  0  0  0  0  0  0  0  0  0  0  0
    5.3934   -3.2761    3.3970 C   0  0  0  0  0  0  0  0  0  0  0  0
    5.0319   -4.6151    3.6528 C   0  0  0  0  0  0  0  0  0  0  0  0
    5.7878   -5.3585    4.5673 C   0  0  0  0  0  0  0  0  0  0  0  0
    5.4184   -6.7173    5.0101 C   0  0  0  0  0  0  0  0  0  0  0  0
    6.4687   -7.6133    5.3736 C   0  0  0  0  0  0  0  0  0  0  0  0
    6.1750   -8.8916    5.7856 C   0  0  0  0  0  0  0  0  0  0  0  0
    4.8281   -9.3475    5.8755 C   0  0  0  0  0  0  0  0  0  0  0  0
    4.4941  -10.6604    6.3077 C   0  0  0  0  0  0  0  0  0  0  0  0
    3.1774  -11.0655    6.3842 C   0  0  0  0  0  0  0  0  0  0  0  0
    2.1298  -10.1760    6.0320 C   0  0  0  0  0  0  0  0  0  0  0  0
    2.4192   -8.8966    5.6081 C   0  0  0  0  0  0  0  0  0  0  0  0
    3.7679   -8.4480    5.5146 C   0  0  0  0  0  0  0  0  0  0  0  0
    4.0982   -7.1390    5.0783 C   0  0  0  0  0  0  0  0  0  0  0  0
    6.8693   -4.8765    5.0944 O   0  0  0  0  0  0  0  0  0  0  0  0
    7.5733   -3.7195    4.4308 B   0  0  2  0  0  0  0  0  0  0  0  0
    8.5474   -4.3311    3.2593 C   0  0  0  0  0  0  0  0  0  0  0  0
    9.1255   -3.3870    2.2200 C   0  0  0  0  0  0  0  0  0  0  0  0
    8.8370   -5.5195    3.2598 O   0  0  0  0  0  0  0  0  0  0  0  0
    8.4575   -2.8648    5.4963 C   0  0  0  0  0  0  0  0  0  0  0  0
    8.8542   -3.4916    6.8230 C   0  0  0  0  0  0  0  0  0  0  0  0
    8.8348   -1.7403    5.2013 O   0  0  0  0  0  0  0  0  0  0  0  0
    6.5162   -2.8098    3.8409 O   0  0  0  0  0  0  0  0  0  0  0  0
    5.0217   -1.0020    2.4590 C   0  0  0  0  0  0  0  0  0  0  0  0
    4.2611   -0.0753    1.7674 C   0  0  0  0  0  0  0  0  0  0  0  0
    0.7310    1.1875   -0.4520 H   0  0  0  0  0  0  0  0  0  0  0  0
    0.3319   -0.0270    0.8045 H   0  0  0  0  0  0  0  0  0  0  0  0
    1.1159   -0.5410   -0.7302 H   0  0  0  0  0  0  0  0  0  0  0  0
    1.5489   -2.0476    1.0509 H   0  0  0  0  0  0  0  0  0  0  0  0
    2.8932   -3.6711    2.2811 H   0  0  0  0  0  0  0  0  0  0  0  0
    4.1385   -5.0488    3.2150 H   0  0  0  0  0  0  0  0  0  0  0  0
    7.4987   -7.2672    5.2750 H   0  0  0  0  0  0  0  0  0  0  0  0
    6.9822   -9.5815    6.0456 H   0  0  0  0  0  0  0  0  0  0  0  0
    5.3008  -11.3461    6.5803 H   0  0  0  0  0  0  0  0  0  0  0  0
    2.9356  -12.0774    6.7190 H   0  0  0  0  0  0  0  0  0  0  0  0
    1.0915  -10.5102    6.0987 H   0  0  0  0  0  0  0  0  0  0  0  0
    1.6144   -8.2080    5.3363 H   0  0  0  0  0  0  0  0  0  0  0  0
    3.2860   -6.4529    4.8262 H   0  0  0  0  0  0  0  0  0  0  0  0
    9.5662   -2.5075    2.7174 H   0  0  0  0  0  0  0  0  0  0  0  0
    8.3153   -3.0015    1.5771 H   0  0  0  0  0  0  0  0  0  0  0  0
    9.8715   -3.9055    1.6000 H   0  0  0  0  0  0  0  0  0  0  0  0
    7.9569   -3.7786    7.3964 H   0  0  0  0  0  0  0  0  0  0  0  0
    9.4705   -2.7906    7.4043 H   0  0  0  0  0  0  0  0  0  0  0  0
    9.4139   -4.4256    6.6419 H   0  0  0  0  0  0  0  0  0  0  0  0
    5.9961   -0.7235    2.8631 H   0  0  0  0  0  0  0  0  0  0  0  0
    4.6145    0.9451    1.6085 H   0  0  0  0  0  0  0  0  0  0  0  0
  1  2  1  0
  1 31  1  0
  1 32  1  0
  1 33  1  0
  2  3  1  0
  3  4  2  0
  3 30  1  0
  4  5  1  0
  4 34  1  0
  5  6  2  0
  5 35  1  0
  6  7  1  0
  6 29  1  0
  7  8  1  0
  7 28  2  0
  8  9  2  0
  8 36  1  0
  9 10  1  0
  9 20  1  0
 10 11  2  0
 10 19  1  0
 11 12  1  0
 11 37  1  0
 12 13  2  0
 12 38  1  0
 13 14  1  0
 13 18  1  0
 14 15  2  0
 14 39  1  0
 15 16  1  0
 15 40  1  0
 16 17  2  0
 16 41  1  0
 17 18  1  0
 17 42  1  0
 18 19  2  0
 19 43  1  0
 20 21  1  0
 21 22  1  6
 21 25  1  0
 21 28  1  0
 22 23  1  0
 22 24  2  0
 23 44  1  0
 23 45  1  0
 23 46  1  0
 25 26  1  0
 25 27  2  0
 26 47  1  0
 26 48  1  0
 26 49  1  0
 29 30  2  0
 29 50  1  0
 30 51  1  0
M  CHG  2  21  -1  28   1
M  END

