
     RDKit          3D

 53 56  0  0  0  0  0  0  0  0999 V2000
    1.4221   -0.2732    0.0693 C   0  0  0  0  0  0  0  0  0  0  0  0
    2.7642   -0.1299   -0.5732 C   0  0  0  0  0  0  0  0  0  0  0  0
    3.4174    1.0297   -0.9232 C   0  0  0  0  0  0  0  0  0  0  0  0
    3.0464    2.4577   -0.7995 C   0  0  0  0  0  0  0  0  0  0  0  0
    1.9859    2.8128   -0.2994 O   0  0  0  0  0  0  0  0  0  0  0  0
    3.9758    3.3358   -1.2913 N   0  0  0  0  0  0  0  0  0  0  0  0
    3.7998    4.7706   -1.2157 C   0  0  0  0  0  0  0  0  0  0  0  0
    4.6369    5.4472   -0.1080 C   0  0  0  0  0  0  0  0  0  0  0  0
    6.1299    5.2881   -0.2908 C   0  0  0  0  0  0  0  0  0  0  0  0
    6.8621    6.2017   -1.0682 C   0  0  0  0  0  0  0  0  0  0  0  0
    8.2335    6.0347   -1.2772 C   0  0  0  0  0  0  0  0  0  0  0  0
    8.9025    4.9448   -0.7113 C   0  0  0  0  0  0  0  0  0  0  0  0
    8.1887    4.0276    0.0651 C   0  0  0  0  0  0  0  0  0  0  0  0
    6.8163    4.1990    0.2725 C   0  0  0  0  0  0  0  0  0  0  0  0
    4.6436    0.7414   -1.4983 O   0  0  0  0  0  0  0  0  0  0  0  0
    4.7709   -0.5972   -1.5153 C   0  0  0  0  0  0  0  0  0  0  0  0
    3.6625   -1.1960   -0.9646 C   0  0  0  0  0  0  0  0  0  0  0  0
    3.5761   -2.6477   -0.8281 C   0  0  0  0  0  0  0  0  0  0  0  0
    2.5215   -3.1553   -0.2873 N   0  0  0  0  0  0  0  0  0  0  0  0
    2.4290   -4.4862   -0.1020 N   0  0  0  0  0  0  0  0  0  0  0  0
    1.2984   -5.0328    0.4958 C   0  0  0  0  0  0  0  0  0  0  0  0
    0.3687   -4.3713    0.9047 O   0  0  0  0  0  0  0  0  0  0  0  0
    1.3143   -6.5188    0.6122 C   0  0  0  0  0  0  0  0  0  0  0  0
    0.3991   -7.2401    1.3478 C   0  0  0  0  0  0  0  0  0  0  0  0
    0.6238   -8.6444    1.3012 C   0  0  0  0  0  0  0  0  0  0  0  0
    1.7058   -8.9828    0.5247 C   0  0  0  0  0  0  0  0  0  0  0  0
    2.4584   -7.5890   -0.1639 S   0  0  0  0  0  0  0  0  0  0  0  0
    4.8013   -3.4263   -1.2993 C   0  0  0  0  0  0  0  0  0  0  0  0
    5.5848   -2.7198   -2.4225 C   0  0  0  0  0  0  0  0  0  0  0  0
    5.9744   -1.2741   -2.0678 C   0  0  0  0  0  0  0  0  0  0  0  0
    0.9842    0.7117    0.2675 H   0  0  0  0  0  0  0  0  0  0  0  0
    1.5011   -0.8499    1.0038 H   0  0  0  0  0  0  0  0  0  0  0  0
    0.7486   -0.8600   -0.5750 H   0  0  0  0  0  0  0  0  0  0  0  0
    4.8469    2.9621   -1.6490 H   0  0  0  0  0  0  0  0  0  0  0  0
    2.7323    4.9478   -1.0238 H   0  0  0  0  0  0  0  0  0  0  0  0
    4.0505    5.2188   -2.1927 H   0  0  0  0  0  0  0  0  0  0  0  0
    4.3261    5.0300    0.8632 H   0  0  0  0  0  0  0  0  0  0  0  0
    4.3754    6.5185   -0.0971 H   0  0  0  0  0  0  0  0  0  0  0  0
    6.3495    7.0617   -1.5102 H   0  0  0  0  0  0  0  0  0  0  0  0
    8.7837    6.7620   -1.8804 H   0  0  0  0  0  0  0  0  0  0  0  0
    9.9761    4.8150   -0.8700 H   0  0  0  0  0  0  0  0  0  0  0  0
    8.7037    3.1763    0.5186 H   0  0  0  0  0  0  0  0  0  0  0  0
    6.2677    3.4808    0.8882 H   0  0  0  0  0  0  0  0  0  0  0  0
    3.2159   -5.0968   -0.3195 H   0  0  0  0  0  0  0  0  0  0  0  0
   -0.4020   -6.7457    1.8977 H   0  0  0  0  0  0  0  0  0  0  0  0
    0.0072   -9.3802    1.8196 H   0  0  0  0  0  0  0  0  0  0  0  0
    2.0981   -9.9756    0.3075 H   0  0  0  0  0  0  0  0  0  0  0  0
    4.5052   -4.4257   -1.6599 H   0  0  0  0  0  0  0  0  0  0  0  0
    5.4668   -3.5948   -0.4304 H   0  0  0  0  0  0  0  0  0  0  0  0
    4.9610   -2.7038   -3.3318 H   0  0  0  0  0  0  0  0  0  0  0  0
    6.4854   -3.3051   -2.6645 H   0  0  0  0  0  0  0  0  0  0  0  0
    6.3499   -0.7379   -2.9548 H   0  0  0  0  0  0  0  0  0  0  0  0
    6.7970   -1.2633   -1.3270 H   0  0  0  0  0  0  0  0  0  0  0  0
  1  2  1  0
  1 31  1  0
  1 32  1  0
  1 33  1  0
  2  3  2  0
  2 17  1  0
  3  4  1  0
  3 15  1  0
  4  5  2  0
  4  6  1  0
  6  7  1  0
  6 34  1  0
  7  8  1  0
  7 35  1  0
  7 36  1  0
  8  9  1  0
  8 37  1  0
  8 38  1  0
  9 10  2  0
  9 14  1  0
 10 11  1  0
 10 39  1  0
 11 12  2  0
 11 40  1  0
 12 13  1  0
 12 41  1  0
 13 14  2  0
 13 42  1  0
 14 43  1  0
 15 16  1  0
 16 17  2  0
 16 30  1  0
 17 18  1  0
 18 19  2  0
 18 28  1  0
 19 20  1  0
 20 21  1  0
 20 44  1  0
 21 22  2  0
 21 23  1  0
 23 24  2  0
 23 27  1  0
 24 25  1  0
 24 45  1  0
 25 26  2  0
 25 46  1  0
 26 27  1  0
 26 47  1  0
 28 29  1  0
 28 48  1  0
 28 49  1  0
 29 30  1  0
 29 50  1  0
 29 51  1  0
 30 52  1  0
 30 53  1  0
M  END

