
     RDKit          3D

 50 53  0  0  0  0  0  0  0  0999 V2000
    5.6875   -2.9129   -1.9365 C   0  0  0  0  0  0  0  0  0  0  0  0
    4.6919   -2.7635   -3.0895 C   0  0  1  0  0  0  0  0  0  0  0  0
    3.3154   -3.3486   -2.7642 C   0  0  0  0  0  0  0  0  0  0  0  0
    4.5676   -1.3502   -3.4775 N   0  0  0  0  0  0  0  0  0  0  0  0
    4.8905   -0.8131   -4.6830 C   0  0  0  0  0  0  0  0  0  0  0  0
    4.6077    0.5570   -4.5922 C   0  0  0  0  0  0  0  0  0  0  0  0
    4.7097    1.6632   -5.4767 C   0  0  0  0  0  0  0  0  0  0  0  0
    4.3176    2.9047   -5.0019 C   0  0  0  0  0  0  0  0  0  0  0  0
    4.3712    4.0981   -5.7550 N   0  0  0  0  0  0  0  0  0  0  0  0
    4.7978    4.2649   -7.0583 C   0  0  0  0  0  0  0  0  0  0  0  0
    5.1493    3.3379   -7.7723 O   0  0  0  0  0  0  0  0  0  0  0  0
    4.7735    5.5795   -7.5291 N   0  0  0  0  0  0  0  0  0  0  0  0
    5.2459    5.8006   -8.8942 C   0  0  0  0  0  0  0  0  0  0  0  0
    4.4691    6.9371   -9.5556 C   0  0  0  0  0  0  0  0  0  0  0  0
    4.5053    8.1328   -8.7235 N   0  0  0  0  0  0  0  0  0  0  0  0
    4.7976    9.3752   -9.2239 C   0  0  0  0  0  0  0  0  0  0  0  0
    5.1307    9.4600  -10.5287 N   0  0  0  0  0  0  0  0  0  0  0  0
    5.4271   10.6666  -10.9968 C   0  0  0  0  0  0  0  0  0  0  0  0
    5.4021   11.8175  -10.2038 C   0  0  0  0  0  0  0  0  0  0  0  0
    5.0394   11.6172   -8.8693 C   0  0  0  0  0  0  0  0  0  0  0  0
    4.7380   10.4220   -8.3742 N   0  0  0  0  0  0  0  0  0  0  0  0
    4.0633    7.9296   -7.3553 C   0  0  0  0  0  0  0  0  0  0  0  0
    4.8396    6.7808   -6.7043 C   0  0  0  0  0  0  0  0  0  0  0  0
    3.8234    3.0502   -3.6579 C   0  0  0  0  0  0  0  0  0  0  0  0
    3.7133    1.9896   -2.7906 C   0  0  0  0  0  0  0  0  0  0  0  0
    4.1114    0.7079   -3.2523 C   0  0  0  0  0  0  0  0  0  0  0  0
    4.0964   -0.4673   -2.5934 N   0  0  0  0  0  0  0  0  0  0  0  0
    5.8100   -3.9758   -1.6763 H   0  0  0  0  0  0  0  0  0  0  0  0
    5.3273   -2.3707   -1.0501 H   0  0  0  0  0  0  0  0  0  0  0  0
    6.6733   -2.5078   -2.2121 H   0  0  0  0  0  0  0  0  0  0  0  0
    5.0958   -3.2688   -3.9813 H   0  0  0  0  0  0  0  0  0  0  0  0
    2.8709   -2.8217   -1.9072 H   0  0  0  0  0  0  0  0  0  0  0  0
    3.4065   -4.4171   -2.5148 H   0  0  0  0  0  0  0  0  0  0  0  0
    2.6326   -3.2500   -3.6220 H   0  0  0  0  0  0  0  0  0  0  0  0
    5.2852   -1.4224   -5.4927 H   0  0  0  0  0  0  0  0  0  0  0  0
    5.0747    1.5595   -6.4951 H   0  0  0  0  0  0  0  0  0  0  0  0
    3.9632    4.8982   -5.2935 H   0  0  0  0  0  0  0  0  0  0  0  0
    5.1239    4.8657   -9.4534 H   0  0  0  0  0  0  0  0  0  0  0  0
    6.3264    6.0488   -8.8895 H   0  0  0  0  0  0  0  0  0  0  0  0
    3.4176    6.6224   -9.7042 H   0  0  0  0  0  0  0  0  0  0  0  0
    4.8963    7.1822  -10.5343 H   0  0  0  0  0  0  0  0  0  0  0  0
    5.6977   10.7236  -12.0589 H   0  0  0  0  0  0  0  0  0  0  0  0
    5.6455   12.8037  -10.6000 H   0  0  0  0  0  0  0  0  0  0  0  0
    4.9887   12.4609   -8.1693 H   0  0  0  0  0  0  0  0  0  0  0  0
    2.9833    7.6812   -7.3447 H   0  0  0  0  0  0  0  0  0  0  0  0
    4.2092    8.8621   -6.7982 H   0  0  0  0  0  0  0  0  0  0  0  0
    4.4231    6.6094   -5.7028 H   0  0  0  0  0  0  0  0  0  0  0  0
    5.8954    7.0904   -6.5633 H   0  0  0  0  0  0  0  0  0  0  0  0
    3.5267    4.0485   -3.3196 H   0  0  0  0  0  0  0  0  0  0  0  0
    3.3341    2.1212   -1.7753 H   0  0  0  0  0  0  0  0  0  0  0  0
  1  2  1  0
  1 28  1  0
  1 29  1  0
  1 30  1  0
  2  3  1  0
  2  4  1  0
  2 31  1  6
  3 32  1  0
  3 33  1  0
  3 34  1  0
  4  5  1  0
  4 27  1  0
  5  6  2  0
  5 35  1  0
  6  7  1  0
  6 26  1  0
  7  8  2  0
  7 36  1  0
  8  9  1  0
  8 24  1  0
  9 10  1  0
  9 37  1  0
 10 11  2  0
 10 12  1  0
 12 13  1  0
 12 23  1  0
 13 14  1  0
 13 38  1  0
 13 39  1  0
 14 15  1  0
 14 40  1  0
 14 41  1  0
 15 16  1  0
 15 22  1  0
 16 17  2  0
 16 21  1  0
 17 18  1  0
 18 19  2  0
 18 42  1  0
 19 20  1  0
 19 43  1  0
 20 21  2  0
 20 44  1  0
 22 23  1  0
 22 45  1  0
 22 46  1  0
 23 47  1  0
 23 48  1  0
 24 25  2  0
 24 49  1  0
 25 26  1  0
 25 50  1  0
 26 27  2  0
M  END

