
     RDKit          3D

 74 77  0  0  0  0  0  0  0  0999 V2000
    0.1290   -1.2550    6.8306 C   0  0  0  0  0  0  0  0  0  0  0  0
    0.1127   -0.2905    5.6690 C   0  0  0  0  0  0  0  0  0  0  0  0
    0.7736    0.9419    5.7649 C   0  0  0  0  0  0  0  0  0  0  0  0
    0.7657    1.8606    4.7114 C   0  0  0  0  0  0  0  0  0  0  0  0
    0.0813    1.5517    3.5361 C   0  0  0  0  0  0  0  0  0  0  0  0
   -0.5830    0.3265    3.4242 C   0  0  0  0  0  0  0  0  0  0  0  0
   -0.5742   -0.6033    4.4711 C   0  0  0  0  0  0  0  0  0  0  0  0
   -1.3012   -1.9314    4.3586 C   0  0  0  0  0  0  0  0  0  0  0  0
   -1.7782   -2.2509    3.0280 N   0  0  0  0  0  0  0  0  0  0  0  0
   -3.0218   -2.7809    2.8223 C   0  0  0  0  0  0  0  0  0  0  0  0
   -3.9004   -2.7790    3.6652 O   0  0  0  0  0  0  0  0  0  0  0  0
   -3.2755   -3.2033    1.3597 C   0  0  1  0  0  0  0  0  0  0  0  0
   -2.3175   -4.1565    0.7794 N   0  0  0  0  0  0  0  0  0  0  0  0
   -1.6960   -5.1274    1.5275 C   0  0  0  0  0  0  0  0  0  0  0  0
   -1.7793   -5.1585    2.7473 O   0  0  0  0  0  0  0  0  0  0  0  0
   -0.8288   -6.1387    0.7431 C   0  0  1  0  0  0  0  0  0  0  0  0
   -1.5112   -6.7602    0.1271 H   0  0  0  0  0  0  0  0  0  0  0  0
    0.0421   -5.3980   -0.0670 O   0  0  0  0  0  0  0  0  0  0  0  0
   -0.1094   -7.0811    1.7392 C   0  0  1  0  0  0  0  0  0  0  0  0
   -1.0869   -8.1232    2.3392 C   0  0  0  0  0  0  0  0  0  0  0  0
   -0.4999   -8.8875    3.5054 C   0  0  0  0  0  0  0  0  0  0  0  0
   -0.4344   -8.2898    4.7769 C   0  0  0  0  0  0  0  0  0  0  0  0
    0.1344   -8.9672    5.8576 C   0  0  0  0  0  0  0  0  0  0  0  0
    0.6502  -10.2570    5.6881 C   0  0  0  0  0  0  0  0  0  0  0  0
    0.5899  -10.8635    4.4310 C   0  0  0  0  0  0  0  0  0  0  0  0
    0.0194  -10.1826    3.3496 C   0  0  0  0  0  0  0  0  0  0  0  0
    1.0716   -7.7641    1.1882 N   0  0  0  0  0  0  0  0  0  0  0  0
    1.3772   -8.1052   -0.0865 C   0  0  0  0  0  0  0  0  0  0  0  0
    0.7512   -7.7124   -1.0774 O   0  0  0  0  0  0  0  0  0  0  0  0
    2.5826   -9.0119   -0.2587 C   0  0  1  0  0  0  0  0  0  0  0  0
    2.3651  -10.2973   -1.1138 C   0  0  0  0  0  0  0  0  0  0  0  0
    3.7173  -10.0281   -1.8186 C   0  0  0  0  0  0  0  0  0  0  0  0
    3.6481   -8.5694   -1.3040 C   0  0  0  0  0  0  0  0  0  0  0  0
   -2.5952   -4.2534   -0.6405 C   0  0  0  0  0  0  0  0  0  0  0  0
   -4.4522   -4.2571   -0.7875 S   0  0  0  0  0  0  0  0  0  0  0  0
   -4.7003   -3.7081    1.0031 C   0  0  1  0  0  0  0  0  0  0  0  0
   -5.1596   -4.9065    1.8409 C   0  0  0  0  0  0  0  0  0  0  0  0
   -5.7286   -2.5746    1.0465 C   0  0  0  0  0  0  0  0  0  0  0  0
    0.6775   -0.8363    7.6867 H   0  0  0  0  0  0  0  0  0  0  0  0
    0.6078   -2.2129    6.5633 H   0  0  0  0  0  0  0  0  0  0  0  0
   -0.8905   -1.5004    7.1731 H   0  0  0  0  0  0  0  0  0  0  0  0
    1.3047    1.1861    6.6896 H   0  0  0  0  0  0  0  0  0  0  0  0
    1.2905    2.8140    4.8134 H   0  0  0  0  0  0  0  0  0  0  0  0
    0.0592    2.2616    2.7052 H   0  0  0  0  0  0  0  0  0  0  0  0
   -1.1286    0.0874    2.5091 H   0  0  0  0  0  0  0  0  0  0  0  0
   -2.1883   -1.9398    5.0122 H   0  0  0  0  0  0  0  0  0  0  0  0
   -0.6499   -2.7473    4.7220 H   0  0  0  0  0  0  0  0  0  0  0  0
   -1.0780   -2.4249    2.3147 H   0  0  0  0  0  0  0  0  0  0  0  0
   -3.1350   -2.2672    0.7879 H   0  0  0  0  0  0  0  0  0  0  0  0
    0.3825   -6.0545   -0.7146 H   0  0  0  0  0  0  0  0  0  0  0  0
    0.2602   -6.4472    2.5589 H   0  0  0  0  0  0  0  0  0  0  0  0
   -1.3862   -8.8190    1.5381 H   0  0  0  0  0  0  0  0  0  0  0  0
   -1.9860   -7.5879    2.6741 H   0  0  0  0  0  0  0  0  0  0  0  0
   -0.8426   -7.2840    4.9129 H   0  0  0  0  0  0  0  0  0  0  0  0
    0.1702   -8.4886    6.8399 H   0  0  0  0  0  0  0  0  0  0  0  0
    1.0916  -10.7887    6.5349 H   0  0  0  0  0  0  0  0  0  0  0  0
    0.9823  -11.8743    4.2906 H   0  0  0  0  0  0  0  0  0  0  0  0
   -0.0355  -10.6696    2.3714 H   0  0  0  0  0  0  0  0  0  0  0  0
    1.6645   -8.1725    1.9027 H   0  0  0  0  0  0  0  0  0  0  0  0
    3.0470   -9.2534    0.7104 H   0  0  0  0  0  0  0  0  0  0  0  0
    1.5137  -10.1582   -1.7961 H   0  0  0  0  0  0  0  0  0  0  0  0
    2.2425  -11.2452   -0.5678 H   0  0  0  0  0  0  0  0  0  0  0  0
    3.7580  -10.1790   -2.9079 H   0  0  0  0  0  0  0  0  0  0  0  0
    4.5438  -10.5918   -1.3581 H   0  0  0  0  0  0  0  0  0  0  0  0
    3.1920   -7.8961   -2.0443 H   0  0  0  0  0  0  0  0  0  0  0  0
    4.5693   -8.1103   -0.9141 H   0  0  0  0  0  0  0  0  0  0  0  0
   -2.1763   -5.1576   -1.0870 H   0  0  0  0  0  0  0  0  0  0  0  0
   -2.1867   -3.3810   -1.1737 H   0  0  0  0  0  0  0  0  0  0  0  0
   -4.4311   -5.7284    1.8111 H   0  0  0  0  0  0  0  0  0  0  0  0
   -6.1123   -5.2931    1.4475 H   0  0  0  0  0  0  0  0  0  0  0  0
   -5.2971   -4.6002    2.8876 H   0  0  0  0  0  0  0  0  0  0  0  0
   -5.4136   -1.7221    0.4253 H   0  0  0  0  0  0  0  0  0  0  0  0
   -5.8551   -2.2354    2.0857 H   0  0  0  0  0  0  0  0  0  0  0  0
   -6.7055   -2.9197    0.6743 H   0  0  0  0  0  0  0  0  0  0  0  0
  1  2  1  0
  1 39  1  0
  1 40  1  0
  1 41  1  0
  2  3  2  0
  2  7  1  0
  3  4  1  0
  3 42  1  0
  4  5  2  0
  4 43  1  0
  5  6  1  0
  5 44  1  0
  6  7  2  0
  6 45  1  0
  7  8  1  0
  8  9  1  0
  8 46  1  0
  8 47  1  0
  9 10  1  0
  9 48  1  0
 10 11  2  0
 10 12  1  0
 12 13  1  0
 12 36  1  0
 12 49  1  6
 13 14  1  0
 13 34  1  0
 14 15  2  0
 14 16  1  0
 16 17  1  6
 16 18  1  0
 16 19  1  0
 18 50  1  0
 19 20  1  0
 19 27  1  0
 19 51  1  1
 20 21  1  0
 20 52  1  0
 20 53  1  0
 21 22  2  0
 21 26  1  0
 22 23  1  0
 22 54  1  0
 23 24  2  0
 23 55  1  0
 24 25  1  0
 24 56  1  0
 25 26  2  0
 25 57  1  0
 26 58  1  0
 27 28  1  0
 27 59  1  0
 28 29  2  0
 28 30  1  0
 30 31  1  0
 30 33  1  0
 30 60  1  1
 31 32  1  0
 31 61  1  0
 31 62  1  0
 32 33  1  0
 32 63  1  0
 32 64  1  0
 33 65  1  0
 33 66  1  0
 34 35  1  0
 34 67  1  0
 34 68  1  0
 35 36  1  0
 36 37  1  1
 36 38  1  0
 37 69  1  0
 37 70  1  0
 37 71  1  0
 38 72  1  0
 38 73  1  0
 38 74  1  0
M  END

