
     RDKit          3D

 35 36  0  0  0  0  0  0  0  0999 V2000
    1.0430   -0.9300    0.3039 C   0  0  0  0  0  0  0  0  0  0  0  0
    2.4178   -0.2407    0.1437 C   0  0  1  0  0  0  0  0  0  0  0  0
    2.9494    0.0450    1.5525 C   0  0  0  0  0  0  0  0  0  0  0  0
    3.1245    1.1447    2.0217 O   0  0  0  0  0  0  0  0  0  0  0  0
    3.1967   -1.0967    2.2246 O   0  0  0  0  0  0  0  0  0  0  0  0
    3.6863   -0.9919    3.5818 C   0  0  0  0  0  0  0  0  0  0  0  0
    2.5635   -0.9710    4.5907 C   0  0  0  0  0  0  0  0  0  0  0  0
    2.0855   -2.1687    5.1443 C   0  0  0  0  0  0  0  0  0  0  0  0
    1.0350   -2.1596    6.0657 C   0  0  0  0  0  0  0  0  0  0  0  0
    0.4490   -0.9481    6.4448 C   0  0  0  0  0  0  0  0  0  0  0  0
    0.9179    0.2512    5.8990 C   0  0  0  0  0  0  0  0  0  0  0  0
    1.9681    0.2411    4.9775 C   0  0  0  0  0  0  0  0  0  0  0  0
    3.4246   -1.1526   -0.6110 C   0  0  0  0  0  0  0  0  0  0  0  0
    3.1201   -1.2259   -2.1087 C   0  0  0  0  0  0  0  0  0  0  0  0
    3.0685    0.0544   -2.7010 O   0  0  0  0  0  0  0  0  0  0  0  0
    2.0694    0.8735   -2.1257 C   0  0  0  0  0  0  0  0  0  0  0  0
    2.2995    1.0924   -0.6298 C   0  0  0  0  0  0  0  0  0  0  0  0
    1.1432   -1.8771    0.8528 H   0  0  0  0  0  0  0  0  0  0  0  0
    0.5834   -1.1458   -0.6714 H   0  0  0  0  0  0  0  0  0  0  0  0
    0.3475   -0.2834    0.8626 H   0  0  0  0  0  0  0  0  0  0  0  0
    4.3070   -0.0892    3.6623 H   0  0  0  0  0  0  0  0  0  0  0  0
    4.3140   -1.8831    3.7172 H   0  0  0  0  0  0  0  0  0  0  0  0
    2.5442   -3.1181    4.8527 H   0  0  0  0  0  0  0  0  0  0  0  0
    0.6751   -3.0999    6.4914 H   0  0  0  0  0  0  0  0  0  0  0  0
   -0.3710   -0.9384    7.1675 H   0  0  0  0  0  0  0  0  0  0  0  0
    0.4643    1.2009    6.1941 H   0  0  0  0  0  0  0  0  0  0  0  0
    2.3295    1.1747    4.5406 H   0  0  0  0  0  0  0  0  0  0  0  0
    3.4295   -2.1626   -0.1724 H   0  0  0  0  0  0  0  0  0  0  0  0
    4.4410   -0.7405   -0.4897 H   0  0  0  0  0  0  0  0  0  0  0  0
    2.1681   -1.7694   -2.2864 H   0  0  0  0  0  0  0  0  0  0  0  0
    3.9133   -1.7837   -2.6302 H   0  0  0  0  0  0  0  0  0  0  0  0
    1.0660    0.4351   -2.3110 H   0  0  0  0  0  0  0  0  0  0  0  0
    2.1059    1.8349   -2.6605 H   0  0  0  0  0  0  0  0  0  0  0  0
    1.4908    1.7102   -0.2069 H   0  0  0  0  0  0  0  0  0  0  0  0
    3.2309    1.6638   -0.4956 H   0  0  0  0  0  0  0  0  0  0  0  0
  1  2  1  0
  1 18  1  0
  1 19  1  0
  1 20  1  0
  2  3  1  1
  2 13  1  0
  2 17  1  0
  3  4  2  0
  3  5  1  0
  5  6  1  0
  6  7  1  0
  6 21  1  0
  6 22  1  0
  7  8  2  0
  7 12  1  0
  8  9  1  0
  8 23  1  0
  9 10  2  0
  9 24  1  0
 10 11  1  0
 10 25  1  0
 11 12  2  0
 11 26  1  0
 12 27  1  0
 13 14  1  0
 13 28  1  0
 13 29  1  0
 14 15  1  0
 14 30  1  0
 14 31  1  0
 15 16  1  0
 16 17  1  0
 16 32  1  0
 16 33  1  0
 17 34  1  0
 17 35  1  0
M  END

