
     RDKit          3D

 50 53  0  0  0  0  0  0  0  0999 V2000
    8.5604   -0.8274    0.2336 C   0  0  0  0  0  0  0  0  0  0  0  0
    9.0754    0.2805   -0.4726 O   0  0  0  0  0  0  0  0  0  0  0  0
    8.3832    0.7748   -1.5268 C   0  0  0  0  0  0  0  0  0  0  0  0
    8.9585    1.8830   -2.1788 C   0  0  0  0  0  0  0  0  0  0  0  0
    8.3099    2.4675   -3.2612 C   0  0  0  0  0  0  0  0  0  0  0  0
    7.0837    1.9676   -3.7213 C   0  0  0  0  0  0  0  0  0  0  0  0
    6.5318    0.8702   -3.0665 C   0  0  0  0  0  0  0  0  0  0  0  0
    5.2791    0.4222   -3.4622 O   0  0  0  0  0  0  0  0  0  0  0  0
    5.1183   -0.7944   -4.0568 C   0  0  0  0  0  0  0  0  0  0  0  0
    6.1478   -1.4595   -4.7325 C   0  0  0  0  0  0  0  0  0  0  0  0
    5.8505   -2.6787   -5.3419 C   0  0  0  0  0  0  0  0  0  0  0  0
    4.6437   -3.2497   -5.3183 N   0  0  0  0  0  0  0  0  0  0  0  0
    3.6757   -2.6040   -4.6649 C   0  0  0  0  0  0  0  0  0  0  0  0
    3.8372   -1.3756   -4.0089 C   0  0  0  0  0  0  0  0  0  0  0  0
    2.7027   -0.6885   -3.2606 C   0  0  1  0  0  0  0  0  0  0  0  0
    1.5524   -0.2434   -4.1734 C   0  0  0  0  0  0  0  0  0  0  0  0
    0.7561   -1.3402   -4.5528 O   0  0  0  0  0  0  0  0  0  0  0  0
    0.0772   -1.8776   -3.4442 C   0  0  0  0  0  0  0  0  0  0  0  0
    0.9253   -2.0904   -2.1909 C   0  0  0  0  0  0  0  0  0  0  0  0
    0.4677   -2.7383   -1.2589 O   0  0  0  0  0  0  0  0  0  0  0  0
    2.1617   -1.5070   -2.1608 N   0  0  0  0  0  0  0  0  0  0  0  0
    2.9728   -1.6631   -0.9459 C   0  0  0  0  0  0  0  0  0  0  0  0
    3.8625   -2.8964   -0.9206 C   0  0  0  0  0  0  0  0  0  0  0  0
    3.3007   -4.1771   -0.7753 C   0  0  0  0  0  0  0  0  0  0  0  0
    4.1454   -5.2856   -0.7615 C   0  0  0  0  0  0  0  0  0  0  0  0
    5.5222   -5.0859   -0.8882 C   0  0  0  0  0  0  0  0  0  0  0  0
    5.9864   -3.7761   -1.0166 C   0  0  0  0  0  0  0  0  0  0  0  0
    5.1849   -2.7059   -1.0294 N   0  0  0  0  0  0  0  0  0  0  0  0
    7.1575    0.2578   -1.9728 C   0  0  0  0  0  0  0  0  0  0  0  0
    9.2679   -1.0352    1.0474 H   0  0  0  0  0  0  0  0  0  0  0  0
    8.4822   -1.7203   -0.4114 H   0  0  0  0  0  0  0  0  0  0  0  0
    7.5652   -0.6183    0.6631 H   0  0  0  0  0  0  0  0  0  0  0  0
    9.9117    2.2643   -1.8085 H   0  0  0  0  0  0  0  0  0  0  0  0
    8.7619    3.3294   -3.7584 H   0  0  0  0  0  0  0  0  0  0  0  0
    6.5563    2.4178   -4.5635 H   0  0  0  0  0  0  0  0  0  0  0  0
    7.1511   -1.0349   -4.7832 H   0  0  0  0  0  0  0  0  0  0  0  0
    6.6384   -3.2174   -5.8823 H   0  0  0  0  0  0  0  0  0  0  0  0
    2.6924   -3.0850   -4.6533 H   0  0  0  0  0  0  0  0  0  0  0  0
    3.1226    0.2222   -2.8082 H   0  0  0  0  0  0  0  0  0  0  0  0
    1.9561    0.2113   -5.0888 H   0  0  0  0  0  0  0  0  0  0  0  0
    0.9388    0.5184   -3.6491 H   0  0  0  0  0  0  0  0  0  0  0  0
   -0.3331   -2.8556   -3.7334 H   0  0  0  0  0  0  0  0  0  0  0  0
   -0.7777   -1.2365   -3.1432 H   0  0  0  0  0  0  0  0  0  0  0  0
    2.2722   -1.7058   -0.0994 H   0  0  0  0  0  0  0  0  0  0  0  0
    3.6117   -0.7759   -0.8428 H   0  0  0  0  0  0  0  0  0  0  0  0
    2.2179   -4.2760   -0.6793 H   0  0  0  0  0  0  0  0  0  0  0  0
    3.7349   -6.2928   -0.6515 H   0  0  0  0  0  0  0  0  0  0  0  0
    6.2235   -5.9233   -0.8873 H   0  0  0  0  0  0  0  0  0  0  0  0
    7.0606   -3.5815   -1.1178 H   0  0  0  0  0  0  0  0  0  0  0  0
    6.6627   -0.5922   -1.4981 H   0  0  0  0  0  0  0  0  0  0  0  0
  1  2  1  0
  1 30  1  0
  1 31  1  0
  1 32  1  0
  2  3  1  0
  3  4  2  0
  3 29  1  0
  4  5  1  0
  4 33  1  0
  5  6  2  0
  5 34  1  0
  6  7  1  0
  6 35  1  0
  7  8  1  0
  7 29  2  0
  8  9  1  0
  9 10  2  0
  9 14  1  0
 10 11  1  0
 10 36  1  0
 11 12  2  0
 11 37  1  0
 12 13  1  0
 13 14  2  0
 13 38  1  0
 14 15  1  0
 15 16  1  0
 15 21  1  0
 15 39  1  1
 16 17  1  0
 16 40  1  0
 16 41  1  0
 17 18  1  0
 18 19  1  0
 18 42  1  0
 18 43  1  0
 19 20  2  0
 19 21  1  0
 21 22  1  0
 22 23  1  0
 22 44  1  0
 22 45  1  0
 23 24  2  0
 23 28  1  0
 24 25  1  0
 24 46  1  0
 25 26  2  0
 25 47  1  0
 26 27  1  0
 26 48  1  0
 27 28  2  0
 27 49  1  0
 29 50  1  0
M  END

