
     RDKit          3D

 32 34  0  0  0  0  0  0  0  0999 V2000
    1.0738   -0.7683    0.3160 O   0  0  0  0  0  0  0  0  0  0  0  0
    2.2699   -0.5320    0.2479 C   0  0  0  0  0  0  0  0  0  0  0  0
    2.9435   -0.5529   -0.9497 N   0  0  0  0  0  0  0  0  0  0  0  0
    2.2669   -0.9529   -2.1790 C   0  0  1  0  0  0  0  0  0  0  0  0
    1.4375    0.1769   -2.7803 C   0  0  0  0  0  0  0  0  0  0  0  0
    0.2117   -0.0875   -3.4083 C   0  0  0  0  0  0  0  0  0  0  0  0
   -0.5317    0.8427   -4.0074 N   0  0  0  0  0  0  0  0  0  0  0  0
   -0.1005    2.1029   -4.0115 C   0  0  0  0  0  0  0  0  0  0  0  0
    1.1034    2.4734   -3.4003 C   0  0  0  0  0  0  0  0  0  0  0  0
    1.6602    4.2954   -3.4234 Br  0  0  0  0  0  0  0  0  0  0  0  0
    1.8848    1.5025   -2.7756 C   0  0  0  0  0  0  0  0  0  0  0  0
    3.2892   -1.4765   -3.1779 C   0  0  1  0  0  0  0  0  0  0  0  0
    3.8602   -2.8653   -3.0151 C   0  0  0  0  0  0  0  0  0  0  0  0
    2.9144   -2.5634   -4.1492 C   0  0  0  0  0  0  0  0  0  0  0  0
    3.0884   -0.2015    1.4552 C   0  0  0  0  0  0  0  0  0  0  0  0
    4.4357    0.2946    1.5022 C   0  0  0  0  0  0  0  0  0  0  0  0
    4.8822    0.4942    2.7820 C   0  0  0  0  0  0  0  0  0  0  0  0
    3.6681    0.0844    3.9478 S   0  0  0  0  0  0  0  0  0  0  0  0
    2.5531   -0.3545    2.7158 C   0  0  0  0  0  0  0  0  0  0  0  0
    3.9554   -0.5786   -0.9429 H   0  0  0  0  0  0  0  0  0  0  0  0
    1.5666   -1.7663   -1.9250 H   0  0  0  0  0  0  0  0  0  0  0  0
   -0.1886   -1.1086   -3.4119 H   0  0  0  0  0  0  0  0  0  0  0  0
   -0.7250    2.8535   -4.5076 H   0  0  0  0  0  0  0  0  0  0  0  0
    2.8179    1.7726   -2.2777 H   0  0  0  0  0  0  0  0  0  0  0  0
    3.9697   -0.7054   -3.5597 H   0  0  0  0  0  0  0  0  0  0  0  0
    3.4859   -3.4737   -2.1863 H   0  0  0  0  0  0  0  0  0  0  0  0
    4.9180   -3.0224   -3.2442 H   0  0  0  0  0  0  0  0  0  0  0  0
    1.9019   -2.9733   -4.0924 H   0  0  0  0  0  0  0  0  0  0  0  0
    3.3144   -2.5053   -5.1648 H   0  0  0  0  0  0  0  0  0  0  0  0
    5.0473    0.5221    0.6273 H   0  0  0  0  0  0  0  0  0  0  0  0
    5.8520    0.8694    3.1055 H   0  0  0  0  0  0  0  0  0  0  0  0
    1.5488   -0.7065    2.9459 H   0  0  0  0  0  0  0  0  0  0  0  0
  1  2  2  0
  2  3  1  0
  2 15  1  0
  3  4  1  0
  3 20  1  0
  4  5  1  0
  4 12  1  0
  4 21  1  1
  5  6  2  0
  5 11  1  0
  6  7  1  0
  6 22  1  0
  7  8  2  0
  8  9  1  0
  8 23  1  0
  9 10  1  0
  9 11  2  0
 11 24  1  0
 12 13  1  0
 12 14  1  0
 12 25  1  6
 13 14  1  0
 13 26  1  0
 13 27  1  0
 14 28  1  0
 14 29  1  0
 15 16  1  0
 15 19  2  0
 16 17  2  0
 16 30  1  0
 17 18  1  0
 17 31  1  0
 18 19  1  0
 19 32  1  0
M  END

