
     RDKit          3D

 44 46  0  0  0  0  0  0  0  0999 V2000
   -1.4413    0.3230    0.4154 C   0  0  0  0  0  0  0  0  0  0  0  0
   -0.4452   -0.0790    1.4790 C   0  0  0  0  0  0  0  0  0  0  0  0
   -0.6691    0.3476    2.8042 C   0  0  0  0  0  0  0  0  0  0  0  0
    0.2055    0.0626    3.8500 C   0  0  0  0  0  0  0  0  0  0  0  0
    1.3583   -0.6708    3.5783 C   0  0  0  0  0  0  0  0  0  0  0  0
    2.2169   -0.9433    4.5684 F   0  0  0  0  0  0  0  0  0  0  0  0
    1.6334   -1.1184    2.2947 C   0  0  0  0  0  0  0  0  0  0  0  0
    0.7272   -0.8354    1.2631 C   0  0  0  0  0  0  0  0  0  0  0  0
    1.2394   -1.4639   -0.3570 S   0  0  1  0  0  0  0  0  0  0  0  0
    0.2804   -1.0022   -1.3621 O   0  0  0  0  0  0  0  0  0  0  0  0
    2.6728   -1.1897   -0.4919 O   0  0  0  0  0  0  0  0  0  0  0  0
    1.1789   -3.1491   -0.1927 N   0  0  0  0  0  0  0  0  0  0  0  0
    0.0451   -4.0060   -0.6306 C   0  0  1  0  0  0  0  0  0  0  0  0
   -0.2371   -3.8281   -2.1431 C   0  0  0  0  0  0  0  0  0  0  0  0
    0.7413   -4.2391   -3.0681 C   0  0  0  0  0  0  0  0  0  0  0  0
    0.5963   -4.1061   -4.4477 C   0  0  0  0  0  0  0  0  0  0  0  0
   -0.5757   -3.5364   -4.9378 C   0  0  0  0  0  0  0  0  0  0  0  0
   -0.7452   -3.4005   -6.2576 F   0  0  0  0  0  0  0  0  0  0  0  0
   -1.5743   -3.1002   -4.0774 C   0  0  0  0  0  0  0  0  0  0  0  0
   -1.3836   -3.2450   -2.7038 C   0  0  0  0  0  0  0  0  0  0  0  0
   -2.3777   -2.7791   -1.9269 F   0  0  0  0  0  0  0  0  0  0  0  0
    0.4963   -5.4725   -0.3659 C   0  0  0  0  0  0  0  0  0  0  0  0
    0.6376   -5.8055    1.1202 C   0  0  0  0  0  0  0  0  0  0  0  0
   -0.5512   -5.5444    1.8284 O   0  0  0  0  0  0  0  0  0  0  0  0
   -0.9233   -4.1841    1.7352 C   0  0  0  0  0  0  0  0  0  0  0  0
   -1.1748   -3.7528    0.2897 C   0  0  0  0  0  0  0  0  0  0  0  0
   -2.2665    0.8855    0.8749 H   0  0  0  0  0  0  0  0  0  0  0  0
   -1.8605   -0.5380   -0.1237 H   0  0  0  0  0  0  0  0  0  0  0  0
   -0.9716    0.9519   -0.3543 H   0  0  0  0  0  0  0  0  0  0  0  0
   -1.5670    0.9339    3.0144 H   0  0  0  0  0  0  0  0  0  0  0  0
    0.0111    0.4054    4.8681 H   0  0  0  0  0  0  0  0  0  0  0  0
    2.5502   -1.6753    2.0991 H   0  0  0  0  0  0  0  0  0  0  0  0
    2.0997   -3.4855   -0.4727 H   0  0  0  0  0  0  0  0  0  0  0  0
    1.6712   -4.6766   -2.6994 H   0  0  0  0  0  0  0  0  0  0  0  0
    1.3738   -4.4319   -5.1402 H   0  0  0  0  0  0  0  0  0  0  0  0
   -2.4864   -2.6382   -4.4560 H   0  0  0  0  0  0  0  0  0  0  0  0
    1.4497   -5.6861   -0.8761 H   0  0  0  0  0  0  0  0  0  0  0  0
   -0.2601   -6.1362   -0.8136 H   0  0  0  0  0  0  0  0  0  0  0  0
    1.4829   -5.2380    1.5597 H   0  0  0  0  0  0  0  0  0  0  0  0
    0.8556   -6.8778    1.2429 H   0  0  0  0  0  0  0  0  0  0  0  0
   -0.1494   -3.5438    2.2004 H   0  0  0  0  0  0  0  0  0  0  0  0
   -1.8484   -4.0699    2.3203 H   0  0  0  0  0  0  0  0  0  0  0  0
   -1.4674   -2.6956    0.2678 H   0  0  0  0  0  0  0  0  0  0  0  0
   -2.0287   -4.3210   -0.1058 H   0  0  0  0  0  0  0  0  0  0  0  0
  1  2  1  0
  1 27  1  0
  1 28  1  0
  1 29  1  0
  2  3  2  0
  2  8  1  0
  3  4  1  0
  3 30  1  0
  4  5  2  0
  4 31  1  0
  5  6  1  0
  5  7  1  0
  7  8  2  0
  7 32  1  0
  8  9  1  0
  9 10  2  0
  9 11  2  0
  9 12  1  1
 13 12  1  1
 12 33  1  0
 13 14  1  0
 13 22  1  0
 13 26  1  0
 14 15  2  0
 14 20  1  0
 15 16  1  0
 15 34  1  0
 16 17  2  0
 16 35  1  0
 17 18  1  0
 17 19  1  0
 19 20  2  0
 19 36  1  0
 20 21  1  0
 22 23  1  0
 22 37  1  0
 22 38  1  0
 23 24  1  0
 23 39  1  0
 23 40  1  0
 24 25  1  0
 25 26  1  0
 25 41  1  0
 25 42  1  0
 26 43  1  0
 26 44  1  0
M  END

