
     RDKit          3D

 36 37  0  0  0  0  0  0  0  0999 V2000
    4.1181    4.4876    6.4482 C   0  0  0  0  0  0  0  0  0  0  0  0
    3.9207    3.1741    5.6914 C   0  0  0  0  0  0  0  0  0  0  0  0
    4.6323    3.1442    4.3394 C   0  0  0  0  0  0  0  0  0  0  0  0
    4.4374    1.8746    3.6561 N   0  0  0  0  0  0  0  0  0  0  0  0
    5.0800    1.7579    2.3468 C   0  0  0  0  0  0  0  0  0  0  0  0
    6.5826    1.6748    2.3963 C   0  0  0  0  0  0  0  0  0  0  0  0
    7.4590    2.6720    1.9957 C   0  0  0  0  0  0  0  0  0  0  0  0
    8.7208    2.1841    2.1233 N   0  0  0  0  0  0  0  0  0  0  0  0
    9.9720    2.8529    1.8378 C   0  0  0  0  0  0  0  0  0  0  0  0
    8.7290    0.9289    2.5811 N   0  0  0  0  0  0  0  0  0  0  0  0
    7.4472    0.5889    2.7610 C   0  0  0  0  0  0  0  0  0  0  0  0
    7.1168   -0.7733    3.2255 C   0  0  0  0  0  0  0  0  0  0  0  0
    8.0299   -1.8238    3.0082 C   0  0  0  0  0  0  0  0  0  0  0  0
    7.7520   -3.1211    3.4336 C   0  0  0  0  0  0  0  0  0  0  0  0
    6.5435   -3.3849    4.0869 C   0  0  0  0  0  0  0  0  0  0  0  0
    6.1833   -5.0155    4.6178 Cl  0  0  0  0  0  0  0  0  0  0  0  0
    5.6251   -2.3602    4.3227 C   0  0  0  0  0  0  0  0  0  0  0  0
    5.9139   -1.0616    3.8959 C   0  0  0  0  0  0  0  0  0  0  0  0
    3.5927    4.4756    7.4160 H   0  0  0  0  0  0  0  0  0  0  0  0
    3.7355    5.3480    5.8737 H   0  0  0  0  0  0  0  0  0  0  0  0
    5.1854    4.6756    6.6530 H   0  0  0  0  0  0  0  0  0  0  0  0
    2.8397    2.9983    5.5350 H   0  0  0  0  0  0  0  0  0  0  0  0
    4.2830    2.3258    6.2962 H   0  0  0  0  0  0  0  0  0  0  0  0
    5.7154    3.2893    4.4936 H   0  0  0  0  0  0  0  0  0  0  0  0
    4.2932    4.0120    3.7247 H   0  0  0  0  0  0  0  0  0  0  0  0
    3.4398    1.6893    3.5543 H   0  0  0  0  0  0  0  0  0  0  0  0
    4.8108    2.6027    1.6746 H   0  0  0  0  0  0  0  0  0  0  0  0
    4.6859    0.8443    1.8712 H   0  0  0  0  0  0  0  0  0  0  0  0
    7.2662    3.6768    1.6231 H   0  0  0  0  0  0  0  0  0  0  0  0
    9.7642    3.8665    1.4702 H   0  0  0  0  0  0  0  0  0  0  0  0
   10.5349    2.2982    1.0716 H   0  0  0  0  0  0  0  0  0  0  0  0
   10.5882    2.9169    2.7477 H   0  0  0  0  0  0  0  0  0  0  0  0
    8.9689   -1.6068    2.4962 H   0  0  0  0  0  0  0  0  0  0  0  0
    8.4625   -3.9310    3.2586 H   0  0  0  0  0  0  0  0  0  0  0  0
    4.6934   -2.5781    4.8478 H   0  0  0  0  0  0  0  0  0  0  0  0
    5.2158   -0.2494    4.1145 H   0  0  0  0  0  0  0  0  0  0  0  0
  1  2  1  0
  1 19  1  0
  1 20  1  0
  1 21  1  0
  2  3  1  0
  2 22  1  0
  2 23  1  0
  3  4  1  0
  3 24  1  0
  3 25  1  0
  4  5  1  0
  4 26  1  0
  5  6  1  0
  5 27  1  0
  5 28  1  0
  6  7  2  0
  6 11  1  0
  7  8  1  0
  7 29  1  0
  8  9  1  0
  8 10  1  0
  9 30  1  0
  9 31  1  0
  9 32  1  0
 10 11  2  0
 11 12  1  0
 12 13  2  0
 12 18  1  0
 13 14  1  0
 13 33  1  0
 14 15  2  0
 14 34  1  0
 15 16  1  0
 15 17  1  0
 17 18  2  0
 17 35  1  0
 18 36  1  0
M  END

