
     RDKit          3D

 51 52  0  0  0  0  0  0  0  0999 V2000
    1.1045    0.3065    1.2164 C   0  0  0  0  0  0  0  0  0  0  0  0
    2.5326    0.1610    0.7496 C   0  0  0  0  0  0  0  0  0  0  0  0
    3.3211    1.2934    0.4889 C   0  0  0  0  0  0  0  0  0  0  0  0
    4.6405    1.1919    0.0577 C   0  0  0  0  0  0  0  0  0  0  0  0
    5.2174   -0.0739   -0.1280 C   0  0  0  0  0  0  0  0  0  0  0  0
    6.5073   -0.0966   -0.5478 O   0  0  0  0  0  0  0  0  0  0  0  0
    7.1558   -1.3442   -0.7644 C   0  0  0  0  0  0  0  0  0  0  0  0
    8.5599   -1.0357   -1.2709 C   0  0  0  0  0  0  0  0  0  0  0  0
    9.5336   -2.2327   -1.3613 C   0  0  1  0  0  0  0  0  0  0  0  0
    9.1275   -3.3038   -2.3979 C   0  0  0  0  0  0  0  0  0  0  0  0
    7.9138   -4.0215   -2.0106 N   0  0  0  0  0  0  0  0  0  0  0  0
   10.9567   -1.7546   -1.6164 C   0  0  0  0  0  0  0  0  0  0  0  0
   11.9791   -1.9671   -0.6814 C   0  0  0  0  0  0  0  0  0  0  0  0
   13.2890   -1.5392   -0.8976 C   0  0  0  0  0  0  0  0  0  0  0  0
   13.6486   -0.8665   -2.0902 C   0  0  0  0  0  0  0  0  0  0  0  0
   14.9474   -0.4426   -2.3223 N   0  0  0  0  0  0  0  0  0  0  0  0
   15.2612    0.2989   -3.5240 C   0  0  0  0  0  0  0  0  0  0  0  0
   15.9589   -0.6281   -1.3051 C   0  0  0  0  0  0  0  0  0  0  0  0
   12.6164   -0.6461   -3.0357 C   0  0  0  0  0  0  0  0  0  0  0  0
   11.3146   -1.0822   -2.7959 C   0  0  0  0  0  0  0  0  0  0  0  0
    4.4447   -1.2173    0.1280 C   0  0  0  0  0  0  0  0  0  0  0  0
    3.1134   -1.1115    0.5629 C   0  0  0  0  0  0  0  0  0  0  0  0
    2.3125   -2.3638    0.8278 C   0  0  0  0  0  0  0  0  0  0  0  0
    0.8211    1.3657    1.3057 H   0  0  0  0  0  0  0  0  0  0  0  0
    0.9413   -0.1649    2.2014 H   0  0  0  0  0  0  0  0  0  0  0  0
    0.3916   -0.1705    0.5213 H   0  0  0  0  0  0  0  0  0  0  0  0
    2.8850    2.2872    0.6290 H   0  0  0  0  0  0  0  0  0  0  0  0
    5.2461    2.0780   -0.1424 H   0  0  0  0  0  0  0  0  0  0  0  0
    6.5943   -1.9622   -1.4807 H   0  0  0  0  0  0  0  0  0  0  0  0
    7.2039   -1.9145    0.1840 H   0  0  0  0  0  0  0  0  0  0  0  0
    8.9956   -0.2855   -0.5907 H   0  0  0  0  0  0  0  0  0  0  0  0
    8.4807   -0.5429   -2.2554 H   0  0  0  0  0  0  0  0  0  0  0  0
    9.5390   -2.7329   -0.3742 H   0  0  0  0  0  0  0  0  0  0  0  0
   10.0014   -3.9683   -2.5593 H   0  0  0  0  0  0  0  0  0  0  0  0
    8.9364   -2.8105   -3.3671 H   0  0  0  0  0  0  0  0  0  0  0  0
    8.1031   -4.6273   -1.2106 H   0  0  0  0  0  0  0  0  0  0  0  0
    7.6061   -4.6361   -2.7641 H   0  0  0  0  0  0  0  0  0  0  0  0
   11.7479   -2.4833    0.2559 H   0  0  0  0  0  0  0  0  0  0  0  0
   14.0335   -1.7333   -0.1262 H   0  0  0  0  0  0  0  0  0  0  0  0
   14.7038    1.2534   -3.5942 H   0  0  0  0  0  0  0  0  0  0  0  0
   15.0376   -0.2801   -4.4390 H   0  0  0  0  0  0  0  0  0  0  0  0
   16.3330    0.5361   -3.5377 H   0  0  0  0  0  0  0  0  0  0  0  0
   15.7192   -0.0968   -0.3632 H   0  0  0  0  0  0  0  0  0  0  0  0
   16.9199   -0.2434   -1.6706 H   0  0  0  0  0  0  0  0  0  0  0  0
   16.1026   -1.6950   -1.0528 H   0  0  0  0  0  0  0  0  0  0  0  0
   12.8262   -0.1270   -3.9703 H   0  0  0  0  0  0  0  0  0  0  0  0
   10.5573   -0.8812   -3.5593 H   0  0  0  0  0  0  0  0  0  0  0  0
    4.8712   -2.2114   -0.0104 H   0  0  0  0  0  0  0  0  0  0  0  0
    2.9050   -3.2701    0.6351 H   0  0  0  0  0  0  0  0  0  0  0  0
    1.4104   -2.4113    0.1938 H   0  0  0  0  0  0  0  0  0  0  0  0
    1.9605   -2.4082    1.8729 H   0  0  0  0  0  0  0  0  0  0  0  0
  1  2  1  0
  1 24  1  0
  1 25  1  0
  1 26  1  0
  2  3  2  0
  2 22  1  0
  3  4  1  0
  3 27  1  0
  4  5  2  0
  4 28  1  0
  5  6  1  0
  5 21  1  0
  6  7  1  0
  7  8  1  0
  7 29  1  0
  7 30  1  0
  8  9  1  0
  8 31  1  0
  8 32  1  0
  9 10  1  0
  9 12  1  0
  9 33  1  1
 10 11  1  0
 10 34  1  0
 10 35  1  0
 11 36  1  0
 11 37  1  0
 12 13  2  0
 12 20  1  0
 13 14  1  0
 13 38  1  0
 14 15  2  0
 14 39  1  0
 15 16  1  0
 15 19  1  0
 16 17  1  0
 16 18  1  0
 17 40  1  0
 17 41  1  0
 17 42  1  0
 18 43  1  0
 18 44  1  0
 18 45  1  0
 19 20  2  0
 19 46  1  0
 20 47  1  0
 21 22  2  0
 21 48  1  0
 22 23  1  0
 23 49  1  0
 23 50  1  0
 23 51  1  0
M  END

