
     RDKit          3D

 22 22  0  0  0  0  0  0  0  0999 V2000
    2.9095   -1.0828    1.9969 O   0  0  0  0  0  0  0  0  0  0  0  0
    2.3395   -0.9629    0.9421 C   0  0  0  0  0  0  0  0  0  0  0  0
    0.9941   -0.8720    0.9168 O   0  0  0  0  0  0  0  0  0  0  0  0
    3.0173   -0.9192   -0.4228 C   0  0  0  0  0  0  0  0  0  0  0  0
    4.5484   -0.9200   -0.4101 C   0  0  1  0  0  0  0  0  0  0  0  0
    4.8740   -0.9784   -1.4579 H   0  0  0  0  0  0  0  0  0  0  0  0
    5.1911    0.3106    0.2803 C   0  0  0  0  0  0  0  0  0  0  0  0
    6.3495   -0.2803    0.9566 N   0  0  0  0  0  0  0  0  0  0  0  0
    5.9105   -1.5381    1.5012 N   0  0  0  0  0  0  0  0  0  0  0  0
    5.2012   -2.1122    0.3550 C   0  0  2  0  0  0  0  0  0  0  0  0
    4.4548   -2.8340    0.7203 H   0  0  0  0  0  0  0  0  0  0  0  0
    6.1868   -2.9051   -0.5246 C   0  0  0  0  0  0  0  0  0  0  0  0
    5.9509   -3.1985   -1.6688 O   0  0  0  0  0  0  0  0  0  0  0  0
    7.2862   -3.2734    0.1278 O   0  0  0  0  0  0  0  0  0  0  0  0
    0.6707   -0.7863    0.0081 H   0  0  0  0  0  0  0  0  0  0  0  0
    2.6438   -0.0307   -0.9644 H   0  0  0  0  0  0  0  0  0  0  0  0
    2.6557   -1.7905   -0.9994 H   0  0  0  0  0  0  0  0  0  0  0  0
    4.4710    0.7873    0.9755 H   0  0  0  0  0  0  0  0  0  0  0  0
    5.5265    1.0696   -0.4435 H   0  0  0  0  0  0  0  0  0  0  0  0
    6.7487    0.2945    1.6961 H   0  0  0  0  0  0  0  0  0  0  0  0
    5.2064   -1.3848    2.2344 H   0  0  0  0  0  0  0  0  0  0  0  0
    7.2252   -2.8155    1.0009 H   0  0  0  0  0  0  0  0  0  0  0  0
  1  2  2  0
  2  3  1  0
  2  4  1  0
  3 15  1  0
  4  5  1  0
  4 16  1  0
  4 17  1  0
  5  6  1  6
  5  7  1  0
  5 10  1  0
  7  8  1  0
  7 18  1  0
  7 19  1  0
  8  9  1  0
  8 20  1  0
  9 10  1  0
  9 21  1  0
 10 11  1  1
 10 12  1  0
 12 13  2  0
 12 14  1  0
 14 22  1  0
M  END

