
     RDKit          3D

 42 44  0  0  0  0  0  0  0  0999 V2000
    5.4572    0.1198   -1.5107 C   0  0  0  0  0  0  0  0  0  0  0  0
    4.2486   -0.7101   -1.9667 C   0  0  1  0  0  0  0  0  0  0  0  0
    2.9706    0.1580   -1.9533 C   0  0  0  0  0  0  0  0  0  0  0  0
    4.4858   -1.2534   -3.3930 C   0  0  0  0  0  0  0  0  0  0  0  0
    4.0260   -1.8940   -1.0358 C   0  0  0  0  0  0  0  0  0  0  0  0
    4.8057   -2.1229   -0.0052 N   0  0  0  0  0  0  0  0  0  0  0  0
    4.2455   -3.4937    0.7911 S   0  0  0  0  0  0  0  0  0  0  0  0
    2.9423   -3.6851   -0.3929 C   0  0  0  0  0  0  0  0  0  0  0  0
    2.0560   -4.7336   -0.3095 N   0  0  0  0  0  0  0  0  0  0  0  0
    0.8129   -4.8397   -0.9834 C   0  0  0  0  0  0  0  0  0  0  0  0
    0.3328   -3.9505   -1.6494 O   0  0  0  0  0  0  0  0  0  0  0  0
    0.1995   -6.0531   -0.7822 N   0  0  0  0  0  0  0  0  0  0  0  0
    0.8065   -7.2596   -0.2237 C   0  0  0  0  0  0  0  0  0  0  0  0
   -0.2845   -8.3591   -0.3261 C   0  0  1  0  0  0  0  0  0  0  0  0
   -0.6528   -8.9940    1.0247 C   0  0  0  0  0  0  0  0  0  0  0  0
   -1.5629   -7.9445    1.6804 C   0  0  0  0  0  0  0  0  0  0  0  0
   -2.4197   -7.4114    0.5134 C   0  0  0  0  0  0  0  0  0  0  0  0
   -1.5747   -7.6075   -0.7831 C   0  0  1  0  0  0  0  0  0  0  0  0
   -1.0699   -6.3276   -1.4546 C   0  0  0  0  0  0  0  0  0  0  0  0
    2.9774   -2.7481   -1.2895 N   0  0  0  0  0  0  0  0  0  0  0  0
    5.6040    0.9727   -2.1925 H   0  0  0  0  0  0  0  0  0  0  0  0
    6.3779   -0.4824   -1.5044 H   0  0  0  0  0  0  0  0  0  0  0  0
    5.3138    0.5099   -0.4922 H   0  0  0  0  0  0  0  0  0  0  0  0
    3.0777    0.9998   -2.6566 H   0  0  0  0  0  0  0  0  0  0  0  0
    2.7864    0.5746   -0.9499 H   0  0  0  0  0  0  0  0  0  0  0  0
    2.0911   -0.4345   -2.2448 H   0  0  0  0  0  0  0  0  0  0  0  0
    4.6086   -0.4176   -4.1009 H   0  0  0  0  0  0  0  0  0  0  0  0
    3.6369   -1.8696   -3.7239 H   0  0  0  0  0  0  0  0  0  0  0  0
    5.3974   -1.8711   -3.4352 H   0  0  0  0  0  0  0  0  0  0  0  0
    2.2723   -5.4399    0.3829 H   0  0  0  0  0  0  0  0  0  0  0  0
    1.1009   -7.1033    0.8320 H   0  0  0  0  0  0  0  0  0  0  0  0
    1.7188   -7.5493   -0.7768 H   0  0  0  0  0  0  0  0  0  0  0  0
    0.0292   -9.1146   -1.0617 H   0  0  0  0  0  0  0  0  0  0  0  0
    0.2263   -9.2609    1.6341 H   0  0  0  0  0  0  0  0  0  0  0  0
   -1.2165   -9.9261    0.8479 H   0  0  0  0  0  0  0  0  0  0  0  0
   -0.9528   -7.1309    2.1089 H   0  0  0  0  0  0  0  0  0  0  0  0
   -2.1655   -8.3535    2.5061 H   0  0  0  0  0  0  0  0  0  0  0  0
   -2.7148   -6.3609    0.6595 H   0  0  0  0  0  0  0  0  0  0  0  0
   -3.3526   -7.9922    0.4350 H   0  0  0  0  0  0  0  0  0  0  0  0
   -2.1413   -8.2082   -1.5094 H   0  0  0  0  0  0  0  0  0  0  0  0
   -1.7489   -5.4700   -1.3462 H   0  0  0  0  0  0  0  0  0  0  0  0
   -0.9127   -6.4752   -2.5400 H   0  0  0  0  0  0  0  0  0  0  0  0
  2  1  1  1
  1 21  1  0
  1 22  1  0
  1 23  1  0
  2  3  1  0
  2  4  1  0
  2  5  1  0
  3 24  1  0
  3 25  1  0
  3 26  1  0
  4 27  1  0
  4 28  1  0
  4 29  1  0
  5  6  2  0
  5 20  1  0
  6  7  1  0
  7  8  1  0
  8  9  1  0
  8 20  2  0
  9 10  1  0
  9 30  1  0
 10 11  2  0
 10 12  1  0
 12 13  1  0
 12 19  1  0
 13 14  1  0
 13 31  1  0
 13 32  1  0
 14 15  1  0
 14 18  1  0
 14 33  1  6
 15 16  1  0
 15 34  1  0
 15 35  1  0
 16 17  1  0
 16 36  1  0
 16 37  1  0
 17 18  1  0
 17 38  1  0
 17 39  1  0
 18 19  1  0
 18 40  1  6
 19 41  1  0
 19 42  1  0
M  END

