
     RDKit          3D

 36 37  0  0  0  0  0  0  0  0999 V2000
    3.2472    0.0344    2.3503 C   0  0  0  0  0  0  0  0  0  0  0  0
    2.9285   -0.3328    0.9102 C   0  0  0  0  0  0  0  0  0  0  0  0
    3.3753   -1.6617    0.5890 O   0  0  0  0  0  0  0  0  0  0  0  0
    4.6426   -1.8041    0.1908 C   0  0  0  0  0  0  0  0  0  0  0  0
    5.4316   -0.8905    0.0802 O   0  0  0  0  0  0  0  0  0  0  0  0
    5.0047   -3.2327   -0.1196 C   0  0  0  0  0  0  0  0  0  0  0  0
    6.3242   -3.4878   -0.5666 C   0  0  0  0  0  0  0  0  0  0  0  0
    6.7173   -4.7811   -0.8667 C   0  0  0  0  0  0  0  0  0  0  0  0
    8.1199   -5.0333   -1.3379 C   0  0  0  0  0  0  0  0  0  0  0  0
    8.5859   -6.1196   -1.6097 O   0  0  0  0  0  0  0  0  0  0  0  0
    8.8287   -3.8952   -1.4342 O   0  0  0  0  0  0  0  0  0  0  0  0
   10.1974   -3.9898   -1.8704 C   0  0  0  0  0  0  0  0  0  0  0  0
   11.1389   -4.2763   -0.7125 C   0  0  0  0  0  0  0  0  0  0  0  0
    5.7582   -5.8422   -0.7122 C   0  0  0  0  0  0  0  0  0  0  0  0
    6.0056   -7.2132   -0.9773 C   0  0  0  0  0  0  0  0  0  0  0  0
    5.0085   -8.1587   -0.7962 C   0  0  0  0  0  0  0  0  0  0  0  0
    5.2002   -9.4749   -1.0366 O   0  0  0  0  0  0  0  0  0  0  0  0
    3.7139   -7.7812   -0.3407 C   0  0  0  0  0  0  0  0  0  0  0  0
    3.4473   -6.4627   -0.0765 C   0  0  0  0  0  0  0  0  0  0  0  0
    4.4457   -5.4567   -0.2499 C   0  0  0  0  0  0  0  0  0  0  0  0
    4.1021   -4.1815    0.0321 N   0  0  0  0  0  0  0  0  0  0  0  0
    2.8185    1.0213    2.5884 H   0  0  0  0  0  0  0  0  0  0  0  0
    4.3344    0.0871    2.5092 H   0  0  0  0  0  0  0  0  0  0  0  0
    2.8214   -0.7039    3.0474 H   0  0  0  0  0  0  0  0  0  0  0  0
    3.3905    0.3805    0.2114 H   0  0  0  0  0  0  0  0  0  0  0  0
    1.8429   -0.3564    0.7364 H   0  0  0  0  0  0  0  0  0  0  0  0
    7.0152   -2.6534   -0.6676 H   0  0  0  0  0  0  0  0  0  0  0  0
   10.4095   -3.0114   -2.3248 H   0  0  0  0  0  0  0  0  0  0  0  0
   10.2718   -4.7698   -2.6422 H   0  0  0  0  0  0  0  0  0  0  0  0
   11.0346   -3.5164    0.0775 H   0  0  0  0  0  0  0  0  0  0  0  0
   12.1815   -4.2618   -1.0683 H   0  0  0  0  0  0  0  0  0  0  0  0
   10.9394   -5.2679   -0.2803 H   0  0  0  0  0  0  0  0  0  0  0  0
    6.9938   -7.5119   -1.3255 H   0  0  0  0  0  0  0  0  0  0  0  0
    6.1077   -9.6184   -1.3399 H   0  0  0  0  0  0  0  0  0  0  0  0
    2.9598   -8.5603   -0.2127 H   0  0  0  0  0  0  0  0  0  0  0  0
    2.4676   -6.1334    0.2740 H   0  0  0  0  0  0  0  0  0  0  0  0
  1  2  1  0
  1 22  1  0
  1 23  1  0
  1 24  1  0
  2  3  1  0
  2 25  1  0
  2 26  1  0
  3  4  1  0
  4  5  2  0
  4  6  1  0
  6  7  2  0
  6 21  1  0
  7  8  1  0
  7 27  1  0
  8  9  1  0
  8 14  2  0
  9 10  2  0
  9 11  1  0
 11 12  1  0
 12 13  1  0
 12 28  1  0
 12 29  1  0
 13 30  1  0
 13 31  1  0
 13 32  1  0
 14 15  1  0
 14 20  1  0
 15 16  2  0
 15 33  1  0
 16 17  1  0
 16 18  1  0
 17 34  1  0
 18 19  2  0
 18 35  1  0
 19 20  1  0
 19 36  1  0
 20 21  2  0
M  END

