
     RDKit          3D

 62 63  0  0  0  0  0  0  0  0999 V2000
   10.3722   -0.4949    9.3262 C   0  0  0  0  0  0  0  0  0  0  0  0
   10.5561   -1.6199    8.3068 C   0  0  0  0  0  0  0  0  0  0  0  0
   11.2987   -1.1833    7.0394 C   0  0  0  0  0  0  0  0  0  0  0  0
   11.4830   -2.3143    6.0219 C   0  0  0  0  0  0  0  0  0  0  0  0
   12.1408   -1.8986    4.6937 C   0  0  1  0  0  0  0  0  0  0  0  0
   11.5411   -1.0802    4.2510 H   0  0  0  0  0  0  0  0  0  0  0  0
   13.5756   -1.3878    4.8795 C   0  0  0  0  0  0  0  0  0  0  0  0
   12.1084   -3.0519    3.6683 C   0  0  2  0  0  0  0  0  0  0  0  0
   12.6879   -3.9017    4.0881 H   0  0  0  0  0  0  0  0  0  0  0  0
   12.7314   -2.5680    2.4787 O   0  0  0  0  0  0  0  0  0  0  0  0
   10.7179   -3.5304    3.3392 C   0  0  0  0  0  0  0  0  0  0  0  0
   10.2997   -4.8019    3.4213 C   0  0  0  0  0  0  0  0  0  0  0  0
    8.9411   -5.3026    3.0375 C   0  0  1  0  0  0  0  0  0  0  0  0
    8.2950   -4.4471    2.7761 H   0  0  0  0  0  0  0  0  0  0  0  0
    8.9521   -6.2491    1.7642 C   0  0  2  0  0  0  0  0  0  0  0  0
    9.9264   -6.7761    1.7325 H   0  0  0  0  0  0  0  0  0  0  0  0
    8.7441   -5.5401    0.5626 O   0  0  0  0  0  0  0  0  0  0  0  0
    7.8077   -7.2959    1.9620 C   0  0  0  0  0  0  0  0  0  0  0  0
    7.0962   -6.7781    3.2025 C   0  0  1  0  0  0  0  0  0  0  0  0
    6.4198   -5.9491    2.8967 H   0  0  0  0  0  0  0  0  0  0  0  0
    6.4169   -7.6434    4.0806 O   0  0  0  0  0  0  0  0  0  0  0  0
    6.3663   -6.9645    5.3552 C   0  0  1  0  0  0  0  0  0  0  0  0
    6.5474   -8.0058    6.4555 C   0  0  0  0  0  0  0  0  0  0  0  0
    6.1870   -7.5075    7.8574 C   0  0  0  0  0  0  0  0  0  0  0  0
    6.3809   -8.5721    8.9402 C   0  0  0  0  0  0  0  0  0  0  0  0
    6.0038   -8.0870   10.3378 C   0  0  0  0  0  0  0  0  0  0  0  0
    6.2205   -9.1338   11.4241 C   0  0  0  0  0  0  0  0  0  0  0  0
    6.6701  -10.2296   11.2364 O   0  0  0  0  0  0  0  0  0  0  0  0
    5.8672   -8.7455   12.6745 O   0  0  0  0  0  0  0  0  0  0  0  0
    7.4593   -5.8283    5.3148 C   0  0  0  0  0  0  0  0  0  0  0  0
    8.2179   -6.1991    4.0451 C   0  0  2  0  0  0  0  0  0  0  0  0
    8.8916   -7.0441    4.2855 H   0  0  0  0  0  0  0  0  0  0  0  0
    9.8357   -0.8432   10.2235 H   0  0  0  0  0  0  0  0  0  0  0  0
    9.7964    0.3433    8.8990 H   0  0  0  0  0  0  0  0  0  0  0  0
   11.3437   -0.0903    9.6565 H   0  0  0  0  0  0  0  0  0  0  0  0
    9.5681   -2.0292    8.0261 H   0  0  0  0  0  0  0  0  0  0  0  0
   11.1034   -2.4576    8.7767 H   0  0  0  0  0  0  0  0  0  0  0  0
   12.2792   -0.7660    7.3279 H   0  0  0  0  0  0  0  0  0  0  0  0
   10.7463   -0.3514    6.5631 H   0  0  0  0  0  0  0  0  0  0  0  0
   10.4951   -2.7585    5.8113 H   0  0  0  0  0  0  0  0  0  0  0  0
   12.0821   -3.1238    6.4817 H   0  0  0  0  0  0  0  0  0  0  0  0
   13.6052   -0.4894    5.5141 H   0  0  0  0  0  0  0  0  0  0  0  0
   14.0256   -1.1366    3.9100 H   0  0  0  0  0  0  0  0  0  0  0  0
   14.2064   -2.1574    5.3583 H   0  0  0  0  0  0  0  0  0  0  0  0
   12.7295   -3.2866    1.8335 H   0  0  0  0  0  0  0  0  0  0  0  0
   10.0317   -2.7543    2.9736 H   0  0  0  0  0  0  0  0  0  0  0  0
   11.0048   -5.5627    3.7878 H   0  0  0  0  0  0  0  0  0  0  0  0
    9.4685   -4.9077    0.4590 H   0  0  0  0  0  0  0  0  0  0  0  0
    8.2183   -8.2990    2.1535 H   0  0  0  0  0  0  0  0  0  0  0  0
    7.1827   -7.3389    1.0596 H   0  0  0  0  0  0  0  0  0  0  0  0
    5.3654   -6.5025    5.4608 H   0  0  0  0  0  0  0  0  0  0  0  0
    7.5901   -8.3703    6.4369 H   0  0  0  0  0  0  0  0  0  0  0  0
    5.9155   -8.8719    6.1957 H   0  0  0  0  0  0  0  0  0  0  0  0
    5.1358   -7.1633    7.8618 H   0  0  0  0  0  0  0  0  0  0  0  0
    6.7941   -6.6179    8.1084 H   0  0  0  0  0  0  0  0  0  0  0  0
    7.4293   -8.9133    8.9535 H   0  0  0  0  0  0  0  0  0  0  0  0
    5.7846   -9.4682    8.7003 H   0  0  0  0  0  0  0  0  0  0  0  0
    4.9437   -7.7718   10.3701 H   0  0  0  0  0  0  0  0  0  0  0  0
    6.5893   -7.1885   10.6110 H   0  0  0  0  0  0  0  0  0  0  0  0
    5.5209   -7.8419   12.6643 H   0  0  0  0  0  0  0  0  0  0  0  0
    8.0800   -5.8211    6.2233 H   0  0  0  0  0  0  0  0  0  0  0  0
    6.9870   -4.8371    5.2224 H   0  0  0  0  0  0  0  0  0  0  0  0
  1  2  1  0
  1 33  1  0
  1 34  1  0
  1 35  1  0
  2  3  1  0
  2 36  1  0
  2 37  1  0
  3  4  1  0
  3 38  1  0
  3 39  1  0
  4  5  1  0
  4 40  1  0
  4 41  1  0
  5  6  1  6
  5  7  1  0
  5  8  1  0
  7 42  1  0
  7 43  1  0
  7 44  1  0
  8  9  1  1
  8 10  1  0
  8 11  1  0
 10 45  1  0
 11 12  2  0
 11 46  1  0
 12 13  1  0
 12 47  1  0
 13 14  1  6
 13 15  1  0
 13 31  1  0
 15 16  1  6
 15 17  1  0
 15 18  1  0
 17 48  1  0
 18 19  1  0
 18 49  1  0
 18 50  1  0
 19 20  1  6
 19 21  1  0
 19 31  1  0
 21 22  1  0
 22 23  1  0
 22 30  1  0
 22 51  1  1
 23 24  1  0
 23 52  1  0
 23 53  1  0
 24 25  1  0
 24 54  1  0
 24 55  1  0
 25 26  1  0
 25 56  1  0
 25 57  1  0
 26 27  1  0
 26 58  1  0
 26 59  1  0
 27 28  2  0
 27 29  1  0
 29 60  1  0
 30 31  1  0
 30 61  1  0
 30 62  1  0
 31 32  1  1
M  END

