
     RDKit          3D

 47 49  0  0  0  0  0  0  0  0999 V2000
    8.3236    2.3511    4.0374 C   0  0  0  0  0  0  0  0  0  0  0  0
    7.7748    1.5489    2.8823 C   0  0  0  0  0  0  0  0  0  0  0  0
    7.2793    0.2478    3.0818 C   0  0  0  0  0  0  0  0  0  0  0  0
    6.7748   -0.5050    2.0230 C   0  0  0  0  0  0  0  0  0  0  0  0
    6.7408    0.0150    0.7184 C   0  0  0  0  0  0  0  0  0  0  0  0
    6.1583   -0.7903   -0.4349 C   0  0  0  0  0  0  0  0  0  0  0  0
    6.6799   -2.1937   -0.5732 C   0  0  0  0  0  0  0  0  0  0  0  0
    8.3861   -2.4814   -0.8854 S   0  0  0  0  0  0  0  0  0  0  0  0
    8.0427   -4.2167   -0.9108 C   0  0  0  0  0  0  0  0  0  0  0  0
    9.0994   -5.0853   -1.1335 N   0  0  0  0  0  0  0  0  0  0  0  0
    9.0640   -6.4735   -1.1977 C   0  0  0  0  0  0  0  0  0  0  0  0
    8.0739   -7.1535   -1.0708 O   0  0  0  0  0  0  0  0  0  0  0  0
   10.4543   -7.1260   -1.4400 C   0  0  1  0  0  0  0  0  0  0  0  0
   11.3882   -6.3516   -2.3779 C   0  0  0  0  0  0  0  0  0  0  0  0
   11.8997   -5.1483   -1.7163 N   0  0  0  0  0  0  0  0  0  0  0  0
   12.7010   -4.3176   -2.6010 C   0  0  0  0  0  0  0  0  0  0  0  0
   12.6088   -5.5178   -0.4890 C   0  0  0  0  0  0  0  0  0  0  0  0
   11.6856   -6.3053    0.4366 C   0  0  0  0  0  0  0  0  0  0  0  0
   11.1157   -7.4250   -0.2163 O   0  0  0  0  0  0  0  0  0  0  0  0
    6.8044   -4.5234   -0.7065 N   0  0  0  0  0  0  0  0  0  0  0  0
    6.0230   -3.4017   -0.5144 C   0  0  0  0  0  0  0  0  0  0  0  0
    4.5569   -3.6168   -0.2721 C   0  0  0  0  0  0  0  0  0  0  0  0
    7.2353    1.3085    0.5160 C   0  0  0  0  0  0  0  0  0  0  0  0
    7.7430    2.0628    1.5798 C   0  0  0  0  0  0  0  0  0  0  0  0
    7.5725    2.4708    4.8362 H   0  0  0  0  0  0  0  0  0  0  0  0
    8.6384    3.3561    3.7193 H   0  0  0  0  0  0  0  0  0  0  0  0
    9.1973    1.8542    4.4923 H   0  0  0  0  0  0  0  0  0  0  0  0
    7.2912   -0.1829    4.0879 H   0  0  0  0  0  0  0  0  0  0  0  0
    6.4049   -1.5175    2.2074 H   0  0  0  0  0  0  0  0  0  0  0  0
    6.3237   -0.2326   -1.3728 H   0  0  0  0  0  0  0  0  0  0  0  0
    5.0640   -0.8531   -0.3156 H   0  0  0  0  0  0  0  0  0  0  0  0
   10.0328   -4.6773   -1.2815 H   0  0  0  0  0  0  0  0  0  0  0  0
   10.2151   -8.1010   -1.8862 H   0  0  0  0  0  0  0  0  0  0  0  0
   10.8487   -6.0625   -3.2945 H   0  0  0  0  0  0  0  0  0  0  0  0
   12.2202   -7.0252   -2.6792 H   0  0  0  0  0  0  0  0  0  0  0  0
   12.1073   -4.0206   -3.4795 H   0  0  0  0  0  0  0  0  0  0  0  0
   13.6144   -4.8374   -2.9630 H   0  0  0  0  0  0  0  0  0  0  0  0
   13.0150   -3.4029   -2.0748 H   0  0  0  0  0  0  0  0  0  0  0  0
   12.9522   -4.6031    0.0216 H   0  0  0  0  0  0  0  0  0  0  0  0
   13.5090   -6.1285   -0.7250 H   0  0  0  0  0  0  0  0  0  0  0  0
   10.8989   -5.6386    0.8382 H   0  0  0  0  0  0  0  0  0  0  0  0
   12.2548   -6.7019    1.2907 H   0  0  0  0  0  0  0  0  0  0  0  0
    4.0988   -4.1258   -1.1359 H   0  0  0  0  0  0  0  0  0  0  0  0
    4.0140   -2.6789   -0.0940 H   0  0  0  0  0  0  0  0  0  0  0  0
    4.4104   -4.2769    0.5979 H   0  0  0  0  0  0  0  0  0  0  0  0
    7.2240    1.7391   -0.4900 H   0  0  0  0  0  0  0  0  0  0  0  0
    8.1231    3.0708    1.3893 H   0  0  0  0  0  0  0  0  0  0  0  0
  1  2  1  0
  1 25  1  0
  1 26  1  0
  1 27  1  0
  2  3  2  0
  2 24  1  0
  3  4  1  0
  3 28  1  0
  4  5  2  0
  4 29  1  0
  5  6  1  0
  5 23  1  0
  6  7  1  0
  6 30  1  0
  6 31  1  0
  7  8  1  0
  7 21  2  0
  8  9  1  0
  9 10  1  0
  9 20  2  0
 10 11  1  0
 10 32  1  0
 11 12  2  0
 11 13  1  0
 13 14  1  0
 13 19  1  0
 13 33  1  6
 14 15  1  0
 14 34  1  0
 14 35  1  0
 15 16  1  0
 15 17  1  0
 16 36  1  0
 16 37  1  0
 16 38  1  0
 17 18  1  0
 17 39  1  0
 17 40  1  0
 18 19  1  0
 18 41  1  0
 18 42  1  0
 20 21  1  0
 21 22  1  0
 22 43  1  0
 22 44  1  0
 22 45  1  0
 23 24  2  0
 23 46  1  0
 24 47  1  0
M  END

