
     RDKit          3D

 75 80  0  0  0  0  0  0  0  0999 V2000
    6.2292    2.8782    4.2570 C   0  0  0  0  0  0  0  0  0  0  0  0
    6.3923    1.5937    3.7016 O   0  0  0  0  0  0  0  0  0  0  0  0
    6.0409    1.3785    2.4076 C   0  0  0  0  0  0  0  0  0  0  0  0
    5.5188    2.3601    1.5494 C   0  0  0  0  0  0  0  0  0  0  0  0
    5.1904    2.0272    0.2316 C   0  0  0  0  0  0  0  0  0  0  0  0
    5.3690    0.7303   -0.2648 C   0  0  0  0  0  0  0  0  0  0  0  0
    4.9578    0.3727   -1.6821 C   0  0  0  0  0  0  0  0  0  0  0  0
    5.3461    1.3789   -2.6658 N   0  0  0  0  0  0  0  0  0  0  0  0
    6.7826    1.4942   -2.8980 C   0  0  0  0  0  0  0  0  0  0  0  0
    7.3471    0.4256   -3.8549 C   0  0  0  0  0  0  0  0  0  0  0  0
    6.5748    0.3571   -5.1848 C   0  0  2  0  0  0  0  0  0  0  0  0
    6.9310    1.5349   -5.9958 N   0  0  0  0  0  0  0  0  0  0  0  0
    6.3807    1.9082   -7.2094 C   0  0  0  0  0  0  0  0  0  0  0  0
    6.0642    1.0714   -8.3024 C   0  0  0  0  0  0  0  0  0  0  0  0
    6.3523   -0.6599   -8.2563 Cl  0  0  0  0  0  0  0  0  0  0  0  0
    5.5445    1.5922   -9.5110 C   0  0  0  0  0  0  0  0  0  0  0  0
    5.3206    2.8735   -9.7564 N   0  0  0  0  0  0  0  0  0  0  0  0
    5.6132    3.7015   -8.7460 C   0  0  0  0  0  0  0  0  0  0  0  0
    5.4549    5.0673   -8.7380 N   0  0  0  0  0  0  0  0  0  0  0  0
    5.8318    5.4699   -7.5452 C   0  0  0  0  0  0  0  0  0  0  0  0
    5.8175    6.8653   -7.0923 C   0  0  0  0  0  0  0  0  0  0  0  0
    5.2392    7.8432   -7.9283 C   0  0  0  0  0  0  0  0  0  0  0  0
    5.1993    9.1750   -7.5425 C   0  0  0  0  0  0  0  0  0  0  0  0
    5.7393    9.5710   -6.3070 C   0  0  0  0  0  0  0  0  0  0  0  0
    5.6588   10.9076   -6.0205 O   0  0  0  0  0  0  0  0  0  0  0  0
    6.0119   11.3668   -4.7312 C   0  0  0  0  0  0  0  0  0  0  0  0
    7.5193   11.5644   -4.5105 C   0  0  0  0  0  0  0  0  0  0  0  0
    7.9764   11.5930   -3.3829 O   0  0  0  0  0  0  0  0  0  0  0  0
    8.2251   11.7459   -5.6678 N   0  0  0  0  0  0  0  0  0  0  0  0
    9.6005   11.9806   -5.8278 C   0  0  0  0  0  0  0  0  0  0  0  0
   10.5064   12.1102   -4.7629 C   0  0  0  0  0  0  0  0  0  0  0  0
   11.8470   12.3453   -5.0710 C   0  0  0  0  0  0  0  0  0  0  0  0
   12.2407   12.4441   -6.4081 C   0  0  0  0  0  0  0  0  0  0  0  0
   11.3801   12.3215   -7.4230 N   0  0  0  0  0  0  0  0  0  0  0  0
   10.1032   12.0964   -7.1392 C   0  0  0  0  0  0  0  0  0  0  0  0
    6.3265    8.6163   -5.4661 C   0  0  0  0  0  0  0  0  0  0  0  0
    6.3608    7.2773   -5.8668 C   0  0  0  0  0  0  0  0  0  0  0  0
    6.2517    4.4191   -6.7447 N   0  0  0  0  0  0  0  0  0  0  0  0
    6.4715    4.4835   -5.7600 H   0  0  0  0  0  0  0  0  0  0  0  0
    6.1156    3.2656   -7.4947 C   0  0  0  0  0  0  0  0  0  0  0  0
    5.0608    0.2591   -4.8994 C   0  0  0  0  0  0  0  0  0  0  0  0
    4.5999    1.3521   -3.9215 C   0  0  0  0  0  0  0  0  0  0  0  0
    5.8996   -0.2368    0.6046 C   0  0  0  0  0  0  0  0  0  0  0  0
    6.2296    0.0742    1.9212 C   0  0  0  0  0  0  0  0  0  0  0  0
    6.5721    2.8155    5.2987 H   0  0  0  0  0  0  0  0  0  0  0  0
    5.1721    3.2007    4.2486 H   0  0  0  0  0  0  0  0  0  0  0  0
    6.8342    3.6370    3.7278 H   0  0  0  0  0  0  0  0  0  0  0  0
    5.3637    3.3824    1.8955 H   0  0  0  0  0  0  0  0  0  0  0  0
    4.7934    2.7953   -0.4368 H   0  0  0  0  0  0  0  0  0  0  0  0
    3.8568    0.2948   -1.7262 H   0  0  0  0  0  0  0  0  0  0  0  0
    5.3364   -0.6479   -1.9099 H   0  0  0  0  0  0  0  0  0  0  0  0
    7.3066    1.4529   -1.9312 H   0  0  0  0  0  0  0  0  0  0  0  0
    6.9845    2.5076   -3.3000 H   0  0  0  0  0  0  0  0  0  0  0  0
    7.2834   -0.5642   -3.3749 H   0  0  0  0  0  0  0  0  0  0  0  0
    8.4173    0.6087   -4.0507 H   0  0  0  0  0  0  0  0  0  0  0  0
    6.8921   -0.5408   -5.7305 H   0  0  0  0  0  0  0  0  0  0  0  0
    7.2371    2.3234   -5.4408 H   0  0  0  0  0  0  0  0  0  0  0  0
    5.3236    0.8764  -10.3107 H   0  0  0  0  0  0  0  0  0  0  0  0
    4.8212    7.5231   -8.8841 H   0  0  0  0  0  0  0  0  0  0  0  0
    4.7457    9.9356   -8.1811 H   0  0  0  0  0  0  0  0  0  0  0  0
    5.6366   10.7104   -3.9308 H   0  0  0  0  0  0  0  0  0  0  0  0
    5.5254   12.3486   -4.6137 H   0  0  0  0  0  0  0  0  0  0  0  0
    7.6774   11.6820   -6.5219 H   0  0  0  0  0  0  0  0  0  0  0  0
   10.1549   12.0265   -3.7364 H   0  0  0  0  0  0  0  0  0  0  0  0
   12.5833   12.4522   -4.2709 H   0  0  0  0  0  0  0  0  0  0  0  0
   13.2887   12.6290   -6.6698 H   0  0  0  0  0  0  0  0  0  0  0  0
    9.4151   11.9974   -7.9907 H   0  0  0  0  0  0  0  0  0  0  0  0
    6.7734    8.8956   -4.5115 H   0  0  0  0  0  0  0  0  0  0  0  0
    6.8456    6.5597   -5.1997 H   0  0  0  0  0  0  0  0  0  0  0  0
    4.8527   -0.7385   -4.4754 H   0  0  0  0  0  0  0  0  0  0  0  0
    4.4933    0.3189   -5.8421 H   0  0  0  0  0  0  0  0  0  0  0  0
    3.5271    1.2424   -3.6971 H   0  0  0  0  0  0  0  0  0  0  0  0
    4.7129    2.3395   -4.4079 H   0  0  0  0  0  0  0  0  0  0  0  0
    6.0576   -1.2577    0.2433 H   0  0  0  0  0  0  0  0  0  0  0  0
    6.6433   -0.6770    2.5970 H   0  0  0  0  0  0  0  0  0  0  0  0
  1  2  1  0
  1 45  1  0
  1 46  1  0
  1 47  1  0
  2  3  1  0
  3  4  2  0
  3 44  1  0
  4  5  1  0
  4 48  1  0
  5  6  2  0
  5 49  1  0
  6  7  1  0
  6 43  1  0
  7  8  1  0
  7 50  1  0
  7 51  1  0
  8  9  1  0
  8 42  1  0
  9 10  1  0
  9 52  1  0
  9 53  1  0
 10 11  1  0
 10 54  1  0
 10 55  1  0
 11 12  1  0
 11 41  1  0
 11 56  1  6
 12 13  1  0
 12 57  1  0
 13 14  2  0
 13 40  1  0
 14 15  1  0
 14 16  1  0
 16 17  2  0
 16 58  1  0
 17 18  1  0
 18 19  1  0
 18 40  2  0
 19 20  2  0
 20 21  1  0
 20 38  1  0
 21 22  2  0
 21 37  1  0
 22 23  1  0
 22 59  1  0
 23 24  2  0
 23 60  1  0
 24 25  1  0
 24 36  1  0
 25 26  1  0
 26 27  1  0
 26 61  1  0
 26 62  1  0
 27 28  2  0
 27 29  1  0
 29 30  1  0
 29 63  1  0
 30 31  2  0
 30 35  1  0
 31 32  1  0
 31 64  1  0
 32 33  2  0
 32 65  1  0
 33 34  1  0
 33 66  1  0
 34 35  2  0
 35 67  1  0
 36 37  2  0
 36 68  1  0
 37 69  1  0
 38 39  1  0
 38 40  1  0
 41 42  1  0
 41 70  1  0
 41 71  1  0
 42 72  1  0
 42 73  1  0
 43 44  2  0
 43 74  1  0
 44 75  1  0
M  END

