
     RDKit          3D

 48 49  0  0  0  0  0  0  0  0999 V2000
    1.7095    3.1288   -2.9987 C   0  0  0  0  0  0  0  0  0  0  0  0
    3.1614    3.1049   -2.4936 C   0  0  1  0  0  0  0  0  0  0  0  0
    4.0037    4.2278   -2.9298 N   0  0  0  0  0  0  0  0  0  0  0  0
    3.5967    5.5370   -2.4172 C   0  0  0  0  0  0  0  0  0  0  0  0
    3.6548    5.5379   -0.8864 C   0  0  0  0  0  0  0  0  0  0  0  0
    2.8641    4.3608   -0.3000 C   0  0  0  0  0  0  0  0  0  0  0  0
    3.2721    3.0244   -0.9549 C   0  0  2  0  0  0  0  0  0  0  0  0
    4.6404    2.6523   -0.6142 N   0  0  0  0  0  0  0  0  0  0  0  0
    4.9518    1.8113    0.4104 C   0  0  0  0  0  0  0  0  0  0  0  0
    4.0877    1.3306    1.1407 O   0  0  0  0  0  0  0  0  0  0  0  0
    6.4313    1.4963    0.5925 C   0  0  0  0  0  0  0  0  0  0  0  0
    7.1177    2.1866    1.8116 C   0  0  1  0  0  0  0  0  0  0  0  0
    6.3251    1.8777    3.1086 C   0  0  0  0  0  0  0  0  0  0  0  0
    6.0450    0.4548    3.2719 N   0  0  0  0  0  0  0  0  0  0  0  0
    8.5594    1.6326    1.9517 C   0  0  0  0  0  0  0  0  0  0  0  0
    9.5168    2.0720    0.8365 C   0  0  0  0  0  0  0  0  0  0  0  0
    9.5558    3.6000    0.7067 C   0  0  0  0  0  0  0  0  0  0  0  0
    8.1486    4.1840    0.5253 C   0  0  0  0  0  0  0  0  0  0  0  0
    7.1895    3.7224    1.6326 C   0  0  0  0  0  0  0  0  0  0  0  0
    1.6898    3.1657   -4.1004 H   0  0  0  0  0  0  0  0  0  0  0  0
    1.1377    3.9921   -2.6269 H   0  0  0  0  0  0  0  0  0  0  0  0
    1.1757    2.2171   -2.6860 H   0  0  0  0  0  0  0  0  0  0  0  0
    3.6303    2.1888   -2.8926 H   0  0  0  0  0  0  0  0  0  0  0  0
    4.0851    4.2435   -3.9444 H   0  0  0  0  0  0  0  0  0  0  0  0
    2.5764    5.8364   -2.7436 H   0  0  0  0  0  0  0  0  0  0  0  0
    4.2873    6.2947   -2.8220 H   0  0  0  0  0  0  0  0  0  0  0  0
    3.2708    6.4951   -0.4967 H   0  0  0  0  0  0  0  0  0  0  0  0
    4.7093    5.4667   -0.5702 H   0  0  0  0  0  0  0  0  0  0  0  0
    1.7832    4.5198   -0.4569 H   0  0  0  0  0  0  0  0  0  0  0  0
    3.0126    4.2845    0.7884 H   0  0  0  0  0  0  0  0  0  0  0  0
    2.6268    2.2221   -0.5688 H   0  0  0  0  0  0  0  0  0  0  0  0
    5.3686    3.0303   -1.2113 H   0  0  0  0  0  0  0  0  0  0  0  0
    6.9796    1.7267   -0.3326 H   0  0  0  0  0  0  0  0  0  0  0  0
    6.4974    0.4094    0.7499 H   0  0  0  0  0  0  0  0  0  0  0  0
    5.4096    2.5027    3.1174 H   0  0  0  0  0  0  0  0  0  0  0  0
    6.9420    2.2192    3.9577 H   0  0  0  0  0  0  0  0  0  0  0  0
    5.1879    0.2412    2.7568 H   0  0  0  0  0  0  0  0  0  0  0  0
    5.8581    0.2438    4.2511 H   0  0  0  0  0  0  0  0  0  0  0  0
    8.5156    0.5358    2.0383 H   0  0  0  0  0  0  0  0  0  0  0  0
    8.9636    1.9981    2.9138 H   0  0  0  0  0  0  0  0  0  0  0  0
    9.2158    1.6268   -0.1290 H   0  0  0  0  0  0  0  0  0  0  0  0
   10.5281    1.6817    1.0422 H   0  0  0  0  0  0  0  0  0  0  0  0
   10.2089    3.9039   -0.1292 H   0  0  0  0  0  0  0  0  0  0  0  0
   10.0057    4.0268    1.6226 H   0  0  0  0  0  0  0  0  0  0  0  0
    7.7568    3.8870   -0.4647 H   0  0  0  0  0  0  0  0  0  0  0  0
    8.1919    5.2865    0.5094 H   0  0  0  0  0  0  0  0  0  0  0  0
    6.1792    4.1289    1.4548 H   0  0  0  0  0  0  0  0  0  0  0  0
    7.5257    4.1592    2.5913 H   0  0  0  0  0  0  0  0  0  0  0  0
  1  2  1  0
  1 20  1  0
  1 21  1  0
  1 22  1  0
  2  3  1  0
  2  7  1  0
  2 23  1  6
  3  4  1  0
  3 24  1  0
  4  5  1  0
  4 25  1  0
  4 26  1  0
  5  6  1  0
  5 27  1  0
  5 28  1  0
  6  7  1  0
  6 29  1  0
  6 30  1  0
  7  8  1  0
  7 31  1  1
  8  9  1  0
  8 32  1  0
  9 10  2  0
  9 11  1  0
 12 11  1  6
 11 33  1  0
 11 34  1  0
 12 13  1  0
 12 15  1  0
 12 19  1  0
 13 14  1  0
 13 35  1  0
 13 36  1  0
 14 37  1  0
 14 38  1  0
 15 16  1  0
 15 39  1  0
 15 40  1  0
 16 17  1  0
 16 41  1  0
 16 42  1  0
 17 18  1  0
 17 43  1  0
 17 44  1  0
 18 19  1  0
 18 45  1  0
 18 46  1  0
 19 47  1  0
 19 48  1  0
M  END

