
     RDKit          3D

 45 46  0  0  0  0  0  0  0  0999 V2000
    2.5101    1.1959   -0.3735 C   0  0  0  0  0  0  0  0  0  0  0  0
    2.1851    0.2626    0.8009 C   0  0  1  0  0  0  0  0  0  0  0  0
    0.6723    0.0115    0.8873 C   0  0  0  0  0  0  0  0  0  0  0  0
    2.9256   -1.0925    0.7532 C   0  0  0  0  0  0  0  0  0  0  0  0
    4.4805   -1.1107    0.8447 C   0  0  1  0  0  0  0  0  0  0  0  0
    4.9954   -0.0638    1.8610 C   0  0  0  0  0  0  0  0  0  0  0  0
    5.5694    0.9560    1.4600 O   0  0  0  0  0  0  0  0  0  0  0  0
    4.8603   -0.2542    3.2202 N   0  0  0  0  0  0  0  0  0  0  0  0
    3.7668   -1.0067    3.8435 C   0  0  0  0  0  0  0  0  0  0  0  0
    3.9252   -1.3464    5.3263 C   0  0  0  0  0  0  0  0  0  0  0  0
    3.0999   -2.0667    5.8565 O   0  0  0  0  0  0  0  0  0  0  0  0
    4.9677   -0.7814    5.9828 N   0  0  0  0  0  0  0  0  0  0  0  0
    6.0132    0.0232    5.3835 C   0  0  0  0  0  0  0  0  0  0  0  0
    5.5570    0.7030    4.0979 C   0  0  2  0  0  0  0  0  0  0  0  0
    4.7193    1.9821    4.3456 C   0  0  0  0  0  0  0  0  0  0  0  0
    4.3712    2.3465    5.4369 O   0  0  0  0  0  0  0  0  0  0  0  0
    4.4280    2.6557    3.2290 O   0  0  0  0  0  0  0  0  0  0  0  0
    5.0334   -2.5324    1.1536 C   0  0  0  0  0  0  0  0  0  0  0  0
    6.5128   -2.4991    0.7301 C   0  0  0  0  0  0  0  0  0  0  0  0
    6.5915   -1.4486   -0.4112 C   0  0  0  0  0  0  0  0  0  0  0  0
    5.1741   -0.8482   -0.5221 C   0  0  0  0  0  0  0  0  0  0  0  0
    1.8845    2.1017   -0.3281 H   0  0  0  0  0  0  0  0  0  0  0  0
    2.3113    0.7025   -1.3403 H   0  0  0  0  0  0  0  0  0  0  0  0
    3.5592    1.5221   -0.3655 H   0  0  0  0  0  0  0  0  0  0  0  0
    2.4819    0.7897    1.7275 H   0  0  0  0  0  0  0  0  0  0  0  0
    0.3074   -0.5081   -0.0154 H   0  0  0  0  0  0  0  0  0  0  0  0
    0.1169    0.9587    0.9729 H   0  0  0  0  0  0  0  0  0  0  0  0
    0.4098   -0.6112    1.7581 H   0  0  0  0  0  0  0  0  0  0  0  0
    2.6560   -1.6083   -0.1856 H   0  0  0  0  0  0  0  0  0  0  0  0
    2.5147   -1.7251    1.5551 H   0  0  0  0  0  0  0  0  0  0  0  0
    3.6126   -1.9638    3.3372 H   0  0  0  0  0  0  0  0  0  0  0  0
    2.8142   -0.4510    3.7717 H   0  0  0  0  0  0  0  0  0  0  0  0
    5.0169   -0.9963    6.9742 H   0  0  0  0  0  0  0  0  0  0  0  0
    6.9029   -0.5939    5.1585 H   0  0  0  0  0  0  0  0  0  0  0  0
    6.3142    0.8065    6.0936 H   0  0  0  0  0  0  0  0  0  0  0  0
    6.4535    1.0256    3.5487 H   0  0  0  0  0  0  0  0  0  0  0  0
    4.8835    2.2345    2.4582 H   0  0  0  0  0  0  0  0  0  0  0  0
    4.4701   -3.2441    0.5266 H   0  0  0  0  0  0  0  0  0  0  0  0
    4.9013   -2.8593    2.1942 H   0  0  0  0  0  0  0  0  0  0  0  0
    6.8692   -3.4943    0.4229 H   0  0  0  0  0  0  0  0  0  0  0  0
    7.1427   -2.1936    1.5816 H   0  0  0  0  0  0  0  0  0  0  0  0
    6.9101   -1.8953   -1.3655 H   0  0  0  0  0  0  0  0  0  0  0  0
    7.3231   -0.6639   -0.1684 H   0  0  0  0  0  0  0  0  0  0  0  0
    4.5922   -1.3851   -1.2882 H   0  0  0  0  0  0  0  0  0  0  0  0
    5.1907    0.2112   -0.7974 H   0  0  0  0  0  0  0  0  0  0  0  0
  1  2  1  0
  1 22  1  0
  1 23  1  0
  1 24  1  0
  2  3  1  0
  2  4  1  0
  2 25  1  1
  3 26  1  0
  3 27  1  0
  3 28  1  0
  4  5  1  0
  4 29  1  0
  4 30  1  0
  5  6  1  1
  5 18  1  0
  5 21  1  0
  6  7  2  0
  6  8  1  0
  8  9  1  0
  8 14  1  0
  9 10  1  0
  9 31  1  0
  9 32  1  0
 10 11  2  0
 10 12  1  0
 12 13  1  0
 12 33  1  0
 13 14  1  0
 13 34  1  0
 13 35  1  0
 14 15  1  0
 14 36  1  6
 15 16  2  0
 15 17  1  0
 17 37  1  0
 18 19  1  0
 18 38  1  0
 18 39  1  0
 19 20  1  0
 19 40  1  0
 19 41  1  0
 20 21  1  0
 20 42  1  0
 20 43  1  0
 21 44  1  0
 21 45  1  0
M  END

