
     RDKit          3D

 44 45  0  0  0  0  0  0  0  0999 V2000
    4.8544   -1.9629   -0.9766 C   0  0  0  0  0  0  0  0  0  0  0  0
    4.1140   -0.7534   -0.4602 C   0  0  0  0  0  0  0  0  0  0  0  0
    4.7608    0.4837   -0.3552 C   0  0  0  0  0  0  0  0  0  0  0  0
    4.1088    1.6214    0.1143 C   0  0  0  0  0  0  0  0  0  0  0  0
    2.7584    1.5389    0.5010 C   0  0  0  0  0  0  0  0  0  0  0  0
    2.0664    2.6956    0.9882 C   0  0  0  0  0  0  0  0  0  0  0  0
    1.4813    3.6723    1.4170 C   0  0  0  0  0  0  0  0  0  0  0  0
    0.7786    4.8761    1.8775 C   0  0  0  0  0  0  0  0  0  0  0  0
   -0.2918    5.2724    1.0431 O   0  0  0  0  0  0  0  0  0  0  0  0
    2.0862    0.3052    0.4058 C   0  0  0  0  0  0  0  0  0  0  0  0
    2.7516   -0.8342   -0.0699 C   0  0  0  0  0  0  0  0  0  0  0  0
    2.1156   -2.0880   -0.1807 N   0  0  0  0  0  0  0  0  0  0  0  0
    0.8199   -2.4467    0.1268 C   0  0  0  0  0  0  0  0  0  0  0  0
   -0.0079   -1.6605    0.5515 O   0  0  0  0  0  0  0  0  0  0  0  0
    0.4988   -3.9606   -0.0312 C   0  0  1  0  0  0  0  0  0  0  0  0
    1.0069   -4.6506    1.2539 C   0  0  0  0  0  0  0  0  0  0  0  0
   -1.0352   -4.1279   -0.1417 C   0  0  0  0  0  0  0  0  0  0  0  0
   -1.6106   -3.6085   -1.4658 C   0  0  0  0  0  0  0  0  0  0  0  0
   -0.9197   -4.2410   -2.6796 C   0  0  0  0  0  0  0  0  0  0  0  0
    0.6030   -4.0726   -2.6044 C   0  0  0  0  0  0  0  0  0  0  0  0
    1.1536   -4.6089   -1.2768 C   0  0  0  0  0  0  0  0  0  0  0  0
    5.8926   -1.7083   -1.2308 H   0  0  0  0  0  0  0  0  0  0  0  0
    4.3889   -2.3777   -1.8888 H   0  0  0  0  0  0  0  0  0  0  0  0
    4.8941   -2.7768   -0.2300 H   0  0  0  0  0  0  0  0  0  0  0  0
    5.8106    0.5527   -0.6538 H   0  0  0  0  0  0  0  0  0  0  0  0
    4.6366    2.5740    0.1849 H   0  0  0  0  0  0  0  0  0  0  0  0
    1.5208    5.6910    2.0113 H   0  0  0  0  0  0  0  0  0  0  0  0
    0.3413    4.6905    2.8732 H   0  0  0  0  0  0  0  0  0  0  0  0
    0.0462    5.3312    0.1393 H   0  0  0  0  0  0  0  0  0  0  0  0
    1.0436    0.2255    0.7002 H   0  0  0  0  0  0  0  0  0  0  0  0
    2.7005   -2.8354   -0.5278 H   0  0  0  0  0  0  0  0  0  0  0  0
    0.5444   -4.2037    2.1474 H   0  0  0  0  0  0  0  0  0  0  0  0
    2.1007   -4.5646    1.3590 H   0  0  0  0  0  0  0  0  0  0  0  0
    0.7530   -5.7227    1.2374 H   0  0  0  0  0  0  0  0  0  0  0  0
   -1.5130   -3.6132    0.7041 H   0  0  0  0  0  0  0  0  0  0  0  0
   -1.2605   -5.2047   -0.0405 H   0  0  0  0  0  0  0  0  0  0  0  0
   -1.4965   -2.5121   -1.5012 H   0  0  0  0  0  0  0  0  0  0  0  0
   -2.6951   -3.8065   -1.4989 H   0  0  0  0  0  0  0  0  0  0  0  0
   -1.3060   -3.8030   -3.6151 H   0  0  0  0  0  0  0  0  0  0  0  0
   -1.1600   -5.3200   -2.7191 H   0  0  0  0  0  0  0  0  0  0  0  0
    0.8608   -3.0031   -2.7082 H   0  0  0  0  0  0  0  0  0  0  0  0
    1.0905   -4.5914   -3.4470 H   0  0  0  0  0  0  0  0  0  0  0  0
    2.2558   -4.5272   -1.2469 H   0  0  0  0  0  0  0  0  0  0  0  0
    0.9563   -5.6944   -1.2188 H   0  0  0  0  0  0  0  0  0  0  0  0
  1  2  1  0
  1 22  1  0
  1 23  1  0
  1 24  1  0
  2  3  2  0
  2 11  1  0
  3  4  1  0
  3 25  1  0
  4  5  2  0
  4 26  1  0
  5  6  1  0
  5 10  1  0
  6  7  3  0
  7  8  1  0
  8  9  1  0
  8 27  1  0
  8 28  1  0
  9 29  1  0
 10 11  2  0
 10 30  1  0
 11 12  1  0
 12 13  1  0
 12 31  1  0
 13 14  2  0
 15 13  1  1
 15 16  1  0
 15 17  1  0
 15 21  1  0
 16 32  1  0
 16 33  1  0
 16 34  1  0
 17 18  1  0
 17 35  1  0
 17 36  1  0
 18 19  1  0
 18 37  1  0
 18 38  1  0
 19 20  1  0
 19 39  1  0
 19 40  1  0
 20 21  1  0
 20 41  1  0
 20 42  1  0
 21 43  1  0
 21 44  1  0
M  END

