
     RDKit          3D

112119  0  0  0  0  0  0  0  0999 V2000
    3.7051    3.9243    7.5720 C   0  0  0  0  0  0  0  0  0  0  0  0
    4.4404    4.7438    6.5105 C   0  0  0  0  0  0  0  0  0  0  0  0
    5.2018    3.8884    5.4930 C   0  0  0  0  0  0  0  0  0  0  0  0
    5.9402    4.7017    4.4261 C   0  0  0  0  0  0  0  0  0  0  0  0
    6.7006    3.8456    3.4090 C   0  0  0  0  0  0  0  0  0  0  0  0
    7.4339    4.6610    2.3396 C   0  0  0  0  0  0  0  0  0  0  0  0
    8.1980    3.7934    1.3361 C   0  0  0  0  0  0  0  0  0  0  0  0
    8.8990    4.5684    0.2133 C   0  0  0  0  0  0  0  0  0  0  0  0
    9.9378    5.4796    0.6763 N   0  0  0  0  0  0  0  0  0  0  0  0
   11.2255    5.0559    1.0432 C   0  0  0  0  0  0  0  0  0  0  0  0
   11.6132    3.9097    1.0301 O   0  0  0  0  0  0  0  0  0  0  0  0
   11.9626    6.2977    1.4234 C   0  0  0  0  0  0  0  0  0  0  0  0
   13.2465    6.4706    1.8529 C   0  0  0  0  0  0  0  0  0  0  0  0
   13.7040    7.8007    2.1430 C   0  0  0  0  0  0  0  0  0  0  0  0
   15.0172    8.0258    2.5739 C   0  0  0  0  0  0  0  0  0  0  0  0
   15.4890    9.3126    2.8605 C   0  0  0  0  0  0  0  0  0  0  0  0
   16.8407    9.5155    3.3015 C   0  0  0  0  0  0  0  0  0  0  0  0
   17.2559   10.7854    3.5806 C   0  0  0  0  0  0  0  0  0  0  0  0
   18.5778   11.2916    4.0564 C   0  0  0  0  0  0  0  0  0  0  0  0
   19.5885   10.6748    4.3058 O   0  0  0  0  0  0  0  0  0  0  0  0
   18.4273   12.6826    4.1766 N   0  0  0  0  0  0  0  0  0  0  0  0
   19.4919   13.5648    4.6374 C   0  0  0  0  0  0  0  0  0  0  0  0
   20.5466   13.8850    3.5706 C   0  0  0  0  0  0  0  0  0  0  0  0
   20.0162   14.6331    2.3448 C   0  0  0  0  0  0  0  0  0  0  0  0
   21.1084   14.9861    1.3305 C   0  0  0  0  0  0  0  0  0  0  0  0
   20.5873   15.7233    0.0934 C   0  0  0  0  0  0  0  0  0  0  0  0
   21.6770   16.0821   -0.9208 C   0  0  0  0  0  0  0  0  0  0  0  0
   21.1556   16.8189   -2.1586 C   0  0  0  0  0  0  0  0  0  0  0  0
   22.2496   17.1745   -3.1664 C   0  0  0  0  0  0  0  0  0  0  0  0
   17.1331   13.1260    3.8466 C   0  0  0  0  0  0  0  0  0  0  0  0
   16.7537   14.2734    3.8954 O   0  0  0  0  0  0  0  0  0  0  0  0
   16.3794   11.8993    3.4506 C   0  0  0  0  0  0  0  0  0  0  0  0
   15.0853   11.7610    3.0345 C   0  0  0  0  0  0  0  0  0  0  0  0
   14.5935   10.4481    2.7137 C   0  0  0  0  0  0  0  0  0  0  0  0
   13.2613   10.2412    2.2735 C   0  0  0  0  0  0  0  0  0  0  0  0
   12.3378   11.4077    2.1135 C   0  0  0  0  0  0  0  0  0  0  0  0
   12.3966   12.2290    0.9748 C   0  0  0  0  0  0  0  0  0  0  0  0
   11.5420   13.3194    0.8230 C   0  0  0  0  0  0  0  0  0  0  0  0
   10.5820   13.6247    1.8078 C   0  0  0  0  0  0  0  0  0  0  0  0
    9.7103   14.7248    1.6556 N   0  0  0  0  0  0  0  0  0  0  0  0
    9.2047   15.0692    0.3703 C   0  0  0  0  0  0  0  0  0  0  0  0
    8.7061   14.0775   -0.4933 C   0  0  0  0  0  0  0  0  0  0  0  0
    8.2143   14.4225   -1.7534 C   0  0  0  0  0  0  0  0  0  0  0  0
    8.1935   15.7586   -2.1666 C   0  0  0  0  0  0  0  0  0  0  0  0
    8.6783   16.7487   -1.3061 C   0  0  0  0  0  0  0  0  0  0  0  0
    9.1876   16.4105   -0.0511 C   0  0  0  0  0  0  0  0  0  0  0  0
    9.3281   15.5023    2.7847 C   0  0  0  0  0  0  0  0  0  0  0  0
   10.2848   15.9113    3.7311 C   0  0  0  0  0  0  0  0  0  0  0  0
    9.9020   16.6721    4.8370 C   0  0  0  0  0  0  0  0  0  0  0  0
    8.5674   17.0536    5.0096 C   0  0  0  0  0  0  0  0  0  0  0  0
    7.6151   16.6582    4.0647 C   0  0  0  0  0  0  0  0  0  0  0  0
    7.9864   15.8828    2.9649 C   0  0  0  0  0  0  0  0  0  0  0  0
   10.5168   12.8006    2.9486 C   0  0  0  0  0  0  0  0  0  0  0  0
   11.3827   11.7184    3.0962 C   0  0  0  0  0  0  0  0  0  0  0  0
   12.8040    8.9307    1.9828 C   0  0  0  0  0  0  0  0  0  0  0  0
   11.4656    8.6864    1.5162 C   0  0  0  0  0  0  0  0  0  0  0  0
   11.0806    7.4020    1.2537 C   0  0  0  0  0  0  0  0  0  0  0  0
    9.7735    6.8746    0.7603 C   0  0  0  0  0  0  0  0  0  0  0  0
    8.7650    7.4782    0.4749 O   0  0  0  0  0  0  0  0  0  0  0  0
    3.1698    4.5711    8.2854 H   0  0  0  0  0  0  0  0  0  0  0  0
    4.4047    3.2982    8.1511 H   0  0  0  0  0  0  0  0  0  0  0  0
    2.9629    3.2488    7.1141 H   0  0  0  0  0  0  0  0  0  0  0  0
    5.1476    5.4360    7.0032 H   0  0  0  0  0  0  0  0  0  0  0  0
    3.7183    5.3869    5.9750 H   0  0  0  0  0  0  0  0  0  0  0  0
    4.4949    3.1952    4.9994 H   0  0  0  0  0  0  0  0  0  0  0  0
    5.9254    3.2447    6.0277 H   0  0  0  0  0  0  0  0  0  0  0  0
    6.6469    5.3947    4.9196 H   0  0  0  0  0  0  0  0  0  0  0  0
    5.2168    5.3452    3.8917 H   0  0  0  0  0  0  0  0  0  0  0  0
    5.9944    3.1504    2.9175 H   0  0  0  0  0  0  0  0  0  0  0  0
    7.4275    3.2042    3.9414 H   0  0  0  0  0  0  0  0  0  0  0  0
    8.1338    5.3574    2.8356 H   0  0  0  0  0  0  0  0  0  0  0  0
    6.7121    5.3003    1.8001 H   0  0  0  0  0  0  0  0  0  0  0  0
    7.5000    3.0861    0.8533 H   0  0  0  0  0  0  0  0  0  0  0  0
    8.9456    3.1733    1.8599 H   0  0  0  0  0  0  0  0  0  0  0  0
    8.1765    5.1826   -0.3444 H   0  0  0  0  0  0  0  0  0  0  0  0
    9.3700    3.8592   -0.4844 H   0  0  0  0  0  0  0  0  0  0  0  0
   13.9220    5.6202    1.9739 H   0  0  0  0  0  0  0  0  0  0  0  0
   15.6924    7.1740    2.6892 H   0  0  0  0  0  0  0  0  0  0  0  0
   17.5153    8.6628    3.4107 H   0  0  0  0  0  0  0  0  0  0  0  0
   19.9749   13.0773    5.4981 H   0  0  0  0  0  0  0  0  0  0  0  0
   19.0000   14.4852    4.9856 H   0  0  0  0  0  0  0  0  0  0  0  0
   21.0361   12.9456    3.2616 H   0  0  0  0  0  0  0  0  0  0  0  0
   21.3300   14.4897    4.0618 H   0  0  0  0  0  0  0  0  0  0  0  0
   19.4995   15.5541    2.6697 H   0  0  0  0  0  0  0  0  0  0  0  0
   19.2446   14.0215    1.8434 H   0  0  0  0  0  0  0  0  0  0  0  0
   21.6258   14.0611    1.0143 H   0  0  0  0  0  0  0  0  0  0  0  0
   21.8803   15.6047    1.8254 H   0  0  0  0  0  0  0  0  0  0  0  0
   20.0667   16.6456    0.4118 H   0  0  0  0  0  0  0  0  0  0  0  0
   19.8173   15.1032   -0.4025 H   0  0  0  0  0  0  0  0  0  0  0  0
   22.1983   15.1597   -1.2391 H   0  0  0  0  0  0  0  0  0  0  0  0
   22.4469   16.7031   -0.4253 H   0  0  0  0  0  0  0  0  0  0  0  0
   20.6345   17.7399   -1.8392 H   0  0  0  0  0  0  0  0  0  0  0  0
   20.3865   16.1975   -2.6528 H   0  0  0  0  0  0  0  0  0  0  0  0
   23.0151   17.8271   -2.7138 H   0  0  0  0  0  0  0  0  0  0  0  0
   21.8389   17.7024   -4.0420 H   0  0  0  0  0  0  0  0  0  0  0  0
   22.7649   16.2713   -3.5345 H   0  0  0  0  0  0  0  0  0  0  0  0
   14.4331   12.6306    2.9483 H   0  0  0  0  0  0  0  0  0  0  0  0
   13.1331   12.0172    0.1952 H   0  0  0  0  0  0  0  0  0  0  0  0
   11.6181   13.9455   -0.0673 H   0  0  0  0  0  0  0  0  0  0  0  0
    8.7040   13.0345   -0.1707 H   0  0  0  0  0  0  0  0  0  0  0  0
    7.8300   13.6390   -2.4117 H   0  0  0  0  0  0  0  0  0  0  0  0
    7.8012   16.0260   -3.1506 H   0  0  0  0  0  0  0  0  0  0  0  0
    8.6725   17.7964   -1.6180 H   0  0  0  0  0  0  0  0  0  0  0  0
    9.5759   17.1859    0.6121 H   0  0  0  0  0  0  0  0  0  0  0  0
   11.3311   15.6314    3.5938 H   0  0  0  0  0  0  0  0  0  0  0  0
   10.6589   16.9817    5.5625 H   0  0  0  0  0  0  0  0  0  0  0  0
    8.2724   17.6552    5.8725 H   0  0  0  0  0  0  0  0  0  0  0  0
    6.5677   16.9451    4.1894 H   0  0  0  0  0  0  0  0  0  0  0  0
    7.2371   15.5668    2.2366 H   0  0  0  0  0  0  0  0  0  0  0  0
    9.7783   13.0111    3.7236 H   0  0  0  0  0  0  0  0  0  0  0  0
   11.3079   11.0949    3.9911 H   0  0  0  0  0  0  0  0  0  0  0  0
   10.7718    9.5151    1.3723 H   0  0  0  0  0  0  0  0  0  0  0  0
  1  2  1  0
  1 60  1  0
  1 61  1  0
  1 62  1  0
  2  3  1  0
  2 63  1  0
  2 64  1  0
  3  4  1  0
  3 65  1  0
  3 66  1  0
  4  5  1  0
  4 67  1  0
  4 68  1  0
  5  6  1  0
  5 69  1  0
  5 70  1  0
  6  7  1  0
  6 71  1  0
  6 72  1  0
  7  8  1  0
  7 73  1  0
  7 74  1  0
  8  9  1  0
  8 75  1  0
  8 76  1  0
  9 10  1  0
  9 58  1  0
 10 11  2  0
 10 12  1  0
 12 13  2  0
 12 57  1  0
 13 14  1  0
 13 77  1  0
 14 15  2  0
 14 55  1  0
 15 16  1  0
 15 78  1  0
 16 17  2  0
 16 34  1  0
 17 18  1  0
 17 79  1  0
 18 19  1  0
 18 32  2  0
 19 20  2  0
 19 21  1  0
 21 22  1  0
 21 30  1  0
 22 23  1  0
 22 80  1  0
 22 81  1  0
 23 24  1  0
 23 82  1  0
 23 83  1  0
 24 25  1  0
 24 84  1  0
 24 85  1  0
 25 26  1  0
 25 86  1  0
 25 87  1  0
 26 27  1  0
 26 88  1  0
 26 89  1  0
 27 28  1  0
 27 90  1  0
 27 91  1  0
 28 29  1  0
 28 92  1  0
 28 93  1  0
 29 94  1  0
 29 95  1  0
 29 96  1  0
 30 31  2  0
 30 32  1  0
 32 33  1  0
 33 34  2  0
 33 97  1  0
 34 35  1  0
 35 36  1  0
 35 55  2  0
 36 37  2  0
 36 54  1  0
 37 38  1  0
 37 98  1  0
 38 39  2  0
 38 99  1  0
 39 40  1  0
 39 53  1  0
 40 41  1  0
 40 47  1  0
 41 42  2  0
 41 46  1  0
 42 43  1  0
 42100  1  0
 43 44  2  0
 43101  1  0
 44 45  1  0
 44102  1  0
 45 46  2  0
 45103  1  0
 46104  1  0
 47 48  2  0
 47 52  1  0
 48 49  1  0
 48105  1  0
 49 50  2  0
 49106  1  0
 50 51  1  0
 50107  1  0
 51 52  2  0
 51108  1  0
 52109  1  0
 53 54  2  0
 53110  1  0
 54111  1  0
 55 56  1  0
 56 57  2  0
 56112  1  0
 57 58  1  0
 58 59  2  0
M  END

