
     RDKit          3D

 41 42  0  0  0  0  0  0  0  0999 V2000
    2.0151    0.8236    0.4555 C   0  0  0  0  0  0  0  0  0  0  0  0
    1.7932   -0.5347    0.1596 O   0  0  0  0  0  0  0  0  0  0  0  0
    2.6454   -1.4777    0.6505 C   0  0  0  0  0  0  0  0  0  0  0  0
    3.7567   -1.1888    1.4513 C   0  0  0  0  0  0  0  0  0  0  0  0
    4.5993   -2.2051    1.9287 C   0  0  0  0  0  0  0  0  0  0  0  0
    5.7767   -1.8380    2.8003 C   0  0  0  0  0  0  0  0  0  0  0  0
    4.3174   -3.5448    1.5882 C   0  0  0  0  0  0  0  0  0  0  0  0
    5.2041   -4.6671    2.1143 C   0  0  1  0  0  0  0  0  0  0  0  0
    4.9579   -4.7608    3.5183 O   0  0  0  0  0  0  0  0  0  0  0  0
    5.8799   -5.5178    4.2792 C   0  0  0  0  0  0  0  0  0  0  0  0
    5.4690   -5.4174    5.7383 C   0  0  0  0  0  0  0  0  0  0  0  0
    4.1601   -6.0273    5.9296 N   0  0  0  0  0  0  0  0  0  0  0  0
    5.0217   -6.0068    1.4214 C   0  0  1  0  0  0  0  0  0  0  0  0
    5.5857   -6.2234    0.0401 C   0  0  0  0  0  0  0  0  0  0  0  0
    6.1950   -6.9360    1.2164 C   0  0  0  0  0  0  0  0  0  0  0  0
    3.1994   -3.8089    0.7822 C   0  0  0  0  0  0  0  0  0  0  0  0
    2.3493   -2.8109    0.3014 C   0  0  0  0  0  0  0  0  0  0  0  0
    1.1532   -3.1156   -0.5613 C   0  0  0  0  0  0  0  0  0  0  0  0
    1.2132    1.3887   -0.0393 H   0  0  0  0  0  0  0  0  0  0  0  0
    2.9895    1.1764    0.0709 H   0  0  0  0  0  0  0  0  0  0  0  0
    1.9728    1.0223    1.5420 H   0  0  0  0  0  0  0  0  0  0  0  0
    3.9857   -0.1569    1.7201 H   0  0  0  0  0  0  0  0  0  0  0  0
    5.8448   -0.7497    2.9437 H   0  0  0  0  0  0  0  0  0  0  0  0
    6.7310   -2.1755    2.3606 H   0  0  0  0  0  0  0  0  0  0  0  0
    5.6964   -2.3180    3.7872 H   0  0  0  0  0  0  0  0  0  0  0  0
    6.2637   -4.3654    1.9676 H   0  0  0  0  0  0  0  0  0  0  0  0
    6.9103   -5.1279    4.1405 H   0  0  0  0  0  0  0  0  0  0  0  0
    5.8710   -6.5791    3.9728 H   0  0  0  0  0  0  0  0  0  0  0  0
    5.5305   -4.3486    6.0411 H   0  0  0  0  0  0  0  0  0  0  0  0
    6.2168   -5.9612    6.3424 H   0  0  0  0  0  0  0  0  0  0  0  0
    3.4896   -5.5482    5.3266 H   0  0  0  0  0  0  0  0  0  0  0  0
    3.8379   -5.8927    6.8876 H   0  0  0  0  0  0  0  0  0  0  0  0
    4.0624   -6.4859    1.6445 H   0  0  0  0  0  0  0  0  0  0  0  0
    6.1490   -5.4003   -0.4107 H   0  0  0  0  0  0  0  0  0  0  0  0
    4.9942   -6.8001   -0.6764 H   0  0  0  0  0  0  0  0  0  0  0  0
    7.1795   -6.6037    1.5610 H   0  0  0  0  0  0  0  0  0  0  0  0
    6.0251   -8.0110    1.3239 H   0  0  0  0  0  0  0  0  0  0  0  0
    2.9735   -4.8404    0.5058 H   0  0  0  0  0  0  0  0  0  0  0  0
    1.0638   -4.1957   -0.7482 H   0  0  0  0  0  0  0  0  0  0  0  0
    1.2173   -2.5984   -1.5331 H   0  0  0  0  0  0  0  0  0  0  0  0
    0.2194   -2.7667   -0.0895 H   0  0  0  0  0  0  0  0  0  0  0  0
  1  2  1  0
  1 19  1  0
  1 20  1  0
  1 21  1  0
  2  3  1  0
  3  4  2  0
  3 17  1  0
  4  5  1  0
  4 22  1  0
  5  6  1  0
  5  7  2  0
  6 23  1  0
  6 24  1  0
  6 25  1  0
  7  8  1  0
  7 16  1  0
  8  9  1  0
  8 13  1  0
  8 26  1  1
  9 10  1  0
 10 11  1  0
 10 27  1  0
 10 28  1  0
 11 12  1  0
 11 29  1  0
 11 30  1  0
 12 31  1  0
 12 32  1  0
 13 14  1  0
 13 15  1  0
 13 33  1  6
 14 15  1  0
 14 34  1  0
 14 35  1  0
 15 36  1  0
 15 37  1  0
 16 17  2  0
 16 38  1  0
 17 18  1  0
 18 39  1  0
 18 40  1  0
 18 41  1  0
M  END

