
     RDKit          3D

 52 56  0  0  0  0  0  0  0  0999 V2000
    1.2091   -1.5218    0.4009 C   0  0  0  0  0  0  0  0  0  0  0  0
    2.5416   -0.9971    0.1761 N   0  0  0  0  0  0  0  0  0  0  0  0
    2.9223    0.2966    0.3604 C   0  0  0  0  0  0  0  0  0  0  0  0
    2.1564    1.4136    0.6704 C   0  0  0  0  0  0  0  0  0  0  0  0
    0.8044    1.7937    0.6247 C   0  0  0  0  0  0  0  0  0  0  0  0
   -0.5387    1.4827    0.1072 C   0  0  0  0  0  0  0  0  0  0  0  0
   -1.3678    0.2975   -0.7218 S   0  0  0  0  0  0  0  0  0  0  0  0
   -1.0188    2.7759    0.5806 C   0  0  0  0  0  0  0  0  0  0  0  0
   -2.2898    3.3394    0.4786 C   0  0  0  0  0  0  0  0  0  0  0  0
   -2.6928    4.5875    0.9424 C   0  0  0  0  0  0  0  0  0  0  0  0
   -1.6689    5.7488    1.7867 S   0  0  0  0  0  0  0  0  0  0  0  0
   -3.0188    6.8704    1.9278 C   0  0  0  0  0  0  0  0  0  0  0  0
   -3.0173    8.1307    2.5266 C   0  0  0  0  0  0  0  0  0  0  0  0
   -4.2020    8.8729    2.5336 C   0  0  0  0  0  0  0  0  0  0  0  0
   -5.3645    8.3542    1.9484 C   0  0  0  0  0  0  0  0  0  0  0  0
   -5.3709    7.0926    1.3472 C   0  0  0  0  0  0  0  0  0  0  0  0
   -4.1857    6.3449    1.3371 C   0  0  0  0  0  0  0  0  0  0  0  0
   -3.9720    5.0759    0.7957 N   0  0  0  0  0  0  0  0  0  0  0  0
   -4.9985    4.2954    0.1227 C   0  0  0  0  0  0  0  0  0  0  0  0
    0.3209    3.1166    1.0988 C   0  0  0  0  0  0  0  0  0  0  0  0
    0.8475    4.0694    1.6501 O   0  0  0  0  0  0  0  0  0  0  0  0
    4.4555    0.3892    0.2120 C   0  0  1  0  0  0  0  0  0  0  0  0
    4.8407    1.3757   -0.9111 C   0  0  0  0  0  0  0  0  0  0  0  0
    5.1169    0.8049    1.5457 C   0  0  0  0  0  0  0  0  0  0  0  0
    4.8116   -1.0406   -0.1546 C   0  0  0  0  0  0  0  0  0  0  0  0
    6.0330   -1.6342   -0.4469 C   0  0  0  0  0  0  0  0  0  0  0  0
    6.0698   -3.0035   -0.7590 C   0  0  0  0  0  0  0  0  0  0  0  0
    4.8908   -3.7556   -0.7744 C   0  0  0  0  0  0  0  0  0  0  0  0
    3.6519   -3.1696   -0.4792 C   0  0  0  0  0  0  0  0  0  0  0  0
    3.6383   -1.8092   -0.1655 C   0  0  0  0  0  0  0  0  0  0  0  0
    0.7350   -0.9666    1.2222 H   0  0  0  0  0  0  0  0  0  0  0  0
    1.2805   -2.5810    0.6821 H   0  0  0  0  0  0  0  0  0  0  0  0
    0.5595   -1.3942   -0.4786 H   0  0  0  0  0  0  0  0  0  0  0  0
    2.7665    2.2676    0.9901 H   0  0  0  0  0  0  0  0  0  0  0  0
   -3.0228    2.7047   -0.0271 H   0  0  0  0  0  0  0  0  0  0  0  0
   -2.1061    8.5265    2.9805 H   0  0  0  0  0  0  0  0  0  0  0  0
   -4.2185    9.8611    2.9982 H   0  0  0  0  0  0  0  0  0  0  0  0
   -6.2857    8.9413    1.9591 H   0  0  0  0  0  0  0  0  0  0  0  0
   -6.2883    6.7093    0.8989 H   0  0  0  0  0  0  0  0  0  0  0  0
   -5.9325    4.8652    0.0908 H   0  0  0  0  0  0  0  0  0  0  0  0
   -5.1793    3.3489    0.6557 H   0  0  0  0  0  0  0  0  0  0  0  0
   -4.6925    4.0619   -0.9087 H   0  0  0  0  0  0  0  0  0  0  0  0
    4.5212    2.3985   -0.6601 H   0  0  0  0  0  0  0  0  0  0  0  0
    4.3719    1.0940   -1.8657 H   0  0  0  0  0  0  0  0  0  0  0  0
    5.9331    1.3814   -1.0528 H   0  0  0  0  0  0  0  0  0  0  0  0
    4.8139    1.8222    1.8367 H   0  0  0  0  0  0  0  0  0  0  0  0
    6.2134    0.7925    1.4416 H   0  0  0  0  0  0  0  0  0  0  0  0
    4.8428    0.1160    2.3588 H   0  0  0  0  0  0  0  0  0  0  0  0
    6.9561   -1.0484   -0.4378 H   0  0  0  0  0  0  0  0  0  0  0  0
    7.0231   -3.4818   -0.9953 H   0  0  0  0  0  0  0  0  0  0  0  0
    4.9298   -4.8184   -1.0258 H   0  0  0  0  0  0  0  0  0  0  0  0
    2.7366   -3.7623   -0.5075 H   0  0  0  0  0  0  0  0  0  0  0  0
  1  2  1  0
  1 31  1  0
  1 32  1  0
  1 33  1  0
  2  3  1  0
  2 30  1  0
  3  4  2  0
  3 22  1  0
  4  5  1  0
  4 34  1  0
  5  6  1  0
  5 20  2  0
  6  7  2  0
  6  8  1  0
  8  9  2  0
  8 20  1  0
  9 10  1  0
  9 35  1  0
 10 11  2  0
 10 18  1  0
 11 12  1  0
 12 13  2  0
 12 17  1  0
 13 14  1  0
 13 36  1  0
 14 15  2  0
 14 37  1  0
 15 16  1  0
 15 38  1  0
 16 17  2  0
 16 39  1  0
 17 18  1  0
 18 19  1  0
 19 40  1  0
 19 41  1  0
 19 42  1  0
 20 21  1  0
 22 23  1  6
 22 24  1  0
 22 25  1  0
 23 43  1  0
 23 44  1  0
 23 45  1  0
 24 46  1  0
 24 47  1  0
 24 48  1  0
 25 26  2  0
 25 30  1  0
 26 27  1  0
 26 49  1  0
 27 28  2  0
 27 50  1  0
 28 29  1  0
 28 51  1  0
 29 30  2  0
 29 52  1  0
M  CHG  2  11   1  21  -1
M  END

