
     RDKit          3D

 47 48  0  0  0  0  0  0  0  0999 V2000
    4.4277    0.1743    1.6435 C   0  0  0  0  0  0  0  0  0  0  0  0
    4.1188    0.8433    0.5223 C   0  0  0  0  0  0  0  0  0  0  0  0
    4.2922    0.3965   -0.8703 C   0  0  0  0  0  0  0  0  0  0  0  0
    4.8495   -0.8447   -1.2252 C   0  0  0  0  0  0  0  0  0  0  0  0
    4.9887   -1.2229   -2.5607 C   0  0  0  0  0  0  0  0  0  0  0  0
    4.5753   -0.3877   -3.6139 C   0  0  0  0  0  0  0  0  0  0  0  0
    4.7470   -0.7343   -5.0965 C   0  0  1  0  0  0  0  0  0  0  0  0
    5.3901   -2.1067   -5.3915 C   0  0  0  0  0  0  0  0  0  0  0  0
    4.4369   -3.3005   -5.2065 C   0  0  0  0  0  0  0  0  0  0  0  0
    3.1206   -3.1601   -6.0018 C   0  0  2  0  0  0  0  0  0  0  0  0
    3.2754   -3.3765   -7.5218 C   0  0  0  0  0  0  0  0  0  0  0  0
    3.6437   -4.8045   -7.9394 C   0  0  0  0  0  0  0  0  0  0  0  0
    3.7076   -5.0015   -9.4572 C   0  0  0  0  0  0  0  0  0  0  0  0
    4.0736   -6.4261   -9.8850 C   0  0  0  0  0  0  0  0  0  0  0  0
    4.1336   -6.6143  -11.4015 C   0  0  0  0  0  0  0  0  0  0  0  0
    2.4792   -1.7977   -5.6650 C   0  0  0  0  0  0  0  0  0  0  0  0
    3.4275   -0.6153   -5.9019 C   0  0  0  0  0  0  0  0  0  0  0  0
    4.0315    0.8591   -3.2553 C   0  0  0  0  0  0  0  0  0  0  0  0
    3.8920    1.2415   -1.9227 C   0  0  0  0  0  0  0  0  0  0  0  0
    4.2503    0.6165    2.6268 H   0  0  0  0  0  0  0  0  0  0  0  0
    4.8638   -0.8286    1.6305 H   0  0  0  0  0  0  0  0  0  0  0  0
    3.6827    1.8442    0.6260 H   0  0  0  0  0  0  0  0  0  0  0  0
    5.1860   -1.5330   -0.4464 H   0  0  0  0  0  0  0  0  0  0  0  0
    5.4387   -2.1928   -2.7748 H   0  0  0  0  0  0  0  0  0  0  0  0
    5.4333    0.0355   -5.4953 H   0  0  0  0  0  0  0  0  0  0  0  0
    6.2971   -2.2477   -4.7812 H   0  0  0  0  0  0  0  0  0  0  0  0
    5.7431   -2.0881   -6.4368 H   0  0  0  0  0  0  0  0  0  0  0  0
    4.1777   -3.4058   -4.1402 H   0  0  0  0  0  0  0  0  0  0  0  0
    4.9592   -4.2320   -5.4806 H   0  0  0  0  0  0  0  0  0  0  0  0
    2.4324   -3.9473   -5.6432 H   0  0  0  0  0  0  0  0  0  0  0  0
    4.0218   -2.6781   -7.9402 H   0  0  0  0  0  0  0  0  0  0  0  0
    2.3185   -3.1067   -8.0053 H   0  0  0  0  0  0  0  0  0  0  0  0
    2.9072   -5.5102   -7.5114 H   0  0  0  0  0  0  0  0  0  0  0  0
    4.6178   -5.0881   -7.5022 H   0  0  0  0  0  0  0  0  0  0  0  0
    4.4407   -4.2931   -9.8871 H   0  0  0  0  0  0  0  0  0  0  0  0
    2.7330   -4.7268   -9.9029 H   0  0  0  0  0  0  0  0  0  0  0  0
    3.3413   -7.1333   -9.4542 H   0  0  0  0  0  0  0  0  0  0  0  0
    5.0483   -6.6991   -9.4405 H   0  0  0  0  0  0  0  0  0  0  0  0
    3.1626   -6.3863  -11.8728 H   0  0  0  0  0  0  0  0  0  0  0  0
    4.3991   -7.6489  -11.6721 H   0  0  0  0  0  0  0  0  0  0  0  0
    4.8844   -5.9480  -11.8591 H   0  0  0  0  0  0  0  0  0  0  0  0
    2.1705   -1.8015   -4.6047 H   0  0  0  0  0  0  0  0  0  0  0  0
    1.5568   -1.6596   -6.2549 H   0  0  0  0  0  0  0  0  0  0  0  0
    2.9139    0.3290   -5.6636 H   0  0  0  0  0  0  0  0  0  0  0  0
    3.6838   -0.5542   -6.9736 H   0  0  0  0  0  0  0  0  0  0  0  0
    3.7191    1.5569   -4.0367 H   0  0  0  0  0  0  0  0  0  0  0  0
    3.4663    2.2212   -1.6867 H   0  0  0  0  0  0  0  0  0  0  0  0
  1  2  2  0
  1 20  1  0
  1 21  1  0
  2  3  1  0
  2 22  1  0
  3  4  2  0
  3 19  1  0
  4  5  1  0
  4 23  1  0
  5  6  2  0
  5 24  1  0
  6  7  1  0
  6 18  1  0
  7  8  1  0
  7 17  1  0
  7 25  1  6
  8  9  1  0
  8 26  1  0
  8 27  1  0
  9 10  1  0
  9 28  1  0
  9 29  1  0
 10 11  1  0
 10 16  1  0
 10 30  1  1
 11 12  1  0
 11 31  1  0
 11 32  1  0
 12 13  1  0
 12 33  1  0
 12 34  1  0
 13 14  1  0
 13 35  1  0
 13 36  1  0
 14 15  1  0
 14 37  1  0
 14 38  1  0
 15 39  1  0
 15 40  1  0
 15 41  1  0
 16 17  1  0
 16 42  1  0
 16 43  1  0
 17 44  1  0
 17 45  1  0
 18 19  2  0
 18 46  1  0
 19 47  1  0
M  END

