
     RDKit          3D

 38 39  0  0  0  0  0  0  0  0999 V2000
    2.8259    1.4128   -0.3650 C   0  0  0  0  0  0  0  0  0  0  0  0
    2.3091    0.1153   -0.1670 O   0  0  0  0  0  0  0  0  0  0  0  0
    2.8233   -0.9210   -0.8783 C   0  0  0  0  0  0  0  0  0  0  0  0
    3.8730   -0.8094   -1.7992 C   0  0  0  0  0  0  0  0  0  0  0  0
    4.3145   -1.9264   -2.5180 C   0  0  0  0  0  0  0  0  0  0  0  0
    3.7284   -3.1838   -2.3300 C   0  0  0  0  0  0  0  0  0  0  0  0
    4.2044   -4.4045   -3.1051 C   0  0  1  0  0  0  0  0  0  0  0  0
    4.0103   -4.2398   -4.6238 C   0  0  0  0  0  0  0  0  0  0  0  0
    5.5971   -4.6868   -2.7560 N   0  0  0  0  0  0  0  0  0  0  0  0
    6.2085   -5.9163   -2.8193 C   0  0  0  0  0  0  0  0  0  0  0  0
    5.5705   -7.0550   -3.3610 C   0  0  0  0  0  0  0  0  0  0  0  0
    6.2477   -8.2746   -3.3959 C   0  0  0  0  0  0  0  0  0  0  0  0
    5.4281   -9.6666   -4.0736 Cl  0  0  0  0  0  0  0  0  0  0  0  0
    7.5480   -8.4296   -2.9143 C   0  0  0  0  0  0  0  0  0  0  0  0
    8.1646   -7.2924   -2.3800 C   0  0  0  0  0  0  0  0  0  0  0  0
    9.7961   -7.4314   -1.7584 Cl  0  0  0  0  0  0  0  0  0  0  0  0
    7.5282   -6.0581   -2.3249 C   0  0  0  0  0  0  0  0  0  0  0  0
    2.6891   -3.2912   -1.3937 C   0  0  0  0  0  0  0  0  0  0  0  0
    2.2274   -2.1907   -0.6702 C   0  0  0  0  0  0  0  0  0  0  0  0
    1.1685   -2.3648    0.1703 O   0  0  0  0  0  0  0  0  0  0  0  0
    1.3689   -2.1210    1.5557 C   0  0  0  0  0  0  0  0  0  0  0  0
    2.2530    2.0806    0.2921 H   0  0  0  0  0  0  0  0  0  0  0  0
    2.7021    1.7468   -1.4106 H   0  0  0  0  0  0  0  0  0  0  0  0
    3.8956    1.4763   -0.0951 H   0  0  0  0  0  0  0  0  0  0  0  0
    4.3453    0.1567   -1.9782 H   0  0  0  0  0  0  0  0  0  0  0  0
    5.1239   -1.7963   -3.2415 H   0  0  0  0  0  0  0  0  0  0  0  0
    3.5867   -5.2585   -2.7741 H   0  0  0  0  0  0  0  0  0  0  0  0
    4.5783   -3.3755   -5.0004 H   0  0  0  0  0  0  0  0  0  0  0  0
    2.9463   -4.0838   -4.8607 H   0  0  0  0  0  0  0  0  0  0  0  0
    4.3587   -5.1312   -5.1670 H   0  0  0  0  0  0  0  0  0  0  0  0
    6.0703   -3.9774   -2.2115 H   0  0  0  0  0  0  0  0  0  0  0  0
    4.5580   -7.0052   -3.7560 H   0  0  0  0  0  0  0  0  0  0  0  0
    8.0598   -9.3894   -2.9527 H   0  0  0  0  0  0  0  0  0  0  0  0
    8.0504   -5.1995   -1.8992 H   0  0  0  0  0  0  0  0  0  0  0  0
    2.1986   -4.2495   -1.2067 H   0  0  0  0  0  0  0  0  0  0  0  0
    0.4323   -2.3979    2.0598 H   0  0  0  0  0  0  0  0  0  0  0  0
    1.5922   -1.0627    1.7596 H   0  0  0  0  0  0  0  0  0  0  0  0
    2.1864   -2.7488    1.9550 H   0  0  0  0  0  0  0  0  0  0  0  0
  1  2  1  0
  1 22  1  0
  1 23  1  0
  1 24  1  0
  2  3  1  0
  3  4  2  0
  3 19  1  0
  4  5  1  0
  4 25  1  0
  5  6  2  0
  5 26  1  0
  6  7  1  0
  6 18  1  0
  7  8  1  0
  7  9  1  0
  7 27  1  1
  8 28  1  0
  8 29  1  0
  8 30  1  0
  9 10  1  0
  9 31  1  0
 10 11  2  0
 10 17  1  0
 11 12  1  0
 11 32  1  0
 12 13  1  0
 12 14  2  0
 14 15  1  0
 14 33  1  0
 15 16  1  0
 15 17  2  0
 17 34  1  0
 18 19  2  0
 18 35  1  0
 19 20  1  0
 20 21  1  0
 21 36  1  0
 21 37  1  0
 21 38  1  0
M  END

