
     RDKit          3D

 18 18  0  0  0  0  0  0  0  0999 V2000
    0.9430   -0.0447    0.1132 C   0  0  0  0  0  0  0  0  0  0  0  0
    2.4381   -0.0062   -0.0037 C   0  0  0  0  0  0  0  0  0  0  0  0
    3.1523    1.1359   -0.1058 C   0  0  0  0  0  0  0  0  0  0  0  0
    4.5435    1.1607   -0.2156 N   0  0  0  0  0  0  0  0  0  0  0  0
    5.2652    2.4076   -0.3282 C   0  0  1  0  0  0  0  0  0  0  0  0
    4.3983    3.4277   -0.2883 F   0  0  0  0  0  0  0  0  0  0  0  0
    6.1261    2.5631    0.6727 F   0  0  0  0  0  0  0  0  0  0  0  0
    5.9320    2.4823   -1.4764 F   0  0  0  0  0  0  0  0  0  0  0  0
    5.3173   -0.0268   -0.2340 C   0  0  0  0  0  0  0  0  0  0  0  0
    6.5193   -0.0281   -0.3369 O   0  0  0  0  0  0  0  0  0  0  0  0
    4.5499   -1.1687   -0.1217 N   0  0  0  0  0  0  0  0  0  0  0  0
    5.0760   -2.0396   -0.1313 H   0  0  0  0  0  0  0  0  0  0  0  0
    3.1545   -1.2923   -0.0088 C   0  0  0  0  0  0  0  0  0  0  0  0
    2.6325   -2.3843    0.0772 O   0  0  0  0  0  0  0  0  0  0  0  0
    0.5132    0.9668    0.1257 H   0  0  0  0  0  0  0  0  0  0  0  0
    0.6389   -0.5712    1.0318 H   0  0  0  0  0  0  0  0  0  0  0  0
    0.5017   -0.6063   -0.7259 H   0  0  0  0  0  0  0  0  0  0  0  0
    2.6742    2.1139   -0.1068 H   0  0  0  0  0  0  0  0  0  0  0  0
  1  2  1  0
  1 15  1  0
  1 16  1  0
  1 17  1  0
  2  3  2  0
  2 13  1  0
  3  4  1  0
  3 18  1  0
  4  5  1  0
  4  9  1  0
  5  6  1  6
  5  7  1  0
  5  8  1  0
  9 10  2  0
  9 11  1  0
 11 12  1  0
 11 13  1  0
 13 14  2  0
M  END

