
     RDKit          3D

 50 53  0  0  0  0  0  0  0  0999 V2000
    0.2897   -0.3726    0.4567 C   0  0  0  0  0  0  0  0  0  0  0  0
    1.7730    0.0208    0.3818 C   0  0  0  0  0  0  0  0  0  0  0  0
    2.5591   -0.3325    1.6248 C   0  0  0  0  0  0  0  0  0  0  0  0
    2.8929    0.6133    2.6035 C   0  0  0  0  0  0  0  0  0  0  0  0
    3.6003    0.2607    3.7537 C   0  0  0  0  0  0  0  0  0  0  0  0
    3.9976   -1.0605    3.9317 C   0  0  0  0  0  0  0  0  0  0  0  0
    4.6559   -1.3793    5.0441 F   0  0  0  0  0  0  0  0  0  0  0  0
    3.6998   -2.0616    2.9889 C   0  0  0  0  0  0  0  0  0  0  0  0
    4.2410   -3.4627    3.1823 C   0  0  0  0  0  0  0  0  0  0  0  0
    5.3586   -3.6467    3.6234 O   0  0  0  0  0  0  0  0  0  0  0  0
    3.3645   -4.4692    2.8457 N   0  0  0  0  0  0  0  0  0  0  0  0
    3.5621   -5.8593    2.8966 C   0  0  0  0  0  0  0  0  0  0  0  0
    4.7163   -6.4646    3.4276 C   0  0  0  0  0  0  0  0  0  0  0  0
    4.8271   -7.8531    3.4305 C   0  0  0  0  0  0  0  0  0  0  0  0
    3.8109   -8.6802    2.9263 C   0  0  0  0  0  0  0  0  0  0  0  0
    3.8733  -10.1646    2.9976 C   0  0  0  0  0  0  0  0  0  0  0  0
    2.7322  -10.7553    3.3858 N   0  0  0  0  0  0  0  0  0  0  0  0
    2.6680  -12.0633    3.5978 C   0  0  0  0  0  0  0  0  0  0  0  0
    3.7869  -12.8915    3.4549 C   0  0  0  0  0  0  0  0  0  0  0  0
    3.6699  -14.7455    3.8505 Br  0  0  0  0  0  0  0  0  0  0  0  0
    4.9716  -12.3328    2.9900 C   0  0  0  0  0  0  0  0  0  0  0  0
    5.0263  -10.9542    2.7142 C   0  0  0  0  0  0  0  0  0  0  0  0
    6.2483  -10.4596    2.0719 C   0  0  0  0  0  0  0  0  0  0  0  0
    6.4272   -9.3933    1.3643 N   0  0  0  0  0  0  0  0  0  0  0  0
    7.7221   -9.4684    0.9389 N   0  0  0  0  0  0  0  0  0  0  0  0
    8.3152   -8.4417    0.1140 C   0  0  0  0  0  0  0  0  0  0  0  0
    8.3503  -10.6085    1.3826 C   0  0  0  0  0  0  0  0  0  0  0  0
    9.4656  -11.0128    1.2139 O   0  0  0  0  0  0  0  0  0  0  0  0
    7.3633  -11.2490    2.1278 O   0  0  0  0  0  0  0  0  0  0  0  0
    2.6483   -8.0641    2.4307 C   0  0  0  0  0  0  0  0  0  0  0  0
    2.5302   -6.6798    2.4023 C   0  0  0  0  0  0  0  0  0  0  0  0
    2.9738   -1.6466    1.8633 C   0  0  0  0  0  0  0  0  0  0  0  0
    2.6488   -2.5780    0.9360 F   0  0  0  0  0  0  0  0  0  0  0  0
   -0.2376   -0.0849   -0.4667 H   0  0  0  0  0  0  0  0  0  0  0  0
   -0.2126    0.1226    1.3029 H   0  0  0  0  0  0  0  0  0  0  0  0
    0.1741   -1.4600    0.5845 H   0  0  0  0  0  0  0  0  0  0  0  0
    1.8591    1.1060    0.2117 H   0  0  0  0  0  0  0  0  0  0  0  0
    2.2339   -0.4700   -0.4911 H   0  0  0  0  0  0  0  0  0  0  0  0
    2.5898    1.6536    2.4585 H   0  0  0  0  0  0  0  0  0  0  0  0
    3.8536    0.9941    4.5209 H   0  0  0  0  0  0  0  0  0  0  0  0
    2.4864   -4.1782    2.4329 H   0  0  0  0  0  0  0  0  0  0  0  0
    5.5094   -5.8407    3.8315 H   0  0  0  0  0  0  0  0  0  0  0  0
    5.7260   -8.2974    3.8614 H   0  0  0  0  0  0  0  0  0  0  0  0
    1.7016  -12.4797    3.9024 H   0  0  0  0  0  0  0  0  0  0  0  0
    5.8479  -12.9555    2.8086 H   0  0  0  0  0  0  0  0  0  0  0  0
    8.2913   -7.4702    0.6306 H   0  0  0  0  0  0  0  0  0  0  0  0
    7.7774   -8.3544   -0.8427 H   0  0  0  0  0  0  0  0  0  0  0  0
    9.3564   -8.7333   -0.0753 H   0  0  0  0  0  0  0  0  0  0  0  0
    1.8315   -8.6891    2.0666 H   0  0  0  0  0  0  0  0  0  0  0  0
    1.6224   -6.2229    1.9970 H   0  0  0  0  0  0  0  0  0  0  0  0
  1  2  1  0
  1 34  1  0
  1 35  1  0
  1 36  1  0
  2  3  1  0
  2 37  1  0
  2 38  1  0
  3  4  2  0
  3 32  1  0
  4  5  1  0
  4 39  1  0
  5  6  2  0
  5 40  1  0
  6  7  1  0
  6  8  1  0
  8  9  1  0
  8 32  2  0
  9 10  2  0
  9 11  1  0
 11 12  1  0
 11 41  1  0
 12 13  2  0
 12 31  1  0
 13 14  1  0
 13 42  1  0
 14 15  2  0
 14 43  1  0
 15 16  1  0
 15 30  1  0
 16 17  2  0
 16 22  1  0
 17 18  1  0
 18 19  2  0
 18 44  1  0
 19 20  1  0
 19 21  1  0
 21 22  2  0
 21 45  1  0
 22 23  1  0
 23 24  2  0
 23 29  1  0
 24 25  1  0
 25 26  1  0
 25 27  1  0
 26 46  1  0
 26 47  1  0
 26 48  1  0
 27 28  2  0
 27 29  1  0
 30 31  2  0
 30 49  1  0
 31 50  1  0
 32 33  1  0
M  END

