
     RDKit          3D

 39 41  0  0  0  0  0  0  0  0999 V2000
    1.4090   -1.5368    0.8478 C   0  0  0  0  0  0  0  0  0  0  0  0
    2.6186   -0.8852    0.3337 N   0  0  0  0  0  0  0  0  0  0  0  0
    3.2394    0.1942    0.9533 C   0  0  0  0  0  0  0  0  0  0  0  0
    4.0077    0.9323    0.3611 O   0  0  0  0  0  0  0  0  0  0  0  0
    2.9672    0.4201    2.4200 C   0  0  0  0  0  0  0  0  0  0  0  0
    2.9672   -0.6163    3.3638 C   0  0  0  0  0  0  0  0  0  0  0  0
    2.8279   -0.3222    4.7236 C   0  0  0  0  0  0  0  0  0  0  0  0
    2.6816    0.9988    5.1480 C   0  0  0  0  0  0  0  0  0  0  0  0
    2.6948    2.0496    4.2163 C   0  0  0  0  0  0  0  0  0  0  0  0
    2.5990    3.4975    4.6684 C   0  0  0  0  0  0  0  0  0  0  0  0
    1.6287    3.7314    5.7253 N   0  0  0  0  0  0  0  0  0  0  0  0
    0.2562    3.6150    5.6341 C   0  0  0  0  0  0  0  0  0  0  0  0
   -0.2250    3.9288    6.8864 C   0  0  0  0  0  0  0  0  0  0  0  0
    0.8084    4.2330    7.7362 N   0  0  0  0  0  0  0  0  0  0  0  0
    1.8983    4.1068    7.0161 C   0  0  0  0  0  0  0  0  0  0  0  0
    2.8487    1.7481    2.8605 C   0  0  0  0  0  0  0  0  0  0  0  0
    3.0560   -1.2901   -0.9609 C   0  0  0  0  0  0  0  0  0  0  0  0
    3.1612   -0.3964   -2.0364 C   0  0  0  0  0  0  0  0  0  0  0  0
    3.5763   -0.8645   -3.2795 C   0  0  0  0  0  0  0  0  0  0  0  0
    3.6729    0.0043   -4.2965 F   0  0  0  0  0  0  0  0  0  0  0  0
    3.8843   -2.2047   -3.5030 C   0  0  0  0  0  0  0  0  0  0  0  0
    3.7795   -3.1006   -2.4375 C   0  0  0  0  0  0  0  0  0  0  0  0
    3.3816   -2.6378   -1.1875 C   0  0  0  0  0  0  0  0  0  0  0  0
    3.3103   -3.5085   -0.1640 F   0  0  0  0  0  0  0  0  0  0  0  0
    0.9471   -0.9128    1.6214 H   0  0  0  0  0  0  0  0  0  0  0  0
    1.6111   -2.5347    1.2650 H   0  0  0  0  0  0  0  0  0  0  0  0
    0.6861   -1.6479    0.0246 H   0  0  0  0  0  0  0  0  0  0  0  0
    3.0979   -1.6516    3.0424 H   0  0  0  0  0  0  0  0  0  0  0  0
    2.8369   -1.1315    5.4580 H   0  0  0  0  0  0  0  0  0  0  0  0
    2.5584    1.2188    6.2116 H   0  0  0  0  0  0  0  0  0  0  0  0
    2.3625    4.1408    3.8058 H   0  0  0  0  0  0  0  0  0  0  0  0
    3.5765    3.8347    5.0509 H   0  0  0  0  0  0  0  0  0  0  0  0
   -0.2375    3.3224    4.7105 H   0  0  0  0  0  0  0  0  0  0  0  0
   -1.2641    3.9529    7.2139 H   0  0  0  0  0  0  0  0  0  0  0  0
    2.9205    4.2771    7.3589 H   0  0  0  0  0  0  0  0  0  0  0  0
    2.8909    2.5476    2.1165 H   0  0  0  0  0  0  0  0  0  0  0  0
    2.9408    0.6605   -1.9027 H   0  0  0  0  0  0  0  0  0  0  0  0
    4.2034   -2.5295   -4.4946 H   0  0  0  0  0  0  0  0  0  0  0  0
    4.0173   -4.1593   -2.5565 H   0  0  0  0  0  0  0  0  0  0  0  0
  1  2  1  0
  1 25  1  0
  1 26  1  0
  1 27  1  0
  2  3  1  0
  2 17  1  0
  3  4  2  0
  3  5  1  0
  5  6  2  0
  5 16  1  0
  6  7  1  0
  6 28  1  0
  7  8  2  0
  7 29  1  0
  8  9  1  0
  8 30  1  0
  9 10  1  0
  9 16  2  0
 10 11  1  0
 10 31  1  0
 10 32  1  0
 11 12  1  0
 11 15  1  0
 12 13  2  0
 12 33  1  0
 13 14  1  0
 13 34  1  0
 14 15  2  0
 15 35  1  0
 16 36  1  0
 17 18  2  0
 17 23  1  0
 18 19  1  0
 18 37  1  0
 19 20  1  0
 19 21  2  0
 21 22  1  0
 21 38  1  0
 22 23  2  0
 22 39  1  0
 23 24  1  0
M  END

