
     RDKit          3D

 35 35  0  0  0  0  0  0  0  0999 V2000
    1.0803    0.4720   -0.7271 C   0  0  0  0  0  0  0  0  0  0  0  0
    2.5311    0.2039   -0.3265 C   0  0  0  0  0  0  0  0  0  0  0  0
    2.9489    0.9388    0.9467 C   0  0  0  0  0  0  0  0  0  0  0  0
    4.3370    0.6580    1.3015 N   0  0  0  0  0  0  0  0  0  0  0  0
    4.8435    1.3881    2.4791 C   0  0  1  0  0  0  0  0  0  0  0  0
    4.3660    0.7336    3.8045 C   0  0  0  0  0  0  0  0  0  0  0  0
    4.8360   -0.6762    4.0554 C   0  0  0  0  0  0  0  0  0  0  0  0
    4.5264   -1.6299    3.1182 N   0  0  0  0  0  0  0  0  0  0  0  0
    5.4514   -0.9036    5.1669 N   0  0  0  0  0  0  0  0  0  0  0  0
    5.8056   -2.2717    5.2492 O   0  0  0  0  0  0  0  0  0  0  0  0
    6.3558    1.5379    2.4082 C   0  0  0  0  0  0  0  0  0  0  0  0
    7.1956    0.4480    2.1209 C   0  0  0  0  0  0  0  0  0  0  0  0
    8.5824    0.6108    2.0680 C   0  0  0  0  0  0  0  0  0  0  0  0
    9.1569    1.8626    2.3077 C   0  0  0  0  0  0  0  0  0  0  0  0
    8.3331    2.9528    2.5998 C   0  0  0  0  0  0  0  0  0  0  0  0
    6.9458    2.7887    2.6464 C   0  0  0  0  0  0  0  0  0  0  0  0
    0.8128   -0.0702   -1.6474 H   0  0  0  0  0  0  0  0  0  0  0  0
    0.9032    1.5450   -0.9103 H   0  0  0  0  0  0  0  0  0  0  0  0
    0.3802    0.1514    0.0623 H   0  0  0  0  0  0  0  0  0  0  0  0
    3.2038    0.5031   -1.1519 H   0  0  0  0  0  0  0  0  0  0  0  0
    2.6906   -0.8784   -0.1807 H   0  0  0  0  0  0  0  0  0  0  0  0
    2.2981    0.6176    1.7782 H   0  0  0  0  0  0  0  0  0  0  0  0
    2.7660    2.0303    0.8207 H   0  0  0  0  0  0  0  0  0  0  0  0
    4.9356    0.8722    0.5041 H   0  0  0  0  0  0  0  0  0  0  0  0
    4.4241    2.4162    2.4904 H   0  0  0  0  0  0  0  0  0  0  0  0
    3.2616    0.7444    3.8172 H   0  0  0  0  0  0  0  0  0  0  0  0
    4.7039    1.3482    4.6499 H   0  0  0  0  0  0  0  0  0  0  0  0
    4.4111   -1.2671    2.1716 H   0  0  0  0  0  0  0  0  0  0  0  0
    4.9976   -2.5200    3.2386 H   0  0  0  0  0  0  0  0  0  0  0  0
    6.2766   -2.3116    6.0892 H   0  0  0  0  0  0  0  0  0  0  0  0
    6.7609   -0.5373    1.9453 H   0  0  0  0  0  0  0  0  0  0  0  0
    9.2188   -0.2495    1.8442 H   0  0  0  0  0  0  0  0  0  0  0  0
   10.2421    1.9873    2.2673 H   0  0  0  0  0  0  0  0  0  0  0  0
    8.7701    3.9370    2.7878 H   0  0  0  0  0  0  0  0  0  0  0  0
    6.3080    3.6491    2.8701 H   0  0  0  0  0  0  0  0  0  0  0  0
  1  2  1  0
  1 17  1  0
  1 18  1  0
  1 19  1  0
  2  3  1  0
  2 20  1  0
  2 21  1  0
  3  4  1  0
  3 22  1  0
  3 23  1  0
  4  5  1  0
  4 24  1  0
  5  6  1  0
  5 11  1  0
  5 25  1  6
  6  7  1  0
  6 26  1  0
  6 27  1  0
  7  8  1  0
  7  9  2  0
  8 28  1  0
  8 29  1  0
  9 10  1  0
 10 30  1  0
 11 12  2  0
 11 16  1  0
 12 13  1  0
 12 31  1  0
 13 14  2  0
 13 32  1  0
 14 15  1  0
 14 33  1  0
 15 16  2  0
 15 34  1  0
 16 35  1  0
M  END

