
     RDKit          3D

 27 28  0  0  0  0  0  0  0  0999 V2000
    1.3955    0.1076    0.7066 C   0  0  0  0  0  0  0  0  0  0  0  0
    2.2632   -0.3007   -0.3291 O   0  0  0  0  0  0  0  0  0  0  0  0
    2.8129    0.6243   -1.1433 C   0  0  0  0  0  0  0  0  0  0  0  0
    2.5618    1.9993   -1.0230 C   0  0  0  0  0  0  0  0  0  0  0  0
    3.1654    2.9132   -1.9045 C   0  0  0  0  0  0  0  0  0  0  0  0
    2.9658    4.3004   -1.8485 N   0  0  0  0  0  0  0  0  0  0  0  0
    2.2056    5.0887   -1.0231 C   0  0  0  0  0  0  0  0  0  0  0  0
    1.4713    4.5541   -0.0429 N   0  0  0  0  0  0  0  0  0  0  0  0
    0.7338    5.3269    0.7545 C   0  0  0  0  0  0  0  0  0  0  0  0
    0.6818    6.7126    0.6214 C   0  0  0  0  0  0  0  0  0  0  0  0
   -0.3871    7.7647    1.7885 Br  0  0  0  0  0  0  0  0  0  0  0  0
    1.4373    7.3143   -0.3948 C   0  0  0  0  0  0  0  0  0  0  0  0
    2.2001    6.5041   -1.2187 C   0  0  0  0  0  0  0  0  0  0  0  0
    3.1564    7.2222   -2.5005 Cl  0  0  0  0  0  0  0  0  0  0  0  0
    4.0252    2.4362   -2.9107 C   0  0  0  0  0  0  0  0  0  0  0  0
    4.2735    1.0701   -3.0286 C   0  0  0  0  0  0  0  0  0  0  0  0
    3.6776    0.1610   -2.1573 C   0  0  0  0  0  0  0  0  0  0  0  0
    4.0279   -1.7001   -2.3329 Br  0  0  0  0  0  0  0  0  0  0  0  0
    1.0855   -0.8081    1.2270 H   0  0  0  0  0  0  0  0  0  0  0  0
    0.5000    0.6197    0.3125 H   0  0  0  0  0  0  0  0  0  0  0  0
    1.9011    0.7771    1.4245 H   0  0  0  0  0  0  0  0  0  0  0  0
    1.9009    2.3830   -0.2533 H   0  0  0  0  0  0  0  0  0  0  0  0
    3.4749    4.8232   -2.5523 H   0  0  0  0  0  0  0  0  0  0  0  0
    0.1569    4.8240    1.5372 H   0  0  0  0  0  0  0  0  0  0  0  0
    1.4319    8.3947   -0.5425 H   0  0  0  0  0  0  0  0  0  0  0  0
    4.5017    3.1343   -3.6040 H   0  0  0  0  0  0  0  0  0  0  0  0
    4.9409    0.7025   -3.8099 H   0  0  0  0  0  0  0  0  0  0  0  0
  1  2  1  0
  1 19  1  0
  1 20  1  0
  1 21  1  0
  2  3  1  0
  3  4  2  0
  3 17  1  0
  4  5  1  0
  4 22  1  0
  5  6  1  0
  5 15  2  0
  6  7  1  0
  6 23  1  0
  7  8  2  0
  7 13  1  0
  8  9  1  0
  9 10  2  0
  9 24  1  0
 10 11  1  0
 10 12  1  0
 12 13  2  0
 12 25  1  0
 13 14  1  0
 15 16  1  0
 15 26  1  0
 16 17  2  0
 16 27  1  0
 17 18  1  0
M  END

