
     RDKit          3D

 46 47  0  0  0  0  0  0  0  0999 V2000
    4.4181   -1.7783    0.2795 C   0  0  0  0  0  0  0  0  0  0  0  0
    3.9028   -1.0743   -0.9640 C   0  0  0  0  0  0  0  0  0  0  0  0
    4.6410    0.1328   -1.2496 O   0  0  0  0  0  0  0  0  0  0  0  0
    4.2433    1.2775   -0.5934 C   0  0  0  0  0  0  0  0  0  0  0  0
    3.3135    1.2596    0.1760 O   0  0  0  0  0  0  0  0  0  0  0  0
    5.0616    2.4554   -0.9373 C   0  0  0  0  0  0  0  0  0  0  0  0
    4.8032    3.7830   -0.3984 C   0  0  0  0  0  0  0  0  0  0  0  0
    3.6586    4.2206    0.4470 C   0  0  0  0  0  0  0  0  0  0  0  0
    3.9044    4.9002    1.6524 C   0  0  0  0  0  0  0  0  0  0  0  0
    2.8495    5.3932    2.4263 C   0  0  0  0  0  0  0  0  0  0  0  0
    1.5299    5.2180    2.0046 C   0  0  0  0  0  0  0  0  0  0  0  0
    1.2730    4.5454    0.8045 C   0  0  0  0  0  0  0  0  0  0  0  0
    2.3251    4.0502    0.0348 C   0  0  0  0  0  0  0  0  0  0  0  0
    5.7666    4.6750   -0.7866 C   0  0  0  0  0  0  0  0  0  0  0  0
    6.9909    3.9882   -1.8067 S   0  0  0  0  0  0  0  0  0  0  0  0
    6.2207    2.4332   -1.7246 C   0  0  0  0  0  0  0  0  0  0  0  0
    6.7388    1.3184   -2.3621 N   0  0  0  0  0  0  0  0  0  0  0  0
    7.8862    1.2941   -3.1237 C   0  0  0  0  0  0  0  0  0  0  0  0
    8.5401    2.3246   -3.3229 O   0  0  0  0  0  0  0  0  0  0  0  0
    8.2525    0.0826   -3.6385 N   0  0  0  0  0  0  0  0  0  0  0  0
    7.5474   -1.1495   -3.3211 C   0  0  0  0  0  0  0  0  0  0  0  0
    9.4206    0.0694   -4.5244 C   0  0  0  0  0  0  0  0  0  0  0  0
   10.7897    0.1762   -3.8014 C   0  0  0  0  0  0  0  0  0  0  0  0
   11.6625    1.3592   -4.2420 C   0  0  0  0  0  0  0  0  0  0  0  0
   12.8158    1.2223   -4.5607 O   0  0  0  0  0  0  0  0  0  0  0  0
   11.0664    2.5539   -4.2404 O   0  0  0  0  0  0  0  0  0  0  0  0
    3.8723   -2.7244    0.4244 H   0  0  0  0  0  0  0  0  0  0  0  0
    4.2633   -1.1546    1.1717 H   0  0  0  0  0  0  0  0  0  0  0  0
    5.4909   -2.0130    0.1921 H   0  0  0  0  0  0  0  0  0  0  0  0
    2.8403   -0.8155   -0.8563 H   0  0  0  0  0  0  0  0  0  0  0  0
    4.0294   -1.6970   -1.8623 H   0  0  0  0  0  0  0  0  0  0  0  0
    4.9352    5.0304    1.9909 H   0  0  0  0  0  0  0  0  0  0  0  0
    3.0625    5.9130    3.3641 H   0  0  0  0  0  0  0  0  0  0  0  0
    0.7031    5.6022    2.6076 H   0  0  0  0  0  0  0  0  0  0  0  0
    0.2432    4.4063    0.4651 H   0  0  0  0  0  0  0  0  0  0  0  0
    2.1125    3.5287   -0.9001 H   0  0  0  0  0  0  0  0  0  0  0  0
    5.8004    5.7384   -0.5547 H   0  0  0  0  0  0  0  0  0  0  0  0
    6.1614    0.4884   -2.2340 H   0  0  0  0  0  0  0  0  0  0  0  0
    6.5498   -1.1988   -3.7954 H   0  0  0  0  0  0  0  0  0  0  0  0
    7.4225   -1.2777   -2.2327 H   0  0  0  0  0  0  0  0  0  0  0  0
    8.1326   -2.0029   -3.6855 H   0  0  0  0  0  0  0  0  0  0  0  0
    9.3096    0.8904   -5.2488 H   0  0  0  0  0  0  0  0  0  0  0  0
    9.3740   -0.8631   -5.1024 H   0  0  0  0  0  0  0  0  0  0  0  0
   11.3945   -0.7277   -3.9527 H   0  0  0  0  0  0  0  0  0  0  0  0
   10.6188    0.2727   -2.7159 H   0  0  0  0  0  0  0  0  0  0  0  0
   10.1383    2.5075   -3.9024 H   0  0  0  0  0  0  0  0  0  0  0  0
  1  2  1  0
  1 27  1  0
  1 28  1  0
  1 29  1  0
  2  3  1  0
  2 30  1  0
  2 31  1  0
  3  4  1  0
  4  5  2  0
  4  6  1  0
  6  7  1  0
  6 16  2  0
  7  8  1  0
  7 14  2  0
  8  9  2  0
  8 13  1  0
  9 10  1  0
  9 32  1  0
 10 11  2  0
 10 33  1  0
 11 12  1  0
 11 34  1  0
 12 13  2  0
 12 35  1  0
 13 36  1  0
 14 15  1  0
 14 37  1  0
 15 16  1  0
 16 17  1  0
 17 18  1  0
 17 38  1  0
 18 19  2  0
 18 20  1  0
 20 21  1  0
 20 22  1  0
 21 39  1  0
 21 40  1  0
 21 41  1  0
 22 23  1  0
 22 42  1  0
 22 43  1  0
 23 24  1  0
 23 44  1  0
 23 45  1  0
 24 25  2  0
 24 26  1  0
 26 46  1  0
M  END

