
     RDKit          3D

 23 24  0  0  0  0  0  0  0  0999 V2000
    1.5750    0.4829    0.3583 O   0  0  0  0  0  0  0  0  0  0  0  0
    2.8098   -0.0779   -0.0562 C   0  0  1  0  0  0  0  0  0  0  0  0
    2.9608   -1.5171    0.4543 C   0  0  0  0  0  0  0  0  0  0  0  0
    2.7865   -2.6293   -0.3848 C   0  0  0  0  0  0  0  0  0  0  0  0
    2.8873   -3.9399    0.0830 C   0  0  0  0  0  0  0  0  0  0  0  0
    3.1725   -4.1476    1.4289 C   0  0  0  0  0  0  0  0  0  0  0  0
    3.2791   -5.3959    1.8980 F   0  0  0  0  0  0  0  0  0  0  0  0
    3.3500   -3.0826    2.3087 C   0  0  0  0  0  0  0  0  0  0  0  0
    3.2377   -1.7854    1.8068 C   0  0  0  0  0  0  0  0  0  0  0  0
    3.4571   -0.3478    3.0631 Br  0  0  0  0  0  0  0  0  0  0  0  0
    2.8740    0.0492   -1.5609 C   0  0  0  0  0  0  0  0  0  0  0  0
    1.7065    0.1910   -2.3820 C   0  0  0  0  0  0  0  0  0  0  0  0
    2.0040    0.2917   -3.7145 C   0  0  0  0  0  0  0  0  0  0  0  0
    0.7928    0.4999   -5.1386 Br  0  0  0  0  0  0  0  0  0  0  0  0
    3.7171    0.2226   -4.0192 S   0  0  0  0  0  0  0  0  0  0  0  0
    4.0251    0.0565   -2.3138 C   0  0  0  0  0  0  0  0  0  0  0  0
    5.7961   -0.0926   -1.6903 Br  0  0  0  0  0  0  0  0  0  0  0  0
    1.5884    0.5428    1.3241 H   0  0  0  0  0  0  0  0  0  0  0  0
    3.6547    0.5009    0.3611 H   0  0  0  0  0  0  0  0  0  0  0  0
    2.5701   -2.4607   -1.4412 H   0  0  0  0  0  0  0  0  0  0  0  0
    2.7518   -4.7965   -0.5793 H   0  0  0  0  0  0  0  0  0  0  0  0
    3.5675   -3.2754    3.3594 H   0  0  0  0  0  0  0  0  0  0  0  0
    0.6999    0.2316   -1.9692 H   0  0  0  0  0  0  0  0  0  0  0  0
  1  2  1  0
  1 18  1  0
  2  3  1  0
  2 11  1  0
  2 19  1  1
  3  4  2  0
  3  9  1  0
  4  5  1  0
  4 20  1  0
  5  6  2  0
  5 21  1  0
  6  7  1  0
  6  8  1  0
  8  9  2  0
  8 22  1  0
  9 10  1  0
 11 12  1  0
 11 16  2  0
 12 13  2  0
 12 23  1  0
 13 14  1  0
 13 15  1  0
 15 16  1  0
 16 17  1  0
M  END

