
     RDKit          3D

 43 45  0  0  0  0  0  0  0  0999 V2000
    3.9243   -0.4627    1.6601 C   0  0  0  0  0  0  0  0  0  0  0  0
    4.2466   -0.6884    0.2663 N   0  0  0  0  0  0  0  0  0  0  0  0
    5.1117    0.1379   -0.3523 N   0  0  0  0  0  0  0  0  0  0  0  0
    5.2163   -0.3322   -1.5906 C   0  0  0  0  0  0  0  0  0  0  0  0
    4.4132   -1.4804   -1.7787 C   0  0  0  0  0  0  0  0  0  0  0  0
    3.7936   -1.6887   -0.5517 C   0  0  0  0  0  0  0  0  0  0  0  0
    2.7962   -2.7234   -0.1234 C   0  0  0  0  0  0  0  0  0  0  0  0
    1.3331   -2.2708   -0.2997 C   0  0  0  0  0  0  0  0  0  0  0  0
    0.2675   -3.3332    0.0876 C   0  0  2  0  0  0  0  0  0  0  0  0
    0.5592   -4.5280   -0.7276 N   0  0  0  0  0  0  0  0  0  0  0  0
   -1.1657   -2.8377   -0.2909 C   0  0  0  0  0  0  0  0  0  0  0  0
   -1.6727   -1.4700    0.1753 C   0  0  0  0  0  0  0  0  0  0  0  0
   -1.8472   -1.3118    1.6839 C   0  0  0  0  0  0  0  0  0  0  0  0
   -0.5418   -1.4433    2.4801 C   0  0  0  0  0  0  0  0  0  0  0  0
    0.0039   -2.8524    2.6503 C   0  0  0  0  0  0  0  0  0  0  0  0
    0.1480   -3.3109    3.9722 C   0  0  0  0  0  0  0  0  0  0  0  0
    0.6532   -4.5742    4.2793 C   0  0  0  0  0  0  0  0  0  0  0  0
    1.0379   -5.4143    3.2376 C   0  0  0  0  0  0  0  0  0  0  0  0
    0.9022   -4.9808    1.9171 C   0  0  0  0  0  0  0  0  0  0  0  0
    0.3794   -3.7168    1.5859 C   0  0  0  0  0  0  0  0  0  0  0  0
    4.5462    0.3726    2.0027 H   0  0  0  0  0  0  0  0  0  0  0  0
    4.1445   -1.3524    2.2705 H   0  0  0  0  0  0  0  0  0  0  0  0
    2.8628   -0.1991    1.7949 H   0  0  0  0  0  0  0  0  0  0  0  0
    5.8707    0.1659   -2.3062 H   0  0  0  0  0  0  0  0  0  0  0  0
    4.2996   -2.0857   -2.6757 H   0  0  0  0  0  0  0  0  0  0  0  0
    2.9674   -3.0060    0.9278 H   0  0  0  0  0  0  0  0  0  0  0  0
    2.9590   -3.6371   -0.7112 H   0  0  0  0  0  0  0  0  0  0  0  0
    1.1735   -1.9937   -1.3577 H   0  0  0  0  0  0  0  0  0  0  0  0
    1.1660   -1.3481    0.2726 H   0  0  0  0  0  0  0  0  0  0  0  0
    0.5389   -4.2683   -1.7143 H   0  0  0  0  0  0  0  0  0  0  0  0
   -0.1805   -5.2221   -0.6062 H   0  0  0  0  0  0  0  0  0  0  0  0
   -1.8755   -3.6174    0.0412 H   0  0  0  0  0  0  0  0  0  0  0  0
   -1.2033   -2.8442   -1.3945 H   0  0  0  0  0  0  0  0  0  0  0  0
   -2.6444   -1.2906   -0.3169 H   0  0  0  0  0  0  0  0  0  0  0  0
   -1.0041   -0.6744   -0.1985 H   0  0  0  0  0  0  0  0  0  0  0  0
   -2.5789   -2.0491    2.0598 H   0  0  0  0  0  0  0  0  0  0  0  0
   -2.2796   -0.3168    1.8861 H   0  0  0  0  0  0  0  0  0  0  0  0
   -0.7025   -1.0292    3.4872 H   0  0  0  0  0  0  0  0  0  0  0  0
    0.2196   -0.7903    2.0166 H   0  0  0  0  0  0  0  0  0  0  0  0
   -0.1473   -2.6440    4.7874 H   0  0  0  0  0  0  0  0  0  0  0  0
    0.7466   -4.8910    5.3212 H   0  0  0  0  0  0  0  0  0  0  0  0
    1.4474   -6.4069    3.4433 H   0  0  0  0  0  0  0  0  0  0  0  0
    1.2261   -5.6319    1.1062 H   0  0  0  0  0  0  0  0  0  0  0  0
  1  2  1  0
  1 21  1  0
  1 22  1  0
  1 23  1  0
  2  3  1  0
  2  6  1  0
  3  4  2  0
  4  5  1  0
  4 24  1  0
  5  6  2  0
  5 25  1  0
  6  7  1  0
  7  8  1  0
  7 26  1  0
  7 27  1  0
  8  9  1  0
  8 28  1  0
  8 29  1  0
  9 10  1  6
  9 11  1  0
  9 20  1  0
 10 30  1  0
 10 31  1  0
 11 12  1  0
 11 32  1  0
 11 33  1  0
 12 13  1  0
 12 34  1  0
 12 35  1  0
 13 14  1  0
 13 36  1  0
 13 37  1  0
 14 15  1  0
 14 38  1  0
 14 39  1  0
 15 16  1  0
 15 20  2  0
 16 17  2  0
 16 40  1  0
 17 18  1  0
 17 41  1  0
 18 19  2  0
 18 42  1  0
 19 20  1  0
 19 43  1  0
M  END

