
     RDKit          3D

 40 41  0  0  0  0  0  0  0  0999 V2000
    2.5829   -1.5732   -0.2917 C   0  0  0  0  0  0  0  0  0  0  0  0
    2.3709   -0.3817    0.6424 C   0  0  0  0  0  0  0  0  0  0  0  0
    3.3125   -0.3491    1.8557 C   0  0  0  0  0  0  0  0  0  0  0  0
    4.7347   -0.2469    1.5272 N   0  0  0  0  0  0  0  0  0  0  0  0
    5.2198    1.0601    1.1307 C   0  0  0  0  0  0  0  0  0  0  0  0
    5.5232   -1.3748    1.6786 C   0  0  0  0  0  0  0  0  0  0  0  0
    4.9713   -2.4678    1.9097 O   0  0  0  0  0  0  0  0  0  0  0  0
    6.9790   -1.3270    1.5788 C   0  0  0  0  0  0  0  0  0  0  0  0
    8.0843    0.0743    1.5009 S   0  0  0  0  0  0  0  0  0  0  0  0
    9.4446   -1.0377    1.5854 C   0  0  0  0  0  0  0  0  0  0  0  0
   10.7154   -0.5796    1.5608 N   0  0  0  0  0  0  0  0  0  0  0  0
   11.0821    0.8338    1.4693 C   0  0  0  0  0  0  0  0  0  0  0  0
   12.6010    0.7943    1.2767 C   0  0  0  0  0  0  0  0  0  0  0  0
   13.0345   -0.5010    1.9850 C   0  0  2  0  0  0  0  0  0  0  0  0
   14.3749   -0.9190    1.6272 N   0  0  0  0  0  0  0  0  0  0  0  0
   11.8704   -1.4648    1.6549 C   0  0  0  0  0  0  0  0  0  0  0  0
    9.1336   -2.3080    1.6677 N   0  0  0  0  0  0  0  0  0  0  0  0
    7.7775   -2.4865    1.6788 C   0  0  0  0  0  0  0  0  0  0  0  0
    7.2944   -3.7429    1.7746 N   0  0  0  0  0  0  0  0  0  0  0  0
    1.8546   -1.5618   -1.1188 H   0  0  0  0  0  0  0  0  0  0  0  0
    2.4813   -2.5274    0.2477 H   0  0  0  0  0  0  0  0  0  0  0  0
    3.5919   -1.5592   -0.7329 H   0  0  0  0  0  0  0  0  0  0  0  0
    1.3369   -0.3885    1.0322 H   0  0  0  0  0  0  0  0  0  0  0  0
    2.4635    0.5606    0.0709 H   0  0  0  0  0  0  0  0  0  0  0  0
    3.1840   -1.2665    2.4440 H   0  0  0  0  0  0  0  0  0  0  0  0
    3.0454    0.5075    2.5016 H   0  0  0  0  0  0  0  0  0  0  0  0
    4.3812    1.6476    0.7291 H   0  0  0  0  0  0  0  0  0  0  0  0
    5.9667    0.9886    0.3272 H   0  0  0  0  0  0  0  0  0  0  0  0
    5.6575    1.6362    1.9681 H   0  0  0  0  0  0  0  0  0  0  0  0
   10.7973    1.3718    2.3940 H   0  0  0  0  0  0  0  0  0  0  0  0
   10.5552    1.3244    0.6323 H   0  0  0  0  0  0  0  0  0  0  0  0
   13.1118    1.6834    1.6719 H   0  0  0  0  0  0  0  0  0  0  0  0
   12.8489    0.7174    0.2036 H   0  0  0  0  0  0  0  0  0  0  0  0
   13.0251   -0.3171    3.0744 H   0  0  0  0  0  0  0  0  0  0  0  0
   14.4193   -1.1914    0.6438 H   0  0  0  0  0  0  0  0  0  0  0  0
   14.6645   -1.7316    2.1708 H   0  0  0  0  0  0  0  0  0  0  0  0
   11.7047   -2.2412    2.4175 H   0  0  0  0  0  0  0  0  0  0  0  0
   12.0577   -1.9846    0.6941 H   0  0  0  0  0  0  0  0  0  0  0  0
    7.9450   -4.4909    1.9686 H   0  0  0  0  0  0  0  0  0  0  0  0
    6.2873   -3.8174    1.9178 H   0  0  0  0  0  0  0  0  0  0  0  0
  1  2  1  0
  1 20  1  0
  1 21  1  0
  1 22  1  0
  2  3  1  0
  2 23  1  0
  2 24  1  0
  3  4  1  0
  3 25  1  0
  3 26  1  0
  4  5  1  0
  4  6  1  0
  5 27  1  0
  5 28  1  0
  5 29  1  0
  6  7  2  0
  6  8  1  0
  8  9  1  0
  8 18  2  0
  9 10  1  0
 10 11  1  0
 10 17  2  0
 11 12  1  0
 11 16  1  0
 12 13  1  0
 12 30  1  0
 12 31  1  0
 13 14  1  0
 13 32  1  0
 13 33  1  0
 14 15  1  0
 14 16  1  0
 14 34  1  1
 15 35  1  0
 15 36  1  0
 16 37  1  0
 16 38  1  0
 17 18  1  0
 18 19  1  0
 19 39  1  0
 19 40  1  0
M  END

