
     RDKit          3D

 90101  0  0  0  0  0  0  0  0999 V2000
    1.5030    0.3744    0.0760 N   0  0  0  0  0  0  0  0  0  0  0  0
    2.6596    0.2981    0.0346 C   0  0  0  0  0  0  0  0  0  0  0  0
    4.0980    0.2047   -0.0167 C   0  0  0  0  0  0  0  0  0  0  0  0
    4.6387   -1.0054   -0.0731 N   0  0  0  0  0  0  0  0  0  0  0  0
    5.9731   -1.1164   -0.1214 C   0  0  0  0  0  0  0  0  0  0  0  0
    6.5793   -2.4376   -0.1848 C   0  0  0  0  0  0  0  0  0  0  0  0
    5.7696   -3.5929   -0.1937 C   0  0  0  0  0  0  0  0  0  0  0  0
    6.3325   -4.8543   -0.2542 C   0  0  0  0  0  0  0  0  0  0  0  0
    7.7377   -5.0147   -0.3110 C   0  0  0  0  0  0  0  0  0  0  0  0
    8.3476   -6.3675   -0.3789 C   0  0  0  0  0  0  0  0  0  0  0  0
    9.5038   -6.6109   -1.1445 C   0  0  0  0  0  0  0  0  0  0  0  0
   10.0825   -7.8775   -1.2011 C   0  0  0  0  0  0  0  0  0  0  0  0
    9.5105   -8.9508   -0.5005 C   0  0  0  0  0  0  0  0  0  0  0  0
   10.0920  -10.2412   -0.5609 N   0  0  0  0  0  0  0  0  0  0  0  0
   10.4922  -11.0114    0.5382 C   0  0  0  0  0  0  0  0  0  0  0  0
   10.4560  -10.7044    1.9045 C   0  0  0  0  0  0  0  0  0  0  0  0
   10.9471  -11.6559    2.7999 C   0  0  0  0  0  0  0  0  0  0  0  0
   11.4685  -12.8843    2.3528 C   0  0  0  0  0  0  0  0  0  0  0  0
   11.5158  -13.1800    0.9912 C   0  0  0  0  0  0  0  0  0  0  0  0
   11.0291  -12.2410    0.0702 C   0  0  0  0  0  0  0  0  0  0  0  0
   10.9458  -12.2111   -1.3773 C   0  0  0  0  0  0  0  0  0  0  0  0
   11.2940  -13.1225   -2.3846 C   0  0  0  0  0  0  0  0  0  0  0  0
   11.0562  -12.7871   -3.7167 C   0  0  0  0  0  0  0  0  0  0  0  0
   10.4660  -11.5533   -4.0488 C   0  0  0  0  0  0  0  0  0  0  0  0
   10.1105  -10.6284   -3.0659 C   0  0  0  0  0  0  0  0  0  0  0  0
   10.3646  -10.9632   -1.7297 C   0  0  0  0  0  0  0  0  0  0  0  0
    8.3522   -8.7250    0.2594 C   0  0  0  0  0  0  0  0  0  0  0  0
    7.7869   -7.4526    0.3212 C   0  0  0  0  0  0  0  0  0  0  0  0
    8.5357   -3.8661   -0.3003 C   0  0  0  0  0  0  0  0  0  0  0  0
    7.9946   -2.5661   -0.2381 C   0  0  0  0  0  0  0  0  0  0  0  0
    8.8431   -1.3617   -0.2192 C   0  0  0  0  0  0  0  0  0  0  0  0
   10.2501   -1.4324   -0.2649 C   0  0  0  0  0  0  0  0  0  0  0  0
   11.0625   -0.2938   -0.2548 C   0  0  0  0  0  0  0  0  0  0  0  0
   12.5420   -0.4109   -0.3016 C   0  0  0  0  0  0  0  0  0  0  0  0
   13.3230    0.5268   -1.0040 C   0  0  0  0  0  0  0  0  0  0  0  0
   14.7108    0.4158   -1.0623 C   0  0  0  0  0  0  0  0  0  0  0  0
   15.3681   -0.6311   -0.3969 C   0  0  0  0  0  0  0  0  0  0  0  0
   16.7789   -0.7408   -0.4441 N   0  0  0  0  0  0  0  0  0  0  0  0
   17.6913    0.2629   -0.0935 C   0  0  0  0  0  0  0  0  0  0  0  0
   17.4551    1.5500    0.4062 C   0  0  0  0  0  0  0  0  0  0  0  0
   18.5613    2.3487    0.7002 C   0  0  0  0  0  0  0  0  0  0  0  0
   19.8752    1.8821    0.5090 C   0  0  0  0  0  0  0  0  0  0  0  0
   20.1061    0.5951    0.0255 C   0  0  0  0  0  0  0  0  0  0  0  0
   19.0119   -0.2281   -0.2772 C   0  0  0  0  0  0  0  0  0  0  0  0
   18.8898   -1.5891   -0.7629 C   0  0  0  0  0  0  0  0  0  0  0  0
   19.8209   -2.5688   -1.1363 C   0  0  0  0  0  0  0  0  0  0  0  0
   19.3623   -3.8030   -1.5949 C   0  0  0  0  0  0  0  0  0  0  0  0
   17.9824   -4.0616   -1.6913 C   0  0  0  0  0  0  0  0  0  0  0  0
   17.0350   -3.1040   -1.3258 C   0  0  0  0  0  0  0  0  0  0  0  0
   17.4998   -1.8707   -0.8515 C   0  0  0  0  0  0  0  0  0  0  0  0
   14.6031   -1.5664    0.3180 C   0  0  0  0  0  0  0  0  0  0  0  0
   13.2142   -1.4600    0.3545 C   0  0  0  0  0  0  0  0  0  0  0  0
   10.4364    0.9746   -0.1996 C   0  0  0  0  0  0  0  0  0  0  0  0
    9.0586    1.0788   -0.1533 C   0  0  0  0  0  0  0  0  0  0  0  0
    8.2440   -0.0732   -0.1615 C   0  0  0  0  0  0  0  0  0  0  0  0
    6.7953    0.0513   -0.1111 C   0  0  0  0  0  0  0  0  0  0  0  0
    6.2403    1.2697   -0.0545 N   0  0  0  0  0  0  0  0  0  0  0  0
    4.9184    1.3700   -0.0074 C   0  0  0  0  0  0  0  0  0  0  0  0
    4.3449    2.6920    0.0529 C   0  0  0  0  0  0  0  0  0  0  0  0
    3.8825    3.7546    0.1014 N   0  0  0  0  0  0  0  0  0  0  0  0
    4.6872   -3.4639   -0.1606 H   0  0  0  0  0  0  0  0  0  0  0  0
    5.6845   -5.7324   -0.2848 H   0  0  0  0  0  0  0  0  0  0  0  0
    9.9530   -5.7985   -1.7202 H   0  0  0  0  0  0  0  0  0  0  0  0
   10.9866   -8.0412   -1.7903 H   0  0  0  0  0  0  0  0  0  0  0  0
   10.0634   -9.7518    2.2633 H   0  0  0  0  0  0  0  0  0  0  0  0
   10.9274  -11.4379    3.8707 H   0  0  0  0  0  0  0  0  0  0  0  0
   11.8432  -13.6080    3.0804 H   0  0  0  0  0  0  0  0  0  0  0  0
   11.9306  -14.1297    0.6443 H   0  0  0  0  0  0  0  0  0  0  0  0
   11.7421  -14.0854   -2.1269 H   0  0  0  0  0  0  0  0  0  0  0  0
   11.3238  -13.4881   -4.5107 H   0  0  0  0  0  0  0  0  0  0  0  0
   10.2775  -11.3126   -5.0982 H   0  0  0  0  0  0  0  0  0  0  0  0
    9.6437   -9.6799   -3.3359 H   0  0  0  0  0  0  0  0  0  0  0  0
    7.8933   -9.5552    0.7994 H   0  0  0  0  0  0  0  0  0  0  0  0
    6.8979   -7.2990    0.9368 H   0  0  0  0  0  0  0  0  0  0  0  0
    9.6168   -3.9957   -0.3157 H   0  0  0  0  0  0  0  0  0  0  0  0
   10.7350   -2.4047   -0.3368 H   0  0  0  0  0  0  0  0  0  0  0  0
   12.8352    1.3372   -1.5500 H   0  0  0  0  0  0  0  0  0  0  0  0
   15.2935    1.1332   -1.6429 H   0  0  0  0  0  0  0  0  0  0  0  0
   16.4418    1.9199    0.5693 H   0  0  0  0  0  0  0  0  0  0  0  0
   18.4001    3.3569    1.0903 H   0  0  0  0  0  0  0  0  0  0  0  0
   20.7190    2.5337    0.7475 H   0  0  0  0  0  0  0  0  0  0  0  0
   21.1268    0.2294   -0.1120 H   0  0  0  0  0  0  0  0  0  0  0  0
   20.8926   -2.3647   -1.0721 H   0  0  0  0  0  0  0  0  0  0  0  0
   20.0776   -4.5751   -1.8876 H   0  0  0  0  0  0  0  0  0  0  0  0
   17.6419   -5.0315   -2.0627 H   0  0  0  0  0  0  0  0  0  0  0  0
   15.9680   -3.3133   -1.4151 H   0  0  0  0  0  0  0  0  0  0  0  0
   15.1059   -2.3664    0.8644 H   0  0  0  0  0  0  0  0  0  0  0  0
   12.6448   -2.1837    0.9421 H   0  0  0  0  0  0  0  0  0  0  0  0
   11.0463    1.8794   -0.1660 H   0  0  0  0  0  0  0  0  0  0  0  0
    8.5723    2.0534   -0.0999 H   0  0  0  0  0  0  0  0  0  0  0  0
  1  2  3  0
  2  3  1  0
  3  4  2  0
  3 58  1  0
  4  5  1  0
  5  6  2  0
  5 56  1  0
  6  7  1  0
  6 30  1  0
  7  8  2  0
  7 61  1  0
  8  9  1  0
  8 62  1  0
  9 10  1  0
  9 29  2  0
 10 11  2  0
 10 28  1  0
 11 12  1  0
 11 63  1  0
 12 13  2  0
 12 64  1  0
 13 14  1  0
 13 27  1  0
 14 15  1  0
 14 26  1  0
 15 16  2  0
 15 20  1  0
 16 17  1  0
 16 65  1  0
 17 18  2  0
 17 66  1  0
 18 19  1  0
 18 67  1  0
 19 20  2  0
 19 68  1  0
 20 21  1  0
 21 22  1  0
 21 26  2  0
 22 23  2  0
 22 69  1  0
 23 24  1  0
 23 70  1  0
 24 25  2  0
 24 71  1  0
 25 26  1  0
 25 72  1  0
 27 28  2  0
 27 73  1  0
 28 74  1  0
 29 30  1  0
 29 75  1  0
 30 31  2  0
 31 32  1  0
 31 55  1  0
 32 33  2  0
 32 76  1  0
 33 34  1  0
 33 53  1  0
 34 35  2  0
 34 52  1  0
 35 36  1  0
 35 77  1  0
 36 37  2  0
 36 78  1  0
 37 38  1  0
 37 51  1  0
 38 39  1  0
 38 50  1  0
 39 40  2  0
 39 44  1  0
 40 41  1  0
 40 79  1  0
 41 42  2  0
 41 80  1  0
 42 43  1  0
 42 81  1  0
 43 44  2  0
 43 82  1  0
 44 45  1  0
 45 46  1  0
 45 50  2  0
 46 47  2  0
 46 83  1  0
 47 48  1  0
 47 84  1  0
 48 49  2  0
 48 85  1  0
 49 50  1  0
 49 86  1  0
 51 52  2  0
 51 87  1  0
 52 88  1  0
 53 54  2  0
 53 89  1  0
 54 55  1  0
 54 90  1  0
 55 56  2  0
 56 57  1  0
 57 58  2  0
 58 59  1  0
 59 60  3  0
M  END

