
     RDKit          3D

 52 54  0  0  0  0  0  0  0  0999 V2000
    1.8773   -1.3259   -0.1369 C   0  0  0  0  0  0  0  0  0  0  0  0
    1.8057   -0.0254    0.4090 O   0  0  0  0  0  0  0  0  0  0  0  0
    2.9395    0.3617    1.1270 C   0  0  1  0  0  0  0  0  0  0  0  0
    2.7466    1.8172    1.5930 C   0  0  0  0  0  0  0  0  0  0  0  0
    2.7465    1.7171    3.1269 C   0  0  1  0  0  0  0  0  0  0  0  0
    3.7346    1.9876    3.5329 H   0  0  0  0  0  0  0  0  0  0  0  0
    1.7515    2.4970    3.7849 O   0  0  0  0  0  0  0  0  0  0  0  0
    1.9948    3.8189    3.9410 C   0  0  0  0  0  0  0  0  0  0  0  0
    2.9759    4.3611    3.4851 O   0  0  0  0  0  0  0  0  0  0  0  0
    0.9276    4.4990    4.7253 C   0  0  0  0  0  0  0  0  0  0  0  0
    0.9982    5.8918    4.8739 C   0  0  0  0  0  0  0  0  0  0  0  0
    0.0230    6.5713    5.6024 C   0  0  0  0  0  0  0  0  0  0  0  0
   -1.0421    5.8819    6.2050 C   0  0  0  0  0  0  0  0  0  0  0  0
   -2.0922    6.6088    7.0075 C   0  0  0  0  0  0  0  0  0  0  0  0
   -1.0998    4.4849    6.0526 C   0  0  0  0  0  0  0  0  0  0  0  0
   -0.1327    3.7963    5.3238 C   0  0  0  0  0  0  0  0  0  0  0  0
    2.4394    0.2341    3.3690 C   0  0  2  0  0  0  0  0  0  0  0  0
    1.3463    0.0906    3.2895 H   0  0  0  0  0  0  0  0  0  0  0  0
    2.9202   -0.2854    4.7096 C   0  0  0  0  0  0  0  0  0  0  0  0
    2.4400   -1.6029    4.9895 O   0  0  0  0  0  0  0  0  0  0  0  0
    1.2230   -1.7080    5.5679 C   0  0  0  0  0  0  0  0  0  0  0  0
    0.5416   -0.7494    5.8575 O   0  0  0  0  0  0  0  0  0  0  0  0
    0.8291   -3.1255    5.8064 C   0  0  0  0  0  0  0  0  0  0  0  0
   -0.4034   -3.3765    6.4262 C   0  0  0  0  0  0  0  0  0  0  0  0
   -0.8141   -4.6861    6.6715 C   0  0  0  0  0  0  0  0  0  0  0  0
   -0.0108   -5.7781    6.3047 C   0  0  0  0  0  0  0  0  0  0  0  0
   -0.4550   -7.1977    6.5545 C   0  0  0  0  0  0  0  0  0  0  0  0
    1.2233   -5.5143    5.6836 C   0  0  0  0  0  0  0  0  0  0  0  0
    1.6426   -4.2093    5.4354 C   0  0  0  0  0  0  0  0  0  0  0  0
    3.1197   -0.4140    2.3033 O   0  0  0  0  0  0  0  0  0  0  0  0
    0.9394   -1.5055   -0.6810 H   0  0  0  0  0  0  0  0  0  0  0  0
    1.9943   -2.0915    0.6490 H   0  0  0  0  0  0  0  0  0  0  0  0
    2.7240   -1.4205   -0.8456 H   0  0  0  0  0  0  0  0  0  0  0  0
    3.8480    0.1953    0.5173 H   0  0  0  0  0  0  0  0  0  0  0  0
    1.7698    2.1747    1.2384 H   0  0  0  0  0  0  0  0  0  0  0  0
    3.5256    2.4928    1.2187 H   0  0  0  0  0  0  0  0  0  0  0  0
    1.8278    6.4268    4.4075 H   0  0  0  0  0  0  0  0  0  0  0  0
    0.0874    7.6579    5.7069 H   0  0  0  0  0  0  0  0  0  0  0  0
   -1.9878    7.7001    6.9206 H   0  0  0  0  0  0  0  0  0  0  0  0
   -2.0218    6.3493    8.0778 H   0  0  0  0  0  0  0  0  0  0  0  0
   -3.1080    6.3351    6.6786 H   0  0  0  0  0  0  0  0  0  0  0  0
   -1.9191    3.9272    6.5156 H   0  0  0  0  0  0  0  0  0  0  0  0
   -0.1881    2.7114    5.2209 H   0  0  0  0  0  0  0  0  0  0  0  0
    2.5871    0.4040    5.4987 H   0  0  0  0  0  0  0  0  0  0  0  0
    4.0169   -0.3617    4.7046 H   0  0  0  0  0  0  0  0  0  0  0  0
   -1.0278   -2.5274    6.7111 H   0  0  0  0  0  0  0  0  0  0  0  0
   -1.7768   -4.8670    7.1577 H   0  0  0  0  0  0  0  0  0  0  0  0
   -1.3716   -7.2364    7.1608 H   0  0  0  0  0  0  0  0  0  0  0  0
    0.3250   -7.7753    7.0770 H   0  0  0  0  0  0  0  0  0  0  0  0
   -0.6589   -7.7215    5.6048 H   0  0  0  0  0  0  0  0  0  0  0  0
    1.8662   -6.3497    5.3908 H   0  0  0  0  0  0  0  0  0  0  0  0
    2.6014   -4.0181    4.9520 H   0  0  0  0  0  0  0  0  0  0  0  0
  1  2  1  0
  1 31  1  0
  1 32  1  0
  1 33  1  0
  2  3  1  0
  3  4  1  0
  3 30  1  0
  3 34  1  6
  4  5  1  0
  4 35  1  0
  4 36  1  0
  5  6  1  1
  5  7  1  0
  5 17  1  0
  7  8  1  0
  8  9  2  0
  8 10  1  0
 10 11  2  0
 10 16  1  0
 11 12  1  0
 11 37  1  0
 12 13  2  0
 12 38  1  0
 13 14  1  0
 13 15  1  0
 14 39  1  0
 14 40  1  0
 14 41  1  0
 15 16  2  0
 15 42  1  0
 16 43  1  0
 17 18  1  6
 17 19  1  0
 17 30  1  0
 19 20  1  0
 19 44  1  0
 19 45  1  0
 20 21  1  0
 21 22  2  0
 21 23  1  0
 23 24  2  0
 23 29  1  0
 24 25  1  0
 24 46  1  0
 25 26  2  0
 25 47  1  0
 26 27  1  0
 26 28  1  0
 27 48  1  0
 27 49  1  0
 27 50  1  0
 28 29  2  0
 28 51  1  0
 29 52  1  0
M  END

