
     RDKit          3D

 55 58  0  0  0  0  0  0  0  0999 V2000
   11.1186    1.9861   -4.7786 N   0  0  0  0  0  0  0  0  0  0  0  0
   11.3272    1.5998   -3.4726 C   0  0  0  0  0  0  0  0  0  0  0  0
   10.4227    1.9664   -2.4485 C   0  0  0  0  0  0  0  0  0  0  0  0
   10.6522    1.5211   -1.1437 C   0  0  0  0  0  0  0  0  0  0  0  0
    9.7945    1.8870    0.0031 C   0  0  0  0  0  0  0  0  0  0  0  0
   10.2988    2.2660    1.1656 N   0  0  0  0  0  0  0  0  0  0  0  0
    9.2357    2.5913    1.9571 C   0  0  0  0  0  0  0  0  0  0  0  0
    8.0588    2.3961    1.2718 C   0  0  0  0  0  0  0  0  0  0  0  0
    8.4088    1.9284    0.0217 N   0  0  0  0  0  0  0  0  0  0  0  0
    7.4436    1.4994   -0.9883 C   0  0  0  0  0  0  0  0  0  0  0  0
    6.9348    0.0019   -0.9862 C   0  0  1  0  0  0  0  0  0  0  0  0
    6.1082   -0.3576    0.1801 N   0  0  0  0  0  0  0  0  0  0  0  0
    4.8989    0.4172    0.4285 C   0  0  0  0  0  0  0  0  0  0  0  0
    3.9497   -0.3598    1.3421 C   0  0  0  0  0  0  0  0  0  0  0  0
    4.5726   -0.7237    2.5535 O   0  0  0  0  0  0  0  0  0  0  0  0
    5.7370   -1.4902    2.3177 C   0  0  0  0  0  0  0  0  0  0  0  0
    6.7383   -0.7325    1.4479 C   0  0  0  0  0  0  0  0  0  0  0  0
    6.0824   -0.0608   -2.2957 C   0  0  0  0  0  0  0  0  0  0  0  0
    5.2663   -1.3224   -2.5884 C   0  0  0  0  0  0  0  0  0  0  0  0
    6.0630   -2.6175   -2.7795 C   0  0  0  0  0  0  0  0  0  0  0  0
    6.7127   -3.1408   -1.4937 C   0  0  0  0  0  0  0  0  0  0  0  0
    8.0293   -2.4696   -1.0746 C   0  0  0  0  0  0  0  0  0  0  0  0
    8.1680   -0.9263   -1.1311 C   0  0  0  0  0  0  0  0  0  0  0  0
   11.8028    0.7424   -0.9061 C   0  0  0  0  0  0  0  0  0  0  0  0
   12.6275    0.4383   -1.9852 C   0  0  0  0  0  0  0  0  0  0  0  0
   12.4064    0.8428   -3.2390 N   0  0  0  0  0  0  0  0  0  0  0  0
   10.5444    2.8003   -4.9552 H   0  0  0  0  0  0  0  0  0  0  0  0
   11.9184    1.8682   -5.3903 H   0  0  0  0  0  0  0  0  0  0  0  0
    9.5843    2.6252   -2.6830 H   0  0  0  0  0  0  0  0  0  0  0  0
    9.3648    2.9593    2.9745 H   0  0  0  0  0  0  0  0  0  0  0  0
    7.0204    2.5424    1.5554 H   0  0  0  0  0  0  0  0  0  0  0  0
    7.8756    1.6973   -1.9747 H   0  0  0  0  0  0  0  0  0  0  0  0
    6.5707    2.1612   -0.8916 H   0  0  0  0  0  0  0  0  0  0  0  0
    4.3753    0.6316   -0.5140 H   0  0  0  0  0  0  0  0  0  0  0  0
    5.1114    1.3970    0.9136 H   0  0  0  0  0  0  0  0  0  0  0  0
    3.5898   -1.2635    0.8074 H   0  0  0  0  0  0  0  0  0  0  0  0
    3.0770    0.2602    1.6010 H   0  0  0  0  0  0  0  0  0  0  0  0
    5.4694   -2.4502    1.8297 H   0  0  0  0  0  0  0  0  0  0  0  0
    6.1788   -1.7119    3.3016 H   0  0  0  0  0  0  0  0  0  0  0  0
    7.6079   -1.3764    1.2710 H   0  0  0  0  0  0  0  0  0  0  0  0
    7.0948    0.1447    2.0232 H   0  0  0  0  0  0  0  0  0  0  0  0
    6.7772    0.1093   -3.1357 H   0  0  0  0  0  0  0  0  0  0  0  0
    5.3943    0.8018   -2.3189 H   0  0  0  0  0  0  0  0  0  0  0  0
    4.6853   -1.1246   -3.5064 H   0  0  0  0  0  0  0  0  0  0  0  0
    4.5242   -1.4811   -1.7879 H   0  0  0  0  0  0  0  0  0  0  0  0
    6.8270   -2.4809   -3.5683 H   0  0  0  0  0  0  0  0  0  0  0  0
    5.3715   -3.3870   -3.1635 H   0  0  0  0  0  0  0  0  0  0  0  0
    6.9182   -4.2197   -1.6033 H   0  0  0  0  0  0  0  0  0  0  0  0
    5.9771   -3.0523   -0.6779 H   0  0  0  0  0  0  0  0  0  0  0  0
    8.8420   -2.8717   -1.7042 H   0  0  0  0  0  0  0  0  0  0  0  0
    8.2659   -2.8228   -0.0572 H   0  0  0  0  0  0  0  0  0  0  0  0
    8.6257   -0.6508   -2.0935 H   0  0  0  0  0  0  0  0  0  0  0  0
    8.9202   -0.6417   -0.3803 H   0  0  0  0  0  0  0  0  0  0  0  0
   12.0350    0.4017    0.1028 H   0  0  0  0  0  0  0  0  0  0  0  0
   13.5276   -0.1688   -1.8288 H   0  0  0  0  0  0  0  0  0  0  0  0
  1  2  1  0
  1 27  1  0
  1 28  1  0
  2  3  2  0
  2 26  1  0
  3  4  1  0
  3 29  1  0
  4  5  1  0
  4 24  2  0
  5  6  2  0
  5  9  1  0
  6  7  1  0
  7  8  2  0
  7 30  1  0
  8  9  1  0
  8 31  1  0
  9 10  1  0
 11 10  1  1
 10 32  1  0
 10 33  1  0
 11 12  1  0
 11 18  1  0
 11 23  1  0
 12 13  1  0
 12 17  1  0
 13 14  1  0
 13 34  1  0
 13 35  1  0
 14 15  1  0
 14 36  1  0
 14 37  1  0
 15 16  1  0
 16 17  1  0
 16 38  1  0
 16 39  1  0
 17 40  1  0
 17 41  1  0
 18 19  1  0
 18 42  1  0
 18 43  1  0
 19 20  1  0
 19 44  1  0
 19 45  1  0
 20 21  1  0
 20 46  1  0
 20 47  1  0
 21 22  1  0
 21 48  1  0
 21 49  1  0
 22 23  1  0
 22 50  1  0
 22 51  1  0
 23 52  1  0
 23 53  1  0
 24 25  1  0
 24 54  1  0
 25 26  2  0
 25 55  1  0
M  END

