
     RDKit          3D

 54 57  0  0  0  0  0  0  0  0999 V2000
    1.0289    0.3533    0.9409 C   0  0  0  0  0  0  0  0  0  0  0  0
    2.4166    0.2695    0.3531 C   0  0  0  0  0  0  0  0  0  0  0  0
    3.2031   -0.8815    0.4652 C   0  0  0  0  0  0  0  0  0  0  0  0
    4.4931   -0.9547   -0.0710 C   0  0  0  0  0  0  0  0  0  0  0  0
    5.0557    0.1333   -0.7688 C   0  0  0  0  0  0  0  0  0  0  0  0
    6.3314    0.0722   -1.3586 N   0  0  0  0  0  0  0  0  0  0  0  0
    7.0422   -1.2006   -1.3566 C   0  0  0  0  0  0  0  0  0  0  0  0
    8.1797   -1.1886   -2.3882 C   0  0  0  0  0  0  0  0  0  0  0  0
    9.1050   -0.0692   -2.2360 N   0  0  0  0  0  0  0  0  0  0  0  0
   10.0935   -0.1738   -1.1655 C   0  0  0  0  0  0  0  0  0  0  0  0
   11.0874   -1.3230   -1.3645 C   0  0  0  0  0  0  0  0  0  0  0  0
   11.7884   -1.2813   -2.7260 C   0  0  0  0  0  0  0  0  0  0  0  0
   12.5976   -2.4633   -2.9828 N   0  0  0  0  0  0  0  0  0  0  0  0
   12.0791   -3.6913   -3.3438 C   0  0  0  0  0  0  0  0  0  0  0  0
   10.9112   -3.9557   -3.5261 O   0  0  0  0  0  0  0  0  0  0  0  0
   13.2800   -4.6263   -3.4733 C   0  0  2  0  0  0  0  0  0  0  0  0
   13.3065   -5.0197   -4.5061 H   0  0  0  0  0  0  0  0  0  0  0  0
   13.4308   -5.7679   -2.4533 C   0  0  0  0  0  0  0  0  0  0  0  0
   14.9630   -5.9191   -2.3722 C   0  0  0  0  0  0  0  0  0  0  0  0
   15.5117   -4.4778   -2.5204 C   0  0  0  0  0  0  0  0  0  0  0  0
   14.4203   -3.7579   -3.1869 N   0  0  0  0  0  0  0  0  0  0  0  0
   13.9955   -2.5136   -2.7690 C   0  0  0  0  0  0  0  0  0  0  0  0
   14.6607   -1.6291   -2.2812 O   0  0  0  0  0  0  0  0  0  0  0  0
    8.3522    1.1781   -2.2558 C   0  0  0  0  0  0  0  0  0  0  0  0
    7.2182    1.2293   -1.2230 C   0  0  0  0  0  0  0  0  0  0  0  0
    4.2588    1.2966   -0.8848 C   0  0  0  0  0  0  0  0  0  0  0  0
    2.9820    1.3569   -0.3362 C   0  0  0  0  0  0  0  0  0  0  0  0
    0.7279   -0.6004    1.4000 H   0  0  0  0  0  0  0  0  0  0  0  0
    0.2773    0.6062    0.1737 H   0  0  0  0  0  0  0  0  0  0  0  0
    0.9640    1.1324    1.7201 H   0  0  0  0  0  0  0  0  0  0  0  0
    2.8075   -1.7521    0.9977 H   0  0  0  0  0  0  0  0  0  0  0  0
    5.0606   -1.8739    0.0715 H   0  0  0  0  0  0  0  0  0  0  0  0
    6.3404   -2.0031   -1.6277 H   0  0  0  0  0  0  0  0  0  0  0  0
    7.4379   -1.4485   -0.3460 H   0  0  0  0  0  0  0  0  0  0  0  0
    7.7272   -1.1134   -3.3927 H   0  0  0  0  0  0  0  0  0  0  0  0
    8.7261   -2.1429   -2.3620 H   0  0  0  0  0  0  0  0  0  0  0  0
    9.6483   -0.2772   -0.1515 H   0  0  0  0  0  0  0  0  0  0  0  0
   10.6500    0.7796   -1.1522 H   0  0  0  0  0  0  0  0  0  0  0  0
   10.5746   -2.2925   -1.2577 H   0  0  0  0  0  0  0  0  0  0  0  0
   11.8399   -1.2767   -0.5597 H   0  0  0  0  0  0  0  0  0  0  0  0
   12.4613   -0.4137   -2.7896 H   0  0  0  0  0  0  0  0  0  0  0  0
   11.0394   -1.1979   -3.5256 H   0  0  0  0  0  0  0  0  0  0  0  0
   12.9124   -6.6878   -2.7577 H   0  0  0  0  0  0  0  0  0  0  0  0
   13.0190   -5.4529   -1.4798 H   0  0  0  0  0  0  0  0  0  0  0  0
   15.3197   -6.5453   -3.2061 H   0  0  0  0  0  0  0  0  0  0  0  0
   15.2968   -6.3977   -1.4398 H   0  0  0  0  0  0  0  0  0  0  0  0
   16.4394   -4.4482   -3.1132 H   0  0  0  0  0  0  0  0  0  0  0  0
   15.7268   -3.9984   -1.5513 H   0  0  0  0  0  0  0  0  0  0  0  0
    7.9107    1.2987   -3.2616 H   0  0  0  0  0  0  0  0  0  0  0  0
    9.0381    2.0252   -2.0919 H   0  0  0  0  0  0  0  0  0  0  0  0
    6.6499    2.1566   -1.3698 H   0  0  0  0  0  0  0  0  0  0  0  0
    7.6410    1.2771   -0.1949 H   0  0  0  0  0  0  0  0  0  0  0  0
    4.6328    2.1600   -1.4373 H   0  0  0  0  0  0  0  0  0  0  0  0
    2.4005    2.2762   -0.4593 H   0  0  0  0  0  0  0  0  0  0  0  0
  1  2  1  0
  1 28  1  0
  1 29  1  0
  1 30  1  0
  2  3  2  0
  2 27  1  0
  3  4  1  0
  3 31  1  0
  4  5  2  0
  4 32  1  0
  5  6  1  0
  5 26  1  0
  6  7  1  0
  6 25  1  0
  7  8  1  0
  7 33  1  0
  7 34  1  0
  8  9  1  0
  8 35  1  0
  8 36  1  0
  9 10  1  0
  9 24  1  0
 10 11  1  0
 10 37  1  0
 10 38  1  0
 11 12  1  0
 11 39  1  0
 11 40  1  0
 12 13  1  0
 12 41  1  0
 12 42  1  0
 13 14  1  0
 13 22  1  0
 14 15  2  0
 14 16  1  0
 16 17  1  6
 16 18  1  0
 16 21  1  0
 18 19  1  0
 18 43  1  0
 18 44  1  0
 19 20  1  0
 19 45  1  0
 19 46  1  0
 20 21  1  0
 20 47  1  0
 20 48  1  0
 21 22  1  0
 22 23  2  0
 24 25  1  0
 24 49  1  0
 24 50  1  0
 25 51  1  0
 25 52  1  0
 26 27  2  0
 26 53  1  0
 27 54  1  0
M  END

