
     RDKit          3D

 38 39  0  0  0  0  0  0  0  0999 V2000
    0.8204   -0.0058   -0.2706 C   0  0  0  0  0  0  0  0  0  0  0  0
    2.2677   -0.1055   -0.1577 N   0  0  0  0  0  0  0  0  0  0  0  0
    2.9938    1.0857    0.2428 C   0  0  0  0  0  0  0  0  0  0  0  0
    3.7159    1.8432   -0.8699 C   0  0  0  0  0  0  0  0  0  0  0  0
    3.5569    1.5116   -2.2216 C   0  0  0  0  0  0  0  0  0  0  0  0
    4.2200    2.2450   -3.2133 C   0  0  0  0  0  0  0  0  0  0  0  0
    5.0482    3.3156   -2.8748 C   0  0  0  0  0  0  0  0  0  0  0  0
    5.1991    3.6327   -1.5249 C   0  0  0  0  0  0  0  0  0  0  0  0
    5.9942    4.6552   -1.1804 F   0  0  0  0  0  0  0  0  0  0  0  0
    4.5518    2.9169   -0.5231 C   0  0  0  0  0  0  0  0  0  0  0  0
    2.8402   -1.3722   -0.2036 C   0  0  0  0  0  0  0  0  0  0  0  0
    2.1693   -2.3903   -0.2564 O   0  0  0  0  0  0  0  0  0  0  0  0
    4.2293   -1.3686   -0.1949 N   0  0  0  0  0  0  0  0  0  0  0  0
    5.0924   -2.4793   -0.1557 C   0  0  0  0  0  0  0  0  0  0  0  0
    4.6578   -3.8060    0.0308 C   0  0  0  0  0  0  0  0  0  0  0  0
    5.5877   -4.8434    0.0710 C   0  0  0  0  0  0  0  0  0  0  0  0
    6.9540   -4.5867   -0.0648 C   0  0  0  0  0  0  0  0  0  0  0  0
    7.8105   -5.6727    0.0172 O   0  0  0  0  0  0  0  0  0  0  0  0
    8.9107   -5.7051   -0.7857 C   0  0  1  0  0  0  0  0  0  0  0  0
    9.9319   -4.9846   -0.2440 F   0  0  0  0  0  0  0  0  0  0  0  0
    9.3183   -6.9784   -0.8568 F   0  0  0  0  0  0  0  0  0  0  0  0
    7.4017   -3.2732   -0.2371 C   0  0  0  0  0  0  0  0  0  0  0  0
    6.4706   -2.2353   -0.2900 C   0  0  0  0  0  0  0  0  0  0  0  0
    0.3469    0.1900    0.7092 H   0  0  0  0  0  0  0  0  0  0  0  0
    0.4305   -0.9550   -0.6549 H   0  0  0  0  0  0  0  0  0  0  0  0
    0.5440    0.8095   -0.9590 H   0  0  0  0  0  0  0  0  0  0  0  0
    3.7168    0.8356    1.0390 H   0  0  0  0  0  0  0  0  0  0  0  0
    2.2713    1.7710    0.7173 H   0  0  0  0  0  0  0  0  0  0  0  0
    2.9133    0.6741   -2.4967 H   0  0  0  0  0  0  0  0  0  0  0  0
    4.0883    1.9771   -4.2644 H   0  0  0  0  0  0  0  0  0  0  0  0
    5.5769    3.9024   -3.6282 H   0  0  0  0  0  0  0  0  0  0  0  0
    4.7070    3.2083    0.5190 H   0  0  0  0  0  0  0  0  0  0  0  0
    4.6924   -0.4883   -0.3843 H   0  0  0  0  0  0  0  0  0  0  0  0
    3.5941   -4.0099    0.1238 H   0  0  0  0  0  0  0  0  0  0  0  0
    5.2588   -5.8755    0.2079 H   0  0  0  0  0  0  0  0  0  0  0  0
    8.7140   -5.3091   -1.7995 H   0  0  0  0  0  0  0  0  0  0  0  0
    8.4677   -3.0546   -0.3077 H   0  0  0  0  0  0  0  0  0  0  0  0
    6.8284   -1.2101   -0.4247 H   0  0  0  0  0  0  0  0  0  0  0  0
  1  2  1  0
  1 24  1  0
  1 25  1  0
  1 26  1  0
  2  3  1  0
  2 11  1  0
  3  4  1  0
  3 27  1  0
  3 28  1  0
  4  5  2  0
  4 10  1  0
  5  6  1  0
  5 29  1  0
  6  7  2  0
  6 30  1  0
  7  8  1  0
  7 31  1  0
  8  9  1  0
  8 10  2  0
 10 32  1  0
 11 12  2  0
 11 13  1  0
 13 14  1  0
 13 33  1  0
 14 15  2  0
 14 23  1  0
 15 16  1  0
 15 34  1  0
 16 17  2  0
 16 35  1  0
 17 18  1  0
 17 22  1  0
 18 19  1  0
 19 20  1  0
 19 21  1  0
 19 36  1  6
 22 23  2  0
 22 37  1  0
 23 38  1  0
M  END

