
     RDKit          3D

 29 30  0  0  0  0  0  0  0  0999 V2000
    0.9508    4.3502   -0.5639 C   0  0  0  0  0  0  0  0  0  0  0  0
    2.2383    4.4525    0.0124 O   0  0  0  0  0  0  0  0  0  0  0  0
    2.9188    3.3250    0.3129 C   0  0  0  0  0  0  0  0  0  0  0  0
    2.4517    2.0152    0.1042 C   0  0  0  0  0  0  0  0  0  0  0  0
    3.1784    0.9427    0.4253 N   0  0  0  0  0  0  0  0  0  0  0  0
    4.3836    1.0918    0.9603 C   0  0  0  0  0  0  0  0  0  0  0  0
    4.9346    2.3654    1.2066 C   0  0  0  0  0  0  0  0  0  0  0  0
    6.2259    2.4822    1.7800 N   0  0  0  0  0  0  0  0  0  0  0  0
    6.9078    3.6328    2.0829 C   0  0  0  0  0  0  0  0  0  0  0  0
    8.1181    3.2328    2.6220 C   0  0  0  0  0  0  0  0  0  0  0  0
    9.1880    3.9866    3.0987 N   0  0  0  0  0  0  0  0  0  0  0  0
    9.2175    5.3457    3.1123 C   0  0  0  0  0  0  0  0  0  0  0  0
    8.3332    6.0779    2.7222 O   0  0  0  0  0  0  0  0  0  0  0  0
   10.5207    5.9468    3.6946 C   0  0  1  0  0  0  0  0  0  0  0  0
   11.3849    4.9880    4.0941 F   0  0  0  0  0  0  0  0  0  0  0  0
   11.1317    6.6928    2.7750 F   0  0  0  0  0  0  0  0  0  0  0  0
   10.2416    6.7132    4.7478 F   0  0  0  0  0  0  0  0  0  0  0  0
    8.0586    1.8123    2.5951 C   0  0  0  0  0  0  0  0  0  0  0  0
    9.3067    0.7574    3.1506 Cl  0  0  0  0  0  0  0  0  0  0  0  0
    6.9264    1.3732    2.0907 N   0  0  0  0  0  0  0  0  0  0  0  0
    4.1906    3.4966    0.8777 C   0  0  0  0  0  0  0  0  0  0  0  0
    0.5996    5.3782   -0.7216 H   0  0  0  0  0  0  0  0  0  0  0  0
    0.2446    3.8273    0.1048 H   0  0  0  0  0  0  0  0  0  0  0  0
    0.9790    3.8264   -1.5355 H   0  0  0  0  0  0  0  0  0  0  0  0
    1.4673    1.8262   -0.3327 H   0  0  0  0  0  0  0  0  0  0  0  0
    4.9544    0.1959    1.2125 H   0  0  0  0  0  0  0  0  0  0  0  0
    6.5243    4.6312    1.9122 H   0  0  0  0  0  0  0  0  0  0  0  0
    9.9859    3.4693    3.4562 H   0  0  0  0  0  0  0  0  0  0  0  0
    4.5494    4.5132    1.0383 H   0  0  0  0  0  0  0  0  0  0  0  0
  1  2  1  0
  1 22  1  0
  1 23  1  0
  1 24  1  0
  2  3  1  0
  3  4  2  0
  3 21  1  0
  4  5  1  0
  4 25  1  0
  5  6  2  0
  6  7  1  0
  6 26  1  0
  7  8  1  0
  7 21  2  0
  8  9  1  0
  8 20  1  0
  9 10  2  0
  9 27  1  0
 10 11  1  0
 10 18  1  0
 11 12  1  0
 11 28  1  0
 12 13  2  0
 12 14  1  0
 14 15  1  1
 14 16  1  0
 14 17  1  0
 18 19  1  0
 18 20  2  0
 21 29  1  0
M  END

