
     RDKit          3D

 71 71  0  0  0  0  0  0  0  0999 V2000
    1.0629   -0.4529   -0.0525 C   0  0  0  0  0  0  0  0  0  0  0  0
    2.5849   -0.3179   -0.1168 C   0  0  0  0  0  0  0  0  0  0  0  0
    3.0724    1.1344   -0.1312 C   0  0  0  0  0  0  0  0  0  0  0  0
    4.5956    1.2786   -0.1950 C   0  0  0  0  0  0  0  0  0  0  0  0
    5.0821    2.7309   -0.2079 C   0  0  0  0  0  0  0  0  0  0  0  0
    6.6056    2.8744   -0.2697 C   0  0  0  0  0  0  0  0  0  0  0  0
    7.0919    4.3275   -0.2800 C   0  0  0  0  0  0  0  0  0  0  0  0
    8.6177    4.4515   -0.3337 C   0  0  0  0  0  0  0  0  0  0  0  0
    9.1404    5.8925   -0.4461 C   0  0  1  0  0  0  0  0  0  0  0  0
    8.7362    6.8293    0.7299 C   0  0  0  0  0  0  0  0  0  0  0  0
    9.0065    6.3566    2.1698 C   0  0  0  0  0  0  0  0  0  0  0  0
   10.4695    6.1543    2.5973 C   0  0  0  0  0  0  0  0  0  0  0  0
   11.3638    7.3929    2.4728 C   0  0  0  0  0  0  0  0  0  0  0  0
   12.8007    7.1562    2.9475 C   0  0  0  0  0  0  0  0  0  0  0  0
   13.7241    8.3596    2.7384 C   0  0  0  0  0  0  0  0  0  0  0  0
   15.1608    8.1312    3.2180 C   0  0  0  0  0  0  0  0  0  0  0  0
   16.0770    9.3366    3.0017 C   0  0  0  0  0  0  0  0  0  0  0  0
   10.6552    5.8896   -0.6873 C   0  0  0  0  0  0  0  0  0  0  0  0
   11.4055    4.9875   -0.3668 O   0  0  0  0  0  0  0  0  0  0  0  0
   11.1028    7.0033   -1.3738 N   0  0  0  0  0  0  0  0  0  0  0  0
   12.4507    7.3007   -1.2973 O   0  0  0  0  0  0  0  0  0  0  0  0
   13.1821    6.8099   -2.4362 C   0  0  0  0  0  0  0  0  0  0  0  0
   14.6247    6.6618   -2.0310 C   0  0  0  0  0  0  0  0  0  0  0  0
   14.9605    5.7618   -1.0050 C   0  0  0  0  0  0  0  0  0  0  0  0
   16.2916    5.6036   -0.6168 C   0  0  0  0  0  0  0  0  0  0  0  0
   17.3023    6.3386   -1.2494 C   0  0  0  0  0  0  0  0  0  0  0  0
   16.9750    7.2354   -2.2690 C   0  0  0  0  0  0  0  0  0  0  0  0
   15.6394    7.3990   -2.6535 C   0  0  0  0  0  0  0  0  0  0  0  0
    0.7490   -1.5091   -0.0437 H   0  0  0  0  0  0  0  0  0  0  0  0
    0.5803    0.0300   -0.9189 H   0  0  0  0  0  0  0  0  0  0  0  0
    0.6562    0.0222    0.8562 H   0  0  0  0  0  0  0  0  0  0  0  0
    2.9636   -0.8362   -1.0168 H   0  0  0  0  0  0  0  0  0  0  0  0
    3.0386   -0.8439    0.7430 H   0  0  0  0  0  0  0  0  0  0  0  0
    2.6939    1.6540    0.7692 H   0  0  0  0  0  0  0  0  0  0  0  0
    2.6192    1.6618   -0.9917 H   0  0  0  0  0  0  0  0  0  0  0  0
    4.9738    0.7595   -1.0954 H   0  0  0  0  0  0  0  0  0  0  0  0
    5.0482    0.7507    0.6651 H   0  0  0  0  0  0  0  0  0  0  0  0
    4.7031    3.2501    0.6923 H   0  0  0  0  0  0  0  0  0  0  0  0
    4.6306    3.2591   -1.0685 H   0  0  0  0  0  0  0  0  0  0  0  0
    6.9858    2.3561   -1.1694 H   0  0  0  0  0  0  0  0  0  0  0  0
    7.0576    2.3468    0.5906 H   0  0  0  0  0  0  0  0  0  0  0  0
    6.6976    4.8407    0.6149 H   0  0  0  0  0  0  0  0  0  0  0  0
    6.6482    4.8530   -1.1469 H   0  0  0  0  0  0  0  0  0  0  0  0
    8.9951    3.8809   -1.1991 H   0  0  0  0  0  0  0  0  0  0  0  0
    9.0700    3.9663    0.5462 H   0  0  0  0  0  0  0  0  0  0  0  0
    8.6907    6.3427   -1.3513 H   0  0  0  0  0  0  0  0  0  0  0  0
    7.6533    7.0163    0.6381 H   0  0  0  0  0  0  0  0  0  0  0  0
    9.2081    7.8148    0.5731 H   0  0  0  0  0  0  0  0  0  0  0  0
    8.4543    5.4185    2.3507 H   0  0  0  0  0  0  0  0  0  0  0  0
    8.5420    7.1021    2.8410 H   0  0  0  0  0  0  0  0  0  0  0  0
   10.9189    5.3291    2.0224 H   0  0  0  0  0  0  0  0  0  0  0  0
   10.4676    5.8231    3.6516 H   0  0  0  0  0  0  0  0  0  0  0  0
   10.9192    8.2316    3.0425 H   0  0  0  0  0  0  0  0  0  0  0  0
   11.4026    7.7286    1.4222 H   0  0  0  0  0  0  0  0  0  0  0  0
   13.2147    6.2860    2.4070 H   0  0  0  0  0  0  0  0  0  0  0  0
   12.7938    6.8749    4.0175 H   0  0  0  0  0  0  0  0  0  0  0  0
   13.3029    9.2418    3.2574 H   0  0  0  0  0  0  0  0  0  0  0  0
   13.7374    8.6164    1.6631 H   0  0  0  0  0  0  0  0  0  0  0  0
   15.5796    7.2533    2.6936 H   0  0  0  0  0  0  0  0  0  0  0  0
   15.1488    7.8641    4.2909 H   0  0  0  0  0  0  0  0  0  0  0  0
   16.1421    9.6013    1.9330 H   0  0  0  0  0  0  0  0  0  0  0  0
   17.1009    9.1382    3.3577 H   0  0  0  0  0  0  0  0  0  0  0  0
   15.7049   10.2255    3.5391 H   0  0  0  0  0  0  0  0  0  0  0  0
   10.5292    7.8425   -1.4024 H   0  0  0  0  0  0  0  0  0  0  0  0
   13.0735    7.5086   -3.2859 H   0  0  0  0  0  0  0  0  0  0  0  0
   12.7601    5.8351   -2.7281 H   0  0  0  0  0  0  0  0  0  0  0  0
   14.1615    5.1963   -0.5183 H   0  0  0  0  0  0  0  0  0  0  0  0
   16.5451    4.9002    0.1807 H   0  0  0  0  0  0  0  0  0  0  0  0
   18.3447    6.2111   -0.9456 H   0  0  0  0  0  0  0  0  0  0  0  0
   17.7591    7.8141   -2.7640 H   0  0  0  0  0  0  0  0  0  0  0  0
   15.3843    8.1079   -3.4467 H   0  0  0  0  0  0  0  0  0  0  0  0
  1  2  1  0
  1 29  1  0
  1 30  1  0
  1 31  1  0
  2  3  1  0
  2 32  1  0
  2 33  1  0
  3  4  1  0
  3 34  1  0
  3 35  1  0
  4  5  1  0
  4 36  1  0
  4 37  1  0
  5  6  1  0
  5 38  1  0
  5 39  1  0
  6  7  1  0
  6 40  1  0
  6 41  1  0
  7  8  1  0
  7 42  1  0
  7 43  1  0
  8  9  1  0
  8 44  1  0
  8 45  1  0
  9 10  1  0
  9 18  1  0
  9 46  1  6
 10 11  1  0
 10 47  1  0
 10 48  1  0
 11 12  1  0
 11 49  1  0
 11 50  1  0
 12 13  1  0
 12 51  1  0
 12 52  1  0
 13 14  1  0
 13 53  1  0
 13 54  1  0
 14 15  1  0
 14 55  1  0
 14 56  1  0
 15 16  1  0
 15 57  1  0
 15 58  1  0
 16 17  1  0
 16 59  1  0
 16 60  1  0
 17 61  1  0
 17 62  1  0
 17 63  1  0
 18 19  2  0
 18 20  1  0
 20 21  1  0
 20 64  1  0
 21 22  1  0
 22 23  1  0
 22 65  1  0
 22 66  1  0
 23 24  2  0
 23 28  1  0
 24 25  1  0
 24 67  1  0
 25 26  2  0
 25 68  1  0
 26 27  1  0
 26 69  1  0
 27 28  2  0
 27 70  1  0
 28 71  1  0
M  END

