
     RDKit          3D

 47 49  0  0  0  0  0  0  0  0999 V2000
    2.6307   -2.7687   -0.5063 O   0  0  0  0  0  0  0  0  0  0  0  0
    2.2810   -2.0113    0.3795 C   0  0  0  0  0  0  0  0  0  0  0  0
    0.8101   -1.7367    0.6884 C   0  0  0  0  0  0  0  0  0  0  0  0
   -0.1041   -2.9027    0.2832 C   0  0  0  0  0  0  0  0  0  0  0  0
   -1.5727   -2.5856    0.4618 C   0  0  0  0  0  0  0  0  0  0  0  0
   -2.3064   -1.9754   -0.5688 C   0  0  0  0  0  0  0  0  0  0  0  0
   -3.6545   -1.6495   -0.3967 C   0  0  0  0  0  0  0  0  0  0  0  0
   -4.2957   -1.9299    0.8138 C   0  0  0  0  0  0  0  0  0  0  0  0
   -3.5791   -2.5401    1.8475 C   0  0  0  0  0  0  0  0  0  0  0  0
   -2.2308   -2.8636    1.6706 C   0  0  0  0  0  0  0  0  0  0  0  0
    3.1600   -1.3001    1.1728 N   0  0  0  0  0  0  0  0  0  0  0  0
    4.5642   -1.2645    1.1281 C   0  0  0  0  0  0  0  0  0  0  0  0
    5.3317   -2.0343    0.2335 C   0  0  0  0  0  0  0  0  0  0  0  0
    6.7268   -1.9578    0.2725 C   0  0  0  0  0  0  0  0  0  0  0  0
    7.3877   -1.1261    1.1779 C   0  0  0  0  0  0  0  0  0  0  0  0
    6.6119   -0.3531    2.0477 C   0  0  0  0  0  0  0  0  0  0  0  0
    7.4255    0.7629    3.2068 S   0  0  1  0  0  0  0  0  0  0  0  0
    6.4295    1.1438    4.2112 O   0  0  0  0  0  0  0  0  0  0  0  0
    8.7163    0.1709    3.5475 O   0  0  0  0  0  0  0  0  0  0  0  0
    7.7840    2.1625    2.3634 N   0  0  0  0  0  0  0  0  0  0  0  0
    6.7147    3.0720    1.9426 C   0  0  0  0  0  0  0  0  0  0  0  0
    7.2753    4.3724    1.4801 C   0  0  0  0  0  0  0  0  0  0  0  0
    7.2276    5.6507    1.9626 C   0  0  0  0  0  0  0  0  0  0  0  0
    7.9860    6.4570    1.0487 C   0  0  0  0  0  0  0  0  0  0  0  0
    8.4420    5.6054    0.0849 C   0  0  0  0  0  0  0  0  0  0  0  0
    8.0154    4.3400    0.3342 O   0  0  0  0  0  0  0  0  0  0  0  0
    5.2202   -0.4175    2.0404 C   0  0  0  0  0  0  0  0  0  0  0  0
    0.5221   -0.8294    0.1261 H   0  0  0  0  0  0  0  0  0  0  0  0
    0.6751   -1.4886    1.7550 H   0  0  0  0  0  0  0  0  0  0  0  0
    0.1643   -3.7912    0.8777 H   0  0  0  0  0  0  0  0  0  0  0  0
    0.1129   -3.1566   -0.7650 H   0  0  0  0  0  0  0  0  0  0  0  0
   -1.8154   -1.7606   -1.5229 H   0  0  0  0  0  0  0  0  0  0  0  0
   -4.2084   -1.1798   -1.2138 H   0  0  0  0  0  0  0  0  0  0  0  0
   -5.3509   -1.6793    0.9488 H   0  0  0  0  0  0  0  0  0  0  0  0
   -4.0733   -2.7703    2.7951 H   0  0  0  0  0  0  0  0  0  0  0  0
   -1.6805   -3.3486    2.4829 H   0  0  0  0  0  0  0  0  0  0  0  0
    2.7399   -0.7115    1.8828 H   0  0  0  0  0  0  0  0  0  0  0  0
    4.8240   -2.6886   -0.4709 H   0  0  0  0  0  0  0  0  0  0  0  0
    7.3084   -2.5746   -0.4171 H   0  0  0  0  0  0  0  0  0  0  0  0
    8.4770   -1.0888    1.2302 H   0  0  0  0  0  0  0  0  0  0  0  0
    8.5429    2.0288    1.6968 H   0  0  0  0  0  0  0  0  0  0  0  0
    6.0686    3.2527    2.8116 H   0  0  0  0  0  0  0  0  0  0  0  0
    6.0901    2.6318    1.1391 H   0  0  0  0  0  0  0  0  0  0  0  0
    6.7158    5.9770    2.8655 H   0  0  0  0  0  0  0  0  0  0  0  0
    8.1679    7.5281    1.1063 H   0  0  0  0  0  0  0  0  0  0  0  0
    9.0518    5.7397   -0.8047 H   0  0  0  0  0  0  0  0  0  0  0  0
    4.6575    0.1760    2.7650 H   0  0  0  0  0  0  0  0  0  0  0  0
  1  2  2  0
  2  3  1  0
  2 11  1  0
  3  4  1  0
  3 28  1  0
  3 29  1  0
  4  5  1  0
  4 30  1  0
  4 31  1  0
  5  6  2  0
  5 10  1  0
  6  7  1  0
  6 32  1  0
  7  8  2  0
  7 33  1  0
  8  9  1  0
  8 34  1  0
  9 10  2  0
  9 35  1  0
 10 36  1  0
 11 12  1  0
 11 37  1  0
 12 13  2  0
 12 27  1  0
 13 14  1  0
 13 38  1  0
 14 15  2  0
 14 39  1  0
 15 16  1  0
 15 40  1  0
 16 17  1  0
 16 27  2  0
 17 18  2  0
 17 19  2  0
 17 20  1  6
 20 21  1  0
 20 41  1  0
 21 22  1  0
 21 42  1  0
 21 43  1  0
 22 23  2  0
 22 26  1  0
 23 24  1  0
 23 44  1  0
 24 25  2  0
 24 45  1  0
 25 26  1  0
 25 46  1  0
 27 47  1  0
M  END

