
     RDKit          3D

 73 75  0  0  0  0  0  0  0  0999 V2000
    3.1912   -6.1224   -3.4655 C   0  0  0  0  0  0  0  0  0  0  0  0
    4.6684   -6.4946   -3.3034 C   0  0  1  0  0  0  0  0  0  0  0  0
    5.0877   -7.6201   -4.2493 C   0  0  0  0  0  0  0  0  0  0  0  0
    5.5646   -5.2694   -3.4910 C   0  0  0  0  0  0  0  0  0  0  0  0
    4.9222   -6.8650   -1.9000 O   0  0  0  0  0  0  0  0  0  0  0  0
    4.2692   -7.8669   -1.2815 C   0  0  0  0  0  0  0  0  0  0  0  0
    3.5601   -8.7041   -1.8104 O   0  0  0  0  0  0  0  0  0  0  0  0
    4.5271   -7.8148    0.0618 N   0  0  0  0  0  0  0  0  0  0  0  0
    3.9365   -8.7253    1.0191 C   0  0  0  0  0  0  0  0  0  0  0  0
    4.8955   -9.8110    1.5565 C   0  0  0  0  0  0  0  0  0  0  0  0
    6.1395   -9.2548    2.2215 C   0  0  0  0  0  0  0  0  0  0  0  0
    6.0722   -8.9143    3.5854 C   0  0  0  0  0  0  0  0  0  0  0  0
    7.1482   -8.3522    4.2689 C   0  0  0  0  0  0  0  0  0  0  0  0
    8.3356   -8.1222    3.5694 C   0  0  0  0  0  0  0  0  0  0  0  0
    9.7087   -7.4185    4.3981 Cl  0  0  0  0  0  0  0  0  0  0  0  0
    8.4387   -8.4541    2.2209 C   0  0  0  0  0  0  0  0  0  0  0  0
    7.3521   -9.0175    1.5326 C   0  0  0  0  0  0  0  0  0  0  0  0
    7.5302   -9.3374    0.0525 C   0  0  0  0  0  0  0  0  0  0  0  0
    8.8413   -9.8586   -0.2758 N   0  0  0  0  0  0  0  0  0  0  0  0
    9.2935  -11.1270    0.2772 C   0  0  0  0  0  0  0  0  0  0  0  0
   10.7126  -11.2369   -0.2833 C   0  0  0  0  0  0  0  0  0  0  0  0
   10.5714  -10.6580   -1.7025 C   0  0  0  0  0  0  0  0  0  0  0  0
    9.4196   -9.6144   -1.5957 C   0  0  1  0  0  0  0  0  0  0  0  0
    9.8024   -8.5818   -1.6728 H   0  0  0  0  0  0  0  0  0  0  0  0
    8.4549   -9.7380   -2.7947 C   0  0  0  0  0  0  0  0  0  0  0  0
    8.4754   -8.9603   -3.7182 O   0  0  0  0  0  0  0  0  0  0  0  0
    7.5769  -10.8250   -2.6970 N   0  0  0  0  0  0  0  0  0  0  0  0
    6.5728  -11.2018   -3.5792 C   0  0  0  0  0  0  0  0  0  0  0  0
    6.3874  -10.7269   -4.6728 O   0  0  0  0  0  0  0  0  0  0  0  0
    5.6637  -12.3444   -3.0326 C   0  0  2  0  0  0  0  0  0  0  0  0
    4.1975  -11.9315   -3.2251 C   0  0  0  0  0  0  0  0  0  0  0  0
    5.9470  -12.4740   -1.6366 O   0  0  0  0  0  0  0  0  0  0  0  0
    6.0100  -13.6391   -3.7879 C   0  0  0  0  0  0  0  0  0  0  0  0
    6.5726  -14.7345   -3.1168 C   0  0  0  0  0  0  0  0  0  0  0  0
    6.8690  -15.9176   -3.8026 C   0  0  0  0  0  0  0  0  0  0  0  0
    6.6179  -16.0183   -5.1720 C   0  0  0  0  0  0  0  0  0  0  0  0
    6.0741  -14.9240   -5.8531 C   0  0  0  0  0  0  0  0  0  0  0  0
    5.7728  -13.7448   -5.1695 C   0  0  0  0  0  0  0  0  0  0  0  0
    3.0145   -5.7430   -4.4839 H   0  0  0  0  0  0  0  0  0  0  0  0
    2.9097   -5.3308   -2.7528 H   0  0  0  0  0  0  0  0  0  0  0  0
    2.5448   -6.9949   -3.3024 H   0  0  0  0  0  0  0  0  0  0  0  0
    4.9761   -7.2789   -5.2908 H   0  0  0  0  0  0  0  0  0  0  0  0
    4.4654   -8.5122   -4.1115 H   0  0  0  0  0  0  0  0  0  0  0  0
    6.1412   -7.8987   -4.1034 H   0  0  0  0  0  0  0  0  0  0  0  0
    5.4596   -4.8768   -4.5137 H   0  0  0  0  0  0  0  0  0  0  0  0
    6.6196   -5.5373   -3.3304 H   0  0  0  0  0  0  0  0  0  0  0  0
    5.2931   -4.4735   -2.7805 H   0  0  0  0  0  0  0  0  0  0  0  0
    5.0998   -7.0457    0.3880 H   0  0  0  0  0  0  0  0  0  0  0  0
    3.0823   -9.2080    0.5225 H   0  0  0  0  0  0  0  0  0  0  0  0
    3.5422   -8.1396    1.8675 H   0  0  0  0  0  0  0  0  0  0  0  0
    5.1506  -10.4930    0.7322 H   0  0  0  0  0  0  0  0  0  0  0  0
    4.3314  -10.4069    2.2934 H   0  0  0  0  0  0  0  0  0  0  0  0
    5.1439   -9.1044    4.1328 H   0  0  0  0  0  0  0  0  0  0  0  0
    7.0759   -8.1011    5.3282 H   0  0  0  0  0  0  0  0  0  0  0  0
    9.3750   -8.2892    1.6857 H   0  0  0  0  0  0  0  0  0  0  0  0
    7.3865   -8.4083   -0.5265 H   0  0  0  0  0  0  0  0  0  0  0  0
    6.7162  -10.0091   -0.2751 H   0  0  0  0  0  0  0  0  0  0  0  0
    8.6705  -11.9979   -0.0370 H   0  0  0  0  0  0  0  0  0  0  0  0
    9.2667  -11.1049    1.3785 H   0  0  0  0  0  0  0  0  0  0  0  0
   11.1003  -12.2667   -0.2810 H   0  0  0  0  0  0  0  0  0  0  0  0
   11.3936  -10.6171    0.3212 H   0  0  0  0  0  0  0  0  0  0  0  0
   10.2931  -11.4565   -2.4088 H   0  0  0  0  0  0  0  0  0  0  0  0
   11.4970  -10.2028   -2.0816 H   0  0  0  0  0  0  0  0  0  0  0  0
    7.5735  -11.3435   -1.8231 H   0  0  0  0  0  0  0  0  0  0  0  0
    3.5365  -12.7421   -2.8761 H   0  0  0  0  0  0  0  0  0  0  0  0
    3.9798  -11.7452   -4.2843 H   0  0  0  0  0  0  0  0  0  0  0  0
    3.9801  -11.0111   -2.6618 H   0  0  0  0  0  0  0  0  0  0  0  0
    5.2918  -13.0655   -1.2429 H   0  0  0  0  0  0  0  0  0  0  0  0
    6.7905  -14.6593   -2.0505 H   0  0  0  0  0  0  0  0  0  0  0  0
    7.3035  -16.7616   -3.2602 H   0  0  0  0  0  0  0  0  0  0  0  0
    6.8502  -16.9415   -5.7090 H   0  0  0  0  0  0  0  0  0  0  0  0
    5.8850  -14.9867   -6.9279 H   0  0  0  0  0  0  0  0  0  0  0  0
    5.3746  -12.8886   -5.7158 H   0  0  0  0  0  0  0  0  0  0  0  0
  1  2  1  0
  1 39  1  0
  1 40  1  0
  1 41  1  0
  2  3  1  0
  2  4  1  0
  2  5  1  1
  3 42  1  0
  3 43  1  0
  3 44  1  0
  4 45  1  0
  4 46  1  0
  4 47  1  0
  5  6  1  0
  6  7  2  0
  6  8  1  0
  8  9  1  0
  8 48  1  0
  9 10  1  0
  9 49  1  0
  9 50  1  0
 10 11  1  0
 10 51  1  0
 10 52  1  0
 11 12  2  0
 11 17  1  0
 12 13  1  0
 12 53  1  0
 13 14  2  0
 13 54  1  0
 14 15  1  0
 14 16  1  0
 16 17  2  0
 16 55  1  0
 17 18  1  0
 18 19  1  0
 18 56  1  0
 18 57  1  0
 19 20  1  0
 19 23  1  0
 20 21  1  0
 20 58  1  0
 20 59  1  0
 21 22  1  0
 21 60  1  0
 21 61  1  0
 22 23  1  0
 22 62  1  0
 22 63  1  0
 23 24  1  1
 23 25  1  0
 25 26  2  0
 25 27  1  0
 27 28  1  0
 27 64  1  0
 28 29  2  0
 28 30  1  0
 30 31  1  0
 30 32  1  1
 30 33  1  0
 31 65  1  0
 31 66  1  0
 31 67  1  0
 32 68  1  0
 33 34  2  0
 33 38  1  0
 34 35  1  0
 34 69  1  0
 35 36  2  0
 35 70  1  0
 36 37  1  0
 36 71  1  0
 37 38  2  0
 37 72  1  0
 38 73  1  0
M  END

