
     RDKit          3D

 37 37  0  0  0  0  0  0  0  0999 V2000
    0.8406   -4.4880    1.1177 C   0  0  0  0  0  0  0  0  0  0  0  0
    2.3679   -4.4100    1.1297 C   0  0  0  0  0  0  0  0  0  0  0  0
    2.9542   -3.6596   -0.0702 C   0  0  0  0  0  0  0  0  0  0  0  0
    4.4832   -3.5840   -0.0655 C   0  0  0  0  0  0  0  0  0  0  0  0
    5.0661   -2.8261   -1.2627 C   0  0  0  0  0  0  0  0  0  0  0  0
    6.5948   -2.7666   -1.2939 C   0  0  0  0  0  0  0  0  0  0  0  0
    7.1751   -4.0851   -1.4360 N   0  0  0  0  0  0  0  0  0  0  0  0
    8.5569   -4.2885   -1.4769 C   0  0  0  0  0  0  0  0  0  0  0  0
    9.4875   -3.3030   -1.1060 C   0  0  0  0  0  0  0  0  0  0  0  0
   10.8582   -3.5778   -1.1306 C   0  0  0  0  0  0  0  0  0  0  0  0
   11.3572   -4.8263   -1.5231 C   0  0  0  0  0  0  0  0  0  0  0  0
   12.7323   -5.1101   -1.4817 N   0  0  0  0  0  0  0  0  0  0  0  0
   10.4310   -5.8301   -1.9037 C   0  0  0  0  0  0  0  0  0  0  0  0
   10.9306   -7.1918   -2.3150 C   0  0  0  0  0  0  0  0  0  0  0  0
    9.0657   -5.5423   -1.8760 C   0  0  0  0  0  0  0  0  0  0  0  0
    0.4553   -5.0336    1.9940 H   0  0  0  0  0  0  0  0  0  0  0  0
    0.4723   -5.0055    0.2158 H   0  0  0  0  0  0  0  0  0  0  0  0
    0.3874   -3.4823    1.1267 H   0  0  0  0  0  0  0  0  0  0  0  0
    2.7903   -5.4310    1.1587 H   0  0  0  0  0  0  0  0  0  0  0  0
    2.7053   -3.9217    2.0621 H   0  0  0  0  0  0  0  0  0  0  0  0
    2.5350   -2.6359   -0.0997 H   0  0  0  0  0  0  0  0  0  0  0  0
    2.6146   -4.1463   -1.0042 H   0  0  0  0  0  0  0  0  0  0  0  0
    4.9064   -4.6029   -0.0385 H   0  0  0  0  0  0  0  0  0  0  0  0
    4.8242   -3.0974    0.8671 H   0  0  0  0  0  0  0  0  0  0  0  0
    4.6819   -1.7912   -1.2701 H   0  0  0  0  0  0  0  0  0  0  0  0
    4.7037   -3.2820   -2.2047 H   0  0  0  0  0  0  0  0  0  0  0  0
    6.9539   -2.3188   -0.3498 H   0  0  0  0  0  0  0  0  0  0  0  0
    6.9206   -2.0770   -2.1037 H   0  0  0  0  0  0  0  0  0  0  0  0
    6.6562   -4.6966   -2.0578 H   0  0  0  0  0  0  0  0  0  0  0  0
    9.1555   -2.3108   -0.7981 H   0  0  0  0  0  0  0  0  0  0  0  0
   11.5612   -2.7911   -0.8386 H   0  0  0  0  0  0  0  0  0  0  0  0
   13.3210   -4.2860   -1.4147 H   0  0  0  0  0  0  0  0  0  0  0  0
   13.0651   -5.7252   -2.2181 H   0  0  0  0  0  0  0  0  0  0  0  0
   11.5346   -7.1490   -3.2411 H   0  0  0  0  0  0  0  0  0  0  0  0
   10.0996   -7.8871   -2.5019 H   0  0  0  0  0  0  0  0  0  0  0  0
   11.5778   -7.6307   -1.5360 H   0  0  0  0  0  0  0  0  0  0  0  0
    8.3595   -6.3289   -2.1622 H   0  0  0  0  0  0  0  0  0  0  0  0
  1  2  1  0
  1 16  1  0
  1 17  1  0
  1 18  1  0
  2  3  1  0
  2 19  1  0
  2 20  1  0
  3  4  1  0
  3 21  1  0
  3 22  1  0
  4  5  1  0
  4 23  1  0
  4 24  1  0
  5  6  1  0
  5 25  1  0
  5 26  1  0
  6  7  1  0
  6 27  1  0
  6 28  1  0
  7  8  1  0
  7 29  1  0
  8  9  2  0
  8 15  1  0
  9 10  1  0
  9 30  1  0
 10 11  2  0
 10 31  1  0
 11 12  1  0
 11 13  1  0
 12 32  1  0
 12 33  1  0
 13 14  1  0
 13 15  2  0
 14 34  1  0
 14 35  1  0
 14 36  1  0
 15 37  1  0
M  END

