
     RDKit          3D

 39 40  0  0  0  0  0  0  0  0999 V2000
    6.7827    0.6977   -1.5813 C   0  0  0  0  0  0  0  0  0  0  0  0
    5.3840    0.5144   -0.9891 C   0  0  1  0  0  0  0  0  0  0  0  0
    4.8908   -0.9232   -1.1889 C   0  0  0  0  0  0  0  0  0  0  0  0
    5.4215    0.8670    0.4294 N   0  0  0  0  0  0  0  0  0  0  0  0
    4.1353    1.0912    1.0745 C   0  0  0  0  0  0  0  0  0  0  0  0
    4.3045    1.4797    2.5178 C   0  0  0  0  0  0  0  0  0  0  0  0
    3.4321    2.2964    3.3028 C   0  0  0  0  0  0  0  0  0  0  0  0
    3.9524    2.3552    4.5801 C   0  0  0  0  0  0  0  0  0  0  0  0
    5.1090    1.6059    4.6091 N   0  0  0  0  0  0  0  0  0  0  0  0
    6.0057    1.4905    5.7479 C   0  0  0  0  0  0  0  0  0  0  0  0
    5.3435    0.8966    6.9822 C   0  0  0  0  0  0  0  0  0  0  0  0
    5.1222    1.7233    8.0939 C   0  0  0  0  0  0  0  0  0  0  0  0
    4.4898    1.2734    9.2543 C   0  0  0  0  0  0  0  0  0  0  0  0
    4.0368   -0.0460    9.3168 C   0  0  0  0  0  0  0  0  0  0  0  0
    3.2352   -0.6288   10.7494 Cl  0  0  0  0  0  0  0  0  0  0  0  0
    4.2228   -0.9029    8.2321 C   0  0  0  0  0  0  0  0  0  0  0  0
    4.8802   -0.4290    7.0965 C   0  0  0  0  0  0  0  0  0  0  0  0
    5.0829   -1.4281    6.0185 N   0  0  0  0  0  0  0  0  0  0  0  0
    6.0743   -1.3116    5.3159 O   0  0  0  0  0  0  0  0  0  0  0  0
    4.2636   -2.3236    5.9268 O   0  0  0  0  0  0  0  0  0  0  0  0
    5.3290    1.0750    3.3549 C   0  0  0  0  0  0  0  0  0  0  0  0
    6.7969    0.4419   -2.6520 H   0  0  0  0  0  0  0  0  0  0  0  0
    7.5074    0.0516   -1.0594 H   0  0  0  0  0  0  0  0  0  0  0  0
    7.1250    1.7420   -1.4827 H   0  0  0  0  0  0  0  0  0  0  0  0
    4.6890    1.1873   -1.5462 H   0  0  0  0  0  0  0  0  0  0  0  0
    5.5515   -1.6281   -0.6586 H   0  0  0  0  0  0  0  0  0  0  0  0
    4.8806   -1.1852   -2.2590 H   0  0  0  0  0  0  0  0  0  0  0  0
    3.8685   -1.0659   -0.8065 H   0  0  0  0  0  0  0  0  0  0  0  0
    5.9972    1.6982    0.5604 H   0  0  0  0  0  0  0  0  0  0  0  0
    3.5456    0.1590    1.0114 H   0  0  0  0  0  0  0  0  0  0  0  0
    3.5187    1.8646    0.5594 H   0  0  0  0  0  0  0  0  0  0  0  0
    2.5207    2.7864    2.9626 H   0  0  0  0  0  0  0  0  0  0  0  0
    3.5973    2.8761    5.4670 H   0  0  0  0  0  0  0  0  0  0  0  0
    6.3877    2.4887    6.0183 H   0  0  0  0  0  0  0  0  0  0  0  0
    6.8585    0.8762    5.4407 H   0  0  0  0  0  0  0  0  0  0  0  0
    5.4579    2.7624    8.0463 H   0  0  0  0  0  0  0  0  0  0  0  0
    4.3410    1.9419   10.1036 H   0  0  0  0  0  0  0  0  0  0  0  0
    3.8677   -1.9319    8.2558 H   0  0  0  0  0  0  0  0  0  0  0  0
    6.1820    0.4330    3.1536 H   0  0  0  0  0  0  0  0  0  0  0  0
  1  2  1  0
  1 22  1  0
  1 23  1  0
  1 24  1  0
  2  3  1  0
  2  4  1  0
  2 25  1  6
  3 26  1  0
  3 27  1  0
  3 28  1  0
  4  5  1  0
  4 29  1  0
  5  6  1  0
  5 30  1  0
  5 31  1  0
  6  7  1  0
  6 21  2  0
  7  8  2  0
  7 32  1  0
  8  9  1  0
  8 33  1  0
  9 10  1  0
  9 21  1  0
 10 11  1  0
 10 34  1  0
 10 35  1  0
 11 12  2  0
 11 17  1  0
 12 13  1  0
 12 36  1  0
 13 14  2  0
 13 37  1  0
 14 15  1  0
 14 16  1  0
 16 17  2  0
 16 38  1  0
 17 18  1  0
 18 19  2  0
 18 20  1  0
 21 39  1  0
M  CHG  2  18   1  20  -1
M  END

