
     RDKit          3D

 35 36  0  0  0  0  0  0  0  0999 V2000
    3.2787   -1.3159    0.7620 C   0  0  0  0  0  0  0  0  0  0  0  0
    3.2253    0.1209    0.2745 C   0  0  0  0  0  0  0  0  0  0  0  0
    2.8403    1.0133    1.0063 O   0  0  0  0  0  0  0  0  0  0  0  0
    3.6567    0.4214   -1.1316 C   0  0  0  0  0  0  0  0  0  0  0  0
    4.1086   -0.5591   -2.0296 C   0  0  0  0  0  0  0  0  0  0  0  0
    4.4999   -0.2342   -3.3284 C   0  0  0  0  0  0  0  0  0  0  0  0
    4.4421    1.1053   -3.7519 C   0  0  0  0  0  0  0  0  0  0  0  0
    4.8180    1.5112   -5.0402 N   0  0  0  0  0  0  0  0  0  0  0  0
    5.2821    0.7703   -6.0764 C   0  0  0  0  0  0  0  0  0  0  0  0
    5.4760   -0.4352   -6.1120 O   0  0  0  0  0  0  0  0  0  0  0  0
    5.5627    1.6648   -7.3066 C   0  0  0  0  0  0  0  0  0  0  0  0
    5.3683    2.8715   -7.2798 O   0  0  0  0  0  0  0  0  0  0  0  0
    6.0235    0.9249   -8.3430 N   0  0  0  0  0  0  0  0  0  0  0  0
    6.3896    1.3518   -9.6249 C   0  0  0  0  0  0  0  0  0  0  0  0
    6.3369    2.6830  -10.0696 C   0  0  0  0  0  0  0  0  0  0  0  0
    6.7269    3.0022  -11.3725 C   0  0  0  0  0  0  0  0  0  0  0  0
    7.1697    2.0094  -12.2398 C   0  0  0  0  0  0  0  0  0  0  0  0
    7.5447    2.3018  -13.4859 F   0  0  0  0  0  0  0  0  0  0  0  0
    7.2295    0.6774  -11.8160 C   0  0  0  0  0  0  0  0  0  0  0  0
    7.6510   -0.2801  -12.6362 F   0  0  0  0  0  0  0  0  0  0  0  0
    6.8400    0.3628  -10.5166 C   0  0  0  0  0  0  0  0  0  0  0  0
    6.8946   -0.9106  -10.1043 F   0  0  0  0  0  0  0  0  0  0  0  0
    3.9901    2.0975   -2.8591 C   0  0  0  0  0  0  0  0  0  0  0  0
    3.6043    1.7569   -1.5706 C   0  0  0  0  0  0  0  0  0  0  0  0
    2.9369   -1.3470    1.8041 H   0  0  0  0  0  0  0  0  0  0  0  0
    4.3027   -1.7182    0.7006 H   0  0  0  0  0  0  0  0  0  0  0  0
    2.6348   -1.9655    0.1471 H   0  0  0  0  0  0  0  0  0  0  0  0
    4.1620   -1.6053   -1.7226 H   0  0  0  0  0  0  0  0  0  0  0  0
    4.8487   -1.0007   -4.0171 H   0  0  0  0  0  0  0  0  0  0  0  0
    4.7443    2.5031   -5.2673 H   0  0  0  0  0  0  0  0  0  0  0  0
    6.1039   -0.0708   -8.1329 H   0  0  0  0  0  0  0  0  0  0  0  0
    5.9895    3.4535   -9.3852 H   0  0  0  0  0  0  0  0  0  0  0  0
    6.6916    4.0319  -11.7326 H   0  0  0  0  0  0  0  0  0  0  0  0
    3.9450    3.1396   -3.1884 H   0  0  0  0  0  0  0  0  0  0  0  0
    3.2520    2.5155   -0.8691 H   0  0  0  0  0  0  0  0  0  0  0  0
  1  2  1  0
  1 25  1  0
  1 26  1  0
  1 27  1  0
  2  3  2  0
  2  4  1  0
  4  5  2  0
  4 24  1  0
  5  6  1  0
  5 28  1  0
  6  7  2  0
  6 29  1  0
  7  8  1  0
  7 23  1  0
  8  9  1  0
  8 30  1  0
  9 10  2  0
  9 11  1  0
 11 12  2  0
 11 13  1  0
 13 14  1  0
 13 31  1  0
 14 15  2  0
 14 21  1  0
 15 16  1  0
 15 32  1  0
 16 17  2  0
 16 33  1  0
 17 18  1  0
 17 19  1  0
 19 20  1  0
 19 21  2  0
 21 22  1  0
 23 24  2  0
 23 34  1  0
 24 35  1  0
M  END

