
     RDKit          3D

 36 37  0  0  0  0  0  0  0  0999 V2000
    1.1757    0.2961    0.1281 C   0  0  0  0  0  0  0  0  0  0  0  0
    2.6713    0.0556    0.0377 C   0  0  0  0  0  0  0  0  0  0  0  0
    3.2942    0.6042    1.1766 O   0  0  0  0  0  0  0  0  0  0  0  0
    4.6879    0.4433    1.2115 C   0  0  0  0  0  0  0  0  0  0  0  0
    5.2173    1.0772    2.4905 C   0  0  0  0  0  0  0  0  0  0  0  0
    6.6617    0.9443    2.5800 N   0  0  0  0  0  0  0  0  0  0  0  0
    7.2334    1.4268    3.8359 C   0  0  0  0  0  0  0  0  0  0  0  0
    8.7207    1.2991    3.8638 C   0  0  0  0  0  0  0  0  0  0  0  0
    9.7463    2.1839    4.1812 C   0  0  0  0  0  0  0  0  0  0  0  0
    9.6440    3.6262    4.5695 C   0  0  0  0  0  0  0  0  0  0  0  0
   10.9815    1.5663    4.1172 N   0  0  0  0  0  0  0  0  0  0  0  0
   10.7145    0.3352    3.7665 C   0  0  0  0  0  0  0  0  0  0  0  0
   11.6390   -1.1206    3.4434 S   0  0  0  0  0  0  0  0  0  0  0  0
   10.1360   -1.9967    3.0698 C   0  0  0  0  0  0  0  0  0  0  0  0
   10.1759   -3.4354    2.6627 C   0  0  0  0  0  0  0  0  0  0  0  0
    9.0470   -1.1953    3.1976 C   0  0  0  0  0  0  0  0  0  0  0  0
    9.3700    0.0970    3.5936 N   0  0  0  0  0  0  0  0  0  0  0  0
    0.6618   -0.1232   -0.7510 H   0  0  0  0  0  0  0  0  0  0  0  0
    0.9600    1.3747    0.1774 H   0  0  0  0  0  0  0  0  0  0  0  0
    0.7623   -0.1764    1.0326 H   0  0  0  0  0  0  0  0  0  0  0  0
    3.0834    0.5170   -0.8853 H   0  0  0  0  0  0  0  0  0  0  0  0
    2.8862   -1.0323   -0.0315 H   0  0  0  0  0  0  0  0  0  0  0  0
    5.1616    0.9219    0.3253 H   0  0  0  0  0  0  0  0  0  0  0  0
    4.9733   -0.6289    1.1821 H   0  0  0  0  0  0  0  0  0  0  0  0
    4.7586    0.5607    3.3511 H   0  0  0  0  0  0  0  0  0  0  0  0
    4.8616    2.1301    2.5371 H   0  0  0  0  0  0  0  0  0  0  0  0
    7.1101    1.4301    1.8024 H   0  0  0  0  0  0  0  0  0  0  0  0
    6.7806    0.8299    4.6521 H   0  0  0  0  0  0  0  0  0  0  0  0
    6.9725    2.4830    4.0591 H   0  0  0  0  0  0  0  0  0  0  0  0
    8.6123    3.9999    4.5004 H   0  0  0  0  0  0  0  0  0  0  0  0
   10.2829    4.2465    3.9204 H   0  0  0  0  0  0  0  0  0  0  0  0
    9.9943    3.7809    5.6038 H   0  0  0  0  0  0  0  0  0  0  0  0
   10.6122   -4.0710    3.4516 H   0  0  0  0  0  0  0  0  0  0  0  0
   10.7771   -3.5853    1.7502 H   0  0  0  0  0  0  0  0  0  0  0  0
    9.1570   -3.7979    2.4610 H   0  0  0  0  0  0  0  0  0  0  0  0
    8.0085   -1.4487    2.9946 H   0  0  0  0  0  0  0  0  0  0  0  0
  1  2  1  0
  1 18  1  0
  1 19  1  0
  1 20  1  0
  2  3  1  0
  2 21  1  0
  2 22  1  0
  3  4  1  0
  4  5  1  0
  4 23  1  0
  4 24  1  0
  5  6  1  0
  5 25  1  0
  5 26  1  0
  6  7  1  0
  6 27  1  0
  7  8  1  0
  7 28  1  0
  7 29  1  0
  8  9  2  0
  8 17  1  0
  9 10  1  0
  9 11  1  0
 10 30  1  0
 10 31  1  0
 10 32  1  0
 11 12  2  0
 12 13  1  0
 12 17  1  0
 13 14  1  0
 14 15  1  0
 14 16  2  0
 15 33  1  0
 15 34  1  0
 15 35  1  0
 16 17  1  0
 16 36  1  0
M  END

