
     RDKit          3D

 73 78  0  0  0  0  0  0  0  0999 V2000
   -1.9033   -2.6212    7.8833 C   0  0  0  0  0  0  0  0  0  0  0  0
   -0.7532   -3.3049    7.4349 O   0  0  0  0  0  0  0  0  0  0  0  0
   -0.0175   -2.7727    6.4390 C   0  0  0  0  0  0  0  0  0  0  0  0
   -0.2905   -1.5724    5.7763 C   0  0  0  0  0  0  0  0  0  0  0  0
    0.5500   -1.1079    4.7466 C   0  0  0  0  0  0  0  0  0  0  0  0
    1.6672   -1.8311    4.3638 C   0  0  0  0  0  0  0  0  0  0  0  0
    1.9664   -3.0496    5.0156 C   0  0  0  0  0  0  0  0  0  0  0  0
    3.0991   -3.8743    4.6895 C   0  0  0  0  0  0  0  0  0  0  0  0
    3.3282   -5.0615    5.3145 C   0  0  0  0  0  0  0  0  0  0  0  0
    4.6017   -5.8156    4.9976 C   0  0  0  0  0  0  0  0  0  0  0  0
    5.6559   -5.1946    4.9472 O   0  0  0  0  0  0  0  0  0  0  0  0
    4.5231   -7.1604    4.7617 N   0  0  0  0  0  0  0  0  0  0  0  0
    3.3104   -7.9515    4.5969 C   0  0  0  0  0  0  0  0  0  0  0  0
    3.3436   -8.7174    3.2743 C   0  0  0  0  0  0  0  0  0  0  0  0
    4.5720   -9.4940    3.1372 N   0  0  0  0  0  0  0  0  0  0  0  0
    4.5548  -10.6289    2.3274 C   0  0  0  0  0  0  0  0  0  0  0  0
    5.7293  -11.2858    1.8760 C   0  0  0  0  0  0  0  0  0  0  0  0
    5.5928  -12.4422    1.1410 C   0  0  0  0  0  0  0  0  0  0  0  0
    4.2839  -12.9242    0.8715 C   0  0  0  0  0  0  0  0  0  0  0  0
    4.0290  -14.1147    0.2000 N   0  0  0  0  0  0  0  0  0  0  0  0
    5.0915  -14.8155   -0.5077 C   0  0  0  0  0  0  0  0  0  0  0  0
    4.7442  -16.3051   -0.6812 C   0  0  0  0  0  0  0  0  0  0  0  0
    3.4320  -16.5455   -1.2643 N   0  0  0  0  0  0  0  0  0  0  0  0
    3.3569  -16.4221   -2.7165 C   0  0  0  0  0  0  0  0  0  0  0  0
    3.7500  -17.7216   -3.4211 C   0  0  1  0  0  0  0  0  0  0  0  0
    2.8106  -18.9119   -3.1982 C   0  0  0  0  0  0  0  0  0  0  0  0
    3.0118  -19.7148   -4.4887 C   0  0  0  0  0  0  0  0  0  0  0  0
    3.1879  -18.5994   -5.5276 C   0  0  0  0  0  0  0  0  0  0  0  0
    3.7464  -17.4895   -4.8313 O   0  0  0  0  0  0  0  0  0  0  0  0
    2.4151  -15.8398   -0.4924 C   0  0  0  0  0  0  0  0  0  0  0  0
    2.6850  -14.3413   -0.3360 C   0  0  0  0  0  0  0  0  0  0  0  0
    3.2233  -12.2158    1.2780 N   0  0  0  0  0  0  0  0  0  0  0  0
    3.3555  -11.1077    1.9807 N   0  0  0  0  0  0  0  0  0  0  0  0
    5.7837   -8.7074    3.3064 C   0  0  0  0  0  0  0  0  0  0  0  0
    5.7490   -7.9337    4.6253 C   0  0  0  0  0  0  0  0  0  0  0  0
    2.4663   -5.4883    6.4286 C   0  0  0  0  0  0  0  0  0  0  0  0
    2.6164   -6.4654    7.1150 O   0  0  0  0  0  0  0  0  0  0  0  0
    1.3846   -4.6644    6.7020 O   0  0  0  0  0  0  0  0  0  0  0  0
    1.1274   -3.5093    6.0443 C   0  0  0  0  0  0  0  0  0  0  0  0
   -2.3322   -3.2316    8.6885 H   0  0  0  0  0  0  0  0  0  0  0  0
   -2.6525   -2.5092    7.0790 H   0  0  0  0  0  0  0  0  0  0  0  0
   -1.6551   -1.6216    8.2830 H   0  0  0  0  0  0  0  0  0  0  0  0
   -1.1631   -0.9827    6.0570 H   0  0  0  0  0  0  0  0  0  0  0  0
    0.3092   -0.1651    4.2505 H   0  0  0  0  0  0  0  0  0  0  0  0
    2.3239   -1.4766    3.5665 H   0  0  0  0  0  0  0  0  0  0  0  0
    3.7988   -3.5356    3.9205 H   0  0  0  0  0  0  0  0  0  0  0  0
    2.4311   -7.2973    4.5994 H   0  0  0  0  0  0  0  0  0  0  0  0
    3.2070   -8.6508    5.4442 H   0  0  0  0  0  0  0  0  0  0  0  0
    3.2492   -7.9969    2.4335 H   0  0  0  0  0  0  0  0  0  0  0  0
    2.4921   -9.4041    3.2110 H   0  0  0  0  0  0  0  0  0  0  0  0
    6.7262  -10.8972    2.0815 H   0  0  0  0  0  0  0  0  0  0  0  0
    6.4829  -12.9510    0.7730 H   0  0  0  0  0  0  0  0  0  0  0  0
    6.0276  -14.7576    0.0647 H   0  0  0  0  0  0  0  0  0  0  0  0
    5.2880  -14.3478   -1.4973 H   0  0  0  0  0  0  0  0  0  0  0  0
    4.7749  -16.7827    0.3148 H   0  0  0  0  0  0  0  0  0  0  0  0
    5.5218  -16.7867   -1.2942 H   0  0  0  0  0  0  0  0  0  0  0  0
    3.9825  -15.6050   -3.1305 H   0  0  0  0  0  0  0  0  0  0  0  0
    2.3201  -16.1844   -3.0044 H   0  0  0  0  0  0  0  0  0  0  0  0
    4.7768  -18.0051   -3.1075 H   0  0  0  0  0  0  0  0  0  0  0  0
    1.7679  -18.5578   -3.1214 H   0  0  0  0  0  0  0  0  0  0  0  0
    3.0422  -19.4702   -2.2808 H   0  0  0  0  0  0  0  0  0  0  0  0
    2.1762  -20.3914   -4.7238 H   0  0  0  0  0  0  0  0  0  0  0  0
    3.9277  -20.3251   -4.4199 H   0  0  0  0  0  0  0  0  0  0  0  0
    2.2156  -18.3080   -5.9705 H   0  0  0  0  0  0  0  0  0  0  0  0
    3.8571  -18.8867   -6.3571 H   0  0  0  0  0  0  0  0  0  0  0  0
    2.3713  -16.2949    0.5140 H   0  0  0  0  0  0  0  0  0  0  0  0
    1.4296  -15.9903   -0.9601 H   0  0  0  0  0  0  0  0  0  0  0  0
    1.9614  -13.8817    0.3471 H   0  0  0  0  0  0  0  0  0  0  0  0
    2.5722  -13.8279   -1.3152 H   0  0  0  0  0  0  0  0  0  0  0  0
    5.9221   -7.9967    2.4630 H   0  0  0  0  0  0  0  0  0  0  0  0
    6.6632   -9.3640    3.3313 H   0  0  0  0  0  0  0  0  0  0  0  0
    6.5959   -7.2396    4.6868 H   0  0  0  0  0  0  0  0  0  0  0  0
    5.8112   -8.6514    5.4644 H   0  0  0  0  0  0  0  0  0  0  0  0
  1  2  1  0
  1 40  1  0
  1 41  1  0
  1 42  1  0
  2  3  1  0
  3  4  2  0
  3 39  1  0
  4  5  1  0
  4 43  1  0
  5  6  2  0
  5 44  1  0
  6  7  1  0
  6 45  1  0
  7  8  1  0
  7 39  2  0
  8  9  2  0
  8 46  1  0
  9 10  1  0
  9 36  1  0
 10 11  2  0
 10 12  1  0
 12 13  1  0
 12 35  1  0
 13 14  1  0
 13 47  1  0
 13 48  1  0
 14 15  1  0
 14 49  1  0
 14 50  1  0
 15 16  1  0
 15 34  1  0
 16 17  2  0
 16 33  1  0
 17 18  1  0
 17 51  1  0
 18 19  2  0
 18 52  1  0
 19 20  1  0
 19 32  1  0
 20 21  1  0
 20 31  1  0
 21 22  1  0
 21 53  1  0
 21 54  1  0
 22 23  1  0
 22 55  1  0
 22 56  1  0
 23 24  1  0
 23 30  1  0
 24 25  1  0
 24 57  1  0
 24 58  1  0
 25 26  1  0
 25 29  1  0
 25 59  1  1
 26 27  1  0
 26 60  1  0
 26 61  1  0
 27 28  1  0
 27 62  1  0
 27 63  1  0
 28 29  1  0
 28 64  1  0
 28 65  1  0
 30 31  1  0
 30 66  1  0
 30 67  1  0
 31 68  1  0
 31 69  1  0
 32 33  2  0
 34 35  1  0
 34 70  1  0
 34 71  1  0
 35 72  1  0
 35 73  1  0
 36 37  2  0
 36 38  1  0
 38 39  1  0
M  END

