
     RDKit          3D

 38 39  0  0  0  0  0  0  0  0999 V2000
    2.6747    0.5287    1.2661 C   0  0  0  0  0  0  0  0  0  0  0  0
    3.0210   -0.3014    0.1786 O   0  0  0  0  0  0  0  0  0  0  0  0
    3.3609    0.2785   -1.0159 C   0  0  0  0  0  0  0  0  0  0  0  0
    3.3462    1.6546   -1.2697 C   0  0  0  0  0  0  0  0  0  0  0  0
    3.6931    2.1545   -2.5264 C   0  0  0  0  0  0  0  0  0  0  0  0
    4.0684    1.2948   -3.5754 C   0  0  0  0  0  0  0  0  0  0  0  0
    4.4494    1.8275   -4.8062 N   0  0  0  0  0  0  0  0  0  0  0  0
    4.5859    1.0107   -5.9953 C   0  0  0  0  0  0  0  0  0  0  0  0
    5.0787    1.8266   -7.1690 C   0  0  0  0  0  0  0  0  0  0  0  0
    6.2038    2.6577   -7.0641 C   0  0  0  0  0  0  0  0  0  0  0  0
    6.6278    3.3714   -8.1842 C   0  0  0  0  0  0  0  0  0  0  0  0
    5.9109    3.2297   -9.3781 C   0  0  0  0  0  0  0  0  0  0  0  0
    4.8361    2.4484   -9.4941 N   0  0  0  0  0  0  0  0  0  0  0  0
    4.4363    1.7724   -8.4150 C   0  0  0  0  0  0  0  0  0  0  0  0
    4.0783   -0.0906   -3.3161 C   0  0  0  0  0  0  0  0  0  0  0  0
    3.7417   -0.5946   -2.0571 C   0  0  0  0  0  0  0  0  0  0  0  0
    3.8025   -1.9322   -1.7965 O   0  0  0  0  0  0  0  0  0  0  0  0
    2.7982   -2.7973   -2.3418 C   0  0  0  0  0  0  0  0  0  0  0  0
    2.1225   -3.5323   -1.1948 C   0  0  0  0  0  0  0  0  0  0  0  0
    1.4216   -2.6639   -0.3466 O   0  0  0  0  0  0  0  0  0  0  0  0
    2.4580   -0.1378    2.1118 H   0  0  0  0  0  0  0  0  0  0  0  0
    1.7777    1.1372    1.0514 H   0  0  0  0  0  0  0  0  0  0  0  0
    3.5061    1.2013    1.5421 H   0  0  0  0  0  0  0  0  0  0  0  0
    3.0555    2.3579   -0.4887 H   0  0  0  0  0  0  0  0  0  0  0  0
    3.6801    3.2350   -2.6935 H   0  0  0  0  0  0  0  0  0  0  0  0
    4.0891    2.7588   -4.9848 H   0  0  0  0  0  0  0  0  0  0  0  0
    3.6423    0.4963   -6.2746 H   0  0  0  0  0  0  0  0  0  0  0  0
    5.3189    0.2098   -5.7884 H   0  0  0  0  0  0  0  0  0  0  0  0
    6.7311    2.7409   -6.1100 H   0  0  0  0  0  0  0  0  0  0  0  0
    7.5012    4.0263   -8.1387 H   0  0  0  0  0  0  0  0  0  0  0  0
    6.2210    3.7757  -10.2773 H   0  0  0  0  0  0  0  0  0  0  0  0
    3.5452    1.1427   -8.5366 H   0  0  0  0  0  0  0  0  0  0  0  0
    4.3678   -0.8099   -4.0820 H   0  0  0  0  0  0  0  0  0  0  0  0
    3.2775   -3.5133   -3.0342 H   0  0  0  0  0  0  0  0  0  0  0  0
    2.0552   -2.2057   -2.9031 H   0  0  0  0  0  0  0  0  0  0  0  0
    2.8957   -4.1180   -0.6535 H   0  0  0  0  0  0  0  0  0  0  0  0
    1.4010   -4.2568   -1.6120 H   0  0  0  0  0  0  0  0  0  0  0  0
    2.0400   -1.9651   -0.0675 H   0  0  0  0  0  0  0  0  0  0  0  0
  1  2  1  0
  1 21  1  0
  1 22  1  0
  1 23  1  0
  2  3  1  0
  3  4  2  0
  3 16  1  0
  4  5  1  0
  4 24  1  0
  5  6  2  0
  5 25  1  0
  6  7  1  0
  6 15  1  0
  7  8  1  0
  7 26  1  0
  8  9  1  0
  8 27  1  0
  8 28  1  0
  9 10  2  0
  9 14  1  0
 10 11  1  0
 10 29  1  0
 11 12  2  0
 11 30  1  0
 12 13  1  0
 12 31  1  0
 13 14  2  0
 14 32  1  0
 15 16  2  0
 15 33  1  0
 16 17  1  0
 17 18  1  0
 18 19  1  0
 18 34  1  0
 18 35  1  0
 19 20  1  0
 19 36  1  0
 19 37  1  0
 20 38  1  0
M  END

