
     RDKit          3D

 49 50  0  0  0  0  0  0  0  0999 V2000
    4.3375   -2.0487    1.5882 C   0  0  0  0  0  0  0  0  0  0  0  0
    4.0645   -0.9983    0.5417 C   0  0  0  0  0  0  0  0  0  0  0  0
    4.8225    0.1040    0.5740 N   0  0  0  0  0  0  0  0  0  0  0  0
    4.6658    1.0576   -0.3508 C   0  0  0  0  0  0  0  0  0  0  0  0
    5.6051    2.2515   -0.3949 C   0  0  0  0  0  0  0  0  0  0  0  0
    5.8400    2.7506   -1.4906 O   0  0  0  0  0  0  0  0  0  0  0  0
    6.1732    2.7223    0.7597 N   0  0  0  0  0  0  0  0  0  0  0  0
    5.8196    2.3517    2.1201 C   0  0  0  0  0  0  0  0  0  0  0  0
    7.1976    3.7481    0.6469 C   0  0  0  0  0  0  0  0  0  0  0  0
    3.7214    0.9538   -1.3802 C   0  0  0  0  0  0  0  0  0  0  0  0
    2.9008   -0.1702   -1.4059 C   0  0  0  0  0  0  0  0  0  0  0  0
    3.0579   -1.1693   -0.4376 C   0  0  0  0  0  0  0  0  0  0  0  0
    2.2764   -2.4605   -0.5244 C   0  0  0  0  0  0  0  0  0  0  0  0
    2.8736   -3.5132   -0.7108 O   0  0  0  0  0  0  0  0  0  0  0  0
    0.9068   -2.3990   -0.4433 N   0  0  0  0  0  0  0  0  0  0  0  0
    0.1425   -1.2618    0.0697 C   0  0  0  0  0  0  0  0  0  0  0  0
   -1.1050   -1.0006   -0.7993 C   0  0  2  0  0  0  0  0  0  0  0  0
   -1.8794    0.2252   -0.3212 C   0  0  0  0  0  0  0  0  0  0  0  0
   -1.9315   -2.2034   -0.9209 N   0  0  0  0  0  0  0  0  0  0  0  0
   -2.8652   -2.4951    0.1516 C   0  0  0  0  0  0  0  0  0  0  0  0
   -1.1421   -3.3162   -1.4282 C   0  0  0  0  0  0  0  0  0  0  0  0
    0.1488   -3.6497   -0.6445 C   0  0  2  0  0  0  0  0  0  0  0  0
   -0.0530   -4.4162    0.6696 C   0  0  0  0  0  0  0  0  0  0  0  0
    5.1094   -1.6846    2.2780 H   0  0  0  0  0  0  0  0  0  0  0  0
    4.6742   -2.9822    1.1130 H   0  0  0  0  0  0  0  0  0  0  0  0
    3.4286   -2.2963    2.1609 H   0  0  0  0  0  0  0  0  0  0  0  0
    4.8531    1.8436    2.1601 H   0  0  0  0  0  0  0  0  0  0  0  0
    5.7640    3.2674    2.7338 H   0  0  0  0  0  0  0  0  0  0  0  0
    6.5713    1.6803    2.5712 H   0  0  0  0  0  0  0  0  0  0  0  0
    7.4379    3.8985   -0.4112 H   0  0  0  0  0  0  0  0  0  0  0  0
    8.1055    3.4418    1.1954 H   0  0  0  0  0  0  0  0  0  0  0  0
    6.8486    4.7063    1.0730 H   0  0  0  0  0  0  0  0  0  0  0  0
    3.6633    1.7366   -2.1364 H   0  0  0  0  0  0  0  0  0  0  0  0
    2.1474   -0.2853   -2.1901 H   0  0  0  0  0  0  0  0  0  0  0  0
    0.7843   -0.3734    0.0979 H   0  0  0  0  0  0  0  0  0  0  0  0
   -0.1746   -1.4602    1.1121 H   0  0  0  0  0  0  0  0  0  0  0  0
   -0.7315   -0.7858   -1.8194 H   0  0  0  0  0  0  0  0  0  0  0  0
   -2.1826    0.1432    0.7347 H   0  0  0  0  0  0  0  0  0  0  0  0
   -2.7853    0.3692   -0.9293 H   0  0  0  0  0  0  0  0  0  0  0  0
   -1.2568    1.1280   -0.4179 H   0  0  0  0  0  0  0  0  0  0  0  0
   -3.6393   -1.7146    0.2157 H   0  0  0  0  0  0  0  0  0  0  0  0
   -2.4223   -2.6025    1.1655 H   0  0  0  0  0  0  0  0  0  0  0  0
   -3.3821   -3.4405   -0.0751 H   0  0  0  0  0  0  0  0  0  0  0  0
   -0.8385   -3.0675   -2.4619 H   0  0  0  0  0  0  0  0  0  0  0  0
   -1.7759   -4.2154   -1.4877 H   0  0  0  0  0  0  0  0  0  0  0  0
    0.7792   -4.2760   -1.2912 H   0  0  0  0  0  0  0  0  0  0  0  0
   -0.5853   -3.8261    1.4308 H   0  0  0  0  0  0  0  0  0  0  0  0
    0.9245   -4.7099    1.0805 H   0  0  0  0  0  0  0  0  0  0  0  0
   -0.6348   -5.3349    0.4923 H   0  0  0  0  0  0  0  0  0  0  0  0
  1  2  1  0
  1 24  1  0
  1 25  1  0
  1 26  1  0
  2  3  2  0
  2 12  1  0
  3  4  1  0
  4  5  1  0
  4 10  2  0
  5  6  2  0
  5  7  1  0
  7  8  1  0
  7  9  1  0
  8 27  1  0
  8 28  1  0
  8 29  1  0
  9 30  1  0
  9 31  1  0
  9 32  1  0
 10 11  1  0
 10 33  1  0
 11 12  2  0
 11 34  1  0
 12 13  1  0
 13 14  2  0
 13 15  1  0
 15 16  1  0
 15 22  1  0
 16 17  1  0
 16 35  1  0
 16 36  1  0
 17 18  1  0
 17 19  1  0
 17 37  1  6
 18 38  1  0
 18 39  1  0
 18 40  1  0
 19 20  1  0
 19 21  1  0
 20 41  1  0
 20 42  1  0
 20 43  1  0
 21 22  1  0
 21 44  1  0
 21 45  1  0
 22 23  1  0
 22 46  1  6
 23 47  1  0
 23 48  1  0
 23 49  1  0
M  END

