
     RDKit          3D

 31 32  0  0  0  0  0  0  0  0999 V2000
    1.0146   -0.0423    1.3209 F   0  0  0  0  0  0  0  0  0  0  0  0
    2.2137   -0.0551    0.7322 C   0  0  0  0  0  0  0  0  0  0  0  0
    2.7663    1.1147    0.2209 C   0  0  0  0  0  0  0  0  0  0  0  0
    4.0238    1.0615   -0.3877 C   0  0  0  0  0  0  0  0  0  0  0  0
    4.7142   -0.1492   -0.4797 C   0  0  0  0  0  0  0  0  0  0  0  0
    4.1693   -1.3348    0.0364 C   0  0  0  0  0  0  0  0  0  0  0  0
    4.8829   -2.6630   -0.0441 C   0  0  0  0  0  0  0  0  0  0  0  0
    4.2987   -3.6472   -1.0757 C   0  0  1  0  0  0  0  0  0  0  0  0
    4.4193   -2.9297   -2.7525 Cl  0  0  0  0  0  0  0  0  0  0  0  0
    4.9610   -5.0066   -1.0219 C   0  0  0  0  0  0  0  0  0  0  0  0
    6.2519   -5.2233   -1.5289 C   0  0  0  0  0  0  0  0  0  0  0  0
    6.8585   -6.4743   -1.4129 C   0  0  0  0  0  0  0  0  0  0  0  0
    6.1887   -7.5293   -0.7875 C   0  0  0  0  0  0  0  0  0  0  0  0
    4.9028   -7.3216   -0.2800 C   0  0  0  0  0  0  0  0  0  0  0  0
    4.1850   -8.4366    0.4411 C   0  0  1  0  0  0  0  0  0  0  0  0
    4.5556   -9.6463   -0.0128 F   0  0  0  0  0  0  0  0  0  0  0  0
    4.4459   -8.4171    1.7630 F   0  0  0  0  0  0  0  0  0  0  0  0
    2.8506   -8.3431    0.3052 F   0  0  0  0  0  0  0  0  0  0  0  0
    4.2916   -6.0678   -0.4005 C   0  0  0  0  0  0  0  0  0  0  0  0
    2.9091   -1.2628    0.6372 C   0  0  0  0  0  0  0  0  0  0  0  0
    2.3465   -2.3763    1.1366 F   0  0  0  0  0  0  0  0  0  0  0  0
    2.2016    2.0450    0.3080 H   0  0  0  0  0  0  0  0  0  0  0  0
    4.4651    1.9739   -0.7944 H   0  0  0  0  0  0  0  0  0  0  0  0
    5.6934   -0.1851   -0.9620 H   0  0  0  0  0  0  0  0  0  0  0  0
    4.8291   -3.1698    0.9338 H   0  0  0  0  0  0  0  0  0  0  0  0
    5.9487   -2.5019   -0.2649 H   0  0  0  0  0  0  0  0  0  0  0  0
    3.2224   -3.7609   -0.8955 H   0  0  0  0  0  0  0  0  0  0  0  0
    6.7699   -4.4100   -2.0419 H   0  0  0  0  0  0  0  0  0  0  0  0
    7.8595   -6.6330   -1.8210 H   0  0  0  0  0  0  0  0  0  0  0  0
    6.6559   -8.5121   -0.7048 H   0  0  0  0  0  0  0  0  0  0  0  0
    3.2809   -5.9230   -0.0122 H   0  0  0  0  0  0  0  0  0  0  0  0
  1  2  1  0
  2  3  2  0
  2 20  1  0
  3  4  1  0
  3 22  1  0
  4  5  2  0
  4 23  1  0
  5  6  1  0
  5 24  1  0
  6  7  1  0
  6 20  2  0
  7  8  1  0
  7 25  1  0
  7 26  1  0
  8  9  1  0
  8 10  1  0
  8 27  1  1
 10 11  2  0
 10 19  1  0
 11 12  1  0
 11 28  1  0
 12 13  2  0
 12 29  1  0
 13 14  1  0
 13 30  1  0
 14 15  1  0
 14 19  2  0
 15 16  1  6
 15 17  1  0
 15 18  1  0
 19 31  1  0
 20 21  1  0
M  END

