
     RDKit          3D

 44 46  0  0  0  0  0  0  0  0999 V2000
    3.9088   -0.9195   -0.9306 C   0  0  0  0  0  0  0  0  0  0  0  0
    2.7538   -0.5147   -0.0382 C   0  0  2  0  0  0  0  0  0  0  0  0
    2.6326    0.5802   -0.0081 H   0  0  0  0  0  0  0  0  0  0  0  0
    3.0681   -0.9640    1.3024 O   0  0  0  0  0  0  0  0  0  0  0  0
    2.6418   -0.2240    2.3338 C   0  0  0  0  0  0  0  0  0  0  0  0
    1.8490    0.6899    2.2014 O   0  0  0  0  0  0  0  0  0  0  0  0
    3.2309   -0.6402    3.6440 C   0  0  0  0  0  0  0  0  0  0  0  0
    4.3128   -1.3671    3.5522 N   0  0  0  0  0  0  0  0  0  0  0  0
    4.9484   -1.7696    4.6418 N   0  0  0  0  0  0  0  0  0  0  0  0
    6.1551   -2.5692    4.4423 C   0  0  0  0  0  0  0  0  0  0  0  0
    4.5682   -1.4836    5.9682 C   0  0  0  0  0  0  0  0  0  0  0  0
    5.2398   -1.9010    6.8958 O   0  0  0  0  0  0  0  0  0  0  0  0
    3.3430   -0.6799    6.0845 C   0  0  0  0  0  0  0  0  0  0  0  0
    2.8659   -0.3632    7.3681 C   0  0  0  0  0  0  0  0  0  0  0  0
    1.7026    0.3804    7.5082 C   0  0  0  0  0  0  0  0  0  0  0  0
    1.0072    0.8102    6.3639 C   0  0  0  0  0  0  0  0  0  0  0  0
    1.4678    0.5114    5.0873 C   0  0  0  0  0  0  0  0  0  0  0  0
    2.6539   -0.2426    4.9239 C   0  0  0  0  0  0  0  0  0  0  0  0
    1.4182   -1.1393   -0.5139 C   0  0  0  0  0  0  0  0  0  0  0  0
    1.3912   -1.9373   -1.4303 O   0  0  0  0  0  0  0  0  0  0  0  0
    0.3105   -0.6883    0.1721 N   0  0  0  0  0  0  0  0  0  0  0  0
   -1.0254   -1.0676   -0.0123 C   0  0  0  0  0  0  0  0  0  0  0  0
   -1.4457   -1.9214   -1.0498 C   0  0  0  0  0  0  0  0  0  0  0  0
   -2.7934   -2.2511   -1.1893 C   0  0  0  0  0  0  0  0  0  0  0  0
   -3.7617   -1.7501   -0.3127 C   0  0  0  0  0  0  0  0  0  0  0  0
   -3.3651   -0.9098    0.7220 C   0  0  0  0  0  0  0  0  0  0  0  0
   -2.0099   -0.5653    0.8851 C   0  0  0  0  0  0  0  0  0  0  0  0
   -1.6416    0.2832    1.9798 C   0  0  0  0  0  0  0  0  0  0  0  0
   -1.3471    0.9607    2.8769 N   0  0  0  0  0  0  0  0  0  0  0  0
    4.0121   -2.0127   -0.9554 H   0  0  0  0  0  0  0  0  0  0  0  0
    4.8410   -0.4734   -0.5556 H   0  0  0  0  0  0  0  0  0  0  0  0
    3.7310   -0.5724   -1.9581 H   0  0  0  0  0  0  0  0  0  0  0  0
    6.2832   -2.7046    3.3633 H   0  0  0  0  0  0  0  0  0  0  0  0
    6.0518   -3.5406    4.9469 H   0  0  0  0  0  0  0  0  0  0  0  0
    7.0263   -2.0567    4.8761 H   0  0  0  0  0  0  0  0  0  0  0  0
    3.4317   -0.7209    8.2301 H   0  0  0  0  0  0  0  0  0  0  0  0
    1.3253    0.6279    8.5034 H   0  0  0  0  0  0  0  0  0  0  0  0
    0.0858    1.3880    6.4702 H   0  0  0  0  0  0  0  0  0  0  0  0
    0.9118    0.8574    4.2185 H   0  0  0  0  0  0  0  0  0  0  0  0
    0.5061   -0.0041    0.9088 H   0  0  0  0  0  0  0  0  0  0  0  0
   -0.7002   -2.3171   -1.7339 H   0  0  0  0  0  0  0  0  0  0  0  0
   -3.0894   -2.9150   -2.0055 H   0  0  0  0  0  0  0  0  0  0  0  0
   -4.8141   -2.0143   -0.4335 H   0  0  0  0  0  0  0  0  0  0  0  0
   -4.0957   -0.5070    1.4260 H   0  0  0  0  0  0  0  0  0  0  0  0
  1  2  1  0
  1 30  1  0
  1 31  1  0
  1 32  1  0
  2  3  1  1
  2  4  1  0
  2 19  1  0
  4  5  1  0
  5  6  2  0
  5  7  1  0
  7  8  2  0
  7 18  1  0
  8  9  1  0
  9 10  1  0
  9 11  1  0
 10 33  1  0
 10 34  1  0
 10 35  1  0
 11 12  2  0
 11 13  1  0
 13 14  1  0
 13 18  2  0
 14 15  2  0
 14 36  1  0
 15 16  1  0
 15 37  1  0
 16 17  2  0
 16 38  1  0
 17 18  1  0
 17 39  1  0
 19 20  2  0
 19 21  1  0
 21 22  1  0
 21 40  1  0
 22 23  2  0
 22 27  1  0
 23 24  1  0
 23 41  1  0
 24 25  2  0
 24 42  1  0
 25 26  1  0
 25 43  1  0
 26 27  2  0
 26 44  1  0
 27 28  1  0
 28 29  3  0
M  END

