
     RDKit          3D

 49 50  0  0  0  0  0  0  0  0999 V2000
    2.9337    1.4918    2.0752 C   0  0  0  0  0  0  0  0  0  0  0  0
    2.2580    0.4366    1.1946 C   0  0  0  0  0  0  0  0  0  0  0  0
    2.8280   -1.0127    1.2324 C   0  0  1  0  0  0  0  0  0  0  0  0
    2.6266   -1.5802    2.6564 C   0  0  0  0  0  0  0  0  0  0  0  0
    1.9649   -1.8577    0.2729 C   0  0  0  0  0  0  0  0  0  0  0  0
    4.3689   -1.0221    0.8976 C   0  0  1  0  0  0  0  0  0  0  0  0
    5.0558   -2.4142    0.8908 C   0  0  0  0  0  0  0  0  0  0  0  0
    5.0680   -3.1396   -0.4655 C   0  0  0  0  0  0  0  0  0  0  0  0
    5.6389   -2.2753   -1.6063 C   0  0  2  0  0  0  0  0  0  0  0  0
    7.0530   -1.9777   -1.3784 N   0  0  0  0  0  0  0  0  0  0  0  0
    7.9246   -2.0353   -2.5415 C   0  0  0  0  0  0  0  0  0  0  0  0
    4.7656   -0.9970   -1.6792 C   0  0  2  0  0  0  0  0  0  0  0  0
    5.2425    0.1947   -3.0054 S   0  0  0  0  0  0  0  0  0  0  0  0
    4.6761   -0.5314   -4.5275 C   0  0  0  0  0  0  0  0  0  0  0  0
    3.7938   -1.6212   -4.6352 C   0  0  0  0  0  0  0  0  0  0  0  0
    3.3926   -2.0777   -5.8950 C   0  0  0  0  0  0  0  0  0  0  0  0
    3.8455   -1.4679   -7.0660 C   0  0  0  0  0  0  0  0  0  0  0  0
    4.7170   -0.3867   -6.9402 C   0  0  0  0  0  0  0  0  0  0  0  0
    5.1705    0.2165   -8.0498 F   0  0  0  0  0  0  0  0  0  0  0  0
    5.1421    0.0857   -5.7044 C   0  0  0  0  0  0  0  0  0  0  0  0
    4.8231   -0.2219   -0.3529 C   0  0  0  0  0  0  0  0  0  0  0  0
    2.3945    2.4499    2.0022 H   0  0  0  0  0  0  0  0  0  0  0  0
    3.9762    1.6860    1.7779 H   0  0  0  0  0  0  0  0  0  0  0  0
    2.9396    1.2040    3.1384 H   0  0  0  0  0  0  0  0  0  0  0  0
    2.2490    0.7929    0.1505 H   0  0  0  0  0  0  0  0  0  0  0  0
    1.1939    0.3707    1.4826 H   0  0  0  0  0  0  0  0  0  0  0  0
    1.5759   -1.4679    2.9701 H   0  0  0  0  0  0  0  0  0  0  0  0
    3.2548   -1.0664    3.4007 H   0  0  0  0  0  0  0  0  0  0  0  0
    2.8647   -2.6534    2.7099 H   0  0  0  0  0  0  0  0  0  0  0  0
    0.9075   -1.8157    0.5822 H   0  0  0  0  0  0  0  0  0  0  0  0
    2.2584   -2.9181    0.2760 H   0  0  0  0  0  0  0  0  0  0  0  0
    2.0089   -1.4899   -0.7635 H   0  0  0  0  0  0  0  0  0  0  0  0
    4.8149   -0.4837    1.7500 H   0  0  0  0  0  0  0  0  0  0  0  0
    4.6131   -3.0735    1.6527 H   0  0  0  0  0  0  0  0  0  0  0  0
    6.1014   -2.2648    1.2093 H   0  0  0  0  0  0  0  0  0  0  0  0
    4.0516   -3.4567   -0.7441 H   0  0  0  0  0  0  0  0  0  0  0  0
    5.6627   -4.0667   -0.3844 H   0  0  0  0  0  0  0  0  0  0  0  0
    5.5156   -2.8385   -2.5528 H   0  0  0  0  0  0  0  0  0  0  0  0
    7.4185   -2.5905   -0.6538 H   0  0  0  0  0  0  0  0  0  0  0  0
    7.6658   -1.2383   -3.2526 H   0  0  0  0  0  0  0  0  0  0  0  0
    7.8843   -3.0023   -3.0911 H   0  0  0  0  0  0  0  0  0  0  0  0
    8.9670   -1.8694   -2.2256 H   0  0  0  0  0  0  0  0  0  0  0  0
    3.7290   -1.2926   -1.8908 H   0  0  0  0  0  0  0  0  0  0  0  0
    3.4088   -2.1192   -3.7460 H   0  0  0  0  0  0  0  0  0  0  0  0
    2.7081   -2.9273   -5.9614 H   0  0  0  0  0  0  0  0  0  0  0  0
    3.5429   -1.8093   -8.0571 H   0  0  0  0  0  0  0  0  0  0  0  0
    5.8351    0.9289   -5.6676 H   0  0  0  0  0  0  0  0  0  0  0  0
    4.2572    0.7145   -0.4498 H   0  0  0  0  0  0  0  0  0  0  0  0
    5.8784    0.0586   -0.2028 H   0  0  0  0  0  0  0  0  0  0  0  0
  1  2  1  0
  1 22  1  0
  1 23  1  0
  1 24  1  0
  3  2  1  1
  2 25  1  0
  2 26  1  0
  3  4  1  0
  3  5  1  0
  3  6  1  0
  4 27  1  0
  4 28  1  0
  4 29  1  0
  5 30  1  0
  5 31  1  0
  5 32  1  0
  6  7  1  0
  6 21  1  0
  6 33  1  1
  7  8  1  0
  7 34  1  0
  7 35  1  0
  8  9  1  0
  8 36  1  0
  8 37  1  0
  9 10  1  0
  9 12  1  0
  9 38  1  6
 10 11  1  0
 10 39  1  0
 11 40  1  0
 11 41  1  0
 11 42  1  0
 12 13  1  0
 12 21  1  0
 12 43  1  6
 13 14  1  0
 14 15  2  0
 14 20  1  0
 15 16  1  0
 15 44  1  0
 16 17  2  0
 16 45  1  0
 17 18  1  0
 17 46  1  0
 18 19  1  0
 18 20  2  0
 20 47  1  0
 21 48  1  0
 21 49  1  0
M  END

