
     RDKit          3D

 30 31  0  0  0  0  0  0  0  0999 V2000
    3.0064   -0.3356   -1.1939 O   0  0  0  0  0  0  0  0  0  0  0  0
    2.5979    0.1014   -0.1316 C   0  0  0  0  0  0  0  0  0  0  0  0
    3.0591   -0.4990    1.2094 C   0  0  0  0  0  0  0  0  0  0  0  0
    2.1257   -0.3236    2.3853 C   0  0  0  0  0  0  0  0  0  0  0  0
    2.2684    0.7883    3.2566 C   0  0  0  0  0  0  0  0  0  0  0  0
    1.3985    1.0091    4.3201 C   0  0  0  0  0  0  0  0  0  0  0  0
    0.3448    0.1044    4.5463 C   0  0  0  0  0  0  0  0  0  0  0  0
   -0.7118    0.0024    5.5170 C   0  0  0  0  0  0  0  0  0  0  0  0
   -1.4254   -1.1310    5.2120 C   0  0  0  0  0  0  0  0  0  0  0  0
   -0.8737   -1.7441    4.1036 N   0  0  0  0  0  0  0  0  0  0  0  0
   -1.2120   -2.5976    3.6804 H   0  0  0  0  0  0  0  0  0  0  0  0
    0.2110   -1.0144    3.6699 C   0  0  0  0  0  0  0  0  0  0  0  0
    1.0851   -1.2336    2.5973 C   0  0  0  0  0  0  0  0  0  0  0  0
    1.7455    1.1652   -0.0455 N   0  0  0  0  0  0  0  0  0  0  0  0
    1.2437    1.8587   -1.2212 C   0  0  0  0  0  0  0  0  0  0  0  0
   -0.0733    1.2687   -1.7305 C   0  0  0  0  0  0  0  0  0  0  0  0
   -1.0915    1.2974   -0.7519 O   0  0  0  0  0  0  0  0  0  0  0  0
    4.0417   -0.0463    1.4276 H   0  0  0  0  0  0  0  0  0  0  0  0
    3.2508   -1.5612    0.9999 H   0  0  0  0  0  0  0  0  0  0  0  0
    3.0972    1.4825    3.0901 H   0  0  0  0  0  0  0  0  0  0  0  0
    1.5391    1.8710    4.9776 H   0  0  0  0  0  0  0  0  0  0  0  0
   -0.9159    0.6849    6.3391 H   0  0  0  0  0  0  0  0  0  0  0  0
   -2.2979   -1.5586    5.7029 H   0  0  0  0  0  0  0  0  0  0  0  0
    0.9662   -2.1009    1.9415 H   0  0  0  0  0  0  0  0  0  0  0  0
    1.4376    1.4639    0.8731 H   0  0  0  0  0  0  0  0  0  0  0  0
    2.0087    1.7929   -2.0100 H   0  0  0  0  0  0  0  0  0  0  0  0
    1.0948    2.9191   -0.9607 H   0  0  0  0  0  0  0  0  0  0  0  0
    0.1125    0.2418   -2.1018 H   0  0  0  0  0  0  0  0  0  0  0  0
   -0.4325    1.8671   -2.5839 H   0  0  0  0  0  0  0  0  0  0  0  0
   -0.8220    0.7021   -0.0394 H   0  0  0  0  0  0  0  0  0  0  0  0
  1  2  2  0
  2  3  1  0
  2 14  1  0
  3  4  1  0
  3 18  1  0
  3 19  1  0
  4  5  2  0
  4 13  1  0
  5  6  1  0
  5 20  1  0
  6  7  2  0
  6 21  1  0
  7  8  1  0
  7 12  1  0
  8  9  2  0
  8 22  1  0
  9 10  1  0
  9 23  1  0
 10 11  1  0
 10 12  1  0
 12 13  2  0
 13 24  1  0
 14 15  1  0
 14 25  1  0
 15 16  1  0
 15 26  1  0
 15 27  1  0
 16 17  1  0
 16 28  1  0
 16 29  1  0
 17 30  1  0
M  END

