
     RDKit          3D

 50 51  0  0  0  0  0  0  0  0999 V2000
    5.9793   -1.1049   -0.1113 C   0  0  0  0  0  0  0  0  0  0  0  0
    4.5810   -0.6041    0.0195 C   0  0  0  0  0  0  0  0  0  0  0  0
    4.2746    0.7411    0.0152 N   0  0  0  0  0  0  0  0  0  0  0  0
    2.9785    0.8137    0.1472 C   0  0  0  0  0  0  0  0  0  0  0  0
    2.1466    2.0146    0.2014 C   0  0  0  0  0  0  0  0  0  0  0  0
    2.7620    3.2766    0.1032 C   0  0  0  0  0  0  0  0  0  0  0  0
    1.9904    4.4362    0.1524 C   0  0  0  0  0  0  0  0  0  0  0  0
    0.6006    4.3526    0.2997 C   0  0  0  0  0  0  0  0  0  0  0  0
   -0.0152    3.1006    0.3978 C   0  0  0  0  0  0  0  0  0  0  0  0
    0.7502    1.9347    0.3493 C   0  0  0  0  0  0  0  0  0  0  0  0
    2.3845   -0.4003    0.2409 O   0  0  0  0  0  0  0  0  0  0  0  0
    3.4106   -1.3128    0.1593 C   0  0  0  0  0  0  0  0  0  0  0  0
    3.1064   -2.7566    0.2287 C   0  0  0  0  0  0  0  0  0  0  0  0
    3.9847   -3.6103    0.1607 O   0  0  0  0  0  0  0  0  0  0  0  0
    1.7890   -3.0640    0.3728 N   0  0  0  0  0  0  0  0  0  0  0  0
    1.3382   -4.4251    0.4515 C   0  0  0  0  0  0  0  0  0  0  0  0
   -0.1828   -4.4313    0.6015 C   0  0  0  0  0  0  0  0  0  0  0  0
   -0.8346   -3.3955    0.6238 O   0  0  0  0  0  0  0  0  0  0  0  0
   -0.7488   -5.6615    0.6908 N   0  0  0  0  0  0  0  0  0  0  0  0
   -2.1652   -5.8348    0.9379 C   0  0  1  0  0  0  0  0  0  0  0  0
   -2.4686   -5.0919    1.6996 H   0  0  0  0  0  0  0  0  0  0  0  0
   -3.0736   -5.5855   -0.2955 C   0  0  0  0  0  0  0  0  0  0  0  0
   -3.1458   -6.6720   -1.3861 C   0  0  1  0  0  0  0  0  0  0  0  0
   -4.1655   -6.2511   -2.4544 C   0  0  0  0  0  0  0  0  0  0  0  0
   -1.7910   -7.0006   -2.0282 C   0  0  0  0  0  0  0  0  0  0  0  0
   -2.3618   -7.2301    1.5394 C   0  0  0  0  0  0  0  0  0  0  0  0
   -1.4715   -8.0293    1.6595 O   0  0  0  0  0  0  0  0  0  0  0  0
   -3.6151   -7.5276    1.9232 O   0  0  0  0  0  0  0  0  0  0  0  0
    6.4221   -0.7525   -1.0571 H   0  0  0  0  0  0  0  0  0  0  0  0
    5.9969   -2.2009   -0.0833 H   0  0  0  0  0  0  0  0  0  0  0  0
    6.6037   -0.7049    0.7043 H   0  0  0  0  0  0  0  0  0  0  0  0
    3.8465    3.3232   -0.0111 H   0  0  0  0  0  0  0  0  0  0  0  0
    2.4747    5.4128    0.0756 H   0  0  0  0  0  0  0  0  0  0  0  0
   -0.0020    5.2637    0.3381 H   0  0  0  0  0  0  0  0  0  0  0  0
   -1.0997    3.0312    0.5130 H   0  0  0  0  0  0  0  0  0  0  0  0
    0.2691    0.9581    0.4261 H   0  0  0  0  0  0  0  0  0  0  0  0
    1.0670   -2.3492    0.4223 H   0  0  0  0  0  0  0  0  0  0  0  0
    1.8013   -4.9571    1.3038 H   0  0  0  0  0  0  0  0  0  0  0  0
    1.6239   -5.0003   -0.4488 H   0  0  0  0  0  0  0  0  0  0  0  0
   -0.1773   -6.4953    0.8086 H   0  0  0  0  0  0  0  0  0  0  0  0
   -2.7509   -4.6243   -0.7270 H   0  0  0  0  0  0  0  0  0  0  0  0
   -4.0991   -5.3980    0.0755 H   0  0  0  0  0  0  0  0  0  0  0  0
   -3.5273   -7.5979   -0.9152 H   0  0  0  0  0  0  0  0  0  0  0  0
   -3.8404   -5.3308   -2.9689 H   0  0  0  0  0  0  0  0  0  0  0  0
   -5.1583   -6.0550   -2.0173 H   0  0  0  0  0  0  0  0  0  0  0  0
   -4.2851   -7.0356   -3.2182 H   0  0  0  0  0  0  0  0  0  0  0  0
   -1.3265   -6.0993   -2.4625 H   0  0  0  0  0  0  0  0  0  0  0  0
   -1.9210   -7.7336   -2.8405 H   0  0  0  0  0  0  0  0  0  0  0  0
   -1.0832   -7.4333   -1.3075 H   0  0  0  0  0  0  0  0  0  0  0  0
   -4.2134   -6.7839    1.7584 H   0  0  0  0  0  0  0  0  0  0  0  0
  1  2  1  0
  1 29  1  0
  1 30  1  0
  1 31  1  0
  2  3  1  0
  2 12  2  0
  3  4  2  0
  4  5  1  0
  4 11  1  0
  5  6  2  0
  5 10  1  0
  6  7  1  0
  6 32  1  0
  7  8  2  0
  7 33  1  0
  8  9  1  0
  8 34  1  0
  9 10  2  0
  9 35  1  0
 10 36  1  0
 11 12  1  0
 12 13  1  0
 13 14  2  0
 13 15  1  0
 15 16  1  0
 15 37  1  0
 16 17  1  0
 16 38  1  0
 16 39  1  0
 17 18  2  0
 17 19  1  0
 19 20  1  0
 19 40  1  0
 20 21  1  1
 20 22  1  0
 20 26  1  0
 22 23  1  0
 22 41  1  0
 22 42  1  0
 23 24  1  0
 23 25  1  0
 23 43  1  1
 24 44  1  0
 24 45  1  0
 24 46  1  0
 25 47  1  0
 25 48  1  0
 25 49  1  0
 26 27  2  0
 26 28  1  0
 28 50  1  0
M  END

