
     RDKit          3D

 43 46  0  0  0  0  0  0  0  0999 V2000
    1.3354    0.1341    0.8061 C   0  0  0  0  0  0  0  0  0  0  0  0
    2.5619    0.2386   -0.0845 C   0  0  1  0  0  0  0  0  0  0  0  0
    3.8532   -0.0356    0.6814 C   0  0  0  0  0  0  0  0  0  0  0  0
    2.4410   -0.8587   -1.0911 O   0  0  0  0  0  0  0  0  0  0  0  0
    2.7942   -0.3478   -2.2634 C   0  0  0  0  0  0  0  0  0  0  0  0
    2.9322   -1.1572   -3.3451 N   0  0  0  0  0  0  0  0  0  0  0  0
    2.7920   -2.1602   -3.2816 H   0  0  0  0  0  0  0  0  0  0  0  0
    3.3118   -0.6609   -4.6016 C   0  0  0  0  0  0  0  0  0  0  0  0
    3.4315   -1.4068   -5.5474 O   0  0  0  0  0  0  0  0  0  0  0  0
    3.5324    0.7197   -4.6423 N   0  0  0  0  0  0  0  0  0  0  0  0
    3.9219    1.2768   -5.9145 C   0  0  0  0  0  0  0  0  0  0  0  0
    3.0232    1.2698   -6.9853 C   0  0  0  0  0  0  0  0  0  0  0  0
    3.4027    1.8119   -8.2149 C   0  0  0  0  0  0  0  0  0  0  0  0
    4.6742    2.3706   -8.3740 C   0  0  0  0  0  0  0  0  0  0  0  0
    5.5676    2.3816   -7.2988 C   0  0  0  0  0  0  0  0  0  0  0  0
    5.1952    1.8323   -6.0702 C   0  0  0  0  0  0  0  0  0  0  0  0
    3.4064    1.6381   -3.5240 C   0  0  0  0  0  0  0  0  0  0  0  0
    3.6367    2.8205   -3.6732 O   0  0  0  0  0  0  0  0  0  0  0  0
    3.0001    0.9934   -2.3028 C   0  0  0  0  0  0  0  0  0  0  0  0
    2.6942    1.5735   -0.9449 C   0  0  1  0  0  0  0  0  0  0  0  0
    1.4996    2.5193   -0.9013 C   0  0  0  0  0  0  0  0  0  0  0  0
    0.3684    2.3250   -1.7086 C   0  0  0  0  0  0  0  0  0  0  0  0
   -0.7255    3.1908   -1.6302 C   0  0  0  0  0  0  0  0  0  0  0  0
   -0.7059    4.2717   -0.7435 C   0  0  0  0  0  0  0  0  0  0  0  0
    0.4180    4.4817    0.0602 C   0  0  0  0  0  0  0  0  0  0  0  0
    1.5094    3.6125   -0.0219 C   0  0  0  0  0  0  0  0  0  0  0  0
    1.3190   -0.8452    1.3082 H   0  0  0  0  0  0  0  0  0  0  0  0
    0.4095    0.2507    0.2277 H   0  0  0  0  0  0  0  0  0  0  0  0
    1.3554    0.9213    1.5737 H   0  0  0  0  0  0  0  0  0  0  0  0
    3.8247   -1.0323    1.1469 H   0  0  0  0  0  0  0  0  0  0  0  0
    3.9872    0.7166    1.4742 H   0  0  0  0  0  0  0  0  0  0  0  0
    4.7250    0.0145    0.0109 H   0  0  0  0  0  0  0  0  0  0  0  0
    2.0316    0.8328   -6.8553 H   0  0  0  0  0  0  0  0  0  0  0  0
    2.6995    1.7993   -9.0513 H   0  0  0  0  0  0  0  0  0  0  0  0
    4.9686    2.7982   -9.3358 H   0  0  0  0  0  0  0  0  0  0  0  0
    6.5620    2.8195   -7.4156 H   0  0  0  0  0  0  0  0  0  0  0  0
    5.8869    1.8408   -5.2265 H   0  0  0  0  0  0  0  0  0  0  0  0
    3.5587    2.1340   -0.5544 H   0  0  0  0  0  0  0  0  0  0  0  0
    0.3480    1.4929   -2.4170 H   0  0  0  0  0  0  0  0  0  0  0  0
   -1.5953    3.0247   -2.2712 H   0  0  0  0  0  0  0  0  0  0  0  0
   -1.5589    4.9525   -0.6864 H   0  0  0  0  0  0  0  0  0  0  0  0
    0.4501    5.3310    0.7476 H   0  0  0  0  0  0  0  0  0  0  0  0
    2.3909    3.7934    0.6007 H   0  0  0  0  0  0  0  0  0  0  0  0
  2  1  1  1
  1 27  1  0
  1 28  1  0
  1 29  1  0
  2  3  1  0
  2  4  1  0
  2 20  1  0
  3 30  1  0
  3 31  1  0
  3 32  1  0
  4  5  1  0
  5  6  1  0
  5 19  2  0
  6  7  1  0
  6  8  1  0
  8  9  2  0
  8 10  1  0
 10 11  1  0
 10 17  1  0
 11 12  2  0
 11 16  1  0
 12 13  1  0
 12 33  1  0
 13 14  2  0
 13 34  1  0
 14 15  1  0
 14 35  1  0
 15 16  2  0
 15 36  1  0
 16 37  1  0
 17 18  2  0
 17 19  1  0
 19 20  1  0
 20 21  1  0
 20 38  1  1
 21 22  2  0
 21 26  1  0
 22 23  1  0
 22 39  1  0
 23 24  2  0
 23 40  1  0
 24 25  1  0
 24 41  1  0
 25 26  2  0
 25 42  1  0
 26 43  1  0
M  END

