
     RDKit          3D

 32 35  0  0  0  0  0  0  0  0999 V2000
    1.8259    1.3972   -2.0154 C   0  0  0  0  0  0  0  0  0  0  0  0
    3.0966    1.4484   -1.3293 N   0  0  0  0  0  0  0  0  0  0  0  0
    3.6525    0.3335   -0.8017 N   0  0  0  0  0  0  0  0  0  0  0  0
    4.8080    0.6436   -0.2328 C   0  0  0  0  0  0  0  0  0  0  0  0
    5.6435   -0.3703    0.4278 C   0  0  0  0  0  0  0  0  0  0  0  0
    6.8676   -0.0167    1.0252 C   0  0  0  0  0  0  0  0  0  0  0  0
    7.6531   -0.9884    1.6501 C   0  0  0  0  0  0  0  0  0  0  0  0
    7.2326   -2.3205    1.6888 C   0  0  0  0  0  0  0  0  0  0  0  0
    6.0155   -2.6792    1.0961 C   0  0  0  0  0  0  0  0  0  0  0  0
    5.2268   -1.7153    0.4711 C   0  0  0  0  0  0  0  0  0  0  0  0
    5.0397    2.0674   -0.3925 C   0  0  0  0  0  0  0  0  0  0  0  0
    6.0089    2.8860   -0.0277 N   0  0  0  0  0  0  0  0  0  0  0  0
    5.8436    4.1836   -0.3791 C   0  0  0  0  0  0  0  0  0  0  0  0
    6.8476    5.1306   -0.0216 C   0  0  0  0  0  0  0  0  0  0  0  0
    6.6872    6.4453   -0.3734 C   0  0  0  0  0  0  0  0  0  0  0  0
    7.6220    7.3461   -0.0440 F   0  0  0  0  0  0  0  0  0  0  0  0
    5.5505    6.9084   -1.0868 C   0  0  0  0  0  0  0  0  0  0  0  0
    4.5664    6.0193   -1.4453 C   0  0  0  0  0  0  0  0  0  0  0  0
    4.6721    4.6364   -1.1099 C   0  0  0  0  0  0  0  0  0  0  0  0
    3.6846    3.7861   -1.4782 N   0  0  0  0  0  0  0  0  0  0  0  0
    3.8885    2.5398   -1.1165 C   0  0  0  0  0  0  0  0  0  0  0  0
    1.8835    0.7245   -2.8851 H   0  0  0  0  0  0  0  0  0  0  0  0
    1.5860    2.4140   -2.3527 H   0  0  0  0  0  0  0  0  0  0  0  0
    1.0355    1.0377   -1.3384 H   0  0  0  0  0  0  0  0  0  0  0  0
    7.1948    1.0234    0.9945 H   0  0  0  0  0  0  0  0  0  0  0  0
    8.6018   -0.7004    2.1104 H   0  0  0  0  0  0  0  0  0  0  0  0
    7.8496   -3.0784    2.1785 H   0  0  0  0  0  0  0  0  0  0  0  0
    5.6801   -3.7193    1.1225 H   0  0  0  0  0  0  0  0  0  0  0  0
    4.2774   -1.9887    0.0076 H   0  0  0  0  0  0  0  0  0  0  0  0
    7.7278    4.7935    0.5266 H   0  0  0  0  0  0  0  0  0  0  0  0
    5.4861    7.9698   -1.3349 H   0  0  0  0  0  0  0  0  0  0  0  0
    3.6791    6.3401   -1.9941 H   0  0  0  0  0  0  0  0  0  0  0  0
  1  2  1  0
  1 22  1  0
  1 23  1  0
  1 24  1  0
  2  3  1  0
  2 21  1  0
  3  4  2  0
  4  5  1  0
  4 11  1  0
  5  6  2  0
  5 10  1  0
  6  7  1  0
  6 25  1  0
  7  8  2  0
  7 26  1  0
  8  9  1  0
  8 27  1  0
  9 10  2  0
  9 28  1  0
 10 29  1  0
 11 12  1  0
 11 21  2  0
 12 13  2  0
 13 14  1  0
 13 19  1  0
 14 15  2  0
 14 30  1  0
 15 16  1  0
 15 17  1  0
 17 18  2  0
 17 31  1  0
 18 19  1  0
 18 32  1  0
 19 20  2  0
 20 21  1  0
M  END

