
     RDKit          3D

 45 49  0  0  0  0  0  0  0  0999 V2000
    1.3904   -0.3644    1.5018 C   0  0  0  0  0  0  0  0  0  0  0  0
    2.7992   -0.1709    0.9986 C   0  0  0  0  0  0  0  0  0  0  0  0
    3.8879   -0.8165    1.6047 C   0  0  0  0  0  0  0  0  0  0  0  0
    5.1852   -0.6567    1.1185 C   0  0  0  0  0  0  0  0  0  0  0  0
    5.4425    0.1797    0.0202 C   0  0  0  0  0  0  0  0  0  0  0  0
    6.8373    0.2590   -0.5031 C   0  0  0  0  0  0  0  0  0  0  0  0
    7.5069   -0.8540   -0.5606 N   0  0  0  0  0  0  0  0  0  0  0  0
    8.7702   -0.8658   -1.0928 C   0  0  0  0  0  0  0  0  0  0  0  0
    9.3618    0.2837   -1.6284 C   0  0  0  0  0  0  0  0  0  0  0  0
   10.6666    0.2412   -2.1976 C   0  0  0  0  0  0  0  0  0  0  0  0
   11.3743   -0.9329   -2.2283 C   0  0  0  0  0  0  0  0  0  0  0  0
   10.8131   -2.1357   -1.6927 C   0  0  0  0  0  0  0  0  0  0  0  0
   11.5520   -3.2754   -1.7466 N   0  0  0  0  0  0  0  0  0  0  0  0
   11.0298   -4.3823   -1.2592 C   0  0  0  0  0  0  0  0  0  0  0  0
    9.7382   -4.4628   -0.6824 C   0  0  0  0  0  0  0  0  0  0  0  0
    8.9709   -3.3175   -0.6166 C   0  0  0  0  0  0  0  0  0  0  0  0
    9.5015   -2.1081   -1.1239 C   0  0  0  0  0  0  0  0  0  0  0  0
    8.6409    1.5564   -1.5695 C   0  0  0  0  0  0  0  0  0  0  0  0
    9.0667    2.6179   -1.9810 O   0  0  0  0  0  0  0  0  0  0  0  0
    7.3611    1.4774   -0.9294 N   0  0  0  0  0  0  0  0  0  0  0  0
    6.7287    2.7390   -0.6253 C   0  0  0  0  0  0  0  0  0  0  0  0
    6.3367    3.5977   -1.6583 C   0  0  0  0  0  0  0  0  0  0  0  0
    5.7458    4.8243   -1.3502 C   0  0  0  0  0  0  0  0  0  0  0  0
    5.5492    5.1989   -0.0170 C   0  0  0  0  0  0  0  0  0  0  0  0
    5.9561    4.3444    1.0112 C   0  0  0  0  0  0  0  0  0  0  0  0
    6.5544    3.1187    0.7094 C   0  0  0  0  0  0  0  0  0  0  0  0
    4.3562    0.8272   -0.5937 C   0  0  0  0  0  0  0  0  0  0  0  0
    3.0605    0.6471   -0.1132 C   0  0  0  0  0  0  0  0  0  0  0  0
    1.3764   -0.8059    2.5092 H   0  0  0  0  0  0  0  0  0  0  0  0
    0.8222   -1.0383    0.8369 H   0  0  0  0  0  0  0  0  0  0  0  0
    0.8405    0.5895    1.5379 H   0  0  0  0  0  0  0  0  0  0  0  0
    3.7167   -1.4603    2.4721 H   0  0  0  0  0  0  0  0  0  0  0  0
    6.0184   -1.1809    1.5895 H   0  0  0  0  0  0  0  0  0  0  0  0
   11.0764    1.1702   -2.5980 H   0  0  0  0  0  0  0  0  0  0  0  0
   12.3766   -0.9945   -2.6556 H   0  0  0  0  0  0  0  0  0  0  0  0
   11.6518   -5.2850   -1.3170 H   0  0  0  0  0  0  0  0  0  0  0  0
    9.3682   -5.4182   -0.3035 H   0  0  0  0  0  0  0  0  0  0  0  0
    7.9665   -3.3113   -0.1905 H   0  0  0  0  0  0  0  0  0  0  0  0
    6.5014    3.3061   -2.6960 H   0  0  0  0  0  0  0  0  0  0  0  0
    5.4406    5.4934   -2.1585 H   0  0  0  0  0  0  0  0  0  0  0  0
    5.0857    6.1597    0.2198 H   0  0  0  0  0  0  0  0  0  0  0  0
    5.8151    4.6335    2.0555 H   0  0  0  0  0  0  0  0  0  0  0  0
    6.8835    2.4523    1.5091 H   0  0  0  0  0  0  0  0  0  0  0  0
    4.5167    1.4667   -1.4621 H   0  0  0  0  0  0  0  0  0  0  0  0
    2.2317    1.1548   -0.6149 H   0  0  0  0  0  0  0  0  0  0  0  0
  1  2  1  0
  1 29  1  0
  1 30  1  0
  1 31  1  0
  2  3  2  0
  2 28  1  0
  3  4  1  0
  3 32  1  0
  4  5  2  0
  4 33  1  0
  5  6  1  0
  5 27  1  0
  6  7  2  0
  6 20  1  0
  7  8  1  0
  8  9  2  0
  8 17  1  0
  9 10  1  0
  9 18  1  0
 10 11  2  0
 10 34  1  0
 11 12  1  0
 11 35  1  0
 12 13  1  0
 12 17  2  0
 13 14  2  0
 14 15  1  0
 14 36  1  0
 15 16  2  0
 15 37  1  0
 16 17  1  0
 16 38  1  0
 18 19  2  0
 18 20  1  0
 20 21  1  0
 21 22  2  0
 21 26  1  0
 22 23  1  0
 22 39  1  0
 23 24  2  0
 23 40  1  0
 24 25  1  0
 24 41  1  0
 25 26  2  0
 25 42  1  0
 26 43  1  0
 27 28  2  0
 27 44  1  0
 28 45  1  0
M  END

