
     RDKit          3D

 88 93  0  0  0  0  0  0  0  0999 V2000
    8.0304   -5.5043    1.4647 C   0  0  0  0  0  0  0  0  0  0  0  0
    6.6526   -5.5381    1.1605 O   0  0  0  0  0  0  0  0  0  0  0  0
    5.7649   -5.9591    2.1021 C   0  0  0  0  0  0  0  0  0  0  0  0
    6.1359   -6.3943    3.3830 C   0  0  0  0  0  0  0  0  0  0  0  0
    5.1579   -6.8139    4.2929 C   0  0  0  0  0  0  0  0  0  0  0  0
    3.8104   -6.8040    3.9373 C   0  0  0  0  0  0  0  0  0  0  0  0
    3.4453   -6.3695    2.6578 C   0  0  0  0  0  0  0  0  0  0  0  0
    4.3955   -5.9440    1.7248 C   0  0  0  0  0  0  0  0  0  0  0  0
    3.9560   -5.5149    0.4351 N   0  0  0  0  0  0  0  0  0  0  0  0
    4.3222   -6.3803   -0.6890 C   0  0  0  0  0  0  0  0  0  0  0  0
    3.5235   -5.9771   -1.9368 C   0  0  0  0  0  0  0  0  0  0  0  0
    3.6559   -4.5608   -2.2789 N   0  0  0  0  0  0  0  0  0  0  0  0
    4.8908   -4.2060   -2.9730 C   0  0  0  0  0  0  0  0  0  0  0  0
    4.8042   -4.5027   -4.4768 C   0  0  0  0  0  0  0  0  0  0  0  0
    6.0670   -4.0927   -5.2405 C   0  0  1  0  0  0  0  0  0  0  0  0
    7.2603   -4.6595   -4.6638 O   0  0  0  0  0  0  0  0  0  0  0  0
    7.4868   -5.9965   -4.5689 C   0  0  0  0  0  0  0  0  0  0  0  0
    6.8499   -6.9922   -5.3323 C   0  0  0  0  0  0  0  0  0  0  0  0
    7.2006   -8.3293   -5.1510 C   0  0  0  0  0  0  0  0  0  0  0  0
    8.1566   -8.7184   -4.1994 C   0  0  0  0  0  0  0  0  0  0  0  0
    8.5323  -10.1685   -4.1127 C   0  0  0  0  0  0  0  0  0  0  0  0
    8.4162  -10.8709   -5.1140 O   0  0  0  0  0  0  0  0  0  0  0  0
    9.0566  -10.7189   -2.8420 C   0  0  0  0  0  0  0  0  0  0  0  0
    9.9416  -11.7994   -2.7723 C   0  0  0  0  0  0  0  0  0  0  0  0
   10.5984  -12.5896   -3.8675 C   0  0  0  0  0  0  0  0  0  0  0  0
   12.0191  -12.1255   -4.2509 C   0  0  0  0  0  0  0  0  0  0  0  0
   13.0564  -12.1175   -3.1042 C   0  0  0  0  0  0  0  0  0  0  0  0
   13.2067  -13.4776   -2.4433 C   0  0  0  0  0  0  0  0  0  0  0  0
   12.5008  -13.8695   -1.5436 O   0  0  0  0  0  0  0  0  0  0  0  0
   14.1520  -14.2941   -2.9445 O   0  0  0  0  0  0  0  0  0  0  0  0
   10.1984  -12.0884   -1.4590 N   0  0  0  0  0  0  0  0  0  0  0  0
   10.8721  -12.8016   -1.1711 H   0  0  0  0  0  0  0  0  0  0  0  0
    9.4750  -11.2511   -0.6352 C   0  0  0  0  0  0  0  0  0  0  0  0
    9.3938  -11.2251    0.7632 C   0  0  0  0  0  0  0  0  0  0  0  0
    8.5295  -10.3002    1.3420 C   0  0  0  0  0  0  0  0  0  0  0  0
    7.7599   -9.4302    0.5404 C   0  0  0  0  0  0  0  0  0  0  0  0
    7.8507   -9.4548   -0.8493 C   0  0  0  0  0  0  0  0  0  0  0  0
    8.7313  -10.3659   -1.4681 C   0  0  0  0  0  0  0  0  0  0  0  0
    8.7938   -7.7129   -3.4500 C   0  0  0  0  0  0  0  0  0  0  0  0
    8.4721   -6.3727   -3.6371 C   0  0  0  0  0  0  0  0  0  0  0  0
    6.0321   -4.2520   -6.7604 C   0  0  0  0  0  0  0  0  0  0  0  0
    4.8498   -4.4972   -7.4738 C   0  0  0  0  0  0  0  0  0  0  0  0
    4.8630   -4.5857   -8.8708 C   0  0  0  0  0  0  0  0  0  0  0  0
    6.0581   -4.4323   -9.5756 C   0  0  0  0  0  0  0  0  0  0  0  0
    7.2433   -4.1869   -8.8736 C   0  0  0  0  0  0  0  0  0  0  0  0
    7.2285   -4.0956   -7.4814 C   0  0  0  0  0  0  0  0  0  0  0  0
    3.3180   -3.7377   -1.1215 C   0  0  0  0  0  0  0  0  0  0  0  0
    4.1182   -4.0901    0.1396 C   0  0  0  0  0  0  0  0  0  0  0  0
    8.5363   -5.1187    0.5695 H   0  0  0  0  0  0  0  0  0  0  0  0
    8.4256   -6.5104    1.6892 H   0  0  0  0  0  0  0  0  0  0  0  0
    8.2453   -4.8333    2.3156 H   0  0  0  0  0  0  0  0  0  0  0  0
    7.1848   -6.4098    3.6801 H   0  0  0  0  0  0  0  0  0  0  0  0
    5.4639   -7.1503    5.2870 H   0  0  0  0  0  0  0  0  0  0  0  0
    3.0466   -7.1318    4.6462 H   0  0  0  0  0  0  0  0  0  0  0  0
    2.3987   -6.3497    2.3457 H   0  0  0  0  0  0  0  0  0  0  0  0
    4.0828   -7.4225   -0.4234 H   0  0  0  0  0  0  0  0  0  0  0  0
    5.4102   -6.3404   -0.9051 H   0  0  0  0  0  0  0  0  0  0  0  0
    2.4548   -6.1877   -1.7528 H   0  0  0  0  0  0  0  0  0  0  0  0
    3.8351   -6.5971   -2.7921 H   0  0  0  0  0  0  0  0  0  0  0  0
    5.7883   -4.6980   -2.5498 H   0  0  0  0  0  0  0  0  0  0  0  0
    5.0564   -3.1233   -2.8419 H   0  0  0  0  0  0  0  0  0  0  0  0
    3.9479   -3.9419   -4.8816 H   0  0  0  0  0  0  0  0  0  0  0  0
    4.5826   -5.5687   -4.6418 H   0  0  0  0  0  0  0  0  0  0  0  0
    6.2268   -3.0180   -5.0446 H   0  0  0  0  0  0  0  0  0  0  0  0
    6.1049   -6.7286   -6.0808 H   0  0  0  0  0  0  0  0  0  0  0  0
    6.7337   -9.1049   -5.7617 H   0  0  0  0  0  0  0  0  0  0  0  0
    9.9588  -12.5166   -4.7556 H   0  0  0  0  0  0  0  0  0  0  0  0
   10.6235  -13.6506   -3.5676 H   0  0  0  0  0  0  0  0  0  0  0  0
   11.9694  -11.1046   -4.6622 H   0  0  0  0  0  0  0  0  0  0  0  0
   12.3833  -12.7716   -5.0686 H   0  0  0  0  0  0  0  0  0  0  0  0
   12.7456  -11.4081   -2.3237 H   0  0  0  0  0  0  0  0  0  0  0  0
   14.0288  -11.7691   -3.4920 H   0  0  0  0  0  0  0  0  0  0  0  0
   14.6468  -13.8513   -3.6487 H   0  0  0  0  0  0  0  0  0  0  0  0
    9.9776  -11.9181    1.3740 H   0  0  0  0  0  0  0  0  0  0  0  0
    8.4331  -10.2577    2.4299 H   0  0  0  0  0  0  0  0  0  0  0  0
    7.0696   -8.7314    1.0192 H   0  0  0  0  0  0  0  0  0  0  0  0
    7.2362   -8.7800   -1.4465 H   0  0  0  0  0  0  0  0  0  0  0  0
    9.5592   -7.9825   -2.7198 H   0  0  0  0  0  0  0  0  0  0  0  0
    8.9705   -5.5849   -3.0686 H   0  0  0  0  0  0  0  0  0  0  0  0
    3.9031   -4.6241   -6.9463 H   0  0  0  0  0  0  0  0  0  0  0  0
    3.9306   -4.7792   -9.4075 H   0  0  0  0  0  0  0  0  0  0  0  0
    6.0681   -4.5044  -10.6661 H   0  0  0  0  0  0  0  0  0  0  0  0
    8.1855   -4.0661   -9.4146 H   0  0  0  0  0  0  0  0  0  0  0  0
    8.1567   -3.9101   -6.9361 H   0  0  0  0  0  0  0  0  0  0  0  0
    2.2449   -3.8834   -0.9012 H   0  0  0  0  0  0  0  0  0  0  0  0
    3.4616   -2.6746   -1.3755 H   0  0  0  0  0  0  0  0  0  0  0  0
    3.7354   -3.5082    0.9939 H   0  0  0  0  0  0  0  0  0  0  0  0
    5.1841   -3.8102    0.0023 H   0  0  0  0  0  0  0  0  0  0  0  0
  1  2  1  0
  1 49  1  0
  1 50  1  0
  1 51  1  0
  2  3  1  0
  3  4  2  0
  3  8  1  0
  4  5  1  0
  4 52  1  0
  5  6  2  0
  5 53  1  0
  6  7  1  0
  6 54  1  0
  7  8  2  0
  7 55  1  0
  8  9  1  0
  9 10  1  0
  9 48  1  0
 10 11  1  0
 10 56  1  0
 10 57  1  0
 11 12  1  0
 11 58  1  0
 11 59  1  0
 12 13  1  0
 12 47  1  0
 13 14  1  0
 13 60  1  0
 13 61  1  0
 14 15  1  0
 14 62  1  0
 14 63  1  0
 15 16  1  0
 15 41  1  0
 15 64  1  6
 16 17  1  0
 17 18  2  0
 17 40  1  0
 18 19  1  0
 18 65  1  0
 19 20  2  0
 19 66  1  0
 20 21  1  0
 20 39  1  0
 21 22  2  0
 21 23  1  0
 23 24  2  0
 23 38  1  0
 24 25  1  0
 24 31  1  0
 25 26  1  0
 25 67  1  0
 25 68  1  0
 26 27  1  0
 26 69  1  0
 26 70  1  0
 27 28  1  0
 27 71  1  0
 27 72  1  0
 28 29  2  0
 28 30  1  0
 30 73  1  0
 31 32  1  0
 31 33  1  0
 33 34  1  0
 33 38  2  0
 34 35  2  0
 34 74  1  0
 35 36  1  0
 35 75  1  0
 36 37  2  0
 36 76  1  0
 37 38  1  0
 37 77  1  0
 39 40  2  0
 39 78  1  0
 40 79  1  0
 41 42  2  0
 41 46  1  0
 42 43  1  0
 42 80  1  0
 43 44  2  0
 43 81  1  0
 44 45  1  0
 44 82  1  0
 45 46  2  0
 45 83  1  0
 46 84  1  0
 47 48  1  0
 47 85  1  0
 47 86  1  0
 48 87  1  0
 48 88  1  0
M  END

