
     RDKit          3D

 30 32  0  0  0  0  0  0  0  0999 V2000
    3.8380    0.6195   -1.8922 C   0  0  0  0  0  0  0  0  0  0  0  0
    3.5747    0.1728   -0.4854 C   0  0  0  0  0  0  0  0  0  0  0  0
    3.7881    0.9521    0.7101 C   0  0  0  0  0  0  0  0  0  0  0  0
    3.4344    0.1583    1.7597 C   0  0  0  0  0  0  0  0  0  0  0  0
    3.0107   -1.0494    1.3127 O   0  0  0  0  0  0  0  0  0  0  0  0
    3.0964   -1.0382   -0.0520 C   0  0  0  0  0  0  0  0  0  0  0  0
    2.7167   -2.3189   -0.7349 C   0  0  1  0  0  0  0  0  0  0  0  0
    3.5960   -3.3735   -0.3704 O   0  0  0  0  0  0  0  0  0  0  0  0
    1.2442   -2.7028   -0.5353 C   0  0  0  0  0  0  0  0  0  0  0  0
    0.8822   -4.0582   -0.5061 C   0  0  0  0  0  0  0  0  0  0  0  0
   -0.4545   -4.4637   -0.3753 C   0  0  0  0  0  0  0  0  0  0  0  0
   -1.4294   -3.4774   -0.2797 C   0  0  0  0  0  0  0  0  0  0  0  0
   -2.8104   -3.5241   -0.1407 N   0  0  0  0  0  0  0  0  0  0  0  0
   -3.3891   -4.3511   -0.0820 H   0  0  0  0  0  0  0  0  0  0  0  0
   -3.3599   -2.2419   -0.0818 C   0  0  0  0  0  0  0  0  0  0  0  0
   -4.5256   -1.9369    0.0368 O   0  0  0  0  0  0  0  0  0  0  0  0
   -2.2578   -1.3916   -0.1912 N   0  0  0  0  0  0  0  0  0  0  0  0
   -2.3618   -0.3860   -0.1765 H   0  0  0  0  0  0  0  0  0  0  0  0
   -1.0739   -2.1081   -0.3130 C   0  0  0  0  0  0  0  0  0  0  0  0
    0.2513   -1.7093   -0.4384 C   0  0  0  0  0  0  0  0  0  0  0  0
    3.2208    1.4936   -2.1600 H   0  0  0  0  0  0  0  0  0  0  0  0
    3.6244   -0.1745   -2.6224 H   0  0  0  0  0  0  0  0  0  0  0  0
    4.8916    0.9168   -2.0239 H   0  0  0  0  0  0  0  0  0  0  0  0
    4.1628    1.9727    0.7664 H   0  0  0  0  0  0  0  0  0  0  0  0
    3.4273    0.3023    2.8372 H   0  0  0  0  0  0  0  0  0  0  0  0
    2.8886   -2.1690   -1.8138 H   0  0  0  0  0  0  0  0  0  0  0  0
    3.5309   -3.4771    0.5903 H   0  0  0  0  0  0  0  0  0  0  0  0
    1.6696   -4.8085   -0.5888 H   0  0  0  0  0  0  0  0  0  0  0  0
   -0.7166   -5.5238   -0.3511 H   0  0  0  0  0  0  0  0  0  0  0  0
    0.5184   -0.6506   -0.4560 H   0  0  0  0  0  0  0  0  0  0  0  0
  1  2  1  0
  1 21  1  0
  1 22  1  0
  1 23  1  0
  2  3  1  0
  2  6  2  0
  3  4  2  0
  3 24  1  0
  4  5  1  0
  4 25  1  0
  5  6  1  0
  6  7  1  0
  7  8  1  0
  7  9  1  0
  7 26  1  6
  8 27  1  0
  9 10  2  0
  9 20  1  0
 10 11  1  0
 10 28  1  0
 11 12  2  0
 11 29  1  0
 12 13  1  0
 12 19  1  0
 13 14  1  0
 13 15  1  0
 15 16  2  0
 15 17  1  0
 17 18  1  0
 17 19  1  0
 19 20  2  0
 20 30  1  0
M  END

