
     RDKit          3D

 61 65  0  0  0  0  0  0  0  0999 V2000
    7.3207   -3.7761   -6.0389 C   0  0  0  0  0  0  0  0  0  0  0  0
    7.1513   -2.6700   -5.0271 C   0  0  0  0  0  0  0  0  0  0  0  0
    8.2088   -1.8086   -4.7006 C   0  0  0  0  0  0  0  0  0  0  0  0
    8.0573   -0.8057   -3.7404 C   0  0  0  0  0  0  0  0  0  0  0  0
    6.8384   -0.6313   -3.0651 C   0  0  0  0  0  0  0  0  0  0  0  0
    6.6764    0.4660   -2.0691 C   0  0  0  0  0  0  0  0  0  0  0  0
    6.9480    1.7917   -2.4534 C   0  0  0  0  0  0  0  0  0  0  0  0
    6.7691    2.8405   -1.5547 C   0  0  0  0  0  0  0  0  0  0  0  0
    6.3043    2.5343   -0.2741 C   0  0  0  0  0  0  0  0  0  0  0  0
    6.0645    1.2843    0.1182 N   0  0  0  0  0  0  0  0  0  0  0  0
    6.2530    0.2670   -0.7337 C   0  0  0  0  0  0  0  0  0  0  0  0
    6.0149   -1.1041   -0.1107 C   0  0  1  0  0  0  0  0  0  0  0  0
    7.1595   -1.5055    0.8655 C   0  0  0  0  0  0  0  0  0  0  0  0
    8.4950   -1.7406    0.1992 C   0  0  0  0  0  0  0  0  0  0  0  0
    9.4913   -0.7525    0.2191 C   0  0  0  0  0  0  0  0  0  0  0  0
   10.7067   -0.9925   -0.4184 C   0  0  0  0  0  0  0  0  0  0  0  0
   11.6543   -0.0439   -0.3889 F   0  0  0  0  0  0  0  0  0  0  0  0
   10.9763   -2.1846   -1.0849 C   0  0  0  0  0  0  0  0  0  0  0  0
    9.9697   -3.1491   -1.0929 C   0  0  0  0  0  0  0  0  0  0  0  0
   10.2008   -4.3069   -1.7247 F   0  0  0  0  0  0  0  0  0  0  0  0
    8.7430   -2.9526   -0.4655 C   0  0  0  0  0  0  0  0  0  0  0  0
    4.7421   -1.0696    0.5964 N   0  0  0  0  0  0  0  0  0  0  0  0
    3.9624   -2.1656    0.7522 C   0  0  0  0  0  0  0  0  0  0  0  0
    4.2544   -3.2546    0.2629 O   0  0  0  0  0  0  0  0  0  0  0  0
    2.6741   -1.9712    1.5516 C   0  0  0  0  0  0  0  0  0  0  0  0
    2.5950   -2.8155    2.7970 C   0  0  0  0  0  0  0  0  0  0  0  0
    2.2290   -2.3673    4.0612 C   0  0  0  0  0  0  0  0  0  0  0  0
    2.1720   -3.4224    4.9316 N   0  0  0  0  0  0  0  0  0  0  0  0
    1.9287   -3.3614    5.9105 H   0  0  0  0  0  0  0  0  0  0  0  0
    2.5031   -4.5829    4.2586 C   0  0  0  0  0  0  0  0  0  0  0  0
    2.5889   -5.9367    4.6753 C   0  0  0  0  0  0  0  0  0  0  0  0
    2.9433   -6.8791    3.7481 C   0  0  0  0  0  0  0  0  0  0  0  0
    3.2593   -6.5535    2.3492 C   0  0  0  0  0  0  0  0  0  0  0  0
    3.6113   -7.3700    1.5083 O   0  0  0  0  0  0  0  0  0  0  0  0
    3.1389   -5.1944    2.0288 N   0  0  0  0  0  0  0  0  0  0  0  0
    3.4533   -4.8917    1.1030 H   0  0  0  0  0  0  0  0  0  0  0  0
    2.7757   -4.2292    2.9302 C   0  0  0  0  0  0  0  0  0  0  0  0
    5.7719   -1.4856   -3.3996 C   0  0  0  0  0  0  0  0  0  0  0  0
    5.9284   -2.4832   -4.3613 C   0  0  0  0  0  0  0  0  0  0  0  0
    8.2081   -3.6169   -6.6693 H   0  0  0  0  0  0  0  0  0  0  0  0
    6.4419   -3.8583   -6.6980 H   0  0  0  0  0  0  0  0  0  0  0  0
    7.4413   -4.7527   -5.5388 H   0  0  0  0  0  0  0  0  0  0  0  0
    9.1735   -1.9272   -5.2020 H   0  0  0  0  0  0  0  0  0  0  0  0
    8.9052   -0.1607   -3.4967 H   0  0  0  0  0  0  0  0  0  0  0  0
    7.2805    1.9908   -3.4752 H   0  0  0  0  0  0  0  0  0  0  0  0
    6.9692    3.8746   -1.8435 H   0  0  0  0  0  0  0  0  0  0  0  0
    6.1218    3.3265    0.4613 H   0  0  0  0  0  0  0  0  0  0  0  0
    5.9376   -1.8811   -0.8787 H   0  0  0  0  0  0  0  0  0  0  0  0
    6.8329   -2.4301    1.3655 H   0  0  0  0  0  0  0  0  0  0  0  0
    7.2459   -0.7183    1.6301 H   0  0  0  0  0  0  0  0  0  0  0  0
    9.3377    0.1998    0.7297 H   0  0  0  0  0  0  0  0  0  0  0  0
   11.9347   -2.3594   -1.5742 H   0  0  0  0  0  0  0  0  0  0  0  0
    7.9941   -3.7466   -0.4985 H   0  0  0  0  0  0  0  0  0  0  0  0
    4.5189   -0.1909    1.0539 H   0  0  0  0  0  0  0  0  0  0  0  0
    1.8564   -2.2444    0.8590 H   0  0  0  0  0  0  0  0  0  0  0  0
    2.5270   -0.9122    1.8130 H   0  0  0  0  0  0  0  0  0  0  0  0
    1.9910   -1.3562    4.3866 H   0  0  0  0  0  0  0  0  0  0  0  0
    2.3766   -6.2224    5.7102 H   0  0  0  0  0  0  0  0  0  0  0  0
    3.0292   -7.9347    4.0093 H   0  0  0  0  0  0  0  0  0  0  0  0
    4.8015   -1.3578   -2.9138 H   0  0  0  0  0  0  0  0  0  0  0  0
    5.0797   -3.1299   -4.6016 H   0  0  0  0  0  0  0  0  0  0  0  0
  1  2  1  0
  1 40  1  0
  1 41  1  0
  1 42  1  0
  2  3  2  0
  2 39  1  0
  3  4  1  0
  3 43  1  0
  4  5  2  0
  4 44  1  0
  5  6  1  0
  5 38  1  0
  6  7  2  0
  6 11  1  0
  7  8  1  0
  7 45  1  0
  8  9  2  0
  8 46  1  0
  9 10  1  0
  9 47  1  0
 10 11  2  0
 11 12  1  0
 12 13  1  0
 12 22  1  0
 12 48  1  6
 13 14  1  0
 13 49  1  0
 13 50  1  0
 14 15  2  0
 14 21  1  0
 15 16  1  0
 15 51  1  0
 16 17  1  0
 16 18  2  0
 18 19  1  0
 18 52  1  0
 19 20  1  0
 19 21  2  0
 21 53  1  0
 22 23  1  0
 22 54  1  0
 23 24  2  0
 23 25  1  0
 25 26  1  0
 25 55  1  0
 25 56  1  0
 26 27  2  0
 26 37  1  0
 27 28  1  0
 27 57  1  0
 28 29  1  0
 28 30  1  0
 30 31  1  0
 30 37  2  0
 31 32  2  0
 31 58  1  0
 32 33  1  0
 32 59  1  0
 33 34  2  0
 33 35  1  0
 35 36  1  0
 35 37  1  0
 38 39  2  0
 38 60  1  0
 39 61  1  0
M  END

