
     RDKit          3D

 46 46  0  0  0  0  0  0  0  0999 V2000
    0.7849   -0.4931    2.3598 C   0  0  0  0  0  0  0  0  0  0  0  0
    2.3003   -0.6851    2.2889 C   0  0  0  0  0  0  0  0  0  0  0  0
    2.8237   -1.0755    0.8922 C   0  0  1  0  0  0  0  0  0  0  0  0
    2.5482   -0.0996   -0.1645 N   0  0  0  0  0  0  0  0  0  0  0  0
    4.3444   -1.3548    0.8957 C   0  0  0  0  0  0  0  0  0  0  0  0
    4.7858   -2.5305    1.7395 C   0  0  0  0  0  0  0  0  0  0  0  0
    5.4277   -2.3357    2.9675 C   0  0  0  0  0  0  0  0  0  0  0  0
    5.8042   -3.4509    3.7183 C   0  0  0  0  0  0  0  0  0  0  0  0
    6.4219   -3.2564    4.8949 F   0  0  0  0  0  0  0  0  0  0  0  0
    5.5670   -4.7495    3.2973 C   0  0  0  0  0  0  0  0  0  0  0  0
    4.9238   -4.9464    2.0619 C   0  0  0  0  0  0  0  0  0  0  0  0
    4.7303   -6.2374    1.7009 O   0  0  0  0  0  0  0  0  0  0  0  0
    4.0874   -6.5402    0.4761 C   0  0  0  0  0  0  0  0  0  0  0  0
    3.9377   -8.0439    0.3686 C   0  0  0  0  0  0  0  0  0  0  0  0
    2.9408   -8.4582    1.2667 O   0  0  0  0  0  0  0  0  0  0  0  0
    2.8754   -9.8398    1.6598 C   0  0  1  0  0  0  0  0  0  0  0  0
    4.0961  -10.2094    2.5180 C   0  0  0  0  0  0  0  0  0  0  0  0
    1.5973   -9.9154    2.4998 C   0  0  0  0  0  0  0  0  0  0  0  0
    2.7629  -10.7576    0.4328 C   0  0  0  0  0  0  0  0  0  0  0  0
    4.5383   -3.8409    1.2887 C   0  0  0  0  0  0  0  0  0  0  0  0
    0.4624   -0.2190    3.3765 H   0  0  0  0  0  0  0  0  0  0  0  0
    0.2502   -1.4168    2.0804 H   0  0  0  0  0  0  0  0  0  0  0  0
    0.4431    0.3072    1.6826 H   0  0  0  0  0  0  0  0  0  0  0  0
    2.6040   -1.4575    3.0154 H   0  0  0  0  0  0  0  0  0  0  0  0
    2.8092    0.2465    2.6032 H   0  0  0  0  0  0  0  0  0  0  0  0
    2.3162   -2.0118    0.5926 H   0  0  0  0  0  0  0  0  0  0  0  0
    2.9268    0.8142    0.0943 H   0  0  0  0  0  0  0  0  0  0  0  0
    1.5445    0.0325   -0.2839 H   0  0  0  0  0  0  0  0  0  0  0  0
    4.8684   -0.4430    1.2317 H   0  0  0  0  0  0  0  0  0  0  0  0
    4.6369   -1.5166   -0.1538 H   0  0  0  0  0  0  0  0  0  0  0  0
    5.6447   -1.3367    3.3496 H   0  0  0  0  0  0  0  0  0  0  0  0
    5.8727   -5.6032    3.9022 H   0  0  0  0  0  0  0  0  0  0  0  0
    4.6839   -6.1637   -0.3764 H   0  0  0  0  0  0  0  0  0  0  0  0
    3.0873   -6.0726    0.4347 H   0  0  0  0  0  0  0  0  0  0  0  0
    4.9185   -8.5081    0.5810 H   0  0  0  0  0  0  0  0  0  0  0  0
    3.6736   -8.2896   -0.6802 H   0  0  0  0  0  0  0  0  0  0  0  0
    4.2016   -9.4950    3.3483 H   0  0  0  0  0  0  0  0  0  0  0  0
    5.0307  -10.1985    1.9359 H   0  0  0  0  0  0  0  0  0  0  0  0
    3.9833  -11.2217    2.9366 H   0  0  0  0  0  0  0  0  0  0  0  0
    1.6657   -9.2239    3.3531 H   0  0  0  0  0  0  0  0  0  0  0  0
    1.4348  -10.9345    2.8830 H   0  0  0  0  0  0  0  0  0  0  0  0
    0.7267   -9.6223    1.8937 H   0  0  0  0  0  0  0  0  0  0  0  0
    3.6785  -10.7401   -0.1792 H   0  0  0  0  0  0  0  0  0  0  0  0
    1.9167  -10.4499   -0.2016 H   0  0  0  0  0  0  0  0  0  0  0  0
    2.5966  -11.8002    0.7452 H   0  0  0  0  0  0  0  0  0  0  0  0
    4.0497   -3.9815    0.3245 H   0  0  0  0  0  0  0  0  0  0  0  0
  1  2  1  0
  1 21  1  0
  1 22  1  0
  1 23  1  0
  2  3  1  0
  2 24  1  0
  2 25  1  0
  3  4  1  0
  3  5  1  0
  3 26  1  6
  4 27  1  0
  4 28  1  0
  5  6  1  0
  5 29  1  0
  5 30  1  0
  6  7  2  0
  6 20  1  0
  7  8  1  0
  7 31  1  0
  8  9  1  0
  8 10  2  0
 10 11  1  0
 10 32  1  0
 11 12  1  0
 11 20  2  0
 12 13  1  0
 13 14  1  0
 13 33  1  0
 13 34  1  0
 14 15  1  0
 14 35  1  0
 14 36  1  0
 16 15  1  6
 16 17  1  0
 16 18  1  0
 16 19  1  0
 17 37  1  0
 17 38  1  0
 17 39  1  0
 18 40  1  0
 18 41  1  0
 18 42  1  0
 19 43  1  0
 19 44  1  0
 19 45  1  0
 20 46  1  0
M  END

