
     RDKit          3D

 46 47  0  0  0  0  0  0  0  0999 V2000
    0.7402    1.7529    0.8184 C   0  0  0  0  0  0  0  0  0  0  0  0
    1.8864    0.8988    0.2629 C   0  0  0  0  0  0  0  0  0  0  0  0
    2.7235    1.6228   -0.7470 C   0  0  0  0  0  0  0  0  0  0  0  0
    4.0264    1.8224   -0.5947 N   0  0  0  0  0  0  0  0  0  0  0  0
    4.3543    2.5010   -1.7140 N   0  0  0  0  0  0  0  0  0  0  0  0
    5.2987    2.8254   -1.8896 H   0  0  0  0  0  0  0  0  0  0  0  0
    3.2602    2.6955   -2.4863 C   0  0  0  0  0  0  0  0  0  0  0  0
    3.3028    3.3875   -3.8156 C   0  0  0  0  0  0  0  0  0  0  0  0
    4.4849    4.2456   -3.9205 N   0  0  0  0  0  0  0  0  0  0  0  0
    4.9167    4.6532   -5.2093 C   0  0  0  0  0  0  0  0  0  0  0  0
    4.7963    6.0035   -5.5733 C   0  0  0  0  0  0  0  0  0  0  0  0
    5.2500    6.4295   -6.8194 C   0  0  0  0  0  0  0  0  0  0  0  0
    5.0597    8.1598   -7.2815 S   0  0  1  0  0  0  0  0  0  0  0  0
    4.9406    8.9280   -6.0409 O   0  0  0  0  0  0  0  0  0  0  0  0
    6.0790    8.4577   -8.2880 O   0  0  0  0  0  0  0  0  0  0  0  0
    3.5713    8.2931   -8.0630 N   0  0  0  0  0  0  0  0  0  0  0  0
    3.4702    7.7741   -9.4188 C   0  0  0  0  0  0  0  0  0  0  0  0
    2.3702    8.2222   -7.2450 C   0  0  0  0  0  0  0  0  0  0  0  0
    5.8144    5.5286   -7.7229 C   0  0  0  0  0  0  0  0  0  0  0  0
    5.9452    4.1776   -7.3744 C   0  0  0  0  0  0  0  0  0  0  0  0
    6.5806    3.2193   -8.3534 C   0  0  0  0  0  0  0  0  0  0  0  0
    5.5147    3.7295   -6.1033 C   0  0  0  0  0  0  0  0  0  0  0  0
    5.7385    2.2959   -5.6909 C   0  0  0  0  0  0  0  0  0  0  0  0
    2.2103    2.1525   -1.9012 N   0  0  0  0  0  0  0  0  0  0  0  0
    0.1198    1.1717    1.5186 H   0  0  0  0  0  0  0  0  0  0  0  0
    0.0948    2.1121    0.0022 H   0  0  0  0  0  0  0  0  0  0  0  0
    1.1253    2.6341    1.3563 H   0  0  0  0  0  0  0  0  0  0  0  0
    1.4681   -0.0049   -0.2139 H   0  0  0  0  0  0  0  0  0  0  0  0
    2.5512    0.5581    1.0708 H   0  0  0  0  0  0  0  0  0  0  0  0
    2.3490    3.9303   -3.9587 H   0  0  0  0  0  0  0  0  0  0  0  0
    3.3389    2.6296   -4.6131 H   0  0  0  0  0  0  0  0  0  0  0  0
    4.3771    5.0568   -3.3151 H   0  0  0  0  0  0  0  0  0  0  0  0
    4.3678    6.7277   -4.8773 H   0  0  0  0  0  0  0  0  0  0  0  0
    4.4035    7.9766   -9.9581 H   0  0  0  0  0  0  0  0  0  0  0  0
    2.6529    8.3007   -9.9372 H   0  0  0  0  0  0  0  0  0  0  0  0
    3.2553    6.6868   -9.4507 H   0  0  0  0  0  0  0  0  0  0  0  0
    2.5446    8.7389   -6.2933 H   0  0  0  0  0  0  0  0  0  0  0  0
    2.0437    7.1815   -7.0448 H   0  0  0  0  0  0  0  0  0  0  0  0
    1.5540    8.7416   -7.7723 H   0  0  0  0  0  0  0  0  0  0  0  0
    6.1840    5.8888   -8.6844 H   0  0  0  0  0  0  0  0  0  0  0  0
    6.7981    3.7165   -9.3091 H   0  0  0  0  0  0  0  0  0  0  0  0
    5.9288    2.3548   -8.5612 H   0  0  0  0  0  0  0  0  0  0  0  0
    7.5308    2.8133   -7.9665 H   0  0  0  0  0  0  0  0  0  0  0  0
    6.7175    1.9304   -6.0343 H   0  0  0  0  0  0  0  0  0  0  0  0
    4.9824    1.6143   -6.1204 H   0  0  0  0  0  0  0  0  0  0  0  0
    5.7030    2.1883   -4.5990 H   0  0  0  0  0  0  0  0  0  0  0  0
  1  2  1  0
  1 25  1  0
  1 26  1  0
  1 27  1  0
  2  3  1  0
  2 28  1  0
  2 29  1  0
  3  4  2  0
  3 24  1  0
  4  5  1  0
  5  6  1  0
  5  7  1  0
  7  8  1  0
  7 24  2  0
  8  9  1  0
  8 30  1  0
  8 31  1  0
  9 10  1  0
  9 32  1  0
 10 11  2  0
 10 22  1  0
 11 12  1  0
 11 33  1  0
 12 13  1  0
 12 19  2  0
 13 14  2  0
 13 15  2  0
 13 16  1  6
 16 17  1  0
 16 18  1  0
 17 34  1  0
 17 35  1  0
 17 36  1  0
 18 37  1  0
 18 38  1  0
 18 39  1  0
 19 20  1  0
 19 40  1  0
 20 21  1  0
 20 22  2  0
 21 41  1  0
 21 42  1  0
 21 43  1  0
 22 23  1  0
 23 44  1  0
 23 45  1  0
 23 46  1  0
M  END

