
     RDKit          3D

 38 40  0  0  0  0  0  0  0  0999 V2000
    1.8293   -0.0601   -0.8690 C   0  0  0  0  0  0  0  0  0  0  0  0
    2.1056    0.3301    0.4569 O   0  0  0  0  0  0  0  0  0  0  0  0
    2.6207   -0.5754    1.3222 C   0  0  0  0  0  0  0  0  0  0  0  0
    2.8523   -0.0901    2.6397 C   0  0  0  0  0  0  0  0  0  0  0  0
    3.3510   -0.9219    3.6120 C   0  0  0  0  0  0  0  0  0  0  0  0
    3.6589   -2.2853    3.3334 C   0  0  0  0  0  0  0  0  0  0  0  0
    4.1190   -3.0598    4.3536 N   0  0  0  0  0  0  0  0  0  0  0  0
    4.4030   -4.3240    4.1264 C   0  0  0  0  0  0  0  0  0  0  0  0
    4.7987   -5.1635    5.2966 C   0  0  0  0  0  0  0  0  0  0  0  0
    4.0418   -6.3240    5.5599 C   0  0  0  0  0  0  0  0  0  0  0  0
    4.2255   -7.0851    6.7107 C   0  0  0  0  0  0  0  0  0  0  0  0
    5.1948   -6.6916    7.6398 C   0  0  0  0  0  0  0  0  0  0  0  0
    5.9756   -5.5675    7.3930 C   0  0  0  0  0  0  0  0  0  0  0  0
    5.8033   -4.7992    6.2274 C   0  0  0  0  0  0  0  0  0  0  0  0
    6.6520   -3.7460    6.1174 O   0  0  0  0  0  0  0  0  0  0  0  0
    7.1679   -3.3226    4.8701 C   0  0  0  0  0  0  0  0  0  0  0  0
    4.2889   -4.9030    2.8155 C   0  0  0  0  0  0  0  0  0  0  0  0
    4.7009   -6.2399    2.5268 C   0  0  0  0  0  0  0  0  0  0  0  0
    5.0204   -7.3043    2.1809 N   0  0  0  0  0  0  0  0  0  0  0  0
    3.8122   -4.1283    1.7370 C   0  0  0  0  0  0  0  0  0  0  0  0
    3.6903   -4.6593    0.4905 N   0  0  0  0  0  0  0  0  0  0  0  0
    3.4508   -2.7624    2.0053 C   0  0  0  0  0  0  0  0  0  0  0  0
    2.9154   -1.8954    1.0128 C   0  0  0  0  0  0  0  0  0  0  0  0
    1.4258    0.8242   -1.3796 H   0  0  0  0  0  0  0  0  0  0  0  0
    1.0787   -0.8703   -0.9096 H   0  0  0  0  0  0  0  0  0  0  0  0
    2.7419   -0.3928   -1.3966 H   0  0  0  0  0  0  0  0  0  0  0  0
    2.6097    0.9540    2.8482 H   0  0  0  0  0  0  0  0  0  0  0  0
    3.5194   -0.5707    4.6316 H   0  0  0  0  0  0  0  0  0  0  0  0
    3.2598   -6.6081    4.8520 H   0  0  0  0  0  0  0  0  0  0  0  0
    3.6099   -7.9698    6.8864 H   0  0  0  0  0  0  0  0  0  0  0  0
    5.3532   -7.2710    8.5531 H   0  0  0  0  0  0  0  0  0  0  0  0
    6.7577   -5.2535    8.0871 H   0  0  0  0  0  0  0  0  0  0  0  0
    8.1727   -2.9178    5.0650 H   0  0  0  0  0  0  0  0  0  0  0  0
    6.5437   -2.5367    4.4201 H   0  0  0  0  0  0  0  0  0  0  0  0
    7.2570   -4.1631    4.1608 H   0  0  0  0  0  0  0  0  0  0  0  0
    4.0455   -5.5933    0.3188 H   0  0  0  0  0  0  0  0  0  0  0  0
    3.6060   -4.0519   -0.3114 H   0  0  0  0  0  0  0  0  0  0  0  0
    2.7125   -2.2751    0.0123 H   0  0  0  0  0  0  0  0  0  0  0  0
  1  2  1  0
  1 24  1  0
  1 25  1  0
  1 26  1  0
  2  3  1  0
  3  4  2  0
  3 23  1  0
  4  5  1  0
  4 27  1  0
  5  6  2  0
  5 28  1  0
  6  7  1  0
  6 22  1  0
  7  8  2  0
  8  9  1  0
  8 17  1  0
  9 10  2  0
  9 14  1  0
 10 11  1  0
 10 29  1  0
 11 12  2  0
 11 30  1  0
 12 13  1  0
 12 31  1  0
 13 14  2  0
 13 32  1  0
 14 15  1  0
 15 16  1  0
 16 33  1  0
 16 34  1  0
 16 35  1  0
 17 18  1  0
 17 20  2  0
 18 19  3  0
 20 21  1  0
 20 22  1  0
 21 36  1  0
 21 37  1  0
 22 23  2  0
 23 38  1  0
M  END

