
     RDKit          3D

 45 46  0  0  0  0  0  0  0  0999 V2000
    3.0021   -3.3269    4.2866 C   0  0  0  0  0  0  0  0  0  0  0  0
    3.8450   -2.0703    3.9911 C   0  0  1  0  0  0  0  0  0  0  0  0
    5.2279   -2.4194    3.4037 C   0  0  0  0  0  0  0  0  0  0  0  0
    3.0954   -0.9851    3.2131 C   0  0  0  0  0  0  0  0  0  0  0  0
    2.8753    0.2410    3.8554 C   0  0  0  0  0  0  0  0  0  0  0  0
    2.2050    1.3091    3.2529 C   0  0  0  0  0  0  0  0  0  0  0  0
    1.7357    1.1467    1.9506 C   0  0  0  0  0  0  0  0  0  0  0  0
    1.9364   -0.0568    1.2752 C   0  0  0  0  0  0  0  0  0  0  0  0
    2.6056   -1.1449    1.8801 C   0  0  0  0  0  0  0  0  0  0  0  0
    2.7487   -2.3526    1.2056 N   0  0  0  0  0  0  0  0  0  0  0  0
    2.5735   -2.5382   -0.2322 C   0  0  1  0  0  0  0  0  0  0  0  0
    3.7336   -1.9171   -1.0291 C   0  0  0  0  0  0  0  0  0  0  0  0
    2.3752   -4.0546   -0.5073 C   0  0  1  0  0  0  0  0  0  0  0  0
    1.1153   -4.6211    0.1865 C   0  0  0  0  0  0  0  0  0  0  0  0
   -0.1927   -4.1966   -0.4991 C   0  0  0  0  0  0  0  0  0  0  0  0
   -0.1948   -4.5444   -1.9933 C   0  0  0  0  0  0  0  0  0  0  0  0
    1.0439   -3.9829   -2.7042 C   0  0  0  0  0  0  0  0  0  0  0  0
    2.3366   -4.4278   -2.0051 C   0  0  0  0  0  0  0  0  0  0  0  0
    3.5480   -4.0044    4.9639 H   0  0  0  0  0  0  0  0  0  0  0  0
    2.7496   -3.8998    3.3812 H   0  0  0  0  0  0  0  0  0  0  0  0
    2.0529   -3.0540    4.7732 H   0  0  0  0  0  0  0  0  0  0  0  0
    4.0539   -1.6172    4.9744 H   0  0  0  0  0  0  0  0  0  0  0  0
    5.1751   -2.9262    2.4261 H   0  0  0  0  0  0  0  0  0  0  0  0
    5.7748   -3.0933    4.0835 H   0  0  0  0  0  0  0  0  0  0  0  0
    5.8349   -1.5115    3.2645 H   0  0  0  0  0  0  0  0  0  0  0  0
    3.2501    0.3590    4.8769 H   0  0  0  0  0  0  0  0  0  0  0  0
    2.0578    2.2469    3.7930 H   0  0  0  0  0  0  0  0  0  0  0  0
    1.2097    1.9610    1.4447 H   0  0  0  0  0  0  0  0  0  0  0  0
    1.5599   -0.1533    0.2569 H   0  0  0  0  0  0  0  0  0  0  0  0
    3.4060   -3.0004    1.6178 H   0  0  0  0  0  0  0  0  0  0  0  0
    1.6462   -2.0182   -0.5185 H   0  0  0  0  0  0  0  0  0  0  0  0
    4.6649   -2.4888   -0.8762 H   0  0  0  0  0  0  0  0  0  0  0  0
    3.9132   -0.8842   -0.6948 H   0  0  0  0  0  0  0  0  0  0  0  0
    3.5279   -1.8851   -2.1098 H   0  0  0  0  0  0  0  0  0  0  0  0
    3.2599   -4.5585   -0.0705 H   0  0  0  0  0  0  0  0  0  0  0  0
    1.1012   -4.3199    1.2449 H   0  0  0  0  0  0  0  0  0  0  0  0
    1.1816   -5.7240    0.1712 H   0  0  0  0  0  0  0  0  0  0  0  0
   -0.3448   -3.1093   -0.3752 H   0  0  0  0  0  0  0  0  0  0  0  0
   -1.0477   -4.6769    0.0059 H   0  0  0  0  0  0  0  0  0  0  0  0
   -1.1165   -4.1751   -2.4740 H   0  0  0  0  0  0  0  0  0  0  0  0
   -0.2048   -5.6445   -2.1084 H   0  0  0  0  0  0  0  0  0  0  0  0
    0.9867   -2.8791   -2.7276 H   0  0  0  0  0  0  0  0  0  0  0  0
    1.0593   -4.3074   -3.7585 H   0  0  0  0  0  0  0  0  0  0  0  0
    3.2187   -4.0353   -2.5338 H   0  0  0  0  0  0  0  0  0  0  0  0
    2.4101   -5.5280   -2.0765 H   0  0  0  0  0  0  0  0  0  0  0  0
  1  2  1  0
  1 19  1  0
  1 20  1  0
  1 21  1  0
  2  3  1  0
  2  4  1  0
  2 22  1  1
  3 23  1  0
  3 24  1  0
  3 25  1  0
  4  5  2  0
  4  9  1  0
  5  6  1  0
  5 26  1  0
  6  7  2  0
  6 27  1  0
  7  8  1  0
  7 28  1  0
  8  9  2  0
  8 29  1  0
  9 10  1  0
 10 11  1  0
 10 30  1  0
 11 12  1  0
 11 13  1  0
 11 31  1  6
 12 32  1  0
 12 33  1  0
 12 34  1  0
 13 14  1  0
 13 18  1  0
 13 35  1  1
 14 15  1  0
 14 36  1  0
 14 37  1  0
 15 16  1  0
 15 38  1  0
 15 39  1  0
 16 17  1  0
 16 40  1  0
 16 41  1  0
 17 18  1  0
 17 42  1  0
 17 43  1  0
 18 44  1  0
 18 45  1  0
M  END

