
     RDKit          3D

 29 31  0  0  0  0  0  0  0  0999 V2000
    1.5909    0.3033    1.0200 O   0  0  0  0  0  0  0  0  0  0  0  0
    2.6871    0.1270    0.5403 C   0  0  0  0  0  0  0  0  0  0  0  0
    3.5272    1.0824    0.0166 N   0  0  0  0  0  0  0  0  0  0  0  0
    4.8218    0.5834   -0.2024 C   0  0  0  0  0  0  0  0  0  0  0  0
    5.9576    1.2734   -0.6154 C   0  0  0  0  0  0  0  0  0  0  0  0
    7.1566    0.5522   -0.7181 C   0  0  0  0  0  0  0  0  0  0  0  0
    7.2061   -0.8111   -0.4149 C   0  0  0  0  0  0  0  0  0  0  0  0
    6.0461   -1.4943   -0.0124 C   0  0  0  0  0  0  0  0  0  0  0  0
    4.8494   -0.7945    0.0886 C   0  0  0  0  0  0  0  0  0  0  0  0
    3.4314   -1.2280    0.4292 C   0  0  1  0  0  0  0  0  0  0  0  0
    3.1842   -2.0205    1.6057 N   0  0  0  0  0  0  0  0  0  0  0  0
    3.1379   -3.4066    1.6006 C   0  0  0  0  0  0  0  0  0  0  0  0
    2.5876   -4.0851    2.7112 C   0  0  0  0  0  0  0  0  0  0  0  0
    2.5439   -5.4743    2.7417 C   0  0  0  0  0  0  0  0  0  0  0  0
    3.0415   -6.2439    1.6811 C   0  0  0  0  0  0  0  0  0  0  0  0
    3.5818   -5.5687    0.5873 C   0  0  0  0  0  0  0  0  0  0  0  0
    4.3520   -6.6921   -1.0527 I   0  0  0  0  0  0  0  0  0  0  0  0
    3.6387   -4.1736    0.5272 C   0  0  0  0  0  0  0  0  0  0  0  0
    3.2752    2.0644    0.0083 H   0  0  0  0  0  0  0  0  0  0  0  0
    5.9224    2.3416   -0.8416 H   0  0  0  0  0  0  0  0  0  0  0  0
    8.0651    1.0705   -1.0349 H   0  0  0  0  0  0  0  0  0  0  0  0
    8.1525   -1.3510   -0.4908 H   0  0  0  0  0  0  0  0  0  0  0  0
    6.0930   -2.5582    0.2284 H   0  0  0  0  0  0  0  0  0  0  0  0
    2.9944   -1.7182   -0.4689 H   0  0  0  0  0  0  0  0  0  0  0  0
    2.5351   -1.5776    2.2499 H   0  0  0  0  0  0  0  0  0  0  0  0
    2.1943   -3.5052    3.5504 H   0  0  0  0  0  0  0  0  0  0  0  0
    2.1113   -5.9778    3.6105 H   0  0  0  0  0  0  0  0  0  0  0  0
    3.0063   -7.3330    1.7146 H   0  0  0  0  0  0  0  0  0  0  0  0
    4.0731   -3.6881   -0.3455 H   0  0  0  0  0  0  0  0  0  0  0  0
  1  2  2  0
  2  3  1  0
  2 10  1  0
  3  4  1  0
  3 19  1  0
  4  5  2  0
  4  9  1  0
  5  6  1  0
  5 20  1  0
  6  7  2  0
  6 21  1  0
  7  8  1  0
  7 22  1  0
  8  9  2  0
  8 23  1  0
  9 10  1  0
 10 11  1  0
 10 24  1  6
 11 12  1  0
 11 25  1  0
 12 13  2  0
 12 18  1  0
 13 14  1  0
 13 26  1  0
 14 15  2  0
 14 27  1  0
 15 16  1  0
 15 28  1  0
 16 17  1  0
 16 18  2  0
 18 29  1  0
M  END

