
     RDKit          3D

 39 42  0  0  0  0  0  0  0  0999 V2000
    1.0184   -0.6090    0.5011 C   0  0  0  0  0  0  0  0  0  0  0  0
    2.4587   -0.4736    0.1007 C   0  0  0  0  0  0  0  0  0  0  0  0
    2.9962    0.6933   -0.3901 C   0  0  0  0  0  0  0  0  0  0  0  0
    4.3663    0.7727   -0.7627 C   0  0  0  0  0  0  0  0  0  0  0  0
    5.1582   -0.3291   -0.6295 C   0  0  0  0  0  0  0  0  0  0  0  0
    4.6450   -1.5075   -0.1404 N   0  0  0  0  0  0  0  0  0  0  0  0
    5.5781   -2.6364   -0.0317 C   0  0  0  0  0  0  0  0  0  0  0  0
    6.7375   -2.4727   -0.3615 O   0  0  0  0  0  0  0  0  0  0  0  0
    4.9573   -3.8214    0.4737 C   0  0  0  0  0  0  0  0  0  0  0  0
    3.6206   -3.8383    0.8082 C   0  0  0  0  0  0  0  0  0  0  0  0
    2.9063   -5.0503    1.3778 C   0  0  0  0  0  0  0  0  0  0  0  0
    3.7491   -6.6672    1.2538 S   0  0  0  0  0  0  0  0  0  0  0  0
    3.3411   -7.0721   -0.4036 C   0  0  0  0  0  0  0  0  0  0  0  0
    2.6034   -6.3512   -1.2268 N   0  0  0  0  0  0  0  0  0  0  0  0
    2.4942   -7.0701   -2.3662 N   0  0  0  0  0  0  0  0  0  0  0  0
    3.1223   -8.1804   -2.2837 N   0  0  0  0  0  0  0  0  0  0  0  0
    3.6863   -8.2259   -1.0424 N   0  0  0  0  0  0  0  0  0  0  0  0
    4.4314   -9.3642   -0.6248 C   0  0  0  0  0  0  0  0  0  0  0  0
    4.0104  -10.6361   -1.0356 C   0  0  0  0  0  0  0  0  0  0  0  0
    4.7327  -11.7636   -0.6499 C   0  0  0  0  0  0  0  0  0  0  0  0
    5.8687  -11.6172    0.1541 C   0  0  0  0  0  0  0  0  0  0  0  0
    6.7653  -13.0301    0.6475 Cl  0  0  0  0  0  0  0  0  0  0  0  0
    6.2940  -10.3501    0.5625 C   0  0  0  0  0  0  0  0  0  0  0  0
    5.5786   -9.2198    0.1641 C   0  0  0  0  0  0  0  0  0  0  0  0
    2.8105   -2.7649    0.7017 N   0  0  0  0  0  0  0  0  0  0  0  0
    3.3094   -1.6324    0.2361 C   0  0  0  0  0  0  0  0  0  0  0  0
    0.4772    0.3364    0.3547 H   0  0  0  0  0  0  0  0  0  0  0  0
    0.9324   -0.9137    1.5559 H   0  0  0  0  0  0  0  0  0  0  0  0
    0.5249   -1.4013   -0.0835 H   0  0  0  0  0  0  0  0  0  0  0  0
    2.3581    1.5744   -0.4974 H   0  0  0  0  0  0  0  0  0  0  0  0
    4.7902    1.6987   -1.1534 H   0  0  0  0  0  0  0  0  0  0  0  0
    6.2167   -0.3840   -0.8824 H   0  0  0  0  0  0  0  0  0  0  0  0
    5.5903   -4.7018    0.5725 H   0  0  0  0  0  0  0  0  0  0  0  0
    1.9185   -5.1301    0.9058 H   0  0  0  0  0  0  0  0  0  0  0  0
    2.7520   -4.9084    2.4598 H   0  0  0  0  0  0  0  0  0  0  0  0
    3.1231  -10.7309   -1.6621 H   0  0  0  0  0  0  0  0  0  0  0  0
    4.4146  -12.7584   -0.9649 H   0  0  0  0  0  0  0  0  0  0  0  0
    7.1886  -10.2481    1.1784 H   0  0  0  0  0  0  0  0  0  0  0  0
    5.9261   -8.2292    0.4606 H   0  0  0  0  0  0  0  0  0  0  0  0
  1  2  1  0
  1 27  1  0
  1 28  1  0
  1 29  1  0
  2  3  2  0
  2 26  1  0
  3  4  1  0
  3 30  1  0
  4  5  2  0
  4 31  1  0
  5  6  1  0
  5 32  1  0
  6  7  1  0
  6 26  1  0
  7  8  2  0
  7  9  1  0
  9 10  2  0
  9 33  1  0
 10 11  1  0
 10 25  1  0
 11 12  1  0
 11 34  1  0
 11 35  1  0
 12 13  1  0
 13 14  2  0
 13 17  1  0
 14 15  1  0
 15 16  2  0
 16 17  1  0
 17 18  1  0
 18 19  2  0
 18 24  1  0
 19 20  1  0
 19 36  1  0
 20 21  2  0
 20 37  1  0
 21 22  1  0
 21 23  1  0
 23 24  2  0
 23 38  1  0
 24 39  1  0
 25 26  2  0
M  END

