
     RDKit          3D

 59 58  0  0  0  0  0  0  0  0999 V2000
    1.9795   -0.2133    0.9928 C   0  0  0  0  0  0  0  0  0  0  0  0
    2.3979   -0.4180   -0.4661 C   0  0  0  0  0  0  0  0  0  0  0  0
    2.9586    0.8102   -1.2416 C   0  0  1  0  0  0  0  0  0  0  0  0
    3.1801    0.3551   -2.6980 C   0  0  0  0  0  0  0  0  0  0  0  0
    1.9183    1.9465   -1.2394 C   0  0  0  0  0  0  0  0  0  0  0  0
    4.3149    1.2332   -0.5960 C   0  0  0  0  0  0  0  0  0  0  0  0
    5.0286    2.5069   -1.1602 C   0  0  1  0  0  0  0  0  0  0  0  0
    4.6698    3.6701   -0.2076 C   0  0  0  0  0  0  0  0  0  0  0  0
    6.6021    2.3607   -1.4652 C   0  0  1  0  0  0  0  0  0  0  0  0
    7.3807    2.7233   -0.1810 C   0  0  0  0  0  0  0  0  0  0  0  0
    6.9137    0.8803   -1.8021 C   0  0  0  0  0  0  0  0  0  0  0  0
    7.0570    3.2957   -2.7216 C   0  0  1  0  0  0  0  0  0  0  0  0
    6.5787    2.6572   -4.0444 C   0  0  0  0  0  0  0  0  0  0  0  0
    6.3811    4.6852   -2.6278 C   0  0  0  0  0  0  0  0  0  0  0  0
    8.6311    3.5721   -2.7699 C   0  0  1  0  0  0  0  0  0  0  0  0
    9.5879    2.3671   -2.6943 C   0  0  0  0  0  0  0  0  0  0  0  0
    9.0970    4.4951   -3.9623 C   0  0  1  0  0  0  0  0  0  0  0  0
   10.1777    5.4800   -3.4864 C   0  0  0  0  0  0  0  0  0  0  0  0
    9.5852    3.7623   -5.2256 C   0  0  0  0  0  0  0  0  0  0  0  0
    1.6076   -1.1592    1.4186 H   0  0  0  0  0  0  0  0  0  0  0  0
    1.1697    0.5267    1.0932 H   0  0  0  0  0  0  0  0  0  0  0  0
    2.8149    0.1198    1.6286 H   0  0  0  0  0  0  0  0  0  0  0  0
    1.5264   -0.7995   -1.0282 H   0  0  0  0  0  0  0  0  0  0  0  0
    3.1542   -1.2225   -0.5109 H   0  0  0  0  0  0  0  0  0  0  0  0
    2.2290    0.0383   -3.1568 H   0  0  0  0  0  0  0  0  0  0  0  0
    3.8740   -0.5000   -2.7497 H   0  0  0  0  0  0  0  0  0  0  0  0
    3.5919    1.1605   -3.3255 H   0  0  0  0  0  0  0  0  0  0  0  0
    0.9544    1.5865   -1.6371 H   0  0  0  0  0  0  0  0  0  0  0  0
    2.2359    2.7888   -1.8739 H   0  0  0  0  0  0  0  0  0  0  0  0
    1.7337    2.3421   -0.2290 H   0  0  0  0  0  0  0  0  0  0  0  0
    4.9598    0.3491   -0.6546 H   0  0  0  0  0  0  0  0  0  0  0  0
    4.1439    1.3886    0.4812 H   0  0  0  0  0  0  0  0  0  0  0  0
    4.5610    2.7219   -2.1329 H   0  0  0  0  0  0  0  0  0  0  0  0
    4.9845    3.4464    0.8232 H   0  0  0  0  0  0  0  0  0  0  0  0
    3.5794    3.8092   -0.1792 H   0  0  0  0  0  0  0  0  0  0  0  0
    5.1109    4.6334   -0.4833 H   0  0  0  0  0  0  0  0  0  0  0  0
    6.9604    2.1802    0.6806 H   0  0  0  0  0  0  0  0  0  0  0  0
    7.3370    3.7957    0.0576 H   0  0  0  0  0  0  0  0  0  0  0  0
    8.4402    2.4428   -0.2417 H   0  0  0  0  0  0  0  0  0  0  0  0
    6.9099    0.2598   -0.8938 H   0  0  0  0  0  0  0  0  0  0  0  0
    7.9006    0.7602   -2.2551 H   0  0  0  0  0  0  0  0  0  0  0  0
    6.1827    0.4471   -2.4984 H   0  0  0  0  0  0  0  0  0  0  0  0
    5.5107    2.3949   -4.0002 H   0  0  0  0  0  0  0  0  0  0  0  0
    7.1297    1.7426   -4.3047 H   0  0  0  0  0  0  0  0  0  0  0  0
    6.6944    3.3616   -4.8815 H   0  0  0  0  0  0  0  0  0  0  0  0
    5.2867    4.6112   -2.6391 H   0  0  0  0  0  0  0  0  0  0  0  0
    6.6455    5.3152   -3.4867 H   0  0  0  0  0  0  0  0  0  0  0  0
    6.6815    5.2343   -1.7227 H   0  0  0  0  0  0  0  0  0  0  0  0
    8.8247    4.1668   -1.8621 H   0  0  0  0  0  0  0  0  0  0  0  0
    9.4188    1.6342   -3.4973 H   0  0  0  0  0  0  0  0  0  0  0  0
    9.5377    1.8331   -1.7387 H   0  0  0  0  0  0  0  0  0  0  0  0
   10.6274    2.7168   -2.7967 H   0  0  0  0  0  0  0  0  0  0  0  0
    8.2445    5.1105   -4.2800 H   0  0  0  0  0  0  0  0  0  0  0  0
   11.0681    4.9525   -3.1034 H   0  0  0  0  0  0  0  0  0  0  0  0
    9.8041    6.1300   -2.6786 H   0  0  0  0  0  0  0  0  0  0  0  0
   10.5143    6.1305   -4.3105 H   0  0  0  0  0  0  0  0  0  0  0  0
   10.5485    3.2528   -5.0666 H   0  0  0  0  0  0  0  0  0  0  0  0
    9.7383    4.4883   -6.0409 H   0  0  0  0  0  0  0  0  0  0  0  0
    8.8674    3.0116   -5.5861 H   0  0  0  0  0  0  0  0  0  0  0  0
  1  2  1  0
  1 20  1  0
  1 21  1  0
  1 22  1  0
  3  2  1  1
  2 23  1  0
  2 24  1  0
  3  4  1  0
  3  5  1  0
  3  6  1  0
  4 25  1  0
  4 26  1  0
  4 27  1  0
  5 28  1  0
  5 29  1  0
  5 30  1  0
  6  7  1  0
  6 31  1  0
  6 32  1  0
  7  8  1  0
  7  9  1  0
  7 33  1  6
  8 34  1  0
  8 35  1  0
  8 36  1  0
  9 10  1  1
  9 11  1  0
  9 12  1  0
 10 37  1  0
 10 38  1  0
 10 39  1  0
 11 40  1  0
 11 41  1  0
 11 42  1  0
 12 13  1  6
 12 14  1  0
 12 15  1  0
 13 43  1  0
 13 44  1  0
 13 45  1  0
 14 46  1  0
 14 47  1  0
 14 48  1  0
 15 16  1  0
 15 17  1  0
 15 49  1  1
 16 50  1  0
 16 51  1  0
 16 52  1  0
 17 18  1  0
 17 19  1  0
 17 53  1  6
 18 54  1  0
 18 55  1  0
 18 56  1  0
 19 57  1  0
 19 58  1  0
 19 59  1  0
M  END

