
     RDKit          3D

 45 47  0  0  0  0  0  0  0  0999 V2000
    2.3859    2.7393    2.4962 C   0  0  0  0  0  0  0  0  0  0  0  0
    3.6377    2.0704    1.9622 C   0  0  0  0  0  0  0  0  0  0  0  0
    4.0167    2.7352    0.7660 O   0  0  0  0  0  0  0  0  0  0  0  0
    5.1108    2.3223    0.0820 C   0  0  0  0  0  0  0  0  0  0  0  0
    5.4169    3.0359   -1.0916 C   0  0  0  0  0  0  0  0  0  0  0  0
    6.5123    2.6802   -1.8664 C   0  0  0  0  0  0  0  0  0  0  0  0
    7.3435    1.6082   -1.4893 C   0  0  0  0  0  0  0  0  0  0  0  0
    8.4729    1.3241   -2.2871 N   0  0  0  0  0  0  0  0  0  0  0  0
    9.1196    0.1703   -2.5475 C   0  0  0  0  0  0  0  0  0  0  0  0
    8.9391   -1.1703   -2.3624 C   0  0  0  0  0  0  0  0  0  0  0  0
    7.6268   -2.0571   -1.6811 Cl  0  0  0  0  0  0  0  0  0  0  0  0
   10.0860   -1.9010   -2.9449 C   0  0  0  0  0  0  0  0  0  0  0  0
   10.2866   -3.0859   -2.9984 O   0  0  0  0  0  0  0  0  0  0  0  0
   10.9721   -0.9040   -3.4846 N   0  0  0  0  0  0  0  0  0  0  0  0
   12.1832   -1.2008   -4.1832 C   0  0  0  0  0  0  0  0  0  0  0  0
   12.1225   -2.0113   -5.3209 C   0  0  0  0  0  0  0  0  0  0  0  0
   13.2841   -2.3355   -6.0207 C   0  0  0  0  0  0  0  0  0  0  0  0
   14.5287   -1.8475   -5.6015 C   0  0  0  0  0  0  0  0  0  0  0  0
   15.7978   -2.1740   -6.3507 C   0  0  0  0  0  0  0  0  0  0  0  0
   14.5673   -1.0418   -4.4535 C   0  0  0  0  0  0  0  0  0  0  0  0
   13.4216   -0.7096   -3.7187 C   0  0  0  0  0  0  0  0  0  0  0  0
   13.5279    0.1405   -2.4786 C   0  0  0  0  0  0  0  0  0  0  0  0
   10.4287    0.3475   -3.3006 C   0  0  0  0  0  0  0  0  0  0  0  0
   10.8634    1.4217   -3.6578 O   0  0  0  0  0  0  0  0  0  0  0  0
    7.0521    0.9130   -0.3097 C   0  0  0  0  0  0  0  0  0  0  0  0
    5.9400    1.2571    0.4651 C   0  0  0  0  0  0  0  0  0  0  0  0
    2.0604    2.2492    3.4267 H   0  0  0  0  0  0  0  0  0  0  0  0
    1.5676    2.6743    1.7630 H   0  0  0  0  0  0  0  0  0  0  0  0
    2.5738    3.8027    2.7091 H   0  0  0  0  0  0  0  0  0  0  0  0
    3.4528    0.9991    1.7556 H   0  0  0  0  0  0  0  0  0  0  0  0
    4.4589    2.1274    2.7017 H   0  0  0  0  0  0  0  0  0  0  0  0
    4.7682    3.8652   -1.3799 H   0  0  0  0  0  0  0  0  0  0  0  0
    6.7292    3.2329   -2.7844 H   0  0  0  0  0  0  0  0  0  0  0  0
    8.9374    2.1213   -2.7231 H   0  0  0  0  0  0  0  0  0  0  0  0
   11.1562   -2.3937   -5.6534 H   0  0  0  0  0  0  0  0  0  0  0  0
   13.2187   -2.9731   -6.9063 H   0  0  0  0  0  0  0  0  0  0  0  0
   15.6084   -2.8633   -7.1866 H   0  0  0  0  0  0  0  0  0  0  0  0
   16.5447   -2.6427   -5.6888 H   0  0  0  0  0  0  0  0  0  0  0  0
   16.2626   -1.2633   -6.7650 H   0  0  0  0  0  0  0  0  0  0  0  0
   15.5333   -0.6634   -4.1046 H   0  0  0  0  0  0  0  0  0  0  0  0
   14.5703    0.2062   -2.1357 H   0  0  0  0  0  0  0  0  0  0  0  0
   12.9231   -0.2716   -1.6548 H   0  0  0  0  0  0  0  0  0  0  0  0
   13.1608    1.1619   -2.6684 H   0  0  0  0  0  0  0  0  0  0  0  0
    7.6954    0.0975    0.0187 H   0  0  0  0  0  0  0  0  0  0  0  0
    5.7417    0.6902    1.3744 H   0  0  0  0  0  0  0  0  0  0  0  0
  1  2  1  0
  1 27  1  0
  1 28  1  0
  1 29  1  0
  2  3  1  0
  2 30  1  0
  2 31  1  0
  3  4  1  0
  4  5  2  0
  4 26  1  0
  5  6  1  0
  5 32  1  0
  6  7  2  0
  6 33  1  0
  7  8  1  0
  7 25  1  0
  8  9  1  0
  8 34  1  0
  9 10  2  0
  9 23  1  0
 10 11  1  0
 10 12  1  0
 12 13  2  0
 12 14  1  0
 14 15  1  0
 14 23  1  0
 15 16  2  0
 15 21  1  0
 16 17  1  0
 16 35  1  0
 17 18  2  0
 17 36  1  0
 18 19  1  0
 18 20  1  0
 19 37  1  0
 19 38  1  0
 19 39  1  0
 20 21  2  0
 20 40  1  0
 21 22  1  0
 22 41  1  0
 22 42  1  0
 22 43  1  0
 23 24  2  0
 25 26  2  0
 25 44  1  0
 26 45  1  0
M  END

