
     RDKit          3D

 54 55  0  0  0  0  0  0  0  0999 V2000
    9.3498   -0.0990    4.7713 C   0  0  0  0  0  0  0  0  0  0  0  0
    8.4920   -1.6910    4.5708 S   0  0  0  0  0  0  0  0  0  0  0  0
    7.2372   -1.2042    3.3246 C   0  0  0  0  0  0  0  0  0  0  0  0
    6.4468   -2.4365    2.8832 C   0  0  0  0  0  0  0  0  0  0  0  0
    5.2652   -2.1312    1.9409 C   0  0  2  0  0  0  0  0  0  0  0  0
    4.6953   -1.2765    2.3444 H   0  0  0  0  0  0  0  0  0  0  0  0
    4.3126   -3.2329    1.8989 N   0  0  0  0  0  0  0  0  0  0  0  0
    3.0719   -3.1565    2.4747 C   0  0  0  0  0  0  0  0  0  0  0  0
    2.6095   -2.1291    2.9429 O   0  0  0  0  0  0  0  0  0  0  0  0
    2.3183   -4.4982    2.4914 C   0  0  1  0  0  0  0  0  0  0  0  0
    2.6039   -5.0402    1.5780 H   0  0  0  0  0  0  0  0  0  0  0  0
    2.8162   -5.3155    3.7055 C   0  0  0  0  0  0  0  0  0  0  0  0
    2.6955   -7.1272    3.4840 S   0  0  0  0  0  0  0  0  0  0  0  0
    4.0801   -7.3439    2.3650 C   0  0  0  0  0  0  0  0  0  0  0  0
    4.7490   -6.4071    1.9743 O   0  0  0  0  0  0  0  0  0  0  0  0
    4.3634   -8.7552    1.9422 C   0  0  0  0  0  0  0  0  0  0  0  0
    5.4613   -8.9835    1.1004 C   0  0  0  0  0  0  0  0  0  0  0  0
    5.7355  -10.2927    0.6984 C   0  0  0  0  0  0  0  0  0  0  0  0
    5.0037  -11.3458    1.0724 N   0  0  0  0  0  0  0  0  0  0  0  0
    3.9586  -11.1261    1.8733 C   0  0  0  0  0  0  0  0  0  0  0  0
    3.5945   -9.8585    2.3375 C   0  0  0  0  0  0  0  0  0  0  0  0
    0.7918   -4.3003    2.4982 C   0  0  0  0  0  0  0  0  0  0  0  0
    0.2349   -3.8328    1.1689 C   0  0  0  0  0  0  0  0  0  0  0  0
   -0.1625   -4.7676    0.1982 C   0  0  0  0  0  0  0  0  0  0  0  0
   -0.6537   -4.3533   -1.0430 C   0  0  0  0  0  0  0  0  0  0  0  0
   -0.7563   -2.9900   -1.3357 C   0  0  0  0  0  0  0  0  0  0  0  0
   -0.3646   -2.0488   -0.3788 C   0  0  0  0  0  0  0  0  0  0  0  0
    0.1276   -2.4654    0.8622 C   0  0  0  0  0  0  0  0  0  0  0  0
    5.7234   -1.7137    0.5250 C   0  0  0  0  0  0  0  0  0  0  0  0
    4.8281   -1.9560   -0.4680 N   0  0  0  0  0  0  0  0  0  0  0  0
    6.7991   -1.1754    0.3263 O   0  0  0  0  0  0  0  0  0  0  0  0
   10.1558   -0.2577    5.5022 H   0  0  0  0  0  0  0  0  0  0  0  0
    8.6725    0.6794    5.1569 H   0  0  0  0  0  0  0  0  0  0  0  0
    9.7930    0.2388    3.8216 H   0  0  0  0  0  0  0  0  0  0  0  0
    7.7345   -0.7478    2.4585 H   0  0  0  0  0  0  0  0  0  0  0  0
    6.5580   -0.4571    3.7713 H   0  0  0  0  0  0  0  0  0  0  0  0
    6.0281   -2.9301    3.7762 H   0  0  0  0  0  0  0  0  0  0  0  0
    7.1287   -3.1596    2.4045 H   0  0  0  0  0  0  0  0  0  0  0  0
    4.6641   -4.1623    1.6723 H   0  0  0  0  0  0  0  0  0  0  0  0
    2.2261   -5.0914    4.6067 H   0  0  0  0  0  0  0  0  0  0  0  0
    3.8703   -5.1032    3.9293 H   0  0  0  0  0  0  0  0  0  0  0  0
    6.0800   -8.1456    0.7755 H   0  0  0  0  0  0  0  0  0  0  0  0
    6.5890  -10.4972    0.0417 H   0  0  0  0  0  0  0  0  0  0  0  0
    3.3724  -12.0042    2.1676 H   0  0  0  0  0  0  0  0  0  0  0  0
    2.7272   -9.7479    2.9914 H   0  0  0  0  0  0  0  0  0  0  0  0
    0.5468   -3.5759    3.2901 H   0  0  0  0  0  0  0  0  0  0  0  0
    0.3250   -5.2618    2.7669 H   0  0  0  0  0  0  0  0  0  0  0  0
   -0.0927   -5.8367    0.4220 H   0  0  0  0  0  0  0  0  0  0  0  0
   -0.9633   -5.0979   -1.7813 H   0  0  0  0  0  0  0  0  0  0  0  0
   -1.1452   -2.6627   -2.3035 H   0  0  0  0  0  0  0  0  0  0  0  0
   -0.4468   -0.9805   -0.5967 H   0  0  0  0  0  0  0  0  0  0  0  0
    0.4415   -1.7290    1.6053 H   0  0  0  0  0  0  0  0  0  0  0  0
    3.9344   -2.3918   -0.2845 H   0  0  0  0  0  0  0  0  0  0  0  0
    5.0521   -1.6358   -1.4025 H   0  0  0  0  0  0  0  0  0  0  0  0
  1  2  1  0
  1 32  1  0
  1 33  1  0
  1 34  1  0
  2  3  1  0
  3  4  1  0
  3 35  1  0
  3 36  1  0
  4  5  1  0
  4 37  1  0
  4 38  1  0
  5  6  1  1
  5  7  1  0
  5 29  1  0
  7  8  1  0
  7 39  1  0
  8  9  2  0
  8 10  1  0
 10 11  1  6
 10 12  1  0
 10 22  1  0
 12 13  1  0
 12 40  1  0
 12 41  1  0
 13 14  2  0
 14 15  1  0
 14 16  1  0
 16 17  2  0
 16 21  1  0
 17 18  1  0
 17 42  1  0
 18 19  2  0
 18 43  1  0
 19 20  1  0
 20 21  2  0
 20 44  1  0
 21 45  1  0
 22 23  1  0
 22 46  1  0
 22 47  1  0
 23 24  2  0
 23 28  1  0
 24 25  1  0
 24 48  1  0
 25 26  2  0
 25 49  1  0
 26 27  1  0
 26 50  1  0
 27 28  2  0
 27 51  1  0
 28 52  1  0
 29 30  1  0
 29 31  2  0
 30 53  1  0
 30 54  1  0
M  CHG  2  13   1  15  -1
M  END

