
     RDKit          3D

 68 71  0  0  0  0  0  0  0  0999 V2000
    1.2221    0.9758   -1.7185 C   0  0  0  0  0  0  0  0  0  0  0  0
    2.6451    1.0097   -1.7790 O   0  0  0  0  0  0  0  0  0  0  0  0
    3.2979    0.2858   -0.8428 C   0  0  0  0  0  0  0  0  0  0  0  0
    2.7274   -0.3604    0.0082 O   0  0  0  0  0  0  0  0  0  0  0  0
    4.7670    0.3688   -0.9655 C   0  0  0  0  0  0  0  0  0  0  0  0
    5.4269    1.0846   -1.9072 C   0  0  0  0  0  0  0  0  0  0  0  0
    6.8629    1.1506   -2.0087 C   0  0  0  0  0  0  0  0  0  0  0  0
    7.5042    1.8766   -2.9646 C   0  0  0  0  0  0  0  0  0  0  0  0
    8.9360    1.9701   -3.1030 C   0  0  0  0  0  0  0  0  0  0  0  0
    9.5274    2.7064   -4.0811 N   0  0  0  0  0  0  0  0  0  0  0  0
   10.9017    2.5927   -3.9470 C   0  0  0  0  0  0  0  0  0  0  0  0
   11.7908    3.2424   -4.8195 C   0  0  0  0  0  0  0  0  0  0  0  0
   13.2692    3.0977   -4.6346 C   0  0  0  0  0  0  0  0  0  0  0  0
   13.9695    2.0526   -5.2701 C   0  0  0  0  0  0  0  0  0  0  0  0
   13.2884    1.0347   -6.1576 C   0  0  0  0  0  0  0  0  0  0  0  0
   15.3569    1.9499   -5.0701 C   0  0  0  0  0  0  0  0  0  0  0  0
   16.0604    2.8471   -4.2649 C   0  0  0  0  0  0  0  0  0  0  0  0
   17.5508    2.7247   -4.0608 C   0  0  0  0  0  0  0  0  0  0  0  0
   15.3384    3.8788   -3.6437 C   0  0  0  0  0  0  0  0  0  0  0  0
   13.9589    4.0240   -3.8107 C   0  0  0  0  0  0  0  0  0  0  0  0
   13.2262    5.1505   -3.1199 C   0  0  0  0  0  0  0  0  0  0  0  0
   11.2817    4.0350   -5.8620 C   0  0  0  0  0  0  0  0  0  0  0  0
   11.9737    4.7799   -6.8622 C   0  0  0  0  0  0  0  0  0  0  0  0
   11.0163    5.3861   -7.6520 C   0  0  0  0  0  0  0  0  0  0  0  0
    9.7368    5.0116   -7.1360 C   0  0  0  0  0  0  0  0  0  0  0  0
    8.4267    5.3833   -7.6088 C   0  0  0  0  0  0  0  0  0  0  0  0
    8.1880    6.1889   -8.6794 C   0  0  0  0  0  0  0  0  0  0  0  0
    6.8600    6.5366   -9.1178 C   0  0  0  0  0  0  0  0  0  0  0  0
    6.5991    7.3362  -10.1795 C   0  0  0  0  0  0  0  0  0  0  0  0
    5.2483    7.7062  -10.6469 C   0  0  0  0  0  0  0  0  0  0  0  0
    5.0372    8.4231  -11.6003 O   0  0  0  0  0  0  0  0  0  0  0  0
    4.2609    7.1614   -9.9020 O   0  0  0  0  0  0  0  0  0  0  0  0
    2.9293    7.4769  -10.2984 C   0  0  0  0  0  0  0  0  0  0  0  0
    9.9206    4.1995   -6.0609 N   0  0  0  0  0  0  0  0  0  0  0  0
    8.7956    3.5445   -5.1863 B   0  0  1  0  0  0  0  0  0  0  0  0
    8.0100    2.7119   -5.9704 F   0  0  0  0  0  0  0  0  0  0  0  0
    8.0171    4.5305   -4.5972 F   0  0  0  0  0  0  0  0  0  0  0  0
   11.1740    1.7459   -2.8319 C   0  0  0  0  0  0  0  0  0  0  0  0
    9.9558    1.3592   -2.3086 C   0  0  0  0  0  0  0  0  0  0  0  0
    0.8644    1.6096   -2.5396 H   0  0  0  0  0  0  0  0  0  0  0  0
    0.8595    1.3625   -0.7535 H   0  0  0  0  0  0  0  0  0  0  0  0
    0.8471   -0.0523   -1.8402 H   0  0  0  0  0  0  0  0  0  0  0  0
    5.3060   -0.2122   -0.2123 H   0  0  0  0  0  0  0  0  0  0  0  0
    4.8425    1.6501   -2.6399 H   0  0  0  0  0  0  0  0  0  0  0  0
    7.4393    0.5814   -1.2715 H   0  0  0  0  0  0  0  0  0  0  0  0
    6.9082    2.4358   -3.6891 H   0  0  0  0  0  0  0  0  0  0  0  0
   12.2132    1.2208   -6.2750 H   0  0  0  0  0  0  0  0  0  0  0  0
   13.4089    0.0176   -5.7491 H   0  0  0  0  0  0  0  0  0  0  0  0
   13.7396    1.0300   -7.1634 H   0  0  0  0  0  0  0  0  0  0  0  0
   15.8980    1.1374   -5.5651 H   0  0  0  0  0  0  0  0  0  0  0  0
   17.9657    1.8626   -4.6031 H   0  0  0  0  0  0  0  0  0  0  0  0
   17.7989    2.6037   -2.9931 H   0  0  0  0  0  0  0  0  0  0  0  0
   18.0770    3.6286   -4.4106 H   0  0  0  0  0  0  0  0  0  0  0  0
   15.8687    4.5943   -3.0077 H   0  0  0  0  0  0  0  0  0  0  0  0
   13.9175    5.7652   -2.5260 H   0  0  0  0  0  0  0  0  0  0  0  0
   12.4437    4.7707   -2.4434 H   0  0  0  0  0  0  0  0  0  0  0  0
   12.7217    5.8106   -3.8436 H   0  0  0  0  0  0  0  0  0  0  0  0
   13.0556    4.8397   -6.9592 H   0  0  0  0  0  0  0  0  0  0  0  0
   11.1878    6.0312   -8.5106 H   0  0  0  0  0  0  0  0  0  0  0  0
    7.5769    4.9798   -7.0538 H   0  0  0  0  0  0  0  0  0  0  0  0
    9.0242    6.6054   -9.2513 H   0  0  0  0  0  0  0  0  0  0  0  0
    6.0177    6.1252   -8.5526 H   0  0  0  0  0  0  0  0  0  0  0  0
    7.4063    7.7710  -10.7752 H   0  0  0  0  0  0  0  0  0  0  0  0
    2.2678    6.9577   -9.5936 H   0  0  0  0  0  0  0  0  0  0  0  0
    2.7331    7.1355  -11.3265 H   0  0  0  0  0  0  0  0  0  0  0  0
    2.7527    8.5628  -10.2566 H   0  0  0  0  0  0  0  0  0  0  0  0
   12.1677    1.4728   -2.4834 H   0  0  0  0  0  0  0  0  0  0  0  0
    9.7868    0.7112   -1.4517 H   0  0  0  0  0  0  0  0  0  0  0  0
  1  2  1  0
  1 40  1  0
  1 41  1  0
  1 42  1  0
  2  3  1  0
  3  4  2  0
  3  5  1  0
  5  6  2  0
  5 43  1  0
  6  7  1  0
  6 44  1  0
  7  8  2  0
  7 45  1  0
  8  9  1  0
  8 46  1  0
  9 10  1  0
  9 39  2  0
 10 11  1  0
 10 35  1  0
 11 12  1  0
 11 38  2  0
 12 13  1  0
 12 22  2  0
 13 14  2  0
 13 20  1  0
 14 15  1  0
 14 16  1  0
 15 47  1  0
 15 48  1  0
 15 49  1  0
 16 17  2  0
 16 50  1  0
 17 18  1  0
 17 19  1  0
 18 51  1  0
 18 52  1  0
 18 53  1  0
 19 20  2  0
 19 54  1  0
 20 21  1  0
 21 55  1  0
 21 56  1  0
 21 57  1  0
 22 23  1  0
 22 34  1  0
 23 24  2  0
 23 58  1  0
 24 25  1  0
 24 59  1  0
 25 26  1  0
 25 34  2  0
 26 27  2  0
 26 60  1  0
 27 28  1  0
 27 61  1  0
 28 29  2  0
 28 62  1  0
 29 30  1  0
 29 63  1  0
 30 31  2  0
 30 32  1  0
 32 33  1  0
 33 64  1  0
 33 65  1  0
 33 66  1  0
 34 35  1  0
 35 36  1  6
 35 37  1  0
 38 39  1  0
 38 67  1  0
 39 68  1  0
M  CHG  2  34   1  35  -1
M  END

