
     RDKit          3D

 44 46  0  0  0  0  0  0  0  0999 V2000
    7.5302    7.4806   -3.0301 C   0  0  0  0  0  0  0  0  0  0  0  0
    6.1811    6.9112   -3.4910 C   0  0  0  0  0  0  0  0  0  0  0  0
    6.1812    5.4257   -3.6370 C   0  0  0  0  0  0  0  0  0  0  0  0
    5.8987    4.7041   -4.6828 N   0  0  0  0  0  0  0  0  0  0  0  0
    6.0679    3.4099   -4.2241 C   0  0  0  0  0  0  0  0  0  0  0  0
    5.8551    2.1945   -5.0718 C   0  0  0  0  0  0  0  0  0  0  0  0
    4.5764    2.2585   -5.9299 C   0  0  0  0  0  0  0  0  0  0  0  0
    4.6162    3.2743   -6.9645 N   0  0  0  0  0  0  0  0  0  0  0  0
    5.0932    2.9351   -8.2192 C   0  0  0  0  0  0  0  0  0  0  0  0
    5.3465    1.7767   -8.5278 O   0  0  0  0  0  0  0  0  0  0  0  0
    5.2557    3.9845   -9.1127 N   0  0  0  0  0  0  0  0  0  0  0  0
    5.7255    3.6777  -10.4598 C   0  0  0  0  0  0  0  0  0  0  0  0
    6.7276    4.7330  -10.9315 C   0  0  0  0  0  0  0  0  0  0  0  0
    6.1422    6.0499  -10.7946 N   0  0  0  0  0  0  0  0  0  0  0  0
    6.9155    7.1960  -11.2375 C   0  0  0  0  0  0  0  0  0  0  0  0
    6.1162    8.4026  -10.6937 C   0  0  0  0  0  0  0  0  0  0  0  0
    5.2400    7.8120   -9.5525 C   0  0  0  0  0  0  0  0  0  0  0  0
    5.7148    6.3568   -9.4360 C   0  0  1  0  0  0  0  0  0  0  0  0
    4.6932    5.3215   -8.9698 C   0  0  0  0  0  0  0  0  0  0  0  0
    6.4292    3.3433   -2.9682 N   0  0  0  0  0  0  0  0  0  0  0  0
    6.5120    4.6803   -2.5772 O   0  0  0  0  0  0  0  0  0  0  0  0
    7.4667    8.5742   -2.9270 H   0  0  0  0  0  0  0  0  0  0  0  0
    8.3273    7.2520   -3.7545 H   0  0  0  0  0  0  0  0  0  0  0  0
    7.8248    7.0614   -2.0564 H   0  0  0  0  0  0  0  0  0  0  0  0
    5.8836    7.3285   -4.4635 H   0  0  0  0  0  0  0  0  0  0  0  0
    5.3948    7.1849   -2.7660 H   0  0  0  0  0  0  0  0  0  0  0  0
    5.8295    1.3183   -4.4067 H   0  0  0  0  0  0  0  0  0  0  0  0
    6.7184    2.0636   -5.7466 H   0  0  0  0  0  0  0  0  0  0  0  0
    3.7016    2.4339   -5.2809 H   0  0  0  0  0  0  0  0  0  0  0  0
    4.4415    1.2910   -6.4297 H   0  0  0  0  0  0  0  0  0  0  0  0
    4.8099    4.2086   -6.6174 H   0  0  0  0  0  0  0  0  0  0  0  0
    4.8702    3.6584  -11.1634 H   0  0  0  0  0  0  0  0  0  0  0  0
    6.1716    2.6767  -10.4414 H   0  0  0  0  0  0  0  0  0  0  0  0
    6.9808    4.5510  -11.9895 H   0  0  0  0  0  0  0  0  0  0  0  0
    7.6704    4.6378  -10.3423 H   0  0  0  0  0  0  0  0  0  0  0  0
    7.0232    7.2018  -12.3348 H   0  0  0  0  0  0  0  0  0  0  0  0
    7.9441    7.1878  -10.8062 H   0  0  0  0  0  0  0  0  0  0  0  0
    5.4853    8.8415  -11.4805 H   0  0  0  0  0  0  0  0  0  0  0  0
    6.7879    9.1971  -10.3360 H   0  0  0  0  0  0  0  0  0  0  0  0
    4.1744    7.8367   -9.8305 H   0  0  0  0  0  0  0  0  0  0  0  0
    5.3482    8.3579   -8.6030 H   0  0  0  0  0  0  0  0  0  0  0  0
    6.5829    6.3047   -8.7329 H   0  0  0  0  0  0  0  0  0  0  0  0
    3.7811    5.4184   -9.5930 H   0  0  0  0  0  0  0  0  0  0  0  0
    4.4006    5.5189   -7.9315 H   0  0  0  0  0  0  0  0  0  0  0  0
  1  2  1  0
  1 22  1  0
  1 23  1  0
  1 24  1  0
  2  3  1  0
  2 25  1  0
  2 26  1  0
  3  4  2  0
  3 21  1  0
  4  5  1  0
  5  6  1  0
  5 20  2  0
  6  7  1  0
  6 27  1  0
  6 28  1  0
  7  8  1  0
  7 29  1  0
  7 30  1  0
  8  9  1  0
  8 31  1  0
  9 10  2  0
  9 11  1  0
 11 12  1  0
 11 19  1  0
 12 13  1  0
 12 32  1  0
 12 33  1  0
 13 14  1  0
 13 34  1  0
 13 35  1  0
 14 15  1  0
 14 18  1  0
 15 16  1  0
 15 36  1  0
 15 37  1  0
 16 17  1  0
 16 38  1  0
 16 39  1  0
 17 18  1  0
 17 40  1  0
 17 41  1  0
 18 19  1  0
 18 42  1  1
 19 43  1  0
 19 44  1  0
 20 21  1  0
M  END

