
     RDKit          3D

 52 54  0  0  0  0  0  0  0  0999 V2000
    1.2733   -3.3463   -1.4630 C   0  0  0  0  0  0  0  0  0  0  0  0
    2.6446   -3.1351   -1.1302 O   0  0  0  0  0  0  0  0  0  0  0  0
    2.9965   -1.8699   -0.8317 C   0  0  0  0  0  0  0  0  0  0  0  0
    2.2139   -0.9472   -0.8380 O   0  0  0  0  0  0  0  0  0  0  0  0
    4.4456   -1.7432   -0.4964 C   0  0  0  0  0  0  0  0  0  0  0  0
    4.9397   -0.4695   -0.1679 C   0  0  0  0  0  0  0  0  0  0  0  0
    6.2788   -0.2908    0.1557 C   0  0  0  0  0  0  0  0  0  0  0  0
    7.1770   -1.3842    0.1631 C   0  0  0  0  0  0  0  0  0  0  0  0
    8.5910   -1.2881    0.4917 C   0  0  0  0  0  0  0  0  0  0  0  0
    9.3315   -0.2608    0.9993 C   0  0  0  0  0  0  0  0  0  0  0  0
    9.0646    1.0872    1.4372 C   0  0  0  0  0  0  0  0  0  0  0  0
   10.2336    1.6337    1.9058 C   0  0  0  0  0  0  0  0  0  0  0  0
   10.3674    2.9989    2.4398 C   0  0  0  0  0  0  0  0  0  0  0  0
   11.1310    3.3016    3.5860 C   0  0  0  0  0  0  0  0  0  0  0  0
   11.1911    4.5997    4.0865 C   0  0  0  0  0  0  0  0  0  0  0  0
   10.4822    5.6090    3.4346 C   0  0  0  0  0  0  0  0  0  0  0  0
   10.5476    6.9882    3.9588 N   0  0  0  0  0  0  0  0  0  0  0  0
   11.2348    7.1824    4.9487 O   0  0  0  0  0  0  0  0  0  0  0  0
    9.9095    7.8454    3.3691 O   0  0  0  0  0  0  0  0  0  0  0  0
    9.7139    5.3483    2.2991 C   0  0  0  0  0  0  0  0  0  0  0  0
    9.6631    4.0473    1.8077 C   0  0  0  0  0  0  0  0  0  0  0  0
   11.2874    0.7036    1.8182 N   0  0  0  0  0  0  0  0  0  0  0  0
   12.7242    0.9481    1.9263 C   0  0  0  0  0  0  0  0  0  0  0  0
   13.4120    0.4872    3.2295 C   0  0  1  0  0  0  0  0  0  0  0  0
   13.2307   -1.0063    3.5211 C   0  0  0  0  0  0  0  0  0  0  0  0
   14.8971    0.8674    3.1609 C   0  0  0  0  0  0  0  0  0  0  0  0
   10.8076   -0.4667    1.2110 C   0  0  0  0  0  0  0  0  0  0  0  0
   11.4949   -1.4163    0.8926 O   0  0  0  0  0  0  0  0  0  0  0  0
    6.6653   -2.6564   -0.1850 C   0  0  0  0  0  0  0  0  0  0  0  0
    5.3239   -2.8385   -0.5046 C   0  0  0  0  0  0  0  0  0  0  0  0
    1.1706   -4.4181   -1.6727 H   0  0  0  0  0  0  0  0  0  0  0  0
    0.9896   -2.7549   -2.3468 H   0  0  0  0  0  0  0  0  0  0  0  0
    0.6186   -3.0557   -0.6273 H   0  0  0  0  0  0  0  0  0  0  0  0
    4.2471    0.3742   -0.1776 H   0  0  0  0  0  0  0  0  0  0  0  0
    6.6362    0.7117    0.3848 H   0  0  0  0  0  0  0  0  0  0  0  0
    9.1741   -2.1981    0.3095 H   0  0  0  0  0  0  0  0  0  0  0  0
    8.1048    1.5913    1.4890 H   0  0  0  0  0  0  0  0  0  0  0  0
   11.6604    2.5079    4.1115 H   0  0  0  0  0  0  0  0  0  0  0  0
   11.7691    4.8435    4.9775 H   0  0  0  0  0  0  0  0  0  0  0  0
    9.1806    6.1662    1.8154 H   0  0  0  0  0  0  0  0  0  0  0  0
    9.0881    3.8355    0.9048 H   0  0  0  0  0  0  0  0  0  0  0  0
   12.8996    2.0242    1.7780 H   0  0  0  0  0  0  0  0  0  0  0  0
   13.1948    0.4183    1.0815 H   0  0  0  0  0  0  0  0  0  0  0  0
   12.9635    1.0454    4.0712 H   0  0  0  0  0  0  0  0  0  0  0  0
   13.6290   -1.6250    2.7023 H   0  0  0  0  0  0  0  0  0  0  0  0
   12.1707   -1.2727    3.6450 H   0  0  0  0  0  0  0  0  0  0  0  0
   13.7556   -1.2794    4.4508 H   0  0  0  0  0  0  0  0  0  0  0  0
   15.4024    0.3356    2.3368 H   0  0  0  0  0  0  0  0  0  0  0  0
   15.4160    0.5999    4.0945 H   0  0  0  0  0  0  0  0  0  0  0  0
   15.0377    1.9487    2.9973 H   0  0  0  0  0  0  0  0  0  0  0  0
    7.3439   -3.5131   -0.1958 H   0  0  0  0  0  0  0  0  0  0  0  0
    4.9467   -3.8279   -0.7650 H   0  0  0  0  0  0  0  0  0  0  0  0
  1  2  1  0
  1 31  1  0
  1 32  1  0
  1 33  1  0
  2  3  1  0
  3  4  2  0
  3  5  1  0
  5  6  2  0
  5 30  1  0
  6  7  1  0
  6 34  1  0
  7  8  2  0
  7 35  1  0
  8  9  1  0
  8 29  1  0
  9 10  2  0
  9 36  1  0
 10 11  1  0
 10 27  1  0
 11 12  2  0
 11 37  1  0
 12 13  1  0
 12 22  1  0
 13 14  2  0
 13 21  1  0
 14 15  1  0
 14 38  1  0
 15 16  2  0
 15 39  1  0
 16 17  1  0
 16 20  1  0
 17 18  2  0
 17 19  1  0
 20 21  2  0
 20 40  1  0
 21 41  1  0
 22 23  1  0
 22 27  1  0
 23 24  1  0
 23 42  1  0
 23 43  1  0
 24 25  1  0
 24 26  1  0
 24 44  1  1
 25 45  1  0
 25 46  1  0
 25 47  1  0
 26 48  1  0
 26 49  1  0
 26 50  1  0
 27 28  2  0
 29 30  2  0
 29 51  1  0
 30 52  1  0
M  CHG  2  17   1  19  -1
M  END

