
     RDKit          3D

 38 40  0  0  0  0  0  0  0  0999 V2000
    1.5732   -1.4747    3.1742 C   0  0  0  0  0  0  0  0  0  0  0  0
    1.6202   -1.5924    1.6513 C   0  0  1  0  0  0  0  0  0  0  0  0
    1.1306   -0.3164    0.9161 C   0  0  0  0  0  0  0  0  0  0  0  0
    2.0228   -0.2137   -0.2403 N   0  0  0  0  0  0  0  0  0  0  0  0
    3.3506   -0.5335    0.2863 C   0  0  0  0  0  0  0  0  0  0  0  0
    3.0696   -1.8229    1.0848 C   0  0  2  0  0  0  0  0  0  0  0  0
    3.1512   -3.0926    0.2298 C   0  0  0  0  0  0  0  0  0  0  0  0
    3.7247   -4.0937    0.6234 O   0  0  0  0  0  0  0  0  0  0  0  0
    2.5034   -2.9846   -0.9812 N   0  0  0  0  0  0  0  0  0  0  0  0
    2.3497   -3.9476   -1.9876 C   0  0  0  0  0  0  0  0  0  0  0  0
    1.6171   -3.5847   -3.1350 C   0  0  0  0  0  0  0  0  0  0  0  0
    1.4335   -4.5024   -4.1663 C   0  0  0  0  0  0  0  0  0  0  0  0
    1.9603   -5.7929   -4.0810 C   0  0  0  0  0  0  0  0  0  0  0  0
    2.6988   -6.1507   -2.9446 C   0  0  0  0  0  0  0  0  0  0  0  0
    3.2468   -7.4564   -2.8364 N   0  0  0  0  0  0  0  0  0  0  0  0
    3.7213   -8.2519   -3.8674 C   0  0  0  0  0  0  0  0  0  0  0  0
    4.1277   -9.4242   -3.2752 C   0  0  0  0  0  0  0  0  0  0  0  0
    3.9108   -9.3805   -1.9193 N   0  0  0  0  0  0  0  0  0  0  0  0
    3.3909   -8.2007   -1.6856 C   0  0  0  0  0  0  0  0  0  0  0  0
    2.9031   -5.2369   -1.9025 C   0  0  0  0  0  0  0  0  0  0  0  0
    0.5510   -1.2562    3.5248 H   0  0  0  0  0  0  0  0  0  0  0  0
    2.2304   -0.6652    3.5339 H   0  0  0  0  0  0  0  0  0  0  0  0
    1.8977   -2.4117    3.6526 H   0  0  0  0  0  0  0  0  0  0  0  0
    0.9828   -2.4394    1.3515 H   0  0  0  0  0  0  0  0  0  0  0  0
    1.2243    0.5581    1.5944 H   0  0  0  0  0  0  0  0  0  0  0  0
    0.0772   -0.3806    0.6006 H   0  0  0  0  0  0  0  0  0  0  0  0
    1.9776    0.6914   -0.7059 H   0  0  0  0  0  0  0  0  0  0  0  0
    3.7439    0.2482    0.9698 H   0  0  0  0  0  0  0  0  0  0  0  0
    4.0840   -0.6696   -0.5239 H   0  0  0  0  0  0  0  0  0  0  0  0
    3.7957   -1.9725    1.8941 H   0  0  0  0  0  0  0  0  0  0  0  0
    2.0770   -2.0657   -1.1469 H   0  0  0  0  0  0  0  0  0  0  0  0
    1.1934   -2.5797   -3.2107 H   0  0  0  0  0  0  0  0  0  0  0  0
    0.8570   -4.2129   -5.0483 H   0  0  0  0  0  0  0  0  0  0  0  0
    1.7821   -6.5193   -4.8748 H   0  0  0  0  0  0  0  0  0  0  0  0
    3.7597   -7.9009   -4.8946 H   0  0  0  0  0  0  0  0  0  0  0  0
    4.5712  -10.2944   -3.7587 H   0  0  0  0  0  0  0  0  0  0  0  0
    3.0677   -7.8218   -0.7165 H   0  0  0  0  0  0  0  0  0  0  0  0
    3.4975   -5.4995   -1.0314 H   0  0  0  0  0  0  0  0  0  0  0  0
  1  2  1  0
  1 21  1  0
  1 22  1  0
  1 23  1  0
  2  3  1  0
  2  6  1  0
  2 24  1  6
  3  4  1  0
  3 25  1  0
  3 26  1  0
  4  5  1  0
  4 27  1  0
  5  6  1  0
  5 28  1  0
  5 29  1  0
  6  7  1  0
  6 30  1  1
  7  8  2  0
  7  9  1  0
  9 10  1  0
  9 31  1  0
 10 11  2  0
 10 20  1  0
 11 12  1  0
 11 32  1  0
 12 13  2  0
 12 33  1  0
 13 14  1  0
 13 34  1  0
 14 15  1  0
 14 20  2  0
 15 16  1  0
 15 19  1  0
 16 17  2  0
 16 35  1  0
 17 18  1  0
 17 36  1  0
 18 19  2  0
 19 37  1  0
 20 38  1  0
M  END

