
     RDKit          3D

 43 45  0  0  0  0  0  0  0  0999 V2000
    1.1584    0.2162   -0.5387 C   0  0  0  0  0  0  0  0  0  0  0  0
    2.5558    0.0124    0.0601 C   0  0  2  0  0  0  0  0  0  0  0  0
    3.2432    0.0453   -0.7980 H   0  0  0  0  0  0  0  0  0  0  0  0
    2.7529   -1.3922    0.7148 C   0  0  0  0  0  0  0  0  0  0  0  0
    4.2517   -1.5691    0.9151 C   0  0  0  0  0  0  0  0  0  0  0  0
    4.9438   -2.2060    0.1597 O   0  0  0  0  0  0  0  0  0  0  0  0
    4.7974   -0.7339    1.9285 N   0  0  0  0  0  0  0  0  0  0  0  0
    5.3506    0.4663    1.3579 C   0  0  0  0  0  0  0  0  0  0  0  0
    6.7254    0.6813    1.2613 C   0  0  0  0  0  0  0  0  0  0  0  0
    7.2061    1.8532    0.6687 C   0  0  0  0  0  0  0  0  0  0  0  0
    6.3151    2.8084    0.1703 C   0  0  0  0  0  0  0  0  0  0  0  0
    4.9355    2.5935    0.2496 C   0  0  0  0  0  0  0  0  0  0  0  0
    4.4536    1.4203    0.8293 C   0  0  0  0  0  0  0  0  0  0  0  0
    3.0382    1.1288    0.9196 N   0  0  0  0  0  0  0  0  0  0  0  0
    2.4061    1.6753    2.0211 C   0  0  0  0  0  0  0  0  0  0  0  0
    2.9310    2.5235    2.7136 O   0  0  0  0  0  0  0  0  0  0  0  0
    0.9963    1.1829    2.4034 C   0  0  0  0  0  0  0  0  0  0  0  0
    0.8139    1.3002    3.8098 O   0  0  0  0  0  0  0  0  0  0  0  0
    1.6044    0.5158    4.5625 C   0  0  0  0  0  0  0  0  0  0  0  0
    2.3794   -0.2865    4.0799 O   0  0  0  0  0  0  0  0  0  0  0  0
    1.4086    0.7190    6.0242 C   0  0  0  0  0  0  0  0  0  0  0  0
    2.1365   -0.0912    6.9099 C   0  0  0  0  0  0  0  0  0  0  0  0
    1.9800    0.0708    8.2870 C   0  0  0  0  0  0  0  0  0  0  0  0
    1.1031    1.0365    8.7903 C   0  0  0  0  0  0  0  0  0  0  0  0
    0.3906    1.8328    7.8939 C   0  0  0  0  0  0  0  0  0  0  0  0
   -0.4489    2.7599    8.3738 F   0  0  0  0  0  0  0  0  0  0  0  0
    0.5263    1.6931    6.5172 C   0  0  0  0  0  0  0  0  0  0  0  0
    1.0373   -0.4625   -1.3965 H   0  0  0  0  0  0  0  0  0  0  0  0
    1.0438    1.2476   -0.9059 H   0  0  0  0  0  0  0  0  0  0  0  0
    0.3370   -0.0014    0.1574 H   0  0  0  0  0  0  0  0  0  0  0  0
    2.3850   -2.1706    0.0311 H   0  0  0  0  0  0  0  0  0  0  0  0
    2.2085   -1.4555    1.6698 H   0  0  0  0  0  0  0  0  0  0  0  0
    4.0881   -0.4967    2.6257 H   0  0  0  0  0  0  0  0  0  0  0  0
    7.4011   -0.0789    1.6563 H   0  0  0  0  0  0  0  0  0  0  0  0
    8.2835    2.0221    0.5976 H   0  0  0  0  0  0  0  0  0  0  0  0
    6.6945    3.7264   -0.2850 H   0  0  0  0  0  0  0  0  0  0  0  0
    4.2291    3.3319   -0.1345 H   0  0  0  0  0  0  0  0  0  0  0  0
    0.8068    0.1476    2.1005 H   0  0  0  0  0  0  0  0  0  0  0  0
    0.2389    1.8382    1.9514 H   0  0  0  0  0  0  0  0  0  0  0  0
    2.8185   -0.8377    6.5006 H   0  0  0  0  0  0  0  0  0  0  0  0
    2.5453   -0.5574    8.9792 H   0  0  0  0  0  0  0  0  0  0  0  0
    0.9633    1.1848    9.8629 H   0  0  0  0  0  0  0  0  0  0  0  0
   -0.0404    2.3359    5.8443 H   0  0  0  0  0  0  0  0  0  0  0  0
  1  2  1  0
  1 28  1  0
  1 29  1  0
  1 30  1  0
  2  3  1  6
  2  4  1  0
  2 14  1  0
  4  5  1  0
  4 31  1  0
  4 32  1  0
  5  6  2  0
  5  7  1  0
  7  8  1  0
  7 33  1  0
  8  9  2  0
  8 13  1  0
  9 10  1  0
  9 34  1  0
 10 11  2  0
 10 35  1  0
 11 12  1  0
 11 36  1  0
 12 13  2  0
 12 37  1  0
 13 14  1  0
 14 15  1  0
 15 16  2  0
 15 17  1  0
 17 18  1  0
 17 38  1  0
 17 39  1  0
 18 19  1  0
 19 20  2  0
 19 21  1  0
 21 22  2  0
 21 27  1  0
 22 23  1  0
 22 40  1  0
 23 24  2  0
 23 41  1  0
 24 25  1  0
 24 42  1  0
 25 26  1  0
 25 27  2  0
 27 43  1  0
M  END

