
     RDKit          3D

 36 37  0  0  0  0  0  0  0  0999 V2000
    1.7300    1.1388   -1.0433 O   0  0  0  0  0  0  0  0  0  0  0  0
    2.5237    0.5548   -0.3475 C   0  0  0  0  0  0  0  0  0  0  0  0
    3.6110   -0.3934   -0.7529 C   0  0  0  0  0  0  0  0  0  0  0  0
    4.2672   -0.8221    0.3407 C   0  0  0  0  0  0  0  0  0  0  0  0
    5.4244   -1.7533    0.4894 C   0  0  0  0  0  0  0  0  0  0  0  0
    6.7277   -1.0436    0.9095 C   0  0  0  0  0  0  0  0  0  0  0  0
    7.9011   -2.0115    1.0821 C   0  0  0  0  0  0  0  0  0  0  0  0
    9.2023   -1.3213    1.5018 C   0  0  0  0  0  0  0  0  0  0  0  0
   10.3758   -2.2892    1.6742 C   0  0  0  0  0  0  0  0  0  0  0  0
   11.6788   -1.5796    2.0949 C   0  0  0  0  0  0  0  0  0  0  0  0
   12.8365   -2.5103    2.2432 C   0  0  0  0  0  0  0  0  0  0  0  0
   13.4950   -2.9358    3.3366 C   0  0  0  0  0  0  0  0  0  0  0  0
   14.5824   -3.8841    2.9317 C   0  0  0  0  0  0  0  0  0  0  0  0
   15.3780   -4.4657    3.6273 O   0  0  0  0  0  0  0  0  0  0  0  0
   14.4959   -3.9700    1.5354 N   0  0  0  0  0  0  0  0  0  0  0  0
   13.4744   -3.1728    1.0347 C   0  0  0  0  0  0  0  0  0  0  0  0
   13.1661   -3.0387   -0.1263 O   0  0  0  0  0  0  0  0  0  0  0  0
    3.6276   -0.1621    1.5497 C   0  0  0  0  0  0  0  0  0  0  0  0
    3.9338   -0.2992    2.7108 O   0  0  0  0  0  0  0  0  0  0  0  0
    2.6070    0.6365    1.0492 N   0  0  0  0  0  0  0  0  0  0  0  0
    3.7826   -0.6546   -1.7970 H   0  0  0  0  0  0  0  0  0  0  0  0
    5.5801   -2.2972   -0.4564 H   0  0  0  0  0  0  0  0  0  0  0  0
    5.1700   -2.5019    1.2602 H   0  0  0  0  0  0  0  0  0  0  0  0
    6.5499   -0.5037    1.8543 H   0  0  0  0  0  0  0  0  0  0  0  0
    6.9834   -0.2805    0.1533 H   0  0  0  0  0  0  0  0  0  0  0  0
    8.0682   -2.5616    0.1377 H   0  0  0  0  0  0  0  0  0  0  0  0
    7.6337   -2.7767    1.8339 H   0  0  0  0  0  0  0  0  0  0  0  0
    9.0353   -0.7713    2.4463 H   0  0  0  0  0  0  0  0  0  0  0  0
    9.4697   -0.5560    0.7501 H   0  0  0  0  0  0  0  0  0  0  0  0
   10.5537   -2.8287    0.7291 H   0  0  0  0  0  0  0  0  0  0  0  0
   10.1199   -3.0527    2.4300 H   0  0  0  0  0  0  0  0  0  0  0  0
   11.5231   -1.0364    3.0410 H   0  0  0  0  0  0  0  0  0  0  0  0
   11.9332   -0.8303    1.3246 H   0  0  0  0  0  0  0  0  0  0  0  0
   13.3250   -2.6722    4.3805 H   0  0  0  0  0  0  0  0  0  0  0  0
   15.1107   -4.5378    0.9628 H   0  0  0  0  0  0  0  0  0  0  0  0
    1.9924    1.2043    1.6219 H   0  0  0  0  0  0  0  0  0  0  0  0
  1  2  2  0
  2  3  1  0
  2 20  1  0
  3  4  2  0
  3 21  1  0
  4  5  1  0
  4 18  1  0
  5  6  1  0
  5 22  1  0
  5 23  1  0
  6  7  1  0
  6 24  1  0
  6 25  1  0
  7  8  1  0
  7 26  1  0
  7 27  1  0
  8  9  1  0
  8 28  1  0
  8 29  1  0
  9 10  1  0
  9 30  1  0
  9 31  1  0
 10 11  1  0
 10 32  1  0
 10 33  1  0
 11 12  2  0
 11 16  1  0
 12 13  1  0
 12 34  1  0
 13 14  2  0
 13 15  1  0
 15 16  1  0
 15 35  1  0
 16 17  2  0
 18 19  2  0
 18 20  1  0
 20 36  1  0
M  END

