
     RDKit          3D

 44 45  0  0  0  0  0  0  0  0999 V2000
    1.9600   -0.0243    0.7786 C   0  0  0  0  0  0  0  0  0  0  0  0
    3.4332    0.3133    0.5010 C   0  0  0  0  0  0  0  0  0  0  0  0
    3.6142    1.3735   -0.5659 C   0  0  0  0  0  0  0  0  0  0  0  0
    3.6981    2.7290   -0.2255 C   0  0  0  0  0  0  0  0  0  0  0  0
    3.8225    3.7003   -1.2270 C   0  0  0  0  0  0  0  0  0  0  0  0
    3.8649    3.3367   -2.5692 C   0  0  0  0  0  0  0  0  0  0  0  0
    3.7828    1.9787   -2.9244 C   0  0  0  0  0  0  0  0  0  0  0  0
    3.8373    1.7069   -4.2546 O   0  0  0  0  0  0  0  0  0  0  0  0
    3.7601    0.3696   -4.6983 C   0  0  0  0  0  0  0  0  0  0  0  0
    3.8362    0.3208   -6.2047 C   0  0  0  0  0  0  0  0  0  0  0  0
    3.9560    1.4625   -6.9932 C   0  0  0  0  0  0  0  0  0  0  0  0
    4.0269    1.3859   -8.3962 C   0  0  0  0  0  0  0  0  0  0  0  0
    4.1175    2.6471   -9.2312 C   0  0  0  0  0  0  0  0  0  0  0  0
    4.9888    3.6451   -8.6363 N   0  0  0  0  0  0  0  0  0  0  0  0
    5.0827    4.8821   -9.3841 C   0  0  0  0  0  0  0  0  0  0  0  0
    3.9813    0.1242   -8.9930 C   0  0  0  0  0  0  0  0  0  0  0  0
    3.8553   -1.0401   -8.2241 C   0  0  0  0  0  0  0  0  0  0  0  0
    3.7816   -0.9445   -6.8310 C   0  0  0  0  0  0  0  0  0  0  0  0
    3.6626   -2.0091   -5.9867 O   0  0  0  0  0  0  0  0  0  0  0  0
    3.6007   -3.3116   -6.5208 C   0  0  0  0  0  0  0  0  0  0  0  0
    3.6581    1.0048   -1.9228 C   0  0  0  0  0  0  0  0  0  0  0  0
    1.8701   -0.7978    1.5588 H   0  0  0  0  0  0  0  0  0  0  0  0
    1.4595   -0.3984   -0.1291 H   0  0  0  0  0  0  0  0  0  0  0  0
    1.4065    0.8661    1.1170 H   0  0  0  0  0  0  0  0  0  0  0  0
    3.9651   -0.6052    0.1992 H   0  0  0  0  0  0  0  0  0  0  0  0
    3.9094    0.6538    1.4356 H   0  0  0  0  0  0  0  0  0  0  0  0
    3.6708    3.0278    0.8259 H   0  0  0  0  0  0  0  0  0  0  0  0
    3.8913    4.7569   -0.9544 H   0  0  0  0  0  0  0  0  0  0  0  0
    3.9655    4.0796   -3.3628 H   0  0  0  0  0  0  0  0  0  0  0  0
    2.8183   -0.1018   -4.3570 H   0  0  0  0  0  0  0  0  0  0  0  0
    4.5800   -0.2345   -4.2638 H   0  0  0  0  0  0  0  0  0  0  0  0
    4.0078    2.4379   -6.5101 H   0  0  0  0  0  0  0  0  0  0  0  0
    3.1108    3.1010   -9.3206 H   0  0  0  0  0  0  0  0  0  0  0  0
    4.4084    2.3712  -10.2715 H   0  0  0  0  0  0  0  0  0  0  0  0
    5.9140    3.2467   -8.4800 H   0  0  0  0  0  0  0  0  0  0  0  0
    4.0986    5.3812   -9.4092 H   0  0  0  0  0  0  0  0  0  0  0  0
    5.4118    4.7615  -10.4417 H   0  0  0  0  0  0  0  0  0  0  0  0
    5.7862    5.5695   -8.8885 H   0  0  0  0  0  0  0  0  0  0  0  0
    4.0453    0.0358  -10.0816 H   0  0  0  0  0  0  0  0  0  0  0  0
    3.8234   -2.0099   -8.7210 H   0  0  0  0  0  0  0  0  0  0  0  0
    3.5036   -3.9973   -5.6681 H   0  0  0  0  0  0  0  0  0  0  0  0
    4.5160   -3.5688   -7.0840 H   0  0  0  0  0  0  0  0  0  0  0  0
    2.7278   -3.4419   -7.1858 H   0  0  0  0  0  0  0  0  0  0  0  0
    3.5984   -0.0531   -2.1821 H   0  0  0  0  0  0  0  0  0  0  0  0
  1  2  1  0
  1 22  1  0
  1 23  1  0
  1 24  1  0
  2  3  1  0
  2 25  1  0
  2 26  1  0
  3  4  2  0
  3 21  1  0
  4  5  1  0
  4 27  1  0
  5  6  2  0
  5 28  1  0
  6  7  1  0
  6 29  1  0
  7  8  1  0
  7 21  2  0
  8  9  1  0
  9 10  1  0
  9 30  1  0
  9 31  1  0
 10 11  2  0
 10 18  1  0
 11 12  1  0
 11 32  1  0
 12 13  1  0
 12 16  2  0
 13 14  1  0
 13 33  1  0
 13 34  1  0
 14 15  1  0
 14 35  1  0
 15 36  1  0
 15 37  1  0
 15 38  1  0
 16 17  1  0
 16 39  1  0
 17 18  2  0
 17 40  1  0
 18 19  1  0
 19 20  1  0
 20 41  1  0
 20 42  1  0
 20 43  1  0
 21 44  1  0
M  END

