
     RDKit          3D

 46 50  0  0  0  0  0  0  0  0999 V2000
    2.0269    2.0805   -0.8445 O   0  0  0  0  0  0  0  0  0  0  0  0
    1.4523    1.4428   -1.7147 C   0  0  0  0  0  0  0  0  0  0  0  0
    0.6209    2.2031   -2.7811 C   0  0  1  0  0  0  0  0  0  0  0  0
   -0.4318    2.1971   -2.4493 H   0  0  0  0  0  0  0  0  0  0  0  0
    1.0885    3.6524   -2.8951 C   0  0  0  0  0  0  0  0  0  0  0  0
    2.3869    3.7248   -3.4590 O   0  0  0  0  0  0  0  0  0  0  0  0
    2.5938    2.9247   -4.5414 C   0  0  0  0  0  0  0  0  0  0  0  0
    3.7094    3.1541   -5.3546 C   0  0  0  0  0  0  0  0  0  0  0  0
    3.9427    2.3526   -6.4730 C   0  0  0  0  0  0  0  0  0  0  0  0
    3.0555    1.3179   -6.7931 C   0  0  0  0  0  0  0  0  0  0  0  0
    1.9461    1.0760   -5.9803 C   0  0  0  0  0  0  0  0  0  0  0  0
    1.7162    1.8684   -4.8517 C   0  0  0  0  0  0  0  0  0  0  0  0
    0.6219    1.5957   -4.0678 O   0  0  0  0  0  0  0  0  0  0  0  0
    1.5023    0.0779   -1.7613 N   0  0  0  0  0  0  0  0  0  0  0  0
    2.3905   -0.5785   -0.7915 C   0  0  0  0  0  0  0  0  0  0  0  0
    2.8114   -1.9528   -1.3008 C   0  0  0  0  0  0  0  0  0  0  0  0
    1.6025   -2.9207   -1.4890 C   0  0  2  0  0  0  0  0  0  0  0  0
    1.3397   -3.7648   -0.2432 C   0  0  0  0  0  0  0  0  0  0  0  0
    1.4401   -5.0353   -0.3935 N   0  0  0  0  0  0  0  0  0  0  0  0
    1.7864   -5.2560   -1.7487 C   0  0  0  0  0  0  0  0  0  0  0  0
    2.0034   -6.4860   -2.3664 C   0  0  0  0  0  0  0  0  0  0  0  0
    2.3458   -6.4989   -3.7239 C   0  0  0  0  0  0  0  0  0  0  0  0
    2.4668   -5.2939   -4.4266 C   0  0  0  0  0  0  0  0  0  0  0  0
    2.8995   -5.3317   -6.1224 Cl  0  0  0  0  0  0  0  0  0  0  0  0
    2.2528   -4.0505   -3.8081 C   0  0  0  0  0  0  0  0  0  0  0  0
    1.9049   -4.0464   -2.4626 C   0  0  0  0  0  0  0  0  0  0  0  0
    0.3357   -2.0841   -1.8494 C   0  0  0  0  0  0  0  0  0  0  0  0
    0.6691   -0.7938   -2.5999 C   0  0  0  0  0  0  0  0  0  0  0  0
    1.1470    4.1118   -1.9024 H   0  0  0  0  0  0  0  0  0  0  0  0
    0.3707    4.2071   -3.5269 H   0  0  0  0  0  0  0  0  0  0  0  0
    4.3773    3.9756   -5.0868 H   0  0  0  0  0  0  0  0  0  0  0  0
    4.8161    2.5426   -7.1012 H   0  0  0  0  0  0  0  0  0  0  0  0
    3.2276    0.6952   -7.6738 H   0  0  0  0  0  0  0  0  0  0  0  0
    1.2371    0.2757   -6.2044 H   0  0  0  0  0  0  0  0  0  0  0  0
    1.8974   -0.6539    0.1959 H   0  0  0  0  0  0  0  0  0  0  0  0
    3.2636    0.0711   -0.6429 H   0  0  0  0  0  0  0  0  0  0  0  0
    3.5506   -2.3949   -0.6152 H   0  0  0  0  0  0  0  0  0  0  0  0
    3.3215   -1.8275   -2.2690 H   0  0  0  0  0  0  0  0  0  0  0  0
    1.0725   -3.3230    0.7255 H   0  0  0  0  0  0  0  0  0  0  0  0
    1.9095   -7.4134   -1.7983 H   0  0  0  0  0  0  0  0  0  0  0  0
    2.5245   -7.4410   -4.2446 H   0  0  0  0  0  0  0  0  0  0  0  0
    2.3652   -3.1335   -4.3900 H   0  0  0  0  0  0  0  0  0  0  0  0
   -0.1989   -1.8154   -0.9231 H   0  0  0  0  0  0  0  0  0  0  0  0
   -0.3581   -2.6913   -2.4495 H   0  0  0  0  0  0  0  0  0  0  0  0
   -0.2614   -0.2771   -2.8632 H   0  0  0  0  0  0  0  0  0  0  0  0
    1.1738   -1.0227   -3.5545 H   0  0  0  0  0  0  0  0  0  0  0  0
  1  2  2  0
  2  3  1  0
  2 14  1  0
  3  4  1  1
  3  5  1  0
  3 13  1  0
  5  6  1  0
  5 29  1  0
  5 30  1  0
  6  7  1  0
  7  8  2  0
  7 12  1  0
  8  9  1  0
  8 31  1  0
  9 10  2  0
  9 32  1  0
 10 11  1  0
 10 33  1  0
 11 12  2  0
 11 34  1  0
 12 13  1  0
 14 15  1  0
 14 28  1  0
 15 16  1  0
 15 35  1  0
 15 36  1  0
 16 17  1  0
 16 37  1  0
 16 38  1  0
 17 18  1  1
 17 26  1  0
 17 27  1  0
 18 19  2  0
 18 39  1  0
 19 20  1  0
 20 21  1  0
 20 26  2  0
 21 22  2  0
 21 40  1  0
 22 23  1  0
 22 41  1  0
 23 24  1  0
 23 25  2  0
 25 26  1  0
 25 42  1  0
 27 28  1  0
 27 43  1  0
 27 44  1  0
 28 45  1  0
 28 46  1  0
M  END

