
     RDKit          3D

 32 33  0  0  0  0  0  0  0  0999 V2000
    6.8927    0.0763   -1.3623 C   0  0  0  0  0  0  0  0  0  0  0  0
    5.8228    0.9754   -0.7809 C   0  0  0  0  0  0  0  0  0  0  0  0
    5.5044    2.0281   -1.2852 O   0  0  0  0  0  0  0  0  0  0  0  0
    5.1771    0.5355    0.5430 C   0  0  0  0  0  0  0  0  0  0  0  0
    4.9860   -0.8920    0.7078 N   0  0  0  0  0  0  0  0  0  0  0  0
    3.8326   -1.4765    0.0453 C   0  0  0  0  0  0  0  0  0  0  0  0
    5.8233   -1.6385    1.4956 C   0  0  0  0  0  0  0  0  0  0  0  0
    6.8796   -1.0105    2.0528 N   0  0  0  0  0  0  0  0  0  0  0  0
    7.6728   -1.7330    2.8331 C   0  0  0  0  0  0  0  0  0  0  0  0
    7.4752   -3.0996    3.0885 C   0  0  0  0  0  0  0  0  0  0  0  0
    8.3442   -3.9324    3.9510 C   0  0  0  0  0  0  0  0  0  0  0  0
    9.4378   -3.4011    4.6651 C   0  0  0  0  0  0  0  0  0  0  0  0
   10.2112   -4.2484    5.4557 C   0  0  0  0  0  0  0  0  0  0  0  0
    9.8825   -5.6042    5.5238 C   0  0  0  0  0  0  0  0  0  0  0  0
    8.7788   -6.0420    4.7851 C   0  0  0  0  0  0  0  0  0  0  0  0
    8.0365   -5.2397    4.0263 N   0  0  0  0  0  0  0  0  0  0  0  0
    6.3549   -3.6499    2.4320 C   0  0  0  0  0  0  0  0  0  0  0  0
    5.5433   -2.9482    1.6568 N   0  0  0  0  0  0  0  0  0  0  0  0
    7.3516    0.5661   -2.2309 H   0  0  0  0  0  0  0  0  0  0  0  0
    6.4598   -0.8902   -1.6690 H   0  0  0  0  0  0  0  0  0  0  0  0
    7.6534   -0.1480   -0.5969 H   0  0  0  0  0  0  0  0  0  0  0  0
    4.2135    1.0634    0.6278 H   0  0  0  0  0  0  0  0  0  0  0  0
    5.8410    0.8926    1.3453 H   0  0  0  0  0  0  0  0  0  0  0  0
    3.8737   -1.2963   -1.0436 H   0  0  0  0  0  0  0  0  0  0  0  0
    2.8969   -1.0288    0.4252 H   0  0  0  0  0  0  0  0  0  0  0  0
    3.8171   -2.5548    0.2327 H   0  0  0  0  0  0  0  0  0  0  0  0
    8.5199   -1.1925    3.2709 H   0  0  0  0  0  0  0  0  0  0  0  0
    9.6824   -2.3395    4.6093 H   0  0  0  0  0  0  0  0  0  0  0  0
   11.0623   -3.8515    6.0152 H   0  0  0  0  0  0  0  0  0  0  0  0
   10.4603   -6.3042    6.1309 H   0  0  0  0  0  0  0  0  0  0  0  0
    8.4826   -7.0979    4.8105 H   0  0  0  0  0  0  0  0  0  0  0  0
    6.1349   -4.7136    2.5647 H   0  0  0  0  0  0  0  0  0  0  0  0
  1  2  1  0
  1 19  1  0
  1 20  1  0
  1 21  1  0
  2  3  2  0
  2  4  1  0
  4  5  1  0
  4 22  1  0
  4 23  1  0
  5  6  1  0
  5  7  1  0
  6 24  1  0
  6 25  1  0
  6 26  1  0
  7  8  2  0
  7 18  1  0
  8  9  1  0
  9 10  2  0
  9 27  1  0
 10 11  1  0
 10 17  1  0
 11 12  2  0
 11 16  1  0
 12 13  1  0
 12 28  1  0
 13 14  2  0
 13 29  1  0
 14 15  1  0
 14 30  1  0
 15 16  2  0
 15 31  1  0
 17 18  2  0
 17 32  1  0
M  END

