
     RDKit          3D

 70 74  0  0  0  0  0  0  0  0999 V2000
    1.9862   -1.2826    1.5842 C   0  0  0  0  0  0  0  0  0  0  0  0
    3.3766   -0.9652    1.5197 O   0  0  0  0  0  0  0  0  0  0  0  0
    3.7056    0.1185    0.7938 C   0  0  0  0  0  0  0  0  0  0  0  0
    2.8946    0.7917    0.2035 O   0  0  0  0  0  0  0  0  0  0  0  0
    5.1974    0.3987    0.8392 C   0  0  0  0  0  0  0  0  0  0  0  0
    5.5419    1.4921    1.8379 C   0  0  0  0  0  0  0  0  0  0  0  0
    6.4033    1.2448    2.9140 C   0  0  0  0  0  0  0  0  0  0  0  0
    6.7332    2.2482    3.8274 C   0  0  0  0  0  0  0  0  0  0  0  0
    6.2045    3.5474    3.6971 C   0  0  0  0  0  0  0  0  0  0  0  0
    6.5595    4.6106    4.6503 C   0  0  0  0  0  0  0  0  0  0  0  0
    6.2006    5.9459    4.5681 C   0  0  0  0  0  0  0  0  0  0  0  0
    6.6872    6.6732    5.6371 N   0  0  0  0  0  0  0  0  0  0  0  0
    6.5717    8.1120    5.8706 C   0  0  1  0  0  0  0  0  0  0  0  0
    7.8451    8.8731    5.5041 C   0  0  0  0  0  0  0  0  0  0  0  0
    8.6709    8.4851    4.4390 C   0  0  0  0  0  0  0  0  0  0  0  0
    9.7970    9.2567    4.1503 C   0  0  0  0  0  0  0  0  0  0  0  0
   10.0597   10.3862    4.9278 C   0  0  0  0  0  0  0  0  0  0  0  0
    9.1761   10.6892    5.9673 C   0  0  0  0  0  0  0  0  0  0  0  0
    8.0993    9.9540    6.2519 N   0  0  0  0  0  0  0  0  0  0  0  0
    5.3390    8.7147    5.1851 C   0  0  1  0  0  0  0  0  0  0  0  0
    3.9272    8.2492    5.6380 C   0  0  0  0  0  0  0  0  0  0  0  0
    3.4531    9.7227    5.5590 C   0  0  0  0  0  0  0  0  0  0  0  0
    4.9374   10.1691    5.5580 C   0  0  0  0  0  0  0  0  0  0  0  0
    7.3993    5.8087    6.4480 C   0  0  0  0  0  0  0  0  0  0  0  0
    8.0928    6.0252    7.6387 C   0  0  0  0  0  0  0  0  0  0  0  0
    8.7066    4.9152    8.2321 C   0  0  0  0  0  0  0  0  0  0  0  0
    9.4924    5.0311    9.4995 C   0  0  0  0  0  0  0  0  0  0  0  0
   10.6485    5.9580    9.4218 C   0  0  0  0  0  0  0  0  0  0  0  0
   11.6217    6.1307   10.5894 C   0  0  0  0  0  0  0  0  0  0  0  0
   10.8497    6.6249    8.4161 O   0  0  0  0  0  0  0  0  0  0  0  0
    9.0992    4.3038   10.6115 C   0  0  0  0  0  0  0  0  0  0  0  0
    7.8113    3.5088   10.6347 C   0  0  0  0  0  0  0  0  0  0  0  0
    9.7689    4.2176   11.7985 N   0  0  0  0  0  0  0  0  0  0  0  0
    8.6071    3.6673    7.5621 C   0  0  0  0  0  0  0  0  0  0  0  0
    7.9493    3.4516    6.4297 N   0  0  0  0  0  0  0  0  0  0  0  0
    7.3426    4.5081    5.8667 C   0  0  0  0  0  0  0  0  0  0  0  0
    5.3266    3.7857    2.6180 C   0  0  0  0  0  0  0  0  0  0  0  0
    5.0040    2.7834    1.7074 C   0  0  0  0  0  0  0  0  0  0  0  0
    1.9068   -2.1858    2.2018 H   0  0  0  0  0  0  0  0  0  0  0  0
    1.5790   -1.4693    0.5788 H   0  0  0  0  0  0  0  0  0  0  0  0
    1.4178   -0.4573    2.0397 H   0  0  0  0  0  0  0  0  0  0  0  0
    5.4851    0.7109   -0.1777 H   0  0  0  0  0  0  0  0  0  0  0  0
    5.7369   -0.5245    1.0889 H   0  0  0  0  0  0  0  0  0  0  0  0
    6.8315    0.2462    3.0427 H   0  0  0  0  0  0  0  0  0  0  0  0
    7.4023    2.0382    4.6625 H   0  0  0  0  0  0  0  0  0  0  0  0
    5.6144    6.4394    3.7987 H   0  0  0  0  0  0  0  0  0  0  0  0
    6.4390    8.2533    6.9550 H   0  0  0  0  0  0  0  0  0  0  0  0
    8.4439    7.5876    3.8603 H   0  0  0  0  0  0  0  0  0  0  0  0
   10.4645    8.9744    3.3320 H   0  0  0  0  0  0  0  0  0  0  0  0
   10.9334   11.0148    4.7424 H   0  0  0  0  0  0  0  0  0  0  0  0
    9.3519   11.5637    6.6051 H   0  0  0  0  0  0  0  0  0  0  0  0
    5.4473    8.6303    4.0908 H   0  0  0  0  0  0  0  0  0  0  0  0
    3.9442    7.8742    6.6740 H   0  0  0  0  0  0  0  0  0  0  0  0
    3.4093    7.5059    5.0130 H   0  0  0  0  0  0  0  0  0  0  0  0
    2.8165   10.0916    6.3775 H   0  0  0  0  0  0  0  0  0  0  0  0
    2.9504    9.9449    4.6046 H   0  0  0  0  0  0  0  0  0  0  0  0
    5.2998   10.4427    6.5599 H   0  0  0  0  0  0  0  0  0  0  0  0
    5.2356   10.9656    4.8602 H   0  0  0  0  0  0  0  0  0  0  0  0
    8.1749    7.0144    8.0908 H   0  0  0  0  0  0  0  0  0  0  0  0
   12.1531    5.1907   10.8190 H   0  0  0  0  0  0  0  0  0  0  0  0
   11.1129    6.4834   11.5016 H   0  0  0  0  0  0  0  0  0  0  0  0
   12.3651    6.8806   10.2905 H   0  0  0  0  0  0  0  0  0  0  0  0
    7.0994    3.8542    9.8781 H   0  0  0  0  0  0  0  0  0  0  0  0
    7.3380    3.5951   11.6271 H   0  0  0  0  0  0  0  0  0  0  0  0
    8.0044    2.4385   10.4516 H   0  0  0  0  0  0  0  0  0  0  0  0
   10.6962    4.5891   11.9273 H   0  0  0  0  0  0  0  0  0  0  0  0
    9.3916    3.6425   12.5378 H   0  0  0  0  0  0  0  0  0  0  0  0
    9.1190    2.8004    7.9975 H   0  0  0  0  0  0  0  0  0  0  0  0
    4.8778    4.7731    2.4856 H   0  0  0  0  0  0  0  0  0  0  0  0
    4.3133    2.9949    0.8871 H   0  0  0  0  0  0  0  0  0  0  0  0
  1  2  1  0
  1 39  1  0
  1 40  1  0
  1 41  1  0
  2  3  1  0
  3  4  2  0
  3  5  1  0
  5  6  1  0
  5 42  1  0
  5 43  1  0
  6  7  2  0
  6 38  1  0
  7  8  1  0
  7 44  1  0
  8  9  2  0
  8 45  1  0
  9 10  1  0
  9 37  1  0
 10 11  2  0
 10 36  1  0
 11 12  1  0
 11 46  1  0
 12 13  1  0
 12 24  1  0
 13 14  1  0
 13 20  1  0
 13 47  1  1
 14 15  2  0
 14 19  1  0
 15 16  1  0
 15 48  1  0
 16 17  2  0
 16 49  1  0
 17 18  1  0
 17 50  1  0
 18 19  2  0
 18 51  1  0
 20 21  1  0
 20 23  1  0
 20 52  1  6
 21 22  1  0
 21 53  1  0
 21 54  1  0
 22 23  1  0
 22 55  1  0
 22 56  1  0
 23 57  1  0
 23 58  1  0
 24 25  1  0
 24 36  2  0
 25 26  2  0
 25 59  1  0
 26 27  1  0
 26 34  1  0
 27 28  1  0
 27 31  2  0
 28 29  1  0
 28 30  2  0
 29 60  1  0
 29 61  1  0
 29 62  1  0
 31 32  1  0
 31 33  1  0
 32 63  1  0
 32 64  1  0
 32 65  1  0
 33 66  1  0
 33 67  1  0
 34 35  2  0
 34 68  1  0
 35 36  1  0
 37 38  2  0
 37 69  1  0
 38 70  1  0
M  END

