
     RDKit          3D

 41 44  0  0  0  0  0  0  0  0999 V2000
    0.8179    0.3917   -0.0457 C   0  0  0  0  0  0  0  0  0  0  0  0
    2.2026    0.0698    0.2191 N   0  0  0  0  0  0  0  0  0  0  0  0
    2.9648    0.9528    1.0979 C   0  0  0  0  0  0  0  0  0  0  0  0
    4.4386    0.6106    0.7300 C   0  0  2  0  0  0  0  0  0  0  0  0
    5.0867   -0.3346    1.7608 C   0  0  0  0  0  0  0  0  0  0  0  0
    6.4676   -0.7860    1.2860 C   0  0  0  0  0  0  0  0  0  0  0  0
    7.3698    0.3663    0.8836 C   0  0  0  0  0  0  0  0  0  0  0  0
    6.8056    1.6163    0.5537 C   0  0  0  0  0  0  0  0  0  0  0  0
    7.6415    2.6817    0.1836 C   0  0  0  0  0  0  0  0  0  0  0  0
    9.0251    2.5345    0.1476 C   0  0  0  0  0  0  0  0  0  0  0  0
    9.5907    1.3021    0.4752 C   0  0  0  0  0  0  0  0  0  0  0  0
    8.7797    0.2125    0.8310 C   0  0  0  0  0  0  0  0  0  0  0  0
    9.4515   -1.0765    1.1547 C   0  0  0  0  0  0  0  0  0  0  0  0
   10.4642   -1.1588    2.1259 C   0  0  0  0  0  0  0  0  0  0  0  0
   11.1115   -2.2900    2.4088 N   0  0  0  0  0  0  0  0  0  0  0  0
   10.7500   -3.3702    1.7154 C   0  0  0  0  0  0  0  0  0  0  0  0
    9.8133   -3.4239    0.7668 N   0  0  0  0  0  0  0  0  0  0  0  0
    9.1760   -2.2854    0.4922 C   0  0  0  0  0  0  0  0  0  0  0  0
    5.3105    1.8698    0.6299 C   0  0  0  0  0  0  0  0  0  0  0  0
    4.3427   -0.0781   -0.5670 N   0  0  0  0  0  0  0  0  0  0  0  0
    3.0990   -0.3319   -0.7725 C   0  0  0  0  0  0  0  0  0  0  0  0
    2.6168   -0.9453   -1.9098 N   0  0  0  0  0  0  0  0  0  0  0  0
    0.6908    1.3865   -0.5222 H   0  0  0  0  0  0  0  0  0  0  0  0
    0.2485    0.3930    0.8972 H   0  0  0  0  0  0  0  0  0  0  0  0
    0.3566   -0.3579   -0.7037 H   0  0  0  0  0  0  0  0  0  0  0  0
    2.7312    0.7755    2.1612 H   0  0  0  0  0  0  0  0  0  0  0  0
    2.7305    2.0146    0.8732 H   0  0  0  0  0  0  0  0  0  0  0  0
    4.4391   -1.2126    1.9177 H   0  0  0  0  0  0  0  0  0  0  0  0
    5.1647    0.1902    2.7303 H   0  0  0  0  0  0  0  0  0  0  0  0
    6.3206   -1.4436    0.4136 H   0  0  0  0  0  0  0  0  0  0  0  0
    6.9548   -1.3956    2.0631 H   0  0  0  0  0  0  0  0  0  0  0  0
    7.1900    3.6438   -0.0769 H   0  0  0  0  0  0  0  0  0  0  0  0
    9.6637    3.3729   -0.1416 H   0  0  0  0  0  0  0  0  0  0  0  0
   10.6748    1.1702    0.4334 H   0  0  0  0  0  0  0  0  0  0  0  0
   10.7485   -0.2665    2.6973 H   0  0  0  0  0  0  0  0  0  0  0  0
   11.2757   -4.3053    1.9453 H   0  0  0  0  0  0  0  0  0  0  0  0
    8.4204   -2.3212   -0.3006 H   0  0  0  0  0  0  0  0  0  0  0  0
    4.9928    2.4521   -0.2505 H   0  0  0  0  0  0  0  0  0  0  0  0
    5.1089    2.5067    1.5122 H   0  0  0  0  0  0  0  0  0  0  0  0
    3.3581   -1.3557   -2.4688 H   0  0  0  0  0  0  0  0  0  0  0  0
    1.8275   -1.5697   -1.7805 H   0  0  0  0  0  0  0  0  0  0  0  0
  1  2  1  0
  1 23  1  0
  1 24  1  0
  1 25  1  0
  2  3  1  0
  2 21  1  0
  3  4  1  0
  3 26  1  0
  3 27  1  0
  4  5  1  0
  4 19  1  0
  4 20  1  6
  5  6  1  0
  5 28  1  0
  5 29  1  0
  6  7  1  0
  6 30  1  0
  6 31  1  0
  7  8  2  0
  7 12  1  0
  8  9  1  0
  8 19  1  0
  9 10  2  0
  9 32  1  0
 10 11  1  0
 10 33  1  0
 11 12  2  0
 11 34  1  0
 12 13  1  0
 13 14  2  0
 13 18  1  0
 14 15  1  0
 14 35  1  0
 15 16  2  0
 16 17  1  0
 16 36  1  0
 17 18  2  0
 18 37  1  0
 19 38  1  0
 19 39  1  0
 20 21  2  0
 21 22  1  0
 22 40  1  0
 22 41  1  0
M  END

