
     RDKit          3D

 36 36  0  0  0  0  0  0  0  0999 V2000
    1.5953   -0.5328   -0.4360 C   0  0  0  0  0  0  0  0  0  0  0  0
    2.9745    0.0854   -0.1942 C   0  0  0  0  0  0  0  0  0  0  0  0
    2.9820    1.6066    0.0702 C   0  0  1  0  0  0  0  0  0  0  0  0
    2.0982    2.0040    1.2756 C   0  0  0  0  0  0  0  0  0  0  0  0
    2.5435    1.4826    2.6463 C   0  0  0  0  0  0  0  0  0  0  0  0
    4.4438    2.1471    0.1530 C   0  0  1  0  0  0  0  0  0  0  0  0
    5.2617    1.8726   -1.0306 N   0  0  0  0  0  0  0  0  0  0  0  0
    4.5338    3.6501    0.4655 C   0  0  0  0  0  0  0  0  0  0  0  0
    3.8118    4.7482   -0.8357 S   0  0  0  0  0  0  0  0  0  0  0  0
    5.2369    5.5811   -1.5275 C   0  0  0  0  0  0  0  0  0  0  0  0
    6.4496    4.9301   -1.8143 C   0  0  0  0  0  0  0  0  0  0  0  0
    7.5072    5.6361   -2.3922 C   0  0  0  0  0  0  0  0  0  0  0  0
    7.3390    6.9826   -2.7084 C   0  0  0  0  0  0  0  0  0  0  0  0
    8.3534    7.6566   -3.2734 F   0  0  0  0  0  0  0  0  0  0  0  0
    6.1414    7.6449   -2.4497 C   0  0  0  0  0  0  0  0  0  0  0  0
    5.0953    6.9418   -1.8479 C   0  0  0  0  0  0  0  0  0  0  0  0
    1.6864   -1.5903   -0.7310 H   0  0  0  0  0  0  0  0  0  0  0  0
    1.0582   -0.0084   -1.2443 H   0  0  0  0  0  0  0  0  0  0  0  0
    0.9565   -0.4999    0.4605 H   0  0  0  0  0  0  0  0  0  0  0  0
    3.5981   -0.1131   -1.0811 H   0  0  0  0  0  0  0  0  0  0  0  0
    3.4722   -0.4392    0.6422 H   0  0  0  0  0  0  0  0  0  0  0  0
    2.5309    2.0910   -0.8176 H   0  0  0  0  0  0  0  0  0  0  0  0
    1.0716    1.6533    1.0793 H   0  0  0  0  0  0  0  0  0  0  0  0
    2.0117    3.1022    1.3148 H   0  0  0  0  0  0  0  0  0  0  0  0
    2.5919    0.3821    2.6751 H   0  0  0  0  0  0  0  0  0  0  0  0
    1.8355    1.7969    3.4297 H   0  0  0  0  0  0  0  0  0  0  0  0
    3.5366    1.8618    2.9375 H   0  0  0  0  0  0  0  0  0  0  0  0
    4.9441    1.6419    1.0003 H   0  0  0  0  0  0  0  0  0  0  0  0
    4.7738    2.1919   -1.8703 H   0  0  0  0  0  0  0  0  0  0  0  0
    5.4337    0.8761   -1.1446 H   0  0  0  0  0  0  0  0  0  0  0  0
    5.5866    3.9364    0.5855 H   0  0  0  0  0  0  0  0  0  0  0  0
    4.0133    3.8955    1.4010 H   0  0  0  0  0  0  0  0  0  0  0  0
    6.5579    3.8650   -1.5928 H   0  0  0  0  0  0  0  0  0  0  0  0
    8.4584    5.1485   -2.6159 H   0  0  0  0  0  0  0  0  0  0  0  0
    6.0454    8.7024   -2.7039 H   0  0  0  0  0  0  0  0  0  0  0  0
    4.1607    7.4568   -1.6142 H   0  0  0  0  0  0  0  0  0  0  0  0
  1  2  1  0
  1 17  1  0
  1 18  1  0
  1 19  1  0
  2  3  1  0
  2 20  1  0
  2 21  1  0
  3  4  1  0
  3  6  1  0
  3 22  1  6
  4  5  1  0
  4 23  1  0
  4 24  1  0
  5 25  1  0
  5 26  1  0
  5 27  1  0
  6  7  1  0
  6  8  1  0
  6 28  1  1
  7 29  1  0
  7 30  1  0
  8  9  1  0
  8 31  1  0
  8 32  1  0
  9 10  1  0
 10 11  2  0
 10 16  1  0
 11 12  1  0
 11 33  1  0
 12 13  2  0
 12 34  1  0
 13 14  1  0
 13 15  1  0
 15 16  2  0
 15 35  1  0
 16 36  1  0
M  END

