
     RDKit          3D

 32 34  0  0  0  0  0  0  0  0999 V2000
    1.0809   -0.0002    0.3368 C   0  0  0  0  0  0  0  0  0  0  0  0
    2.4770    0.0766   -0.0448 N   0  0  0  0  0  0  0  0  0  0  0  0
    3.1251    1.3841    0.0061 C   0  0  0  0  0  0  0  0  0  0  0  0
    4.3529    1.4399   -0.8953 C   0  0  0  0  0  0  0  0  0  0  0  0
    5.3238    0.3223   -0.5198 C   0  0  0  0  0  0  0  0  0  0  0  0
    4.6208   -1.0174   -0.4837 C   0  0  0  0  0  0  0  0  0  0  0  0
    5.3233   -2.1918   -0.6904 C   0  0  0  0  0  0  0  0  0  0  0  0
    4.7172   -3.4688   -0.6319 C   0  0  0  0  0  0  0  0  0  0  0  0
    5.3743   -4.7387   -0.8298 C   0  0  0  0  0  0  0  0  0  0  0  0
    6.8574   -4.7827   -1.1406 C   0  0  1  0  0  0  0  0  0  0  0  0
    7.1380   -4.1092   -2.2723 F   0  0  0  0  0  0  0  0  0  0  0  0
    7.5791   -4.2150   -0.1561 F   0  0  0  0  0  0  0  0  0  0  0  0
    7.3105   -6.0325   -1.2974 F   0  0  0  0  0  0  0  0  0  0  0  0
    4.6769   -5.9033   -0.7425 C   0  0  0  0  0  0  0  0  0  0  0  0
    3.2478   -5.9235   -0.4467 C   0  0  0  0  0  0  0  0  0  0  0  0
    2.5574   -6.9035   -0.3495 O   0  0  0  0  0  0  0  0  0  0  0  0
    2.6565   -4.6800   -0.2675 O   0  0  0  0  0  0  0  0  0  0  0  0
    3.3336   -3.5041   -0.3511 C   0  0  0  0  0  0  0  0  0  0  0  0
    2.5944   -2.3427   -0.1461 C   0  0  0  0  0  0  0  0  0  0  0  0
    3.2108   -1.0759   -0.2171 C   0  0  0  0  0  0  0  0  0  0  0  0
    0.6651    1.0145    0.3892 H   0  0  0  0  0  0  0  0  0  0  0  0
    0.9372   -0.4796    1.3236 H   0  0  0  0  0  0  0  0  0  0  0  0
    0.4889   -0.5672   -0.4014 H   0  0  0  0  0  0  0  0  0  0  0  0
    3.4137    1.6397    1.0473 H   0  0  0  0  0  0  0  0  0  0  0  0
    2.3898    2.1404   -0.3105 H   0  0  0  0  0  0  0  0  0  0  0  0
    4.8307    2.4275   -0.7993 H   0  0  0  0  0  0  0  0  0  0  0  0
    4.0371    1.3291   -1.9466 H   0  0  0  0  0  0  0  0  0  0  0  0
    5.7581    0.5408    0.4739 H   0  0  0  0  0  0  0  0  0  0  0  0
    6.1715    0.2842   -1.2219 H   0  0  0  0  0  0  0  0  0  0  0  0
    6.3909   -2.1194   -0.9023 H   0  0  0  0  0  0  0  0  0  0  0  0
    5.1468   -6.8745   -0.8871 H   0  0  0  0  0  0  0  0  0  0  0  0
    1.5342   -2.4609    0.0649 H   0  0  0  0  0  0  0  0  0  0  0  0
  1  2  1  0
  1 21  1  0
  1 22  1  0
  1 23  1  0
  2  3  1  0
  2 20  1  0
  3  4  1  0
  3 24  1  0
  3 25  1  0
  4  5  1  0
  4 26  1  0
  4 27  1  0
  5  6  1  0
  5 28  1  0
  5 29  1  0
  6  7  1  0
  6 20  2  0
  7  8  2  0
  7 30  1  0
  8  9  1  0
  8 18  1  0
  9 10  1  0
  9 14  2  0
 10 11  1  6
 10 12  1  0
 10 13  1  0
 14 15  1  0
 14 31  1  0
 15 16  2  0
 15 17  1  0
 17 18  1  0
 18 19  2  0
 19 20  1  0
 19 32  1  0
M  END

