
     RDKit          3D

 56 57  0  0  0  0  0  0  0  0999 V2000
    6.1862    4.3854    7.8220 C   0  0  0  0  0  0  0  0  0  0  0  0
    6.1358    4.7573    6.3329 C   0  0  1  0  0  0  0  0  0  0  0  0
    4.9617    4.0251    5.6638 C   0  0  0  0  0  0  0  0  0  0  0  0
    6.0568    6.2921    6.0930 C   0  0  1  0  0  0  0  0  0  0  0  0
    7.0429    7.1351    6.9273 C   0  0  0  0  0  0  0  0  0  0  0  0
    8.4849    6.9651    6.4385 C   0  0  0  0  0  0  0  0  0  0  0  0
    8.5898    7.2383    4.9367 C   0  0  0  0  0  0  0  0  0  0  0  0
    7.6433    6.4289    4.1782 N   0  0  0  0  0  0  0  0  0  0  0  0
    7.8316    6.5352    2.7343 C   0  0  0  0  0  0  0  0  0  0  0  0
    7.3152    5.3047    1.9734 C   0  0  0  0  0  0  0  0  0  0  0  0
    7.5452    5.2576    0.4386 C   0  0  2  0  0  0  0  0  0  0  0  0
    7.4845    4.1839    0.1845 H   0  0  0  0  0  0  0  0  0  0  0  0
    8.9712    5.6942    0.0614 C   0  0  0  0  0  0  0  0  0  0  0  0
    6.4927    5.9152   -0.5102 C   0  0  1  0  0  0  0  0  0  0  0  0
    5.1493    5.1419   -0.6128 C   0  0  0  0  0  0  0  0  0  0  0  0
    4.0576    5.6027    0.3710 C   0  0  0  0  0  0  0  0  0  0  0  0
    3.8263    7.0423    0.3616 N   0  0  0  0  0  0  0  0  0  0  0  0
    3.0574    7.5364   -0.7635 C   0  0  0  0  0  0  0  0  0  0  0  0
    5.0647    7.7631    0.6335 C   0  0  0  0  0  0  0  0  0  0  0  0
    6.2180    7.4326   -0.3354 C   0  0  0  0  0  0  0  0  0  0  0  0
    6.2698    6.6676    4.6125 C   0  0  0  0  0  0  0  0  0  0  0  0
    6.1557    3.2910    7.9487 H   0  0  0  0  0  0  0  0  0  0  0  0
    5.3226    4.8036    8.3689 H   0  0  0  0  0  0  0  0  0  0  0  0
    7.1007    4.7431    8.3183 H   0  0  0  0  0  0  0  0  0  0  0  0
    7.0648    4.3980    5.8578 H   0  0  0  0  0  0  0  0  0  0  0  0
    3.9971    4.3491    6.0925 H   0  0  0  0  0  0  0  0  0  0  0  0
    5.0413    2.9365    5.8152 H   0  0  0  0  0  0  0  0  0  0  0  0
    4.9185    4.1976    4.5780 H   0  0  0  0  0  0  0  0  0  0  0  0
    5.0321    6.6095    6.3637 H   0  0  0  0  0  0  0  0  0  0  0  0
    6.9627    6.9078    8.0011 H   0  0  0  0  0  0  0  0  0  0  0  0
    6.7569    8.1972    6.8198 H   0  0  0  0  0  0  0  0  0  0  0  0
    8.8389    5.9403    6.6425 H   0  0  0  0  0  0  0  0  0  0  0  0
    9.1593    7.6489    6.9811 H   0  0  0  0  0  0  0  0  0  0  0  0
    9.6093    7.0130    4.5826 H   0  0  0  0  0  0  0  0  0  0  0  0
    8.4241    8.3293    4.7547 H   0  0  0  0  0  0  0  0  0  0  0  0
    8.9141    6.6258    2.5570 H   0  0  0  0  0  0  0  0  0  0  0  0
    7.3832    7.4736    2.3396 H   0  0  0  0  0  0  0  0  0  0  0  0
    6.2478    5.1469    2.1879 H   0  0  0  0  0  0  0  0  0  0  0  0
    7.8323    4.4374    2.4187 H   0  0  0  0  0  0  0  0  0  0  0  0
    9.1904    5.4503   -0.9905 H   0  0  0  0  0  0  0  0  0  0  0  0
    9.7233    5.1821    0.6838 H   0  0  0  0  0  0  0  0  0  0  0  0
    9.1268    6.7783    0.1837 H   0  0  0  0  0  0  0  0  0  0  0  0
    6.9631    5.8084   -1.5032 H   0  0  0  0  0  0  0  0  0  0  0  0
    5.3255    4.0587   -0.4942 H   0  0  0  0  0  0  0  0  0  0  0  0
    4.7599    5.2709   -1.6380 H   0  0  0  0  0  0  0  0  0  0  0  0
    4.3266    5.3098    1.4013 H   0  0  0  0  0  0  0  0  0  0  0  0
    3.1090    5.0876    0.1441 H   0  0  0  0  0  0  0  0  0  0  0  0
    2.0908    7.0080   -0.8119 H   0  0  0  0  0  0  0  0  0  0  0  0
    3.5387    7.4306   -1.7618 H   0  0  0  0  0  0  0  0  0  0  0  0
    2.8402    8.6079   -0.6205 H   0  0  0  0  0  0  0  0  0  0  0  0
    5.3646    7.5324    1.6694 H   0  0  0  0  0  0  0  0  0  0  0  0
    4.8581    8.8463    0.6087 H   0  0  0  0  0  0  0  0  0  0  0  0
    7.1321    7.9630   -0.0204 H   0  0  0  0  0  0  0  0  0  0  0  0
    5.9642    7.8492   -1.3258 H   0  0  0  0  0  0  0  0  0  0  0  0
    5.5873    6.0947    3.9706 H   0  0  0  0  0  0  0  0  0  0  0  0
    5.9934    7.7411    4.4763 H   0  0  0  0  0  0  0  0  0  0  0  0
  1  2  1  0
  1 22  1  0
  1 23  1  0
  1 24  1  0
  2  3  1  0
  2  4  1  0
  2 25  1  6
  3 26  1  0
  3 27  1  0
  3 28  1  0
  4  5  1  0
  4 21  1  0
  4 29  1  1
  5  6  1  0
  5 30  1  0
  5 31  1  0
  6  7  1  0
  6 32  1  0
  6 33  1  0
  7  8  1  0
  7 34  1  0
  7 35  1  0
  8  9  1  0
  8 21  1  0
  9 10  1  0
  9 36  1  0
  9 37  1  0
 10 11  1  0
 10 38  1  0
 10 39  1  0
 11 12  1  6
 11 13  1  0
 11 14  1  0
 13 40  1  0
 13 41  1  0
 13 42  1  0
 14 15  1  0
 14 20  1  0
 14 43  1  6
 15 16  1  0
 15 44  1  0
 15 45  1  0
 16 17  1  0
 16 46  1  0
 16 47  1  0
 17 18  1  0
 17 19  1  0
 18 48  1  0
 18 49  1  0
 18 50  1  0
 19 20  1  0
 19 51  1  0
 19 52  1  0
 20 53  1  0
 20 54  1  0
 21 55  1  0
 21 56  1  0
M  END

