
     RDKit          3D

 39 39  0  0  0  0  0  0  0  0999 V2000
    1.2174   -1.3176    2.4785 C   0  0  0  0  0  0  0  0  0  0  0  0
    2.7249   -1.4190    2.2450 C   0  0  0  0  0  0  0  0  0  0  0  0
    3.1591   -0.8961    0.8721 C   0  0  0  0  0  0  0  0  0  0  0  0
    4.6541   -0.9870    0.6068 C   0  0  0  0  0  0  0  0  0  0  0  0
    5.0305   -2.3568    0.5685 O   0  0  0  0  0  0  0  0  0  0  0  0
    6.3297   -2.7018    0.3508 C   0  0  0  0  0  0  0  0  0  0  0  0
    7.3651   -1.7772    0.1552 C   0  0  0  0  0  0  0  0  0  0  0  0
    8.6690   -2.2307   -0.0791 C   0  0  0  0  0  0  0  0  0  0  0  0
    8.9447   -3.5960   -0.1215 C   0  0  0  0  0  0  0  0  0  0  0  0
    7.9052   -4.5133    0.0762 C   0  0  0  0  0  0  0  0  0  0  0  0
    6.5977   -4.0906    0.3180 C   0  0  0  0  0  0  0  0  0  0  0  0
    5.4502   -5.0723    0.5111 C   0  0  0  0  0  0  0  0  0  0  0  0
    5.8644   -6.4364    0.7951 N   0  0  0  0  0  0  0  0  0  0  0  0
    6.2931   -6.7166    2.1509 C   0  0  0  0  0  0  0  0  0  0  0  0
    5.2750   -7.5173    0.0450 C   0  0  0  0  0  0  0  0  0  0  0  0
    3.8415   -7.9683    0.3995 C   0  0  0  0  0  0  0  0  0  0  0  0
    3.3319   -8.9382   -0.0884 O   0  0  0  0  0  0  0  0  0  0  0  0
    3.1762   -7.1929    1.2832 O   0  0  0  0  0  0  0  0  0  0  0  0
    0.9372   -1.6990    3.4731 H   0  0  0  0  0  0  0  0  0  0  0  0
    0.6557   -1.9001    1.7293 H   0  0  0  0  0  0  0  0  0  0  0  0
    0.8686   -0.2731    2.4125 H   0  0  0  0  0  0  0  0  0  0  0  0
    3.0484   -2.4683    2.3475 H   0  0  0  0  0  0  0  0  0  0  0  0
    3.2619   -0.8572    3.0313 H   0  0  0  0  0  0  0  0  0  0  0  0
    2.8671    0.1641    0.7669 H   0  0  0  0  0  0  0  0  0  0  0  0
    2.6274   -1.4445    0.0745 H   0  0  0  0  0  0  0  0  0  0  0  0
    5.2215   -0.4636    1.4002 H   0  0  0  0  0  0  0  0  0  0  0  0
    4.9052   -0.5051   -0.3563 H   0  0  0  0  0  0  0  0  0  0  0  0
    7.1668   -0.7059    0.1805 H   0  0  0  0  0  0  0  0  0  0  0  0
    9.4687   -1.5011   -0.2307 H   0  0  0  0  0  0  0  0  0  0  0  0
    9.9610   -3.9506   -0.3084 H   0  0  0  0  0  0  0  0  0  0  0  0
    8.0979   -5.5880    0.0439 H   0  0  0  0  0  0  0  0  0  0  0  0
    4.8324   -5.0746   -0.4036 H   0  0  0  0  0  0  0  0  0  0  0  0
    4.7832   -4.6592    1.2988 H   0  0  0  0  0  0  0  0  0  0  0  0
    6.9904   -5.9367    2.4941 H   0  0  0  0  0  0  0  0  0  0  0  0
    6.8275   -7.6793    2.1876 H   0  0  0  0  0  0  0  0  0  0  0  0
    5.4653   -6.7711    2.8944 H   0  0  0  0  0  0  0  0  0  0  0  0
    5.9011   -8.4220    0.1234 H   0  0  0  0  0  0  0  0  0  0  0  0
    5.2542   -7.2655   -1.0290 H   0  0  0  0  0  0  0  0  0  0  0  0
    3.7488   -6.4673    1.5714 H   0  0  0  0  0  0  0  0  0  0  0  0
  1  2  1  0
  1 19  1  0
  1 20  1  0
  1 21  1  0
  2  3  1  0
  2 22  1  0
  2 23  1  0
  3  4  1  0
  3 24  1  0
  3 25  1  0
  4  5  1  0
  4 26  1  0
  4 27  1  0
  5  6  1  0
  6  7  2  0
  6 11  1  0
  7  8  1  0
  7 28  1  0
  8  9  2  0
  8 29  1  0
  9 10  1  0
  9 30  1  0
 10 11  2  0
 10 31  1  0
 11 12  1  0
 12 13  1  0
 12 32  1  0
 12 33  1  0
 13 14  1  0
 13 15  1  0
 14 34  1  0
 14 35  1  0
 14 36  1  0
 15 16  1  0
 15 37  1  0
 15 38  1  0
 16 17  2  0
 16 18  1  0
 18 39  1  0
M  END

