
     RDKit          3D

 41 44  0  0  0  0  0  0  0  0999 V2000
    9.6140    5.6177    2.7750 N   0  0  0  0  0  0  0  0  0  0  0  0
    9.2777    4.6047    2.3180 C   0  0  0  0  0  0  0  0  0  0  0  0
    8.8620    3.3518    1.7527 C   0  0  0  0  0  0  0  0  0  0  0  0
    8.1506    3.3221    0.5384 C   0  0  0  0  0  0  0  0  0  0  0  0
    7.7509    2.1058   -0.0097 C   0  0  0  0  0  0  0  0  0  0  0  0
    8.0561    0.9130    0.6538 C   0  0  0  0  0  0  0  0  0  0  0  0
    7.5676   -0.2537    0.1143 O   0  0  0  0  0  0  0  0  0  0  0  0
    8.3473   -1.3521   -0.1031 C   0  0  0  0  0  0  0  0  0  0  0  0
    9.7239   -1.2935   -0.2688 C   0  0  0  0  0  0  0  0  0  0  0  0
   10.4504   -2.4684   -0.5413 C   0  0  0  0  0  0  0  0  0  0  0  0
    9.8128   -3.6958   -0.6458 C   0  0  0  0  0  0  0  0  0  0  0  0
    8.4047   -3.7715   -0.4856 C   0  0  0  0  0  0  0  0  0  0  0  0
    7.7403   -5.0194   -0.6007 C   0  0  0  0  0  0  0  0  0  0  0  0
    6.3630   -5.0931   -0.4507 C   0  0  0  0  0  0  0  0  0  0  0  0
    5.6119   -3.9300   -0.1805 C   0  0  0  0  0  0  0  0  0  0  0  0
    6.2372   -2.7013   -0.0619 C   0  0  0  0  0  0  0  0  0  0  0  0
    7.6443   -2.5939   -0.2120 C   0  0  0  0  0  0  0  0  0  0  0  0
    8.5131   -6.2620   -0.8704 C   0  0  0  0  0  0  0  0  0  0  0  0
    7.9763   -7.3495   -0.9605 O   0  0  0  0  0  0  0  0  0  0  0  0
    9.9120   -6.1259   -1.0081 N   0  0  0  0  0  0  0  0  0  0  0  0
   10.6978   -7.3627   -1.2071 C   0  0  0  0  0  0  0  0  0  0  0  0
   11.3182   -7.5381   -2.6022 C   0  0  0  0  0  0  0  0  0  0  0  0
   12.5897   -6.9718   -2.7501 O   0  0  0  0  0  0  0  0  0  0  0  0
   10.5992   -4.9128   -0.9447 C   0  0  0  0  0  0  0  0  0  0  0  0
   11.8099   -4.8696   -1.1318 O   0  0  0  0  0  0  0  0  0  0  0  0
    8.7552    0.9266    1.8680 C   0  0  0  0  0  0  0  0  0  0  0  0
    9.1586    2.1430    2.4120 C   0  0  0  0  0  0  0  0  0  0  0  0
    7.9162    4.2570    0.0262 H   0  0  0  0  0  0  0  0  0  0  0  0
    7.1976    2.0631   -0.9493 H   0  0  0  0  0  0  0  0  0  0  0  0
   10.2438   -0.3374   -0.2006 H   0  0  0  0  0  0  0  0  0  0  0  0
   11.5322   -2.4291   -0.6826 H   0  0  0  0  0  0  0  0  0  0  0  0
    5.8822   -6.0686   -0.5447 H   0  0  0  0  0  0  0  0  0  0  0  0
    4.5284   -4.0028   -0.0634 H   0  0  0  0  0  0  0  0  0  0  0  0
    5.6596   -1.7999    0.1470 H   0  0  0  0  0  0  0  0  0  0  0  0
    9.9976   -8.1811   -1.0073 H   0  0  0  0  0  0  0  0  0  0  0  0
   11.5037   -7.3864   -0.4572 H   0  0  0  0  0  0  0  0  0  0  0  0
   10.5896   -7.1674   -3.3567 H   0  0  0  0  0  0  0  0  0  0  0  0
   11.4239   -8.6221   -2.7827 H   0  0  0  0  0  0  0  0  0  0  0  0
   12.5725   -6.1109   -2.2973 H   0  0  0  0  0  0  0  0  0  0  0  0
    8.9735   -0.0097    2.3845 H   0  0  0  0  0  0  0  0  0  0  0  0
    9.7004    2.1638    3.3594 H   0  0  0  0  0  0  0  0  0  0  0  0
  1  2  3  0
  2  3  1  0
  3  4  2  0
  3 27  1  0
  4  5  1  0
  4 28  1  0
  5  6  2  0
  5 29  1  0
  6  7  1  0
  6 26  1  0
  7  8  1  0
  8  9  2  0
  8 17  1  0
  9 10  1  0
  9 30  1  0
 10 11  2  0
 10 31  1  0
 11 12  1  0
 11 24  1  0
 12 13  1  0
 12 17  2  0
 13 14  2  0
 13 18  1  0
 14 15  1  0
 14 32  1  0
 15 16  2  0
 15 33  1  0
 16 17  1  0
 16 34  1  0
 18 19  2  0
 18 20  1  0
 20 21  1  0
 20 24  1  0
 21 22  1  0
 21 35  1  0
 21 36  1  0
 22 23  1  0
 22 37  1  0
 22 38  1  0
 23 39  1  0
 24 25  2  0
 26 27  2  0
 26 40  1  0
 27 41  1  0
M  END

