
     RDKit          3D

 36 38  0  0  0  0  0  0  0  0999 V2000
    1.1032    0.5290    0.8010 C   0  0  0  0  0  0  0  0  0  0  0  0
    2.5534    0.5032    0.4005 C   0  0  0  0  0  0  0  0  0  0  0  0
    3.2455    1.6685    0.0385 C   0  0  0  0  0  0  0  0  0  0  0  0
    4.5877    1.6746   -0.3374 C   0  0  0  0  0  0  0  0  0  0  0  0
    5.3143    0.4687   -0.3681 C   0  0  0  0  0  0  0  0  0  0  0  0
    6.6807    0.4111   -0.7741 N   0  0  0  0  0  0  0  0  0  0  0  0
    7.4948    1.5246   -0.9726 C   0  0  0  0  0  0  0  0  0  0  0  0
    7.1918    2.6774   -0.7554 O   0  0  0  0  0  0  0  0  0  0  0  0
    8.8736    1.1236   -1.4894 C   0  0  0  0  0  0  0  0  0  0  0  0
    8.7347   -0.5623   -2.1555 S   0  0  0  0  0  0  0  0  0  0  0  0
    7.3029   -0.8874   -1.0202 C   0  0  1  0  0  0  0  0  0  0  0  0
    6.6182   -1.5255   -1.5845 H   0  0  0  0  0  0  0  0  0  0  0  0
    7.7847   -1.5909    0.2475 C   0  0  0  0  0  0  0  0  0  0  0  0
    7.9454   -0.8543    1.4330 C   0  0  0  0  0  0  0  0  0  0  0  0
    8.4213   -1.4349    2.6097 C   0  0  0  0  0  0  0  0  0  0  0  0
    8.7414   -2.7938    2.6462 C   0  0  0  0  0  0  0  0  0  0  0  0
    8.5750   -3.5604    1.4968 C   0  0  0  0  0  0  0  0  0  0  0  0
    8.1096   -2.9661    0.3194 C   0  0  0  0  0  0  0  0  0  0  0  0
    7.9835   -3.8687   -0.8467 N   0  0  0  0  0  0  0  0  0  0  0  0
    7.8150   -3.3658   -1.9510 O   0  0  0  0  0  0  0  0  0  0  0  0
    8.0626   -5.0680   -0.6485 O   0  0  0  0  0  0  0  0  0  0  0  0
    4.6468   -0.7150   -0.0047 C   0  0  0  0  0  0  0  0  0  0  0  0
    3.3018   -0.6831    0.3658 C   0  0  0  0  0  0  0  0  0  0  0  0
    2.5417   -2.2029    0.8057 Cl  0  0  0  0  0  0  0  0  0  0  0  0
    0.7017    1.5515    0.7576 H   0  0  0  0  0  0  0  0  0  0  0  0
    0.9636    0.1447    1.8247 H   0  0  0  0  0  0  0  0  0  0  0  0
    0.4947   -0.1113    0.1416 H   0  0  0  0  0  0  0  0  0  0  0  0
    2.7062    2.6197    0.0491 H   0  0  0  0  0  0  0  0  0  0  0  0
    5.0760    2.6081   -0.5981 H   0  0  0  0  0  0  0  0  0  0  0  0
    9.6051    1.1995   -0.6668 H   0  0  0  0  0  0  0  0  0  0  0  0
    9.1714    1.8309   -2.2751 H   0  0  0  0  0  0  0  0  0  0  0  0
    7.6742    0.2018    1.4379 H   0  0  0  0  0  0  0  0  0  0  0  0
    8.5335   -0.8184    3.5047 H   0  0  0  0  0  0  0  0  0  0  0  0
    9.1116   -3.2566    3.5633 H   0  0  0  0  0  0  0  0  0  0  0  0
    8.7981   -4.6263    1.4816 H   0  0  0  0  0  0  0  0  0  0  0  0
    5.1496   -1.6788    0.0115 H   0  0  0  0  0  0  0  0  0  0  0  0
  1  2  1  0
  1 25  1  0
  1 26  1  0
  1 27  1  0
  2  3  2  0
  2 23  1  0
  3  4  1  0
  3 28  1  0
  4  5  2  0
  4 29  1  0
  5  6  1  0
  5 22  1  0
  6  7  1  0
  6 11  1  0
  7  8  2  0
  7  9  1  0
  9 10  1  0
  9 30  1  0
  9 31  1  0
 10 11  1  0
 11 12  1  6
 11 13  1  0
 13 14  2  0
 13 18  1  0
 14 15  1  0
 14 32  1  0
 15 16  2  0
 15 33  1  0
 16 17  1  0
 16 34  1  0
 17 18  2  0
 17 35  1  0
 18 19  1  0
 19 20  2  0
 19 21  1  0
 22 23  2  0
 22 36  1  0
 23 24  1  0
M  CHG  2  19   1  21  -1
M  END

