
     RDKit          3D

 55 58  0  0  0  0  0  0  0  0999 V2000
   -2.0617    3.1561   -0.5528 C   0  0  0  0  0  0  0  0  0  0  0  0
   -0.8786    3.8803    0.1008 C   0  0  1  0  0  0  0  0  0  0  0  0
   -1.1233    4.1848    1.5828 C   0  0  0  0  0  0  0  0  0  0  0  0
    0.3889    3.1492   -0.1150 N   0  0  0  0  0  0  0  0  0  0  0  0
    0.5971    1.9248    0.6543 C   0  0  0  0  0  0  0  0  0  0  0  0
    1.6809    1.0418    0.0572 C   0  0  0  0  0  0  0  0  0  0  0  0
    2.9389    1.8650   -0.1924 C   0  0  0  0  0  0  0  0  0  0  0  0
    2.6483    2.9482   -1.2349 C   0  0  2  0  0  0  0  0  0  0  0  0
    3.7472    3.8950   -1.4414 N   0  0  0  0  0  0  0  0  0  0  0  0
    5.1092    3.5386   -1.0599 C   0  0  0  0  0  0  0  0  0  0  0  0
    5.8738    2.7238   -2.1174 C   0  0  0  0  0  0  0  0  0  0  0  0
    5.8345    3.4271   -3.3968 N   0  0  0  0  0  0  0  0  0  0  0  0
    6.9813    3.4979   -4.1427 C   0  0  0  0  0  0  0  0  0  0  0  0
    8.0041    2.8916   -3.8214 O   0  0  0  0  0  0  0  0  0  0  0  0
    7.0381    4.3452   -5.3702 C   0  0  0  0  0  0  0  0  0  0  0  0
    6.3710    5.4611   -5.8541 C   0  0  0  0  0  0  0  0  0  0  0  0
    7.0457    5.8733   -7.0496 C   0  0  0  0  0  0  0  0  0  0  0  0
    6.8520    6.9178   -7.9782 C   0  0  0  0  0  0  0  0  0  0  0  0
    7.7235    7.0322   -9.0534 C   0  0  0  0  0  0  0  0  0  0  0  0
    8.7935    6.1218   -9.2271 C   0  0  0  0  0  0  0  0  0  0  0  0
    9.0113    5.0807   -8.3321 C   0  0  0  0  0  0  0  0  0  0  0  0
    8.1312    4.9650   -7.2434 C   0  0  0  0  0  0  0  0  0  0  0  0
    8.0925    4.0611   -6.2165 N   0  0  0  0  0  0  0  0  0  0  0  0
    8.7755    3.3505   -5.9783 H   0  0  0  0  0  0  0  0  0  0  0  0
    4.4779    3.7649   -3.8226 C   0  0  0  0  0  0  0  0  0  0  0  0
    3.7559    4.5764   -2.7367 C   0  0  0  0  0  0  0  0  0  0  0  0
    1.3347    3.7319   -0.9297 C   0  0  0  0  0  0  0  0  0  0  0  0
    1.1328    4.8090   -1.4726 O   0  0  0  0  0  0  0  0  0  0  0  0
   -2.9775    3.7604   -0.4540 H   0  0  0  0  0  0  0  0  0  0  0  0
   -2.2653    2.1775   -0.0862 H   0  0  0  0  0  0  0  0  0  0  0  0
   -1.8767    2.9947   -1.6258 H   0  0  0  0  0  0  0  0  0  0  0  0
   -0.7308    4.8320   -0.4250 H   0  0  0  0  0  0  0  0  0  0  0  0
   -1.3297    3.2770    2.1734 H   0  0  0  0  0  0  0  0  0  0  0  0
   -1.9975    4.8464    1.6870 H   0  0  0  0  0  0  0  0  0  0  0  0
   -0.2579    4.6985    2.0298 H   0  0  0  0  0  0  0  0  0  0  0  0
   -0.3560    1.3741    0.7018 H   0  0  0  0  0  0  0  0  0  0  0  0
    0.8661    2.1731    1.6993 H   0  0  0  0  0  0  0  0  0  0  0  0
    1.3271    0.5954   -0.8887 H   0  0  0  0  0  0  0  0  0  0  0  0
    1.8873    0.2087    0.7477 H   0  0  0  0  0  0  0  0  0  0  0  0
    3.7611    1.2177   -0.5325 H   0  0  0  0  0  0  0  0  0  0  0  0
    3.2624    2.3300    0.7551 H   0  0  0  0  0  0  0  0  0  0  0  0
    2.4065    2.4065   -2.1790 H   0  0  0  0  0  0  0  0  0  0  0  0
    5.1268    3.0087   -0.0992 H   0  0  0  0  0  0  0  0  0  0  0  0
    5.6637    4.4818   -0.9018 H   0  0  0  0  0  0  0  0  0  0  0  0
    5.4245    1.7171   -2.2322 H   0  0  0  0  0  0  0  0  0  0  0  0
    6.9251    2.5832   -1.8363 H   0  0  0  0  0  0  0  0  0  0  0  0
    5.5237    5.9649   -5.3976 H   0  0  0  0  0  0  0  0  0  0  0  0
    6.0283    7.6252   -7.8508 H   0  0  0  0  0  0  0  0  0  0  0  0
    7.5856    7.8366   -9.7801 H   0  0  0  0  0  0  0  0  0  0  0  0
    9.4622    6.2408  -10.0834 H   0  0  0  0  0  0  0  0  0  0  0  0
    9.8379    4.3794   -8.4688 H   0  0  0  0  0  0  0  0  0  0  0  0
    3.9252    2.8212   -4.0067 H   0  0  0  0  0  0  0  0  0  0  0  0
    4.4987    4.3046   -4.7737 H   0  0  0  0  0  0  0  0  0  0  0  0
    2.7251    4.7979   -3.0334 H   0  0  0  0  0  0  0  0  0  0  0  0
    4.2731    5.5458   -2.6174 H   0  0  0  0  0  0  0  0  0  0  0  0
  1  2  1  0
  1 29  1  0
  1 30  1  0
  1 31  1  0
  2  3  1  0
  2  4  1  0
  2 32  1  6
  3 33  1  0
  3 34  1  0
  3 35  1  0
  4  5  1  0
  4 27  1  0
  5  6  1  0
  5 36  1  0
  5 37  1  0
  6  7  1  0
  6 38  1  0
  6 39  1  0
  7  8  1  0
  7 40  1  0
  7 41  1  0
  8  9  1  0
  8 27  1  0
  8 42  1  6
  9 10  1  0
  9 26  1  0
 10 11  1  0
 10 43  1  0
 10 44  1  0
 11 12  1  0
 11 45  1  0
 11 46  1  0
 12 13  1  0
 12 25  1  0
 13 14  2  0
 13 15  1  0
 15 16  2  0
 15 23  1  0
 16 17  1  0
 16 47  1  0
 17 18  2  0
 17 22  1  0
 18 19  1  0
 18 48  1  0
 19 20  2  0
 19 49  1  0
 20 21  1  0
 20 50  1  0
 21 22  2  0
 21 51  1  0
 22 23  1  0
 23 24  1  0
 25 26  1  0
 25 52  1  0
 25 53  1  0
 26 54  1  0
 26 55  1  0
 27 28  2  0
M  END

