
     RDKit          3D

 44 45  0  0  0  0  0  0  0  0999 V2000
    7.3884   -4.8591   -5.0751 C   0  0  0  0  0  0  0  0  0  0  0  0
    7.1656   -3.5865   -4.2933 C   0  0  0  0  0  0  0  0  0  0  0  0
    7.7361   -2.3696   -4.6863 C   0  0  0  0  0  0  0  0  0  0  0  0
    7.5008   -1.2008   -3.9601 C   0  0  0  0  0  0  0  0  0  0  0  0
    6.6846   -1.1798   -2.8205 C   0  0  0  0  0  0  0  0  0  0  0  0
    6.4685    0.1310   -2.1048 C   0  0  0  0  0  0  0  0  0  0  0  0
    6.1109   -2.4127   -2.4029 C   0  0  0  0  0  0  0  0  0  0  0  0
    5.2011   -2.4767   -1.2125 C   0  0  0  0  0  0  0  0  0  0  0  0
    4.6369   -1.4853   -0.7852 O   0  0  0  0  0  0  0  0  0  0  0  0
    4.9125   -3.8294   -0.5260 C   0  0  0  0  0  0  0  0  0  0  0  0
    6.0673   -4.6505   -0.1945 N   0  0  0  0  0  0  0  0  0  0  0  0
    6.7372   -4.3264    1.0841 C   0  0  1  0  0  0  0  0  0  0  0  0
    7.0708   -2.8412    1.2227 C   0  0  0  0  0  0  0  0  0  0  0  0
    5.9543   -4.8672    2.2990 C   0  0  0  0  0  0  0  0  0  0  0  0
    5.7053   -6.3758    2.1710 C   0  0  0  0  0  0  0  0  0  0  0  0
    5.0693   -6.7153    0.8162 C   0  0  0  0  0  0  0  0  0  0  0  0
    5.8568   -6.1028   -0.3661 C   0  0  2  0  0  0  0  0  0  0  0  0
    7.1727   -6.8399   -0.6535 C   0  0  0  0  0  0  0  0  0  0  0  0
    6.3703   -3.5805   -3.1415 C   0  0  0  0  0  0  0  0  0  0  0  0
    8.1785   -4.7357   -5.8306 H   0  0  0  0  0  0  0  0  0  0  0  0
    6.4710   -5.1713   -5.6035 H   0  0  0  0  0  0  0  0  0  0  0  0
    7.6789   -5.6928   -4.4153 H   0  0  0  0  0  0  0  0  0  0  0  0
    8.3763   -2.3324   -5.5727 H   0  0  0  0  0  0  0  0  0  0  0  0
    7.9641   -0.2671   -4.2911 H   0  0  0  0  0  0  0  0  0  0  0  0
    7.1364    0.9031   -2.5157 H   0  0  0  0  0  0  0  0  0  0  0  0
    6.6503    0.0467   -1.0229 H   0  0  0  0  0  0  0  0  0  0  0  0
    5.4275    0.4731   -2.2019 H   0  0  0  0  0  0  0  0  0  0  0  0
    4.2703   -4.3969   -1.2214 H   0  0  0  0  0  0  0  0  0  0  0  0
    4.2652   -3.5687    0.3331 H   0  0  0  0  0  0  0  0  0  0  0  0
    7.7015   -4.8634    1.0581 H   0  0  0  0  0  0  0  0  0  0  0  0
    6.1719   -2.2189    1.3461 H   0  0  0  0  0  0  0  0  0  0  0  0
    7.6236   -2.4789    0.3424 H   0  0  0  0  0  0  0  0  0  0  0  0
    7.7050   -2.6859    2.1097 H   0  0  0  0  0  0  0  0  0  0  0  0
    4.9909   -4.3320    2.3830 H   0  0  0  0  0  0  0  0  0  0  0  0
    6.5106   -4.6460    3.2259 H   0  0  0  0  0  0  0  0  0  0  0  0
    5.0620   -6.7336    2.9922 H   0  0  0  0  0  0  0  0  0  0  0  0
    6.6643   -6.9132    2.2806 H   0  0  0  0  0  0  0  0  0  0  0  0
    4.0388   -6.3177    0.7942 H   0  0  0  0  0  0  0  0  0  0  0  0
    4.9822   -7.8079    0.6881 H   0  0  0  0  0  0  0  0  0  0  0  0
    5.2377   -6.2172   -1.2721 H   0  0  0  0  0  0  0  0  0  0  0  0
    7.8502   -6.8679    0.2131 H   0  0  0  0  0  0  0  0  0  0  0  0
    7.7084   -6.3490   -1.4800 H   0  0  0  0  0  0  0  0  0  0  0  0
    6.9677   -7.8839   -0.9393 H   0  0  0  0  0  0  0  0  0  0  0  0
    5.9314   -4.5229   -2.8143 H   0  0  0  0  0  0  0  0  0  0  0  0
  1  2  1  0
  1 20  1  0
  1 21  1  0
  1 22  1  0
  2  3  2  0
  2 19  1  0
  3  4  1  0
  3 23  1  0
  4  5  2  0
  4 24  1  0
  5  6  1  0
  5  7  1  0
  6 25  1  0
  6 26  1  0
  6 27  1  0
  7  8  1  0
  7 19  2  0
  8  9  2  0
  8 10  1  0
 10 11  1  0
 10 28  1  0
 10 29  1  0
 11 12  1  0
 11 17  1  0
 12 13  1  0
 12 14  1  0
 12 30  1  6
 13 31  1  0
 13 32  1  0
 13 33  1  0
 14 15  1  0
 14 34  1  0
 14 35  1  0
 15 16  1  0
 15 36  1  0
 15 37  1  0
 16 17  1  0
 16 38  1  0
 16 39  1  0
 17 18  1  0
 17 40  1  6
 18 41  1  0
 18 42  1  0
 18 43  1  0
 19 44  1  0
M  END

