
     RDKit          3D

 30 30  0  0  0  0  0  0  0  0999 V2000
    2.8205    0.0831    1.3833 C   0  0  0  0  0  0  0  0  0  0  0  0
    2.2597    0.1043   -0.0417 C   0  0  0  0  0  0  0  0  0  0  0  0
    2.8124   -0.9458   -1.0456 C   0  0  1  0  0  0  0  0  0  0  0  0
    2.3997   -2.3689   -0.6125 C   0  0  0  0  0  0  0  0  0  0  0  0
    2.2047   -0.6420   -2.4286 C   0  0  0  0  0  0  0  0  0  0  0  0
    4.3583   -0.8894   -1.0855 C   0  0  1  0  0  0  0  0  0  0  0  0
    4.9742   -1.7570   -2.0517 N   0  0  0  0  0  0  0  0  0  0  0  0
    6.3608   -1.3599   -2.2079 C   0  0  0  0  0  0  0  0  0  0  0  0
    6.4546    0.1757   -2.4122 C   0  0  2  0  0  0  0  0  0  0  0  0
    7.8083    0.7610   -2.0224 C   0  0  0  0  0  0  0  0  0  0  0  0
    5.0583    0.8658   -1.4122 S   0  0  0  0  0  0  0  0  0  0  0  0
    2.2947    0.8232    2.0075 H   0  0  0  0  0  0  0  0  0  0  0  0
    3.8900    0.3450    1.4083 H   0  0  0  0  0  0  0  0  0  0  0  0
    2.6962   -0.8977    1.8696 H   0  0  0  0  0  0  0  0  0  0  0  0
    2.4176    1.1092   -0.4701 H   0  0  0  0  0  0  0  0  0  0  0  0
    1.1648   -0.0338   -0.0008 H   0  0  0  0  0  0  0  0  0  0  0  0
    1.3015   -2.4558   -0.5743 H   0  0  0  0  0  0  0  0  0  0  0  0
    2.7935   -2.6242    0.3835 H   0  0  0  0  0  0  0  0  0  0  0  0
    2.7834   -3.1209   -1.3172 H   0  0  0  0  0  0  0  0  0  0  0  0
    1.1069   -0.5850   -2.3568 H   0  0  0  0  0  0  0  0  0  0  0  0
    2.4313   -1.4303   -3.1658 H   0  0  0  0  0  0  0  0  0  0  0  0
    2.5742    0.3182   -2.8199 H   0  0  0  0  0  0  0  0  0  0  0  0
    4.7459   -1.1572   -0.0911 H   0  0  0  0  0  0  0  0  0  0  0  0
    4.4927   -1.6805   -2.9472 H   0  0  0  0  0  0  0  0  0  0  0  0
    6.8249   -1.9029   -3.0472 H   0  0  0  0  0  0  0  0  0  0  0  0
    6.9158   -1.6304   -1.2921 H   0  0  0  0  0  0  0  0  0  0  0  0
    6.2464    0.4115   -3.4696 H   0  0  0  0  0  0  0  0  0  0  0  0
    8.0224    0.5758   -0.9578 H   0  0  0  0  0  0  0  0  0  0  0  0
    7.8457    1.8480   -2.1902 H   0  0  0  0  0  0  0  0  0  0  0  0
    8.6128    0.3040   -2.6252 H   0  0  0  0  0  0  0  0  0  0  0  0
  1  2  1  0
  1 12  1  0
  1 13  1  0
  1 14  1  0
  3  2  1  1
  2 15  1  0
  2 16  1  0
  3  4  1  0
  3  5  1  0
  3  6  1  0
  4 17  1  0
  4 18  1  0
  4 19  1  0
  5 20  1  0
  5 21  1  0
  5 22  1  0
  6  7  1  0
  6 11  1  0
  6 23  1  1
  7  8  1  0
  7 24  1  0
  8  9  1  0
  8 25  1  0
  8 26  1  0
  9 10  1  0
  9 11  1  0
  9 27  1  6
 10 28  1  0
 10 29  1  0
 10 30  1  0
M  END

