
     RDKit          3D

 74 77  0  0  0  0  0  0  0  0999 V2000
    3.0101   -2.8694    3.1322 C   0  0  0  0  0  0  0  0  0  0  0  0
    3.5032   -2.6433    1.9107 C   0  0  0  0  0  0  0  0  0  0  0  0
    3.5064   -1.3075    1.2224 C   0  0  0  0  0  0  0  0  0  0  0  0
    4.9237   -0.7653    0.8975 C   0  0  1  0  0  0  0  0  0  0  0  0
    5.6405   -0.4963    2.2451 C   0  0  0  0  0  0  0  0  0  0  0  0
    5.1470    0.2526    3.0737 O   0  0  0  0  0  0  0  0  0  0  0  0
    6.8163   -1.1502    2.4069 N   0  0  0  0  0  0  0  0  0  0  0  0
    7.5927   -1.0695    3.6322 C   0  0  0  0  0  0  0  0  0  0  0  0
    7.2489   -2.1501    4.6670 C   0  0  0  0  0  0  0  0  0  0  0  0
    7.5150   -3.5812    4.1944 C   0  0  0  0  0  0  0  0  0  0  0  0
    7.1637   -4.6460    5.2492 C   0  0  0  0  0  0  0  0  0  0  0  0
    7.4131   -6.0625    4.7799 C   0  0  0  0  0  0  0  0  0  0  0  0
    8.6461   -6.6946    5.0089 C   0  0  0  0  0  0  0  0  0  0  0  0
    8.8908   -7.9893    4.5421 C   0  0  0  0  0  0  0  0  0  0  0  0
    7.9022   -8.6789    3.8339 C   0  0  0  0  0  0  0  0  0  0  0  0
    6.6689   -8.0635    3.5988 C   0  0  0  0  0  0  0  0  0  0  0  0
    6.4297   -6.7689    4.0678 C   0  0  0  0  0  0  0  0  0  0  0  0
    5.6657   -1.7072    0.0616 N   0  0  0  0  0  0  0  0  0  0  0  0
    5.8969   -1.1496   -1.0669 C   0  0  0  0  0  0  0  0  0  0  0  0
    6.6018   -1.7471   -2.2081 C   0  0  0  0  0  0  0  0  0  0  0  0
    7.0512   -3.0744   -2.1380 C   0  0  0  0  0  0  0  0  0  0  0  0
    7.7253   -3.6635   -3.2065 C   0  0  0  0  0  0  0  0  0  0  0  0
    7.9596   -2.9203   -4.3781 C   0  0  0  0  0  0  0  0  0  0  0  0
    8.6013   -3.3968   -5.4684 O   0  0  0  0  0  0  0  0  0  0  0  0
    9.0849   -4.7339   -5.4882 C   0  0  0  0  0  0  0  0  0  0  0  0
    9.7502   -4.9825   -6.8322 C   0  0  0  0  0  0  0  0  0  0  0  0
   10.9740   -4.1016   -7.0943 C   0  0  0  0  0  0  0  0  0  0  0  0
   11.5350   -4.3146   -8.3702 O   0  0  0  0  0  0  0  0  0  0  0  0
    7.5075   -1.5896   -4.4565 C   0  0  0  0  0  0  0  0  0  0  0  0
    6.8373   -1.0121   -3.3867 C   0  0  0  0  0  0  0  0  0  0  0  0
    5.4640    0.1258   -1.2323 O   0  0  0  0  0  0  0  0  0  0  0  0
    4.8201    0.5399   -0.0096 C   0  0  2  0  0  0  0  0  0  0  0  0
    3.7647    0.7353   -0.2432 H   0  0  0  0  0  0  0  0  0  0  0  0
    5.4534    1.8138    0.5010 C   0  0  0  0  0  0  0  0  0  0  0  0
    6.8218    2.0559    0.3127 C   0  0  0  0  0  0  0  0  0  0  0  0
    7.4400    3.2130    0.7849 C   0  0  0  0  0  0  0  0  0  0  0  0
    6.6715    4.1625    1.4620 C   0  0  0  0  0  0  0  0  0  0  0  0
    7.4215    5.6217    2.0624 Cl  0  0  0  0  0  0  0  0  0  0  0  0
    5.3046    3.9639    1.6614 C   0  0  0  0  0  0  0  0  0  0  0  0
    4.7114    2.7954    1.1792 C   0  0  0  0  0  0  0  0  0  0  0  0
    2.9898    2.5996    1.4376 Cl  0  0  0  0  0  0  0  0  0  0  0  0
    3.0231   -3.8687    3.5774 H   0  0  0  0  0  0  0  0  0  0  0  0
    2.5744   -2.0636    3.7320 H   0  0  0  0  0  0  0  0  0  0  0  0
    3.9442   -3.4711    1.3436 H   0  0  0  0  0  0  0  0  0  0  0  0
    2.9984   -0.5510    1.8389 H   0  0  0  0  0  0  0  0  0  0  0  0
    2.9635   -1.3899    0.2634 H   0  0  0  0  0  0  0  0  0  0  0  0
    7.0622   -1.8087    1.6733 H   0  0  0  0  0  0  0  0  0  0  0  0
    7.4059   -0.0765    4.0661 H   0  0  0  0  0  0  0  0  0  0  0  0
    8.6625   -1.1254    3.3666 H   0  0  0  0  0  0  0  0  0  0  0  0
    6.1878   -2.0387    4.9483 H   0  0  0  0  0  0  0  0  0  0  0  0
    7.8365   -1.9457    5.5804 H   0  0  0  0  0  0  0  0  0  0  0  0
    8.5782   -3.6911    3.9112 H   0  0  0  0  0  0  0  0  0  0  0  0
    6.9307   -3.7832    3.2799 H   0  0  0  0  0  0  0  0  0  0  0  0
    6.1023   -4.5314    5.5287 H   0  0  0  0  0  0  0  0  0  0  0  0
    7.7482   -4.4527    6.1652 H   0  0  0  0  0  0  0  0  0  0  0  0
    9.4241   -6.1655    5.5677 H   0  0  0  0  0  0  0  0  0  0  0  0
    9.8566   -8.4635    4.7368 H   0  0  0  0  0  0  0  0  0  0  0  0
    8.0899   -9.6931    3.4718 H   0  0  0  0  0  0  0  0  0  0  0  0
    5.8865   -8.5962    3.0515 H   0  0  0  0  0  0  0  0  0  0  0  0
    5.4594   -6.2977    3.8838 H   0  0  0  0  0  0  0  0  0  0  0  0
    6.8611   -3.6464   -1.2280 H   0  0  0  0  0  0  0  0  0  0  0  0
    8.0603   -4.6967   -3.1199 H   0  0  0  0  0  0  0  0  0  0  0  0
    8.2485   -5.4398   -5.3345 H   0  0  0  0  0  0  0  0  0  0  0  0
    9.8049   -4.8841   -4.6608 H   0  0  0  0  0  0  0  0  0  0  0  0
    9.0184   -4.8264   -7.6419 H   0  0  0  0  0  0  0  0  0  0  0  0
   10.0459   -6.0472   -6.8682 H   0  0  0  0  0  0  0  0  0  0  0  0
   11.7197   -4.2508   -6.2842 H   0  0  0  0  0  0  0  0  0  0  0  0
   10.6748   -3.0433   -7.0574 H   0  0  0  0  0  0  0  0  0  0  0  0
   11.8644   -5.2220   -8.4105 H   0  0  0  0  0  0  0  0  0  0  0  0
    7.6962   -1.0316   -5.3756 H   0  0  0  0  0  0  0  0  0  0  0  0
    6.4871    0.0189   -3.4535 H   0  0  0  0  0  0  0  0  0  0  0  0
    7.4163    1.3199   -0.2314 H   0  0  0  0  0  0  0  0  0  0  0  0
    8.5057    3.3836    0.6274 H   0  0  0  0  0  0  0  0  0  0  0  0
    4.7047    4.7070    2.1858 H   0  0  0  0  0  0  0  0  0  0  0  0
  1  2  2  0
  1 42  1  0
  1 43  1  0
  2  3  1  0
  2 44  1  0
  3  4  1  0
  3 45  1  0
  3 46  1  0
  4  5  1  1
  4 18  1  0
  4 32  1  0
  5  6  2  0
  5  7  1  0
  7  8  1  0
  7 47  1  0
  8  9  1  0
  8 48  1  0
  8 49  1  0
  9 10  1  0
  9 50  1  0
  9 51  1  0
 10 11  1  0
 10 52  1  0
 10 53  1  0
 11 12  1  0
 11 54  1  0
 11 55  1  0
 12 13  2  0
 12 17  1  0
 13 14  1  0
 13 56  1  0
 14 15  2  0
 14 57  1  0
 15 16  1  0
 15 58  1  0
 16 17  2  0
 16 59  1  0
 17 60  1  0
 18 19  2  0
 19 20  1  0
 19 31  1  0
 20 21  2  0
 20 30  1  0
 21 22  1  0
 21 61  1  0
 22 23  2  0
 22 62  1  0
 23 24  1  0
 23 29  1  0
 24 25  1  0
 25 26  1  0
 25 63  1  0
 25 64  1  0
 26 27  1  0
 26 65  1  0
 26 66  1  0
 27 28  1  0
 27 67  1  0
 27 68  1  0
 28 69  1  0
 29 30  2  0
 29 70  1  0
 30 71  1  0
 31 32  1  0
 32 33  1  6
 32 34  1  0
 34 35  2  0
 34 40  1  0
 35 36  1  0
 35 72  1  0
 36 37  2  0
 36 73  1  0
 37 38  1  0
 37 39  1  0
 39 40  2  0
 39 74  1  0
 40 41  1  0
M  END

