
     RDKit          3D

 36 35  0  0  0  0  0  0  0  0999 V2000
    0.8806    0.6043    0.4733 C   0  0  0  0  0  0  0  0  0  0  0  0
    2.3093    0.1631    0.1434 C   0  0  0  0  0  0  0  0  0  0  0  0
    2.4061    0.0933   -0.9507 H   0  0  0  0  0  0  0  0  0  0  0  0
    3.3975    1.1207    0.6800 C   0  0  0  0  0  0  0  0  0  0  0  0
    4.7149    0.3504    0.7922 C   0  0  0  0  0  0  0  0  0  0  0  0
    4.4085   -0.9643    1.5262 C   0  0  0  0  0  0  0  0  0  0  0  0
    4.1717   -0.7202    2.5784 H   0  0  0  0  0  0  0  0  0  0  0  0
    5.5321   -1.9976    1.5122 C   0  0  0  0  0  0  0  0  0  0  0  0
    2.7255   -1.5531    0.8496 P   0  0  0  0  0  0  0  0  0  0  0  0
    3.2401   -2.5255   -0.6553 C   0  0  0  0  0  0  0  0  0  0  0  0
    3.6314   -2.0690   -1.8814 C   0  0  0  0  0  0  0  0  0  0  0  0
    3.9869   -2.9962   -2.9295 C   0  0  0  0  0  0  0  0  0  0  0  0
    4.3919   -2.5645   -4.2147 C   0  0  0  0  0  0  0  0  0  0  0  0
    4.7316   -3.4850   -5.1966 C   0  0  0  0  0  0  0  0  0  0  0  0
    4.6785   -4.8669   -4.9319 C   0  0  0  0  0  0  0  0  0  0  0  0
    4.2832   -5.3136   -3.6775 C   0  0  0  0  0  0  0  0  0  0  0  0
    3.9389   -4.3922   -2.6733 C   0  0  0  0  0  0  0  0  0  0  0  0
    3.5168   -4.8972   -1.3506 C   0  0  0  0  0  0  0  0  0  0  0  0
    3.4334   -6.0740   -1.0367 O   0  0  0  0  0  0  0  0  0  0  0  0
    3.1928   -3.8920   -0.4386 N   0  0  0  0  0  0  0  0  0  0  0  0
    2.8572   -4.2337    0.4596 H   0  0  0  0  0  0  0  0  0  0  0  0
    0.6852    1.6159    0.0786 H   0  0  0  0  0  0  0  0  0  0  0  0
    0.7087    0.6313    1.5620 H   0  0  0  0  0  0  0  0  0  0  0  0
    0.1328   -0.0752    0.0356 H   0  0  0  0  0  0  0  0  0  0  0  0
    3.1011    1.4825    1.6813 H   0  0  0  0  0  0  0  0  0  0  0  0
    3.4855    2.0139    0.0385 H   0  0  0  0  0  0  0  0  0  0  0  0
    5.4910    0.9320    1.3198 H   0  0  0  0  0  0  0  0  0  0  0  0
    5.1144    0.1264   -0.2130 H   0  0  0  0  0  0  0  0  0  0  0  0
    6.4352   -1.5886    1.9955 H   0  0  0  0  0  0  0  0  0  0  0  0
    5.8049   -2.2829    0.4839 H   0  0  0  0  0  0  0  0  0  0  0  0
    5.2555   -2.9153    2.0553 H   0  0  0  0  0  0  0  0  0  0  0  0
    3.6866   -1.0004   -2.0872 H   0  0  0  0  0  0  0  0  0  0  0  0
    4.4344   -1.4928   -4.4269 H   0  0  0  0  0  0  0  0  0  0  0  0
    5.0424   -3.1335   -6.1841 H   0  0  0  0  0  0  0  0  0  0  0  0
    4.9479   -5.5833   -5.7117 H   0  0  0  0  0  0  0  0  0  0  0  0
    4.2289   -6.3769   -3.4357 H   0  0  0  0  0  0  0  0  0  0  0  0
  1  2  1  0
  1 22  1  0
  1 23  1  0
  1 24  1  0
  2  3  1  0
  2  4  1  0
  4  5  1  0
  4 25  1  0
  4 26  1  0
  5  6  1  0
  5 27  1  0
  5 28  1  0
  6  7  1  0
  6  8  1  0
  8 29  1  0
  8 30  1  0
  8 31  1  0
 10 11  1  0
 10 20  1  0
 11 12  1  0
 11 32  1  0
 12 13  1  0
 12 17  1  0
 13 14  1  0
 13 33  1  0
 14 15  1  0
 14 34  1  0
 15 16  1  0
 15 35  1  0
 16 17  1  0
 16 36  1  0
 17 18  1  0
 18 19  1  0
 18 20  1  0
 20 21  1  0
M  CHG  8   2  -1   6   1   9  -3  11   1  12   1  13   1  14   1  15  -1
M  CHG  4  16   1  17  -1  18   1  19  -1
M  END

