
     RDKit          3D

 38 39  0  0  0  0  0  0  0  0999 V2000
    1.1264   -0.2009    0.0942 C   0  0  0  0  0  0  0  0  0  0  0  0
    2.6265    0.1280    0.0285 C   0  0  0  0  0  0  0  0  0  0  0  0
    3.0482    1.1793    0.9994 C   0  0  0  0  0  0  0  0  0  0  0  0
    2.5394    2.4380    0.7729 O   0  0  0  0  0  0  0  0  0  0  0  0
    3.0002    3.2465    1.7650 C   0  0  0  0  0  0  0  0  0  0  0  0
    2.7310    4.6038    1.9180 C   0  0  0  0  0  0  0  0  0  0  0  0
    3.3175    5.2396    3.0152 C   0  0  0  0  0  0  0  0  0  0  0  0
    4.1395    4.5309    3.9140 C   0  0  0  0  0  0  0  0  0  0  0  0
    4.3978    3.1706    3.7422 C   0  0  0  0  0  0  0  0  0  0  0  0
    3.8192    2.5094    2.6445 C   0  0  0  0  0  0  0  0  0  0  0  0
    3.8357    1.1560    2.1219 C   0  0  0  0  0  0  0  0  0  0  0  0
    4.5650   -0.0169    2.7209 C   0  0  0  0  0  0  0  0  0  0  0  0
    5.2842   -0.8050    1.7268 N   0  0  0  0  0  0  0  0  0  0  0  0
    6.0698   -1.8927    2.2868 C   0  0  0  0  0  0  0  0  0  0  0  0
    6.7362   -2.7727    1.2184 C   0  0  1  0  0  0  0  0  0  0  0  0
    7.7206   -1.9860    0.3430 C   0  0  0  0  0  0  0  0  0  0  0  0
    7.4249   -3.9757    1.8743 C   0  0  0  0  0  0  0  0  0  0  0  0
    0.8621   -0.9600   -0.6588 H   0  0  0  0  0  0  0  0  0  0  0  0
    0.5154    0.6949   -0.0966 H   0  0  0  0  0  0  0  0  0  0  0  0
    0.8479   -0.5935    1.0851 H   0  0  0  0  0  0  0  0  0  0  0  0
    2.8771    0.4729   -0.9911 H   0  0  0  0  0  0  0  0  0  0  0  0
    3.2400   -0.7624    0.2256 H   0  0  0  0  0  0  0  0  0  0  0  0
    2.0917    5.1359    1.2111 H   0  0  0  0  0  0  0  0  0  0  0  0
    3.1346    6.3045    3.1791 H   0  0  0  0  0  0  0  0  0  0  0  0
    4.5813    5.0597    4.7624 H   0  0  0  0  0  0  0  0  0  0  0  0
    5.0349    2.6343    4.4499 H   0  0  0  0  0  0  0  0  0  0  0  0
    3.8503   -0.6898    3.2319 H   0  0  0  0  0  0  0  0  0  0  0  0
    5.2333    0.3619    3.5263 H   0  0  0  0  0  0  0  0  0  0  0  0
    5.8755   -0.1833    1.1767 H   0  0  0  0  0  0  0  0  0  0  0  0
    5.3891   -2.5214    2.8883 H   0  0  0  0  0  0  0  0  0  0  0  0
    6.8529   -1.5325    2.9971 H   0  0  0  0  0  0  0  0  0  0  0  0
    5.9270   -3.1481    0.5660 H   0  0  0  0  0  0  0  0  0  0  0  0
    8.5256   -1.5388    0.9524 H   0  0  0  0  0  0  0  0  0  0  0  0
    7.2234   -1.1755   -0.2139 H   0  0  0  0  0  0  0  0  0  0  0  0
    8.1962   -2.6424   -0.4034 H   0  0  0  0  0  0  0  0  0  0  0  0
    8.2402   -3.6521    2.5443 H   0  0  0  0  0  0  0  0  0  0  0  0
    7.8652   -4.6440    1.1172 H   0  0  0  0  0  0  0  0  0  0  0  0
    6.7169   -4.5704    2.4744 H   0  0  0  0  0  0  0  0  0  0  0  0
  1  2  1  0
  1 18  1  0
  1 19  1  0
  1 20  1  0
  2  3  1  0
  2 21  1  0
  2 22  1  0
  3  4  1  0
  3 11  2  0
  4  5  1  0
  5  6  2  0
  5 10  1  0
  6  7  1  0
  6 23  1  0
  7  8  2  0
  7 24  1  0
  8  9  1  0
  8 25  1  0
  9 10  2  0
  9 26  1  0
 10 11  1  0
 11 12  1  0
 12 13  1  0
 12 27  1  0
 12 28  1  0
 13 14  1  0
 13 29  1  0
 14 15  1  0
 14 30  1  0
 14 31  1  0
 15 16  1  0
 15 17  1  0
 15 32  1  6
 16 33  1  0
 16 34  1  0
 16 35  1  0
 17 36  1  0
 17 37  1  0
 17 38  1  0
M  END

