
     RDKit          3D

 49 51  0  0  0  0  0  0  0  0999 V2000
   15.2429   -5.4033   -4.0284 C   0  0  0  0  0  0  0  0  0  0  0  0
   14.0057   -5.5852   -3.1633 C   0  0  0  0  0  0  0  0  0  0  0  0
   12.9345   -5.9233   -3.6324 O   0  0  0  0  0  0  0  0  0  0  0  0
   14.2137   -5.3556   -1.8206 N   0  0  0  0  0  0  0  0  0  0  0  0
   13.2953   -5.4798   -0.7664 C   0  0  0  0  0  0  0  0  0  0  0  0
   11.9412   -5.8180   -0.9146 C   0  0  0  0  0  0  0  0  0  0  0  0
   11.0943   -5.9247    0.1972 C   0  0  0  0  0  0  0  0  0  0  0  0
    9.7460   -6.3031    0.0385 N   0  0  0  0  0  0  0  0  0  0  0  0
    8.6994   -5.5130    0.5059 C   0  0  0  0  0  0  0  0  0  0  0  0
    8.8716   -4.4410    1.0522 O   0  0  0  0  0  0  0  0  0  0  0  0
    7.4257   -6.0213    0.2830 N   0  0  0  0  0  0  0  0  0  0  0  0
    7.0103   -7.4351    0.1926 C   0  0  2  0  0  0  0  0  0  0  0  0
    7.5106   -8.0250   -1.1460 C   0  0  0  0  0  0  0  0  0  0  0  0
    8.2717   -9.1993   -1.2518 C   0  0  0  0  0  0  0  0  0  0  0  0
    8.6948   -9.6899   -2.4929 C   0  0  0  0  0  0  0  0  0  0  0  0
    8.3601   -8.9987   -3.6568 C   0  0  0  0  0  0  0  0  0  0  0  0
    8.8752   -9.6059   -5.2102 Cl  0  0  0  0  0  0  0  0  0  0  0  0
    7.6200   -7.8132   -3.5829 C   0  0  0  0  0  0  0  0  0  0  0  0
    7.2093   -7.3395   -2.3386 C   0  0  0  0  0  0  0  0  0  0  0  0
    5.4556   -7.4217    0.2080 C   0  0  0  0  0  0  0  0  0  0  0  0
    4.8622   -8.8096    0.4359 C   0  0  0  0  0  0  0  0  0  0  0  0
    5.3004   -9.3572    1.6608 O   0  0  0  0  0  0  0  0  0  0  0  0
    6.7008   -9.5353    1.6919 C   0  0  0  0  0  0  0  0  0  0  0  0
    7.4591   -8.2220    1.4569 C   0  0  0  0  0  0  0  0  0  0  0  0
   11.6215   -5.6899    1.4761 C   0  0  0  0  0  0  0  0  0  0  0  0
   10.8491   -5.8506    2.5540 F   0  0  0  0  0  0  0  0  0  0  0  0
   12.9519   -5.3201    1.6504 C   0  0  0  0  0  0  0  0  0  0  0  0
   13.7658   -5.2247    0.5320 C   0  0  0  0  0  0  0  0  0  0  0  0
   15.0645   -4.8806    0.6780 F   0  0  0  0  0  0  0  0  0  0  0  0
   14.9479   -4.8941   -4.9562 H   0  0  0  0  0  0  0  0  0  0  0  0
   15.6310   -6.3963   -4.3079 H   0  0  0  0  0  0  0  0  0  0  0  0
   16.0481   -4.8364   -3.5381 H   0  0  0  0  0  0  0  0  0  0  0  0
   15.1440   -5.0759   -1.5335 H   0  0  0  0  0  0  0  0  0  0  0  0
   11.5551   -5.9931   -1.9164 H   0  0  0  0  0  0  0  0  0  0  0  0
    9.5417   -6.9692   -0.6990 H   0  0  0  0  0  0  0  0  0  0  0  0
    6.7398   -5.4038    0.7061 H   0  0  0  0  0  0  0  0  0  0  0  0
    8.5603   -9.7563   -0.3610 H   0  0  0  0  0  0  0  0  0  0  0  0
    9.2856  -10.6052   -2.5544 H   0  0  0  0  0  0  0  0  0  0  0  0
    7.3782   -7.2664   -4.4958 H   0  0  0  0  0  0  0  0  0  0  0  0
    6.6595   -6.3973   -2.2887 H   0  0  0  0  0  0  0  0  0  0  0  0
    5.0631   -6.9829   -0.7224 H   0  0  0  0  0  0  0  0  0  0  0  0
    5.1288   -6.7770    1.0423 H   0  0  0  0  0  0  0  0  0  0  0  0
    5.1183   -9.4842   -0.4074 H   0  0  0  0  0  0  0  0  0  0  0  0
    3.7647   -8.7486    0.4894 H   0  0  0  0  0  0  0  0  0  0  0  0
    6.9937  -10.3087    0.9548 H   0  0  0  0  0  0  0  0  0  0  0  0
    6.9454   -9.9288    2.6905 H   0  0  0  0  0  0  0  0  0  0  0  0
    8.5456   -8.3980    1.4483 H   0  0  0  0  0  0  0  0  0  0  0  0
    7.2643   -7.5611    2.3166 H   0  0  0  0  0  0  0  0  0  0  0  0
   13.3510   -5.1313    2.6473 H   0  0  0  0  0  0  0  0  0  0  0  0
  1  2  1  0
  1 30  1  0
  1 31  1  0
  1 32  1  0
  2  3  2  0
  2  4  1  0
  4  5  1  0
  4 33  1  0
  5  6  2  0
  5 28  1  0
  6  7  1  0
  6 34  1  0
  7  8  1  0
  7 25  2  0
  8  9  1  0
  8 35  1  0
  9 10  2  0
  9 11  1  0
 12 11  1  1
 11 36  1  0
 12 13  1  0
 12 20  1  0
 12 24  1  0
 13 14  2  0
 13 19  1  0
 14 15  1  0
 14 37  1  0
 15 16  2  0
 15 38  1  0
 16 17  1  0
 16 18  1  0
 18 19  2  0
 18 39  1  0
 19 40  1  0
 20 21  1  0
 20 41  1  0
 20 42  1  0
 21 22  1  0
 21 43  1  0
 21 44  1  0
 22 23  1  0
 23 24  1  0
 23 45  1  0
 23 46  1  0
 24 47  1  0
 24 48  1  0
 25 26  1  0
 25 27  1  0
 27 28  2  0
 27 49  1  0
 28 29  1  0
M  END

