
     RDKit          3D

 43 44  0  0  0  0  0  0  0  0999 V2000
    3.8538    1.0344   -3.8089 C   0  0  0  0  0  0  0  0  0  0  0  0
    4.4462    0.3897   -2.5707 C   0  0  0  0  0  0  0  0  0  0  0  0
    5.7224    0.9673   -2.3409 O   0  0  0  0  0  0  0  0  0  0  0  0
    6.4668    0.5624   -1.2826 C   0  0  0  0  0  0  0  0  0  0  0  0
    6.0744   -0.4206   -0.3592 C   0  0  0  0  0  0  0  0  0  0  0  0
    6.9235   -0.7611    0.6982 C   0  0  0  0  0  0  0  0  0  0  0  0
    8.1710   -0.1453    0.8666 C   0  0  0  0  0  0  0  0  0  0  0  0
    9.0653   -0.5213    2.0365 C   0  0  0  0  0  0  0  0  0  0  0  0
    9.2890   -2.0284    2.1477 C   0  0  0  0  0  0  0  0  0  0  0  0
    8.6592   -2.6729    2.9909 O   0  0  0  0  0  0  0  0  0  0  0  0
   10.1388   -2.6521    1.2816 N   0  0  0  0  0  0  0  0  0  0  0  0
   10.9618   -1.9850    0.2855 C   0  0  0  0  0  0  0  0  0  0  0  0
   10.1466   -4.1206    1.2494 C   0  0  0  0  0  0  0  0  0  0  0  0
   10.9984   -4.7886    2.3528 C   0  0  1  0  0  0  0  0  0  0  0  0
   10.4038   -4.6790    3.6177 O   0  0  0  0  0  0  0  0  0  0  0  0
   11.2240   -6.2534    2.0412 C   0  0  0  0  0  0  0  0  0  0  0  0
   10.6678   -7.3332    2.6793 C   0  0  0  0  0  0  0  0  0  0  0  0
   11.0814   -8.5866    2.1279 C   0  0  0  0  0  0  0  0  0  0  0  0
   11.9491   -8.4449    1.0770 C   0  0  0  0  0  0  0  0  0  0  0  0
   12.2802   -6.7739    0.7509 S   0  0  0  0  0  0  0  0  0  0  0  0
    8.5481    0.8360   -0.0653 C   0  0  0  0  0  0  0  0  0  0  0  0
    7.7144    1.1891   -1.1230 C   0  0  0  0  0  0  0  0  0  0  0  0
    2.8599    0.6107   -4.0205 H   0  0  0  0  0  0  0  0  0  0  0  0
    4.4997    0.8627   -4.6836 H   0  0  0  0  0  0  0  0  0  0  0  0
    3.7472    2.1209   -3.6683 H   0  0  0  0  0  0  0  0  0  0  0  0
    4.5452   -0.7040   -2.7075 H   0  0  0  0  0  0  0  0  0  0  0  0
    3.7932    0.5541   -1.6926 H   0  0  0  0  0  0  0  0  0  0  0  0
    5.1123   -0.9248   -0.4500 H   0  0  0  0  0  0  0  0  0  0  0  0
    6.6028   -1.5245    1.4127 H   0  0  0  0  0  0  0  0  0  0  0  0
    8.5903   -0.2400    2.9878 H   0  0  0  0  0  0  0  0  0  0  0  0
   10.0179    0.0253    1.9771 H   0  0  0  0  0  0  0  0  0  0  0  0
   11.0170   -0.9079    0.4710 H   0  0  0  0  0  0  0  0  0  0  0  0
   10.5651   -2.1362   -0.7339 H   0  0  0  0  0  0  0  0  0  0  0  0
   11.9889   -2.3836    0.3182 H   0  0  0  0  0  0  0  0  0  0  0  0
   10.5244   -4.4252    0.2631 H   0  0  0  0  0  0  0  0  0  0  0  0
    9.1132   -4.4910    1.3424 H   0  0  0  0  0  0  0  0  0  0  0  0
   11.9879   -4.2789    2.3490 H   0  0  0  0  0  0  0  0  0  0  0  0
    9.6699   -4.0329    3.5581 H   0  0  0  0  0  0  0  0  0  0  0  0
    9.9961   -7.2101    3.5282 H   0  0  0  0  0  0  0  0  0  0  0  0
   10.7489   -9.5565    2.5023 H   0  0  0  0  0  0  0  0  0  0  0  0
   12.4216   -9.2213    0.4769 H   0  0  0  0  0  0  0  0  0  0  0  0
    9.5119    1.3431    0.0412 H   0  0  0  0  0  0  0  0  0  0  0  0
    8.0068    1.9542   -1.8451 H   0  0  0  0  0  0  0  0  0  0  0  0
  1  2  1  0
  1 23  1  0
  1 24  1  0
  1 25  1  0
  2  3  1  0
  2 26  1  0
  2 27  1  0
  3  4  1  0
  4  5  2  0
  4 22  1  0
  5  6  1  0
  5 28  1  0
  6  7  2  0
  6 29  1  0
  7  8  1  0
  7 21  1  0
  8  9  1  0
  8 30  1  0
  8 31  1  0
  9 10  2  0
  9 11  1  0
 11 12  1  0
 11 13  1  0
 12 32  1  0
 12 33  1  0
 12 34  1  0
 13 14  1  0
 13 35  1  0
 13 36  1  0
 14 15  1  0
 14 16  1  0
 14 37  1  1
 15 38  1  0
 16 17  2  0
 16 20  1  0
 17 18  1  0
 17 39  1  0
 18 19  2  0
 18 40  1  0
 19 20  1  0
 19 41  1  0
 21 22  2  0
 21 42  1  0
 22 43  1  0
M  END

