
     RDKit          3D

 38 38  0  0  0  0  0  0  0  0999 V2000
    1.4629   -0.8316    0.8776 C   0  0  0  0  0  0  0  0  0  0  0  0
    2.9618   -1.0532    0.9916 C   0  0  0  0  0  0  0  0  0  0  0  0
    3.4682   -2.1558    0.9558 O   0  0  0  0  0  0  0  0  0  0  0  0
    3.6803    0.1230    1.1590 N   0  0  0  0  0  0  0  0  0  0  0  0
    5.0531    0.2972    1.3263 C   0  0  0  0  0  0  0  0  0  0  0  0
    5.9645   -0.7789    1.3611 C   0  0  0  0  0  0  0  0  0  0  0  0
    7.3289   -0.5542    1.5303 C   0  0  0  0  0  0  0  0  0  0  0  0
    7.8112    0.7493    1.6580 C   0  0  0  0  0  0  0  0  0  0  0  0
    9.5674    1.0493    1.8660 S   0  0  1  0  0  0  0  0  0  0  0  0
    9.7177    2.2600    2.6775 O   0  0  0  0  0  0  0  0  0  0  0  0
   10.1729   -0.2314    2.2414 O   0  0  0  0  0  0  0  0  0  0  0  0
   10.0998    1.4903    0.3314 N   0  0  0  0  0  0  0  0  0  0  0  0
   10.7810    0.5417   -0.5497 C   0  0  0  0  0  0  0  0  0  0  0  0
   10.2016    0.5368   -1.9915 C   0  0  1  0  0  0  0  0  0  0  0  0
   10.3991    1.9136   -2.6448 C   0  0  0  0  0  0  0  0  0  0  0  0
   10.9369   -0.5412   -2.7989 C   0  0  0  0  0  0  0  0  0  0  0  0
    8.7691    0.2323   -2.0126 N   0  0  0  0  0  0  0  0  0  0  0  0
    6.9357    1.8379    1.6467 C   0  0  0  0  0  0  0  0  0  0  0  0
    5.5752    1.6073    1.4775 C   0  0  0  0  0  0  0  0  0  0  0  0
    4.3985    3.1198    1.4669 Br  0  0  0  0  0  0  0  0  0  0  0  0
    0.9962   -1.7684    0.5506 H   0  0  0  0  0  0  0  0  0  0  0  0
    1.2193   -0.0283    0.1644 H   0  0  0  0  0  0  0  0  0  0  0  0
    1.0459   -0.5516    1.8593 H   0  0  0  0  0  0  0  0  0  0  0  0
    3.1429    0.9850    1.1676 H   0  0  0  0  0  0  0  0  0  0  0  0
    5.5714   -1.7877    1.2592 H   0  0  0  0  0  0  0  0  0  0  0  0
    8.0235   -1.3943    1.5795 H   0  0  0  0  0  0  0  0  0  0  0  0
   10.4879    2.4293    0.3904 H   0  0  0  0  0  0  0  0  0  0  0  0
   10.6720   -0.4614   -0.1102 H   0  0  0  0  0  0  0  0  0  0  0  0
   11.8656    0.7529   -0.5680 H   0  0  0  0  0  0  0  0  0  0  0  0
   11.4649    2.1916   -2.6848 H   0  0  0  0  0  0  0  0  0  0  0  0
    9.8621    2.6954   -2.0829 H   0  0  0  0  0  0  0  0  0  0  0  0
    9.9977    1.9060   -3.6688 H   0  0  0  0  0  0  0  0  0  0  0  0
   12.0196   -0.3437   -2.8441 H   0  0  0  0  0  0  0  0  0  0  0  0
   10.5442   -0.5774   -3.8258 H   0  0  0  0  0  0  0  0  0  0  0  0
   10.7968   -1.5381   -2.3472 H   0  0  0  0  0  0  0  0  0  0  0  0
    8.2722    0.8789   -1.3980 H   0  0  0  0  0  0  0  0  0  0  0  0
    8.5976   -0.7032   -1.6406 H   0  0  0  0  0  0  0  0  0  0  0  0
    7.3155    2.8509    1.7835 H   0  0  0  0  0  0  0  0  0  0  0  0
  1  2  1  0
  1 21  1  0
  1 22  1  0
  1 23  1  0
  2  3  2  0
  2  4  1  0
  4  5  1  0
  4 24  1  0
  5  6  2  0
  5 19  1  0
  6  7  1  0
  6 25  1  0
  7  8  2  0
  7 26  1  0
  8  9  1  0
  8 18  1  0
  9 10  2  0
  9 11  2  0
  9 12  1  6
 12 13  1  0
 12 27  1  0
 13 14  1  0
 13 28  1  0
 13 29  1  0
 14 15  1  0
 14 16  1  0
 14 17  1  1
 15 30  1  0
 15 31  1  0
 15 32  1  0
 16 33  1  0
 16 34  1  0
 16 35  1  0
 17 36  1  0
 17 37  1  0
 18 19  2  0
 18 38  1  0
 19 20  1  0
M  END

