
     RDKit          3D

 14 14  0  0  0  0  0  0  0  0999 V2000
    2.2989    0.8623   -1.1476 O   0  0  0  0  0  0  0  0  0  0  0  0
    2.1684    0.0986   -0.2106 N   0  0  0  0  0  0  0  0  0  0  0  0
    1.5679    0.3133    0.8233 O   0  0  0  0  0  0  0  0  0  0  0  0
    2.8335   -1.2178   -0.3434 C   0  0  0  0  0  0  0  0  0  0  0  0
    4.2278   -1.2182   -0.4215 C   0  0  0  0  0  0  0  0  0  0  0  0
    4.8858   -0.0648   -0.3536 F   0  0  0  0  0  0  0  0  0  0  0  0
    4.9273   -2.4131   -0.5404 C   0  0  0  0  0  0  0  0  0  0  0  0
    4.2155   -3.6099   -0.6002 C   0  0  0  0  0  0  0  0  0  0  0  0
    2.8151   -3.6253   -0.5377 C   0  0  0  0  0  0  0  0  0  0  0  0
    1.8509   -5.5089   -0.6572 I   0  0  0  0  0  0  0  0  0  0  0  0
    2.1062   -2.4171   -0.4035 C   0  0  0  0  0  0  0  0  0  0  0  0
    0.2168   -2.3593   -0.3397 Br  0  0  0  0  0  0  0  0  0  0  0  0
    6.0173   -2.3920   -0.5856 H   0  0  0  0  0  0  0  0  0  0  0  0
    4.7587   -4.5507   -0.6982 H   0  0  0  0  0  0  0  0  0  0  0  0
  1  2  2  0
  2  3  1  0
  2  4  1  0
  4  5  2  0
  4 11  1  0
  5  6  1  0
  5  7  1  0
  7  8  2  0
  7 13  1  0
  8  9  1  0
  8 14  1  0
  9 10  1  0
  9 11  2  0
 11 12  1  0
M  CHG  2   2   1   3  -1
M  END

