
     RDKit          3D

 47 50  0  0  0  0  0  0  0  0999 V2000
    6.3535   -0.8857    1.6117 C   0  0  0  0  0  0  0  0  0  0  0  0
    5.2040   -1.0390    0.6024 C   0  0  1  0  0  0  0  0  0  0  0  0
    5.7239   -1.3336   -0.8143 C   0  0  0  0  0  0  0  0  0  0  0  0
    4.2506   -2.1127    1.0462 C   0  0  0  0  0  0  0  0  0  0  0  0
    2.9908   -1.8699    1.3148 N   0  0  0  0  0  0  0  0  0  0  0  0
    2.4867   -3.1196    1.6725 O   0  0  0  0  0  0  0  0  0  0  0  0
    3.4987   -3.9963    1.5811 C   0  0  0  0  0  0  0  0  0  0  0  0
    3.2823   -5.4067    1.9192 C   0  0  0  0  0  0  0  0  0  0  0  0
    4.4251   -6.2230    2.0237 C   0  0  0  0  0  0  0  0  0  0  0  0
    4.3100   -7.5705    2.3526 C   0  0  0  0  0  0  0  0  0  0  0  0
    3.0445   -8.1231    2.5762 C   0  0  0  0  0  0  0  0  0  0  0  0
    1.9055   -7.3243    2.4624 C   0  0  0  0  0  0  0  0  0  0  0  0
    2.0019   -5.9635    2.1387 C   0  0  0  0  0  0  0  0  0  0  0  0
    0.7039   -5.2109    1.8954 C   0  0  0  0  0  0  0  0  0  0  0  0
    0.1766   -5.2582    0.7945 O   0  0  0  0  0  0  0  0  0  0  0  0
    0.1422   -4.5775    2.9592 N   0  0  0  0  0  0  0  0  0  0  0  0
   -1.0776   -3.7898    2.7904 C   0  0  0  0  0  0  0  0  0  0  0  0
   -1.5655   -3.4749    4.2279 C   0  0  1  0  0  0  0  0  0  0  0  0
   -2.8470   -4.2300    4.6302 C   0  0  0  0  0  0  0  0  0  0  0  0
   -2.3428   -5.6202    5.0386 C   0  0  0  0  0  0  0  0  0  0  0  0
   -1.0629   -5.3072    5.8334 C   0  0  0  0  0  0  0  0  0  0  0  0
   -0.4464   -4.0373    5.1766 C   0  0  1  0  0  0  0  0  0  0  0  0
    0.7538   -4.2971    4.2531 C   0  0  0  0  0  0  0  0  0  0  0  0
    4.6114   -3.4288    1.2025 N   0  0  0  0  0  0  0  0  0  0  0  0
    7.0413   -0.0872    1.2917 H   0  0  0  0  0  0  0  0  0  0  0  0
    6.9274   -1.8223    1.6926 H   0  0  0  0  0  0  0  0  0  0  0  0
    5.9765   -0.6296    2.6142 H   0  0  0  0  0  0  0  0  0  0  0  0
    4.6206   -0.1044    0.5809 H   0  0  0  0  0  0  0  0  0  0  0  0
    6.2711   -2.2891   -0.8368 H   0  0  0  0  0  0  0  0  0  0  0  0
    6.4082   -0.5364   -1.1453 H   0  0  0  0  0  0  0  0  0  0  0  0
    4.8977   -1.3976   -1.5391 H   0  0  0  0  0  0  0  0  0  0  0  0
    5.4011   -5.7703    1.8413 H   0  0  0  0  0  0  0  0  0  0  0  0
    5.2057   -8.1907    2.4329 H   0  0  0  0  0  0  0  0  0  0  0  0
    2.9429   -9.1810    2.8314 H   0  0  0  0  0  0  0  0  0  0  0  0
    0.9158   -7.7623    2.6139 H   0  0  0  0  0  0  0  0  0  0  0  0
   -1.8029   -4.3616    2.1929 H   0  0  0  0  0  0  0  0  0  0  0  0
   -0.8547   -2.8675    2.2243 H   0  0  0  0  0  0  0  0  0  0  0  0
   -1.6908   -2.3884    4.3434 H   0  0  0  0  0  0  0  0  0  0  0  0
   -3.6009   -4.2496    3.8271 H   0  0  0  0  0  0  0  0  0  0  0  0
   -3.3123   -3.7329    5.4993 H   0  0  0  0  0  0  0  0  0  0  0  0
   -2.1012   -6.2121    4.1393 H   0  0  0  0  0  0  0  0  0  0  0  0
   -3.0801   -6.1986    5.6176 H   0  0  0  0  0  0  0  0  0  0  0  0
   -0.3562   -6.1518    5.8589 H   0  0  0  0  0  0  0  0  0  0  0  0
   -1.3261   -5.0841    6.8805 H   0  0  0  0  0  0  0  0  0  0  0  0
   -0.1640   -3.3084    5.9503 H   0  0  0  0  0  0  0  0  0  0  0  0
    1.3818   -5.1351    4.5872 H   0  0  0  0  0  0  0  0  0  0  0  0
    1.3966   -3.3983    4.1888 H   0  0  0  0  0  0  0  0  0  0  0  0
  1  2  1  0
  1 25  1  0
  1 26  1  0
  1 27  1  0
  2  3  1  0
  2  4  1  0
  2 28  1  6
  3 29  1  0
  3 30  1  0
  3 31  1  0
  4  5  2  0
  4 24  1  0
  5  6  1  0
  6  7  1  0
  7  8  1  0
  7 24  2  0
  8  9  2  0
  8 13  1  0
  9 10  1  0
  9 32  1  0
 10 11  2  0
 10 33  1  0
 11 12  1  0
 11 34  1  0
 12 13  2  0
 12 35  1  0
 13 14  1  0
 14 15  2  0
 14 16  1  0
 16 17  1  0
 16 23  1  0
 17 18  1  0
 17 36  1  0
 17 37  1  0
 18 19  1  0
 18 22  1  0
 18 38  1  6
 19 20  1  0
 19 39  1  0
 19 40  1  0
 20 21  1  0
 20 41  1  0
 20 42  1  0
 21 22  1  0
 21 43  1  0
 21 44  1  0
 22 23  1  0
 22 45  1  1
 23 46  1  0
 23 47  1  0
M  END

