
     RDKit          3D

 30 31  0  0  0  0  0  0  0  0999 V2000
    1.1390   -0.3113    0.2786 N   0  0  0  0  0  0  0  0  0  0  0  0
    2.5087   -0.1636    0.1035 C   0  0  0  0  0  0  0  0  0  0  0  0
    3.0832    1.1164    0.0274 C   0  0  0  0  0  0  0  0  0  0  0  0
    4.4649    1.2876   -0.1743 C   0  0  0  0  0  0  0  0  0  0  0  0
    5.0216    2.5562   -0.1901 N   0  0  0  0  0  0  0  0  0  0  0  0
    5.2802    0.1483   -0.3115 C   0  0  0  0  0  0  0  0  0  0  0  0
    4.7121   -1.1272   -0.2563 C   0  0  0  0  0  0  0  0  0  0  0  0
    5.6469   -2.2923   -0.4193 C   0  0  0  0  0  0  0  0  0  0  0  0
    6.8430   -2.2174   -0.2290 O   0  0  0  0  0  0  0  0  0  0  0  0
    5.0308   -3.4770   -0.8328 N   0  0  0  0  0  0  0  0  0  0  0  0
    5.7389   -4.6540   -1.1141 C   0  0  0  0  0  0  0  0  0  0  0  0
    6.4958   -5.3380   -0.1377 C   0  0  0  0  0  0  0  0  0  0  0  0
    6.5033   -4.7890    1.5118 Cl  0  0  0  0  0  0  0  0  0  0  0  0
    7.2091   -6.4992   -0.4441 C   0  0  0  0  0  0  0  0  0  0  0  0
    7.1465   -7.0223   -1.7357 C   0  0  0  0  0  0  0  0  0  0  0  0
    8.0274   -8.4794   -2.1192 Cl  0  0  0  0  0  0  0  0  0  0  0  0
    6.3776   -6.4045   -2.7230 C   0  0  0  0  0  0  0  0  0  0  0  0
    5.6965   -5.2315   -2.4009 C   0  0  0  0  0  0  0  0  0  0  0  0
    4.7424   -4.4530   -3.6456 Cl  0  0  0  0  0  0  0  0  0  0  0  0
    3.3364   -1.2947   -0.0426 C   0  0  0  0  0  0  0  0  0  0  0  0
    0.6530    0.4705    0.7026 H   0  0  0  0  0  0  0  0  0  0  0  0
    0.8284   -1.2066    0.6379 H   0  0  0  0  0  0  0  0  0  0  0  0
    2.4438    1.9976    0.1388 H   0  0  0  0  0  0  0  0  0  0  0  0
    4.4044    3.3275   -0.4144 H   0  0  0  0  0  0  0  0  0  0  0  0
    5.9415    2.6415   -0.6057 H   0  0  0  0  0  0  0  0  0  0  0  0
    6.3580    0.2387   -0.4572 H   0  0  0  0  0  0  0  0  0  0  0  0
    4.1578   -3.3634   -1.3377 H   0  0  0  0  0  0  0  0  0  0  0  0
    7.7897   -6.9980    0.3309 H   0  0  0  0  0  0  0  0  0  0  0  0
    6.3187   -6.8174   -3.7292 H   0  0  0  0  0  0  0  0  0  0  0  0
    2.9018   -2.2918    0.0568 H   0  0  0  0  0  0  0  0  0  0  0  0
  1  2  1  0
  1 21  1  0
  1 22  1  0
  2  3  2  0
  2 20  1  0
  3  4  1  0
  3 23  1  0
  4  5  1  0
  4  6  2  0
  5 24  1  0
  5 25  1  0
  6  7  1  0
  6 26  1  0
  7  8  1  0
  7 20  2  0
  8  9  2  0
  8 10  1  0
 10 11  1  0
 10 27  1  0
 11 12  2  0
 11 18  1  0
 12 13  1  0
 12 14  1  0
 14 15  2  0
 14 28  1  0
 15 16  1  0
 15 17  1  0
 17 18  2  0
 17 29  1  0
 18 19  1  0
 20 30  1  0
M  END

