
     RDKit          3D

 48 50  0  0  0  0  0  0  0  0999 V2000
    2.0958   -0.0363    1.6099 C   0  0  0  0  0  0  0  0  0  0  0  0
    0.9934   -0.9138    1.0585 C   0  0  0  0  0  0  0  0  0  0  0  0
   -0.3398   -0.4797    1.1473 C   0  0  0  0  0  0  0  0  0  0  0  0
   -1.3960   -1.2383    0.6410 C   0  0  0  0  0  0  0  0  0  0  0  0
   -1.1305   -2.4633    0.0263 C   0  0  0  0  0  0  0  0  0  0  0  0
    0.1880   -2.9104   -0.0658 C   0  0  0  0  0  0  0  0  0  0  0  0
    1.2589   -2.1578    0.4413 C   0  0  0  0  0  0  0  0  0  0  0  0
    2.6854   -2.7004    0.2920 C   0  0  1  0  0  0  0  0  0  0  0  0
    2.8520   -4.0475    1.0311 C   0  0  0  0  0  0  0  0  0  0  0  0
    4.2098   -4.7213    0.8356 C   0  0  0  0  0  0  0  0  0  0  0  0
    4.3005   -5.8700    0.4463 O   0  0  0  0  0  0  0  0  0  0  0  0
    5.2889   -3.9207    1.1568 N   0  0  0  0  0  0  0  0  0  0  0  0
    6.6535   -4.1774    0.9827 C   0  0  0  0  0  0  0  0  0  0  0  0
    7.1407   -5.3876    0.4513 C   0  0  0  0  0  0  0  0  0  0  0  0
    8.5091   -5.5952    0.2846 C   0  0  0  0  0  0  0  0  0  0  0  0
    9.4322   -4.6058    0.6307 C   0  0  0  0  0  0  0  0  0  0  0  0
    8.9685   -3.4009    1.1556 C   0  0  0  0  0  0  0  0  0  0  0  0
    7.5993   -3.1832    1.3500 C   0  0  0  0  0  0  0  0  0  0  0  0
    7.1935   -1.9575    1.9651 N   0  0  0  0  0  0  0  0  0  0  0  0
    7.8281   -1.3144    2.9868 C   0  0  0  0  0  0  0  0  0  0  0  0
    7.1344   -0.1422    3.2311 C   0  0  0  0  0  0  0  0  0  0  0  0
    6.0730   -0.1632    2.3019 C   0  0  0  0  0  0  0  0  0  0  0  0
    6.1144   -1.2564    1.5410 N   0  0  0  0  0  0  0  0  0  0  0  0
    3.1010   -2.8390   -1.1028 N   0  0  0  0  0  0  0  0  0  0  0  0
    3.6938   -1.8500   -1.8809 C   0  0  0  0  0  0  0  0  0  0  0  0
    4.4428   -0.9065   -1.1952 N   0  0  0  0  0  0  0  0  0  0  0  0
    3.5531   -1.8260   -3.0906 O   0  0  0  0  0  0  0  0  0  0  0  0
    1.6834    0.9040    2.0032 H   0  0  0  0  0  0  0  0  0  0  0  0
    2.8332    0.2156    0.8304 H   0  0  0  0  0  0  0  0  0  0  0  0
    2.6414   -0.5245    2.4357 H   0  0  0  0  0  0  0  0  0  0  0  0
   -0.5498    0.4827    1.6225 H   0  0  0  0  0  0  0  0  0  0  0  0
   -2.4220   -0.8708    0.7236 H   0  0  0  0  0  0  0  0  0  0  0  0
   -1.9438   -3.0693   -0.3804 H   0  0  0  0  0  0  0  0  0  0  0  0
    0.3832   -3.8717   -0.5504 H   0  0  0  0  0  0  0  0  0  0  0  0
    3.3651   -1.9740    0.7496 H   0  0  0  0  0  0  0  0  0  0  0  0
    2.1120   -4.7790    0.6792 H   0  0  0  0  0  0  0  0  0  0  0  0
    2.6647   -3.8939    2.1080 H   0  0  0  0  0  0  0  0  0  0  0  0
    5.0832   -2.9593    1.4181 H   0  0  0  0  0  0  0  0  0  0  0  0
    6.4178   -6.1531    0.1812 H   0  0  0  0  0  0  0  0  0  0  0  0
    8.8533   -6.5451   -0.1317 H   0  0  0  0  0  0  0  0  0  0  0  0
   10.5029   -4.7615    0.4840 H   0  0  0  0  0  0  0  0  0  0  0  0
    9.6712   -2.6046    1.4083 H   0  0  0  0  0  0  0  0  0  0  0  0
    8.7013   -1.7466    3.4686 H   0  0  0  0  0  0  0  0  0  0  0  0
    7.3564    0.6116    3.9822 H   0  0  0  0  0  0  0  0  0  0  0  0
    5.2790    0.5682    2.1546 H   0  0  0  0  0  0  0  0  0  0  0  0
    2.5214   -3.4413   -1.6806 H   0  0  0  0  0  0  0  0  0  0  0  0
    4.9707   -1.1783   -0.3650 H   0  0  0  0  0  0  0  0  0  0  0  0
    4.9593   -0.3063   -1.8293 H   0  0  0  0  0  0  0  0  0  0  0  0
  1  2  1  0
  1 28  1  0
  1 29  1  0
  1 30  1  0
  2  3  2  0
  2  7  1  0
  3  4  1  0
  3 31  1  0
  4  5  2  0
  4 32  1  0
  5  6  1  0
  5 33  1  0
  6  7  2  0
  6 34  1  0
  7  8  1  0
  8  9  1  0
  8 24  1  0
  8 35  1  1
  9 10  1  0
  9 36  1  0
  9 37  1  0
 10 11  2  0
 10 12  1  0
 12 13  1  0
 12 38  1  0
 13 14  2  0
 13 18  1  0
 14 15  1  0
 14 39  1  0
 15 16  2  0
 15 40  1  0
 16 17  1  0
 16 41  1  0
 17 18  2  0
 17 42  1  0
 18 19  1  0
 19 20  1  0
 19 23  1  0
 20 21  2  0
 20 43  1  0
 21 22  1  0
 21 44  1  0
 22 23  2  0
 22 45  1  0
 24 25  1  0
 24 46  1  0
 25 26  1  0
 25 27  2  0
 26 47  1  0
 26 48  1  0
M  END

