
     RDKit          3D

 32 32  0  0  0  0  0  0  0  0999 V2000
    3.0606    0.5118   -0.6258 C   0  0  0  0  0  0  0  0  0  0  0  0
    2.2894   -0.0823    0.5580 C   0  0  1  0  0  0  0  0  0  0  0  0
    0.7928   -0.2232    0.2534 C   0  0  0  0  0  0  0  0  0  0  0  0
    2.8488   -1.4440    0.9786 C   0  0  0  0  0  0  0  0  0  0  0  0
    4.2428   -1.3734    1.3386 O   0  0  0  0  0  0  0  0  0  0  0  0
    4.5579   -1.1181    2.6133 C   0  0  0  0  0  0  0  0  0  0  0  0
    3.7352   -0.9502    3.4866 O   0  0  0  0  0  0  0  0  0  0  0  0
    6.0458   -1.0792    2.7839 C   0  0  0  0  0  0  0  0  0  0  0  0
    6.8183   -1.2709    1.5828 C   0  0  0  0  0  0  0  0  0  0  0  0
    7.4802   -1.4180    0.6399 N   0  0  0  0  0  0  0  0  0  0  0  0
    6.7714   -0.8835    3.9308 C   0  0  0  0  0  0  0  0  0  0  0  0
    6.4898   -0.6554    5.3458 C   0  0  0  0  0  0  0  0  0  0  0  0
    7.6337   -0.5187    6.1705 C   0  0  0  0  0  0  0  0  0  0  0  0
    7.5023   -0.3002    7.5331 C   0  0  0  0  0  0  0  0  0  0  0  0
    8.5787   -0.1722    8.3077 F   0  0  0  0  0  0  0  0  0  0  0  0
    6.2375   -0.2093    8.1234 C   0  0  0  0  0  0  0  0  0  0  0  0
    6.1133   -0.0005    9.4259 F   0  0  0  0  0  0  0  0  0  0  0  0
    5.1068   -0.3436    7.3085 C   0  0  0  0  0  0  0  0  0  0  0  0
    3.9084   -0.2542    7.8836 F   0  0  0  0  0  0  0  0  0  0  0  0
    5.2135   -0.5627    5.9437 C   0  0  0  0  0  0  0  0  0  0  0  0
    2.6821    1.5154   -0.8762 H   0  0  0  0  0  0  0  0  0  0  0  0
    2.9527   -0.1204   -1.5239 H   0  0  0  0  0  0  0  0  0  0  0  0
    4.1354    0.5983   -0.4067 H   0  0  0  0  0  0  0  0  0  0  0  0
    2.3981    0.5916    1.4266 H   0  0  0  0  0  0  0  0  0  0  0  0
    0.6204   -0.9137   -0.5902 H   0  0  0  0  0  0  0  0  0  0  0  0
    0.3583    0.7499   -0.0236 H   0  0  0  0  0  0  0  0  0  0  0  0
    0.2324   -0.6049    1.1221 H   0  0  0  0  0  0  0  0  0  0  0  0
    2.8147   -2.1567    0.1407 H   0  0  0  0  0  0  0  0  0  0  0  0
    2.2842   -1.8513    1.8294 H   0  0  0  0  0  0  0  0  0  0  0  0
    7.8491   -0.9067    3.7415 H   0  0  0  0  0  0  0  0  0  0  0  0
    8.6418   -0.5819    5.7571 H   0  0  0  0  0  0  0  0  0  0  0  0
    4.3100   -0.6602    5.3453 H   0  0  0  0  0  0  0  0  0  0  0  0
  1  2  1  0
  1 21  1  0
  1 22  1  0
  1 23  1  0
  2  3  1  0
  2  4  1  0
  2 24  1  1
  3 25  1  0
  3 26  1  0
  3 27  1  0
  4  5  1  0
  4 28  1  0
  4 29  1  0
  5  6  1  0
  6  7  2  0
  6  8  1  0
  8  9  1  0
  8 11  2  0
  9 10  3  0
 11 12  1  0
 11 30  1  0
 12 13  2  0
 12 20  1  0
 13 14  1  0
 13 31  1  0
 14 15  1  0
 14 16  2  0
 16 17  1  0
 16 18  1  0
 18 19  1  0
 18 20  2  0
 20 32  1  0
M  END

