
     RDKit          3D

 45 47  0  0  0  0  0  0  0  0999 V2000
    1.2794    0.0661   -0.5885 O   0  0  0  0  0  0  0  0  0  0  0  0
    2.5036    0.0672   -0.5873 C   0  0  0  0  0  0  0  0  0  0  0  0
    3.2501    1.2131   -0.3879 N   0  0  0  0  0  0  0  0  0  0  0  0
    2.6245    2.4931   -0.1250 C   0  0  0  0  0  0  0  0  0  0  0  0
    3.1193    3.6084   -1.0281 C   0  0  0  0  0  0  0  0  0  0  0  0
    3.2411    3.4149   -2.4138 C   0  0  0  0  0  0  0  0  0  0  0  0
    3.6663    4.4534   -3.2449 C   0  0  0  0  0  0  0  0  0  0  0  0
    3.9780    5.7061   -2.7044 C   0  0  0  0  0  0  0  0  0  0  0  0
    3.8624    5.9098   -1.3272 C   0  0  0  0  0  0  0  0  0  0  0  0
    3.4392    4.8661   -0.4974 C   0  0  0  0  0  0  0  0  0  0  0  0
    3.2336   -1.0827   -0.7926 N   0  0  0  0  0  0  0  0  0  0  0  0
    4.6904   -1.2030   -0.7867 C   0  0  0  0  0  0  0  0  0  0  0  0
    4.9341   -2.6656   -1.1792 C   0  0  0  0  0  0  0  0  0  0  0  0
    3.6634   -3.3862   -0.6857 C   0  0  2  0  0  0  0  0  0  0  0  0
    3.3679   -4.5913   -1.3439 O   0  0  0  0  0  0  0  0  0  0  0  0
    4.1572   -5.6961   -0.9694 C   0  0  0  0  0  0  0  0  0  0  0  0
    3.6317   -6.9658   -1.6014 C   0  0  0  0  0  0  0  0  0  0  0  0
    4.4701   -8.0847   -1.7175 C   0  0  0  0  0  0  0  0  0  0  0  0
    3.9911   -9.2812   -2.2562 C   0  0  0  0  0  0  0  0  0  0  0  0
    2.6663   -9.3710   -2.6955 C   0  0  0  0  0  0  0  0  0  0  0  0
    1.8283   -8.2574   -2.5904 C   0  0  0  0  0  0  0  0  0  0  0  0
    2.3060   -7.0620   -2.0446 C   0  0  0  0  0  0  0  0  0  0  0  0
    2.5573   -2.3632   -0.9626 C   0  0  0  0  0  0  0  0  0  0  0  0
    4.2594    1.1646   -0.3481 H   0  0  0  0  0  0  0  0  0  0  0  0
    2.7626    2.7939    0.9301 H   0  0  0  0  0  0  0  0  0  0  0  0
    1.5446    2.3290   -0.2673 H   0  0  0  0  0  0  0  0  0  0  0  0
    2.9991    2.4379   -2.8400 H   0  0  0  0  0  0  0  0  0  0  0  0
    3.7523    4.2861   -4.3219 H   0  0  0  0  0  0  0  0  0  0  0  0
    4.3114    6.5187   -3.3551 H   0  0  0  0  0  0  0  0  0  0  0  0
    4.1077    6.8831   -0.8939 H   0  0  0  0  0  0  0  0  0  0  0  0
    3.3559    5.0309    0.5812 H   0  0  0  0  0  0  0  0  0  0  0  0
    5.1093   -0.9820    0.2155 H   0  0  0  0  0  0  0  0  0  0  0  0
    5.1640   -0.5062   -1.5012 H   0  0  0  0  0  0  0  0  0  0  0  0
    5.8691   -3.0632   -0.7582 H   0  0  0  0  0  0  0  0  0  0  0  0
    4.9771   -2.7725   -2.2755 H   0  0  0  0  0  0  0  0  0  0  0  0
    3.7430   -3.5643    0.4074 H   0  0  0  0  0  0  0  0  0  0  0  0
    4.1530   -5.8028    0.1377 H   0  0  0  0  0  0  0  0  0  0  0  0
    5.2160   -5.5500   -1.2638 H   0  0  0  0  0  0  0  0  0  0  0  0
    5.5110   -8.0194   -1.3853 H   0  0  0  0  0  0  0  0  0  0  0  0
    4.6568  -10.1443   -2.3403 H   0  0  0  0  0  0  0  0  0  0  0  0
    2.2910  -10.3046   -3.1225 H   0  0  0  0  0  0  0  0  0  0  0  0
    0.7930   -8.3177   -2.9365 H   0  0  0  0  0  0  0  0  0  0  0  0
    1.6571   -6.1886   -1.9659 H   0  0  0  0  0  0  0  0  0  0  0  0
    1.6988   -2.4471   -0.2819 H   0  0  0  0  0  0  0  0  0  0  0  0
    2.1811   -2.5071   -1.9924 H   0  0  0  0  0  0  0  0  0  0  0  0
  1  2  2  0
  2  3  1  0
  2 11  1  0
  3  4  1  0
  3 24  1  0
  4  5  1  0
  4 25  1  0
  4 26  1  0
  5  6  2  0
  5 10  1  0
  6  7  1  0
  6 27  1  0
  7  8  2  0
  7 28  1  0
  8  9  1  0
  8 29  1  0
  9 10  2  0
  9 30  1  0
 10 31  1  0
 11 12  1  0
 11 23  1  0
 12 13  1  0
 12 32  1  0
 12 33  1  0
 13 14  1  0
 13 34  1  0
 13 35  1  0
 14 15  1  0
 14 23  1  0
 14 36  1  1
 15 16  1  0
 16 17  1  0
 16 37  1  0
 16 38  1  0
 17 18  2  0
 17 22  1  0
 18 19  1  0
 18 39  1  0
 19 20  2  0
 19 40  1  0
 20 21  1  0
 20 41  1  0
 21 22  2  0
 21 42  1  0
 22 43  1  0
 23 44  1  0
 23 45  1  0
M  END

