
     RDKit          3D

 41 45  0  0  0  0  0  0  0  0999 V2000
    0.8084    0.1135   -0.2812 O   0  0  0  0  0  0  0  0  0  0  0  0
    2.0240    0.1260   -0.2258 C   0  0  0  0  0  0  0  0  0  0  0  0
    2.7305    1.3280   -0.2208 N   0  0  0  0  0  0  0  0  0  0  0  0
    2.1685    2.1719   -0.2654 H   0  0  0  0  0  0  0  0  0  0  0  0
    4.1023    1.4336   -0.1604 C   0  0  0  0  0  0  0  0  0  0  0  0
    4.9861    2.4953   -0.1447 C   0  0  0  0  0  0  0  0  0  0  0  0
    6.2737    1.8768   -0.0724 C   0  0  0  0  0  0  0  0  0  0  0  0
    7.5905    2.5387   -0.0267 C   0  0  0  0  0  0  0  0  0  0  0  0
    8.7678    1.7727    0.0670 C   0  0  0  0  0  0  0  0  0  0  0  0
   10.0165    2.3915    0.1108 C   0  0  0  0  0  0  0  0  0  0  0  0
   10.1166    3.7867    0.0620 C   0  0  0  0  0  0  0  0  0  0  0  0
    8.9544    4.5574   -0.0312 C   0  0  0  0  0  0  0  0  0  0  0  0
    7.7028    3.9393   -0.0751 C   0  0  0  0  0  0  0  0  0  0  0  0
    6.1766    0.5478   -0.0470 N   0  0  0  0  0  0  0  0  0  0  0  0
    4.8518    0.2858   -0.1005 N   0  0  0  0  0  0  0  0  0  0  0  0
    4.2897   -0.9918   -0.0987 C   0  0  0  0  0  0  0  0  0  0  0  0
    5.0853   -2.1408   -0.0317 C   0  0  0  0  0  0  0  0  0  0  0  0
    4.4900   -3.4099   -0.0252 C   0  0  0  0  0  0  0  0  0  0  0  0
    5.3292   -4.6357    0.0433 C   0  0  0  0  0  0  0  0  0  0  0  0
    4.8961   -5.7696    0.7567 C   0  0  0  0  0  0  0  0  0  0  0  0
    5.6847   -6.9197    0.8239 C   0  0  0  0  0  0  0  0  0  0  0  0
    6.9224   -6.9638    0.1754 C   0  0  0  0  0  0  0  0  0  0  0  0
    7.3655   -5.8464   -0.5389 C   0  0  0  0  0  0  0  0  0  0  0  0
    6.5789   -4.6949   -0.6026 C   0  0  0  0  0  0  0  0  0  0  0  0
    3.0791   -3.4997   -0.0868 C   0  0  0  0  0  0  0  0  0  0  0  0
    2.2944   -2.3566   -0.1519 C   0  0  0  0  0  0  0  0  0  0  0  0
    2.8822   -1.0826   -0.1581 C   0  0  0  0  0  0  0  0  0  0  0  0
    4.7397    3.5520   -0.1781 H   0  0  0  0  0  0  0  0  0  0  0  0
    8.6845    0.6855    0.1055 H   0  0  0  0  0  0  0  0  0  0  0  0
   10.9204    1.7811    0.1842 H   0  0  0  0  0  0  0  0  0  0  0  0
   11.0962    4.2703    0.0967 H   0  0  0  0  0  0  0  0  0  0  0  0
    9.0210    5.6477   -0.0703 H   0  0  0  0  0  0  0  0  0  0  0  0
    6.8056    4.5574   -0.1492 H   0  0  0  0  0  0  0  0  0  0  0  0
    6.1648   -2.0156    0.0386 H   0  0  0  0  0  0  0  0  0  0  0  0
    3.9421   -5.7419    1.2880 H   0  0  0  0  0  0  0  0  0  0  0  0
    5.3327   -7.7843    1.3924 H   0  0  0  0  0  0  0  0  0  0  0  0
    7.5389   -7.8647    0.2263 H   0  0  0  0  0  0  0  0  0  0  0  0
    8.3278   -5.8729   -1.0564 H   0  0  0  0  0  0  0  0  0  0  0  0
    6.9278   -3.8377   -1.1826 H   0  0  0  0  0  0  0  0  0  0  0  0
    2.6024   -4.4812   -0.1102 H   0  0  0  0  0  0  0  0  0  0  0  0
    1.2056   -2.4147   -0.2084 H   0  0  0  0  0  0  0  0  0  0  0  0
  1  2  2  0
  2  3  1  0
  2 27  1  0
  3  4  1  0
  3  5  1  0
  5  6  2  0
  5 15  1  0
  6  7  1  0
  6 28  1  0
  7  8  1  0
  7 14  2  0
  8  9  2  0
  8 13  1  0
  9 10  1  0
  9 29  1  0
 10 11  2  0
 10 30  1  0
 11 12  1  0
 11 31  1  0
 12 13  2  0
 12 32  1  0
 13 33  1  0
 14 15  1  0
 15 16  1  0
 16 17  1  0
 16 27  2  0
 17 18  2  0
 17 34  1  0
 18 19  1  0
 18 25  1  0
 19 20  2  0
 19 24  1  0
 20 21  1  0
 20 35  1  0
 21 22  2  0
 21 36  1  0
 22 23  1  0
 22 37  1  0
 23 24  2  0
 23 38  1  0
 24 39  1  0
 25 26  2  0
 25 40  1  0
 26 27  1  0
 26 41  1  0
M  END

