
     RDKit          3D

 31 32  0  0  0  0  0  0  0  0999 V2000
    1.2435   -1.5744   -3.5902 N   0  0  0  0  0  0  0  0  0  0  0  0
    2.6063   -1.5446   -3.0730 C   0  0  0  0  0  0  0  0  0  0  0  0
    2.9438   -0.1421   -2.5382 C   0  0  0  0  0  0  0  0  0  0  0  0
    4.3428   -0.0243   -1.9816 C   0  0  0  0  0  0  0  0  0  0  0  0
    5.3881    0.5464   -2.7263 C   0  0  0  0  0  0  0  0  0  0  0  0
    6.6887    0.6313   -2.2239 C   0  0  0  0  0  0  0  0  0  0  0  0
    6.9771    0.1327   -0.9501 C   0  0  0  0  0  0  0  0  0  0  0  0
    5.9616   -0.4477   -0.1881 C   0  0  0  0  0  0  0  0  0  0  0  0
    4.6646   -0.5172   -0.7052 C   0  0  0  0  0  0  0  0  0  0  0  0
    3.6682   -1.1578    0.0166 O   0  0  0  0  0  0  0  0  0  0  0  0
    3.2023   -0.6552    1.1885 C   0  0  0  0  0  0  0  0  0  0  0  0
    3.4133    0.6693    1.5934 C   0  0  0  0  0  0  0  0  0  0  0  0
    2.8758    1.1268    2.7924 C   0  0  0  0  0  0  0  0  0  0  0  0
    3.0915    2.3914    3.1543 F   0  0  0  0  0  0  0  0  0  0  0  0
    2.1163    0.2858    3.6123 C   0  0  0  0  0  0  0  0  0  0  0  0
    1.4601    0.8850    5.1069 Cl  0  0  0  0  0  0  0  0  0  0  0  0
    1.8994   -1.0347    3.2092 C   0  0  0  0  0  0  0  0  0  0  0  0
    2.4368   -1.5054    2.0113 C   0  0  0  0  0  0  0  0  0  0  0  0
    2.1321   -3.3060    1.4889 Br  0  0  0  0  0  0  0  0  0  0  0  0
    0.9615   -2.5309   -3.8021 H   0  0  0  0  0  0  0  0  0  0  0  0
    1.1823   -1.0583   -4.4691 H   0  0  0  0  0  0  0  0  0  0  0  0
    3.3861   -1.8407   -3.8086 H   0  0  0  0  0  0  0  0  0  0  0  0
    2.6751   -2.2622   -2.2399 H   0  0  0  0  0  0  0  0  0  0  0  0
    2.1949    0.1110   -1.7718 H   0  0  0  0  0  0  0  0  0  0  0  0
    2.8230    0.5903   -3.3546 H   0  0  0  0  0  0  0  0  0  0  0  0
    5.1671    0.9389   -3.7229 H   0  0  0  0  0  0  0  0  0  0  0  0
    7.4778    1.0857   -2.8278 H   0  0  0  0  0  0  0  0  0  0  0  0
    7.9924    0.1877   -0.5501 H   0  0  0  0  0  0  0  0  0  0  0  0
    6.1643   -0.8564    0.8041 H   0  0  0  0  0  0  0  0  0  0  0  0
    3.9942    1.3585    0.9801 H   0  0  0  0  0  0  0  0  0  0  0  0
    1.3088   -1.6975    3.8416 H   0  0  0  0  0  0  0  0  0  0  0  0
  1  2  1  0
  1 20  1  0
  1 21  1  0
  2  3  1  0
  2 22  1  0
  2 23  1  0
  3  4  1  0
  3 24  1  0
  3 25  1  0
  4  5  2  0
  4  9  1  0
  5  6  1  0
  5 26  1  0
  6  7  2  0
  6 27  1  0
  7  8  1  0
  7 28  1  0
  8  9  2  0
  8 29  1  0
  9 10  1  0
 10 11  1  0
 11 12  2  0
 11 18  1  0
 12 13  1  0
 12 30  1  0
 13 14  1  0
 13 15  2  0
 15 16  1  0
 15 17  1  0
 17 18  2  0
 17 31  1  0
 18 19  1  0
M  END

