
     RDKit          3D

 38 40  0  0  0  0  0  0  0  0999 V2000
    0.8387   -0.0603    0.0919 C   0  0  0  0  0  0  0  0  0  0  0  0
   -0.3724   -0.0205   -0.0030 C   0  0  0  0  0  0  0  0  0  0  0  0
   -1.8479    0.0247   -0.0489 C   0  0  1  0  0  0  0  0  0  0  0  0
   -2.3096    1.2932    0.5499 C   0  0  0  0  0  0  0  0  0  0  0  0
   -2.6663    2.3222    1.0897 C   0  0  0  0  0  0  0  0  0  0  0  0
   -3.0880    3.5311    1.7200 C   0  0  0  0  0  0  0  0  0  0  0  0
   -3.9066    3.5872    2.9053 C   0  0  0  0  0  0  0  0  0  0  0  0
   -4.1706    4.8675    3.3077 C   0  0  0  0  0  0  0  0  0  0  0  0
   -3.4342    6.0335    2.2594 S   0  0  0  0  0  0  0  0  0  0  0  0
   -2.7607    4.7977    1.2663 C   0  0  0  0  0  0  0  0  0  0  0  0
   -2.3622   -0.1571   -1.4205 N   0  0  0  0  0  0  0  0  0  0  0  0
   -1.8707   -1.3538   -2.1065 C   0  0  0  0  0  0  0  0  0  0  0  0
   -2.5591   -2.6576   -1.6643 C   0  0  0  0  0  0  0  0  0  0  0  0
   -4.0841   -2.5382   -1.7933 C   0  0  0  0  0  0  0  0  0  0  0  0
   -4.5946   -1.2762   -1.0839 C   0  0  0  0  0  0  0  0  0  0  0  0
   -3.8153   -0.0342   -1.5525 C   0  0  0  0  0  0  0  0  0  0  0  0
    2.2627   -0.0866    0.1831 C   0  0  0  0  0  0  0  0  0  0  0  0
    3.1329    0.8501   -0.4830 C   0  0  0  0  0  0  0  0  0  0  0  0
    4.4568    0.6125   -0.2352 C   0  0  0  0  0  0  0  0  0  0  0  0
    4.6791   -0.7502    0.8113 S   0  0  0  0  0  0  0  0  0  0  0  0
    2.9800   -1.0121    0.9218 C   0  0  0  0  0  0  0  0  0  0  0  0
   -2.1974   -0.7809    0.6406 H   0  0  0  0  0  0  0  0  0  0  0  0
   -4.2713    2.6981    3.4205 H   0  0  0  0  0  0  0  0  0  0  0  0
   -4.7581    5.1954    4.1641 H   0  0  0  0  0  0  0  0  0  0  0  0
   -2.1558    5.0477    0.3967 H   0  0  0  0  0  0  0  0  0  0  0  0
   -0.7810   -1.4204   -1.9745 H   0  0  0  0  0  0  0  0  0  0  0  0
   -2.0499   -1.2041   -3.1874 H   0  0  0  0  0  0  0  0  0  0  0  0
   -2.2896   -2.8866   -0.6171 H   0  0  0  0  0  0  0  0  0  0  0  0
   -2.1797   -3.4989   -2.2692 H   0  0  0  0  0  0  0  0  0  0  0  0
   -4.5833   -3.4394   -1.3991 H   0  0  0  0  0  0  0  0  0  0  0  0
   -4.3503   -2.4799   -2.8656 H   0  0  0  0  0  0  0  0  0  0  0  0
   -4.4885   -1.3938    0.0100 H   0  0  0  0  0  0  0  0  0  0  0  0
   -5.6718   -1.1293   -1.2732 H   0  0  0  0  0  0  0  0  0  0  0  0
   -4.1492    0.8652   -1.0151 H   0  0  0  0  0  0  0  0  0  0  0  0
   -4.0298    0.1390   -2.6233 H   0  0  0  0  0  0  0  0  0  0  0  0
    2.7644    1.6589   -1.1146 H   0  0  0  0  0  0  0  0  0  0  0  0
    5.3198    1.1624   -0.6079 H   0  0  0  0  0  0  0  0  0  0  0  0
    2.5800   -1.8277    1.5215 H   0  0  0  0  0  0  0  0  0  0  0  0
  1  2  3  0
  1 17  1  0
  2  3  1  0
  3  4  1  0
  3 11  1  0
  3 22  1  1
  4  5  3  0
  5  6  1  0
  6  7  1  0
  6 10  2  0
  7  8  2  0
  7 23  1  0
  8  9  1  0
  8 24  1  0
  9 10  1  0
 10 25  1  0
 11 12  1  0
 11 16  1  0
 12 13  1  0
 12 26  1  0
 12 27  1  0
 13 14  1  0
 13 28  1  0
 13 29  1  0
 14 15  1  0
 14 30  1  0
 14 31  1  0
 15 16  1  0
 15 32  1  0
 15 33  1  0
 16 34  1  0
 16 35  1  0
 17 18  1  0
 17 21  2  0
 18 19  2  0
 18 36  1  0
 19 20  1  0
 19 37  1  0
 20 21  1  0
 21 38  1  0
M  END

