
     RDKit          3D

 35 37  0  0  0  0  0  0  0  0999 V2000
    1.0484   -0.0729    0.5108 O   0  0  0  0  0  0  0  0  0  0  0  0
    2.0863    0.3146   -0.0088 C   0  0  0  0  0  0  0  0  0  0  0  0
    2.6844    1.4957    0.3315 N   0  0  0  0  0  0  0  0  0  0  0  0
    2.1892    2.3470    1.3923 C   0  0  0  0  0  0  0  0  0  0  0  0
    3.2757    2.6093    2.4321 C   0  0  1  0  0  0  0  0  0  0  0  0
    4.4298    3.1527    1.7933 O   0  0  0  0  0  0  0  0  0  0  0  0
    2.8687    3.3954    3.7105 C   0  0  0  0  0  0  0  0  0  0  0  0
    3.6496    2.3640    4.5668 C   0  0  0  0  0  0  0  0  0  0  0  0
    3.7298    1.4307    3.3301 C   0  0  0  0  0  0  0  0  0  0  0  0
    2.7818   -0.4992   -1.0729 C   0  0  0  0  0  0  0  0  0  0  0  0
    3.7967    0.0195   -1.9286 C   0  0  0  0  0  0  0  0  0  0  0  0
    4.3931   -0.7737   -2.8839 C   0  0  0  0  0  0  0  0  0  0  0  0
    4.0092   -2.1343   -3.0413 C   0  0  0  0  0  0  0  0  0  0  0  0
    4.6249   -2.8882   -3.9938 N   0  0  0  0  0  0  0  0  0  0  0  0
    4.2528   -4.1418   -4.1295 C   0  0  0  0  0  0  0  0  0  0  0  0
    3.2442   -4.7634   -3.3437 C   0  0  0  0  0  0  0  0  0  0  0  0
    2.6086   -4.0193   -2.3755 C   0  0  0  0  0  0  0  0  0  0  0  0
    2.9791   -2.6590   -2.1917 C   0  0  0  0  0  0  0  0  0  0  0  0
    2.3807   -1.8155   -1.2219 C   0  0  0  0  0  0  0  0  0  0  0  0
    3.6250    1.6985    0.0130 H   0  0  0  0  0  0  0  0  0  0  0  0
    1.3158    1.8508    1.8369 H   0  0  0  0  0  0  0  0  0  0  0  0
    1.8435    3.3190    0.9840 H   0  0  0  0  0  0  0  0  0  0  0  0
    4.2177    4.0550    1.5132 H   0  0  0  0  0  0  0  0  0  0  0  0
    1.7824    3.3690    3.8896 H   0  0  0  0  0  0  0  0  0  0  0  0
    3.2072    4.4432    3.7488 H   0  0  0  0  0  0  0  0  0  0  0  0
    3.1293    1.9684    5.4513 H   0  0  0  0  0  0  0  0  0  0  0  0
    4.6362    2.7363    4.8782 H   0  0  0  0  0  0  0  0  0  0  0  0
    2.9910    0.6160    3.3512 H   0  0  0  0  0  0  0  0  0  0  0  0
    4.7165    1.0190    3.0748 H   0  0  0  0  0  0  0  0  0  0  0  0
    4.0953    1.0678   -1.8544 H   0  0  0  0  0  0  0  0  0  0  0  0
    5.1662   -0.3868   -3.5504 H   0  0  0  0  0  0  0  0  0  0  0  0
    4.7656   -4.7268   -4.9039 H   0  0  0  0  0  0  0  0  0  0  0  0
    2.9890   -5.8113   -3.5167 H   0  0  0  0  0  0  0  0  0  0  0  0
    1.8260   -4.4533   -1.7469 H   0  0  0  0  0  0  0  0  0  0  0  0
    1.5870   -2.1933   -0.5735 H   0  0  0  0  0  0  0  0  0  0  0  0
  1  2  2  0
  2  3  1  0
  2 10  1  0
  3  4  1  0
  3 20  1  0
  4  5  1  0
  4 21  1  0
  4 22  1  0
  5  6  1  6
  5  7  1  0
  5  9  1  0
  6 23  1  0
  7  8  1  0
  7 24  1  0
  7 25  1  0
  8  9  1  0
  8 26  1  0
  8 27  1  0
  9 28  1  0
  9 29  1  0
 10 11  2  0
 10 19  1  0
 11 12  1  0
 11 30  1  0
 12 13  2  0
 12 31  1  0
 13 14  1  0
 13 18  1  0
 14 15  2  0
 15 16  1  0
 15 32  1  0
 16 17  2  0
 16 33  1  0
 17 18  1  0
 17 34  1  0
 18 19  2  0
 19 35  1  0
M  END

