
     RDKit          3D

 59 63  0  0  0  0  0  0  0  0999 V2000
    1.2017    2.0706    1.4179 Cl  0  0  0  0  0  0  0  0  0  0  0  0
    2.7959    1.6188    0.8596 C   0  0  0  0  0  0  0  0  0  0  0  0
    3.4257    0.4909    1.3963 C   0  0  0  0  0  0  0  0  0  0  0  0
    4.6938    0.1281    0.9466 C   0  0  0  0  0  0  0  0  0  0  0  0
    5.3626    0.8782   -0.0432 C   0  0  0  0  0  0  0  0  0  0  0  0
    6.7175    0.5732   -0.5352 C   0  0  0  0  0  0  0  0  0  0  0  0
    7.4023   -0.5947   -0.5746 C   0  0  0  0  0  0  0  0  0  0  0  0
    8.8495   -0.5682   -1.0087 C   0  0  0  0  0  0  0  0  0  0  0  0
    9.0056   -1.4025   -2.1451 O   0  0  0  0  0  0  0  0  0  0  0  0
   10.2449   -1.6106   -2.6623 C   0  0  0  0  0  0  0  0  0  0  0  0
   11.4174   -1.0005   -2.1892 C   0  0  0  0  0  0  0  0  0  0  0  0
   12.6430   -1.2875   -2.8048 C   0  0  0  0  0  0  0  0  0  0  0  0
   12.7163   -2.1694   -3.8827 C   0  0  0  0  0  0  0  0  0  0  0  0
   11.5412   -2.7735   -4.3511 C   0  0  0  0  0  0  0  0  0  0  0  0
   10.3160   -2.5002   -3.7498 C   0  0  0  0  0  0  0  0  0  0  0  0
    6.8462   -1.9397   -0.2579 C   0  0  0  0  0  0  0  0  0  0  0  0
    5.7002   -2.4216   -0.9227 C   0  0  0  0  0  0  0  0  0  0  0  0
    5.1898   -3.6862   -0.6595 C   0  0  0  0  0  0  0  0  0  0  0  0
    5.8128   -4.5216    0.2847 C   0  0  0  0  0  0  0  0  0  0  0  0
    5.2427   -5.7388    0.4794 O   0  0  0  0  0  0  0  0  0  0  0  0
    5.8174   -6.6400    1.4011 C   0  0  0  0  0  0  0  0  0  0  0  0
    5.0190   -7.9264    1.4485 C   0  0  0  0  0  0  0  0  0  0  0  0
    3.8870   -8.1376    0.6135 C   0  0  0  0  0  0  0  0  0  0  0  0
    3.2132   -9.3347    0.7101 C   0  0  0  0  0  0  0  0  0  0  0  0
    3.6559  -10.3224    1.6289 C   0  0  0  0  0  0  0  0  0  0  0  0
    3.0213  -11.5844    1.7943 C   0  0  0  0  0  0  0  0  0  0  0  0
    3.5068  -12.4967    2.7074 C   0  0  0  0  0  0  0  0  0  0  0  0
    4.6473  -12.1856    3.4936 C   0  0  0  0  0  0  0  0  0  0  0  0
    5.2844  -10.9706    3.3565 C   0  0  0  0  0  0  0  0  0  0  0  0
    4.8084  -10.0070    2.4231 C   0  0  0  0  0  0  0  0  0  0  0  0
    5.4581   -8.8179    2.3118 N   0  0  0  0  0  0  0  0  0  0  0  0
    6.9599   -4.0663    0.9506 C   0  0  0  0  0  0  0  0  0  0  0  0
    7.4652   -2.7926    0.6675 C   0  0  0  0  0  0  0  0  0  0  0  0
    4.7100    2.0233   -0.5440 C   0  0  0  0  0  0  0  0  0  0  0  0
    3.4369    2.3926   -0.1111 C   0  0  0  0  0  0  0  0  0  0  0  0
    2.9221   -0.0946    2.1675 H   0  0  0  0  0  0  0  0  0  0  0  0
    5.1772   -0.7454    1.3842 H   0  0  0  0  0  0  0  0  0  0  0  0
    7.2470    1.4522   -0.9214 H   0  0  0  0  0  0  0  0  0  0  0  0
    9.4989   -0.9350   -0.1889 H   0  0  0  0  0  0  0  0  0  0  0  0
    9.1633    0.4660   -1.2378 H   0  0  0  0  0  0  0  0  0  0  0  0
   11.3910   -0.3030   -1.3518 H   0  0  0  0  0  0  0  0  0  0  0  0
   13.5502   -0.8067   -2.4287 H   0  0  0  0  0  0  0  0  0  0  0  0
   13.6766   -2.3863   -4.3560 H   0  0  0  0  0  0  0  0  0  0  0  0
   11.5814   -3.4675   -5.1950 H   0  0  0  0  0  0  0  0  0  0  0  0
    9.3907   -2.9628   -4.0992 H   0  0  0  0  0  0  0  0  0  0  0  0
    5.2102   -1.7892   -1.6661 H   0  0  0  0  0  0  0  0  0  0  0  0
    4.3057   -4.0574   -1.1817 H   0  0  0  0  0  0  0  0  0  0  0  0
    5.8467   -6.2051    2.4176 H   0  0  0  0  0  0  0  0  0  0  0  0
    6.8607   -6.8800    1.1221 H   0  0  0  0  0  0  0  0  0  0  0  0
    3.5776   -7.3558   -0.0791 H   0  0  0  0  0  0  0  0  0  0  0  0
    2.3378   -9.5352    0.0855 H   0  0  0  0  0  0  0  0  0  0  0  0
    2.1431  -11.8186    1.1860 H   0  0  0  0  0  0  0  0  0  0  0  0
    3.0147  -13.4648    2.8297 H   0  0  0  0  0  0  0  0  0  0  0  0
    5.0201  -12.9194    4.2129 H   0  0  0  0  0  0  0  0  0  0  0  0
    6.1628  -10.7086    3.9497 H   0  0  0  0  0  0  0  0  0  0  0  0
    7.4698   -4.6889    1.6855 H   0  0  0  0  0  0  0  0  0  0  0  0
    8.3597   -2.4597    1.2003 H   0  0  0  0  0  0  0  0  0  0  0  0
    5.2116    2.6370   -1.2974 H   0  0  0  0  0  0  0  0  0  0  0  0
    2.9425    3.2770   -0.5163 H   0  0  0  0  0  0  0  0  0  0  0  0
  1  2  1  0
  2  3  2  0
  2 35  1  0
  3  4  1  0
  3 36  1  0
  4  5  2  0
  4 37  1  0
  5  6  1  0
  5 34  1  0
  6  7  2  0
  6 38  1  0
  7  8  1  0
  7 16  1  0
  8  9  1  0
  8 39  1  0
  8 40  1  0
  9 10  1  0
 10 11  2  0
 10 15  1  0
 11 12  1  0
 11 41  1  0
 12 13  2  0
 12 42  1  0
 13 14  1  0
 13 43  1  0
 14 15  2  0
 14 44  1  0
 15 45  1  0
 16 17  2  0
 16 33  1  0
 17 18  1  0
 17 46  1  0
 18 19  2  0
 18 47  1  0
 19 20  1  0
 19 32  1  0
 20 21  1  0
 21 22  1  0
 21 48  1  0
 21 49  1  0
 22 23  2  0
 22 31  1  0
 23 24  1  0
 23 50  1  0
 24 25  2  0
 24 51  1  0
 25 26  1  0
 25 30  1  0
 26 27  2  0
 26 52  1  0
 27 28  1  0
 27 53  1  0
 28 29  2  0
 28 54  1  0
 29 30  1  0
 29 55  1  0
 30 31  2  0
 32 33  2  0
 32 56  1  0
 33 57  1  0
 34 35  2  0
 34 58  1  0
 35 59  1  0
M  END

