
     RDKit          3D

 36 39  0  0  0  0  0  0  0  0999 V2000
    1.2590    0.5666    0.0951 C   0  0  0  0  0  0  0  0  0  0  0  0
    2.7321    0.3618   -0.1363 C   0  0  0  0  0  0  0  0  0  0  0  0
    3.6181    1.4431   -0.4407 C   0  0  0  0  0  0  0  0  0  0  0  0
    4.9222    1.0614   -0.6153 C   0  0  0  0  0  0  0  0  0  0  0  0
    5.1118   -0.6423   -0.4237 S   0  0  0  0  0  0  0  0  0  0  0  0
    3.4027   -0.8584   -0.0809 C   0  0  0  0  0  0  0  0  0  0  0  0
    2.9210   -2.1971    0.2084 C   0  0  0  0  0  0  0  0  0  0  0  0
    3.6711   -3.3182    0.5319 C   0  0  0  0  0  0  0  0  0  0  0  0
    2.9020   -4.4890    0.7275 C   0  0  0  0  0  0  0  0  0  0  0  0
    1.5403   -4.2949    0.5611 C   0  0  0  0  0  0  0  0  0  0  0  0
    0.4572   -5.2450    0.6942 C   0  0  0  0  0  0  0  0  0  0  0  0
   -0.9100   -5.0205    0.7005 C   0  0  0  0  0  0  0  0  0  0  0  0
   -1.6781   -6.1959    0.8699 C   0  0  0  0  0  0  0  0  0  0  0  0
   -0.9217   -7.3519    0.9957 C   0  0  0  0  0  0  0  0  0  0  0  0
   -1.3991   -8.7139    1.1528 C   0  0  0  0  0  0  0  0  0  0  0  0
   -3.0874   -9.0520    0.8054 S   0  0  0  0  0  0  0  0  0  0  0  0
   -2.9037  -10.7170    1.2169 C   0  0  0  0  0  0  0  0  0  0  0  0
   -1.6159  -11.0025    1.5871 C   0  0  0  0  0  0  0  0  0  0  0  0
   -0.7386   -9.8728    1.5560 C   0  0  0  0  0  0  0  0  0  0  0  0
    0.7163   -9.9707    1.9289 C   0  0  0  0  0  0  0  0  0  0  0  0
    0.7848   -6.9529    0.8887 S   0  0  0  0  0  0  0  0  0  0  0  0
    1.2199   -2.6267    0.1407 S   0  0  0  0  0  0  0  0  0  0  0  0
    1.0302    1.6382    0.1911 H   0  0  0  0  0  0  0  0  0  0  0  0
    0.9100    0.0631    1.0108 H   0  0  0  0  0  0  0  0  0  0  0  0
    0.6521    0.1741   -0.7389 H   0  0  0  0  0  0  0  0  0  0  0  0
    3.2819    2.4788   -0.5204 H   0  0  0  0  0  0  0  0  0  0  0  0
    5.7831    1.6862   -0.8487 H   0  0  0  0  0  0  0  0  0  0  0  0
    4.7563   -3.2876    0.6398 H   0  0  0  0  0  0  0  0  0  0  0  0
    3.3324   -5.4528    1.0042 H   0  0  0  0  0  0  0  0  0  0  0  0
   -1.3462   -4.0249    0.6046 H   0  0  0  0  0  0  0  0  0  0  0  0
   -2.7682   -6.1995    0.9152 H   0  0  0  0  0  0  0  0  0  0  0  0
   -3.7556  -11.3930    1.1603 H   0  0  0  0  0  0  0  0  0  0  0  0
   -1.2859  -11.9996    1.8849 H   0  0  0  0  0  0  0  0  0  0  0  0
    0.9289  -10.9437    2.3958 H   0  0  0  0  0  0  0  0  0  0  0  0
    1.0156   -9.1829    2.6386 H   0  0  0  0  0  0  0  0  0  0  0  0
    1.3750   -9.8774    1.0484 H   0  0  0  0  0  0  0  0  0  0  0  0
  1  2  1  0
  1 23  1  0
  1 24  1  0
  1 25  1  0
  2  3  1  0
  2  6  2  0
  3  4  2  0
  3 26  1  0
  4  5  1  0
  4 27  1  0
  5  6  1  0
  6  7  1  0
  7  8  2  0
  7 22  1  0
  8  9  1  0
  8 28  1  0
  9 10  2  0
  9 29  1  0
 10 11  1  0
 10 22  1  0
 11 12  2  0
 11 21  1  0
 12 13  1  0
 12 30  1  0
 13 14  2  0
 13 31  1  0
 14 15  1  0
 14 21  1  0
 15 16  1  0
 15 19  2  0
 16 17  1  0
 17 18  2  0
 17 32  1  0
 18 19  1  0
 18 33  1  0
 19 20  1  0
 20 34  1  0
 20 35  1  0
 20 36  1  0
M  END

