
     RDKit          3D

 56 59  0  0  0  0  0  0  0  0999 V2000
    2.8371    1.6413    0.2367 C   0  0  0  0  0  0  0  0  0  0  0  0
    2.3819    0.3124    0.0995 O   0  0  0  0  0  0  0  0  0  0  0  0
    2.8045   -0.4284   -0.9552 C   0  0  0  0  0  0  0  0  0  0  0  0
    3.7096    0.0130   -1.9284 C   0  0  0  0  0  0  0  0  0  0  0  0
    4.0625   -0.8010   -3.0081 C   0  0  0  0  0  0  0  0  0  0  0  0
    3.5295   -2.0937   -3.1447 C   0  0  0  0  0  0  0  0  0  0  0  0
    3.9101   -3.0038   -4.2511 C   0  0  0  0  0  0  0  0  0  0  0  0
    3.9294   -4.3641   -4.1017 C   0  0  0  0  0  0  0  0  0  0  0  0
    4.2483   -5.2587   -5.1781 C   0  0  0  0  0  0  0  0  0  0  0  0
    4.2772   -6.6618   -5.0732 C   0  0  0  0  0  0  0  0  0  0  0  0
    4.5931   -7.4661   -6.1633 C   0  0  0  0  0  0  0  0  0  0  0  0
    4.8937   -6.8646   -7.4030 C   0  0  0  0  0  0  0  0  0  0  0  0
    5.2129   -7.5667   -8.5230 O   0  0  0  0  0  0  0  0  0  0  0  0
    5.2593   -8.9809   -8.4939 C   0  0  0  0  0  0  0  0  0  0  0  0
    5.6402   -9.5592   -9.8607 C   0  0  0  0  0  0  0  0  0  0  0  0
    5.7198  -10.7684   -9.9800 O   0  0  0  0  0  0  0  0  0  0  0  0
    5.8572   -8.6291  -10.8318 N   0  0  0  0  0  0  0  0  0  0  0  0
    6.2193   -8.8239  -12.1802 C   0  0  0  0  0  0  0  0  0  0  0  0
    6.4208  -10.0906  -12.7504 C   0  0  0  0  0  0  0  0  0  0  0  0
    6.7798  -10.1904  -14.0975 C   0  0  0  0  0  0  0  0  0  0  0  0
    6.9486   -9.0631  -14.9129 C   0  0  0  0  0  0  0  0  0  0  0  0
    7.3281   -9.1848  -16.3688 C   0  0  0  0  0  0  0  0  0  0  0  0
    6.7435   -7.8039  -14.3239 C   0  0  0  0  0  0  0  0  0  0  0  0
    6.3855   -7.6818  -12.9842 C   0  0  0  0  0  0  0  0  0  0  0  0
    4.8764   -5.4708   -7.5369 C   0  0  0  0  0  0  0  0  0  0  0  0
    4.5575   -4.6866   -6.4313 C   0  0  0  0  0  0  0  0  0  0  0  0
    4.5548   -3.3417   -6.5844 O   0  0  0  0  0  0  0  0  0  0  0  0
    4.2655   -2.4326   -5.5718 C   0  0  0  0  0  0  0  0  0  0  0  0
    4.3310   -1.2669   -5.8607 O   0  0  0  0  0  0  0  0  0  0  0  0
    2.6224   -2.5297   -2.1551 C   0  0  0  0  0  0  0  0  0  0  0  0
    2.2577   -1.7318   -1.0752 C   0  0  0  0  0  0  0  0  0  0  0  0
    1.3158   -2.2020   -0.2054 O   0  0  0  0  0  0  0  0  0  0  0  0
    1.7083   -2.4025    1.1441 C   0  0  0  0  0  0  0  0  0  0  0  0
    2.3495    2.0469    1.1332 H   0  0  0  0  0  0  0  0  0  0  0  0
    2.5583    2.2596   -0.6348 H   0  0  0  0  0  0  0  0  0  0  0  0
    3.9326    1.6893    0.3716 H   0  0  0  0  0  0  0  0  0  0  0  0
    4.1430    1.0110   -1.8617 H   0  0  0  0  0  0  0  0  0  0  0  0
    4.7550   -0.4186   -3.7551 H   0  0  0  0  0  0  0  0  0  0  0  0
    3.7072   -4.8022   -3.1256 H   0  0  0  0  0  0  0  0  0  0  0  0
    4.0432   -7.1257   -4.1115 H   0  0  0  0  0  0  0  0  0  0  0  0
    4.6043   -8.5490   -6.0468 H   0  0  0  0  0  0  0  0  0  0  0  0
    4.2803   -9.4109   -8.2177 H   0  0  0  0  0  0  0  0  0  0  0  0
    6.0054   -9.3450   -7.7656 H   0  0  0  0  0  0  0  0  0  0  0  0
    5.7396   -7.6665  -10.5309 H   0  0  0  0  0  0  0  0  0  0  0  0
    6.2959  -10.9795  -12.1360 H   0  0  0  0  0  0  0  0  0  0  0  0
    6.9333  -11.1861  -14.5237 H   0  0  0  0  0  0  0  0  0  0  0  0
    7.5320  -10.2295  -16.6463 H   0  0  0  0  0  0  0  0  0  0  0  0
    8.2285   -8.5926  -16.6024 H   0  0  0  0  0  0  0  0  0  0  0  0
    6.5226   -8.8163  -17.0270 H   0  0  0  0  0  0  0  0  0  0  0  0
    6.8666   -6.8983  -14.9252 H   0  0  0  0  0  0  0  0  0  0  0  0
    6.2327   -6.6883  -12.5514 H   0  0  0  0  0  0  0  0  0  0  0  0
    5.1104   -4.9998   -8.4917 H   0  0  0  0  0  0  0  0  0  0  0  0
    2.1392   -3.5061   -2.2210 H   0  0  0  0  0  0  0  0  0  0  0  0
    0.8437   -2.8438    1.6599 H   0  0  0  0  0  0  0  0  0  0  0  0
    1.9811   -1.4574    1.6386 H   0  0  0  0  0  0  0  0  0  0  0  0
    2.5594   -3.1055    1.2115 H   0  0  0  0  0  0  0  0  0  0  0  0
  1  2  1  0
  1 34  1  0
  1 35  1  0
  1 36  1  0
  2  3  1  0
  3  4  2  0
  3 31  1  0
  4  5  1  0
  4 37  1  0
  5  6  2  0
  5 38  1  0
  6  7  1  0
  6 30  1  0
  7  8  2  0
  7 28  1  0
  8  9  1  0
  8 39  1  0
  9 10  2  0
  9 26  1  0
 10 11  1  0
 10 40  1  0
 11 12  2  0
 11 41  1  0
 12 13  1  0
 12 25  1  0
 13 14  1  0
 14 15  1  0
 14 42  1  0
 14 43  1  0
 15 16  2  0
 15 17  1  0
 17 18  1  0
 17 44  1  0
 18 19  2  0
 18 24  1  0
 19 20  1  0
 19 45  1  0
 20 21  2  0
 20 46  1  0
 21 22  1  0
 21 23  1  0
 22 47  1  0
 22 48  1  0
 22 49  1  0
 23 24  2  0
 23 50  1  0
 24 51  1  0
 25 26  2  0
 25 52  1  0
 26 27  1  0
 27 28  1  0
 28 29  2  0
 30 31  2  0
 30 53  1  0
 31 32  1  0
 32 33  1  0
 33 54  1  0
 33 55  1  0
 33 56  1  0
M  END

