
     RDKit          3D

 22 22  0  0  0  0  0  0  0  0999 V2000
    1.4095   -0.2487    0.7773 O   0  0  0  0  0  0  0  0  0  0  0  0
    2.4147   -0.0449    0.1495 C   0  0  0  0  0  0  0  0  0  0  0  0
    3.0162    1.1658    0.1987 O   0  0  0  0  0  0  0  0  0  0  0  0
    3.0695   -1.0892   -0.7105 C   0  0  0  0  0  0  0  0  0  0  0  0
    4.0070   -0.7943   -1.7155 C   0  0  0  0  0  0  0  0  0  0  0  0
    4.5681   -1.8078   -2.4875 C   0  0  0  0  0  0  0  0  0  0  0  0
    4.1879   -3.1361   -2.2634 C   0  0  0  0  0  0  0  0  0  0  0  0
    4.7870   -4.0773   -3.0665 O   0  0  0  0  0  0  0  0  0  0  0  0
    4.8176   -5.3912   -2.6692 C   0  0  1  0  0  0  0  0  0  0  0  0
    3.6175   -6.0131   -2.8905 F   0  0  0  0  0  0  0  0  0  0  0  0
    5.8870   -6.1075   -3.5080 C   0  0  1  0  0  0  0  0  0  0  0  0
    5.6337   -6.0147   -4.8111 F   0  0  0  0  0  0  0  0  0  0  0  0
    7.0874   -5.5709   -3.2623 F   0  0  0  0  0  0  0  0  0  0  0  0
    5.9266   -7.4002   -3.1695 F   0  0  0  0  0  0  0  0  0  0  0  0
    3.2314   -3.4503   -1.2884 C   0  0  0  0  0  0  0  0  0  0  0  0
    2.6815   -2.4237   -0.5224 C   0  0  0  0  0  0  0  0  0  0  0  0
    3.8798    1.1382   -0.2352 H   0  0  0  0  0  0  0  0  0  0  0  0
    4.2981    0.2384   -1.9298 H   0  0  0  0  0  0  0  0  0  0  0  0
    5.2976   -1.5928   -3.2700 H   0  0  0  0  0  0  0  0  0  0  0  0
    5.0645   -5.4969   -1.5969 H   0  0  0  0  0  0  0  0  0  0  0  0
    2.8913   -4.4771   -1.1512 H   0  0  0  0  0  0  0  0  0  0  0  0
    1.9249   -2.6399    0.2340 H   0  0  0  0  0  0  0  0  0  0  0  0
  1  2  2  0
  2  3  1  0
  2  4  1  0
  3 17  1  0
  4  5  2  0
  4 16  1  0
  5  6  1  0
  5 18  1  0
  6  7  2  0
  6 19  1  0
  7  8  1  0
  7 15  1  0
  8  9  1  0
  9 10  1  0
  9 11  1  0
  9 20  1  1
 11 12  1  6
 11 13  1  0
 11 14  1  0
 15 16  2  0
 15 21  1  0
 16 22  1  0
M  END

