
     RDKit          3D

 23 22  0  0  0  0  0  0  0  0999 V2000
    0.9397   -0.1634   -0.0353 C   0  0  0  0  0  0  0  0  0  0  0  0
    2.8260   -0.1104   -0.0019 Si  0  0  1  0  0  4  0  0  0  0  0  0
    3.4611    1.4505   -0.8525 C   0  0  0  0  0  0  0  0  0  0  0  0
    3.4627   -0.2046    1.7718 C   0  0  0  0  0  0  0  0  0  0  0  0
    3.4648   -1.5817   -0.9344 C   0  0  0  0  0  0  0  0  0  0  0  0
    3.8886   -2.5515   -1.5433 C   0  0  0  0  0  0  0  0  0  0  0  0
    4.4097   -3.7052   -2.3007 C   0  0  1  0  0  0  0  0  0  0  0  0
    3.8748   -3.7499   -3.2718 H   0  0  0  0  0  0  0  0  0  0  0  0
    5.8071   -3.6310   -2.4928 O   0  0  0  0  0  0  0  0  0  0  0  0
    4.1062   -4.9931   -1.5365 C   0  0  0  0  0  0  0  0  0  0  0  0
    4.5382   -6.5978   -2.5802 Br  0  0  0  0  0  0  0  0  0  0  0  0
    0.5169    0.6987    0.5073 H   0  0  0  0  0  0  0  0  0  0  0  0
    0.5589   -1.0822    0.4392 H   0  0  0  0  0  0  0  0  0  0  0  0
    0.5589   -0.1340   -1.0689 H   0  0  0  0  0  0  0  0  0  0  0  0
    3.0993    2.3522   -0.3305 H   0  0  0  0  0  0  0  0  0  0  0  0
    3.1166    1.5026   -1.8979 H   0  0  0  0  0  0  0  0  0  0  0  0
    4.5626    1.4809   -0.8568 H   0  0  0  0  0  0  0  0  0  0  0  0
    3.1035    0.6558    2.3611 H   0  0  0  0  0  0  0  0  0  0  0  0
    4.5642   -0.1991    1.7989 H   0  0  0  0  0  0  0  0  0  0  0  0
    3.1175   -1.1250    2.2698 H   0  0  0  0  0  0  0  0  0  0  0  0
    6.0030   -2.8102   -2.9633 H   0  0  0  0  0  0  0  0  0  0  0  0
    3.0407   -5.0579   -1.2893 H   0  0  0  0  0  0  0  0  0  0  0  0
    4.7104   -5.0373   -0.6219 H   0  0  0  0  0  0  0  0  0  0  0  0
  1  2  1  0
  1 12  1  0
  1 13  1  0
  1 14  1  0
  2  3  1  0
  2  4  1  0
  2  5  1  6
  3 15  1  0
  3 16  1  0
  3 17  1  0
  4 18  1  0
  4 19  1  0
  4 20  1  0
  5  6  3  0
  6  7  1  0
  7  8  1  6
  7  9  1  0
  7 10  1  0
  9 21  1  0
 10 11  1  0
 10 22  1  0
 10 23  1  0
M  END

