
     RDKit          3D

 72 78  0  0  0  0  0  0  0  0999 V2000
    6.5153    2.9027   -5.8143 C   0  0  0  0  0  0  0  0  0  0  0  0
    6.5020    1.4574   -6.3328 C   0  0  0  0  0  0  0  0  0  0  0  0
    5.5473    0.5715   -5.5793 C   0  0  0  0  0  0  0  0  0  0  0  0
    5.9077   -0.5089   -4.8757 C   0  0  0  0  0  0  0  0  0  0  0  0
    4.9981   -1.4447   -4.0980 C   0  0  1  0  0  0  0  0  0  0  0  0
    3.5143   -1.0243   -4.1658 C   0  0  0  0  0  0  0  0  0  0  0  0
    5.1189   -2.8749   -4.6065 C   0  0  0  0  0  0  0  0  0  0  0  0
    5.0136   -3.8387   -3.6721 C   0  0  0  0  0  0  0  0  0  0  0  0
    4.9084   -5.2163   -3.8987 N   0  0  0  0  0  0  0  0  0  0  0  0
    5.7057   -6.2146   -3.3145 C   0  0  0  0  0  0  0  0  0  0  0  0
    6.7684   -6.0926   -2.4117 C   0  0  0  0  0  0  0  0  0  0  0  0
    7.4122   -7.2625   -2.0028 C   0  0  0  0  0  0  0  0  0  0  0  0
    7.0148   -8.5239   -2.4815 C   0  0  0  0  0  0  0  0  0  0  0  0
    5.9593   -8.6386   -3.3858 C   0  0  0  0  0  0  0  0  0  0  0  0
    5.2957   -7.4793   -3.8112 C   0  0  0  0  0  0  0  0  0  0  0  0
    4.1970   -7.2396   -4.7285 C   0  0  0  0  0  0  0  0  0  0  0  0
    3.3892   -8.0893   -5.4975 C   0  0  0  0  0  0  0  0  0  0  0  0
    2.3839   -7.5165   -6.2762 C   0  0  0  0  0  0  0  0  0  0  0  0
    2.1775   -6.1111   -6.2892 C   0  0  0  0  0  0  0  0  0  0  0  0
    2.9722   -5.2534   -5.5366 C   0  0  0  0  0  0  0  0  0  0  0  0
    3.9858   -5.8340   -4.7606 C   0  0  0  0  0  0  0  0  0  0  0  0
    1.0129   -5.7417   -7.2118 C   0  0  1  0  0  0  0  0  0  0  0  0
   -0.1287   -5.0584   -6.4277 C   0  0  0  0  0  0  0  0  0  0  0  0
    1.4793   -4.8325   -8.3694 C   0  0  0  0  0  0  0  0  0  0  0  0
    0.5879   -7.1195   -7.7238 C   0  0  0  0  0  0  0  0  0  0  0  0
   -0.4363   -7.4422   -8.6113 C   0  0  0  0  0  0  0  0  0  0  0  0
   -0.6546   -8.7861   -8.9470 C   0  0  0  0  0  0  0  0  0  0  0  0
    0.1472   -9.7943   -8.3968 C   0  0  0  0  0  0  0  0  0  0  0  0
    1.1770   -9.4769   -7.5049 C   0  0  0  0  0  0  0  0  0  0  0  0
    1.3954   -8.1359   -7.1697 C   0  0  0  0  0  0  0  0  0  0  0  0
    4.8899   -3.2141   -1.9930 S   0  0  0  0  0  0  0  0  0  0  0  0
    5.4297   -1.5201   -2.5746 C   0  0  1  0  0  0  0  0  0  0  0  0
    6.8827   -1.2714   -2.2625 C   0  0  0  0  0  0  0  0  0  0  0  0
    7.2762   -0.1935   -1.5231 C   0  0  0  0  0  0  0  0  0  0  0  0
    8.6975    0.0862   -1.4030 C   0  0  0  0  0  0  0  0  0  0  0  0
    9.6168   -0.8198   -1.7936 C   0  0  0  0  0  0  0  0  0  0  0  0
    9.1740   -2.1912   -2.2481 C   0  0  0  0  0  0  0  0  0  0  0  0
    7.8310   -2.1055   -2.8159 N   0  0  0  0  0  0  0  0  0  0  0  0
    7.1979    3.5320   -6.4077 H   0  0  0  0  0  0  0  0  0  0  0  0
    6.8427    2.9416   -4.7631 H   0  0  0  0  0  0  0  0  0  0  0  0
    5.5120    3.3578   -5.8676 H   0  0  0  0  0  0  0  0  0  0  0  0
    7.5184    1.0321   -6.2844 H   0  0  0  0  0  0  0  0  0  0  0  0
    6.2179    1.4670   -7.4021 H   0  0  0  0  0  0  0  0  0  0  0  0
    4.4942    0.8754   -5.6181 H   0  0  0  0  0  0  0  0  0  0  0  0
    6.9674   -0.7853   -4.8511 H   0  0  0  0  0  0  0  0  0  0  0  0
    3.1419   -1.0655   -5.2003 H   0  0  0  0  0  0  0  0  0  0  0  0
    3.3745    0.0024   -3.7917 H   0  0  0  0  0  0  0  0  0  0  0  0
    2.9022   -1.7008   -3.5513 H   0  0  0  0  0  0  0  0  0  0  0  0
    5.2019   -3.0929   -5.6729 H   0  0  0  0  0  0  0  0  0  0  0  0
    7.0731   -5.1202   -2.0247 H   0  0  0  0  0  0  0  0  0  0  0  0
    8.2410   -7.1920   -1.2939 H   0  0  0  0  0  0  0  0  0  0  0  0
    7.5394   -9.4199   -2.1415 H   0  0  0  0  0  0  0  0  0  0  0  0
    5.6543   -9.6188   -3.7607 H   0  0  0  0  0  0  0  0  0  0  0  0
    3.5448   -9.1708   -5.4796 H   0  0  0  0  0  0  0  0  0  0  0  0
    2.8169   -4.1736   -5.5425 H   0  0  0  0  0  0  0  0  0  0  0  0
    0.2058   -4.0958   -6.0081 H   0  0  0  0  0  0  0  0  0  0  0  0
   -0.4741   -5.6923   -5.5971 H   0  0  0  0  0  0  0  0  0  0  0  0
   -0.9889   -4.8573   -7.0863 H   0  0  0  0  0  0  0  0  0  0  0  0
    1.8427   -3.8653   -7.9858 H   0  0  0  0  0  0  0  0  0  0  0  0
    0.6487   -4.6270   -9.0639 H   0  0  0  0  0  0  0  0  0  0  0  0
    2.2941   -5.3030   -8.9402 H   0  0  0  0  0  0  0  0  0  0  0  0
   -1.0682   -6.6626   -9.0463 H   0  0  0  0  0  0  0  0  0  0  0  0
   -1.4558   -9.0486   -9.6426 H   0  0  0  0  0  0  0  0  0  0  0  0
   -0.0337  -10.8381   -8.6668 H   0  0  0  0  0  0  0  0  0  0  0  0
    1.7992  -10.2685   -7.0790 H   0  0  0  0  0  0  0  0  0  0  0  0
    4.8422   -0.7922   -2.0016 H   0  0  0  0  0  0  0  0  0  0  0  0
    6.5337    0.4900   -1.1114 H   0  0  0  0  0  0  0  0  0  0  0  0
    9.0135    1.0617   -1.0215 H   0  0  0  0  0  0  0  0  0  0  0  0
   10.6882   -0.6105   -1.7365 H   0  0  0  0  0  0  0  0  0  0  0  0
    9.2142   -2.9126   -1.3954 H   0  0  0  0  0  0  0  0  0  0  0  0
    9.8554   -2.5913   -3.0175 H   0  0  0  0  0  0  0  0  0  0  0  0
    7.4925   -2.9248   -3.3056 H   0  0  0  0  0  0  0  0  0  0  0  0
  1  2  1  0
  1 39  1  0
  1 40  1  0
  1 41  1  0
  2  3  1  0
  2 42  1  0
  2 43  1  0
  3  4  2  0
  3 44  1  0
  5  4  1  6
  4 45  1  0
  5  6  1  0
  5  7  1  0
  5 32  1  0
  6 46  1  0
  6 47  1  0
  6 48  1  0
  7  8  2  0
  7 49  1  0
  8  9  1  0
  8 31  1  0
  9 10  1  0
  9 21  1  0
 10 11  2  0
 10 15  1  0
 11 12  1  0
 11 50  1  0
 12 13  2  0
 12 51  1  0
 13 14  1  0
 13 52  1  0
 14 15  2  0
 14 53  1  0
 15 16  1  0
 16 17  1  0
 16 21  2  0
 17 18  2  0
 17 54  1  0
 18 19  1  0
 18 30  1  0
 19 20  2  0
 19 22  1  0
 20 21  1  0
 20 55  1  0
 22 23  1  1
 22 24  1  0
 22 25  1  0
 23 56  1  0
 23 57  1  0
 23 58  1  0
 24 59  1  0
 24 60  1  0
 24 61  1  0
 25 26  1  0
 25 30  2  0
 26 27  2  0
 26 62  1  0
 27 28  1  0
 27 63  1  0
 28 29  2  0
 28 64  1  0
 29 30  1  0
 29 65  1  0
 31 32  1  0
 32 33  1  0
 32 66  1  1
 33 34  2  0
 33 38  1  0
 34 35  1  0
 34 67  1  0
 35 36  2  0
 35 68  1  0
 36 37  1  0
 36 69  1  0
 37 38  1  0
 37 70  1  0
 37 71  1  0
 38 72  1  0
M  END

