
     RDKit          3D

 35 37  0  0  0  0  0  0  0  0999 V2000
    1.0664    0.0550   -0.4516 C   0  0  0  0  0  0  0  0  0  0  0  0
    2.6500    0.2053    0.4249 S   0  0  0  0  0  0  0  0  0  0  0  0
    3.2257   -1.4624    0.5477 C   0  0  0  0  0  0  0  0  0  0  0  0
    4.4692   -1.6581    1.1698 C   0  0  0  0  0  0  0  0  0  0  0  0
    4.9681   -2.9606    1.3142 C   0  0  0  0  0  0  0  0  0  0  0  0
    6.2747   -3.2296    1.9799 C   0  0  0  0  0  0  0  0  0  0  0  0
    6.8831   -2.2994    2.8425 C   0  0  0  0  0  0  0  0  0  0  0  0
    8.1080   -2.5718    3.4527 C   0  0  0  0  0  0  0  0  0  0  0  0
    8.7324   -3.7904    3.1963 C   0  0  0  0  0  0  0  0  0  0  0  0
    9.9101   -4.0576    3.7778 F   0  0  0  0  0  0  0  0  0  0  0  0
    8.1570   -4.7385    2.3523 C   0  0  0  0  0  0  0  0  0  0  0  0
    6.9312   -4.4539    1.7532 C   0  0  0  0  0  0  0  0  0  0  0  0
    4.3004   -4.0251    0.8427 N   0  0  0  0  0  0  0  0  0  0  0  0
    3.1233   -3.8570    0.2319 C   0  0  0  0  0  0  0  0  0  0  0  0
    2.4423   -5.0906   -0.2624 C   0  0  0  0  0  0  0  0  0  0  0  0
    2.8045   -6.3448    0.2624 C   0  0  0  0  0  0  0  0  0  0  0  0
    2.1753   -7.5093   -0.1795 C   0  0  0  0  0  0  0  0  0  0  0  0
    1.1780   -7.4568   -1.1581 C   0  0  0  0  0  0  0  0  0  0  0  0
    0.8326   -6.2116   -1.6770 C   0  0  0  0  0  0  0  0  0  0  0  0
   -0.1139   -6.1376   -2.6267 F   0  0  0  0  0  0  0  0  0  0  0  0
    1.4422   -5.0367   -1.2490 C   0  0  0  0  0  0  0  0  0  0  0  0
    2.5377   -2.5869    0.0760 C   0  0  0  0  0  0  0  0  0  0  0  0
    0.6922    1.0832   -0.5542 H   0  0  0  0  0  0  0  0  0  0  0  0
    0.3354   -0.5318    0.1236 H   0  0  0  0  0  0  0  0  0  0  0  0
    1.1964   -0.3768   -1.4547 H   0  0  0  0  0  0  0  0  0  0  0  0
    5.0408   -0.7977    1.5201 H   0  0  0  0  0  0  0  0  0  0  0  0
    6.3906   -1.3516    3.0673 H   0  0  0  0  0  0  0  0  0  0  0  0
    8.5812   -1.8578    4.1295 H   0  0  0  0  0  0  0  0  0  0  0  0
    8.6758   -5.6827    2.1748 H   0  0  0  0  0  0  0  0  0  0  0  0
    6.4594   -5.1796    1.0902 H   0  0  0  0  0  0  0  0  0  0  0  0
    3.5832   -6.3829    1.0239 H   0  0  0  0  0  0  0  0  0  0  0  0
    2.4627   -8.4752    0.2433 H   0  0  0  0  0  0  0  0  0  0  0  0
    0.6730   -8.3529   -1.5236 H   0  0  0  0  0  0  0  0  0  0  0  0
    1.1377   -4.1006   -1.7183 H   0  0  0  0  0  0  0  0  0  0  0  0
    1.5591   -2.4927   -0.3892 H   0  0  0  0  0  0  0  0  0  0  0  0
  1  2  1  0
  1 23  1  0
  1 24  1  0
  1 25  1  0
  2  3  1  0
  3  4  2  0
  3 22  1  0
  4  5  1  0
  4 26  1  0
  5  6  1  0
  5 13  2  0
  6  7  2  0
  6 12  1  0
  7  8  1  0
  7 27  1  0
  8  9  2  0
  8 28  1  0
  9 10  1  0
  9 11  1  0
 11 12  2  0
 11 29  1  0
 12 30  1  0
 13 14  1  0
 14 15  1  0
 14 22  2  0
 15 16  2  0
 15 21  1  0
 16 17  1  0
 16 31  1  0
 17 18  2  0
 17 32  1  0
 18 19  1  0
 18 33  1  0
 19 20  1  0
 19 21  2  0
 21 34  1  0
 22 35  1  0
M  END

