
     RDKit          3D

 50 52  0  0  0  0  0  0  0  0999 V2000
    3.8262    0.0876   -1.0019 C   0  0  0  0  0  0  0  0  0  0  0  0
    2.5614    0.2464   -0.1440 C   0  0  1  0  0  0  0  0  0  0  0  0
    1.9098   -1.0676    0.2700 C   0  0  0  0  0  0  0  0  0  0  0  0
    2.4701   -2.2851    0.1086 C   0  0  0  0  0  0  0  0  0  0  0  0
    1.7808   -3.5359    0.6033 C   0  0  0  0  0  0  0  0  0  0  0  0
    0.2514   -3.4137    0.5611 C   0  0  0  0  0  0  0  0  0  0  0  0
   -0.2074   -2.0619    1.0487 C   0  0  0  0  0  0  0  0  0  0  0  0
    0.5758   -0.9786    0.8991 C   0  0  0  0  0  0  0  0  0  0  0  0
    2.8391    1.1390    1.0666 C   0  0  0  0  0  0  0  0  0  0  0  0
    2.4626    2.4819    1.0736 C   0  0  0  0  0  0  0  0  0  0  0  0
    2.7485    3.3311    2.1538 C   0  0  0  0  0  0  0  0  0  0  0  0
    2.2888    4.7673    2.0210 C   0  0  0  0  0  0  0  0  0  0  0  0
    1.6992    5.1530    1.0417 O   0  0  0  0  0  0  0  0  0  0  0  0
    2.5626    5.6067    3.0297 O   0  0  0  0  0  0  0  0  0  0  0  0
    3.4318    2.7949    3.2625 C   0  0  0  0  0  0  0  0  0  0  0  0
    3.6778    3.6266    4.3293 O   0  0  0  0  0  0  0  0  0  0  0  0
    3.8359    1.4439    3.2896 C   0  0  0  0  0  0  0  0  0  0  0  0
    4.5221    0.8676    4.5331 C   0  0  1  0  0  0  0  0  0  0  0  0
    3.4756    0.5044    5.6041 C   0  0  0  0  0  0  0  0  0  0  0  0
    5.4990   -0.2591    4.1994 C   0  0  0  0  0  0  0  0  0  0  0  0
    6.7093    0.0564    3.5568 C   0  0  0  0  0  0  0  0  0  0  0  0
    7.6313   -0.9366    3.2253 C   0  0  0  0  0  0  0  0  0  0  0  0
    7.3610   -2.2753    3.5312 C   0  0  0  0  0  0  0  0  0  0  0  0
    6.1647   -2.6034    4.1703 C   0  0  0  0  0  0  0  0  0  0  0  0
    5.2424   -1.6034    4.5031 C   0  0  0  0  0  0  0  0  0  0  0  0
    3.5265    0.6439    2.1854 C   0  0  0  0  0  0  0  0  0  0  0  0
    3.6231   -0.5114   -1.9034 H   0  0  0  0  0  0  0  0  0  0  0  0
    4.6384   -0.4013   -0.4409 H   0  0  0  0  0  0  0  0  0  0  0  0
    4.1943    1.0743   -1.3212 H   0  0  0  0  0  0  0  0  0  0  0  0
    1.8164    0.7848   -0.7573 H   0  0  0  0  0  0  0  0  0  0  0  0
    3.4640   -2.3908   -0.3330 H   0  0  0  0  0  0  0  0  0  0  0  0
    2.1061   -3.7250    1.6476 H   0  0  0  0  0  0  0  0  0  0  0  0
    2.1097   -4.4144    0.0252 H   0  0  0  0  0  0  0  0  0  0  0  0
   -0.2143   -4.2232    1.1460 H   0  0  0  0  0  0  0  0  0  0  0  0
   -0.1082   -3.5496   -0.4801 H   0  0  0  0  0  0  0  0  0  0  0  0
   -1.2134   -1.9638    1.4689 H   0  0  0  0  0  0  0  0  0  0  0  0
    0.2190    0.0074    1.2114 H   0  0  0  0  0  0  0  0  0  0  0  0
    1.9293    2.9251    0.2296 H   0  0  0  0  0  0  0  0  0  0  0  0
    3.0366    5.1396    3.7422 H   0  0  0  0  0  0  0  0  0  0  0  0
    4.2667    3.2048    4.9690 H   0  0  0  0  0  0  0  0  0  0  0  0
    5.1650    1.6631    4.9634 H   0  0  0  0  0  0  0  0  0  0  0  0
    2.7754   -0.2574    5.2304 H   0  0  0  0  0  0  0  0  0  0  0  0
    2.8751    1.3873    5.8715 H   0  0  0  0  0  0  0  0  0  0  0  0
    3.9529    0.1217    6.5197 H   0  0  0  0  0  0  0  0  0  0  0  0
    6.9293    1.0992    3.3091 H   0  0  0  0  0  0  0  0  0  0  0  0
    8.5665   -0.6653    2.7286 H   0  0  0  0  0  0  0  0  0  0  0  0
    8.0817   -3.0558    3.2744 H   0  0  0  0  0  0  0  0  0  0  0  0
    5.9427   -3.6449    4.4171 H   0  0  0  0  0  0  0  0  0  0  0  0
    4.3157   -1.8872    5.0047 H   0  0  0  0  0  0  0  0  0  0  0  0
    3.8286   -0.4058    2.1990 H   0  0  0  0  0  0  0  0  0  0  0  0
  1  2  1  0
  1 27  1  0
  1 28  1  0
  1 29  1  0
  2  3  1  0
  2  9  1  0
  2 30  1  6
  3  4  2  0
  3  8  1  0
  4  5  1  0
  4 31  1  0
  5  6  1  0
  5 32  1  0
  5 33  1  0
  6  7  1  0
  6 34  1  0
  6 35  1  0
  7  8  2  0
  7 36  1  0
  8 37  1  0
  9 10  2  0
  9 26  1  0
 10 11  1  0
 10 38  1  0
 11 12  1  0
 11 15  2  0
 12 13  2  0
 12 14  1  0
 14 39  1  0
 15 16  1  0
 15 17  1  0
 16 40  1  0
 17 18  1  0
 17 26  2  0
 18 19  1  0
 18 20  1  0
 18 41  1  1
 19 42  1  0
 19 43  1  0
 19 44  1  0
 20 21  2  0
 20 25  1  0
 21 22  1  0
 21 45  1  0
 22 23  2  0
 22 46  1  0
 23 24  1  0
 23 47  1  0
 24 25  2  0
 24 48  1  0
 25 49  1  0
 26 50  1  0
M  END

