
     RDKit          3D

101100  0  0  0  0  0  0  0  0999 V2000
   14.0477   -8.5306   -1.9160 C   0  0  0  0  0  0  0  0  0  0  0  0
   13.7578   -7.1243   -1.3752 C   0  0  1  0  0  0  0  0  0  0  0  0
   14.5220   -6.8800   -0.0667 C   0  0  0  0  0  0  0  0  0  0  0  0
   14.0561   -6.0584   -2.4469 C   0  0  0  0  0  0  0  0  0  0  0  0
   13.6323   -4.6275   -2.0990 C   0  0  0  0  0  0  0  0  0  0  0  0
   13.8700   -3.6268   -3.2346 C   0  0  0  0  0  0  0  0  0  0  0  0
   13.4561   -2.1920   -2.8946 C   0  0  0  0  0  0  0  0  0  0  0  0
   13.6924   -1.1914   -4.0298 C   0  0  0  0  0  0  0  0  0  0  0  0
   13.2827    0.2442   -3.6880 C   0  0  0  0  0  0  0  0  0  0  0  0
   13.5204    1.2447   -4.8229 C   0  0  0  0  0  0  0  0  0  0  0  0
   13.1155    2.6811   -4.4790 C   0  0  0  0  0  0  0  0  0  0  0  0
   13.3653    3.6810   -5.6133 C   0  0  0  0  0  0  0  0  0  0  0  0
   12.9434    5.1084   -5.2428 C   0  0  0  0  0  0  0  0  0  0  0  0
   13.2542    6.2189   -6.2754 C   0  0  1  0  0  0  0  0  0  0  0  0
   12.7205    5.8619   -7.6956 C   0  0  0  0  0  0  0  0  0  0  0  0
   11.2305    5.5147   -7.8102 C   0  0  0  0  0  0  0  0  0  0  0  0
   10.8042    5.2109   -9.2511 C   0  0  0  0  0  0  0  0  0  0  0  0
    9.3220    4.8521   -9.3923 C   0  0  0  0  0  0  0  0  0  0  0  0
    8.8926    4.5474  -10.8305 C   0  0  0  0  0  0  0  0  0  0  0  0
    7.4108    4.1871  -10.9722 C   0  0  0  0  0  0  0  0  0  0  0  0
    6.9812    3.8819  -12.4102 C   0  0  0  0  0  0  0  0  0  0  0  0
    5.4996    3.5209  -12.5522 C   0  0  0  0  0  0  0  0  0  0  0  0
    5.0700    3.2167  -13.9912 C   0  0  0  0  0  0  0  0  0  0  0  0
    3.5871    2.8534  -14.1219 C   0  0  0  0  0  0  0  0  0  0  0  0
    3.0786    2.6231  -15.5579 C   0  0  1  0  0  0  0  0  0  0  0  0
    3.7542    1.4265  -16.2416 C   0  0  0  0  0  0  0  0  0  0  0  0
    1.5527    2.4631  -15.5717 C   0  0  0  0  0  0  0  0  0  0  0  0
   12.6352    7.5766   -5.8140 C   0  0  0  0  0  0  0  0  0  0  0  0
   13.1549    8.1610   -4.4929 C   0  0  0  0  0  0  0  0  0  0  0  0
   12.5526    9.5285   -4.1403 C   0  0  0  0  0  0  0  0  0  0  0  0
   11.0729    9.4917   -3.7574 C   0  0  0  0  0  0  0  0  0  0  0  0
   10.5046   10.8643   -3.4157 C   0  0  0  0  0  0  0  0  0  0  0  0
   11.1135   11.8945   -3.4944 O   0  0  0  0  0  0  0  0  0  0  0  0
    9.2112   10.8647   -3.0081 O   0  0  0  0  0  0  0  0  0  0  0  0
   14.7881    6.4177   -6.3373 C   0  0  0  0  0  0  0  0  0  0  0  0
   15.5644    5.9652   -5.5391 O   0  0  0  0  0  0  0  0  0  0  0  0
   15.2493    7.1993   -7.3420 O   0  0  0  0  0  0  0  0  0  0  0  0
   13.7967   -9.3072   -1.1752 H   0  0  0  0  0  0  0  0  0  0  0  0
   15.1168   -8.6444   -2.1665 H   0  0  0  0  0  0  0  0  0  0  0  0
   13.4691   -8.7394   -2.8308 H   0  0  0  0  0  0  0  0  0  0  0  0
   12.6755   -7.0696   -1.1476 H   0  0  0  0  0  0  0  0  0  0  0  0
   15.6125   -6.8975   -0.2391 H   0  0  0  0  0  0  0  0  0  0  0  0
   14.2922   -7.6598    0.6776 H   0  0  0  0  0  0  0  0  0  0  0  0
   14.2716   -5.9089    0.3876 H   0  0  0  0  0  0  0  0  0  0  0  0
   13.5509   -6.3558   -3.3841 H   0  0  0  0  0  0  0  0  0  0  0  0
   15.1393   -6.0743   -2.6749 H   0  0  0  0  0  0  0  0  0  0  0  0
   14.1716   -4.2805   -1.2001 H   0  0  0  0  0  0  0  0  0  0  0  0
   12.5599   -4.6213   -1.8273 H   0  0  0  0  0  0  0  0  0  0  0  0
   13.3230   -3.9603   -4.1363 H   0  0  0  0  0  0  0  0  0  0  0  0
   14.9401   -3.6405   -3.5140 H   0  0  0  0  0  0  0  0  0  0  0  0
   14.0051   -1.8578   -1.9945 H   0  0  0  0  0  0  0  0  0  0  0  0
   12.3865   -2.1781   -2.6129 H   0  0  0  0  0  0  0  0  0  0  0  0
   13.1413   -1.5238   -4.9295 H   0  0  0  0  0  0  0  0  0  0  0  0
   14.7614   -1.2072   -4.3130 H   0  0  0  0  0  0  0  0  0  0  0  0
   13.8344    0.5762   -2.7888 H   0  0  0  0  0  0  0  0  0  0  0  0
   12.2136    0.2606   -3.4044 H   0  0  0  0  0  0  0  0  0  0  0  0
   12.9673    0.9139   -5.7221 H   0  0  0  0  0  0  0  0  0  0  0  0
   14.5888    1.2276   -5.1070 H   0  0  0  0  0  0  0  0  0  0  0  0
   13.6676    3.0094   -3.5793 H   0  0  0  0  0  0  0  0  0  0  0  0
   12.0453    2.7010   -4.1982 H   0  0  0  0  0  0  0  0  0  0  0  0
   12.8248    3.3372   -6.5129 H   0  0  0  0  0  0  0  0  0  0  0  0
   14.4373    3.6731   -5.8687 H   0  0  0  0  0  0  0  0  0  0  0  0
   13.4449    5.3737   -4.3009 H   0  0  0  0  0  0  0  0  0  0  0  0
   11.8592    5.1251   -5.0340 H   0  0  0  0  0  0  0  0  0  0  0  0
   13.3111    5.0233   -8.1011 H   0  0  0  0  0  0  0  0  0  0  0  0
   12.9058    6.7114   -8.3814 H   0  0  0  0  0  0  0  0  0  0  0  0
   10.6146    6.3446   -7.4232 H   0  0  0  0  0  0  0  0  0  0  0  0
   10.9979    4.6424   -7.1768 H   0  0  0  0  0  0  0  0  0  0  0  0
   11.4198    4.3820   -9.6466 H   0  0  0  0  0  0  0  0  0  0  0  0
   11.0308    6.0831   -9.8924 H   0  0  0  0  0  0  0  0  0  0  0  0
    8.7065    5.6812   -8.9958 H   0  0  0  0  0  0  0  0  0  0  0  0
    9.0957    3.9797   -8.7514 H   0  0  0  0  0  0  0  0  0  0  0  0
    9.5090    3.7190  -11.2269 H   0  0  0  0  0  0  0  0  0  0  0  0
    9.1189    5.4200  -11.4712 H   0  0  0  0  0  0  0  0  0  0  0  0
    6.7946    5.0156  -10.5755 H   0  0  0  0  0  0  0  0  0  0  0  0
    7.1850    3.3146  -10.3311 H   0  0  0  0  0  0  0  0  0  0  0  0
    7.5981    3.0539  -12.8067 H   0  0  0  0  0  0  0  0  0  0  0  0
    7.2070    4.7546  -13.0511 H   0  0  0  0  0  0  0  0  0  0  0  0
    4.8829    4.3480  -12.1537 H   0  0  0  0  0  0  0  0  0  0  0  0
    5.2745    2.6471  -11.9125 H   0  0  0  0  0  0  0  0  0  0  0  0
    5.6971    2.3973  -14.3845 H   0  0  0  0  0  0  0  0  0  0  0  0
    5.2874    4.0943  -14.6287 H   0  0  0  0  0  0  0  0  0  0  0  0
    2.9866    3.6612  -13.6649 H   0  0  0  0  0  0  0  0  0  0  0  0
    3.3770    1.9489  -13.5190 H   0  0  0  0  0  0  0  0  0  0  0  0
    3.3255    3.5290  -16.1447 H   0  0  0  0  0  0  0  0  0  0  0  0
    3.5617    0.4940  -15.6825 H   0  0  0  0  0  0  0  0  0  0  0  0
    4.8454    1.5508  -16.3178 H   0  0  0  0  0  0  0  0  0  0  0  0
    3.3677    1.2848  -17.2641 H   0  0  0  0  0  0  0  0  0  0  0  0
    1.2439    1.5741  -14.9946 H   0  0  0  0  0  0  0  0  0  0  0  0
    1.1695    2.3412  -16.5979 H   0  0  0  0  0  0  0  0  0  0  0  0
    1.0502    3.3378  -15.1272 H   0  0  0  0  0  0  0  0  0  0  0  0
   11.5437    7.4367   -5.7543 H   0  0  0  0  0  0  0  0  0  0  0  0
   12.7958    8.3274   -6.6099 H   0  0  0  0  0  0  0  0  0  0  0  0
   14.2503    8.2709   -4.5456 H   0  0  0  0  0  0  0  0  0  0  0  0
   12.9656    7.4554   -3.6661 H   0  0  0  0  0  0  0  0  0  0  0  0
   12.6848   10.2319   -4.9794 H   0  0  0  0  0  0  0  0  0  0  0  0
   13.1135    9.9683   -3.3005 H   0  0  0  0  0  0  0  0  0  0  0  0
   10.9130    8.8240   -2.8898 H   0  0  0  0  0  0  0  0  0  0  0  0
   10.4537    9.0744   -4.5728 H   0  0  0  0  0  0  0  0  0  0  0  0
    8.8614    9.9627   -2.9877 H   0  0  0  0  0  0  0  0  0  0  0  0
   14.5232    7.4777   -7.9176 H   0  0  0  0  0  0  0  0  0  0  0  0
  1  2  1  0
  1 38  1  0
  1 39  1  0
  1 40  1  0
  2  3  1  0
  2  4  1  0
  2 41  1  1
  3 42  1  0
  3 43  1  0
  3 44  1  0
  4  5  1  0
  4 45  1  0
  4 46  1  0
  5  6  1  0
  5 47  1  0
  5 48  1  0
  6  7  1  0
  6 49  1  0
  6 50  1  0
  7  8  1  0
  7 51  1  0
  7 52  1  0
  8  9  1  0
  8 53  1  0
  8 54  1  0
  9 10  1  0
  9 55  1  0
  9 56  1  0
 10 11  1  0
 10 57  1  0
 10 58  1  0
 11 12  1  0
 11 59  1  0
 11 60  1  0
 12 13  1  0
 12 61  1  0
 12 62  1  0
 13 14  1  0
 13 63  1  0
 13 64  1  0
 14 15  1  0
 14 28  1  0
 14 35  1  6
 15 16  1  0
 15 65  1  0
 15 66  1  0
 16 17  1  0
 16 67  1  0
 16 68  1  0
 17 18  1  0
 17 69  1  0
 17 70  1  0
 18 19  1  0
 18 71  1  0
 18 72  1  0
 19 20  1  0
 19 73  1  0
 19 74  1  0
 20 21  1  0
 20 75  1  0
 20 76  1  0
 21 22  1  0
 21 77  1  0
 21 78  1  0
 22 23  1  0
 22 79  1  0
 22 80  1  0
 23 24  1  0
 23 81  1  0
 23 82  1  0
 24 25  1  0
 24 83  1  0
 24 84  1  0
 25 26  1  0
 25 27  1  0
 25 85  1  6
 26 86  1  0
 26 87  1  0
 26 88  1  0
 27 89  1  0
 27 90  1  0
 27 91  1  0
 28 29  1  0
 28 92  1  0
 28 93  1  0
 29 30  1  0
 29 94  1  0
 29 95  1  0
 30 31  1  0
 30 96  1  0
 30 97  1  0
 31 32  1  0
 31 98  1  0
 31 99  1  0
 32 33  2  0
 32 34  1  0
 34100  1  0
 35 36  2  0
 35 37  1  0
 37101  1  0
M  END

