
     RDKit          3D

 25 25  0  0  0  0  0  0  0  0999 V2000
    2.4517   -0.2959    2.4192 C   0  0  0  0  0  0  0  0  0  0  0  0
    3.0226   -0.0794    1.0410 C   0  0  0  0  0  0  0  0  0  0  0  0
    3.5242    1.1309    0.6243 C   0  0  0  0  0  0  0  0  0  0  0  0
    4.1674    1.0715   -0.9781 S   0  0  0  0  0  0  0  0  0  0  0  0
    3.7698   -0.6034   -1.1115 C   0  0  0  0  0  0  0  0  0  0  0  0
    3.1647   -1.0953    0.0204 C   0  0  0  0  0  0  0  0  0  0  0  0
    2.6772   -2.5318    0.1107 C   0  0  1  0  0  0  0  0  0  0  0  0
    3.0859   -3.1934    1.3000 O   0  0  0  0  0  0  0  0  0  0  0  0
    1.1560   -2.6466   -0.1058 C   0  0  0  0  0  0  0  0  0  0  0  0
    0.6834   -4.1008   -0.1283 C   0  0  0  0  0  0  0  0  0  0  0  0
   -0.8169   -4.2454   -0.2187 C   0  0  1  0  0  0  0  0  0  0  0  0
   -1.3128   -3.6679   -1.3307 F   0  0  0  0  0  0  0  0  0  0  0  0
   -1.1849   -5.5383   -0.2430 F   0  0  0  0  0  0  0  0  0  0  0  0
   -1.4389   -3.6735    0.8329 F   0  0  0  0  0  0  0  0  0  0  0  0
    2.3450    0.6579    2.9560 H   0  0  0  0  0  0  0  0  0  0  0  0
    3.1102   -0.9377    3.0301 H   0  0  0  0  0  0  0  0  0  0  0  0
    1.4533   -0.7634    2.3912 H   0  0  0  0  0  0  0  0  0  0  0  0
    3.5548    2.0607    1.1916 H   0  0  0  0  0  0  0  0  0  0  0  0
    4.0032   -1.1495   -2.0252 H   0  0  0  0  0  0  0  0  0  0  0  0
    3.1717   -3.0949   -0.6981 H   0  0  0  0  0  0  0  0  0  0  0  0
    2.6541   -2.7680    2.0519 H   0  0  0  0  0  0  0  0  0  0  0  0
    0.8875   -2.1458   -1.0490 H   0  0  0  0  0  0  0  0  0  0  0  0
    0.6270   -2.1026    0.6956 H   0  0  0  0  0  0  0  0  0  0  0  0
    1.0147   -4.6232    0.7810 H   0  0  0  0  0  0  0  0  0  0  0  0
    1.1144   -4.6417   -0.9861 H   0  0  0  0  0  0  0  0  0  0  0  0
  1  2  1  0
  1 15  1  0
  1 16  1  0
  1 17  1  0
  2  3  2  0
  2  6  1  0
  3  4  1  0
  3 18  1  0
  4  5  1  0
  5  6  2  0
  5 19  1  0
  6  7  1  0
  7  8  1  0
  7  9  1  0
  7 20  1  6
  8 21  1  0
  9 10  1  0
  9 22  1  0
  9 23  1  0
 10 11  1  0
 10 24  1  0
 10 25  1  0
 11 12  1  6
 11 13  1  0
 11 14  1  0
M  END

