
     RDKit          3D

 39 40  0  0  0  0  0  0  0  0999 V2000
    1.3823   -0.0469   -1.0749 C   0  0  0  0  0  0  0  0  0  0  0  0
    2.8364   -0.0340   -0.6792 C   0  0  0  0  0  0  0  0  0  0  0  0
    3.4113    1.1510   -0.4701 N   0  0  0  0  0  0  0  0  0  0  0  0
    4.7087    1.1388   -0.1089 C   0  0  0  0  0  0  0  0  0  0  0  0
    5.3567    2.4920    0.1375 C   0  0  1  0  0  0  0  0  0  0  0  0
    5.3429    3.3389   -1.1455 C   0  0  0  0  0  0  0  0  0  0  0  0
    4.6589    3.2220    1.2968 C   0  0  0  0  0  0  0  0  0  0  0  0
    5.4201   -0.0459    0.0363 C   0  0  0  0  0  0  0  0  0  0  0  0
    4.7312   -1.2632   -0.2154 C   0  0  0  0  0  0  0  0  0  0  0  0
    5.3217   -2.5016   -0.1303 N   0  0  0  0  0  0  0  0  0  0  0  0
    4.5259   -3.7248   -0.2441 C   0  0  0  0  0  0  0  0  0  0  0  0
    5.2074   -4.7551   -1.1495 C   0  0  0  0  0  0  0  0  0  0  0  0
    6.6505   -5.0572   -0.7149 C   0  0  2  0  0  0  0  0  0  0  0  0
    6.6551   -5.8939    0.4861 N   0  0  0  0  0  0  0  0  0  0  0  0
    7.4177   -3.7217   -0.5880 C   0  0  0  0  0  0  0  0  0  0  0  0
    6.6925   -2.7143    0.3129 C   0  0  0  0  0  0  0  0  0  0  0  0
    3.4345   -1.2229   -0.5648 N   0  0  0  0  0  0  0  0  0  0  0  0
    1.0034    0.9784   -1.1685 H   0  0  0  0  0  0  0  0  0  0  0  0
    0.7888   -0.5906   -0.3221 H   0  0  0  0  0  0  0  0  0  0  0  0
    1.2513   -0.5804   -2.0298 H   0  0  0  0  0  0  0  0  0  0  0  0
    6.4074    2.3098    0.4230 H   0  0  0  0  0  0  0  0  0  0  0  0
    4.3077    3.4973   -1.4839 H   0  0  0  0  0  0  0  0  0  0  0  0
    5.8932    2.8423   -1.9608 H   0  0  0  0  0  0  0  0  0  0  0  0
    5.8085    4.3220   -0.9690 H   0  0  0  0  0  0  0  0  0  0  0  0
    3.5946    3.3753    1.0622 H   0  0  0  0  0  0  0  0  0  0  0  0
    5.1238    4.2053    1.4749 H   0  0  0  0  0  0  0  0  0  0  0  0
    4.7196    2.6419    2.2316 H   0  0  0  0  0  0  0  0  0  0  0  0
    6.4652   -0.0103    0.3384 H   0  0  0  0  0  0  0  0  0  0  0  0
    3.5399   -3.4460   -0.6301 H   0  0  0  0  0  0  0  0  0  0  0  0
    4.3662   -4.1507    0.7683 H   0  0  0  0  0  0  0  0  0  0  0  0
    5.2155   -4.3659   -2.1814 H   0  0  0  0  0  0  0  0  0  0  0  0
    4.6235   -5.6889   -1.1475 H   0  0  0  0  0  0  0  0  0  0  0  0
    7.1322   -5.6518   -1.5104 H   0  0  0  0  0  0  0  0  0  0  0  0
    6.2157   -5.4198    1.2751 H   0  0  0  0  0  0  0  0  0  0  0  0
    7.6113   -6.1027    0.7743 H   0  0  0  0  0  0  0  0  0  0  0  0
    7.5400   -3.2746   -1.5900 H   0  0  0  0  0  0  0  0  0  0  0  0
    8.4307   -3.9034   -0.1888 H   0  0  0  0  0  0  0  0  0  0  0  0
    7.2422   -1.7672    0.3161 H   0  0  0  0  0  0  0  0  0  0  0  0
    6.6938   -3.0822    1.3606 H   0  0  0  0  0  0  0  0  0  0  0  0
  1  2  1  0
  1 18  1  0
  1 19  1  0
  1 20  1  0
  2  3  2  0
  2 17  1  0
  3  4  1  0
  4  5  1  0
  4  8  2  0
  5  6  1  0
  5  7  1  0
  5 21  1  1
  6 22  1  0
  6 23  1  0
  6 24  1  0
  7 25  1  0
  7 26  1  0
  7 27  1  0
  8  9  1  0
  8 28  1  0
  9 10  1  0
  9 17  2  0
 10 11  1  0
 10 16  1  0
 11 12  1  0
 11 29  1  0
 11 30  1  0
 12 13  1  0
 12 31  1  0
 12 32  1  0
 13 14  1  0
 13 15  1  0
 13 33  1  6
 14 34  1  0
 14 35  1  0
 15 16  1  0
 15 36  1  0
 15 37  1  0
 16 38  1  0
 16 39  1  0
M  END

