
     RDKit          3D

 35 38  0  0  0  0  0  0  0  0999 V2000
    3.8843    4.8476   -3.1228 O   0  0  0  0  0  0  0  0  0  0  0  0
    3.7583    4.1912   -1.9271 B   0  0  0  0  0  0  0  0  0  0  0  0
    3.3694    4.7995   -0.7634 O   0  0  0  0  0  0  0  0  0  0  0  0
    4.0790    2.6565   -1.8883 C   0  0  0  0  0  0  0  0  0  0  0  0
    3.9759    1.9237   -0.6912 C   0  0  0  0  0  0  0  0  0  0  0  0
    4.2571    0.5563   -0.6696 C   0  0  0  0  0  0  0  0  0  0  0  0
    4.6453   -0.0998   -1.8397 C   0  0  0  0  0  0  0  0  0  0  0  0
    4.7574    0.5987   -3.0571 C   0  0  0  0  0  0  0  0  0  0  0  0
    5.1657   -0.0987   -4.3068 C   0  0  0  0  0  0  0  0  0  0  0  0
    6.0018    0.5434   -5.2518 C   0  0  0  0  0  0  0  0  0  0  0  0
    6.3983   -0.0867   -6.4279 C   0  0  0  0  0  0  0  0  0  0  0  0
    5.9551   -1.3901   -6.6784 C   0  0  0  0  0  0  0  0  0  0  0  0
    6.3279   -2.3707   -8.0937 S   0  0  0  0  0  0  0  0  0  0  0  0
    5.3579   -3.7034   -7.4674 C   0  0  0  0  0  0  0  0  0  0  0  0
    5.1556   -4.9401   -8.0914 C   0  0  0  0  0  0  0  0  0  0  0  0
    4.3535   -5.8861   -7.4540 C   0  0  0  0  0  0  0  0  0  0  0  0
    3.7606   -5.6039   -6.2107 C   0  0  0  0  0  0  0  0  0  0  0  0
    3.9649   -4.3724   -5.5929 C   0  0  0  0  0  0  0  0  0  0  0  0
    4.7692   -3.4014   -6.2143 C   0  0  0  0  0  0  0  0  0  0  0  0
    5.1178   -2.0627   -5.7564 C   0  0  0  0  0  0  0  0  0  0  0  0
    4.7332   -1.4042   -4.5783 C   0  0  0  0  0  0  0  0  0  0  0  0
    4.4698    1.9752   -3.0542 C   0  0  0  0  0  0  0  0  0  0  0  0
    3.6753    5.7887   -3.1114 H   0  0  0  0  0  0  0  0  0  0  0  0
    3.1818    5.7434   -0.8234 H   0  0  0  0  0  0  0  0  0  0  0  0
    3.6739    2.4352    0.2260 H   0  0  0  0  0  0  0  0  0  0  0  0
    4.1840   -0.0048    0.2660 H   0  0  0  0  0  0  0  0  0  0  0  0
    4.8888   -1.1647   -1.8042 H   0  0  0  0  0  0  0  0  0  0  0  0
    6.3645    1.5522   -5.0438 H   0  0  0  0  0  0  0  0  0  0  0  0
    7.0512    0.4285   -7.1361 H   0  0  0  0  0  0  0  0  0  0  0  0
    5.6157   -5.1601   -9.0575 H   0  0  0  0  0  0  0  0  0  0  0  0
    4.1854   -6.8563   -7.9281 H   0  0  0  0  0  0  0  0  0  0  0  0
    3.1347   -6.3570   -5.7260 H   0  0  0  0  0  0  0  0  0  0  0  0
    3.5006   -4.1601   -4.6267 H   0  0  0  0  0  0  0  0  0  0  0  0
    4.0671   -1.9087   -3.8750 H   0  0  0  0  0  0  0  0  0  0  0  0
    4.5290    2.5358   -3.9899 H   0  0  0  0  0  0  0  0  0  0  0  0
  1  2  1  0
  1 23  1  0
  2  3  1  0
  2  4  1  0
  3 24  1  0
  4  5  2  0
  4 22  1  0
  5  6  1  0
  5 25  1  0
  6  7  2  0
  6 26  1  0
  7  8  1  0
  7 27  1  0
  8  9  1  0
  8 22  2  0
  9 10  2  0
  9 21  1  0
 10 11  1  0
 10 28  1  0
 11 12  2  0
 11 29  1  0
 12 13  1  0
 12 20  1  0
 13 14  1  0
 14 15  1  0
 14 19  2  0
 15 16  2  0
 15 30  1  0
 16 17  1  0
 16 31  1  0
 17 18  2  0
 17 32  1  0
 18 19  1  0
 18 33  1  0
 19 20  1  0
 20 21  2  0
 21 34  1  0
 22 35  1  0
M  END

