
     RDKit          3D

117129  0  0  0  0  0  0  0  0999 V2000
   -0.8404    0.4402    2.3909 C   0  0  0  0  0  0  0  0  0  0  0  0
    1.0400    0.5783    2.3956 Si  0  0  2  0  0  4  0  0  0  0  0  0
    1.6872    0.9450    4.1295 C   0  0  0  0  0  0  0  0  0  0  0  0
    1.8741    1.8038    1.2016 C   0  0  0  0  0  0  0  0  0  0  0  0
    1.9617    3.2593    1.3942 C   0  0  0  0  0  0  0  0  0  0  0  0
    3.1565    3.9662    1.4126 C   0  0  0  0  0  0  0  0  0  0  0  0
    3.2415    5.3606    1.6555 C   0  0  0  0  0  0  0  0  0  0  0  0
    2.1444    6.1787    1.9038 C   0  0  0  0  0  0  0  0  0  0  0  0
    2.2695    7.6089    2.1530 C   0  0  0  0  0  0  0  0  0  0  0  0
    1.2899    8.5412    2.4554 C   0  0  0  0  0  0  0  0  0  0  0  0
    1.7883    9.8460    2.6998 C   0  0  0  0  0  0  0  0  0  0  0  0
    3.1597    9.9387    2.5758 C   0  0  0  0  0  0  0  0  0  0  0  0
    3.9596   11.0779    2.6835 N   0  0  0  0  0  0  0  0  0  0  0  0
    5.1648   11.0370    3.4388 C   0  0  0  0  0  0  0  0  0  0  0  0
    6.3175   11.7002    2.9804 C   0  0  0  0  0  0  0  0  0  0  0  0
    7.4978   11.6521    3.7231 C   0  0  0  0  0  0  0  0  0  0  0  0
    7.5562   10.9333    4.9217 C   0  0  0  0  0  0  0  0  0  0  0  0
    6.4139   10.2664    5.3750 C   0  0  0  0  0  0  0  0  0  0  0  0
    5.2239   10.3210    4.6474 C   0  0  0  0  0  0  0  0  0  0  0  0
    3.5458   12.2806    2.0409 C   0  0  0  0  0  0  0  0  0  0  0  0
    3.6557   13.5157    2.7037 C   0  0  0  0  0  0  0  0  0  0  0  0
    3.2520   14.6919    2.0692 C   0  0  0  0  0  0  0  0  0  0  0  0
    2.7204   14.6564    0.7762 C   0  0  0  0  0  0  0  0  0  0  0  0
    2.6028   13.4274    0.1186 C   0  0  0  0  0  0  0  0  0  0  0  0
    3.0166   12.2478    0.7389 C   0  0  0  0  0  0  0  0  0  0  0  0
    3.8497    8.3856    2.1247 S   0  0  0  0  0  0  0  0  0  0  0  0
    0.8688    5.4968    1.8989 C   0  0  0  0  0  0  0  0  0  0  0  0
    0.7894    4.0568    1.6523 C   0  0  0  0  0  0  0  0  0  0  0  0
   -0.4622    3.5934    1.6752 N   0  0  0  0  0  0  0  0  0  0  0  0
   -1.4511    4.8624    1.9902 S   0  0  0  0  0  0  0  0  0  0  0  0
   -0.3278    6.0519    2.1020 N   0  0  0  0  0  0  0  0  0  0  0  0
    2.6064    1.0777    0.2958 C   0  0  0  0  0  0  0  0  0  0  0  0
    3.4587    1.6983   -0.7628 C   0  0  0  0  0  0  0  0  0  0  0  0
    4.8368    1.4288   -0.8467 C   0  0  0  0  0  0  0  0  0  0  0  0
    5.6267    2.0364   -1.8257 C   0  0  0  0  0  0  0  0  0  0  0  0
    5.0523    2.9146   -2.7497 C   0  0  0  0  0  0  0  0  0  0  0  0
    3.6816    3.1830   -2.6845 C   0  0  0  0  0  0  0  0  0  0  0  0
    2.8943    2.5833   -1.6990 C   0  0  0  0  0  0  0  0  0  0  0  0
    2.5118   -0.4182    0.4067 C   0  0  0  0  0  0  0  0  0  0  0  0
    3.2151   -1.2856   -0.5859 C   0  0  0  0  0  0  0  0  0  0  0  0
    2.9492   -1.1895   -1.9639 C   0  0  0  0  0  0  0  0  0  0  0  0
    3.5970   -2.0241   -2.8778 C   0  0  0  0  0  0  0  0  0  0  0  0
    4.5347   -2.9616   -2.4342 C   0  0  0  0  0  0  0  0  0  0  0  0
    4.8173   -3.0597   -1.0682 C   0  0  0  0  0  0  0  0  0  0  0  0
    4.1616   -2.2322   -0.1540 C   0  0  0  0  0  0  0  0  0  0  0  0
    1.7635   -0.9071    1.4498 C   0  0  0  0  0  0  0  0  0  0  0  0
    1.3693   -2.3120    1.6296 C   0  0  0  0  0  0  0  0  0  0  0  0
    0.9774   -3.1459    0.5901 C   0  0  0  0  0  0  0  0  0  0  0  0
    0.5448   -4.4832    0.7738 C   0  0  0  0  0  0  0  0  0  0  0  0
    0.4591   -5.1145    2.0104 C   0  0  0  0  0  0  0  0  0  0  0  0
    0.0084   -6.4915    2.1619 C   0  0  0  0  0  0  0  0  0  0  0  0
   -0.1806   -7.2369    3.3148 C   0  0  0  0  0  0  0  0  0  0  0  0
   -0.6966   -8.5374    3.0852 C   0  0  0  0  0  0  0  0  0  0  0  0
   -0.8993   -8.8163    1.7486 C   0  0  0  0  0  0  0  0  0  0  0  0
   -1.3304  -10.0130    1.1737 N   0  0  0  0  0  0  0  0  0  0  0  0
   -0.7797  -11.2441    1.6336 C   0  0  0  0  0  0  0  0  0  0  0  0
   -1.6096  -12.3583    1.8488 C   0  0  0  0  0  0  0  0  0  0  0  0
   -1.0657  -13.5638    2.2960 C   0  0  0  0  0  0  0  0  0  0  0  0
    0.3049  -13.6751    2.5499 C   0  0  0  0  0  0  0  0  0  0  0  0
    1.1308  -12.5650    2.3442 C   0  0  0  0  0  0  0  0  0  0  0  0
    0.5989  -11.3597    1.8840 C   0  0  0  0  0  0  0  0  0  0  0  0
   -2.3199   -9.9996    0.1509 C   0  0  0  0  0  0  0  0  0  0  0  0
   -2.2143  -10.8619   -0.9554 C   0  0  0  0  0  0  0  0  0  0  0  0
   -3.1848  -10.8407   -1.9576 C   0  0  0  0  0  0  0  0  0  0  0  0
   -4.2644   -9.9540   -1.8848 C   0  0  0  0  0  0  0  0  0  0  0  0
   -4.3669   -9.0903   -0.7900 C   0  0  0  0  0  0  0  0  0  0  0  0
   -3.4096   -9.1143    0.2256 C   0  0  0  0  0  0  0  0  0  0  0  0
   -0.4210   -7.4511    0.7492 S   0  0  0  0  0  0  0  0  0  0  0  0
    0.8475   -4.2926    3.1352 C   0  0  0  0  0  0  0  0  0  0  0  0
    1.2890   -2.9115    2.9382 C   0  0  0  0  0  0  0  0  0  0  0  0
    1.6115   -2.3017    4.0807 N   0  0  0  0  0  0  0  0  0  0  0  0
    1.3723   -3.3744    5.2973 S   0  0  0  0  0  0  0  0  0  0  0  0
    0.8553   -4.6585    4.4186 N   0  0  0  0  0  0  0  0  0  0  0  0
   -1.3011    1.3020    2.8936 H   0  0  0  0  0  0  0  0  0  0  0  0
   -1.1408   -0.4819    2.9164 H   0  0  0  0  0  0  0  0  0  0  0  0
   -1.2322    0.3980    1.3634 H   0  0  0  0  0  0  0  0  0  0  0  0
    1.4204    1.9782    4.4089 H   0  0  0  0  0  0  0  0  0  0  0  0
    2.7830    0.8488    4.1708 H   0  0  0  0  0  0  0  0  0  0  0  0
    1.2574    0.2527    4.8664 H   0  0  0  0  0  0  0  0  0  0  0  0
    4.0890    3.4257    1.2454 H   0  0  0  0  0  0  0  0  0  0  0  0
    4.2397    5.8054    1.6507 H   0  0  0  0  0  0  0  0  0  0  0  0
    0.2396    8.2661    2.5232 H   0  0  0  0  0  0  0  0  0  0  0  0
    1.1636   10.7004    2.9619 H   0  0  0  0  0  0  0  0  0  0  0  0
    6.2835   12.2509    2.0387 H   0  0  0  0  0  0  0  0  0  0  0  0
    8.3851   12.1718    3.3522 H   0  0  0  0  0  0  0  0  0  0  0  0
    8.4843   10.8927    5.4966 H   0  0  0  0  0  0  0  0  0  0  0  0
    6.4427    9.7052    6.3126 H   0  0  0  0  0  0  0  0  0  0  0  0
    4.3319    9.8089    5.0128 H   0  0  0  0  0  0  0  0  0  0  0  0
    4.0578   13.5485    3.7179 H   0  0  0  0  0  0  0  0  0  0  0  0
    3.3427   15.6441    2.5984 H   0  0  0  0  0  0  0  0  0  0  0  0
    2.3997   15.5783    0.2854 H   0  0  0  0  0  0  0  0  0  0  0  0
    2.1947   13.3850   -0.8946 H   0  0  0  0  0  0  0  0  0  0  0  0
    2.9324   11.2921    0.2183 H   0  0  0  0  0  0  0  0  0  0  0  0
    5.2957    0.7405   -0.1336 H   0  0  0  0  0  0  0  0  0  0  0  0
    6.6971    1.8188   -1.8687 H   0  0  0  0  0  0  0  0  0  0  0  0
    5.6696    3.3853   -3.5191 H   0  0  0  0  0  0  0  0  0  0  0  0
    3.2216    3.8644   -3.4051 H   0  0  0  0  0  0  0  0  0  0  0  0
    1.8239    2.7970   -1.6503 H   0  0  0  0  0  0  0  0  0  0  0  0
    2.2224   -0.4574   -2.3228 H   0  0  0  0  0  0  0  0  0  0  0  0
    3.3701   -1.9382   -3.9437 H   0  0  0  0  0  0  0  0  0  0  0  0
    5.0456   -3.6104   -3.1502 H   0  0  0  0  0  0  0  0  0  0  0  0
    5.5526   -3.7857   -0.7114 H   0  0  0  0  0  0  0  0  0  0  0  0
    4.3836   -2.3135    0.9127 H   0  0  0  0  0  0  0  0  0  0  0  0
    0.9855   -2.7559   -0.4281 H   0  0  0  0  0  0  0  0  0  0  0  0
    0.2570   -5.0389   -0.1221 H   0  0  0  0  0  0  0  0  0  0  0  0
    0.0270   -6.8278    4.3012 H   0  0  0  0  0  0  0  0  0  0  0  0
   -0.9177   -9.2561    3.8748 H   0  0  0  0  0  0  0  0  0  0  0  0
   -2.6822  -12.2742    1.6646 H   0  0  0  0  0  0  0  0  0  0  0  0
   -1.7246  -14.4206    2.4595 H   0  0  0  0  0  0  0  0  0  0  0  0
    0.7259  -14.6183    2.9059 H   0  0  0  0  0  0  0  0  0  0  0  0
    2.2051  -12.6389    2.5327 H   0  0  0  0  0  0  0  0  0  0  0  0
    1.2487  -10.4991    1.7153 H   0  0  0  0  0  0  0  0  0  0  0  0
   -1.3669  -11.5461   -1.0259 H   0  0  0  0  0  0  0  0  0  0  0  0
   -3.0875  -11.5162   -2.8116 H   0  0  0  0  0  0  0  0  0  0  0  0
   -5.0185   -9.9361   -2.6751 H   0  0  0  0  0  0  0  0  0  0  0  0
   -5.2079   -8.3958   -0.7167 H   0  0  0  0  0  0  0  0  0  0  0  0
   -3.5017   -8.4466    1.0841 H   0  0  0  0  0  0  0  0  0  0  0  0
  2  1  1  1
  1 74  1  0
  1 75  1  0
  1 76  1  0
  2  3  1  0
  2  4  1  0
  2 46  1  0
  3 77  1  0
  3 78  1  0
  3 79  1  0
  4  5  1  0
  4 32  2  0
  5  6  2  0
  5 28  1  0
  6  7  1  0
  6 80  1  0
  7  8  2  0
  7 81  1  0
  8  9  1  0
  8 27  1  0
  9 10  2  0
  9 26  1  0
 10 11  1  0
 10 82  1  0
 11 12  2  0
 11 83  1  0
 12 13  1  0
 12 26  1  0
 13 14  1  0
 13 20  1  0
 14 15  2  0
 14 19  1  0
 15 16  1  0
 15 84  1  0
 16 17  2  0
 16 85  1  0
 17 18  1  0
 17 86  1  0
 18 19  2  0
 18 87  1  0
 19 88  1  0
 20 21  2  0
 20 25  1  0
 21 22  1  0
 21 89  1  0
 22 23  2  0
 22 90  1  0
 23 24  1  0
 23 91  1  0
 24 25  2  0
 24 92  1  0
 25 93  1  0
 27 28  1  0
 27 31  2  0
 28 29  2  0
 29 30  1  0
 30 31  1  0
 32 33  1  0
 32 39  1  0
 33 34  2  0
 33 38  1  0
 34 35  1  0
 34 94  1  0
 35 36  2  0
 35 95  1  0
 36 37  1  0
 36 96  1  0
 37 38  2  0
 37 97  1  0
 38 98  1  0
 39 40  1  0
 39 46  2  0
 40 41  2  0
 40 45  1  0
 41 42  1  0
 41 99  1  0
 42 43  2  0
 42100  1  0
 43 44  1  0
 43101  1  0
 44 45  2  0
 44102  1  0
 45103  1  0
 46 47  1  0
 47 48  2  0
 47 70  1  0
 48 49  1  0
 48104  1  0
 49 50  2  0
 49105  1  0
 50 51  1  0
 50 69  1  0
 51 52  2  0
 51 68  1  0
 52 53  1  0
 52106  1  0
 53 54  2  0
 53107  1  0
 54 55  1  0
 54 68  1  0
 55 56  1  0
 55 62  1  0
 56 57  2  0
 56 61  1  0
 57 58  1  0
 57108  1  0
 58 59  2  0
 58109  1  0
 59 60  1  0
 59110  1  0
 60 61  2  0
 60111  1  0
 61112  1  0
 62 63  2  0
 62 67  1  0
 63 64  1  0
 63113  1  0
 64 65  2  0
 64114  1  0
 65 66  1  0
 65115  1  0
 66 67  2  0
 66116  1  0
 67117  1  0
 69 70  1  0
 69 73  2  0
 70 71  2  0
 71 72  1  0
 72 73  1  0
M  END

