
     RDKit          3D

 44 45  0  0  0  0  0  0  0  0999 V2000
    3.1590   -1.8579    2.6534 C   0  0  0  0  0  0  0  0  0  0  0  0
    2.5741   -2.4159    1.3561 C   0  0  0  0  0  0  0  0  0  0  0  0
    3.0125   -1.6503    0.1000 C   0  0  0  0  0  0  0  0  0  0  0  0
    4.4588   -1.6256   -0.1202 N   0  0  0  0  0  0  0  0  0  0  0  0
    4.9601   -2.9124   -0.5807 C   0  0  0  0  0  0  0  0  0  0  0  0
    6.4857   -3.0662   -0.6334 C   0  0  0  0  0  0  0  0  0  0  0  0
    7.1736   -2.2866   -1.7642 C   0  0  0  0  0  0  0  0  0  0  0  0
    7.4479   -0.7889   -1.5073 C   0  0  2  0  0  0  0  0  0  0  0  0
    8.7772   -0.6219   -0.9273 N   0  0  0  0  0  0  0  0  0  0  0  0
    9.5359    0.5261   -0.9628 C   0  0  0  0  0  0  0  0  0  0  0  0
    9.2386    1.6224   -1.8040 C   0  0  0  0  0  0  0  0  0  0  0  0
   10.0685    2.7420   -1.8363 C   0  0  0  0  0  0  0  0  0  0  0  0
   11.2110    2.8174   -1.0349 C   0  0  0  0  0  0  0  0  0  0  0  0
   12.1128    4.0158   -1.0560 C   0  0  1  0  0  0  0  0  0  0  0  0
   11.6788    4.9696   -1.9004 F   0  0  0  0  0  0  0  0  0  0  0  0
   12.2241    4.5866    0.1635 F   0  0  0  0  0  0  0  0  0  0  0  0
   13.3703    3.6963   -1.4323 F   0  0  0  0  0  0  0  0  0  0  0  0
   11.5131    1.7374   -0.1891 C   0  0  0  0  0  0  0  0  0  0  0  0
   10.6958    0.6180   -0.1517 C   0  0  0  0  0  0  0  0  0  0  0  0
    6.3690   -0.0877   -0.6495 C   0  0  0  0  0  0  0  0  0  0  0  0
    4.9052   -0.4769   -0.9064 C   0  0  0  0  0  0  0  0  0  0  0  0
    2.8260   -2.4395    3.5279 H   0  0  0  0  0  0  0  0  0  0  0  0
    2.8494   -0.8108    2.8114 H   0  0  0  0  0  0  0  0  0  0  0  0
    4.2590   -1.8734    2.6264 H   0  0  0  0  0  0  0  0  0  0  0  0
    1.4710   -2.3821    1.3930 H   0  0  0  0  0  0  0  0  0  0  0  0
    2.8285   -3.4859    1.2605 H   0  0  0  0  0  0  0  0  0  0  0  0
    2.6754   -0.6059    0.2056 H   0  0  0  0  0  0  0  0  0  0  0  0
    2.4724   -2.0606   -0.7851 H   0  0  0  0  0  0  0  0  0  0  0  0
    4.5549   -3.1582   -1.5939 H   0  0  0  0  0  0  0  0  0  0  0  0
    4.5665   -3.6856    0.0962 H   0  0  0  0  0  0  0  0  0  0  0  0
    6.6876   -4.1392   -0.7897 H   0  0  0  0  0  0  0  0  0  0  0  0
    6.9164   -2.8167    0.3523 H   0  0  0  0  0  0  0  0  0  0  0  0
    6.5490   -2.3817   -2.6681 H   0  0  0  0  0  0  0  0  0  0  0  0
    8.1374   -2.7556   -2.0200 H   0  0  0  0  0  0  0  0  0  0  0  0
    7.4752   -0.3049   -2.4968 H   0  0  0  0  0  0  0  0  0  0  0  0
    9.0044   -1.2649   -0.1769 H   0  0  0  0  0  0  0  0  0  0  0  0
    8.3545    1.6056   -2.4417 H   0  0  0  0  0  0  0  0  0  0  0  0
    9.8175    3.5743   -2.4961 H   0  0  0  0  0  0  0  0  0  0  0  0
   12.3997    1.7760    0.4485 H   0  0  0  0  0  0  0  0  0  0  0  0
   10.9492   -0.2146    0.5110 H   0  0  0  0  0  0  0  0  0  0  0  0
    6.4820    0.9999   -0.7872 H   0  0  0  0  0  0  0  0  0  0  0  0
    6.5760   -0.2821    0.4151 H   0  0  0  0  0  0  0  0  0  0  0  0
    4.7246   -0.6163   -1.9991 H   0  0  0  0  0  0  0  0  0  0  0  0
    4.2767    0.3753   -0.6084 H   0  0  0  0  0  0  0  0  0  0  0  0
  1  2  1  0
  1 22  1  0
  1 23  1  0
  1 24  1  0
  2  3  1  0
  2 25  1  0
  2 26  1  0
  3  4  1  0
  3 27  1  0
  3 28  1  0
  4  5  1  0
  4 21  1  0
  5  6  1  0
  5 29  1  0
  5 30  1  0
  6  7  1  0
  6 31  1  0
  6 32  1  0
  7  8  1  0
  7 33  1  0
  7 34  1  0
  8  9  1  0
  8 20  1  0
  8 35  1  6
  9 10  1  0
  9 36  1  0
 10 11  2  0
 10 19  1  0
 11 12  1  0
 11 37  1  0
 12 13  2  0
 12 38  1  0
 13 14  1  0
 13 18  1  0
 14 15  1  6
 14 16  1  0
 14 17  1  0
 18 19  2  0
 18 39  1  0
 19 40  1  0
 20 21  1  0
 20 41  1  0
 20 42  1  0
 21 43  1  0
 21 44  1  0
M  END

