
     RDKit          3D

 62 64  0  0  0  0  0  0  0  0999 V2000
    8.2036    1.5505    5.3398 C   0  0  0  0  0  0  0  0  0  0  0  0
    7.5365    2.3906    4.4013 O   0  0  0  0  0  0  0  0  0  0  0  0
    6.1955    2.4488    4.4997 C   0  0  0  0  0  0  0  0  0  0  0  0
    5.5677    1.8311    5.3298 O   0  0  0  0  0  0  0  0  0  0  0  0
    5.5827    3.3521    3.4787 C   0  0  0  0  0  0  0  0  0  0  0  0
    4.1899    3.4955    3.4797 C   0  0  0  0  0  0  0  0  0  0  0  0
    3.5875    4.3301    2.5411 C   0  0  0  0  0  0  0  0  0  0  0  0
    4.3391    5.0338    1.5910 C   0  0  0  0  0  0  0  0  0  0  0  0
    3.6590    5.9310    0.5865 C   0  0  0  0  0  0  0  0  0  0  0  0
    5.7487    4.8806    1.5998 C   0  0  0  0  0  0  0  0  0  0  0  0
    6.4911    5.5954    0.6368 N   0  0  0  0  0  0  0  0  0  0  0  0
    7.8441    5.6236    0.4385 C   0  0  0  0  0  0  0  0  0  0  0  0
    8.6818    5.0177    1.0787 O   0  0  0  0  0  0  0  0  0  0  0  0
    8.3071    6.5109   -0.7170 C   0  0  0  0  0  0  0  0  0  0  0  0
    7.2089    7.1910   -1.3336 O   0  0  0  0  0  0  0  0  0  0  0  0
    7.4715    7.8903   -2.4683 C   0  0  0  0  0  0  0  0  0  0  0  0
    8.5722    7.9324   -2.9562 O   0  0  0  0  0  0  0  0  0  0  0  0
    6.2188    8.5737   -2.9981 C   0  0  1  0  0  0  0  0  0  0  0  0
    5.7231    9.6791   -2.0326 C   0  0  0  0  0  0  0  0  0  0  0  0
    6.5984   10.9347   -2.1040 C   0  0  0  0  0  0  0  0  0  0  0  0
    6.7057   11.4239   -3.4747 N   0  0  0  0  0  0  0  0  0  0  0  0
    6.1869   12.6716   -3.7715 C   0  0  0  0  0  0  0  0  0  0  0  0
    5.6349   13.3462   -2.9078 O   0  0  0  0  0  0  0  0  0  0  0  0
    6.3299   13.1838   -5.1670 C   0  0  0  0  0  0  0  0  0  0  0  0
    5.7695   14.3658   -5.4929 C   0  0  0  0  0  0  0  0  0  0  0  0
    5.8021   15.0536   -6.7872 C   0  0  0  0  0  0  0  0  0  0  0  0
    5.1393   16.2915   -6.9094 C   0  0  0  0  0  0  0  0  0  0  0  0
    5.1354   16.9937   -8.1159 C   0  0  0  0  0  0  0  0  0  0  0  0
    5.7966   16.4715   -9.2306 C   0  0  0  0  0  0  0  0  0  0  0  0
    6.4612   15.2425   -9.1281 C   0  0  0  0  0  0  0  0  0  0  0  0
    6.4643   14.5426   -7.9236 C   0  0  0  0  0  0  0  0  0  0  0  0
    7.2656   10.4448   -4.4002 C   0  0  0  0  0  0  0  0  0  0  0  0
    6.4360    9.1500   -4.4079 C   0  0  0  0  0  0  0  0  0  0  0  0
    6.3633    4.0421    2.5417 C   0  0  0  0  0  0  0  0  0  0  0  0
    9.2738    1.6267    5.1118 H   0  0  0  0  0  0  0  0  0  0  0  0
    7.8652    0.5075    5.2423 H   0  0  0  0  0  0  0  0  0  0  0  0
    8.0077    1.8818    6.3712 H   0  0  0  0  0  0  0  0  0  0  0  0
    3.6011    2.9493    4.2181 H   0  0  0  0  0  0  0  0  0  0  0  0
    2.5001    4.4446    2.5392 H   0  0  0  0  0  0  0  0  0  0  0  0
    2.5697    5.9272    0.7297 H   0  0  0  0  0  0  0  0  0  0  0  0
    3.8533    5.6096   -0.4526 H   0  0  0  0  0  0  0  0  0  0  0  0
    3.9962    6.9794    0.6735 H   0  0  0  0  0  0  0  0  0  0  0  0
    5.9631    6.1758   -0.0047 H   0  0  0  0  0  0  0  0  0  0  0  0
    8.8344    5.8844   -1.4529 H   0  0  0  0  0  0  0  0  0  0  0  0
    9.0391    7.2351   -0.3262 H   0  0  0  0  0  0  0  0  0  0  0  0
    5.4482    7.7849   -3.0384 H   0  0  0  0  0  0  0  0  0  0  0  0
    5.6893    9.3002   -0.9992 H   0  0  0  0  0  0  0  0  0  0  0  0
    4.6923    9.9492   -2.3143 H   0  0  0  0  0  0  0  0  0  0  0  0
    7.6140   10.7150   -1.7221 H   0  0  0  0  0  0  0  0  0  0  0  0
    6.1729   11.7423   -1.4970 H   0  0  0  0  0  0  0  0  0  0  0  0
    6.8966   12.6191   -5.9067 H   0  0  0  0  0  0  0  0  0  0  0  0
    5.2268   14.8732   -4.6882 H   0  0  0  0  0  0  0  0  0  0  0  0
    4.6218   16.7026   -6.0385 H   0  0  0  0  0  0  0  0  0  0  0  0
    4.6147   17.9521   -8.1857 H   0  0  0  0  0  0  0  0  0  0  0  0
    5.7965   17.0180  -10.1771 H   0  0  0  0  0  0  0  0  0  0  0  0
    6.9810   14.8291   -9.9963 H   0  0  0  0  0  0  0  0  0  0  0  0
    6.9890   13.5865   -7.8645 H   0  0  0  0  0  0  0  0  0  0  0  0
    8.3011   10.2100   -4.0998 H   0  0  0  0  0  0  0  0  0  0  0  0
    7.3085   10.8521   -5.4152 H   0  0  0  0  0  0  0  0  0  0  0  0
    6.9299    8.4065   -5.0522 H   0  0  0  0  0  0  0  0  0  0  0  0
    5.4473    9.3650   -4.8465 H   0  0  0  0  0  0  0  0  0  0  0  0
    7.4440    3.9334    2.5382 H   0  0  0  0  0  0  0  0  0  0  0  0
  1  2  1  0
  1 35  1  0
  1 36  1  0
  1 37  1  0
  2  3  1  0
  3  4  2  0
  3  5  1  0
  5  6  2  0
  5 34  1  0
  6  7  1  0
  6 38  1  0
  7  8  2  0
  7 39  1  0
  8  9  1  0
  8 10  1  0
  9 40  1  0
  9 41  1  0
  9 42  1  0
 10 11  1  0
 10 34  2  0
 11 12  1  0
 11 43  1  0
 12 13  2  0
 12 14  1  0
 14 15  1  0
 14 44  1  0
 14 45  1  0
 15 16  1  0
 16 17  2  0
 16 18  1  0
 18 19  1  0
 18 33  1  0
 18 46  1  6
 19 20  1  0
 19 47  1  0
 19 48  1  0
 20 21  1  0
 20 49  1  0
 20 50  1  0
 21 22  1  0
 21 32  1  0
 22 23  2  0
 22 24  1  0
 24 25  2  0
 24 51  1  0
 25 26  1  0
 25 52  1  0
 26 27  2  0
 26 31  1  0
 27 28  1  0
 27 53  1  0
 28 29  2  0
 28 54  1  0
 29 30  1  0
 29 55  1  0
 30 31  2  0
 30 56  1  0
 31 57  1  0
 32 33  1  0
 32 58  1  0
 32 59  1  0
 33 60  1  0
 33 61  1  0
 34 62  1  0
M  END

