
     RDKit          3D

 39 39  0  0  0  0  0  0  0  0999 V2000
    6.3535    2.8334    2.9702 C   0  0  0  0  0  0  0  0  0  0  0  0
    5.6048    1.7740    2.4100 O   0  0  0  0  0  0  0  0  0  0  0  0
    4.3974    2.0226    1.8443 C   0  0  0  0  0  0  0  0  0  0  0  0
    3.7821    3.2699    1.8038 C   0  0  0  0  0  0  0  0  0  0  0  0
    2.5178    3.4116    1.1914 C   0  0  0  0  0  0  0  0  0  0  0  0
    1.8892    4.7009    1.1547 C   0  0  0  0  0  0  0  0  0  0  0  0
    1.3841    5.7469    1.1281 N   0  0  0  0  0  0  0  0  0  0  0  0
    1.8882    2.2939    0.6263 C   0  0  0  0  0  0  0  0  0  0  0  0
    2.5051    1.0421    0.6643 C   0  0  0  0  0  0  0  0  0  0  0  0
    3.7604    0.8866    1.2678 C   0  0  0  0  0  0  0  0  0  0  0  0
    4.4603   -0.3215    1.3594 N   0  0  0  0  0  0  0  0  0  0  0  0
    4.0807   -1.5496    0.8938 C   0  0  0  0  0  0  0  0  0  0  0  0
    3.0385   -1.7776    0.3019 O   0  0  0  0  0  0  0  0  0  0  0  0
    5.0458   -2.7200    1.1902 C   0  0  1  0  0  0  0  0  0  0  0  0
    6.5227   -2.3394    1.1425 C   0  0  0  0  0  0  0  0  0  0  0  0
    6.9940   -1.3777    1.7020 O   0  0  0  0  0  0  0  0  0  0  0  0
    7.3285   -3.1645    0.4510 O   0  0  0  0  0  0  0  0  0  0  0  0
    4.6932   -3.4817    2.5403 C   0  0  1  0  0  0  0  0  0  0  0  0
    3.2537   -4.0221    2.4489 C   0  0  0  0  0  0  0  0  0  0  0  0
    5.6552   -4.6764    2.7027 C   0  0  0  0  0  0  0  0  0  0  0  0
    4.8238   -2.5557    3.7628 C   0  0  0  0  0  0  0  0  0  0  0  0
    7.2897    2.3916    3.3344 H   0  0  0  0  0  0  0  0  0  0  0  0
    5.8208    3.3032    3.8156 H   0  0  0  0  0  0  0  0  0  0  0  0
    6.5865    3.6061    2.2168 H   0  0  0  0  0  0  0  0  0  0  0  0
    4.2625    4.1437    2.2412 H   0  0  0  0  0  0  0  0  0  0  0  0
    0.9115    2.4031    0.1525 H   0  0  0  0  0  0  0  0  0  0  0  0
    2.0262    0.1702    0.2260 H   0  0  0  0  0  0  0  0  0  0  0  0
    5.3908   -0.2636    1.7831 H   0  0  0  0  0  0  0  0  0  0  0  0
    4.8297   -3.4299    0.3762 H   0  0  0  0  0  0  0  0  0  0  0  0
    6.8190   -3.8852    0.0545 H   0  0  0  0  0  0  0  0  0  0  0  0
    3.1341   -4.7084    1.5954 H   0  0  0  0  0  0  0  0  0  0  0  0
    2.5144   -3.2187    2.3295 H   0  0  0  0  0  0  0  0  0  0  0  0
    3.0115   -4.5794    3.3680 H   0  0  0  0  0  0  0  0  0  0  0  0
    5.6093   -5.3558    1.8342 H   0  0  0  0  0  0  0  0  0  0  0  0
    5.3708   -5.2659    3.5883 H   0  0  0  0  0  0  0  0  0  0  0  0
    6.7011   -4.3618    2.8413 H   0  0  0  0  0  0  0  0  0  0  0  0
    4.1060   -1.7229    3.7213 H   0  0  0  0  0  0  0  0  0  0  0  0
    5.8343   -2.1301    3.8490 H   0  0  0  0  0  0  0  0  0  0  0  0
    4.6162   -3.1264    4.6818 H   0  0  0  0  0  0  0  0  0  0  0  0
  1  2  1  0
  1 22  1  0
  1 23  1  0
  1 24  1  0
  2  3  1  0
  3  4  2  0
  3 10  1  0
  4  5  1  0
  4 25  1  0
  5  6  1  0
  5  8  2  0
  6  7  3  0
  8  9  1  0
  8 26  1  0
  9 10  2  0
  9 27  1  0
 10 11  1  0
 11 12  1  0
 11 28  1  0
 12 13  2  0
 12 14  1  0
 14 15  1  0
 14 18  1  0
 14 29  1  6
 15 16  2  0
 15 17  1  0
 17 30  1  0
 18 19  1  6
 18 20  1  0
 18 21  1  0
 19 31  1  0
 19 32  1  0
 19 33  1  0
 20 34  1  0
 20 35  1  0
 20 36  1  0
 21 37  1  0
 21 38  1  0
 21 39  1  0
M  END

