
     RDKit          3D

 32 34  0  0  0  0  0  0  0  0999 V2000
    1.0784    0.3623    0.5706 O   0  0  0  0  0  0  0  0  0  0  0  0
    2.3996    0.0121    0.0972 S   0  0  1  0  0  0  0  0  0  0  0  0
    3.6252    0.3065    0.8166 O   0  0  0  0  0  0  0  0  0  0  0  0
    2.4268   -1.5678   -0.4641 O   0  0  0  0  0  0  0  0  0  0  0  0
    2.4853   -2.6043    0.4427 C   0  0  0  0  0  0  0  0  0  0  0  0
    2.7072   -3.8956   -0.1041 C   0  0  0  0  0  0  0  0  0  0  0  0
    2.7677   -4.9381    0.7873 C   0  0  0  0  0  0  0  0  0  0  0  0
    2.6201   -4.6961    2.1837 C   0  0  0  0  0  0  0  0  0  0  0  0
    2.6924   -5.7421    3.0439 N   0  0  0  0  0  0  0  0  0  0  0  0
    2.5532   -5.4887    4.3234 C   0  0  0  0  0  0  0  0  0  0  0  0
    2.3300   -4.1867    4.8304 C   0  0  0  0  0  0  0  0  0  0  0  0
    2.2175   -4.0706    6.1574 F   0  0  0  0  0  0  0  0  0  0  0  0
    2.2468   -3.0712    4.0097 C   0  0  0  0  0  0  0  0  0  0  0  0
    2.0125   -1.7085    4.5537 C   0  0  0  0  0  0  0  0  0  0  0  0
    2.7224   -0.5880    4.0914 C   0  0  0  0  0  0  0  0  0  0  0  0
    2.4599    0.6605    4.6614 C   0  0  0  0  0  0  0  0  0  0  0  0
    1.5620    0.8644    5.6280 N   0  0  0  0  0  0  0  0  0  0  0  0
    0.8823   -0.1982    6.0644 C   0  0  0  0  0  0  0  0  0  0  0  0
    1.0673   -1.4915    5.5715 C   0  0  0  0  0  0  0  0  0  0  0  0
    2.4033   -3.3448    2.6086 C   0  0  0  0  0  0  0  0  0  0  0  0
    2.3332   -2.3343    1.7031 N   0  0  0  0  0  0  0  0  0  0  0  0
    2.5886    0.7150   -1.6400 C   0  0  1  0  0  0  0  0  0  0  0  0
    3.7286    0.3088   -2.1738 F   0  0  0  0  0  0  0  0  0  0  0  0
    1.5726    0.3356   -2.3970 F   0  0  0  0  0  0  0  0  0  0  0  0
    2.5929    2.0349   -1.5217 F   0  0  0  0  0  0  0  0  0  0  0  0
    2.8210   -4.0247   -1.1808 H   0  0  0  0  0  0  0  0  0  0  0  0
    2.9330   -5.9678    0.4641 H   0  0  0  0  0  0  0  0  0  0  0  0
    2.6158   -6.3184    5.0375 H   0  0  0  0  0  0  0  0  0  0  0  0
    3.4596   -0.6705    3.2945 H   0  0  0  0  0  0  0  0  0  0  0  0
    3.0081    1.5404    4.3054 H   0  0  0  0  0  0  0  0  0  0  0  0
    0.1438   -0.0187    6.8549 H   0  0  0  0  0  0  0  0  0  0  0  0
    0.4752   -2.3142    5.9741 H   0  0  0  0  0  0  0  0  0  0  0  0
  1  2  2  0
  2  3  2  0
  2  4  1  6
  2 22  1  0
  4  5  1  0
  5  6  2  0
  5 21  1  0
  6  7  1  0
  6 26  1  0
  7  8  2  0
  7 27  1  0
  8  9  1  0
  8 20  1  0
  9 10  2  0
 10 11  1  0
 10 28  1  0
 11 12  1  0
 11 13  2  0
 13 14  1  0
 13 20  1  0
 14 15  2  0
 14 19  1  0
 15 16  1  0
 15 29  1  0
 16 17  2  0
 16 30  1  0
 17 18  1  0
 18 19  2  0
 18 31  1  0
 19 32  1  0
 20 21  2  0
 22 23  1  6
 22 24  1  0
 22 25  1  0
M  END

