
     RDKit          3D

 37 37  0  0  0  0  0  0  0  0999 V2000
    0.8173    2.5726   -0.0961 C   0  0  0  0  0  0  0  0  0  0  0  0
    2.3325    2.3678   -0.1255 C   0  0  0  0  0  0  0  0  0  0  0  0
    2.9390    2.1574    1.2653 C   0  0  0  0  0  0  0  0  0  0  0  0
    4.4422    1.9473    1.2259 C   0  0  0  0  0  0  0  0  0  0  0  0
    4.9103    1.7895    2.5784 O   0  0  0  0  0  0  0  0  0  0  0  0
    6.2412    1.6091    2.7561 C   0  0  0  0  0  0  0  0  0  0  0  0
    7.0351    2.6001    3.3617 C   0  0  0  0  0  0  0  0  0  0  0  0
    6.1144    4.4180    3.9671 I   0  0  0  0  0  0  0  0  0  0  0  0
    8.4011    2.4263    3.5750 C   0  0  0  0  0  0  0  0  0  0  0  0
    9.0320    1.2308    3.1680 C   0  0  0  0  0  0  0  0  0  0  0  0
   10.4552    0.9023    3.3003 C   0  0  0  0  0  0  0  0  0  0  0  0
   11.6022    1.5715    3.6056 C   0  0  0  0  0  0  0  0  0  0  0  0
   13.1404    0.6332    3.4005 S   0  0  0  0  0  0  0  0  0  0  0  0
   11.7568    3.0247    3.9694 C   0  0  0  0  0  0  0  0  0  0  0  0
   10.8730    3.7069    4.4298 O   0  0  0  0  0  0  0  0  0  0  0  0
   12.9737    3.5483    3.7602 O   0  0  0  0  0  0  0  0  0  0  0  0
    8.2303    0.2202    2.5890 C   0  0  0  0  0  0  0  0  0  0  0  0
    6.8655    0.3941    2.3854 C   0  0  0  0  0  0  0  0  0  0  0  0
    6.1444   -0.6075    1.7947 O   0  0  0  0  0  0  0  0  0  0  0  0
    5.2425   -1.3125    2.6433 C   0  0  0  0  0  0  0  0  0  0  0  0
    0.4114    2.7232   -1.1089 H   0  0  0  0  0  0  0  0  0  0  0  0
    0.5444    3.4541    0.5075 H   0  0  0  0  0  0  0  0  0  0  0  0
    0.3035    1.7011    0.3430 H   0  0  0  0  0  0  0  0  0  0  0  0
    2.8119    3.2402   -0.6055 H   0  0  0  0  0  0  0  0  0  0  0  0
    2.5748    1.5010   -0.7670 H   0  0  0  0  0  0  0  0  0  0  0  0
    2.4705    1.2838    1.7521 H   0  0  0  0  0  0  0  0  0  0  0  0
    2.7221    3.0259    1.9105 H   0  0  0  0  0  0  0  0  0  0  0  0
    4.9480    2.8204    0.7754 H   0  0  0  0  0  0  0  0  0  0  0  0
    4.7073    1.0541    0.6355 H   0  0  0  0  0  0  0  0  0  0  0  0
    8.9931    3.2024    4.0545 H   0  0  0  0  0  0  0  0  0  0  0  0
   10.6389   -0.1473    3.0480 H   0  0  0  0  0  0  0  0  0  0  0  0
   13.5395    0.6508    4.6986 H   0  0  0  0  0  0  0  0  0  0  0  0
   13.5564    2.8596    3.3845 H   0  0  0  0  0  0  0  0  0  0  0  0
    8.6679   -0.7307    2.2775 H   0  0  0  0  0  0  0  0  0  0  0  0
    4.7443   -2.0662    2.0179 H   0  0  0  0  0  0  0  0  0  0  0  0
    4.4867   -0.6404    3.0807 H   0  0  0  0  0  0  0  0  0  0  0  0
    5.7867   -1.8237    3.4573 H   0  0  0  0  0  0  0  0  0  0  0  0
  1  2  1  0
  1 21  1  0
  1 22  1  0
  1 23  1  0
  2  3  1  0
  2 24  1  0
  2 25  1  0
  3  4  1  0
  3 26  1  0
  3 27  1  0
  4  5  1  0
  4 28  1  0
  4 29  1  0
  5  6  1  0
  6  7  2  0
  6 18  1  0
  7  8  1  0
  7  9  1  0
  9 10  2  0
  9 30  1  0
 10 11  1  0
 10 17  1  0
 11 12  2  0
 11 31  1  0
 12 13  1  0
 12 14  1  0
 13 32  1  0
 14 15  2  0
 14 16  1  0
 16 33  1  0
 17 18  2  0
 17 34  1  0
 18 19  1  0
 19 20  1  0
 20 35  1  0
 20 36  1  0
 20 37  1  0
M  END

