
     RDKit          3D

 42 43  0  0  0  0  0  0  0  0999 V2000
    1.2733    0.6042   -0.3547 C   0  0  0  0  0  0  0  0  0  0  0  0
    2.6927    0.7023    0.1947 C   0  0  1  0  0  0  0  0  0  0  0  0
    2.8333    0.5955    1.7209 C   0  0  0  0  0  0  0  0  0  0  0  0
    4.2920    0.1859    1.9120 C   0  0  0  0  0  0  0  0  0  0  0  0
    4.5139   -0.7322    0.8006 N   0  0  0  0  0  0  0  0  0  0  0  0
    5.7602   -1.4831    0.6388 C   0  0  1  0  0  0  0  0  0  0  0  0
    6.2686   -2.0562    1.9762 C   0  0  0  0  0  0  0  0  0  0  0  0
    5.3474   -3.1450    2.5386 C   0  0  0  0  0  0  0  0  0  0  0  0
    5.1318   -4.2826    1.5317 C   0  0  0  0  0  0  0  0  0  0  0  0
    4.6463   -3.7297    0.1846 C   0  0  2  0  0  0  0  0  0  0  0  0
    4.5076   -5.1418   -0.9837 S   0  0  1  0  0  0  0  0  0  0  0  0
    3.6042   -4.4984   -2.4114 C   0  0  0  0  0  0  0  0  0  0  0  0
    5.8664   -5.4925   -1.4316 O   0  0  0  0  0  0  0  0  0  0  0  0
    3.6472   -6.1547   -0.3509 O   0  0  0  0  0  0  0  0  0  0  0  0
    5.5844   -2.6491   -0.3588 C   0  0  0  0  0  0  0  0  0  0  0  0
    3.6510   -0.4134   -0.3331 C   0  0  2  0  0  0  0  0  0  0  0  0
    4.3572    0.0866   -1.6015 C   0  0  0  0  0  0  0  0  0  0  0  0
    4.0069   -0.2036   -2.7143 O   0  0  0  0  0  0  0  0  0  0  0  0
    5.3993    0.9238   -1.3966 O   0  0  0  0  0  0  0  0  0  0  0  0
    0.6478    1.4301    0.0198 H   0  0  0  0  0  0  0  0  0  0  0  0
    0.7980   -0.3441   -0.0536 H   0  0  0  0  0  0  0  0  0  0  0  0
    1.2707    0.6502   -1.4548 H   0  0  0  0  0  0  0  0  0  0  0  0
    3.1149    1.6779   -0.1073 H   0  0  0  0  0  0  0  0  0  0  0  0
    2.1732   -0.1992    2.1072 H   0  0  0  0  0  0  0  0  0  0  0  0
    2.5744    1.5328    2.2366 H   0  0  0  0  0  0  0  0  0  0  0  0
    4.4578   -0.3047    2.8829 H   0  0  0  0  0  0  0  0  0  0  0  0
    4.9602    1.0804    1.8958 H   0  0  0  0  0  0  0  0  0  0  0  0
    6.5696   -0.8374    0.2287 H   0  0  0  0  0  0  0  0  0  0  0  0
    6.4231   -1.2525    2.7131 H   0  0  0  0  0  0  0  0  0  0  0  0
    7.2675   -2.4840    1.7854 H   0  0  0  0  0  0  0  0  0  0  0  0
    4.3715   -2.7058    2.8072 H   0  0  0  0  0  0  0  0  0  0  0  0
    5.7738   -3.5541    3.4692 H   0  0  0  0  0  0  0  0  0  0  0  0
    4.4112   -5.0208    1.9122 H   0  0  0  0  0  0  0  0  0  0  0  0
    6.0821   -4.8187    1.3640 H   0  0  0  0  0  0  0  0  0  0  0  0
    3.6153   -3.3529    0.2852 H   0  0  0  0  0  0  0  0  0  0  0  0
    4.1344   -3.6468   -2.8567 H   0  0  0  0  0  0  0  0  0  0  0  0
    2.5881   -4.2251   -2.0992 H   0  0  0  0  0  0  0  0  0  0  0  0
    3.5741   -5.3404   -3.1165 H   0  0  0  0  0  0  0  0  0  0  0  0
    5.2400   -2.2778   -1.3345 H   0  0  0  0  0  0  0  0  0  0  0  0
    6.5708   -3.1032   -0.5399 H   0  0  0  0  0  0  0  0  0  0  0  0
    3.0630   -1.2881   -0.6641 H   0  0  0  0  0  0  0  0  0  0  0  0
    5.5618    1.0072   -0.4448 H   0  0  0  0  0  0  0  0  0  0  0  0
  1  2  1  0
  1 20  1  0
  1 21  1  0
  1 22  1  0
  2  3  1  0
  2 16  1  0
  2 23  1  6
  3  4  1  0
  3 24  1  0
  3 25  1  0
  4  5  1  0
  4 26  1  0
  4 27  1  0
  5  6  1  0
  5 16  1  0
  6  7  1  0
  6 15  1  0
  6 28  1  6
  7  8  1  0
  7 29  1  0
  7 30  1  0
  8  9  1  0
  8 31  1  0
  8 32  1  0
  9 10  1  0
  9 33  1  0
  9 34  1  0
 10 11  1  0
 10 15  1  0
 10 35  1  1
 11 12  1  6
 11 13  2  0
 11 14  2  0
 12 36  1  0
 12 37  1  0
 12 38  1  0
 15 39  1  0
 15 40  1  0
 16 17  1  0
 16 41  1  6
 17 18  2  0
 17 19  1  0
 19 42  1  0
M  END

