
     RDKit          3D

 42 45  0  0  0  0  0  0  0  0999 V2000
    2.1561   -0.5747   -1.6746 O   0  0  0  0  0  0  0  0  0  0  0  0
    3.0028   -0.3675   -0.8191 C   0  0  0  0  0  0  0  0  0  0  0  0
    3.4632    0.8842   -0.5047 N   0  0  0  0  0  0  0  0  0  0  0  0
    2.8958    2.0155   -1.2357 C   0  0  0  0  0  0  0  0  0  0  0  0
    3.7183    2.4539   -2.4355 C   0  0  0  0  0  0  0  0  0  0  0  0
    3.8361    1.6349   -3.5696 C   0  0  0  0  0  0  0  0  0  0  0  0
    4.6077    2.0792   -4.6458 C   0  0  0  0  0  0  0  0  0  0  0  0
    5.2486    3.2530   -4.6666 N   0  0  0  0  0  0  0  0  0  0  0  0
    5.1329    4.0332   -3.5914 C   0  0  0  0  0  0  0  0  0  0  0  0
    4.3868    3.6831   -2.4598 C   0  0  0  0  0  0  0  0  0  0  0  0
    4.6694    1.1367    0.2826 C   0  0  0  0  0  0  0  0  0  0  0  0
    4.9142    0.0336    1.2665 C   0  0  0  0  0  0  0  0  0  0  0  0
    4.3711   -1.1982    1.0459 C   0  0  0  0  0  0  0  0  0  0  0  0
    4.6431   -2.2594    1.8800 N   0  0  0  0  0  0  0  0  0  0  0  0
    5.0845   -2.0167    3.2543 C   0  0  0  0  0  0  0  0  0  0  0  0
    5.9807   -0.8028    3.3023 C   0  0  0  0  0  0  0  0  0  0  0  0
    5.8353    0.1703    2.3811 C   0  0  0  0  0  0  0  0  0  0  0  0
    3.5490   -1.4400   -0.0731 N   0  0  0  0  0  0  0  0  0  0  0  0
    3.2227   -2.7741   -0.4748 C   0  0  0  0  0  0  0  0  0  0  0  0
    4.2477   -3.6714   -0.8101 C   0  0  0  0  0  0  0  0  0  0  0  0
    3.9386   -4.9774   -1.1869 C   0  0  0  0  0  0  0  0  0  0  0  0
    2.6075   -5.4014   -1.2554 C   0  0  0  0  0  0  0  0  0  0  0  0
    2.2562   -7.0329   -1.7418 Cl  0  0  0  0  0  0  0  0  0  0  0  0
    1.5786   -4.4988   -0.9321 C   0  0  0  0  0  0  0  0  0  0  0  0
   -0.0910   -4.9821   -1.0018 Cl  0  0  0  0  0  0  0  0  0  0  0  0
    1.8889   -3.1952   -0.5377 C   0  0  0  0  0  0  0  0  0  0  0  0
    2.7940    2.8567   -0.5309 H   0  0  0  0  0  0  0  0  0  0  0  0
    1.8932    1.7165   -1.5678 H   0  0  0  0  0  0  0  0  0  0  0  0
    3.3230    0.6711   -3.6073 H   0  0  0  0  0  0  0  0  0  0  0  0
    4.7076    1.4534   -5.5408 H   0  0  0  0  0  0  0  0  0  0  0  0
    5.6619    4.9937   -3.6225 H   0  0  0  0  0  0  0  0  0  0  0  0
    4.3289    4.3688   -1.6096 H   0  0  0  0  0  0  0  0  0  0  0  0
    4.5248    2.0951    0.8138 H   0  0  0  0  0  0  0  0  0  0  0  0
    5.5385    1.2945   -0.3935 H   0  0  0  0  0  0  0  0  0  0  0  0
    4.0952   -3.0985    1.7337 H   0  0  0  0  0  0  0  0  0  0  0  0
    5.6166   -2.9156    3.6082 H   0  0  0  0  0  0  0  0  0  0  0  0
    4.2135   -1.8817    3.9408 H   0  0  0  0  0  0  0  0  0  0  0  0
    6.6903   -0.7115    4.1274 H   0  0  0  0  0  0  0  0  0  0  0  0
    6.4430    1.0790    2.4422 H   0  0  0  0  0  0  0  0  0  0  0  0
    5.2882   -3.3452   -0.7749 H   0  0  0  0  0  0  0  0  0  0  0  0
    4.7303   -5.6814   -1.4475 H   0  0  0  0  0  0  0  0  0  0  0  0
    1.0829   -2.5050   -0.2965 H   0  0  0  0  0  0  0  0  0  0  0  0
  1  2  2  0
  2  3  1  0
  2 18  1  0
  3  4  1  0
  3 11  1  0
  4  5  1  0
  4 27  1  0
  4 28  1  0
  5  6  2  0
  5 10  1  0
  6  7  1  0
  6 29  1  0
  7  8  2  0
  7 30  1  0
  8  9  1  0
  9 10  2  0
  9 31  1  0
 10 32  1  0
 11 12  1  0
 11 33  1  0
 11 34  1  0
 12 13  2  0
 12 17  1  0
 13 14  1  0
 13 18  1  0
 14 15  1  0
 14 35  1  0
 15 16  1  0
 15 36  1  0
 15 37  1  0
 16 17  2  0
 16 38  1  0
 17 39  1  0
 18 19  1  0
 19 20  2  0
 19 26  1  0
 20 21  1  0
 20 40  1  0
 21 22  2  0
 21 41  1  0
 22 23  1  0
 22 24  1  0
 24 25  1  0
 24 26  2  0
 26 42  1  0
M  END

