
     RDKit          3D

 81 84  0  0  0  0  0  0  0  0999 V2000
   -0.2107    0.3960   -1.7494 C   0  0  0  0  0  0  0  0  0  0  0  0
    1.2361    0.0952   -1.3531 C   0  0  0  0  0  0  0  0  0  0  0  0
    2.2638    0.8838   -2.1732 C   0  0  0  0  0  0  0  0  0  0  0  0
    3.7348    0.6719   -1.7570 C   0  0  1  0  0  0  0  0  0  0  0  0
    4.2649   -0.7518   -2.0371 C   0  0  0  0  0  0  0  0  0  0  0  0
    4.5391   -1.0185   -3.5267 C   0  0  0  0  0  0  0  0  0  0  0  0
    5.4969    0.0134   -4.1720 C   0  0  2  0  0  0  0  0  0  0  0  0
    6.9777   -0.1953   -3.7240 C   0  0  1  0  0  0  0  0  0  0  0  0
    7.5899   -1.4877   -4.3172 C   0  0  0  0  0  0  0  0  0  0  0  0
    7.9370   -1.3749   -5.8119 C   0  0  0  0  0  0  0  0  0  0  0  0
    8.8691   -0.1861   -6.1472 C   0  0  2  0  0  0  0  0  0  0  0  0
   10.3435   -0.4371   -5.7057 C   0  0  1  0  0  0  0  0  0  0  0  0
   11.0178   -1.5434   -6.5477 C   0  0  0  0  0  0  0  0  0  0  0  0
   11.4953   -1.0580   -7.8939 C   0  0  0  0  0  0  0  0  0  0  0  0
   11.6509    0.2353   -8.2221 C   0  0  0  0  0  0  0  0  0  0  0  0
   12.0842    0.6420   -9.6104 C   0  0  0  0  0  0  0  0  0  0  0  0
   10.9528    1.2174  -10.4702 C   0  0  0  0  0  0  0  0  0  0  0  0
    9.8975    1.5413   -9.9593 O   0  0  0  0  0  0  0  0  0  0  0  0
   11.0985    1.3110  -11.9759 C   0  0  0  0  0  0  0  0  0  0  0  0
    9.8764    1.3157  -12.6737 C   0  0  0  0  0  0  0  0  0  0  0  0
    9.8267    1.3635  -14.0625 C   0  0  0  0  0  0  0  0  0  0  0  0
   11.0030    1.4285  -14.8193 C   0  0  0  0  0  0  0  0  0  0  0  0
   11.0004    1.5111  -16.3276 C   0  0  0  0  0  0  0  0  0  0  0  0
   11.2669    2.9272  -16.8629 C   0  0  0  0  0  0  0  0  0  0  0  0
   12.2045    1.4467  -14.1031 C   0  0  0  0  0  0  0  0  0  0  0  0
   13.3444    1.5298  -14.8293 F   0  0  0  0  0  0  0  0  0  0  0  0
   12.3139    1.3908  -12.7062 C   0  0  0  0  0  0  0  0  0  0  0  0
   13.7007    1.4636  -12.1082 C   0  0  0  0  0  0  0  0  0  0  0  0
   11.3905    1.3365   -7.2187 C   0  0  0  0  0  0  0  0  0  0  0  0
   11.2471    0.8096   -5.7856 C   0  0  0  0  0  0  0  0  0  0  0  0
    8.2335    1.0931   -5.5566 C   0  0  0  0  0  0  0  0  0  0  0  0
    7.9307    0.9746   -4.0562 C   0  0  0  0  0  0  0  0  0  0  0  0
    4.9247    1.4234   -3.9038 C   0  0  0  0  0  0  0  0  0  0  0  0
    4.6800    1.7019   -2.4133 C   0  0  0  0  0  0  0  0  0  0  0  0
   -0.9264   -0.1816   -1.1424 H   0  0  0  0  0  0  0  0  0  0  0  0
   -0.3966    0.1472   -2.8079 H   0  0  0  0  0  0  0  0  0  0  0  0
   -0.4494    1.4649   -1.6178 H   0  0  0  0  0  0  0  0  0  0  0  0
    1.4207   -0.9881   -1.4575 H   0  0  0  0  0  0  0  0  0  0  0  0
    1.3787    0.3215   -0.2804 H   0  0  0  0  0  0  0  0  0  0  0  0
    2.0318    1.9607   -2.0784 H   0  0  0  0  0  0  0  0  0  0  0  0
    2.1248    0.6469   -3.2430 H   0  0  0  0  0  0  0  0  0  0  0  0
    3.7749    0.8341   -0.6639 H   0  0  0  0  0  0  0  0  0  0  0  0
    3.5638   -1.5092   -1.6494 H   0  0  0  0  0  0  0  0  0  0  0  0
    5.1964   -0.8944   -1.4623 H   0  0  0  0  0  0  0  0  0  0  0  0
    3.5851   -0.9983   -4.0821 H   0  0  0  0  0  0  0  0  0  0  0  0
    4.9271   -2.0425   -3.6490 H   0  0  0  0  0  0  0  0  0  0  0  0
    5.4572   -0.1438   -5.2632 H   0  0  0  0  0  0  0  0  0  0  0  0
    6.9785   -0.3072   -2.6263 H   0  0  0  0  0  0  0  0  0  0  0  0
    6.9159   -2.3458   -4.1636 H   0  0  0  0  0  0  0  0  0  0  0  0
    8.5042   -1.7292   -3.7474 H   0  0  0  0  0  0  0  0  0  0  0  0
    7.0075   -1.2563   -6.3950 H   0  0  0  0  0  0  0  0  0  0  0  0
    8.3738   -2.3266   -6.1554 H   0  0  0  0  0  0  0  0  0  0  0  0
    8.8808   -0.0693   -7.2443 H   0  0  0  0  0  0  0  0  0  0  0  0
   10.3391   -0.7748   -4.6557 H   0  0  0  0  0  0  0  0  0  0  0  0
   10.3385   -2.3991   -6.6941 H   0  0  0  0  0  0  0  0  0  0  0  0
   11.8768   -1.9598   -5.9862 H   0  0  0  0  0  0  0  0  0  0  0  0
   11.7167   -1.8268   -8.6446 H   0  0  0  0  0  0  0  0  0  0  0  0
   12.5295   -0.2114  -10.1462 H   0  0  0  0  0  0  0  0  0  0  0  0
   12.8774    1.4079   -9.5480 H   0  0  0  0  0  0  0  0  0  0  0  0
    8.9590    1.2744  -12.0856 H   0  0  0  0  0  0  0  0  0  0  0  0
    8.8613    1.3470  -14.5756 H   0  0  0  0  0  0  0  0  0  0  0  0
   10.0260    1.1533  -16.6972 H   0  0  0  0  0  0  0  0  0  0  0  0
   11.7641    0.8252  -16.7297 H   0  0  0  0  0  0  0  0  0  0  0  0
   10.5070    3.6387  -16.5026 H   0  0  0  0  0  0  0  0  0  0  0  0
   11.2471    2.9375  -17.9643 H   0  0  0  0  0  0  0  0  0  0  0  0
   12.2535    3.2917  -16.5387 H   0  0  0  0  0  0  0  0  0  0  0  0
   14.4303    1.7550  -12.8726 H   0  0  0  0  0  0  0  0  0  0  0  0
   14.0251    0.4944  -11.6978 H   0  0  0  0  0  0  0  0  0  0  0  0
   13.7541    2.1996  -11.2938 H   0  0  0  0  0  0  0  0  0  0  0  0
   10.4891    1.8889   -7.5350 H   0  0  0  0  0  0  0  0  0  0  0  0
   12.2155    2.0719   -7.2657 H   0  0  0  0  0  0  0  0  0  0  0  0
   10.8873    1.6106   -5.1218 H   0  0  0  0  0  0  0  0  0  0  0  0
   12.2451    0.5280   -5.4055 H   0  0  0  0  0  0  0  0  0  0  0  0
    7.2951    1.2903   -6.1037 H   0  0  0  0  0  0  0  0  0  0  0  0
    8.8675    1.9727   -5.7457 H   0  0  0  0  0  0  0  0  0  0  0  0
    7.5346    1.9278   -3.6733 H   0  0  0  0  0  0  0  0  0  0  0  0
    8.8748    0.8107   -3.5070 H   0  0  0  0  0  0  0  0  0  0  0  0
    3.9687    1.5110   -4.4490 H   0  0  0  0  0  0  0  0  0  0  0  0
    5.5741    2.2026   -4.3315 H   0  0  0  0  0  0  0  0  0  0  0  0
    4.2712    2.7191   -2.2840 H   0  0  0  0  0  0  0  0  0  0  0  0
    5.6447    1.6922   -1.8759 H   0  0  0  0  0  0  0  0  0  0  0  0
  1  2  1  0
  1 35  1  0
  1 36  1  0
  1 37  1  0
  2  3  1  0
  2 38  1  0
  2 39  1  0
  3  4  1  0
  3 40  1  0
  3 41  1  0
  4  5  1  0
  4 34  1  0
  4 42  1  1
  5  6  1  0
  5 43  1  0
  5 44  1  0
  6  7  1  0
  6 45  1  0
  6 46  1  0
  7  8  1  0
  7 33  1  0
  7 47  1  6
  8  9  1  0
  8 32  1  0
  8 48  1  1
  9 10  1  0
  9 49  1  0
  9 50  1  0
 10 11  1  0
 10 51  1  0
 10 52  1  0
 11 12  1  0
 11 31  1  0
 11 53  1  6
 12 13  1  0
 12 30  1  0
 12 54  1  1
 13 14  1  0
 13 55  1  0
 13 56  1  0
 14 15  2  0
 14 57  1  0
 15 16  1  0
 15 29  1  0
 16 17  1  0
 16 58  1  0
 16 59  1  0
 17 18  2  0
 17 19  1  0
 19 20  2  0
 19 27  1  0
 20 21  1  0
 20 60  1  0
 21 22  2  0
 21 61  1  0
 22 23  1  0
 22 25  1  0
 23 24  1  0
 23 62  1  0
 23 63  1  0
 24 64  1  0
 24 65  1  0
 24 66  1  0
 25 26  1  0
 25 27  2  0
 27 28  1  0
 28 67  1  0
 28 68  1  0
 28 69  1  0
 29 30  1  0
 29 70  1  0
 29 71  1  0
 30 72  1  0
 30 73  1  0
 31 32  1  0
 31 74  1  0
 31 75  1  0
 32 76  1  0
 32 77  1  0
 33 34  1  0
 33 78  1  0
 33 79  1  0
 34 80  1  0
 34 81  1  0
M  END

