
     RDKit          3D

 52 55  0  0  0  0  0  0  0  0999 V2000
    1.7728   -0.0838   -0.6546 C   0  0  0  0  0  0  0  0  0  0  0  0
    3.1030    0.1978   -0.0550 C   0  0  0  0  0  0  0  0  0  0  0  0
    4.2125    0.5319   -0.6454 N   0  0  0  0  0  0  0  0  0  0  0  0
    5.0994    0.6485    0.4006 C   0  0  0  0  0  0  0  0  0  0  0  0
    6.5625    1.0255    0.2608 C   0  0  1  0  0  0  0  0  0  0  0  0
    7.0919    1.0401    1.6362 N   0  0  0  0  0  0  0  0  0  0  0  0
    8.3712    1.3130    2.0026 C   0  0  0  0  0  0  0  0  0  0  0  0
    9.2671    1.6131    1.2198 O   0  0  0  0  0  0  0  0  0  0  0  0
    8.6562    1.1918    3.5004 C   0  0  0  0  0  0  0  0  0  0  0  0
    9.5572    2.3376    3.9778 C   0  0  0  0  0  0  0  0  0  0  0  0
   10.2669    2.0424    5.2277 N   0  0  0  0  0  0  0  0  0  0  0  0
    9.8725    2.7628    6.3500 C   0  0  0  0  0  0  0  0  0  0  0  0
    8.9322    3.5355    6.3319 O   0  0  0  0  0  0  0  0  0  0  0  0
   10.7043    2.5741    7.6056 C   0  0  0  0  0  0  0  0  0  0  0  0
   10.9651    0.8085    7.9606 S   0  0  0  0  0  0  0  0  0  0  0  0
   11.7306    0.4289    6.4061 C   0  0  0  0  0  0  0  0  0  0  0  0
   12.7275   -0.5541    6.3605 C   0  0  0  0  0  0  0  0  0  0  0  0
   13.3182   -0.9207    5.1516 C   0  0  0  0  0  0  0  0  0  0  0  0
   12.9162   -0.2810    3.9775 C   0  0  0  0  0  0  0  0  0  0  0  0
   11.9322    0.7084    4.0096 C   0  0  0  0  0  0  0  0  0  0  0  0
   11.3129    1.0820    5.2193 C   0  0  0  0  0  0  0  0  0  0  0  0
    7.3213   -0.0358   -0.5919 C   0  0  0  0  0  0  0  0  0  0  0  0
    7.0360    0.0373   -2.0976 C   0  0  0  0  0  0  0  0  0  0  0  0
    7.2717    1.4496   -2.6459 C   0  0  0  0  0  0  0  0  0  0  0  0
    6.4320    2.4851   -1.8885 C   0  0  0  0  0  0  0  0  0  0  0  0
    6.7077    2.4387   -0.3798 C   0  0  0  0  0  0  0  0  0  0  0  0
    4.5586    0.3980    1.5673 N   0  0  0  0  0  0  0  0  0  0  0  0
    3.2375    0.1003    1.2752 O   0  0  0  0  0  0  0  0  0  0  0  0
    1.7981    0.1596   -1.7235 H   0  0  0  0  0  0  0  0  0  0  0  0
    0.9900    0.5086   -0.1573 H   0  0  0  0  0  0  0  0  0  0  0  0
    1.5133   -1.1477   -0.5334 H   0  0  0  0  0  0  0  0  0  0  0  0
    6.4268    0.8117    2.3686 H   0  0  0  0  0  0  0  0  0  0  0  0
    9.1786    0.2289    3.6342 H   0  0  0  0  0  0  0  0  0  0  0  0
    7.7331    1.1456    4.0989 H   0  0  0  0  0  0  0  0  0  0  0  0
    8.9567    3.2332    4.1716 H   0  0  0  0  0  0  0  0  0  0  0  0
   10.2763    2.5830    3.1857 H   0  0  0  0  0  0  0  0  0  0  0  0
   10.1487    3.0185    8.4399 H   0  0  0  0  0  0  0  0  0  0  0  0
   11.6770    3.0853    7.5066 H   0  0  0  0  0  0  0  0  0  0  0  0
   13.0379   -1.0285    7.2947 H   0  0  0  0  0  0  0  0  0  0  0  0
   14.0899   -1.6935    5.1305 H   0  0  0  0  0  0  0  0  0  0  0  0
   13.3681   -0.5486    3.0195 H   0  0  0  0  0  0  0  0  0  0  0  0
   11.6254    1.1682    3.0709 H   0  0  0  0  0  0  0  0  0  0  0  0
    7.0960   -1.0383   -0.1916 H   0  0  0  0  0  0  0  0  0  0  0  0
    8.3915    0.1509   -0.4194 H   0  0  0  0  0  0  0  0  0  0  0  0
    5.9979   -0.2673   -2.3049 H   0  0  0  0  0  0  0  0  0  0  0  0
    7.6887   -0.6868   -2.6140 H   0  0  0  0  0  0  0  0  0  0  0  0
    7.0357    1.4834   -3.7228 H   0  0  0  0  0  0  0  0  0  0  0  0
    8.3429    1.7055   -2.5504 H   0  0  0  0  0  0  0  0  0  0  0  0
    5.3636    2.3056   -2.0870 H   0  0  0  0  0  0  0  0  0  0  0  0
    6.6572    3.5009   -2.2549 H   0  0  0  0  0  0  0  0  0  0  0  0
    6.0583    3.1434    0.1657 H   0  0  0  0  0  0  0  0  0  0  0  0
    7.7477    2.7449   -0.1945 H   0  0  0  0  0  0  0  0  0  0  0  0
  1  2  1  0
  1 29  1  0
  1 30  1  0
  1 31  1  0
  2  3  2  0
  2 28  1  0
  3  4  1  0
  4  5  1  0
  4 27  2  0
  5  6  1  1
  5 22  1  0
  5 26  1  0
  6  7  1  0
  6 32  1  0
  7  8  2  0
  7  9  1  0
  9 10  1  0
  9 33  1  0
  9 34  1  0
 10 11  1  0
 10 35  1  0
 10 36  1  0
 11 12  1  0
 11 21  1  0
 12 13  2  0
 12 14  1  0
 14 15  1  0
 14 37  1  0
 14 38  1  0
 15 16  1  0
 16 17  2  0
 16 21  1  0
 17 18  1  0
 17 39  1  0
 18 19  2  0
 18 40  1  0
 19 20  1  0
 19 41  1  0
 20 21  2  0
 20 42  1  0
 22 23  1  0
 22 43  1  0
 22 44  1  0
 23 24  1  0
 23 45  1  0
 23 46  1  0
 24 25  1  0
 24 47  1  0
 24 48  1  0
 25 26  1  0
 25 49  1  0
 25 50  1  0
 26 51  1  0
 26 52  1  0
 27 28  1  0
M  END

