
     RDKit          3D

 41 42  0  0  0  0  0  0  0  0999 V2000
    1.5325   -0.4258    1.5994 C   0  0  0  0  0  0  0  0  0  0  0  0
    2.8589   -0.3140    0.8915 C   0  0  0  0  0  0  0  0  0  0  0  0
    3.1873   -1.2436   -0.1094 C   0  0  0  0  0  0  0  0  0  0  0  0
    4.4052   -1.2071   -0.7904 C   0  0  0  0  0  0  0  0  0  0  0  0
    5.3329   -0.2173   -0.4622 C   0  0  0  0  0  0  0  0  0  0  0  0
    6.9330   -0.1642   -1.2931 S   0  0  1  0  0  0  0  0  0  0  0  0
    6.7612   -0.8783   -2.5595 O   0  0  0  0  0  0  0  0  0  0  0  0
    7.3844    1.2285   -1.2302 O   0  0  0  0  0  0  0  0  0  0  0  0
    8.0134   -1.0520   -0.3842 N   0  0  0  0  0  0  0  0  0  0  0  0
    8.7281   -0.4607    0.7475 C   0  0  0  0  0  0  0  0  0  0  0  0
    8.2859   -1.0876    2.0738 C   0  0  0  0  0  0  0  0  0  0  0  0
    8.3760   -2.6174    2.0188 C   0  0  0  0  0  0  0  0  0  0  0  0
    7.6004   -3.1918    0.8136 C   0  0  2  0  0  0  0  0  0  0  0  0
    6.5241   -2.9854    0.9493 H   0  0  0  0  0  0  0  0  0  0  0  0
    7.8407   -4.6990    0.7076 C   0  0  0  0  0  0  0  0  0  0  0  0
    6.7591   -5.4903    0.9595 N   0  0  0  0  0  0  0  0  0  0  0  0
    8.9352   -5.1532    0.4229 O   0  0  0  0  0  0  0  0  0  0  0  0
    8.0705   -2.5072   -0.4871 C   0  0  0  0  0  0  0  0  0  0  0  0
    5.0247    0.7445    0.5009 C   0  0  0  0  0  0  0  0  0  0  0  0
    3.7984    0.7086    1.1798 C   0  0  0  0  0  0  0  0  0  0  0  0
    3.5103    1.7459    2.2404 C   0  0  0  0  0  0  0  0  0  0  0  0
    4.0269    2.9889    1.9987 N   0  0  0  0  0  0  0  0  0  0  0  0
    2.8846    1.4904    3.2556 O   0  0  0  0  0  0  0  0  0  0  0  0
    0.9079   -1.2008    1.1320 H   0  0  0  0  0  0  0  0  0  0  0  0
    0.9806    0.5263    1.5863 H   0  0  0  0  0  0  0  0  0  0  0  0
    1.6779   -0.6681    2.6620 H   0  0  0  0  0  0  0  0  0  0  0  0
    2.4572   -2.0148   -0.3692 H   0  0  0  0  0  0  0  0  0  0  0  0
    4.6297   -1.9228   -1.5833 H   0  0  0  0  0  0  0  0  0  0  0  0
    8.5797    0.6264    0.7289 H   0  0  0  0  0  0  0  0  0  0  0  0
    9.8090   -0.6381    0.5923 H   0  0  0  0  0  0  0  0  0  0  0  0
    7.2490   -0.7800    2.2954 H   0  0  0  0  0  0  0  0  0  0  0  0
    8.9164   -0.6989    2.8908 H   0  0  0  0  0  0  0  0  0  0  0  0
    7.9978   -3.0607    2.9547 H   0  0  0  0  0  0  0  0  0  0  0  0
    9.4298   -2.9312    1.9229 H   0  0  0  0  0  0  0  0  0  0  0  0
    5.8555   -5.1122    1.2080 H   0  0  0  0  0  0  0  0  0  0  0  0
    6.8792   -6.4963    0.9226 H   0  0  0  0  0  0  0  0  0  0  0  0
    7.4790   -2.8265   -1.3550 H   0  0  0  0  0  0  0  0  0  0  0  0
    9.1133   -2.8129   -0.6811 H   0  0  0  0  0  0  0  0  0  0  0  0
    5.7553    1.5244    0.7204 H   0  0  0  0  0  0  0  0  0  0  0  0
    4.3625    3.2651    1.0854 H   0  0  0  0  0  0  0  0  0  0  0  0
    3.8250    3.7137    2.6782 H   0  0  0  0  0  0  0  0  0  0  0  0
  1  2  1  0
  1 24  1  0
  1 25  1  0
  1 26  1  0
  2  3  2  0
  2 20  1  0
  3  4  1  0
  3 27  1  0
  4  5  2  0
  4 28  1  0
  6  5  1  1
  5 19  1  0
  6  7  2  0
  6  8  2  0
  6  9  1  0
  9 10  1  0
  9 18  1  0
 10 11  1  0
 10 29  1  0
 10 30  1  0
 11 12  1  0
 11 31  1  0
 11 32  1  0
 12 13  1  0
 12 33  1  0
 12 34  1  0
 13 14  1  1
 13 15  1  0
 13 18  1  0
 15 16  1  0
 15 17  2  0
 16 35  1  0
 16 36  1  0
 18 37  1  0
 18 38  1  0
 19 20  2  0
 19 39  1  0
 20 21  1  0
 21 22  1  0
 21 23  2  0
 22 40  1  0
 22 41  1  0
M  END

