
     RDKit          3D

 31 32  0  0  0  0  0  0  0  0999 V2000
    2.0432   -1.1106    1.1027 C   0  0  0  0  0  0  0  0  0  0  0  0
    2.2729   -0.0778    0.1061 N   0  0  0  0  0  0  0  0  0  0  0  0
    2.9325    1.1606    0.4816 C   0  0  0  0  0  0  0  0  0  0  0  0
    2.0168    2.1772    1.1693 C   0  0  0  0  0  0  0  0  0  0  0  0
    2.7978    3.2929    1.5056 O   0  0  0  0  0  0  0  0  0  0  0  0
    2.0940    4.3238    2.1643 C   0  0  0  0  0  0  0  0  0  0  0  0
    3.0450    5.4318    2.5284 C   0  0  1  0  0  0  0  0  0  0  0  0
    3.4385    6.4593    1.4995 C   0  0  0  0  0  0  0  0  0  0  0  0
    2.5379    6.8480    2.6439 C   0  0  0  0  0  0  0  0  0  0  0  0
    1.5578   -0.1671   -1.0508 C   0  0  0  0  0  0  0  0  0  0  0  0
    0.7470   -1.1024   -1.4361 N   0  0  0  0  0  0  0  0  0  0  0  0
    0.3065   -0.7311   -2.7169 N   0  0  0  0  0  0  0  0  0  0  0  0
    0.8885    0.3845   -2.9915 C   0  0  0  0  0  0  0  0  0  0  0  0
    0.8657    1.1229   -4.1476 N   0  0  0  0  0  0  0  0  0  0  0  0
    1.7024    0.8274   -1.9818 O   0  0  0  0  0  0  0  0  0  0  0  0
    2.9219   -1.1760    1.7619 H   0  0  0  0  0  0  0  0  0  0  0  0
    1.8965   -2.0750    0.5976 H   0  0  0  0  0  0  0  0  0  0  0  0
    1.1473   -0.9206    1.7234 H   0  0  0  0  0  0  0  0  0  0  0  0
    3.3720    1.6287   -0.4107 H   0  0  0  0  0  0  0  0  0  0  0  0
    3.7647    0.9194    1.1620 H   0  0  0  0  0  0  0  0  0  0  0  0
    1.5520    1.7285    2.0731 H   0  0  0  0  0  0  0  0  0  0  0  0
    1.1874    2.4585    0.4864 H   0  0  0  0  0  0  0  0  0  0  0  0
    1.6008    3.9254    3.0767 H   0  0  0  0  0  0  0  0  0  0  0  0
    1.2852    4.7180    1.5120 H   0  0  0  0  0  0  0  0  0  0  0  0
    3.8233    5.1285    3.2373 H   0  0  0  0  0  0  0  0  0  0  0  0
    2.9964    6.3737    0.5021 H   0  0  0  0  0  0  0  0  0  0  0  0
    4.4702    6.8216    1.5000 H   0  0  0  0  0  0  0  0  0  0  0  0
    1.4815    7.0359    2.4268 H   0  0  0  0  0  0  0  0  0  0  0  0
    2.9444    7.4768    3.4408 H   0  0  0  0  0  0  0  0  0  0  0  0
    0.1494    0.8067   -4.7939 H   0  0  0  0  0  0  0  0  0  0  0  0
    0.8671    2.1305   -4.0176 H   0  0  0  0  0  0  0  0  0  0  0  0
  1  2  1  0
  1 16  1  0
  1 17  1  0
  1 18  1  0
  2  3  1  0
  2 10  1  0
  3  4  1  0
  3 19  1  0
  3 20  1  0
  4  5  1  0
  4 21  1  0
  4 22  1  0
  5  6  1  0
  6  7  1  0
  6 23  1  0
  6 24  1  0
  7  8  1  0
  7  9  1  0
  7 25  1  1
  8  9  1  0
  8 26  1  0
  8 27  1  0
  9 28  1  0
  9 29  1  0
 10 11  2  0
 10 15  1  0
 11 12  1  0
 12 13  2  0
 13 14  1  0
 13 15  1  0
 14 30  1  0
 14 31  1  0
M  END

