
     RDKit          3D

 51 54  0  0  0  0  0  0  0  0999 V2000
    2.4288    2.3631   -1.5876 O   0  0  0  0  0  0  0  0  0  0  0  0
    2.8231    1.3847   -0.9625 C   0  0  0  0  0  0  0  0  0  0  0  0
    2.3893    1.0998    0.3213 N   0  0  0  0  0  0  0  0  0  0  0  0
    1.6224    2.1023    1.0470 C   0  0  0  0  0  0  0  0  0  0  0  0
    2.4764    3.1537    1.7234 C   0  0  0  0  0  0  0  0  0  0  0  0
    2.5842    4.4599    1.2548 C   0  0  0  0  0  0  0  0  0  0  0  0
    3.3962    5.3841    1.9297 C   0  0  0  0  0  0  0  0  0  0  0  0
    4.0808    4.9486    3.0593 C   0  0  0  0  0  0  0  0  0  0  0  0
    4.0116    3.6904    3.5173 N   0  0  0  0  0  0  0  0  0  0  0  0
    3.2459    2.8292    2.8682 C   0  0  0  0  0  0  0  0  0  0  0  0
    3.1720    1.5440    3.2955 O   0  0  0  0  0  0  0  0  0  0  0  0
    3.8404    1.1689    4.5045 C   0  0  1  0  0  0  0  0  0  0  0  0
    3.2426   -0.1263    5.0521 C   0  0  0  0  0  0  0  0  0  0  0  0
    4.3047   -0.5819    6.0609 C   0  0  0  0  0  0  0  0  0  0  0  0
    5.6613   -0.2237    5.3947 C   0  0  0  0  0  0  0  0  0  0  0  0
    5.3365    0.8500    4.3205 C   0  0  0  0  0  0  0  0  0  0  0  0
    3.7011    0.4703   -1.4990 N   0  0  0  0  0  0  0  0  0  0  0  0
    4.0575   -0.8202   -0.9090 C   0  0  0  0  0  0  0  0  0  0  0  0
    4.9057   -1.4878   -2.0033 C   0  0  0  0  0  0  0  0  0  0  0  0
    4.3646   -0.8838   -3.3045 C   0  0  1  0  0  0  0  0  0  0  0  0
    5.1170   -1.0943   -4.6442 C   0  0  0  0  0  0  0  0  0  0  0  0
    3.7588   -1.3605   -5.3443 C   0  0  0  0  0  0  0  0  0  0  0  0
    3.1087   -1.5507   -3.9501 C   0  0  0  0  0  0  0  0  0  0  0  0
    4.1339    0.5773   -2.8906 C   0  0  0  0  0  0  0  0  0  0  0  0
    2.9428    0.4762    0.8969 H   0  0  0  0  0  0  0  0  0  0  0  0
    1.0110    1.5823    1.8004 H   0  0  0  0  0  0  0  0  0  0  0  0
    0.9511    2.5839    0.3253 H   0  0  0  0  0  0  0  0  0  0  0  0
    2.0348    4.7479    0.3549 H   0  0  0  0  0  0  0  0  0  0  0  0
    3.4942    6.4142    1.5816 H   0  0  0  0  0  0  0  0  0  0  0  0
    4.7221    5.6348    3.6243 H   0  0  0  0  0  0  0  0  0  0  0  0
    3.7215    1.9868    5.2323 H   0  0  0  0  0  0  0  0  0  0  0  0
    3.1499   -0.8519    4.2245 H   0  0  0  0  0  0  0  0  0  0  0  0
    2.2412    0.0123    5.4881 H   0  0  0  0  0  0  0  0  0  0  0  0
    4.2212   -1.6484    6.3194 H   0  0  0  0  0  0  0  0  0  0  0  0
    4.1838   -0.0170    7.0006 H   0  0  0  0  0  0  0  0  0  0  0  0
    6.1127   -1.1128    4.9273 H   0  0  0  0  0  0  0  0  0  0  0  0
    6.3884    0.1389    6.1370 H   0  0  0  0  0  0  0  0  0  0  0  0
    5.4768    0.4454    3.3045 H   0  0  0  0  0  0  0  0  0  0  0  0
    5.9536    1.7555    4.3968 H   0  0  0  0  0  0  0  0  0  0  0  0
    3.1511   -1.4119   -0.6789 H   0  0  0  0  0  0  0  0  0  0  0  0
    4.6240   -0.7061    0.0339 H   0  0  0  0  0  0  0  0  0  0  0  0
    4.8449   -2.5866   -1.9768 H   0  0  0  0  0  0  0  0  0  0  0  0
    5.9671   -1.2094   -1.8834 H   0  0  0  0  0  0  0  0  0  0  0  0
    5.7564   -1.9912   -4.6166 H   0  0  0  0  0  0  0  0  0  0  0  0
    5.7228   -0.2491   -5.0094 H   0  0  0  0  0  0  0  0  0  0  0  0
    3.7115   -2.2129   -6.0387 H   0  0  0  0  0  0  0  0  0  0  0  0
    3.3772   -0.4699   -5.8664 H   0  0  0  0  0  0  0  0  0  0  0  0
    3.0234   -2.6142   -3.6735 H   0  0  0  0  0  0  0  0  0  0  0  0
    2.1371   -1.0649   -3.7688 H   0  0  0  0  0  0  0  0  0  0  0  0
    3.3723    1.1030   -3.4834 H   0  0  0  0  0  0  0  0  0  0  0  0
    5.0755    1.1552   -2.9753 H   0  0  0  0  0  0  0  0  0  0  0  0
  1  2  2  0
  2  3  1  0
  2 17  1  0
  3  4  1  0
  3 25  1  0
  4  5  1  0
  4 26  1  0
  4 27  1  0
  5  6  2  0
  5 10  1  0
  6  7  1  0
  6 28  1  0
  7  8  2  0
  7 29  1  0
  8  9  1  0
  8 30  1  0
  9 10  2  0
 10 11  1  0
 11 12  1  0
 12 13  1  0
 12 16  1  0
 12 31  1  1
 13 14  1  0
 13 32  1  0
 13 33  1  0
 14 15  1  0
 14 34  1  0
 14 35  1  0
 15 16  1  0
 15 36  1  0
 15 37  1  0
 16 38  1  0
 16 39  1  0
 17 18  1  0
 17 24  1  0
 18 19  1  0
 18 40  1  0
 18 41  1  0
 20 19  1  1
 19 42  1  0
 19 43  1  0
 20 21  1  0
 20 23  1  0
 20 24  1  0
 21 22  1  0
 21 44  1  0
 21 45  1  0
 22 23  1  0
 22 46  1  0
 22 47  1  0
 23 48  1  0
 23 49  1  0
 24 50  1  0
 24 51  1  0
M  END

