
     RDKit          3D

 68 72  0  0  0  0  0  0  0  0999 V2000
    1.4342   -0.4424    0.8259 O   0  0  0  0  0  0  0  0  0  0  0  0
    1.6109    0.3046   -0.1238 C   0  0  0  0  0  0  0  0  0  0  0  0
    0.8619    1.4197   -0.3512 N   0  0  0  0  0  0  0  0  0  0  0  0
   -0.2629    1.7957    0.4888 C   0  0  0  0  0  0  0  0  0  0  0  0
   -1.6171    1.6241   -0.2068 C   0  0  0  0  0  0  0  0  0  0  0  0
   -2.7921    2.0053    0.7011 C   0  0  0  0  0  0  0  0  0  0  0  0
   -4.0785    1.9174    0.0198 N   0  0  0  0  0  0  0  0  0  0  0  0
   -4.6206    0.5672   -0.1446 C   0  0  0  0  0  0  0  0  0  0  0  0
   -5.3764    0.0815    1.0973 C   0  0  0  0  0  0  0  0  0  0  0  0
   -6.3885    1.0005    1.4684 O   0  0  0  0  0  0  0  0  0  0  0  0
   -5.8676    2.2926    1.7189 C   0  0  0  0  0  0  0  0  0  0  0  0
   -5.1246    2.8238    0.4889 C   0  0  0  0  0  0  0  0  0  0  0  0
    2.6992   -0.0479   -1.1608 C   0  0  1  0  0  0  0  0  0  0  0  0
    3.4760   -0.5391   -0.5570 H   0  0  0  0  0  0  0  0  0  0  0  0
    2.1504   -1.0760   -2.1597 C   0  0  0  0  0  0  0  0  0  0  0  0
    1.3357   -0.4233   -3.2531 C   0  0  0  0  0  0  0  0  0  0  0  0
    0.3931   -1.1790   -3.9483 C   0  0  0  0  0  0  0  0  0  0  0  0
   -0.3337   -0.6241   -5.0006 C   0  0  0  0  0  0  0  0  0  0  0  0
   -1.3147   -1.4460   -5.7173 N   0  0  0  0  0  0  0  0  0  0  0  0
   -1.4663   -2.6018   -5.3482 O   0  0  0  0  0  0  0  0  0  0  0  0
   -1.9228   -0.9256   -6.6418 O   0  0  0  0  0  0  0  0  0  0  0  0
   -0.1347    0.7024   -5.3789 C   0  0  0  0  0  0  0  0  0  0  0  0
    0.7947    1.4700   -4.6888 C   0  0  0  0  0  0  0  0  0  0  0  0
    1.5426    0.9416   -3.6079 C   0  0  0  0  0  0  0  0  0  0  0  0
    2.4289    1.7501   -2.8728 N   0  0  0  0  0  0  0  0  0  0  0  0
    3.0004    2.9271   -3.5349 C   0  0  0  0  0  0  0  0  0  0  0  0
    3.6914    3.8800   -2.5642 C   0  0  0  0  0  0  0  0  0  0  0  0
    4.6797    3.1805   -1.7720 N   0  0  0  0  0  0  0  0  0  0  0  0
    5.6982    3.9250   -1.1328 C   0  0  0  0  0  0  0  0  0  0  0  0
    5.6751    5.3312   -1.0613 C   0  0  0  0  0  0  0  0  0  0  0  0
    6.7196    6.0421   -0.4609 C   0  0  0  0  0  0  0  0  0  0  0  0
    7.7888    5.3497    0.0934 C   0  0  0  0  0  0  0  0  0  0  0  0
    8.7898    6.0276    0.6774 F   0  0  0  0  0  0  0  0  0  0  0  0
    7.8388    3.9568    0.0484 C   0  0  0  0  0  0  0  0  0  0  0  0
    6.8052    3.2556   -0.5674 C   0  0  0  0  0  0  0  0  0  0  0  0
    4.0537    2.0979   -1.0236 C   0  0  0  0  0  0  0  0  0  0  0  0
    3.3736    1.0853   -1.9508 C   0  0  1  0  0  0  0  0  0  0  0  0
    4.1818    0.6224   -2.5550 H   0  0  0  0  0  0  0  0  0  0  0  0
    1.0503    1.9510   -1.1970 H   0  0  0  0  0  0  0  0  0  0  0  0
   -0.1380    2.8437    0.8174 H   0  0  0  0  0  0  0  0  0  0  0  0
   -0.2064    1.1616    1.3853 H   0  0  0  0  0  0  0  0  0  0  0  0
   -1.7102    0.5760   -0.5368 H   0  0  0  0  0  0  0  0  0  0  0  0
   -1.6649    2.2446   -1.1184 H   0  0  0  0  0  0  0  0  0  0  0  0
   -2.6584    3.0519    1.0243 H   0  0  0  0  0  0  0  0  0  0  0  0
   -2.7379    1.3972    1.6316 H   0  0  0  0  0  0  0  0  0  0  0  0
   -3.8124   -0.1358   -0.4001 H   0  0  0  0  0  0  0  0  0  0  0  0
   -5.3228    0.5753   -0.9980 H   0  0  0  0  0  0  0  0  0  0  0  0
   -4.6726   -0.0710    1.9432 H   0  0  0  0  0  0  0  0  0  0  0  0
   -5.8743   -0.8812    0.9009 H   0  0  0  0  0  0  0  0  0  0  0  0
   -5.1887    2.2689    2.5987 H   0  0  0  0  0  0  0  0  0  0  0  0
   -6.7229    2.9392    1.9729 H   0  0  0  0  0  0  0  0  0  0  0  0
   -4.6902    3.8156    0.6965 H   0  0  0  0  0  0  0  0  0  0  0  0
   -5.8613    2.9517   -0.3258 H   0  0  0  0  0  0  0  0  0  0  0  0
    1.5531   -1.8336   -1.6310 H   0  0  0  0  0  0  0  0  0  0  0  0
    3.0009   -1.6143   -2.6146 H   0  0  0  0  0  0  0  0  0  0  0  0
    0.2175   -2.2220   -3.6824 H   0  0  0  0  0  0  0  0  0  0  0  0
   -0.7096    1.1172   -6.2063 H   0  0  0  0  0  0  0  0  0  0  0  0
    0.9259    2.5037   -5.0010 H   0  0  0  0  0  0  0  0  0  0  0  0
    2.2055    3.4937   -4.0339 H   0  0  0  0  0  0  0  0  0  0  0  0
    3.7256    2.6105   -4.3113 H   0  0  0  0  0  0  0  0  0  0  0  0
    2.9259    4.3801   -1.9285 H   0  0  0  0  0  0  0  0  0  0  0  0
    4.1815    4.6615   -3.1626 H   0  0  0  0  0  0  0  0  0  0  0  0
    4.8338    5.8941   -1.4658 H   0  0  0  0  0  0  0  0  0  0  0  0
    6.7015    7.1326   -0.4084 H   0  0  0  0  0  0  0  0  0  0  0  0
    8.6959    3.4365    0.4806 H   0  0  0  0  0  0  0  0  0  0  0  0
    6.8707    2.1679   -0.6321 H   0  0  0  0  0  0  0  0  0  0  0  0
    3.3144    2.5009   -0.3010 H   0  0  0  0  0  0  0  0  0  0  0  0
    4.8096    1.5558   -0.4421 H   0  0  0  0  0  0  0  0  0  0  0  0
  1  2  2  0
  2  3  1  0
  2 13  1  0
  3  4  1  0
  3 39  1  0
  4  5  1  0
  4 40  1  0
  4 41  1  0
  5  6  1  0
  5 42  1  0
  5 43  1  0
  6  7  1  0
  6 44  1  0
  6 45  1  0
  7  8  1  0
  7 12  1  0
  8  9  1  0
  8 46  1  0
  8 47  1  0
  9 10  1  0
  9 48  1  0
  9 49  1  0
 10 11  1  0
 11 12  1  0
 11 50  1  0
 11 51  1  0
 12 52  1  0
 12 53  1  0
 13 14  1  1
 13 15  1  0
 13 37  1  0
 15 16  1  0
 15 54  1  0
 15 55  1  0
 16 17  2  0
 16 24  1  0
 17 18  1  0
 17 56  1  0
 18 19  1  0
 18 22  2  0
 19 20  2  0
 19 21  1  0
 22 23  1  0
 22 57  1  0
 23 24  2  0
 23 58  1  0
 24 25  1  0
 25 26  1  0
 25 37  1  0
 26 27  1  0
 26 59  1  0
 26 60  1  0
 27 28  1  0
 27 61  1  0
 27 62  1  0
 28 29  1  0
 28 36  1  0
 29 30  2  0
 29 35  1  0
 30 31  1  0
 30 63  1  0
 31 32  2  0
 31 64  1  0
 32 33  1  0
 32 34  1  0
 34 35  2  0
 34 65  1  0
 35 66  1  0
 36 37  1  0
 36 67  1  0
 36 68  1  0
 37 38  1  6
M  CHG  2  19   1  21  -1
M  END

