
     RDKit          3D

 57 59  0  0  0  0  0  0  0  0999 V2000
    0.8236    0.1071    0.8871 C   0  0  0  0  0  0  0  0  0  0  0  0
    2.3225    0.0750    0.5631 C   0  0  2  0  0  0  0  0  0  0  0  0
    2.7061    1.3112   -0.2749 C   0  0  0  0  0  0  0  0  0  0  0  0
    2.7805   -1.2144   -0.1756 C   0  0  2  0  0  0  0  0  0  0  0  0
    1.9204   -2.4730    0.0050 C   0  0  0  0  0  0  0  0  0  0  0  0
    2.5353   -3.7480   -0.6165 C   0  0  1  0  0  0  0  0  0  0  0  0
    3.3188   -4.4514    0.3418 O   0  0  0  0  0  0  0  0  0  0  0  0
    1.4666   -4.6720   -1.2595 C   0  0  1  0  0  0  0  0  0  0  0  0
    0.8162   -4.0588   -2.5211 C   0  0  0  0  0  0  0  0  0  0  0  0
    1.7443   -4.0590   -3.7463 C   0  0  0  0  0  0  0  0  0  0  0  0
    2.2895   -5.4613   -4.0453 C   0  0  0  0  0  0  0  0  0  0  0  0
    2.9582   -6.0770   -2.8099 C   0  0  0  0  0  0  0  0  0  0  0  0
    2.0141   -6.0758   -1.5999 C   0  0  0  0  0  0  0  0  0  0  0  0
    4.1294   -1.3863    0.2423 O   0  0  0  0  0  0  0  0  0  0  0  0
    4.3544   -0.8839    1.5508 C   0  0  2  0  0  0  0  0  0  0  0  0
    5.6755   -0.0879    1.5154 C   0  0  0  0  0  0  0  0  0  0  0  0
    6.8673   -0.9875    1.1628 C   0  0  0  0  0  0  0  0  0  0  0  0
    6.9833   -2.1731    2.1281 C   0  0  0  0  0  0  0  0  0  0  0  0
    5.6757   -2.9708    2.1905 C   0  0  0  0  0  0  0  0  0  0  0  0
    4.4781   -2.0746    2.5348 C   0  0  0  0  0  0  0  0  0  0  0  0
    3.1574   -0.0285    1.7943 N   0  0  0  0  0  0  0  0  0  0  0  0
    3.0267    0.9190    2.7932 C   0  0  0  0  0  0  0  0  0  0  0  0
    2.2882    1.8744    2.7373 O   0  0  0  0  0  0  0  0  0  0  0  0
    3.7818    0.7249    3.9046 O   0  0  0  0  0  0  0  0  0  0  0  0
    0.2376    0.0059   -0.0398 H   0  0  0  0  0  0  0  0  0  0  0  0
    0.5622    1.0598    1.3627 H   0  0  0  0  0  0  0  0  0  0  0  0
    0.5372   -0.7052    1.5697 H   0  0  0  0  0  0  0  0  0  0  0  0
    2.0557    1.3851   -1.1612 H   0  0  0  0  0  0  0  0  0  0  0  0
    3.7476    1.2425   -0.6239 H   0  0  0  0  0  0  0  0  0  0  0  0
    2.5859    2.2248    0.3220 H   0  0  0  0  0  0  0  0  0  0  0  0
    2.8280   -1.0085   -1.2583 H   0  0  0  0  0  0  0  0  0  0  0  0
    0.9411   -2.2647   -0.4511 H   0  0  0  0  0  0  0  0  0  0  0  0
    1.7229   -2.6682    1.0720 H   0  0  0  0  0  0  0  0  0  0  0  0
    3.2651   -3.4512   -1.3859 H   0  0  0  0  0  0  0  0  0  0  0  0
    2.7216   -4.7988    1.0194 H   0  0  0  0  0  0  0  0  0  0  0  0
    0.6704   -4.7988   -0.4990 H   0  0  0  0  0  0  0  0  0  0  0  0
    0.4538   -3.0364   -2.3230 H   0  0  0  0  0  0  0  0  0  0  0  0
   -0.0845   -4.6516   -2.7611 H   0  0  0  0  0  0  0  0  0  0  0  0
    2.5900   -3.3675   -3.5803 H   0  0  0  0  0  0  0  0  0  0  0  0
    1.2001   -3.6645   -4.6210 H   0  0  0  0  0  0  0  0  0  0  0  0
    2.9961   -5.4254   -4.8917 H   0  0  0  0  0  0  0  0  0  0  0  0
    1.4543   -6.1118   -4.3660 H   0  0  0  0  0  0  0  0  0  0  0  0
    3.8764   -5.5146   -2.5639 H   0  0  0  0  0  0  0  0  0  0  0  0
    3.2835   -7.1086   -3.0262 H   0  0  0  0  0  0  0  0  0  0  0  0
    2.5248   -6.5033   -0.7248 H   0  0  0  0  0  0  0  0  0  0  0  0
    1.1532   -6.7334   -1.8184 H   0  0  0  0  0  0  0  0  0  0  0  0
    5.8372    0.3805    2.4995 H   0  0  0  0  0  0  0  0  0  0  0  0
    5.5697    0.7284    0.7854 H   0  0  0  0  0  0  0  0  0  0  0  0
    7.7940   -0.3902    1.1697 H   0  0  0  0  0  0  0  0  0  0  0  0
    6.7354   -1.3619    0.1342 H   0  0  0  0  0  0  0  0  0  0  0  0
    7.2378   -1.7983    3.1380 H   0  0  0  0  0  0  0  0  0  0  0  0
    7.8142   -2.8319    1.8257 H   0  0  0  0  0  0  0  0  0  0  0  0
    5.7521   -3.7790    2.9372 H   0  0  0  0  0  0  0  0  0  0  0  0
    5.4694   -3.4543    1.2241 H   0  0  0  0  0  0  0  0  0  0  0  0
    4.6132   -1.7133    3.5729 H   0  0  0  0  0  0  0  0  0  0  0  0
    3.5422   -2.6498    2.5220 H   0  0  0  0  0  0  0  0  0  0  0  0
    4.1499   -0.1690    3.9284 H   0  0  0  0  0  0  0  0  0  0  0  0
  2  1  1  1
  1 25  1  0
  1 26  1  0
  1 27  1  0
  2  3  1  0
  2  4  1  0
  2 21  1  0
  3 28  1  0
  3 29  1  0
  3 30  1  0
  4  5  1  0
  4 14  1  0
  4 31  1  6
  5  6  1  0
  5 32  1  0
  5 33  1  0
  6  7  1  0
  6  8  1  0
  6 34  1  6
  7 35  1  0
  8  9  1  0
  8 13  1  0
  8 36  1  1
  9 10  1  0
  9 37  1  0
  9 38  1  0
 10 11  1  0
 10 39  1  0
 10 40  1  0
 11 12  1  0
 11 41  1  0
 11 42  1  0
 12 13  1  0
 12 43  1  0
 12 44  1  0
 13 45  1  0
 13 46  1  0
 15 14  1  6
 15 16  1  0
 15 20  1  0
 15 21  1  0
 16 17  1  0
 16 47  1  0
 16 48  1  0
 17 18  1  0
 17 49  1  0
 17 50  1  0
 18 19  1  0
 18 51  1  0
 18 52  1  0
 19 20  1  0
 19 53  1  0
 19 54  1  0
 20 55  1  0
 20 56  1  0
 21 22  1  0
 22 23  2  0
 22 24  1  0
 24 57  1  0
M  END

