
     RDKit          3D

 64 67  0  0  0  0  0  0  0  0999 V2000
    1.8589   -4.3292    3.6231 C   0  0  0  0  0  0  0  0  0  0  0  0
    2.0353   -3.8767    2.1746 C   0  0  0  0  0  0  0  0  0  0  0  0
    3.1019   -2.8255    1.9111 C   0  0  0  0  0  0  0  0  0  0  0  0
    3.9088   -2.3123    2.9375 C   0  0  0  0  0  0  0  0  0  0  0  0
    4.8856   -1.3432    2.6878 C   0  0  0  0  0  0  0  0  0  0  0  0
    5.0751   -0.8634    1.3924 C   0  0  0  0  0  0  0  0  0  0  0  0
    4.2805   -1.3606    0.3560 C   0  0  0  0  0  0  0  0  0  0  0  0
    3.2981   -2.3331    0.5961 C   0  0  0  0  0  0  0  0  0  0  0  0
    2.4867   -2.8431   -0.5580 C   0  0  0  0  0  0  0  0  0  0  0  0
    2.8939   -4.0097   -1.2300 C   0  0  0  0  0  0  0  0  0  0  0  0
    2.1873   -4.5019   -2.3232 C   0  0  0  0  0  0  0  0  0  0  0  0
    1.0444   -3.8202   -2.7721 C   0  0  0  0  0  0  0  0  0  0  0  0
    0.3041   -4.3389   -3.9216 C   0  0  0  0  0  0  0  0  0  0  0  0
    0.5583   -5.3951   -4.6422 N   0  0  0  0  0  0  0  0  0  0  0  0
   -0.4580   -5.3900   -5.5688 C   0  0  0  0  0  0  0  0  0  0  0  0
   -0.6019   -6.4096   -6.6204 C   0  0  0  0  0  0  0  0  0  0  0  0
   -1.6612   -6.3489   -7.5412 C   0  0  0  0  0  0  0  0  0  0  0  0
   -1.7688   -7.3240   -8.5322 C   0  0  0  0  0  0  0  0  0  0  0  0
   -0.8346   -8.3613   -8.6120 C   0  0  0  0  0  0  0  0  0  0  0  0
    0.2271   -8.4366   -7.6971 C   0  0  0  0  0  0  0  0  0  0  0  0
    1.2215   -9.5799   -7.7543 C   0  0  0  0  0  0  0  0  0  0  0  0
    1.5303   -9.9787   -9.1191 N   0  0  0  0  0  0  0  0  0  0  0  0
    2.4375  -11.1084   -9.2246 C   0  0  0  0  0  0  0  0  0  0  0  0
    2.6214  -11.5237  -10.6807 C   0  0  0  0  0  0  0  0  0  0  0  0
    3.4614  -12.7826  -10.8422 C   0  0  0  0  0  0  0  0  0  0  0  0
    3.8928  -13.4333   -9.9311 O   0  0  0  0  0  0  0  0  0  0  0  0
    3.7024  -13.1548  -12.1224 O   0  0  0  0  0  0  0  0  0  0  0  0
    0.3350   -7.4509   -6.7087 C   0  0  0  0  0  0  0  0  0  0  0  0
   -1.2955   -4.3845   -5.4282 N   0  0  0  0  0  0  0  0  0  0  0  0
   -0.7952   -3.6878   -4.3405 O   0  0  0  0  0  0  0  0  0  0  0  0
    0.6324   -2.6515   -2.1136 C   0  0  0  0  0  0  0  0  0  0  0  0
    1.3359   -2.1592   -1.0097 C   0  0  0  0  0  0  0  0  0  0  0  0
    0.8738   -0.8663   -0.3475 C   0  0  0  0  0  0  0  0  0  0  0  0
   -0.4717   -0.5444   -0.6001 O   0  0  0  0  0  0  0  0  0  0  0  0
   -1.3997   -1.2320    0.2051 C   0  0  0  0  0  0  0  0  0  0  0  0
    1.0590   -5.0826    3.6910 H   0  0  0  0  0  0  0  0  0  0  0  0
    1.5826   -3.4932    4.2857 H   0  0  0  0  0  0  0  0  0  0  0  0
    2.7766   -4.7867    4.0263 H   0  0  0  0  0  0  0  0  0  0  0  0
    1.0707   -3.4965    1.7938 H   0  0  0  0  0  0  0  0  0  0  0  0
    2.2490   -4.7571    1.5441 H   0  0  0  0  0  0  0  0  0  0  0  0
    3.7771   -2.6740    3.9585 H   0  0  0  0  0  0  0  0  0  0  0  0
    5.4977   -0.9659    3.5111 H   0  0  0  0  0  0  0  0  0  0  0  0
    5.8369   -0.1079    1.1849 H   0  0  0  0  0  0  0  0  0  0  0  0
    4.4250   -0.9943   -0.6641 H   0  0  0  0  0  0  0  0  0  0  0  0
    3.7881   -4.5338   -0.8832 H   0  0  0  0  0  0  0  0  0  0  0  0
    2.5074   -5.4079   -2.8402 H   0  0  0  0  0  0  0  0  0  0  0  0
   -2.3862   -5.5359   -7.4727 H   0  0  0  0  0  0  0  0  0  0  0  0
   -2.5908   -7.2770   -9.2513 H   0  0  0  0  0  0  0  0  0  0  0  0
   -0.9108   -9.1225   -9.3912 H   0  0  0  0  0  0  0  0  0  0  0  0
    0.7892  -10.4606   -7.2420 H   0  0  0  0  0  0  0  0  0  0  0  0
    2.1220   -9.3054   -7.1617 H   0  0  0  0  0  0  0  0  0  0  0  0
    1.8994   -9.1763   -9.6308 H   0  0  0  0  0  0  0  0  0  0  0  0
    2.0113  -11.9584   -8.6668 H   0  0  0  0  0  0  0  0  0  0  0  0
    3.4345  -10.9254   -8.7685 H   0  0  0  0  0  0  0  0  0  0  0  0
    3.0944  -10.7101  -11.2629 H   0  0  0  0  0  0  0  0  0  0  0  0
    1.6317  -11.6914  -11.1427 H   0  0  0  0  0  0  0  0  0  0  0  0
    3.2853  -12.5381  -12.7408 H   0  0  0  0  0  0  0  0  0  0  0  0
    1.1562   -7.4770   -5.9890 H   0  0  0  0  0  0  0  0  0  0  0  0
   -0.2495   -2.1099   -2.4583 H   0  0  0  0  0  0  0  0  0  0  0  0
    1.4710   -0.0261   -0.7425 H   0  0  0  0  0  0  0  0  0  0  0  0
    1.0753   -0.9061    0.7400 H   0  0  0  0  0  0  0  0  0  0  0  0
   -2.4035   -0.8780   -0.0707 H   0  0  0  0  0  0  0  0  0  0  0  0
   -1.2354   -1.0247    1.2814 H   0  0  0  0  0  0  0  0  0  0  0  0
   -1.3619   -2.3284    0.0557 H   0  0  0  0  0  0  0  0  0  0  0  0
  1  2  1  0
  1 36  1  0
  1 37  1  0
  1 38  1  0
  2  3  1  0
  2 39  1  0
  2 40  1  0
  3  4  2  0
  3  8  1  0
  4  5  1  0
  4 41  1  0
  5  6  2  0
  5 42  1  0
  6  7  1  0
  6 43  1  0
  7  8  2  0
  7 44  1  0
  8  9  1  0
  9 10  2  0
  9 32  1  0
 10 11  1  0
 10 45  1  0
 11 12  2  0
 11 46  1  0
 12 13  1  0
 12 31  1  0
 13 14  2  0
 13 30  1  0
 14 15  1  0
 15 16  1  0
 15 29  2  0
 16 17  2  0
 16 28  1  0
 17 18  1  0
 17 47  1  0
 18 19  2  0
 18 48  1  0
 19 20  1  0
 19 49  1  0
 20 21  1  0
 20 28  2  0
 21 22  1  0
 21 50  1  0
 21 51  1  0
 22 23  1  0
 22 52  1  0
 23 24  1  0
 23 53  1  0
 23 54  1  0
 24 25  1  0
 24 55  1  0
 24 56  1  0
 25 26  2  0
 25 27  1  0
 27 57  1  0
 28 58  1  0
 29 30  1  0
 31 32  2  0
 31 59  1  0
 32 33  1  0
 33 34  1  0
 33 60  1  0
 33 61  1  0
 34 35  1  0
 35 62  1  0
 35 63  1  0
 35 64  1  0
M  END

