
     RDKit          3D

 49 51  0  0  0  0  0  0  0  0999 V2000
    4.7589   -4.7245    4.7269 C   0  0  0  0  0  0  0  0  0  0  0  0
    4.3167   -4.0472    3.5745 O   0  0  0  0  0  0  0  0  0  0  0  0
    2.9944   -3.7433    3.4371 C   0  0  0  0  0  0  0  0  0  0  0  0
    2.0259   -4.0342    4.4082 C   0  0  0  0  0  0  0  0  0  0  0  0
    0.6916   -3.6676    4.1952 C   0  0  0  0  0  0  0  0  0  0  0  0
    0.3216   -3.0136    3.0216 C   0  0  0  0  0  0  0  0  0  0  0  0
    1.2950   -2.7310    2.0553 C   0  0  0  0  0  0  0  0  0  0  0  0
    2.6323   -3.0909    2.2347 C   0  0  0  0  0  0  0  0  0  0  0  0
    3.7010   -2.7590    1.2045 C   0  0  0  0  0  0  0  0  0  0  0  0
    3.1900   -2.5691   -0.1451 N   0  0  0  0  0  0  0  0  0  0  0  0
    2.8948   -3.8264   -0.8245 C   0  0  0  0  0  0  0  0  0  0  0  0
    2.1393   -3.6243   -2.1539 C   0  0  1  0  0  0  0  0  0  0  0  0
    2.1179   -4.9639   -2.9233 C   0  0  0  0  0  0  0  0  0  0  0  0
    1.2705   -4.9245   -4.2030 C   0  0  0  0  0  0  0  0  0  0  0  0
   -0.1612   -4.4491   -3.9258 C   0  0  0  0  0  0  0  0  0  0  0  0
   -0.1662   -3.1104   -3.1775 C   0  0  0  0  0  0  0  0  0  0  0  0
    0.6710   -3.1806   -1.8940 C   0  0  0  0  0  0  0  0  0  0  0  0
    2.9201   -2.6494   -2.9340 N   0  0  0  0  0  0  0  0  0  0  0  0
    3.1717   -1.3827   -2.2616 C   0  0  0  0  0  0  0  0  0  0  0  0
    3.9606   -1.6245   -0.9679 C   0  0  2  0  0  0  0  0  0  0  0  0
    5.4168   -2.0357   -1.2592 C   0  0  0  0  0  0  0  0  0  0  0  0
    5.8413   -4.8712    4.6088 H   0  0  0  0  0  0  0  0  0  0  0  0
    4.2749   -5.7120    4.8372 H   0  0  0  0  0  0  0  0  0  0  0  0
    4.5769   -4.1379    5.6457 H   0  0  0  0  0  0  0  0  0  0  0  0
    2.3009   -4.5413    5.3332 H   0  0  0  0  0  0  0  0  0  0  0  0
   -0.0551   -3.8984    4.9597 H   0  0  0  0  0  0  0  0  0  0  0  0
   -0.7182   -2.7224    2.8541 H   0  0  0  0  0  0  0  0  0  0  0  0
    1.0289   -2.2232    1.1267 H   0  0  0  0  0  0  0  0  0  0  0  0
    4.4892   -3.5371    1.2540 H   0  0  0  0  0  0  0  0  0  0  0  0
    4.1984   -1.8229    1.5170 H   0  0  0  0  0  0  0  0  0  0  0  0
    2.2793   -4.4446   -0.1524 H   0  0  0  0  0  0  0  0  0  0  0  0
    3.8200   -4.4078   -1.0326 H   0  0  0  0  0  0  0  0  0  0  0  0
    1.7118   -5.7410   -2.2507 H   0  0  0  0  0  0  0  0  0  0  0  0
    3.1552   -5.2501   -3.1602 H   0  0  0  0  0  0  0  0  0  0  0  0
    1.2605   -5.9232   -4.6712 H   0  0  0  0  0  0  0  0  0  0  0  0
    1.7442   -4.2554   -4.9452 H   0  0  0  0  0  0  0  0  0  0  0  0
   -0.6804   -5.2065   -3.3094 H   0  0  0  0  0  0  0  0  0  0  0  0
   -0.7311   -4.3714   -4.8673 H   0  0  0  0  0  0  0  0  0  0  0  0
   -1.1991   -2.8077   -2.9366 H   0  0  0  0  0  0  0  0  0  0  0  0
    0.2318   -2.3188   -3.8398 H   0  0  0  0  0  0  0  0  0  0  0  0
    0.2067   -3.9064   -1.2029 H   0  0  0  0  0  0  0  0  0  0  0  0
    0.6581   -2.2131   -1.3700 H   0  0  0  0  0  0  0  0  0  0  0  0
    2.5161   -2.4985   -3.8541 H   0  0  0  0  0  0  0  0  0  0  0  0
    2.2479   -0.8226   -2.0043 H   0  0  0  0  0  0  0  0  0  0  0  0
    3.7611   -0.7403   -2.9363 H   0  0  0  0  0  0  0  0  0  0  0  0
    3.9790   -0.6710   -0.4108 H   0  0  0  0  0  0  0  0  0  0  0  0
    5.4598   -2.9007   -1.9365 H   0  0  0  0  0  0  0  0  0  0  0  0
    5.9628   -2.2837   -0.3357 H   0  0  0  0  0  0  0  0  0  0  0  0
    5.9528   -1.2052   -1.7467 H   0  0  0  0  0  0  0  0  0  0  0  0
  1  2  1  0
  1 22  1  0
  1 23  1  0
  1 24  1  0
  2  3  1  0
  3  4  2  0
  3  8  1  0
  4  5  1  0
  4 25  1  0
  5  6  2  0
  5 26  1  0
  6  7  1  0
  6 27  1  0
  7  8  2  0
  7 28  1  0
  8  9  1  0
  9 10  1  0
  9 29  1  0
  9 30  1  0
 10 11  1  0
 10 20  1  0
 11 12  1  0
 11 31  1  0
 11 32  1  0
 12 13  1  0
 12 17  1  0
 12 18  1  6
 13 14  1  0
 13 33  1  0
 13 34  1  0
 14 15  1  0
 14 35  1  0
 14 36  1  0
 15 16  1  0
 15 37  1  0
 15 38  1  0
 16 17  1  0
 16 39  1  0
 16 40  1  0
 17 41  1  0
 17 42  1  0
 18 19  1  0
 18 43  1  0
 19 20  1  0
 19 44  1  0
 19 45  1  0
 20 21  1  0
 20 46  1  1
 21 47  1  0
 21 48  1  0
 21 49  1  0
M  END

