
     RDKit          3D

 28 30  0  0  0  0  0  0  0  0999 V2000
    1.2379   -0.2300   -0.8178 N   0  0  0  0  0  0  0  0  0  0  0  0
    2.3684   -0.1187   -0.5803 C   0  0  0  0  0  0  0  0  0  0  0  0
    3.7645    0.0030   -0.2852 C   0  0  0  0  0  0  0  0  0  0  0  0
    4.4032    1.2284   -0.0483 C   0  0  0  0  0  0  0  0  0  0  0  0
    3.7024    2.5349   -0.1343 C   0  0  0  0  0  0  0  0  0  0  0  0
    3.9217    3.5172    0.8511 C   0  0  0  0  0  0  0  0  0  0  0  0
    3.2884    4.7572    0.7892 C   0  0  0  0  0  0  0  0  0  0  0  0
    2.4287    5.0355   -0.2781 C   0  0  0  0  0  0  0  0  0  0  0  0
    1.6378    6.5867   -0.3674 Cl  0  0  0  0  0  0  0  0  0  0  0  0
    2.1996    4.0811   -1.2736 C   0  0  0  0  0  0  0  0  0  0  0  0
    2.8310    2.8405   -1.1960 C   0  0  0  0  0  0  0  0  0  0  0  0
    5.7946    1.2174    0.2944 C   0  0  0  0  0  0  0  0  0  0  0  0
    6.5129    0.0550    0.3870 C   0  0  0  0  0  0  0  0  0  0  0  0
    5.8716   -1.1218    0.1448 N   0  0  0  0  0  0  0  0  0  0  0  0
    6.4058   -2.3557    0.1907 N   0  0  0  0  0  0  0  0  0  0  0  0
    5.3629   -3.1219   -0.1189 C   0  0  0  0  0  0  0  0  0  0  0  0
    5.4627   -4.6301   -0.2026 C   0  0  1  0  0  0  0  0  0  0  0  0
    7.1157   -5.1929    0.1672 Cl  0  0  0  0  0  0  0  0  0  0  0  0
    4.3094   -5.3517    0.9735 Cl  0  0  0  0  0  0  0  0  0  0  0  0
    5.0148   -5.1470   -1.8664 Cl  0  0  0  0  0  0  0  0  0  0  0  0
    4.2002   -2.4776   -0.3584 N   0  0  0  0  0  0  0  0  0  0  0  0
    4.5230   -1.2041   -0.1906 C   0  0  0  0  0  0  0  0  0  0  0  0
    4.5770    3.3024    1.6982 H   0  0  0  0  0  0  0  0  0  0  0  0
    3.4523    5.5065    1.5651 H   0  0  0  0  0  0  0  0  0  0  0  0
    1.5322    4.3121   -2.1051 H   0  0  0  0  0  0  0  0  0  0  0  0
    2.6519    2.1108   -1.9868 H   0  0  0  0  0  0  0  0  0  0  0  0
    6.3104    2.1627    0.4603 H   0  0  0  0  0  0  0  0  0  0  0  0
    7.5730   -0.0132    0.6318 H   0  0  0  0  0  0  0  0  0  0  0  0
  1  2  3  0
  2  3  1  0
  3  4  2  0
  3 22  1  0
  4  5  1  0
  4 12  1  0
  5  6  2  0
  5 11  1  0
  6  7  1  0
  6 23  1  0
  7  8  2  0
  7 24  1  0
  8  9  1  0
  8 10  1  0
 10 11  2  0
 10 25  1  0
 11 26  1  0
 12 13  2  0
 12 27  1  0
 13 14  1  0
 13 28  1  0
 14 15  1  0
 14 22  1  0
 15 16  2  0
 16 17  1  0
 16 21  1  0
 17 18  1  1
 17 19  1  0
 17 20  1  0
 21 22  2  0
M  END

