
     RDKit          3D

 32 32  0  0  0  0  0  0  0  0999 V2000
    2.2581   -0.5198   -0.1473 C   0  0  0  0  0  0  0  0  0  0  0  0
    2.4779    0.4479   -1.3037 C   0  0  1  0  0  0  0  0  0  0  0  0
    1.1903    0.9194   -1.9613 C   0  0  0  0  0  0  0  0  0  0  0  0
    3.1492    1.6404   -0.8235 O   0  0  0  0  0  0  0  0  0  0  0  0
    4.4962    1.6027   -0.7263 C   0  0  0  0  0  0  0  0  0  0  0  0
    5.1902    0.6571   -1.0412 O   0  0  0  0  0  0  0  0  0  0  0  0
    4.9610    2.7801   -0.2088 N   0  0  0  0  0  0  0  0  0  0  0  0
    6.3805    3.1209   -0.1279 C   0  0  1  0  0  0  0  0  0  0  0  0
    7.0021    3.2586   -1.5303 C   0  0  0  0  0  0  0  0  0  0  0  0
    6.4932    4.4458    0.6796 C   0  0  0  0  0  0  0  0  0  0  0  0
    7.9459    4.6553    1.1013 C   0  0  0  0  0  0  0  0  0  0  0  0
    8.6181    2.9592    1.3918 S   0  0  2  0  0  0  0  0  0  0  0  0
    8.7089    2.7058    2.8352 O   0  0  0  0  0  0  0  0  0  0  0  0
    9.7791    2.7518    0.5137 O   0  0  0  0  0  0  0  0  0  0  0  0
    7.1547    2.0802    0.7121 C   0  0  0  0  0  0  0  0  0  0  0  0
    1.7344   -1.4222   -0.5004 H   0  0  0  0  0  0  0  0  0  0  0  0
    1.6483   -0.0525    0.6427 H   0  0  0  0  0  0  0  0  0  0  0  0
    3.2209   -0.8328    0.2822 H   0  0  0  0  0  0  0  0  0  0  0  0
    3.1396   -0.0223   -2.0475 H   0  0  0  0  0  0  0  0  0  0  0  0
    0.5396    1.4260   -1.2306 H   0  0  0  0  0  0  0  0  0  0  0  0
    0.6398    0.0613   -2.3768 H   0  0  0  0  0  0  0  0  0  0  0  0
    1.4039    1.6228   -2.7803 H   0  0  0  0  0  0  0  0  0  0  0  0
    4.2772    3.5171   -0.0776 H   0  0  0  0  0  0  0  0  0  0  0  0
    6.5298    4.0878   -2.0805 H   0  0  0  0  0  0  0  0  0  0  0  0
    6.8449    2.3269   -2.0916 H   0  0  0  0  0  0  0  0  0  0  0  0
    8.0862    3.4354   -1.4752 H   0  0  0  0  0  0  0  0  0  0  0  0
    5.8562    4.3578    1.5750 H   0  0  0  0  0  0  0  0  0  0  0  0
    6.1202    5.2960    0.0856 H   0  0  0  0  0  0  0  0  0  0  0  0
    8.0641    5.2082    2.0419 H   0  0  0  0  0  0  0  0  0  0  0  0
    8.5740    5.1041    0.3207 H   0  0  0  0  0  0  0  0  0  0  0  0
    6.5703    1.7488    1.5805 H   0  0  0  0  0  0  0  0  0  0  0  0
    7.5091    1.2155    0.1399 H   0  0  0  0  0  0  0  0  0  0  0  0
  1  2  1  0
  1 16  1  0
  1 17  1  0
  1 18  1  0
  2  3  1  0
  2  4  1  0
  2 19  1  6
  3 20  1  0
  3 21  1  0
  3 22  1  0
  4  5  1  0
  5  6  2  0
  5  7  1  0
  8  7  1  6
  7 23  1  0
  8  9  1  0
  8 10  1  0
  8 15  1  0
  9 24  1  0
  9 25  1  0
  9 26  1  0
 10 11  1  0
 10 27  1  0
 10 28  1  0
 12 11  1  1
 11 29  1  0
 11 30  1  0
 12 13  2  0
 12 14  2  0
 12 15  1  0
 15 31  1  0
 15 32  1  0
M  END

