
     RDKit          3D

 35 36  0  0  0  0  0  0  0  0999 V2000
    1.1349    0.2438    0.8204 C   0  0  0  0  0  0  0  0  0  0  0  0
    2.6239    0.1728    0.5837 C   0  0  0  0  0  0  0  0  0  0  0  0
    3.3317    1.2694    0.0786 C   0  0  0  0  0  0  0  0  0  0  0  0
    4.7091    1.2116   -0.1758 C   0  0  0  0  0  0  0  0  0  0  0  0
    5.4156    2.4323   -0.7212 C   0  0  0  0  0  0  0  0  0  0  0  0
    5.4078    0.0114    0.0863 C   0  0  0  0  0  0  0  0  0  0  0  0
    6.8897   -0.0820   -0.1994 C   0  0  0  0  0  0  0  0  0  0  0  0
    7.7406    0.2978    0.9523 N   0  0  0  0  0  0  0  0  0  0  0  0
    7.2799    0.7137    2.1751 C   0  0  0  0  0  0  0  0  0  0  0  0
    8.3966    0.9649    2.9522 C   0  0  0  0  0  0  0  0  0  0  0  0
    9.5195    0.7145    2.2376 N   0  0  0  0  0  0  0  0  0  0  0  0
    9.1181    0.3130    1.0326 C   0  0  0  0  0  0  0  0  0  0  0  0
   10.1021   -0.0446   -0.0071 C   0  0  0  0  0  0  0  0  0  0  0  0
   11.3636    0.0934    0.4375 N   0  0  0  0  0  0  0  0  0  0  0  0
    9.7588   -0.5615   -1.5596 S   0  0  0  0  0  0  0  0  0  0  0  0
    4.7130   -1.1076    0.6023 C   0  0  0  0  0  0  0  0  0  0  0  0
    5.4254   -2.4074    0.9013 C   0  0  0  0  0  0  0  0  0  0  0  0
    3.3369   -1.0053    0.8417 C   0  0  0  0  0  0  0  0  0  0  0  0
    0.7880    1.2838    0.9145 H   0  0  0  0  0  0  0  0  0  0  0  0
    0.8443   -0.2985    1.7339 H   0  0  0  0  0  0  0  0  0  0  0  0
    0.5791   -0.2136   -0.0169 H   0  0  0  0  0  0  0  0  0  0  0  0
    2.7970    2.2023   -0.1239 H   0  0  0  0  0  0  0  0  0  0  0  0
    4.7252    3.2844   -0.7975 H   0  0  0  0  0  0  0  0  0  0  0  0
    5.8277    2.2498   -1.7280 H   0  0  0  0  0  0  0  0  0  0  0  0
    6.2590    2.7419   -0.0829 H   0  0  0  0  0  0  0  0  0  0  0  0
    7.1779    0.5564   -1.0430 H   0  0  0  0  0  0  0  0  0  0  0  0
    7.1790   -1.0964   -0.4981 H   0  0  0  0  0  0  0  0  0  0  0  0
    6.2180    0.7938    2.3858 H   0  0  0  0  0  0  0  0  0  0  0  0
    8.4272    1.3119    3.9845 H   0  0  0  0  0  0  0  0  0  0  0  0
   11.5109    0.4102    1.3932 H   0  0  0  0  0  0  0  0  0  0  0  0
   12.1295   -0.1257   -0.1862 H   0  0  0  0  0  0  0  0  0  0  0  0
    6.2747   -2.2653    1.5889 H   0  0  0  0  0  0  0  0  0  0  0  0
    5.8302   -2.8706   -0.0144 H   0  0  0  0  0  0  0  0  0  0  0  0
    4.7409   -3.1335    1.3627 H   0  0  0  0  0  0  0  0  0  0  0  0
    2.8057   -1.8736    1.2436 H   0  0  0  0  0  0  0  0  0  0  0  0
  1  2  1  0
  1 19  1  0
  1 20  1  0
  1 21  1  0
  2  3  2  0
  2 18  1  0
  3  4  1  0
  3 22  1  0
  4  5  1  0
  4  6  2  0
  5 23  1  0
  5 24  1  0
  5 25  1  0
  6  7  1  0
  6 16  1  0
  7  8  1  0
  7 26  1  0
  7 27  1  0
  8  9  1  0
  8 12  1  0
  9 10  2  0
  9 28  1  0
 10 11  1  0
 10 29  1  0
 11 12  2  0
 12 13  1  0
 13 14  1  0
 13 15  2  0
 14 30  1  0
 14 31  1  0
 16 17  1  0
 16 18  2  0
 17 32  1  0
 17 33  1  0
 17 34  1  0
 18 35  1  0
M  END

