
     RDKit          3D

 34 36  0  0  0  0  0  0  0  0999 V2000
    0.7881   -0.1658   -0.2200 C   0  0  0  0  0  0  0  0  0  0  0  0
    2.3145   -0.3592   -0.2003 C   0  0  0  0  0  0  0  0  0  0  0  0
    3.0004    0.2154   -1.4247 C   0  0  0  0  0  0  0  0  0  0  0  0
    3.4473   -0.6345   -2.5002 C   0  0  0  0  0  0  0  0  0  0  0  0
    3.4180   -2.1374   -2.3496 C   0  0  0  0  0  0  0  0  0  0  0  0
    3.8870   -0.1912   -3.6691 N   0  0  0  0  0  0  0  0  0  0  0  0
    3.8995    1.1299   -3.8678 C   0  0  0  0  0  0  0  0  0  0  0  0
    4.2444    1.8480   -4.9382 N   0  0  0  0  0  0  0  0  0  0  0  0
    4.0478    3.1173   -4.5353 C   0  0  0  0  0  0  0  0  0  0  0  0
    3.6136    3.2872   -3.2841 N   0  0  0  0  0  0  0  0  0  0  0  0
    3.5180    2.0093   -2.8589 N   0  0  0  0  0  0  0  0  0  0  0  0
    3.0882    1.5967   -1.6228 C   0  0  0  0  0  0  0  0  0  0  0  0
    2.7291    2.6277   -0.7897 N   0  0  0  0  0  0  0  0  0  0  0  0
    2.9469    2.7645    0.5887 C   0  0  0  0  0  0  0  0  0  0  0  0
    3.9804    2.0952    1.2676 C   0  0  0  0  0  0  0  0  0  0  0  0
    4.1788    2.2838    2.6357 C   0  0  0  0  0  0  0  0  0  0  0  0
    3.3640    3.1637    3.3533 C   0  0  0  0  0  0  0  0  0  0  0  0
    2.3478    3.8578    2.6929 C   0  0  0  0  0  0  0  0  0  0  0  0
    2.1398    3.6553    1.3283 C   0  0  0  0  0  0  0  0  0  0  0  0
    0.8633    4.5303    0.5102 Cl  0  0  0  0  0  0  0  0  0  0  0  0
    0.3299   -0.6011    0.6824 H   0  0  0  0  0  0  0  0  0  0  0  0
    0.3350   -0.6516   -1.0989 H   0  0  0  0  0  0  0  0  0  0  0  0
    0.5194    0.9014   -0.2518 H   0  0  0  0  0  0  0  0  0  0  0  0
    2.5422   -1.4308   -0.1276 H   0  0  0  0  0  0  0  0  0  0  0  0
    2.7164    0.0858    0.7218 H   0  0  0  0  0  0  0  0  0  0  0  0
    4.0158   -2.4757   -1.4876 H   0  0  0  0  0  0  0  0  0  0  0  0
    3.8254   -2.5857   -3.2639 H   0  0  0  0  0  0  0  0  0  0  0  0
    2.3916   -2.5119   -2.2021 H   0  0  0  0  0  0  0  0  0  0  0  0
    4.2292    3.9798   -5.1779 H   0  0  0  0  0  0  0  0  0  0  0  0
    2.5613    3.4993   -1.2945 H   0  0  0  0  0  0  0  0  0  0  0  0
    4.6428    1.4370    0.7022 H   0  0  0  0  0  0  0  0  0  0  0  0
    4.9885    1.7499    3.1385 H   0  0  0  0  0  0  0  0  0  0  0  0
    3.5198    3.3180    4.4232 H   0  0  0  0  0  0  0  0  0  0  0  0
    1.7027    4.5566    3.2281 H   0  0  0  0  0  0  0  0  0  0  0  0
  1  2  1  0
  1 21  1  0
  1 22  1  0
  1 23  1  0
  2  3  1  0
  2 24  1  0
  2 25  1  0
  3  4  1  0
  3 12  2  0
  4  5  1  0
  4  6  2  0
  5 26  1  0
  5 27  1  0
  5 28  1  0
  6  7  1  0
  7  8  2  0
  7 11  1  0
  8  9  1  0
  9 10  2  0
  9 29  1  0
 10 11  1  0
 11 12  1  0
 12 13  1  0
 13 14  1  0
 13 30  1  0
 14 15  2  0
 14 19  1  0
 15 16  1  0
 15 31  1  0
 16 17  2  0
 16 32  1  0
 17 18  1  0
 17 33  1  0
 18 19  2  0
 18 34  1  0
 19 20  1  0
M  END

