
     RDKit          3D

 82 85  0  0  0  0  0  0  0  0999 V2000
   17.3976  -10.1669   -5.1114 C   0  0  0  0  0  0  0  0  0  0  0  0
   16.9668   -8.8487   -4.7742 O   0  0  0  0  0  0  0  0  0  0  0  0
   15.7409   -8.4917   -5.2074 C   0  0  0  0  0  0  0  0  0  0  0  0
   15.0273   -9.2239   -5.8479 O   0  0  0  0  0  0  0  0  0  0  0  0
   15.4034   -7.0779   -4.7807 C   0  0  0  0  0  0  0  0  0  0  0  0
   14.0358   -6.6041   -5.2660 C   0  0  0  0  0  0  0  0  0  0  0  0
   13.7026   -5.1791   -4.8153 C   0  0  0  0  0  0  0  0  0  0  0  0
   12.3287   -4.7182   -5.3113 C   0  0  0  0  0  0  0  0  0  0  0  0
   11.9117   -3.4215   -4.7834 N   0  0  0  0  0  0  0  0  0  0  0  0
   12.7048   -2.2684   -5.2231 C   0  0  0  0  0  0  0  0  0  0  0  0
   12.5805   -1.8850   -6.6932 C   0  0  0  0  0  0  0  0  0  0  0  0
   11.5846   -0.9919   -7.1261 C   0  0  0  0  0  0  0  0  0  0  0  0
   11.4426   -0.6697   -8.4743 C   0  0  0  0  0  0  0  0  0  0  0  0
   12.2999   -1.2352   -9.4303 C   0  0  0  0  0  0  0  0  0  0  0  0
   12.1054   -0.8561  -10.8611 C   0  0  0  0  0  0  0  0  0  0  0  0
   11.2562   -0.0913  -11.2578 O   0  0  0  0  0  0  0  0  0  0  0  0
   12.9863   -1.4627  -11.6814 O   0  0  0  0  0  0  0  0  0  0  0  0
   12.8674   -1.1571  -13.0693 C   0  0  0  0  0  0  0  0  0  0  0  0
   13.3047   -2.1208   -9.0119 C   0  0  0  0  0  0  0  0  0  0  0  0
   13.4397   -2.4359   -7.6593 C   0  0  0  0  0  0  0  0  0  0  0  0
   10.4804   -3.1787   -4.7854 C   0  0  0  0  0  0  0  0  0  0  0  0
    9.6478   -4.0855   -3.8265 C   0  0  2  0  0  0  0  0  0  0  0  0
    8.7283   -3.4981   -3.6101 H   0  0  0  0  0  0  0  0  0  0  0  0
   10.3125   -4.3597   -2.6160 O   0  0  0  0  0  0  0  0  0  0  0  0
   10.5683   -3.2500   -1.7837 C   0  0  0  0  0  0  0  0  0  0  0  0
   11.1697   -3.7148   -0.4787 C   0  0  0  0  0  0  0  0  0  0  0  0
   12.0938   -4.7700   -0.4481 C   0  0  0  0  0  0  0  0  0  0  0  0
   12.6853   -5.1703    0.7500 C   0  0  0  0  0  0  0  0  0  0  0  0
   12.3572   -4.5162    1.9426 C   0  0  0  0  0  0  0  0  0  0  0  0
   12.9161   -5.0036    3.1015 O   0  0  0  0  0  0  0  0  0  0  0  0
   13.3497   -4.1755    4.1043 C   0  0  0  0  0  0  0  0  0  0  0  0
   13.2251   -4.6487    5.4163 C   0  0  0  0  0  0  0  0  0  0  0  0
   13.7090   -3.8927    6.4842 C   0  0  0  0  0  0  0  0  0  0  0  0
   14.3129   -2.6560    6.2379 C   0  0  0  0  0  0  0  0  0  0  0  0
   14.9136   -1.6997    7.5750 Cl  0  0  0  0  0  0  0  0  0  0  0  0
   14.4420   -2.1789    4.9304 C   0  0  0  0  0  0  0  0  0  0  0  0
   13.9642   -2.9395    3.8614 C   0  0  0  0  0  0  0  0  0  0  0  0
   11.4301   -3.4676    1.9348 C   0  0  0  0  0  0  0  0  0  0  0  0
   10.8458   -3.0784    0.7270 C   0  0  0  0  0  0  0  0  0  0  0  0
    9.1666   -5.4087   -4.4177 C   0  0  0  0  0  0  0  0  0  0  0  0
    9.3595   -6.6213   -3.7399 C   0  0  0  0  0  0  0  0  0  0  0  0
    8.8778   -7.8174   -4.2799 C   0  0  0  0  0  0  0  0  0  0  0  0
    8.1880   -7.8309   -5.4935 C   0  0  0  0  0  0  0  0  0  0  0  0
    7.9830   -6.6181   -6.1564 C   0  0  0  0  0  0  0  0  0  0  0  0
    7.1056   -6.5995   -7.6721 Cl  0  0  0  0  0  0  0  0  0  0  0  0
    8.4607   -5.4160   -5.6310 C   0  0  0  0  0  0  0  0  0  0  0  0
   18.4013  -10.2809   -4.6832 H   0  0  0  0  0  0  0  0  0  0  0  0
   17.4318  -10.3022   -6.2033 H   0  0  0  0  0  0  0  0  0  0  0  0
   16.7164  -10.9228   -4.6913 H   0  0  0  0  0  0  0  0  0  0  0  0
   16.2128   -6.4192   -5.1420 H   0  0  0  0  0  0  0  0  0  0  0  0
   15.4753   -7.0388   -3.6793 H   0  0  0  0  0  0  0  0  0  0  0  0
   13.2629   -7.3040   -4.9066 H   0  0  0  0  0  0  0  0  0  0  0  0
   14.0006   -6.6718   -6.3667 H   0  0  0  0  0  0  0  0  0  0  0  0
   14.4964   -4.4970   -5.1682 H   0  0  0  0  0  0  0  0  0  0  0  0
   13.7136   -5.1145   -3.7131 H   0  0  0  0  0  0  0  0  0  0  0  0
   11.5900   -5.4610   -4.9833 H   0  0  0  0  0  0  0  0  0  0  0  0
   12.3051   -4.7438   -6.4232 H   0  0  0  0  0  0  0  0  0  0  0  0
   13.7619   -2.4695   -4.9931 H   0  0  0  0  0  0  0  0  0  0  0  0
   12.4096   -1.4061   -4.6022 H   0  0  0  0  0  0  0  0  0  0  0  0
   10.9179   -0.5306   -6.3922 H   0  0  0  0  0  0  0  0  0  0  0  0
   10.6731    0.0274   -8.8117 H   0  0  0  0  0  0  0  0  0  0  0  0
   13.6520   -1.7309  -13.5779 H   0  0  0  0  0  0  0  0  0  0  0  0
   13.0059   -0.0797  -13.2468 H   0  0  0  0  0  0  0  0  0  0  0  0
   11.8758   -1.4453  -13.4505 H   0  0  0  0  0  0  0  0  0  0  0  0
   13.9794   -2.5541   -9.7511 H   0  0  0  0  0  0  0  0  0  0  0  0
   14.2378   -3.1144   -7.3465 H   0  0  0  0  0  0  0  0  0  0  0  0
   10.0196   -3.2355   -5.7946 H   0  0  0  0  0  0  0  0  0  0  0  0
   10.3332   -2.1375   -4.4565 H   0  0  0  0  0  0  0  0  0  0  0  0
    9.6322   -2.6882   -1.5869 H   0  0  0  0  0  0  0  0  0  0  0  0
   11.2701   -2.5546   -2.2844 H   0  0  0  0  0  0  0  0  0  0  0  0
   12.3452   -5.2837   -1.3778 H   0  0  0  0  0  0  0  0  0  0  0  0
   13.4018   -5.9935    0.7831 H   0  0  0  0  0  0  0  0  0  0  0  0
   12.7490   -5.6168    5.5830 H   0  0  0  0  0  0  0  0  0  0  0  0
   13.6149   -4.2571    7.5085 H   0  0  0  0  0  0  0  0  0  0  0  0
   14.9236   -1.2163    4.7498 H   0  0  0  0  0  0  0  0  0  0  0  0
   14.0744   -2.5733    2.8393 H   0  0  0  0  0  0  0  0  0  0  0  0
   11.1556   -2.9711    2.8673 H   0  0  0  0  0  0  0  0  0  0  0  0
   10.1117   -2.2672    0.7316 H   0  0  0  0  0  0  0  0  0  0  0  0
    9.8859   -6.6152   -2.7863 H   0  0  0  0  0  0  0  0  0  0  0  0
    9.0397   -8.7568   -3.7448 H   0  0  0  0  0  0  0  0  0  0  0  0
    7.8081   -8.7596   -5.9220 H   0  0  0  0  0  0  0  0  0  0  0  0
    8.2670   -4.4913   -6.1775 H   0  0  0  0  0  0  0  0  0  0  0  0
  1  2  1  0
  1 47  1  0
  1 48  1  0
  1 49  1  0
  2  3  1  0
  3  4  2  0
  3  5  1  0
  5  6  1  0
  5 50  1  0
  5 51  1  0
  6  7  1  0
  6 52  1  0
  6 53  1  0
  7  8  1  0
  7 54  1  0
  7 55  1  0
  8  9  1  0
  8 56  1  0
  8 57  1  0
  9 10  1  0
  9 21  1  0
 10 11  1  0
 10 58  1  0
 10 59  1  0
 11 12  2  0
 11 20  1  0
 12 13  1  0
 12 60  1  0
 13 14  2  0
 13 61  1  0
 14 15  1  0
 14 19  1  0
 15 16  2  0
 15 17  1  0
 17 18  1  0
 18 62  1  0
 18 63  1  0
 18 64  1  0
 19 20  2  0
 19 65  1  0
 20 66  1  0
 21 22  1  0
 21 67  1  0
 21 68  1  0
 22 23  1  1
 22 24  1  0
 22 40  1  0
 24 25  1  0
 25 26  1  0
 25 69  1  0
 25 70  1  0
 26 27  2  0
 26 39  1  0
 27 28  1  0
 27 71  1  0
 28 29  2  0
 28 72  1  0
 29 30  1  0
 29 38  1  0
 30 31  1  0
 31 32  2  0
 31 37  1  0
 32 33  1  0
 32 73  1  0
 33 34  2  0
 33 74  1  0
 34 35  1  0
 34 36  1  0
 36 37  2  0
 36 75  1  0
 37 76  1  0
 38 39  2  0
 38 77  1  0
 39 78  1  0
 40 41  2  0
 40 46  1  0
 41 42  1  0
 41 79  1  0
 42 43  2  0
 42 80  1  0
 43 44  1  0
 43 81  1  0
 44 45  1  0
 44 46  2  0
 46 82  1  0
M  END

