
     RDKit          3D

 49 49  0  0  0  0  0  0  0  0999 V2000
    7.1116    1.5955   -1.3896 C   0  0  0  0  0  0  0  0  0  0  0  0
    6.3373    0.2785   -1.4639 C   0  0  0  0  0  0  0  0  0  0  0  0
    5.6237   -0.0756   -0.1536 C   0  0  0  0  0  0  0  0  0  0  0  0
    4.7515   -1.3393   -0.2068 C   0  0  0  0  0  0  0  0  0  0  0  0
    5.5009   -2.6478   -0.4734 C   0  0  1  0  0  0  0  0  0  0  0  0
    6.0173   -2.5733   -1.4447 H   0  0  0  0  0  0  0  0  0  0  0  0
    6.5508   -3.0220    0.5977 C   0  0  0  0  0  0  0  0  0  0  0  0
    6.6241   -4.4766    0.5243 N   0  0  0  0  0  0  0  0  0  0  0  0
    7.7149   -5.2539    1.0864 C   0  0  0  0  0  0  0  0  0  0  0  0
    7.7558   -5.2732    2.6204 C   0  0  0  0  0  0  0  0  0  0  0  0
    6.5199   -5.8964    3.2750 C   0  0  0  0  0  0  0  0  0  0  0  0
    6.5977   -5.9435    4.8028 C   0  0  0  0  0  0  0  0  0  0  0  0
    5.3636   -6.5614    5.4599 C   0  0  0  0  0  0  0  0  0  0  0  0
    5.4126   -6.5293    6.8707 O   0  0  0  0  0  0  0  0  0  0  0  0
    5.5668   -5.0353   -0.1255 C   0  0  0  0  0  0  0  0  0  0  0  0
    5.4105   -6.2281   -0.3579 O   0  0  0  0  0  0  0  0  0  0  0  0
    4.6104   -3.9057   -0.5225 C   0  0  2  0  0  0  0  0  0  0  0  0
    3.8599   -3.8460    0.2900 H   0  0  0  0  0  0  0  0  0  0  0  0
    3.8509   -4.2075   -1.8249 C   0  0  0  0  0  0  0  0  0  0  0  0
    4.7666   -4.3967   -3.0194 C   0  0  0  0  0  0  0  0  0  0  0  0
    5.1437   -3.4835   -3.7557 O   0  0  0  0  0  0  0  0  0  0  0  0
    5.1760   -5.6703   -3.2453 N   0  0  0  0  0  0  0  0  0  0  0  0
    6.1646   -5.8338   -4.2042 O   0  0  0  0  0  0  0  0  0  0  0  0
    7.6140    1.8227   -2.3432 H   0  0  0  0  0  0  0  0  0  0  0  0
    7.8867    1.5629   -0.6052 H   0  0  0  0  0  0  0  0  0  0  0  0
    6.4437    2.4415   -1.1555 H   0  0  0  0  0  0  0  0  0  0  0  0
    7.0296   -0.5330   -1.7489 H   0  0  0  0  0  0  0  0  0  0  0  0
    5.5928    0.3301   -2.2785 H   0  0  0  0  0  0  0  0  0  0  0  0
    4.9809    0.7735    0.1400 H   0  0  0  0  0  0  0  0  0  0  0  0
    6.3710   -0.1688    0.6567 H   0  0  0  0  0  0  0  0  0  0  0  0
    3.9860   -1.2097   -0.9919 H   0  0  0  0  0  0  0  0  0  0  0  0
    4.1996   -1.4358    0.7463 H   0  0  0  0  0  0  0  0  0  0  0  0
    6.2338   -2.6858    1.6045 H   0  0  0  0  0  0  0  0  0  0  0  0
    7.5412   -2.5792    0.4006 H   0  0  0  0  0  0  0  0  0  0  0  0
    8.6686   -4.8553    0.6965 H   0  0  0  0  0  0  0  0  0  0  0  0
    7.5946   -6.2755    0.6953 H   0  0  0  0  0  0  0  0  0  0  0  0
    7.9032   -4.2470    3.0039 H   0  0  0  0  0  0  0  0  0  0  0  0
    8.6583   -5.8351    2.9197 H   0  0  0  0  0  0  0  0  0  0  0  0
    6.3721   -6.9155    2.8747 H   0  0  0  0  0  0  0  0  0  0  0  0
    5.6214   -5.3273    2.9757 H   0  0  0  0  0  0  0  0  0  0  0  0
    6.7335   -4.9270    5.2125 H   0  0  0  0  0  0  0  0  0  0  0  0
    7.4923   -6.5198    5.1092 H   0  0  0  0  0  0  0  0  0  0  0  0
    5.2132   -7.5931    5.0777 H   0  0  0  0  0  0  0  0  0  0  0  0
    4.4648   -5.9897    5.1729 H   0  0  0  0  0  0  0  0  0  0  0  0
    6.1612   -7.0690    7.1568 H   0  0  0  0  0  0  0  0  0  0  0  0
    3.1673   -3.3807   -2.0654 H   0  0  0  0  0  0  0  0  0  0  0  0
    3.2502   -5.1164   -1.6705 H   0  0  0  0  0  0  0  0  0  0  0  0
    5.2435   -6.3346   -2.4712 H   0  0  0  0  0  0  0  0  0  0  0  0
    6.2425   -4.9157   -4.5478 H   0  0  0  0  0  0  0  0  0  0  0  0
  1  2  1  0
  1 24  1  0
  1 25  1  0
  1 26  1  0
  2  3  1  0
  2 27  1  0
  2 28  1  0
  3  4  1  0
  3 29  1  0
  3 30  1  0
  4  5  1  0
  4 31  1  0
  4 32  1  0
  5  6  1  6
  5  7  1  0
  5 17  1  0
  7  8  1  0
  7 33  1  0
  7 34  1  0
  8  9  1  0
  8 15  1  0
  9 10  1  0
  9 35  1  0
  9 36  1  0
 10 11  1  0
 10 37  1  0
 10 38  1  0
 11 12  1  0
 11 39  1  0
 11 40  1  0
 12 13  1  0
 12 41  1  0
 12 42  1  0
 13 14  1  0
 13 43  1  0
 13 44  1  0
 14 45  1  0
 15 16  2  0
 15 17  1  0
 17 18  1  1
 17 19  1  0
 19 20  1  0
 19 46  1  0
 19 47  1  0
 20 21  2  0
 20 22  1  0
 22 23  1  0
 22 48  1  0
 23 49  1  0
M  END

