
     RDKit          3D

 39 40  0  0  0  0  0  0  0  0999 V2000
    0.8212    2.4042    0.9749 C   0  0  0  0  0  0  0  0  0  0  0  0
    2.3426    2.3786    0.8124 C   0  0  0  0  0  0  0  0  0  0  0  0
    3.0130    1.0308    1.1698 C   0  0  1  0  0  0  0  0  0  0  0  0
    2.5525   -0.1225    0.2611 C   0  0  0  0  0  0  0  0  0  0  0  0
    4.5303    1.1617    1.1895 C   0  0  0  0  0  0  0  0  0  0  0  0
    5.2498    1.0352    2.3899 C   0  0  0  0  0  0  0  0  0  0  0  0
    6.6387    1.1614    2.4219 C   0  0  0  0  0  0  0  0  0  0  0  0
    7.3699    1.4228    1.2525 C   0  0  0  0  0  0  0  0  0  0  0  0
    8.8975    1.5446    1.3193 C   0  0  1  0  0  0  0  0  0  0  0  0
    9.6183    1.4921    0.0515 N   0  0  0  0  0  0  0  0  0  0  0  0
    9.3544    2.7980    2.0661 C   0  0  0  0  0  0  0  0  0  0  0  0
    8.6414    4.0020    1.9671 C   0  0  0  0  0  0  0  0  0  0  0  0
    9.0741    5.1803    2.5774 C   0  0  0  0  0  0  0  0  0  0  0  0
   10.2567    5.1612    3.3187 C   0  0  0  0  0  0  0  0  0  0  0  0
   10.8195    6.6189    4.1020 Cl  0  0  0  0  0  0  0  0  0  0  0  0
   10.9980    3.9853    3.4476 C   0  0  0  0  0  0  0  0  0  0  0  0
   10.5449    2.8230    2.8174 C   0  0  0  0  0  0  0  0  0  0  0  0
   11.5161    1.3780    3.0102 Cl  0  0  0  0  0  0  0  0  0  0  0  0
    6.6580    1.5421    0.0531 C   0  0  0  0  0  0  0  0  0  0  0  0
    5.2650    1.4167    0.0220 C   0  0  0  0  0  0  0  0  0  0  0  0
    0.4221    3.4114    0.7749 H   0  0  0  0  0  0  0  0  0  0  0  0
    0.5230    2.1283    2.0006 H   0  0  0  0  0  0  0  0  0  0  0  0
    0.3156    1.7105    0.2848 H   0  0  0  0  0  0  0  0  0  0  0  0
    2.7867    3.1620    1.4501 H   0  0  0  0  0  0  0  0  0  0  0  0
    2.6086    2.6503   -0.2253 H   0  0  0  0  0  0  0  0  0  0  0  0
    2.7028    0.7815    2.2006 H   0  0  0  0  0  0  0  0  0  0  0  0
    2.7842    0.0808   -0.7976 H   0  0  0  0  0  0  0  0  0  0  0  0
    1.4665   -0.2866    0.3375 H   0  0  0  0  0  0  0  0  0  0  0  0
    3.0525   -1.0640    0.5367 H   0  0  0  0  0  0  0  0  0  0  0  0
    4.7085    0.8290    3.3183 H   0  0  0  0  0  0  0  0  0  0  0  0
    7.1658    1.0560    3.3753 H   0  0  0  0  0  0  0  0  0  0  0  0
    9.2511    0.6843    1.9108 H   0  0  0  0  0  0  0  0  0  0  0  0
    9.3971    2.2956   -0.5358 H   0  0  0  0  0  0  0  0  0  0  0  0
    9.3814    0.6500   -0.4722 H   0  0  0  0  0  0  0  0  0  0  0  0
    7.7081    4.0131    1.3996 H   0  0  0  0  0  0  0  0  0  0  0  0
    8.5005    6.1035    2.4851 H   0  0  0  0  0  0  0  0  0  0  0  0
   11.9191    3.9699    4.0295 H   0  0  0  0  0  0  0  0  0  0  0  0
    7.1976    1.7277   -0.8787 H   0  0  0  0  0  0  0  0  0  0  0  0
    4.7488    1.5165   -0.9368 H   0  0  0  0  0  0  0  0  0  0  0  0
  1  2  1  0
  1 21  1  0
  1 22  1  0
  1 23  1  0
  2  3  1  0
  2 24  1  0
  2 25  1  0
  3  4  1  0
  3  5  1  0
  3 26  1  1
  4 27  1  0
  4 28  1  0
  4 29  1  0
  5  6  2  0
  5 20  1  0
  6  7  1  0
  6 30  1  0
  7  8  2  0
  7 31  1  0
  8  9  1  0
  8 19  1  0
  9 10  1  0
  9 11  1  0
  9 32  1  1
 10 33  1  0
 10 34  1  0
 11 12  2  0
 11 17  1  0
 12 13  1  0
 12 35  1  0
 13 14  2  0
 13 36  1  0
 14 15  1  0
 14 16  1  0
 16 17  2  0
 16 37  1  0
 17 18  1  0
 19 20  2  0
 19 38  1  0
 20 39  1  0
M  END

