
     RDKit          3D

 62 65  0  0  0  0  0  0  0  0999 V2000
    2.9913    1.6199   -0.6585 C   0  0  0  0  0  0  0  0  0  0  0  0
    2.2688    0.5422   -0.1139 O   0  0  0  0  0  0  0  0  0  0  0  0
    2.9267   -0.5979    0.2125 C   0  0  0  0  0  0  0  0  0  0  0  0
    4.2988   -0.8065    0.0307 C   0  0  0  0  0  0  0  0  0  0  0  0
    4.9063   -2.0237    0.3862 C   0  0  0  0  0  0  0  0  0  0  0  0
    4.1224   -3.0744    0.8853 C   0  0  0  0  0  0  0  0  0  0  0  0
    2.7435   -2.8444    1.0975 C   0  0  0  0  0  0  0  0  0  0  0  0
    1.9437   -3.7788    1.6698 O   0  0  0  0  0  0  0  0  0  0  0  0
    2.1414   -1.6173    0.7866 C   0  0  0  0  0  0  0  0  0  0  0  0
    0.8335   -1.3764    1.0875 O   0  0  0  0  0  0  0  0  0  0  0  0
   -0.1323   -2.0077    0.2600 C   0  0  0  0  0  0  0  0  0  0  0  0
    4.6520   -4.4353    1.2031 C   0  0  0  0  0  0  0  0  0  0  0  0
    5.5140   -4.6975    2.2854 C   0  0  0  0  0  0  0  0  0  0  0  0
    5.9945   -6.0040    2.5292 C   0  0  0  0  0  0  0  0  0  0  0  0
    5.5978   -7.0096    1.6727 C   0  0  0  0  0  0  0  0  0  0  0  0
    4.7424   -6.7703    0.6004 C   0  0  0  0  0  0  0  0  0  0  0  0
    4.2461   -5.4997    0.3436 C   0  0  0  0  0  0  0  0  0  0  0  0
    3.3895   -5.2538   -0.6879 O   0  0  0  0  0  0  0  0  0  0  0  0
    3.9321   -5.4139   -1.9937 C   0  0  0  0  0  0  0  0  0  0  0  0
    4.4904   -7.9424   -0.0616 O   0  0  0  0  0  0  0  0  0  0  0  0
    5.3593   -8.9109    0.5267 C   0  0  0  0  0  0  0  0  0  0  0  0
    5.8960   -8.3447    1.7163 O   0  0  0  0  0  0  0  0  0  0  0  0
    6.0586   -3.6100    3.1997 C   0  0  2  0  0  0  0  0  0  0  0  0
    6.3648   -4.1232    4.1216 H   0  0  0  0  0  0  0  0  0  0  0  0
    5.0781   -2.6264    3.5641 O   0  0  0  0  0  0  0  0  0  0  0  0
    4.1467   -2.9893    4.4841 C   0  0  0  0  0  0  0  0  0  0  0  0
    3.0970   -1.9219    4.6559 C   0  0  0  0  0  0  0  0  0  0  0  0
    4.1614   -4.0527    5.0508 O   0  0  0  0  0  0  0  0  0  0  0  0
    7.3524   -2.8895    2.6691 C   0  0  1  0  0  0  0  0  0  0  0  0
    8.1201   -2.3659    3.8896 C   0  0  0  0  0  0  0  0  0  0  0  0
    8.1876   -3.8981    2.1138 O   0  0  0  0  0  0  0  0  0  0  0  0
    7.1915   -1.7457    1.6067 C   0  0  2  0  0  0  0  0  0  0  0  0
    8.2394   -1.6204    1.2754 H   0  0  0  0  0  0  0  0  0  0  0  0
    6.7385   -0.3868    2.1606 C   0  0  0  0  0  0  0  0  0  0  0  0
    6.4225   -2.0834    0.2880 C   0  0  1  0  0  0  0  0  0  0  0  0
    6.7033   -1.2781   -0.4128 H   0  0  0  0  0  0  0  0  0  0  0  0
    6.8615   -3.3332   -0.2768 O   0  0  0  0  0  0  0  0  0  0  0  0
    2.2656    2.4251   -0.8371 H   0  0  0  0  0  0  0  0  0  0  0  0
    3.4720    1.3547   -1.6183 H   0  0  0  0  0  0  0  0  0  0  0  0
    3.7689    1.9894    0.0350 H   0  0  0  0  0  0  0  0  0  0  0  0
    4.9165   -0.0139   -0.3897 H   0  0  0  0  0  0  0  0  0  0  0  0
    2.4651   -4.5794    1.8358 H   0  0  0  0  0  0  0  0  0  0  0  0
   -1.1194   -1.6981    0.6319 H   0  0  0  0  0  0  0  0  0  0  0  0
   -0.0551   -3.1062    0.3113 H   0  0  0  0  0  0  0  0  0  0  0  0
   -0.0295   -1.6831   -0.7912 H   0  0  0  0  0  0  0  0  0  0  0  0
    6.6588   -6.2103    3.3678 H   0  0  0  0  0  0  0  0  0  0  0  0
    4.1976   -6.4658   -2.1948 H   0  0  0  0  0  0  0  0  0  0  0  0
    4.8248   -4.7782   -2.1232 H   0  0  0  0  0  0  0  0  0  0  0  0
    3.1530   -5.0983   -2.7011 H   0  0  0  0  0  0  0  0  0  0  0  0
    6.1803   -9.1498   -0.1787 H   0  0  0  0  0  0  0  0  0  0  0  0
    4.7875   -9.8207    0.7710 H   0  0  0  0  0  0  0  0  0  0  0  0
    3.5159   -0.9148    4.5290 H   0  0  0  0  0  0  0  0  0  0  0  0
    2.6257   -2.0301    5.6409 H   0  0  0  0  0  0  0  0  0  0  0  0
    2.3265   -2.0703    3.8811 H   0  0  0  0  0  0  0  0  0  0  0  0
    7.4892   -1.7363    4.5322 H   0  0  0  0  0  0  0  0  0  0  0  0
    9.0049   -1.7894    3.5802 H   0  0  0  0  0  0  0  0  0  0  0  0
    8.4691   -3.2290    4.4754 H   0  0  0  0  0  0  0  0  0  0  0  0
    7.7910   -4.1365    1.2586 H   0  0  0  0  0  0  0  0  0  0  0  0
    5.7235   -0.4302    2.5746 H   0  0  0  0  0  0  0  0  0  0  0  0
    6.7473    0.3745    1.3640 H   0  0  0  0  0  0  0  0  0  0  0  0
    7.4188   -0.0322    2.9468 H   0  0  0  0  0  0  0  0  0  0  0  0
    7.6502   -3.1527   -0.8043 H   0  0  0  0  0  0  0  0  0  0  0  0
  1  2  1  0
  1 38  1  0
  1 39  1  0
  1 40  1  0
  2  3  1  0
  3  4  2  0
  3  9  1  0
  4  5  1  0
  4 41  1  0
  5  6  2  0
  5 35  1  0
  6  7  1  0
  6 12  1  0
  7  8  1  0
  7  9  2  0
  8 42  1  0
  9 10  1  0
 10 11  1  0
 11 43  1  0
 11 44  1  0
 11 45  1  0
 12 13  2  0
 12 17  1  0
 13 14  1  0
 13 23  1  0
 14 15  2  0
 14 46  1  0
 15 16  1  0
 15 22  1  0
 16 17  2  0
 16 20  1  0
 17 18  1  0
 18 19  1  0
 19 47  1  0
 19 48  1  0
 19 49  1  0
 20 21  1  0
 21 22  1  0
 21 50  1  0
 21 51  1  0
 23 24  1  1
 23 25  1  0
 23 29  1  0
 25 26  1  0
 26 27  1  0
 26 28  2  0
 27 52  1  0
 27 53  1  0
 27 54  1  0
 29 30  1  0
 29 31  1  6
 29 32  1  0
 30 55  1  0
 30 56  1  0
 30 57  1  0
 31 58  1  0
 32 33  1  6
 32 34  1  0
 32 35  1  0
 34 59  1  0
 34 60  1  0
 34 61  1  0
 35 36  1  6
 35 37  1  0
 37 62  1  0
M  END

