
     RDKit          3D

 49 52  0  0  0  0  0  0  0  0999 V2000
    2.7388    2.1591   -0.4606 O   0  0  0  0  0  0  0  0  0  0  0  0
    2.8935    1.0008   -0.0866 C   0  0  0  0  0  0  0  0  0  0  0  0
    3.7362    0.6881    1.1306 C   0  0  0  0  0  0  0  0  0  0  0  0
    4.3568    1.7901    1.7849 C   0  0  0  0  0  0  0  0  0  0  0  0
    5.1274    1.5506    2.8976 C   0  0  0  0  0  0  0  0  0  0  0  0
    5.2835    0.2185    3.3688 C   0  0  0  0  0  0  0  0  0  0  0  0
    6.0553   -0.1190    4.5115 C   0  0  0  0  0  0  0  0  0  0  0  0
    6.1593   -1.4339    4.9081 C   0  0  0  0  0  0  0  0  0  0  0  0
    7.0025   -1.7184    5.9685 O   0  0  0  0  0  0  0  0  0  0  0  0
    6.5844   -2.4160    7.0526 C   0  0  0  0  0  0  0  0  0  0  0  0
    7.5754   -2.7635    7.9931 C   0  0  0  0  0  0  0  0  0  0  0  0
    7.1724   -3.4548    9.1231 C   0  0  0  0  0  0  0  0  0  0  0  0
    5.8128   -3.7794    9.2812 C   0  0  0  0  0  0  0  0  0  0  0  0
    5.3568   -4.5534   10.4875 C   0  0  1  0  0  0  0  0  0  0  0  0
    5.8251   -4.0085   11.6263 F   0  0  0  0  0  0  0  0  0  0  0  0
    4.0184   -4.6017   10.5803 F   0  0  0  0  0  0  0  0  0  0  0  0
    5.8029   -5.8243   10.4576 F   0  0  0  0  0  0  0  0  0  0  0  0
    4.9227   -3.3823    8.2838 C   0  0  0  0  0  0  0  0  0  0  0  0
    5.3043   -2.7120    7.1923 N   0  0  0  0  0  0  0  0  0  0  0  0
    5.5097   -2.4728    4.1909 C   0  0  0  0  0  0  0  0  0  0  0  0
    4.7544   -2.1663    3.0825 C   0  0  0  0  0  0  0  0  0  0  0  0
    4.6155   -0.8197    2.6391 C   0  0  0  0  0  0  0  0  0  0  0  0
    3.8605   -0.5594    1.5397 N   0  0  0  0  0  0  0  0  0  0  0  0
    2.3186   -0.0329   -0.7492 N   0  0  0  0  0  0  0  0  0  0  0  0
    1.4681    0.0729   -1.9280 C   0  0  0  0  0  0  0  0  0  0  0  0
    1.3924   -1.4966   -1.9528 C   0  0  2  0  0  0  0  0  0  0  0  0
    0.1223   -2.1667   -1.8520 N   0  0  0  0  0  0  0  0  0  0  0  0
   -0.7021   -2.1382   -3.0369 C   0  0  0  0  0  0  0  0  0  0  0  0
   -1.8866   -3.0769   -2.8946 C   0  0  1  0  0  0  0  0  0  0  0  0
   -1.5175   -4.3576   -2.7813 F   0  0  0  0  0  0  0  0  0  0  0  0
   -2.6159   -2.7668   -1.8022 F   0  0  0  0  0  0  0  0  0  0  0  0
   -2.6960   -2.9765   -3.9627 F   0  0  0  0  0  0  0  0  0  0  0  0
    2.2369   -1.4941   -0.6507 C   0  0  0  0  0  0  0  0  0  0  0  0
    4.1970    2.7886    1.3778 H   0  0  0  0  0  0  0  0  0  0  0  0
    5.6213    2.3702    3.4272 H   0  0  0  0  0  0  0  0  0  0  0  0
    6.5733    0.6573    5.0784 H   0  0  0  0  0  0  0  0  0  0  0  0
    8.6145   -2.4836    7.8168 H   0  0  0  0  0  0  0  0  0  0  0  0
    7.9015   -3.7423    9.8842 H   0  0  0  0  0  0  0  0  0  0  0  0
    3.8561   -3.6097    8.3718 H   0  0  0  0  0  0  0  0  0  0  0  0
    5.6170   -3.5050    4.5250 H   0  0  0  0  0  0  0  0  0  0  0  0
    4.2454   -2.9462    2.5132 H   0  0  0  0  0  0  0  0  0  0  0  0
    1.9524    0.5676   -2.7866 H   0  0  0  0  0  0  0  0  0  0  0  0
    0.5052    0.5792   -1.7319 H   0  0  0  0  0  0  0  0  0  0  0  0
    1.9419   -1.9162   -2.8104 H   0  0  0  0  0  0  0  0  0  0  0  0
   -0.4044   -1.8432   -1.0412 H   0  0  0  0  0  0  0  0  0  0  0  0
   -0.1169   -2.4861   -3.9033 H   0  0  0  0  0  0  0  0  0  0  0  0
   -1.1171   -1.1428   -3.3050 H   0  0  0  0  0  0  0  0  0  0  0  0
    3.2054   -2.0125   -0.6924 H   0  0  0  0  0  0  0  0  0  0  0  0
    1.6938   -1.8555    0.2380 H   0  0  0  0  0  0  0  0  0  0  0  0
  1  2  2  0
  2  3  1  0
  2 24  1  0
  3  4  2  0
  3 23  1  0
  4  5  1  0
  4 34  1  0
  5  6  2  0
  5 35  1  0
  6  7  1  0
  6 22  1  0
  7  8  2  0
  7 36  1  0
  8  9  1  0
  8 20  1  0
  9 10  1  0
 10 11  2  0
 10 19  1  0
 11 12  1  0
 11 37  1  0
 12 13  2  0
 12 38  1  0
 13 14  1  0
 13 18  1  0
 14 15  1  1
 14 16  1  0
 14 17  1  0
 18 19  2  0
 18 39  1  0
 20 21  2  0
 20 40  1  0
 21 22  1  0
 21 41  1  0
 22 23  2  0
 24 25  1  0
 24 33  1  0
 25 26  1  0
 25 42  1  0
 25 43  1  0
 26 27  1  0
 26 33  1  0
 26 44  1  6
 27 28  1  0
 27 45  1  0
 28 29  1  0
 28 46  1  0
 28 47  1  0
 29 30  1  1
 29 31  1  0
 29 32  1  0
 33 48  1  0
 33 49  1  0
M  END

