
     RDKit          3D

 46 50  0  0  0  0  0  0  0  0999 V2000
    0.3166   -0.0027   -0.4421 C   0  0  0  0  0  0  0  0  0  0  0  0
    1.8493   -0.0941   -0.2909 C   0  0  1  0  0  0  0  0  0  0  0  0
    2.3797   -1.3072   -0.8796 N   0  0  0  0  0  0  0  0  0  0  0  0
    2.4449   -2.4911   -0.2112 C   0  0  0  0  0  0  0  0  0  0  0  0
    1.9398   -2.5733    1.0245 N   0  0  0  0  0  0  0  0  0  0  0  0
    2.0059   -3.7458    1.6858 C   0  0  0  0  0  0  0  0  0  0  0  0
    2.5190   -4.8922    1.2717 N   0  0  0  0  0  0  0  0  0  0  0  0
    3.0314   -4.8357    0.0294 C   0  0  0  0  0  0  0  0  0  0  0  0
    3.6341   -5.8636   -0.6657 N   0  0  0  0  0  0  0  0  0  0  0  0
    3.9728   -5.3408   -1.8152 C   0  0  0  0  0  0  0  0  0  0  0  0
    3.6361   -4.0147   -1.9428 N   0  0  0  0  0  0  0  0  0  0  0  0
    3.8033   -3.4340   -2.7544 H   0  0  0  0  0  0  0  0  0  0  0  0
    3.0196   -3.6631   -0.7554 C   0  0  0  0  0  0  0  0  0  0  0  0
    2.5293    1.0915   -0.9708 C   0  0  0  0  0  0  0  0  0  0  0  0
    2.9844    0.9128   -2.1679 N   0  0  0  0  0  0  0  0  0  0  0  0
    3.5374    1.9687   -2.8644 C   0  0  0  0  0  0  0  0  0  0  0  0
    4.0287    1.7413   -4.1652 C   0  0  0  0  0  0  0  0  0  0  0  0
    4.5811    2.7870   -4.8928 C   0  0  0  0  0  0  0  0  0  0  0  0
    4.6575    4.0781   -4.3498 C   0  0  0  0  0  0  0  0  0  0  0  0
    4.1745    4.3056   -3.0683 C   0  0  0  0  0  0  0  0  0  0  0  0
    4.2569    5.5377   -2.5768 F   0  0  0  0  0  0  0  0  0  0  0  0
    3.6073    3.2683   -2.2964 C   0  0  0  0  0  0  0  0  0  0  0  0
    3.1120    3.4902   -0.9300 C   0  0  0  0  0  0  0  0  0  0  0  0
    3.1391    4.5308   -0.3135 O   0  0  0  0  0  0  0  0  0  0  0  0
    2.5643    2.3109   -0.3181 N   0  0  0  0  0  0  0  0  0  0  0  0
    2.1825    2.4527    1.0609 C   0  0  0  0  0  0  0  0  0  0  0  0
    1.0236    3.1386    1.4362 C   0  0  0  0  0  0  0  0  0  0  0  0
    0.7073    3.2987    2.7862 C   0  0  0  0  0  0  0  0  0  0  0  0
    1.5547    2.7779    3.7701 C   0  0  0  0  0  0  0  0  0  0  0  0
    2.7222    2.1013    3.4102 C   0  0  0  0  0  0  0  0  0  0  0  0
    3.0267    1.9570    2.0604 C   0  0  0  0  0  0  0  0  0  0  0  0
    4.1407    1.3097    1.6960 F   0  0  0  0  0  0  0  0  0  0  0  0
   -0.1349   -0.8736    0.0536 H   0  0  0  0  0  0  0  0  0  0  0  0
    0.0380   -0.0086   -1.5070 H   0  0  0  0  0  0  0  0  0  0  0  0
   -0.0847    0.9075    0.0271 H   0  0  0  0  0  0  0  0  0  0  0  0
    2.0865   -0.1120    0.7810 H   0  0  0  0  0  0  0  0  0  0  0  0
    2.7985   -1.1832   -1.7954 H   0  0  0  0  0  0  0  0  0  0  0  0
    1.5739   -3.7349    2.6943 H   0  0  0  0  0  0  0  0  0  0  0  0
    4.4772   -5.8724   -2.6241 H   0  0  0  0  0  0  0  0  0  0  0  0
    3.9570    0.7329   -4.5751 H   0  0  0  0  0  0  0  0  0  0  0  0
    4.9606    2.6083   -5.9018 H   0  0  0  0  0  0  0  0  0  0  0  0
    5.0859    4.9137   -4.9055 H   0  0  0  0  0  0  0  0  0  0  0  0
    0.3803    3.5539    0.6585 H   0  0  0  0  0  0  0  0  0  0  0  0
   -0.2002    3.8352    3.0705 H   0  0  0  0  0  0  0  0  0  0  0  0
    1.3081    2.8999    4.8273 H   0  0  0  0  0  0  0  0  0  0  0  0
    3.4045    1.6848    4.1534 H   0  0  0  0  0  0  0  0  0  0  0  0
  1  2  1  0
  1 33  1  0
  1 34  1  0
  1 35  1  0
  2  3  1  0
  2 14  1  0
  2 36  1  1
  3  4  1  0
  3 37  1  0
  4  5  2  0
  4 13  1  0
  5  6  1  0
  6  7  2  0
  6 38  1  0
  7  8  1  0
  8  9  1  0
  8 13  2  0
  9 10  2  0
 10 11  1  0
 10 39  1  0
 11 12  1  0
 11 13  1  0
 14 15  2  0
 14 25  1  0
 15 16  1  0
 16 17  2  0
 16 22  1  0
 17 18  1  0
 17 40  1  0
 18 19  2  0
 18 41  1  0
 19 20  1  0
 19 42  1  0
 20 21  1  0
 20 22  2  0
 22 23  1  0
 23 24  2  0
 23 25  1  0
 25 26  1  0
 26 27  2  0
 26 31  1  0
 27 28  1  0
 27 43  1  0
 28 29  2  0
 28 44  1  0
 29 30  1  0
 29 45  1  0
 30 31  2  0
 30 46  1  0
 31 32  1  0
M  END

