
     RDKit          3D

 55 58  0  0  0  0  0  0  0  0999 V2000
    0.6522    0.3455    0.9263 C   0  0  0  0  0  0  0  0  0  0  0  0
    2.0530    0.3049    0.2440 C   0  0  1  0  0  0  0  0  0  0  0  0
    1.9625    0.3526   -1.2931 C   0  0  0  0  0  0  0  0  0  0  0  0
    2.9278    1.4096    0.8391 C   0  0  0  0  0  0  0  0  0  0  0  0
    2.8731    2.8219    0.5917 C   0  0  0  0  0  0  0  0  0  0  0  0
    1.8524    3.4752   -0.0348 C   0  0  0  0  0  0  0  0  0  0  0  0
    1.7560    4.8960   -0.3020 C   0  0  0  0  0  0  0  0  0  0  0  0
    0.6292    5.4043   -0.9129 C   0  0  0  0  0  0  0  0  0  0  0  0
    0.4721    6.7903   -1.1959 C   0  0  0  0  0  0  0  0  0  0  0  0
   -0.6650    7.3592   -1.8146 C   0  0  0  0  0  0  0  0  0  0  0  0
   -0.7389    8.7200   -2.0525 C   0  0  0  0  0  0  0  0  0  0  0  0
    0.3343    9.5620   -1.6744 C   0  0  0  0  0  0  0  0  0  0  0  0
    0.3104   10.8905   -1.8837 O   0  0  0  0  0  0  0  0  0  0  0  0
    1.4733    9.0274   -1.0599 C   0  0  0  0  0  0  0  0  0  0  0  0
    1.5310    7.6568   -0.8273 C   0  0  0  0  0  0  0  0  0  0  0  0
    2.6409    7.1628   -0.2303 O   0  0  0  0  0  0  0  0  0  0  0  0
    2.8436    5.8259    0.0744 C   0  0  0  0  0  0  0  0  0  0  0  0
    3.8807    5.5392    0.6141 O   0  0  0  0  0  0  0  0  0  0  0  0
    3.8369    0.8833    1.6459 N   0  0  0  0  0  0  0  0  0  0  0  0
    4.8339    1.6014    2.4719 C   0  0  0  0  0  0  0  0  0  0  0  0
    4.3592    2.7356    3.4051 C   0  0  0  0  0  0  0  0  0  0  0  0
    3.1072    2.5151    4.2590 C   0  0  0  0  0  0  0  0  0  0  0  0
    2.8787    0.7987    4.8976 S   0  0  1  0  0  0  0  0  0  0  0  0
    2.0782    0.9441    6.1247 O   0  0  0  0  0  0  0  0  0  0  0  0
    2.1634    0.1177    3.7658 O   0  0  0  0  0  0  0  0  0  0  0  0
    4.2717    0.2853    5.0830 O   0  0  0  0  0  0  0  0  0  0  0  0
    3.7832   -0.5385    1.6264 C   0  0  0  0  0  0  0  0  0  0  0  0
    4.5543   -1.4549    2.3394 C   0  0  0  0  0  0  0  0  0  0  0  0
    4.3170   -2.8086    2.0894 C   0  0  0  0  0  0  0  0  0  0  0  0
    3.3351   -3.2202    1.1774 C   0  0  0  0  0  0  0  0  0  0  0  0
    2.5458   -2.2794    0.5030 C   0  0  0  0  0  0  0  0  0  0  0  0
    2.7812   -0.9290    0.7359 C   0  0  0  0  0  0  0  0  0  0  0  0
    0.0887    1.2461    0.6384 H   0  0  0  0  0  0  0  0  0  0  0  0
    0.7707    0.3152    2.0214 H   0  0  0  0  0  0  0  0  0  0  0  0
    0.0765   -0.5356    0.6046 H   0  0  0  0  0  0  0  0  0  0  0  0
    1.4200    1.2390   -1.6512 H   0  0  0  0  0  0  0  0  0  0  0  0
    1.4218   -0.5358   -1.6529 H   0  0  0  0  0  0  0  0  0  0  0  0
    2.9614    0.3499   -1.7554 H   0  0  0  0  0  0  0  0  0  0  0  0
    3.7162    3.4179    0.9326 H   0  0  0  0  0  0  0  0  0  0  0  0
    0.9780    2.9076   -0.3604 H   0  0  0  0  0  0  0  0  0  0  0  0
   -0.1796    4.7209   -1.1898 H   0  0  0  0  0  0  0  0  0  0  0  0
   -1.4932    6.7081   -2.1047 H   0  0  0  0  0  0  0  0  0  0  0  0
   -1.6228    9.1511   -2.5306 H   0  0  0  0  0  0  0  0  0  0  0  0
   -0.5197   11.1510   -2.3061 H   0  0  0  0  0  0  0  0  0  0  0  0
    2.3000    9.6741   -0.7663 H   0  0  0  0  0  0  0  0  0  0  0  0
    5.6084    1.9853    1.7870 H   0  0  0  0  0  0  0  0  0  0  0  0
    5.2717    0.8370    3.1177 H   0  0  0  0  0  0  0  0  0  0  0  0
    4.2561    3.6841    2.8553 H   0  0  0  0  0  0  0  0  0  0  0  0
    5.2192    2.8718    4.0799 H   0  0  0  0  0  0  0  0  0  0  0  0
    2.1783    2.7483    3.7174 H   0  0  0  0  0  0  0  0  0  0  0  0
    3.1519    3.1638    5.1452 H   0  0  0  0  0  0  0  0  0  0  0  0
    5.2560   -1.1449    3.1119 H   0  0  0  0  0  0  0  0  0  0  0  0
    4.8955   -3.5577    2.6344 H   0  0  0  0  0  0  0  0  0  0  0  0
    3.1706   -4.2865    1.0057 H   0  0  0  0  0  0  0  0  0  0  0  0
    1.7601   -2.6070   -0.1823 H   0  0  0  0  0  0  0  0  0  0  0  0
  2  1  1  1
  1 33  1  0
  1 34  1  0
  1 35  1  0
  2  3  1  0
  2  4  1  0
  2 32  1  0
  3 36  1  0
  3 37  1  0
  3 38  1  0
  4  5  1  0
  4 19  2  0
  5  6  2  0
  5 39  1  0
  6  7  1  0
  6 40  1  0
  7  8  2  0
  7 17  1  0
  8  9  1  0
  8 41  1  0
  9 10  2  0
  9 15  1  0
 10 11  1  0
 10 42  1  0
 11 12  2  0
 11 43  1  0
 12 13  1  0
 12 14  1  0
 13 44  1  0
 14 15  2  0
 14 45  1  0
 15 16  1  0
 16 17  1  0
 17 18  2  0
 19 20  1  0
 19 27  1  0
 20 21  1  0
 20 46  1  0
 20 47  1  0
 21 22  1  0
 21 48  1  0
 21 49  1  0
 22 23  1  0
 22 50  1  0
 22 51  1  0
 23 24  2  0
 23 25  2  0
 23 26  1  1
 27 28  2  0
 27 32  1  0
 28 29  1  0
 28 52  1  0
 29 30  2  0
 29 53  1  0
 30 31  1  0
 30 54  1  0
 31 32  2  0
 31 55  1  0
M  CHG  2  19   1  26  -1
M  END

