
     RDKit          3D

 37 38  0  0  0  0  0  0  0  0999 V2000
    1.8969   -0.5716    2.5317 C   0  0  0  0  0  0  0  0  0  0  0  0
    2.1710   -1.5280    1.5329 O   0  0  0  0  0  0  0  0  0  0  0  0
    3.1052   -1.1056    0.5710 C   0  0  0  0  0  0  0  0  0  0  0  0
    4.5614   -0.9482    1.0535 C   0  0  0  0  0  0  0  0  0  0  0  0
    5.1860    0.0561    0.7460 O   0  0  0  0  0  0  0  0  0  0  0  0
    5.1132   -1.9595    1.8019 N   0  0  0  0  0  0  0  0  0  0  0  0
    4.5294   -3.2741    2.0588 C   0  0  0  0  0  0  0  0  0  0  0  0
    5.3877   -4.3743    1.4275 C   0  0  0  0  0  0  0  0  0  0  0  0
    6.7781   -4.2517    1.8556 N   0  0  0  0  0  0  0  0  0  0  0  0
    7.4378   -5.3668    2.3042 C   0  0  0  0  0  0  0  0  0  0  0  0
    6.9218   -6.4723    2.3418 O   0  0  0  0  0  0  0  0  0  0  0  0
    8.8838   -5.2109    2.7347 C   0  0  0  0  0  0  0  0  0  0  0  0
    9.8808   -5.7873    1.9313 C   0  0  0  0  0  0  0  0  0  0  0  0
   11.2228   -5.7792    2.3087 C   0  0  0  0  0  0  0  0  0  0  0  0
   11.5667   -5.2014    3.5292 C   0  0  0  0  0  0  0  0  0  0  0  0
   12.8482   -5.1883    3.9115 F   0  0  0  0  0  0  0  0  0  0  0  0
   10.6105   -4.6401    4.3706 C   0  0  0  0  0  0  0  0  0  0  0  0
    9.2737   -4.6537    3.9624 C   0  0  0  0  0  0  0  0  0  0  0  0
    8.0799   -3.9617    5.0430 Cl  0  0  0  0  0  0  0  0  0  0  0  0
    7.3671   -2.9352    1.6320 C   0  0  0  0  0  0  0  0  0  0  0  0
    6.4961   -1.8372    2.2525 C   0  0  0  0  0  0  0  0  0  0  0  0
    1.1380   -1.0025    3.2003 H   0  0  0  0  0  0  0  0  0  0  0  0
    1.4989    0.3661    2.0975 H   0  0  0  0  0  0  0  0  0  0  0  0
    2.7937   -0.3199    3.1300 H   0  0  0  0  0  0  0  0  0  0  0  0
    2.8395   -0.1219    0.1444 H   0  0  0  0  0  0  0  0  0  0  0  0
    3.0761   -1.8470   -0.2455 H   0  0  0  0  0  0  0  0  0  0  0  0
    3.5010   -3.3164    1.6867 H   0  0  0  0  0  0  0  0  0  0  0  0
    4.4853   -3.4366    3.1513 H   0  0  0  0  0  0  0  0  0  0  0  0
    5.3329   -4.2962    0.3243 H   0  0  0  0  0  0  0  0  0  0  0  0
    5.0332   -5.3713    1.7174 H   0  0  0  0  0  0  0  0  0  0  0  0
    9.5886   -6.2579    0.9898 H   0  0  0  0  0  0  0  0  0  0  0  0
   11.9995   -6.2198    1.6816 H   0  0  0  0  0  0  0  0  0  0  0  0
   10.9054   -4.2084    5.3271 H   0  0  0  0  0  0  0  0  0  0  0  0
    7.4546   -2.7535    0.5434 H   0  0  0  0  0  0  0  0  0  0  0  0
    8.3778   -2.9000    2.0563 H   0  0  0  0  0  0  0  0  0  0  0  0
    6.8596   -0.8446    1.9594 H   0  0  0  0  0  0  0  0  0  0  0  0
    6.5309   -1.9277    3.3519 H   0  0  0  0  0  0  0  0  0  0  0  0
  1  2  1  0
  1 22  1  0
  1 23  1  0
  1 24  1  0
  2  3  1  0
  3  4  1  0
  3 25  1  0
  3 26  1  0
  4  5  2  0
  4  6  1  0
  6  7  1  0
  6 21  1  0
  7  8  1  0
  7 27  1  0
  7 28  1  0
  8  9  1  0
  8 29  1  0
  8 30  1  0
  9 10  1  0
  9 20  1  0
 10 11  2  0
 10 12  1  0
 12 13  2  0
 12 18  1  0
 13 14  1  0
 13 31  1  0
 14 15  2  0
 14 32  1  0
 15 16  1  0
 15 17  1  0
 17 18  2  0
 17 33  1  0
 18 19  1  0
 20 21  1  0
 20 34  1  0
 20 35  1  0
 21 36  1  0
 21 37  1  0
M  END

