
     RDKit          3D

 49 51  0  0  0  0  0  0  0  0999 V2000
   -1.0111    7.5852    1.4308 O   0  0  0  0  0  0  0  0  0  0  0  0
   -2.0416    7.9110    0.4368 S   0  0  1  0  0  0  0  0  0  0  0  0
   -3.4068    7.3845    0.5531 O   0  0  0  0  0  0  0  0  0  0  0  0
   -2.1719    9.7382    0.3731 C   0  0  0  0  0  0  0  0  0  0  0  0
   -2.7018   10.2973    1.6627 C   0  0  0  0  0  0  0  0  0  0  0  0
   -1.8276   10.6068    2.7165 C   0  0  0  0  0  0  0  0  0  0  0  0
   -2.3228   11.0959    3.9269 C   0  0  0  0  0  0  0  0  0  0  0  0
   -3.6988   11.2740    4.1015 C   0  0  0  0  0  0  0  0  0  0  0  0
   -4.5776   10.9554    3.0617 C   0  0  0  0  0  0  0  0  0  0  0  0
   -4.0824   10.4661    1.8512 C   0  0  0  0  0  0  0  0  0  0  0  0
   -1.4468    7.5230   -1.0903 N   0  0  0  0  0  0  0  0  0  0  0  0
   -0.0469    7.0909   -1.2176 C   0  0  0  0  0  0  0  0  0  0  0  0
    0.0446    5.5577   -1.2647 C   0  0  0  0  0  0  0  0  0  0  0  0
   -0.8264    4.9626   -2.2704 N   0  0  0  0  0  0  0  0  0  0  0  0
   -0.3300    4.9047   -3.6336 C   0  0  0  0  0  0  0  0  0  0  0  0
   -0.5257    3.5336   -4.3173 C   0  0  2  0  0  0  0  0  0  0  0  0
   -0.0740    3.6310   -5.3271 H   0  0  0  0  0  0  0  0  0  0  0  0
   -1.9244    3.3198   -4.4271 O   0  0  0  0  0  0  0  0  0  0  0  0
    0.1832    2.4000   -3.5987 C   0  0  0  0  0  0  0  0  0  0  0  0
    1.4609    1.9891   -4.0074 C   0  0  0  0  0  0  0  0  0  0  0  0
    2.1375    0.9711   -3.3291 C   0  0  0  0  0  0  0  0  0  0  0  0
    1.5383    0.3448   -2.2321 C   0  0  0  0  0  0  0  0  0  0  0  0
    0.2620    0.7423   -1.8207 C   0  0  0  0  0  0  0  0  0  0  0  0
   -0.4108    1.7637   -2.4969 C   0  0  0  0  0  0  0  0  0  0  0  0
   -2.2140    5.3930   -2.1057 C   0  0  0  0  0  0  0  0  0  0  0  0
   -2.3598    6.9218   -2.0767 C   0  0  0  0  0  0  0  0  0  0  0  0
   -2.8297    9.9485   -0.4817 H   0  0  0  0  0  0  0  0  0  0  0  0
   -1.1559   10.0888    0.1436 H   0  0  0  0  0  0  0  0  0  0  0  0
   -0.7534   10.4532    2.5879 H   0  0  0  0  0  0  0  0  0  0  0  0
   -1.6315   11.3366    4.7385 H   0  0  0  0  0  0  0  0  0  0  0  0
   -4.0862   11.6578    5.0487 H   0  0  0  0  0  0  0  0  0  0  0  0
   -5.6545   11.0859    3.1944 H   0  0  0  0  0  0  0  0  0  0  0  0
   -4.7723   10.2037    1.0453 H   0  0  0  0  0  0  0  0  0  0  0  0
    0.5302    7.4877   -0.3721 H   0  0  0  0  0  0  0  0  0  0  0  0
    0.3576    7.5340   -2.1465 H   0  0  0  0  0  0  0  0  0  0  0  0
   -0.2467    5.1734   -0.2707 H   0  0  0  0  0  0  0  0  0  0  0  0
    1.0847    5.2412   -1.4417 H   0  0  0  0  0  0  0  0  0  0  0  0
    0.7502    5.1194   -3.6406 H   0  0  0  0  0  0  0  0  0  0  0  0
   -0.8024    5.6600   -4.2951 H   0  0  0  0  0  0  0  0  0  0  0  0
   -2.0693    2.4140   -4.7311 H   0  0  0  0  0  0  0  0  0  0  0  0
    1.9305    2.4686   -4.8723 H   0  0  0  0  0  0  0  0  0  0  0  0
    3.1311    0.6609   -3.6631 H   0  0  0  0  0  0  0  0  0  0  0  0
    2.0627   -0.4545   -1.7020 H   0  0  0  0  0  0  0  0  0  0  0  0
   -0.2118    0.2557   -0.9640 H   0  0  0  0  0  0  0  0  0  0  0  0
   -1.4051    2.0778   -2.1767 H   0  0  0  0  0  0  0  0  0  0  0  0
   -2.5980    4.9978   -1.1483 H   0  0  0  0  0  0  0  0  0  0  0  0
   -2.8213    4.9584   -2.9108 H   0  0  0  0  0  0  0  0  0  0  0  0
   -3.3914    7.2049   -1.8308 H   0  0  0  0  0  0  0  0  0  0  0  0
   -2.1150    7.3568   -3.0629 H   0  0  0  0  0  0  0  0  0  0  0  0
  1  2  2  0
  2  3  2  0
  2  4  1  6
  2 11  1  0
  4  5  1  0
  4 27  1  0
  4 28  1  0
  5  6  2  0
  5 10  1  0
  6  7  1  0
  6 29  1  0
  7  8  2  0
  7 30  1  0
  8  9  1  0
  8 31  1  0
  9 10  2  0
  9 32  1  0
 10 33  1  0
 11 12  1  0
 11 26  1  0
 12 13  1  0
 12 34  1  0
 12 35  1  0
 13 14  1  0
 13 36  1  0
 13 37  1  0
 14 15  1  0
 14 25  1  0
 15 16  1  0
 15 38  1  0
 15 39  1  0
 16 17  1  6
 16 18  1  0
 16 19  1  0
 18 40  1  0
 19 20  2  0
 19 24  1  0
 20 21  1  0
 20 41  1  0
 21 22  2  0
 21 42  1  0
 22 23  1  0
 22 43  1  0
 23 24  2  0
 23 44  1  0
 24 45  1  0
 25 26  1  0
 25 46  1  0
 25 47  1  0
 26 48  1  0
 26 49  1  0
M  END

