
     RDKit          3D

 43 46  0  0  0  0  0  0  0  0999 V2000
    2.0260    2.2237   -1.9207 C   0  0  0  0  0  0  0  0  0  0  0  0
    3.2364    1.4612   -1.4309 C   0  0  0  0  0  0  0  0  0  0  0  0
    3.1751    0.7114   -0.2312 C   0  0  0  0  0  0  0  0  0  0  0  0
    4.2658   -0.0076    0.2608 C   0  0  0  0  0  0  0  0  0  0  0  0
    5.4353    0.0445   -0.4901 C   0  0  0  0  0  0  0  0  0  0  0  0
    6.6168   -0.5748   -0.2054 O   0  0  0  0  0  0  0  0  0  0  0  0
    7.4873   -0.2437   -1.2189 C   0  0  0  0  0  0  0  0  0  0  0  0
    8.8719   -0.7809   -1.1786 C   0  0  0  0  0  0  0  0  0  0  0  0
    9.6747   -0.5086   -2.0601 O   0  0  0  0  0  0  0  0  0  0  0  0
    9.1439   -1.5768   -0.1038 N   0  0  0  0  0  0  0  0  0  0  0  0
   10.4402   -2.1975    0.1156 C   0  0  2  0  0  0  0  0  0  0  0  0
   10.2940   -3.7104    0.3908 C   0  0  0  0  0  0  0  0  0  0  0  0
   11.6351   -4.4073    0.6880 C   0  0  0  0  0  0  0  0  0  0  0  0
   12.4477   -3.7172    1.8009 C   0  0  0  0  0  0  0  0  0  0  0  0
   12.5845   -2.2504    1.4372 C   0  0  2  0  0  0  0  0  0  0  0  0
   13.2500   -1.4592    2.4013 O   0  0  0  0  0  0  0  0  0  0  0  0
   12.8649   -0.0951    2.1962 C   0  0  0  0  0  0  0  0  0  0  0  0
   11.6447   -0.0992    1.2362 C   0  0  0  0  0  0  0  0  0  0  0  0
   11.2233   -1.5713    1.2723 C   0  0  1  0  0  0  0  0  0  0  0  0
    6.8986    0.5691   -2.1428 C   0  0  0  0  0  0  0  0  0  0  0  0
    5.5461    0.7776   -1.6920 C   0  0  0  0  0  0  0  0  0  0  0  0
    4.4298    1.4908   -2.1605 C   0  0  0  0  0  0  0  0  0  0  0  0
    1.1668    2.0967   -1.2460 H   0  0  0  0  0  0  0  0  0  0  0  0
    1.7167    1.8852   -2.9235 H   0  0  0  0  0  0  0  0  0  0  0  0
    2.2351    3.3038   -1.9960 H   0  0  0  0  0  0  0  0  0  0  0  0
    2.2372    0.6955    0.3304 H   0  0  0  0  0  0  0  0  0  0  0  0
    4.2073   -0.5824    1.1866 H   0  0  0  0  0  0  0  0  0  0  0  0
    8.4069   -1.7238    0.5777 H   0  0  0  0  0  0  0  0  0  0  0  0
   10.9993   -2.0418   -0.8206 H   0  0  0  0  0  0  0  0  0  0  0  0
    9.7988   -4.1912   -0.4683 H   0  0  0  0  0  0  0  0  0  0  0  0
    9.6176   -3.8406    1.2569 H   0  0  0  0  0  0  0  0  0  0  0  0
   12.2397   -4.4251   -0.2363 H   0  0  0  0  0  0  0  0  0  0  0  0
   11.4499   -5.4612    0.9510 H   0  0  0  0  0  0  0  0  0  0  0  0
   13.4365   -4.1909    1.9109 H   0  0  0  0  0  0  0  0  0  0  0  0
   11.9347   -3.8024    2.7746 H   0  0  0  0  0  0  0  0  0  0  0  0
   13.1230   -2.1871    0.4635 H   0  0  0  0  0  0  0  0  0  0  0  0
   13.7100    0.4795    1.7750 H   0  0  0  0  0  0  0  0  0  0  0  0
   12.6223    0.3411    3.1799 H   0  0  0  0  0  0  0  0  0  0  0  0
   11.9376    0.1880    0.2137 H   0  0  0  0  0  0  0  0  0  0  0  0
   10.8524    0.5917    1.5596 H   0  0  0  0  0  0  0  0  0  0  0  0
   10.6602   -1.7548    2.2081 H   0  0  0  0  0  0  0  0  0  0  0  0
    7.3905    0.9590   -3.0303 H   0  0  0  0  0  0  0  0  0  0  0  0
    4.4936    2.0648   -3.0891 H   0  0  0  0  0  0  0  0  0  0  0  0
  1  2  1  0
  1 23  1  0
  1 24  1  0
  1 25  1  0
  2  3  2  0
  2 22  1  0
  3  4  1  0
  3 26  1  0
  4  5  2  0
  4 27  1  0
  5  6  1  0
  5 21  1  0
  6  7  1  0
  7  8  1  0
  7 20  2  0
  8  9  2  0
  8 10  1  0
 10 11  1  0
 10 28  1  0
 11 12  1  0
 11 19  1  0
 11 29  1  6
 12 13  1  0
 12 30  1  0
 12 31  1  0
 13 14  1  0
 13 32  1  0
 13 33  1  0
 14 15  1  0
 14 34  1  0
 14 35  1  0
 15 16  1  0
 15 19  1  0
 15 36  1  6
 16 17  1  0
 17 18  1  0
 17 37  1  0
 17 38  1  0
 18 19  1  0
 18 39  1  0
 18 40  1  0
 19 41  1  1
 20 21  1  0
 20 42  1  0
 21 22  2  0
 22 43  1  0
M  END

