
     RDKit          3D

 77 83  0  0  0  0  0  0  0  0999 V2000
    0.8434   -0.4164    4.1144 C   0  0  0  0  0  0  0  0  0  0  0  0
    2.3408   -0.7163    4.1953 C   0  0  0  0  0  0  0  0  0  0  0  0
    2.9228   -1.2830    2.8965 C   0  0  0  0  0  0  0  0  0  0  0  0
    4.4214   -1.5902    2.9724 C   0  0  0  0  0  0  0  0  0  0  0  0
    4.9930   -2.1514    1.6677 C   0  0  0  0  0  0  0  0  0  0  0  0
    6.4927   -2.4818    1.7064 C   0  0  0  0  0  0  0  0  0  0  0  0
    6.8604   -3.5508    2.6199 N   0  0  0  0  0  0  0  0  0  0  0  0
    6.7192   -4.9091    2.3537 C   0  0  0  0  0  0  0  0  0  0  0  0
    6.2232   -5.5443    1.2067 C   0  0  0  0  0  0  0  0  0  0  0  0
    6.2012   -6.9400    1.1911 C   0  0  0  0  0  0  0  0  0  0  0  0
    6.6586   -7.6935    2.2885 C   0  0  0  0  0  0  0  0  0  0  0  0
    7.1540   -7.0590    3.4275 C   0  0  0  0  0  0  0  0  0  0  0  0
    7.1900   -5.6582    3.4687 C   0  0  0  0  0  0  0  0  0  0  0  0
    7.6411   -4.6916    4.4510 C   0  0  0  0  0  0  0  0  0  0  0  0
    8.2027   -4.8048    5.7273 C   0  0  0  0  0  0  0  0  0  0  0  0
    8.5465   -3.6539    6.4543 C   0  0  0  0  0  0  0  0  0  0  0  0
    9.1425   -3.7573    7.8113 C   0  0  0  0  0  0  0  0  0  0  0  0
   10.0291   -4.7993    8.1456 C   0  0  0  0  0  0  0  0  0  0  0  0
   10.5879   -4.8981    9.4179 C   0  0  0  0  0  0  0  0  0  0  0  0
   10.2867   -3.9603   10.4230 C   0  0  0  0  0  0  0  0  0  0  0  0
   10.8812   -4.0657   11.7801 C   0  0  0  0  0  0  0  0  0  0  0  0
   12.1475   -4.6355   11.9853 C   0  0  0  0  0  0  0  0  0  0  0  0
   12.6718   -4.7168   13.2836 C   0  0  0  0  0  0  0  0  0  0  0  0
   14.0210   -5.3195   13.5077 C   0  0  0  0  0  0  0  0  0  0  0  0
   14.5692   -5.3991   14.7998 C   0  0  0  0  0  0  0  0  0  0  0  0
   15.8303   -5.9698   14.9613 C   0  0  0  0  0  0  0  0  0  0  0  0
   16.5086   -6.4435   13.8356 C   0  0  0  0  0  0  0  0  0  0  0  0
   15.8810   -6.3197   12.5915 C   0  0  0  0  0  0  0  0  0  0  0  0
   14.6764   -5.7762   12.4293 N   0  0  0  0  0  0  0  0  0  0  0  0
   12.0089   -4.2654   14.3554 N   0  0  0  0  0  0  0  0  0  0  0  0
   10.8002   -3.7173   14.1807 C   0  0  0  0  0  0  0  0  0  0  0  0
   10.0811   -3.2260   15.3953 C   0  0  0  0  0  0  0  0  0  0  0  0
   10.6573   -3.3464   16.6720 C   0  0  0  0  0  0  0  0  0  0  0  0
    9.9506   -2.8737   17.7762 C   0  0  0  0  0  0  0  0  0  0  0  0
    8.6936   -2.2966   17.5794 C   0  0  0  0  0  0  0  0  0  0  0  0
    8.2039   -2.2218   16.2711 C   0  0  0  0  0  0  0  0  0  0  0  0
    8.8733   -2.6706   15.2113 N   0  0  0  0  0  0  0  0  0  0  0  0
   10.2027   -3.6000   12.9173 C   0  0  0  0  0  0  0  0  0  0  0  0
    9.4006   -2.9185   10.0920 C   0  0  0  0  0  0  0  0  0  0  0  0
    8.8446   -2.8189    8.8185 C   0  0  0  0  0  0  0  0  0  0  0  0
    8.3122   -2.3869    5.8631 C   0  0  0  0  0  0  0  0  0  0  0  0
    7.7543   -2.2451    4.5950 C   0  0  0  0  0  0  0  0  0  0  0  0
    7.4164   -3.4051    3.8848 C   0  0  0  0  0  0  0  0  0  0  0  0
    0.4597   -0.0110    5.0643 H   0  0  0  0  0  0  0  0  0  0  0  0
    0.2641   -1.3262    3.8833 H   0  0  0  0  0  0  0  0  0  0  0  0
    0.6238    0.3222    3.3250 H   0  0  0  0  0  0  0  0  0  0  0  0
    2.5311   -1.4290    5.0181 H   0  0  0  0  0  0  0  0  0  0  0  0
    2.8877    0.2053    4.4660 H   0  0  0  0  0  0  0  0  0  0  0  0
    2.7351   -0.5702    2.0713 H   0  0  0  0  0  0  0  0  0  0  0  0
    2.3760   -2.2052    2.6245 H   0  0  0  0  0  0  0  0  0  0  0  0
    4.6048   -2.3055    3.7930 H   0  0  0  0  0  0  0  0  0  0  0  0
    4.9693   -0.6690    3.2457 H   0  0  0  0  0  0  0  0  0  0  0  0
    4.8360   -1.4233    0.8513 H   0  0  0  0  0  0  0  0  0  0  0  0
    4.4323   -3.0574    1.3788 H   0  0  0  0  0  0  0  0  0  0  0  0
    7.0706   -1.5872    1.9855 H   0  0  0  0  0  0  0  0  0  0  0  0
    6.8334   -2.7654    0.6964 H   0  0  0  0  0  0  0  0  0  0  0  0
    5.8620   -4.9752    0.3482 H   0  0  0  0  0  0  0  0  0  0  0  0
    5.8184   -7.4565    0.3071 H   0  0  0  0  0  0  0  0  0  0  0  0
    6.6248   -8.7846    2.2447 H   0  0  0  0  0  0  0  0  0  0  0  0
    7.5121   -7.6467    4.2767 H   0  0  0  0  0  0  0  0  0  0  0  0
    8.3502   -5.7931    6.1683 H   0  0  0  0  0  0  0  0  0  0  0  0
   10.3031   -5.5370    7.3880 H   0  0  0  0  0  0  0  0  0  0  0  0
   11.2627   -5.7283    9.6368 H   0  0  0  0  0  0  0  0  0  0  0  0
   12.7581   -5.0054   11.1629 H   0  0  0  0  0  0  0  0  0  0  0  0
   13.9967   -5.0135   15.6424 H   0  0  0  0  0  0  0  0  0  0  0  0
   16.2799   -6.0442   15.9552 H   0  0  0  0  0  0  0  0  0  0  0  0
   17.4988   -6.8978   13.9140 H   0  0  0  0  0  0  0  0  0  0  0  0
   16.3806   -6.6792   11.6836 H   0  0  0  0  0  0  0  0  0  0  0  0
   11.6404   -3.8055   16.7679 H   0  0  0  0  0  0  0  0  0  0  0  0
   10.3755   -2.9550   18.7803 H   0  0  0  0  0  0  0  0  0  0  0  0
    8.1036   -1.9130   18.4148 H   0  0  0  0  0  0  0  0  0  0  0  0
    7.2212   -1.7760   16.0749 H   0  0  0  0  0  0  0  0  0  0  0  0
    9.2073   -3.1620   12.8607 H   0  0  0  0  0  0  0  0  0  0  0  0
    9.1500   -2.1630   10.8397 H   0  0  0  0  0  0  0  0  0  0  0  0
    8.1477   -2.0047    8.6075 H   0  0  0  0  0  0  0  0  0  0  0  0
    8.6009   -1.4863    6.4094 H   0  0  0  0  0  0  0  0  0  0  0  0
    7.5949   -1.2499    4.1764 H   0  0  0  0  0  0  0  0  0  0  0  0
  1  2  1  0
  1 44  1  0
  1 45  1  0
  1 46  1  0
  2  3  1  0
  2 47  1  0
  2 48  1  0
  3  4  1  0
  3 49  1  0
  3 50  1  0
  4  5  1  0
  4 51  1  0
  4 52  1  0
  5  6  1  0
  5 53  1  0
  5 54  1  0
  6  7  1  0
  6 55  1  0
  6 56  1  0
  7  8  1  0
  7 43  1  0
  8  9  2  0
  8 13  1  0
  9 10  1  0
  9 57  1  0
 10 11  2  0
 10 58  1  0
 11 12  1  0
 11 59  1  0
 12 13  2  0
 12 60  1  0
 13 14  1  0
 14 15  1  0
 14 43  2  0
 15 16  2  0
 15 61  1  0
 16 17  1  0
 16 41  1  0
 17 18  2  0
 17 40  1  0
 18 19  1  0
 18 62  1  0
 19 20  2  0
 19 63  1  0
 20 21  1  0
 20 39  1  0
 21 22  2  0
 21 38  1  0
 22 23  1  0
 22 64  1  0
 23 24  1  0
 23 30  2  0
 24 25  2  0
 24 29  1  0
 25 26  1  0
 25 65  1  0
 26 27  2  0
 26 66  1  0
 27 28  1  0
 27 67  1  0
 28 29  2  0
 28 68  1  0
 30 31  1  0
 31 32  1  0
 31 38  2  0
 32 33  2  0
 32 37  1  0
 33 34  1  0
 33 69  1  0
 34 35  2  0
 34 70  1  0
 35 36  1  0
 35 71  1  0
 36 37  2  0
 36 72  1  0
 38 73  1  0
 39 40  2  0
 39 74  1  0
 40 75  1  0
 41 42  2  0
 41 76  1  0
 42 43  1  0
 42 77  1  0
M  END

