
     RDKit          3D

 33 34  0  0  0  0  0  0  0  0999 V2000
    1.5035    0.0080    0.6263 N   0  0  0  0  0  0  0  0  0  0  0  0
    2.7414   -0.1286    0.0388 C   0  0  0  0  0  0  0  0  0  0  0  0
    3.6115   -1.0132    0.3945 N   0  0  0  0  0  0  0  0  0  0  0  0
    3.0702   -1.8593    1.3771 O   0  0  0  0  0  0  0  0  0  0  0  0
    3.1294    0.8868   -0.9843 C   0  0  0  0  0  0  0  0  0  0  0  0
    2.8062    2.2265   -0.7168 C   0  0  0  0  0  0  0  0  0  0  0  0
    3.1521    3.2220   -1.6259 C   0  0  0  0  0  0  0  0  0  0  0  0
    2.8424    4.4951   -1.3434 F   0  0  0  0  0  0  0  0  0  0  0  0
    3.8125    2.9255   -2.8120 C   0  0  0  0  0  0  0  0  0  0  0  0
    4.1182    1.5885   -3.0803 C   0  0  0  0  0  0  0  0  0  0  0  0
    3.7912    0.5549   -2.1923 C   0  0  0  0  0  0  0  0  0  0  0  0
    4.1012   -0.8780   -2.5762 C   0  0  0  0  0  0  0  0  0  0  0  0
    2.8769   -1.5982   -2.8736 N   0  0  0  0  0  0  0  0  0  0  0  0
    2.8203   -2.9585   -3.0781 C   0  0  0  0  0  0  0  0  0  0  0  0
    3.9241   -3.8088   -2.8355 C   0  0  0  0  0  0  0  0  0  0  0  0
    3.8438   -5.1906   -3.0097 C   0  0  0  0  0  0  0  0  0  0  0  0
    2.6528   -5.7588   -3.4477 C   0  0  0  0  0  0  0  0  0  0  0  0
    2.5676   -7.0894   -3.6227 F   0  0  0  0  0  0  0  0  0  0  0  0
    1.5397   -4.9659   -3.7150 C   0  0  0  0  0  0  0  0  0  0  0  0
    1.6318   -3.5881   -3.5301 C   0  0  0  0  0  0  0  0  0  0  0  0
    0.0849   -2.5196   -3.9022 Br  0  0  0  0  0  0  0  0  0  0  0  0
    1.2346   -0.7702    1.2205 H   0  0  0  0  0  0  0  0  0  0  0  0
    0.7635    0.3908    0.0497 H   0  0  0  0  0  0  0  0  0  0  0  0
    3.7823   -2.4902    1.5357 H   0  0  0  0  0  0  0  0  0  0  0  0
    2.3042    2.5026    0.2117 H   0  0  0  0  0  0  0  0  0  0  0  0
    4.0709    3.7271   -3.5062 H   0  0  0  0  0  0  0  0  0  0  0  0
    4.6247    1.3389   -4.0164 H   0  0  0  0  0  0  0  0  0  0  0  0
    4.6081   -1.3721   -1.7366 H   0  0  0  0  0  0  0  0  0  0  0  0
    4.7997   -0.8762   -3.4376 H   0  0  0  0  0  0  0  0  0  0  0  0
    2.1361   -1.0607   -3.3102 H   0  0  0  0  0  0  0  0  0  0  0  0
    4.8671   -3.3757   -2.5022 H   0  0  0  0  0  0  0  0  0  0  0  0
    4.7058   -5.8316   -2.8149 H   0  0  0  0  0  0  0  0  0  0  0  0
    0.6149   -5.4271   -4.0628 H   0  0  0  0  0  0  0  0  0  0  0  0
  1  2  1  0
  1 22  1  0
  1 23  1  0
  2  3  2  0
  2  5  1  0
  3  4  1  0
  4 24  1  0
  5  6  2  0
  5 11  1  0
  6  7  1  0
  6 25  1  0
  7  8  1  0
  7  9  2  0
  9 10  1  0
  9 26  1  0
 10 11  2  0
 10 27  1  0
 11 12  1  0
 12 13  1  0
 12 28  1  0
 12 29  1  0
 13 14  1  0
 13 30  1  0
 14 15  2  0
 14 20  1  0
 15 16  1  0
 15 31  1  0
 16 17  2  0
 16 32  1  0
 17 18  1  0
 17 19  1  0
 19 20  2  0
 19 33  1  0
 20 21  1  0
M  END

