
     RDKit          3D

 52 55  0  0  0  0  0  0  0  0999 V2000
    1.5204   -0.6071   -1.0276 N   0  0  0  0  0  0  0  0  0  0  0  0
    2.1511    0.2697   -0.3269 C   0  0  0  0  0  0  0  0  0  0  0  0
    2.9668    1.3535   -0.9892 C   0  0  0  0  0  0  0  0  0  0  0  0
    2.5199    2.6827   -0.9195 C   0  0  0  0  0  0  0  0  0  0  0  0
    1.4854    2.9629   -0.1114 F   0  0  0  0  0  0  0  0  0  0  0  0
    3.0673    3.7249   -1.6596 C   0  0  0  0  0  0  0  0  0  0  0  0
    4.1252    3.4399   -2.5234 C   0  0  0  0  0  0  0  0  0  0  0  0
    4.6181    2.1402   -2.6135 C   0  0  0  0  0  0  0  0  0  0  0  0
    4.0517    1.0966   -1.8604 C   0  0  0  0  0  0  0  0  0  0  0  0
    4.6011   -0.1931   -2.0505 N   0  0  0  0  0  0  0  0  0  0  0  0
    4.8893   -1.1268   -1.0853 C   0  0  0  0  0  0  0  0  0  0  0  0
    4.6858   -0.9411    0.0998 O   0  0  0  0  0  0  0  0  0  0  0  0
    5.5590   -2.3886   -1.5899 C   0  0  0  0  0  0  0  0  0  0  0  0
    4.9805   -3.2103   -2.5757 C   0  0  0  0  0  0  0  0  0  0  0  0
    3.4651   -2.7807   -3.3594 Cl  0  0  0  0  0  0  0  0  0  0  0  0
    5.5620   -4.4184   -2.9669 C   0  0  0  0  0  0  0  0  0  0  0  0
    6.7605   -4.8105   -2.3756 C   0  0  0  0  0  0  0  0  0  0  0  0
    7.3628   -4.0056   -1.4096 C   0  0  0  0  0  0  0  0  0  0  0  0
    6.7818   -2.7989   -0.9906 C   0  0  0  0  0  0  0  0  0  0  0  0
    7.4429   -1.9606    0.0562 C   0  0  1  0  0  0  0  0  0  0  0  0
    7.7307   -2.5314    1.4344 C   0  0  0  0  0  0  0  0  0  0  0  0
    8.8661   -2.1821    0.5180 C   0  0  0  0  0  0  0  0  0  0  0  0
    2.0141    0.3174    1.0395 N   0  0  0  0  0  0  0  0  0  0  0  0
    1.0966   -0.6012    1.7048 C   0  0  0  0  0  0  0  0  0  0  0  0
    1.8455   -1.5415    2.6539 C   0  0  0  0  0  0  0  0  0  0  0  0
    2.6817   -0.7405    3.6592 C   0  0  0  0  0  0  0  0  0  0  0  0
    3.6202    0.2312    2.9400 C   0  0  2  0  0  0  0  0  0  0  0  0
    4.3536    1.0466    3.8378 O   0  0  0  0  0  0  0  0  0  0  0  0
    2.8437    1.1038    1.9334 C   0  0  0  0  0  0  0  0  0  0  0  0
    1.6891   -0.4638   -2.0224 H   0  0  0  0  0  0  0  0  0  0  0  0
    2.6524    4.7285   -1.5526 H   0  0  0  0  0  0  0  0  0  0  0  0
    4.5753    4.2368   -3.1196 H   0  0  0  0  0  0  0  0  0  0  0  0
    5.4658    1.9194   -3.2665 H   0  0  0  0  0  0  0  0  0  0  0  0
    4.9056   -0.4059   -2.9935 H   0  0  0  0  0  0  0  0  0  0  0  0
    5.0708   -5.0325   -3.7226 H   0  0  0  0  0  0  0  0  0  0  0  0
    7.2305   -5.7507   -2.6746 H   0  0  0  0  0  0  0  0  0  0  0  0
    8.3121   -4.3234   -0.9754 H   0  0  0  0  0  0  0  0  0  0  0  0
    7.1134   -0.9212    0.0774 H   0  0  0  0  0  0  0  0  0  0  0  0
    7.5062   -3.5919    1.5824 H   0  0  0  0  0  0  0  0  0  0  0  0
    7.5203   -1.8980    2.3003 H   0  0  0  0  0  0  0  0  0  0  0  0
    9.4544   -2.9944    0.0825 H   0  0  0  0  0  0  0  0  0  0  0  0
    9.4538   -1.2856    0.7356 H   0  0  0  0  0  0  0  0  0  0  0  0
    0.5613   -1.1559    0.9257 H   0  0  0  0  0  0  0  0  0  0  0  0
    0.3588   -0.0057    2.2799 H   0  0  0  0  0  0  0  0  0  0  0  0
    2.5047   -2.1952    2.0586 H   0  0  0  0  0  0  0  0  0  0  0  0
    1.1248   -2.1915    3.1781 H   0  0  0  0  0  0  0  0  0  0  0  0
    3.2700   -1.4005    4.3175 H   0  0  0  0  0  0  0  0  0  0  0  0
    2.0055   -0.1560    4.3162 H   0  0  0  0  0  0  0  0  0  0  0  0
    4.3667   -0.3431    2.3735 H   0  0  0  0  0  0  0  0  0  0  0  0
    3.7197    1.5150    4.3987 H   0  0  0  0  0  0  0  0  0  0  0  0
    3.5647    1.7022    1.3646 H   0  0  0  0  0  0  0  0  0  0  0  0
    2.2060    1.8111    2.5060 H   0  0  0  0  0  0  0  0  0  0  0  0
  1  2  2  0
  1 30  1  0
  2  3  1  0
  2 23  1  0
  3  4  2  0
  3  9  1  0
  4  5  1  0
  4  6  1  0
  6  7  2  0
  6 31  1  0
  7  8  1  0
  7 32  1  0
  8  9  2  0
  8 33  1  0
  9 10  1  0
 10 11  1  0
 10 34  1  0
 11 12  2  0
 11 13  1  0
 13 14  2  0
 13 19  1  0
 14 15  1  0
 14 16  1  0
 16 17  2  0
 16 35  1  0
 17 18  1  0
 17 36  1  0
 18 19  2  0
 18 37  1  0
 19 20  1  0
 20 21  1  0
 20 22  1  0
 20 38  1  1
 21 22  1  0
 21 39  1  0
 21 40  1  0
 22 41  1  0
 22 42  1  0
 23 24  1  0
 23 29  1  0
 24 25  1  0
 24 43  1  0
 24 44  1  0
 25 26  1  0
 25 45  1  0
 25 46  1  0
 26 27  1  0
 26 47  1  0
 26 48  1  0
 27 28  1  0
 27 29  1  0
 27 49  1  6
 28 50  1  0
 29 51  1  0
 29 52  1  0
M  END

