
     RDKit          3D

 44 45  0  0  0  0  0  0  0  0999 V2000
    1.1460   -0.5249    0.0612 C   0  0  0  0  0  0  0  0  0  0  0  0
    2.6657   -0.5377   -0.1022 C   0  0  0  0  0  0  0  0  0  0  0  0
    3.1289   -1.1807   -1.4089 C   0  0  0  0  0  0  0  0  0  0  0  0
    4.5748   -1.1352   -1.5476 N   0  0  0  0  0  0  0  0  0  0  0  0
    5.0897   -1.7179   -2.7741 C   0  0  0  0  0  0  0  0  0  0  0  0
    6.5943   -1.5744   -2.8947 C   0  0  0  0  0  0  0  0  0  0  0  0
    7.2553   -0.4334   -2.4255 C   0  0  0  0  0  0  0  0  0  0  0  0
    8.6368   -0.2849   -2.5715 C   0  0  0  0  0  0  0  0  0  0  0  0
    9.4047   -1.2787   -3.1991 C   0  0  0  0  0  0  0  0  0  0  0  0
   10.7433   -1.2119   -3.3764 O   0  0  0  0  0  0  0  0  0  0  0  0
   11.4587   -0.0552   -2.9802 C   0  0  0  0  0  0  0  0  0  0  0  0
   12.9385   -0.2919   -3.3178 C   0  0  1  0  0  0  0  0  0  0  0  0
   13.2232   -0.4551   -4.8188 C   0  0  0  0  0  0  0  0  0  0  0  0
   13.2124    0.8871   -5.5618 C   0  0  0  0  0  0  0  0  0  0  0  0
   14.1241    1.8875   -4.8422 C   0  0  0  0  0  0  0  0  0  0  0  0
   13.7366    1.9844   -3.3680 C   0  0  0  0  0  0  0  0  0  0  0  0
   13.7424    0.7191   -2.7235 O   0  0  0  0  0  0  0  0  0  0  0  0
    8.7379   -2.4297   -3.6685 C   0  0  0  0  0  0  0  0  0  0  0  0
    9.7370   -3.8133   -4.5157 Br  0  0  0  0  0  0  0  0  0  0  0  0
    7.3608   -2.5733   -3.5137 C   0  0  0  0  0  0  0  0  0  0  0  0
    0.8489   -0.0598    1.0142 H   0  0  0  0  0  0  0  0  0  0  0  0
    0.7287   -1.5457    0.0460 H   0  0  0  0  0  0  0  0  0  0  0  0
    0.6598    0.0423   -0.7502 H   0  0  0  0  0  0  0  0  0  0  0  0
    3.1230   -1.0797    0.7467 H   0  0  0  0  0  0  0  0  0  0  0  0
    3.0668    0.4892   -0.0594 H   0  0  0  0  0  0  0  0  0  0  0  0
    2.6862   -0.6343   -2.2624 H   0  0  0  0  0  0  0  0  0  0  0  0
    2.7213   -2.2175   -1.4731 H   0  0  0  0  0  0  0  0  0  0  0  0
    5.0199   -1.5786   -0.7434 H   0  0  0  0  0  0  0  0  0  0  0  0
    4.6055   -1.1918   -3.6196 H   0  0  0  0  0  0  0  0  0  0  0  0
    4.8182   -2.7906   -2.9025 H   0  0  0  0  0  0  0  0  0  0  0  0
    6.6719    0.3439   -1.9281 H   0  0  0  0  0  0  0  0  0  0  0  0
    9.1196    0.6144   -2.1879 H   0  0  0  0  0  0  0  0  0  0  0  0
   11.3723    0.1118   -1.8916 H   0  0  0  0  0  0  0  0  0  0  0  0
   11.0522    0.8342   -3.4948 H   0  0  0  0  0  0  0  0  0  0  0  0
   13.2227   -1.2233   -2.8024 H   0  0  0  0  0  0  0  0  0  0  0  0
   12.4971   -1.1634   -5.2465 H   0  0  0  0  0  0  0  0  0  0  0  0
   14.2214   -0.9136   -4.9226 H   0  0  0  0  0  0  0  0  0  0  0  0
   12.1849    1.2922   -5.6095 H   0  0  0  0  0  0  0  0  0  0  0  0
   13.5320    0.7448   -6.6070 H   0  0  0  0  0  0  0  0  0  0  0  0
   14.0704    2.8874   -5.3053 H   0  0  0  0  0  0  0  0  0  0  0  0
   15.1736    1.5515   -4.9142 H   0  0  0  0  0  0  0  0  0  0  0  0
   12.7435    2.4717   -3.2760 H   0  0  0  0  0  0  0  0  0  0  0  0
   14.4514    2.6063   -2.8072 H   0  0  0  0  0  0  0  0  0  0  0  0
    6.8812   -3.4826   -3.8832 H   0  0  0  0  0  0  0  0  0  0  0  0
  1  2  1  0
  1 21  1  0
  1 22  1  0
  1 23  1  0
  2  3  1  0
  2 24  1  0
  2 25  1  0
  3  4  1  0
  3 26  1  0
  3 27  1  0
  4  5  1  0
  4 28  1  0
  5  6  1  0
  5 29  1  0
  5 30  1  0
  6  7  2  0
  6 20  1  0
  7  8  1  0
  7 31  1  0
  8  9  2  0
  8 32  1  0
  9 10  1  0
  9 18  1  0
 10 11  1  0
 11 12  1  0
 11 33  1  0
 11 34  1  0
 12 13  1  0
 12 17  1  0
 12 35  1  1
 13 14  1  0
 13 36  1  0
 13 37  1  0
 14 15  1  0
 14 38  1  0
 14 39  1  0
 15 16  1  0
 15 40  1  0
 15 41  1  0
 16 17  1  0
 16 42  1  0
 16 43  1  0
 18 19  1  0
 18 20  2  0
 20 44  1  0
M  END

