
     RDKit          3D

 48 49  0  0  0  0  0  0  0  0999 V2000
    5.2207   -4.8234    0.6132 C   0  0  0  0  0  0  0  0  0  0  0  0
    4.8276   -3.5592    1.0770 O   0  0  0  0  0  0  0  0  0  0  0  0
    5.0051   -2.5227    0.1446 C   0  0  0  0  0  0  0  0  0  0  0  0
    4.4557   -1.2092    0.7295 C   0  0  1  0  0  0  0  0  0  0  0  0
    5.0843   -0.9402    2.1234 C   0  0  0  0  0  0  0  0  0  0  0  0
    4.4245   -0.5725    3.0804 O   0  0  0  0  0  0  0  0  0  0  0  0
    6.4447   -1.0690    2.2031 N   0  0  0  0  0  0  0  0  0  0  0  0
    7.1597   -0.8504    3.4454 C   0  0  0  0  0  0  0  0  0  0  0  0
    7.0926   -2.0580    4.3800 C   0  0  0  0  0  0  0  0  0  0  0  0
    7.9025   -1.7621    5.5004 O   0  0  0  0  0  0  0  0  0  0  0  0
    7.9996   -2.6574    6.5198 C   0  0  0  0  0  0  0  0  0  0  0  0
    8.8350   -2.2986    7.5892 C   0  0  0  0  0  0  0  0  0  0  0  0
    8.9951   -3.1573    8.6742 C   0  0  0  0  0  0  0  0  0  0  0  0
    8.3354   -4.3966    8.7364 C   0  0  0  0  0  0  0  0  0  0  0  0
    8.5038   -5.3262    9.9151 C   0  0  0  0  0  0  0  0  0  0  0  0
    7.5058   -4.7377    7.6597 C   0  0  0  0  0  0  0  0  0  0  0  0
    7.3311   -3.8905    6.5603 C   0  0  0  0  0  0  0  0  0  0  0  0
    4.8114   -0.0076   -0.1920 C   0  0  0  0  0  0  0  0  0  0  0  0
    3.9873    0.0273   -1.4836 C   0  0  0  0  0  0  0  0  0  0  0  0
    2.5710    0.0135   -1.1612 N   0  0  0  0  0  0  0  0  0  0  0  0
    2.1722   -1.1900   -0.4436 C   0  0  0  0  0  0  0  0  0  0  0  0
    2.9187   -1.2851    0.8887 C   0  0  0  0  0  0  0  0  0  0  0  0
    5.0282   -5.5508    1.4151 H   0  0  0  0  0  0  0  0  0  0  0  0
    6.3003   -4.8560    0.3590 H   0  0  0  0  0  0  0  0  0  0  0  0
    4.6513   -5.1306   -0.2873 H   0  0  0  0  0  0  0  0  0  0  0  0
    4.4885   -2.7651   -0.8046 H   0  0  0  0  0  0  0  0  0  0  0  0
    6.0811   -2.4189   -0.1229 H   0  0  0  0  0  0  0  0  0  0  0  0
    6.9505   -1.4617    1.4206 H   0  0  0  0  0  0  0  0  0  0  0  0
    6.7235    0.0195    3.9571 H   0  0  0  0  0  0  0  0  0  0  0  0
    8.2132   -0.6218    3.2210 H   0  0  0  0  0  0  0  0  0  0  0  0
    7.4582   -2.9651    3.8605 H   0  0  0  0  0  0  0  0  0  0  0  0
    6.0444   -2.2338    4.6782 H   0  0  0  0  0  0  0  0  0  0  0  0
    9.3494   -1.3362    7.5466 H   0  0  0  0  0  0  0  0  0  0  0  0
    9.6508   -2.8560    9.4965 H   0  0  0  0  0  0  0  0  0  0  0  0
    9.2245   -4.9255   10.6438 H   0  0  0  0  0  0  0  0  0  0  0  0
    8.8652   -6.3196    9.6000 H   0  0  0  0  0  0  0  0  0  0  0  0
    7.5493   -5.4855   10.4454 H   0  0  0  0  0  0  0  0  0  0  0  0
    6.9742   -5.6944    7.6727 H   0  0  0  0  0  0  0  0  0  0  0  0
    6.6716   -4.1980    5.7483 H   0  0  0  0  0  0  0  0  0  0  0  0
    5.8884   -0.0093   -0.4314 H   0  0  0  0  0  0  0  0  0  0  0  0
    4.6043    0.9191    0.3670 H   0  0  0  0  0  0  0  0  0  0  0  0
    4.2921   -0.8174   -2.1466 H   0  0  0  0  0  0  0  0  0  0  0  0
    4.2225    0.9530   -2.0348 H   0  0  0  0  0  0  0  0  0  0  0  0
    2.0070    0.1432   -1.9981 H   0  0  0  0  0  0  0  0  0  0  0  0
    2.3373   -2.1173   -1.0422 H   0  0  0  0  0  0  0  0  0  0  0  0
    1.0893   -1.1420   -0.2440 H   0  0  0  0  0  0  0  0  0  0  0  0
    2.6562   -2.2172    1.4112 H   0  0  0  0  0  0  0  0  0  0  0  0
    2.6063   -0.4548    1.5363 H   0  0  0  0  0  0  0  0  0  0  0  0
  1  2  1  0
  1 23  1  0
  1 24  1  0
  1 25  1  0
  2  3  1  0
  3  4  1  0
  3 26  1  0
  3 27  1  0
  4  5  1  1
  4 18  1  0
  4 22  1  0
  5  6  2  0
  5  7  1  0
  7  8  1  0
  7 28  1  0
  8  9  1  0
  8 29  1  0
  8 30  1  0
  9 10  1  0
  9 31  1  0
  9 32  1  0
 10 11  1  0
 11 12  2  0
 11 17  1  0
 12 13  1  0
 12 33  1  0
 13 14  2  0
 13 34  1  0
 14 15  1  0
 14 16  1  0
 15 35  1  0
 15 36  1  0
 15 37  1  0
 16 17  2  0
 16 38  1  0
 17 39  1  0
 18 19  1  0
 18 40  1  0
 18 41  1  0
 19 20  1  0
 19 42  1  0
 19 43  1  0
 20 21  1  0
 20 44  1  0
 21 22  1  0
 21 45  1  0
 21 46  1  0
 22 47  1  0
 22 48  1  0
M  END

