
     RDKit          3D

 37 38  0  0  0  0  0  0  0  0999 V2000
    1.3162   -0.1688    0.3230 C   0  0  0  0  0  0  0  0  0  0  0  0
    2.7609   -0.0726    0.1788 N   0  0  0  0  0  0  0  0  0  0  0  0
    3.2457    1.1488   -0.4739 C   0  0  0  0  0  0  0  0  0  0  0  0
    3.1197    2.3924    0.3634 C   0  0  0  0  0  0  0  0  0  0  0  0
    2.2962    3.5253    0.1403 C   0  0  0  0  0  0  0  0  0  0  0  0
    2.4470    4.4461    1.0890 N   0  0  0  0  0  0  0  0  0  0  0  0
    3.3540    3.9292    1.9317 N   0  0  0  0  0  0  0  0  0  0  0  0
    3.7561    4.6836    3.1002 C   0  0  0  0  0  0  0  0  0  0  0  0
    3.7894    2.7023    1.5410 C   0  0  0  0  0  0  0  0  0  0  0  0
    3.5085   -1.1750    0.4908 C   0  0  0  0  0  0  0  0  0  0  0  0
    3.0004   -2.2460    0.8081 O   0  0  0  0  0  0  0  0  0  0  0  0
    5.0259   -1.1006    0.4747 C   0  0  0  0  0  0  0  0  0  0  0  0
    5.7174   -2.2825    0.1712 C   0  0  0  0  0  0  0  0  0  0  0  0
    7.1082   -2.2815    0.2239 C   0  0  0  0  0  0  0  0  0  0  0  0
    7.7817   -1.1117    0.6085 C   0  0  0  0  0  0  0  0  0  0  0  0
    9.2592   -1.0487    0.6918 C   0  0  0  0  0  0  0  0  0  0  0  0
    9.9607   -2.2278    0.8190 N   0  0  0  0  0  0  0  0  0  0  0  0
    9.8155    0.1138    0.5802 N   0  0  0  0  0  0  0  0  0  0  0  0
   11.2058    0.0052    0.7119 O   0  0  0  0  0  0  0  0  0  0  0  0
    6.9923    0.0123    0.9146 C   0  0  0  0  0  0  0  0  0  0  0  0
    5.6634    0.0202    0.8424 N   0  0  0  0  0  0  0  0  0  0  0  0
    0.9273    0.7528    0.7835 H   0  0  0  0  0  0  0  0  0  0  0  0
    1.0729   -1.0335    0.9498 H   0  0  0  0  0  0  0  0  0  0  0  0
    0.8260   -0.2999   -0.6596 H   0  0  0  0  0  0  0  0  0  0  0  0
    2.6576    1.2874   -1.3992 H   0  0  0  0  0  0  0  0  0  0  0  0
    4.2866    0.9972   -0.7765 H   0  0  0  0  0  0  0  0  0  0  0  0
    1.6032    3.7008   -0.6841 H   0  0  0  0  0  0  0  0  0  0  0  0
    2.8862    4.8814    3.7450 H   0  0  0  0  0  0  0  0  0  0  0  0
    4.1961    5.6468    2.8001 H   0  0  0  0  0  0  0  0  0  0  0  0
    4.5001    4.1056    3.6640 H   0  0  0  0  0  0  0  0  0  0  0  0
    4.5290    2.1316    2.0971 H   0  0  0  0  0  0  0  0  0  0  0  0
    5.1516   -3.1756   -0.0947 H   0  0  0  0  0  0  0  0  0  0  0  0
    7.6707   -3.1779   -0.0476 H   0  0  0  0  0  0  0  0  0  0  0  0
    9.5223   -2.9691    1.3528 H   0  0  0  0  0  0  0  0  0  0  0  0
   10.9525   -2.1034    0.9951 H   0  0  0  0  0  0  0  0  0  0  0  0
   11.5060    0.9145    0.5944 H   0  0  0  0  0  0  0  0  0  0  0  0
    7.4843    0.9366    1.2315 H   0  0  0  0  0  0  0  0  0  0  0  0
  1  2  1  0
  1 22  1  0
  1 23  1  0
  1 24  1  0
  2  3  1  0
  2 10  1  0
  3  4  1  0
  3 25  1  0
  3 26  1  0
  4  5  1  0
  4  9  2  0
  5  6  2  0
  5 27  1  0
  6  7  1  0
  7  8  1  0
  7  9  1  0
  8 28  1  0
  8 29  1  0
  8 30  1  0
  9 31  1  0
 10 11  2  0
 10 12  1  0
 12 13  2  0
 12 21  1  0
 13 14  1  0
 13 32  1  0
 14 15  2  0
 14 33  1  0
 15 16  1  0
 15 20  1  0
 16 17  1  0
 16 18  2  0
 17 34  1  0
 17 35  1  0
 18 19  1  0
 19 36  1  0
 20 21  2  0
 20 37  1  0
M  END

