
     RDKit          3D

 19 19  0  0  0  0  0  0  0  0999 V2000
    1.6692    0.0149   -1.4516 N   0  0  0  0  0  0  0  0  0  0  0  0
    2.5168   -0.0660   -0.6658 C   0  0  0  0  0  0  0  0  0  0  0  0
    3.5919   -0.0906    0.3250 C   0  0  0  0  0  0  0  0  0  0  0  0
    4.1168    1.2890    0.6825 C   0  0  0  0  0  0  0  0  0  0  0  0
    3.5465    2.3811    0.0762 N   0  0  0  0  0  0  0  0  0  0  0  0
    2.8009    2.2303   -0.5982 H   0  0  0  0  0  0  0  0  0  0  0  0
    3.9542    3.6535    0.3520 C   0  0  0  0  0  0  0  0  0  0  0  0
    4.9528    3.8991    1.2431 C   0  0  0  0  0  0  0  0  0  0  0  0
    5.3686    5.3049    1.5759 C   0  0  1  0  0  0  0  0  0  0  0  0
    4.9468    6.1687    0.6050 F   0  0  0  0  0  0  0  0  0  0  0  0
    4.7978    5.7054    2.7440 F   0  0  0  0  0  0  0  0  0  0  0  0
    5.6466    2.8105    1.9456 C   0  0  0  0  0  0  0  0  0  0  0  0
    6.5624    2.9944    2.7353 O   0  0  0  0  0  0  0  0  0  0  0  0
    5.1317    1.4734    1.5829 C   0  0  0  0  0  0  0  0  0  0  0  0
    5.8712    0.1077    2.3556 Cl  0  0  0  0  0  0  0  0  0  0  0  0
    4.4207   -0.7132   -0.0509 H   0  0  0  0  0  0  0  0  0  0  0  0
    3.2310   -0.5950    1.2375 H   0  0  0  0  0  0  0  0  0  0  0  0
    3.4452    4.4546   -0.1862 H   0  0  0  0  0  0  0  0  0  0  0  0
    6.4615    5.3902    1.6848 H   0  0  0  0  0  0  0  0  0  0  0  0
  1  2  3  0
  2  3  1  0
  3  4  1  0
  3 16  1  0
  3 17  1  0
  4  5  1  0
  4 14  2  0
  5  6  1  0
  5  7  1  0
  7  8  2  0
  7 18  1  0
  8  9  1  0
  8 12  1  0
  9 10  1  0
  9 11  1  0
  9 19  1  1
 12 13  2  0
 12 14  1  0
 14 15  1  0
M  END

