
     RDKit          3D

 76 82  0  0  0  0  0  0  0  0999 V2000
    2.3375   -1.6471   -1.6195 C   0  0  0  0  0  0  0  0  0  0  0  0
    1.4194   -0.5187   -2.0993 C   0  0  1  0  0  0  0  0  0  0  0  0
    0.3411   -1.0197   -3.0651 C   0  0  0  0  0  0  0  0  0  0  0  0
    0.7875    0.2052   -0.9089 C   0  0  0  0  0  0  0  0  0  0  0  0
    2.2127    0.5407   -2.7368 O   0  0  0  0  0  0  0  0  0  0  0  0
    2.9488    0.3281   -3.8409 C   0  0  0  0  0  0  0  0  0  0  0  0
    3.0316   -0.7470   -4.4316 O   0  0  0  0  0  0  0  0  0  0  0  0
    3.5973    1.4530   -4.2403 N   0  0  0  0  0  0  0  0  0  0  0  0
    3.4248    2.7928   -3.6698 C   0  0  0  0  0  0  0  0  0  0  0  0
    3.5456    3.7008   -4.8969 C   0  0  0  0  0  0  0  0  0  0  0  0
    4.5958    2.9886   -5.7593 C   0  0  0  0  0  0  0  0  0  0  0  0
    4.3495    1.4842   -5.5204 C   0  0  1  0  0  0  0  0  0  0  0  0
    3.6938    1.0545   -6.2989 H   0  0  0  0  0  0  0  0  0  0  0  0
    5.6302    0.6872   -5.4933 C   0  0  0  0  0  0  0  0  0  0  0  0
    6.8554    1.1614   -5.6352 N   0  0  0  0  0  0  0  0  0  0  0  0
    7.6798    0.0745   -5.5715 C   0  0  0  0  0  0  0  0  0  0  0  0
    6.9479   -1.0936   -5.3835 C   0  0  0  0  0  0  0  0  0  0  0  0
    7.3575   -2.4879   -5.2235 C   0  0  0  0  0  0  0  0  0  0  0  0
    8.6710   -2.8926   -5.5388 C   0  0  0  0  0  0  0  0  0  0  0  0
    9.0674   -4.2183   -5.3912 C   0  0  0  0  0  0  0  0  0  0  0  0
    8.1773   -5.1821   -4.8936 C   0  0  0  0  0  0  0  0  0  0  0  0
    6.8636   -4.7956   -4.5788 C   0  0  0  0  0  0  0  0  0  0  0  0
    6.4599   -3.4683   -4.7598 C   0  0  0  0  0  0  0  0  0  0  0  0
    5.7035   -5.9574   -3.8785 S   0  0  0  0  0  0  0  0  0  0  0  0
    6.0424   -7.4192   -4.8381 C   0  0  0  0  0  0  0  0  0  0  0  0
    4.9794   -8.2391   -5.2383 C   0  0  0  0  0  0  0  0  0  0  0  0
    5.2184   -9.4384   -5.9072 C   0  0  0  0  0  0  0  0  0  0  0  0
    6.5303   -9.8456   -6.2231 C   0  0  0  0  0  0  0  0  0  0  0  0
    6.8037  -11.0913   -6.9367 C   0  0  0  0  0  0  0  0  0  0  0  0
    7.8941  -11.5245   -7.6779 C   0  0  0  0  0  0  0  0  0  0  0  0
    7.6839  -12.7799   -8.1737 N   0  0  0  0  0  0  0  0  0  0  0  0
    6.4855  -13.1440   -7.7564 C   0  0  0  0  0  0  0  0  0  0  0  0
    5.8122  -14.4483   -8.0576 C   0  0  1  0  0  0  0  0  0  0  0  0
    5.4854  -14.6663   -9.5523 C   0  0  0  0  0  0  0  0  0  0  0  0
    5.1705  -16.1658   -9.6295 C   0  0  0  0  0  0  0  0  0  0  0  0
    6.1579  -16.8320   -8.6358 C   0  0  0  0  0  0  0  0  0  0  0  0
    6.6688  -15.6934   -7.7120 C   0  0  0  0  0  0  0  0  0  0  0  0
    5.9118  -12.1502   -7.0120 N   0  0  0  0  0  0  0  0  0  0  0  0
    5.0209  -12.2111   -6.5351 H   0  0  0  0  0  0  0  0  0  0  0  0
    7.5908   -8.9968   -5.8491 C   0  0  0  0  0  0  0  0  0  0  0  0
    7.3584   -7.8068   -5.1552 C   0  0  0  0  0  0  0  0  0  0  0  0
    8.7587   -6.8429   -4.6136 S   0  0  0  0  0  0  0  0  0  0  0  0
    5.6366   -0.6663   -5.3460 N   0  0  0  0  0  0  0  0  0  0  0  0
    4.7771   -1.1885   -5.1685 H   0  0  0  0  0  0  0  0  0  0  0  0
    1.7553   -2.3707   -1.0281 H   0  0  0  0  0  0  0  0  0  0  0  0
    3.1356   -1.2452   -0.9760 H   0  0  0  0  0  0  0  0  0  0  0  0
    2.7952   -2.1741   -2.4657 H   0  0  0  0  0  0  0  0  0  0  0  0
   -0.3182   -1.7327   -2.5460 H   0  0  0  0  0  0  0  0  0  0  0  0
    0.7890   -1.5199   -3.9329 H   0  0  0  0  0  0  0  0  0  0  0  0
   -0.2776   -0.1797   -3.4184 H   0  0  0  0  0  0  0  0  0  0  0  0
    0.1565   -0.4887   -0.3333 H   0  0  0  0  0  0  0  0  0  0  0  0
    0.1609    1.0428   -1.2512 H   0  0  0  0  0  0  0  0  0  0  0  0
    1.5652    0.6055   -0.2411 H   0  0  0  0  0  0  0  0  0  0  0  0
    4.2202    3.0071   -2.9326 H   0  0  0  0  0  0  0  0  0  0  0  0
    2.4597    2.8668   -3.1537 H   0  0  0  0  0  0  0  0  0  0  0  0
    3.8326    4.7303   -4.6355 H   0  0  0  0  0  0  0  0  0  0  0  0
    2.5755    3.7450   -5.4201 H   0  0  0  0  0  0  0  0  0  0  0  0
    5.6155    3.2342   -5.4300 H   0  0  0  0  0  0  0  0  0  0  0  0
    4.5286    3.2430   -6.8265 H   0  0  0  0  0  0  0  0  0  0  0  0
    8.7616    0.1755   -5.6469 H   0  0  0  0  0  0  0  0  0  0  0  0
    9.3834   -2.1640   -5.9302 H   0  0  0  0  0  0  0  0  0  0  0  0
   10.0818   -4.5185   -5.6641 H   0  0  0  0  0  0  0  0  0  0  0  0
    5.4297   -3.2035   -4.5116 H   0  0  0  0  0  0  0  0  0  0  0  0
    3.9542   -7.9282   -5.0236 H   0  0  0  0  0  0  0  0  0  0  0  0
    4.3629  -10.0422   -6.2199 H   0  0  0  0  0  0  0  0  0  0  0  0
    8.8085  -10.9717   -7.8907 H   0  0  0  0  0  0  0  0  0  0  0  0
    4.8654  -14.4883   -7.4882 H   0  0  0  0  0  0  0  0  0  0  0  0
    6.3837  -14.4192  -10.1424 H   0  0  0  0  0  0  0  0  0  0  0  0
    4.6657  -14.0232   -9.9107 H   0  0  0  0  0  0  0  0  0  0  0  0
    5.2538  -16.5672  -10.6513 H   0  0  0  0  0  0  0  0  0  0  0  0
    4.1308  -16.3397   -9.3034 H   0  0  0  0  0  0  0  0  0  0  0  0
    7.0002  -17.2986   -9.1700 H   0  0  0  0  0  0  0  0  0  0  0  0
    5.6675  -17.6370   -8.0665 H   0  0  0  0  0  0  0  0  0  0  0  0
    7.7194  -15.4520   -7.9316 H   0  0  0  0  0  0  0  0  0  0  0  0
    6.6116  -15.9457   -6.6417 H   0  0  0  0  0  0  0  0  0  0  0  0
    8.6191   -9.2791   -6.0834 H   0  0  0  0  0  0  0  0  0  0  0  0
  1  2  1  0
  1 45  1  0
  1 46  1  0
  1 47  1  0
  2  3  1  0
  2  4  1  0
  2  5  1  6
  3 48  1  0
  3 49  1  0
  3 50  1  0
  4 51  1  0
  4 52  1  0
  4 53  1  0
  5  6  1  0
  6  7  2  0
  6  8  1  0
  8  9  1  0
  8 12  1  0
  9 10  1  0
  9 54  1  0
  9 55  1  0
 10 11  1  0
 10 56  1  0
 10 57  1  0
 11 12  1  0
 11 58  1  0
 11 59  1  0
 12 13  1  6
 12 14  1  0
 14 15  2  0
 14 43  1  0
 15 16  1  0
 16 17  2  0
 16 60  1  0
 17 18  1  0
 17 43  1  0
 18 19  2  0
 18 23  1  0
 19 20  1  0
 19 61  1  0
 20 21  2  0
 20 62  1  0
 21 22  1  0
 21 42  1  0
 22 23  2  0
 22 24  1  0
 23 63  1  0
 24 25  1  0
 25 26  2  0
 25 41  1  0
 26 27  1  0
 26 64  1  0
 27 28  2  0
 27 65  1  0
 28 29  1  0
 28 40  1  0
 29 30  2  0
 29 38  1  0
 30 31  1  0
 30 66  1  0
 31 32  2  0
 32 33  1  0
 32 38  1  0
 33 34  1  0
 33 37  1  0
 33 67  1  1
 34 35  1  0
 34 68  1  0
 34 69  1  0
 35 36  1  0
 35 70  1  0
 35 71  1  0
 36 37  1  0
 36 72  1  0
 36 73  1  0
 37 74  1  0
 37 75  1  0
 38 39  1  0
 40 41  2  0
 40 76  1  0
 41 42  1  0
 43 44  1  0
M  END

