
     RDKit          3D

 30 31  0  0  0  0  0  0  0  0999 V2000
    0.9135    0.3065   -0.7073 C   0  0  0  0  0  0  0  0  0  0  0  0
    2.3666   -0.0460   -0.9617 C   0  0  0  0  0  0  0  0  0  0  0  0
    3.0916    1.1630   -1.1189 O   0  0  0  0  0  0  0  0  0  0  0  0
    4.4296    1.1288   -1.3406 C   0  0  0  0  0  0  0  0  0  0  0  0
    5.0709    2.3740   -1.4562 C   0  0  0  0  0  0  0  0  0  0  0  0
    6.4447    2.4279   -1.6734 C   0  0  0  0  0  0  0  0  0  0  0  0
    7.2000    1.2550   -1.7821 C   0  0  0  0  0  0  0  0  0  0  0  0
    6.5697    0.0098   -1.6769 C   0  0  0  0  0  0  0  0  0  0  0  0
    7.3414   -1.2867   -1.8981 C   0  0  1  0  0  0  0  0  0  0  0  0
    7.6002   -1.6022   -3.3156 N   0  0  0  0  0  0  0  0  0  0  0  0
    8.6569   -1.3506   -1.1624 C   0  0  0  0  0  0  0  0  0  0  0  0
    8.9616   -0.8844    0.0368 N   0  0  0  0  0  0  0  0  0  0  0  0
   10.2487   -1.2943    0.2058 C   0  0  0  0  0  0  0  0  0  0  0  0
   10.7562   -1.9803   -0.8077 N   0  0  0  0  0  0  0  0  0  0  0  0
    9.7254   -2.0068   -1.6713 N   0  0  0  0  0  0  0  0  0  0  0  0
    9.7677   -2.4682   -2.5739 H   0  0  0  0  0  0  0  0  0  0  0  0
    5.1842   -0.0494   -1.4548 C   0  0  0  0  0  0  0  0  0  0  0  0
    0.3156   -0.6092   -0.5800 H   0  0  0  0  0  0  0  0  0  0  0  0
    0.4990    0.8797   -1.5506 H   0  0  0  0  0  0  0  0  0  0  0  0
    0.8160    0.9163    0.2038 H   0  0  0  0  0  0  0  0  0  0  0  0
    2.4642   -0.6679   -1.8723 H   0  0  0  0  0  0  0  0  0  0  0  0
    2.7817   -0.6296   -0.1181 H   0  0  0  0  0  0  0  0  0  0  0  0
    4.4684    3.2796   -1.3618 H   0  0  0  0  0  0  0  0  0  0  0  0
    6.9384    3.4003   -1.7492 H   0  0  0  0  0  0  0  0  0  0  0  0
    8.2813    1.3143   -1.9251 H   0  0  0  0  0  0  0  0  0  0  0  0
    6.7229   -2.1123   -1.5037 H   0  0  0  0  0  0  0  0  0  0  0  0
    7.9397   -0.7620   -3.7890 H   0  0  0  0  0  0  0  0  0  0  0  0
    6.7236   -1.8412   -3.7783 H   0  0  0  0  0  0  0  0  0  0  0  0
   10.8326   -1.0795    1.1007 H   0  0  0  0  0  0  0  0  0  0  0  0
    4.7056   -1.0256   -1.3641 H   0  0  0  0  0  0  0  0  0  0  0  0
  1  2  1  0
  1 18  1  0
  1 19  1  0
  1 20  1  0
  2  3  1  0
  2 21  1  0
  2 22  1  0
  3  4  1  0
  4  5  2  0
  4 17  1  0
  5  6  1  0
  5 23  1  0
  6  7  2  0
  6 24  1  0
  7  8  1  0
  7 25  1  0
  8  9  1  0
  8 17  2  0
  9 10  1  0
  9 11  1  0
  9 26  1  1
 10 27  1  0
 10 28  1  0
 11 12  2  0
 11 15  1  0
 12 13  1  0
 13 14  2  0
 13 29  1  0
 14 15  1  0
 15 16  1  0
 17 30  1  0
M  END

