
     RDKit          3D

 35 36  0  0  0  0  0  0  0  0999 V2000
    1.4495    0.3905   -0.0294 C   0  0  0  0  0  0  0  0  0  0  0  0
    2.8114   -0.0727    0.4860 C   0  0  0  0  0  0  0  0  0  0  0  0
    3.2840   -1.3290   -0.1064 N   0  0  0  0  0  0  0  0  0  0  0  0
    2.3406   -2.4513   -0.1029 C   0  0  0  0  0  0  0  0  0  0  0  0
    1.7334   -2.9344   -1.4242 C   0  0  0  0  0  0  0  0  0  0  0  0
    1.9426   -2.3331   -2.7003 C   0  0  0  0  0  0  0  0  0  0  0  0
    2.6867   -1.1778   -2.8626 N   0  0  0  0  0  0  0  0  0  0  0  0
    1.3390   -2.9052   -3.8427 C   0  0  0  0  0  0  0  0  0  0  0  0
    0.5314   -4.0303   -3.7541 C   0  0  0  0  0  0  0  0  0  0  0  0
    0.2937   -4.6283   -2.5150 C   0  0  0  0  0  0  0  0  0  0  0  0
    0.8978   -4.0681   -1.3901 C   0  0  0  0  0  0  0  0  0  0  0  0
    0.5305   -4.9392    0.2878 Br  0  0  0  0  0  0  0  0  0  0  0  0
    4.6532   -1.6341   -0.0531 C   0  0  0  0  0  0  0  0  0  0  0  0
    5.1451   -2.8058   -0.6796 C   0  0  0  0  0  0  0  0  0  0  0  0
    6.5057   -3.1072   -0.6601 C   0  0  0  0  0  0  0  0  0  0  0  0
    7.4319   -2.2694   -0.0312 C   0  0  0  0  0  0  0  0  0  0  0  0
    6.9375   -1.1236    0.5820 C   0  0  0  0  0  0  0  0  0  0  0  0
    7.7912   -0.2975    1.2094 F   0  0  0  0  0  0  0  0  0  0  0  0
    5.5852   -0.7924    0.5921 C   0  0  0  0  0  0  0  0  0  0  0  0
    1.2222    1.3811    0.3944 H   0  0  0  0  0  0  0  0  0  0  0  0
    0.6308   -0.2835    0.2632 H   0  0  0  0  0  0  0  0  0  0  0  0
    1.4486    0.4708   -1.1268 H   0  0  0  0  0  0  0  0  0  0  0  0
    2.7935   -0.1431    1.5942 H   0  0  0  0  0  0  0  0  0  0  0  0
    3.5474    0.7058    0.2375 H   0  0  0  0  0  0  0  0  0  0  0  0
    1.5124   -2.1960    0.5768 H   0  0  0  0  0  0  0  0  0  0  0  0
    2.8292   -3.3144    0.3767 H   0  0  0  0  0  0  0  0  0  0  0  0
    3.3013   -0.9284   -2.0963 H   0  0  0  0  0  0  0  0  0  0  0  0
    3.0476   -1.0053   -3.7928 H   0  0  0  0  0  0  0  0  0  0  0  0
    1.5143   -2.4320   -4.8128 H   0  0  0  0  0  0  0  0  0  0  0  0
    0.0775   -4.4481   -4.6563 H   0  0  0  0  0  0  0  0  0  0  0  0
   -0.3424   -5.5082   -2.4192 H   0  0  0  0  0  0  0  0  0  0  0  0
    4.4610   -3.4725   -1.2049 H   0  0  0  0  0  0  0  0  0  0  0  0
    6.8543   -4.0163   -1.1567 H   0  0  0  0  0  0  0  0  0  0  0  0
    8.5006   -2.4861   -0.0088 H   0  0  0  0  0  0  0  0  0  0  0  0
    5.2925    0.1088    1.1266 H   0  0  0  0  0  0  0  0  0  0  0  0
  1  2  1  0
  1 20  1  0
  1 21  1  0
  1 22  1  0
  2  3  1  0
  2 23  1  0
  2 24  1  0
  3  4  1  0
  3 13  1  0
  4  5  1  0
  4 25  1  0
  4 26  1  0
  5  6  2  0
  5 11  1  0
  6  7  1  0
  6  8  1  0
  7 27  1  0
  7 28  1  0
  8  9  2  0
  8 29  1  0
  9 10  1  0
  9 30  1  0
 10 11  2  0
 10 31  1  0
 11 12  1  0
 13 14  2  0
 13 19  1  0
 14 15  1  0
 14 32  1  0
 15 16  2  0
 15 33  1  0
 16 17  1  0
 16 34  1  0
 17 18  1  0
 17 19  2  0
 19 35  1  0
M  END

