
     RDKit          3D

 62 65  0  0  0  0  0  0  0  0999 V2000
    1.3364   -0.8115   -2.0179 C   0  0  0  0  0  0  0  0  0  0  0  0
    2.7614   -0.6769   -1.5902 C   0  0  0  0  0  0  0  0  0  0  0  0
    3.4541   -1.7336   -1.0738 N   0  0  0  0  0  0  0  0  0  0  0  0
    4.6691   -1.2827   -0.8072 C   0  0  0  0  0  0  0  0  0  0  0  0
    5.7987   -1.9322   -0.2503 C   0  0  0  0  0  0  0  0  0  0  0  0
    6.9707   -1.2348   -0.0723 C   0  0  0  0  0  0  0  0  0  0  0  0
    7.0632    0.1452   -0.4452 C   0  0  0  0  0  0  0  0  0  0  0  0
    8.2884    1.0025   -0.3009 C   0  0  0  0  0  0  0  0  0  0  0  0
    8.2426    2.2180   -0.4415 O   0  0  0  0  0  0  0  0  0  0  0  0
    9.4602    0.3516   -0.0262 N   0  0  0  0  0  0  0  0  0  0  0  0
   10.7056    1.0721    0.1598 C   0  0  0  0  0  0  0  0  0  0  0  0
   10.9963    1.4199    1.6258 C   0  0  0  0  0  0  0  0  0  0  0  0
   12.2985    2.2123    1.7825 C   0  0  0  0  0  0  0  0  0  0  0  0
   12.6106    2.5511    3.1615 N   0  0  0  0  0  0  0  0  0  0  0  0
   13.1795    1.7244    4.1097 C   0  0  0  0  0  0  0  0  0  0  0  0
   13.2187    2.4643    5.2716 C   0  0  0  0  0  0  0  0  0  0  0  0
   12.6894    3.7122    5.0628 N   0  0  0  0  0  0  0  0  0  0  0  0
   12.3336    3.7317    3.7988 C   0  0  0  0  0  0  0  0  0  0  0  0
    5.9532    0.7715   -0.9683 C   0  0  0  0  0  0  0  0  0  0  0  0
    4.7937    0.0796   -1.1474 N   0  0  0  0  0  0  0  0  0  0  0  0
    3.5468    0.4734   -1.6548 C   0  0  0  0  0  0  0  0  0  0  0  0
    3.2544    1.7588   -2.1153 N   0  0  0  0  0  0  0  0  0  0  0  0
    3.7988    2.1398   -3.4131 C   0  0  0  0  0  0  0  0  0  0  0  0
    3.1415    2.8321   -1.1229 C   0  0  0  0  0  0  0  0  0  0  0  0
    2.0914    3.9083   -1.4477 C   0  0  2  0  0  0  0  0  0  0  0  0
    2.0912    4.9968   -0.3585 C   0  0  0  0  0  0  0  0  0  0  0  0
    1.0538    6.0930   -0.6345 C   0  0  0  0  0  0  0  0  0  0  0  0
   -0.3510    5.5074   -0.8254 C   0  0  0  0  0  0  0  0  0  0  0  0
   -0.3605    4.4250   -1.9123 C   0  0  0  0  0  0  0  0  0  0  0  0
    0.6794    3.3313   -1.6350 C   0  0  0  0  0  0  0  0  0  0  0  0
    1.2407   -1.5709   -2.8112 H   0  0  0  0  0  0  0  0  0  0  0  0
    0.9441    0.1436   -2.3910 H   0  0  0  0  0  0  0  0  0  0  0  0
    0.7108   -1.1498   -1.1760 H   0  0  0  0  0  0  0  0  0  0  0  0
    5.6959   -2.9805    0.0323 H   0  0  0  0  0  0  0  0  0  0  0  0
    7.8204   -1.7451    0.3863 H   0  0  0  0  0  0  0  0  0  0  0  0
    9.4681   -0.6571    0.0381 H   0  0  0  0  0  0  0  0  0  0  0  0
   10.6347    1.9975   -0.4318 H   0  0  0  0  0  0  0  0  0  0  0  0
   11.5280    0.4686   -0.2612 H   0  0  0  0  0  0  0  0  0  0  0  0
   11.0521    0.4964    2.2275 H   0  0  0  0  0  0  0  0  0  0  0  0
   10.1584    2.0132    2.0257 H   0  0  0  0  0  0  0  0  0  0  0  0
   12.2380    3.1533    1.2128 H   0  0  0  0  0  0  0  0  0  0  0  0
   13.1476    1.6454    1.3645 H   0  0  0  0  0  0  0  0  0  0  0  0
   13.5054    0.7139    3.8734 H   0  0  0  0  0  0  0  0  0  0  0  0
   13.6084    2.1601    6.2428 H   0  0  0  0  0  0  0  0  0  0  0  0
   11.8744    4.5705    3.2730 H   0  0  0  0  0  0  0  0  0  0  0  0
    5.9770    1.8248   -1.2444 H   0  0  0  0  0  0  0  0  0  0  0  0
    3.7845    1.2709   -4.0863 H   0  0  0  0  0  0  0  0  0  0  0  0
    4.8409    2.5217   -3.3642 H   0  0  0  0  0  0  0  0  0  0  0  0
    3.1827    2.9275   -3.8752 H   0  0  0  0  0  0  0  0  0  0  0  0
    4.1171    3.3425   -0.9665 H   0  0  0  0  0  0  0  0  0  0  0  0
    2.8767    2.3613   -0.1623 H   0  0  0  0  0  0  0  0  0  0  0  0
    2.3813    4.4019   -2.3953 H   0  0  0  0  0  0  0  0  0  0  0  0
    3.0980    5.4394   -0.2659 H   0  0  0  0  0  0  0  0  0  0  0  0
    1.8702    4.5250    0.6180 H   0  0  0  0  0  0  0  0  0  0  0  0
    1.3442    6.6452   -1.5476 H   0  0  0  0  0  0  0  0  0  0  0  0
    1.0553    6.8305    0.1857 H   0  0  0  0  0  0  0  0  0  0  0  0
   -1.0700    6.3070   -1.0715 H   0  0  0  0  0  0  0  0  0  0  0  0
   -0.6926    5.0657    0.1293 H   0  0  0  0  0  0  0  0  0  0  0  0
   -0.1434    4.8925   -2.8909 H   0  0  0  0  0  0  0  0  0  0  0  0
   -1.3653    3.9784   -2.0011 H   0  0  0  0  0  0  0  0  0  0  0  0
    0.6849    2.5896   -2.4492 H   0  0  0  0  0  0  0  0  0  0  0  0
    0.3969    2.7804   -0.7175 H   0  0  0  0  0  0  0  0  0  0  0  0
  1  2  1  0
  1 31  1  0
  1 32  1  0
  1 33  1  0
  2  3  1  0
  2 21  2  0
  3  4  2  0
  4  5  1  0
  4 20  1  0
  5  6  2  0
  5 34  1  0
  6  7  1  0
  6 35  1  0
  7  8  1  0
  7 19  2  0
  8  9  2  0
  8 10  1  0
 10 11  1  0
 10 36  1  0
 11 12  1  0
 11 37  1  0
 11 38  1  0
 12 13  1  0
 12 39  1  0
 12 40  1  0
 13 14  1  0
 13 41  1  0
 13 42  1  0
 14 15  1  0
 14 18  1  0
 15 16  2  0
 15 43  1  0
 16 17  1  0
 16 44  1  0
 17 18  2  0
 18 45  1  0
 19 20  1  0
 19 46  1  0
 20 21  1  0
 21 22  1  0
 22 23  1  0
 22 24  1  0
 23 47  1  0
 23 48  1  0
 23 49  1  0
 24 25  1  0
 24 50  1  0
 24 51  1  0
 25 26  1  0
 25 30  1  0
 25 52  1  6
 26 27  1  0
 26 53  1  0
 26 54  1  0
 27 28  1  0
 27 55  1  0
 27 56  1  0
 28 29  1  0
 28 57  1  0
 28 58  1  0
 29 30  1  0
 29 59  1  0
 29 60  1  0
 30 61  1  0
 30 62  1  0
M  END

