
     RDKit          3D

 28 29  0  0  0  0  0  0  0  0999 V2000
    1.0361    0.6938   -0.5811 O   0  0  0  0  0  0  0  0  0  0  0  0
    2.1838    0.3731   -0.3488 C   0  0  0  0  0  0  0  0  0  0  0  0
    2.8934    0.7646    0.7570 N   0  0  0  0  0  0  0  0  0  0  0  0
    2.2555    1.3729    1.8946 C   0  0  1  0  0  0  0  0  0  0  0  0
    1.5704    0.4041    2.8239 C   0  0  0  0  0  0  0  0  0  0  0  0
    2.8787   -0.7617    3.7596 Br  0  0  0  0  0  0  0  0  0  0  0  0
    2.9142    2.6085    2.4640 C   0  0  0  0  0  0  0  0  0  0  0  0
    1.6314    2.7349    1.6916 C   0  0  0  0  0  0  0  0  0  0  0  0
    2.9928   -0.4196   -1.3607 C   0  0  0  0  0  0  0  0  0  0  0  0
    4.0281    0.2090   -2.0651 C   0  0  0  0  0  0  0  0  0  0  0  0
    4.6986   -0.4499   -3.1005 C   0  0  0  0  0  0  0  0  0  0  0  0
    4.3388   -1.7530   -3.4550 C   0  0  0  0  0  0  0  0  0  0  0  0
    3.3131   -2.4006   -2.7651 C   0  0  0  0  0  0  0  0  0  0  0  0
    2.6654   -1.7339   -1.7256 C   0  0  0  0  0  0  0  0  0  0  0  0
    1.6436   -2.4852   -0.9658 N   0  0  0  0  0  0  0  0  0  0  0  0
    1.4519   -2.1530    0.1933 O   0  0  0  0  0  0  0  0  0  0  0  0
    1.0848   -3.4068   -1.5335 O   0  0  0  0  0  0  0  0  0  0  0  0
    3.7609    0.2703    0.9464 H   0  0  0  0  0  0  0  0  0  0  0  0
    0.9095   -0.2797    2.2775 H   0  0  0  0  0  0  0  0  0  0  0  0
    1.0143    0.9157    3.6180 H   0  0  0  0  0  0  0  0  0  0  0  0
    3.8388    2.9412    1.9854 H   0  0  0  0  0  0  0  0  0  0  0  0
    2.8940    2.7304    3.5504 H   0  0  0  0  0  0  0  0  0  0  0  0
    1.6610    3.1397    0.6785 H   0  0  0  0  0  0  0  0  0  0  0  0
    0.7067    2.9498    2.2333 H   0  0  0  0  0  0  0  0  0  0  0  0
    4.2963    1.2360   -1.8062 H   0  0  0  0  0  0  0  0  0  0  0  0
    5.5014    0.0616   -3.6368 H   0  0  0  0  0  0  0  0  0  0  0  0
    4.8585   -2.2692   -4.2651 H   0  0  0  0  0  0  0  0  0  0  0  0
    3.0077   -3.4184   -3.0081 H   0  0  0  0  0  0  0  0  0  0  0  0
  1  2  2  0
  2  3  1  0
  2  9  1  0
  4  3  1  6
  3 18  1  0
  4  5  1  0
  4  7  1  0
  4  8  1  0
  5  6  1  0
  5 19  1  0
  5 20  1  0
  7  8  1  0
  7 21  1  0
  7 22  1  0
  8 23  1  0
  8 24  1  0
  9 10  2  0
  9 14  1  0
 10 11  1  0
 10 25  1  0
 11 12  2  0
 11 26  1  0
 12 13  1  0
 12 27  1  0
 13 14  2  0
 13 28  1  0
 14 15  1  0
 15 16  2  0
 15 17  1  0
M  CHG  2  15   1  17  -1
M  END

