
     RDKit          3D

 34 34  0  0  0  0  0  0  0  0999 V2000
    5.1801   -2.1767    0.3751 C   0  0  0  0  0  0  0  0  0  0  0  0
    4.2441   -1.0025    0.2477 C   0  0  0  0  0  0  0  0  0  0  0  0
    4.7472    0.1871    0.6040 N   0  0  0  0  0  0  0  0  0  0  0  0
    3.9932    1.2828    0.5114 C   0  0  0  0  0  0  0  0  0  0  0  0
    2.6731    1.2694    0.0593 C   0  0  0  0  0  0  0  0  0  0  0  0
    2.1287    0.0398   -0.3051 C   0  0  0  0  0  0  0  0  0  0  0  0
    2.9060   -1.1237   -0.2138 C   0  0  0  0  0  0  0  0  0  0  0  0
    2.3424   -2.4526   -0.6366 C   0  0  0  0  0  0  0  0  0  0  0  0
    3.0207   -3.3368   -1.1487 O   0  0  0  0  0  0  0  0  0  0  0  0
    1.0031   -2.6187   -0.4256 N   0  0  0  0  0  0  0  0  0  0  0  0
    0.3013   -3.7946   -0.8870 C   0  0  1  0  0  0  0  0  0  0  0  0
    0.6612   -4.0356   -1.9047 H   0  0  0  0  0  0  0  0  0  0  0  0
    0.5857   -5.0272    0.0115 C   0  0  0  0  0  0  0  0  0  0  0  0
    0.1412   -6.3793   -0.5668 C   0  0  0  0  0  0  0  0  0  0  0  0
    0.6327   -7.5654    0.2695 C   0  0  0  0  0  0  0  0  0  0  0  0
    1.9825   -7.7712    0.2348 N   0  0  0  0  0  0  0  0  0  0  0  0
   -0.1227   -8.2572    0.9235 O   0  0  0  0  0  0  0  0  0  0  0  0
   -1.1888   -3.4341   -0.9478 C   0  0  0  0  0  0  0  0  0  0  0  0
   -1.6459   -2.4637   -0.4041 O   0  0  0  0  0  0  0  0  0  0  0  0
   -1.9813   -4.2783   -1.6300 O   0  0  0  0  0  0  0  0  0  0  0  0
    6.0907   -1.8418    0.8878 H   0  0  0  0  0  0  0  0  0  0  0  0
    5.4367   -2.5782   -0.6163 H   0  0  0  0  0  0  0  0  0  0  0  0
    4.7229   -3.0095    0.9309 H   0  0  0  0  0  0  0  0  0  0  0  0
    4.4667    2.2257    0.8111 H   0  0  0  0  0  0  0  0  0  0  0  0
    2.0925    2.1915   -0.0105 H   0  0  0  0  0  0  0  0  0  0  0  0
    1.1048   -0.0107   -0.6850 H   0  0  0  0  0  0  0  0  0  0  0  0
    0.4344   -1.9218    0.0458 H   0  0  0  0  0  0  0  0  0  0  0  0
    0.1295   -4.8689    1.0025 H   0  0  0  0  0  0  0  0  0  0  0  0
    1.6756   -5.0341    0.1519 H   0  0  0  0  0  0  0  0  0  0  0  0
    0.5272   -6.4871   -1.5980 H   0  0  0  0  0  0  0  0  0  0  0  0
   -0.9537   -6.4735   -0.5882 H   0  0  0  0  0  0  0  0  0  0  0  0
    2.6115   -7.2061   -0.3205 H   0  0  0  0  0  0  0  0  0  0  0  0
    2.3671   -8.5267    0.7900 H   0  0  0  0  0  0  0  0  0  0  0  0
   -1.4689   -4.9911   -2.0379 H   0  0  0  0  0  0  0  0  0  0  0  0
  1  2  1  0
  1 21  1  0
  1 22  1  0
  1 23  1  0
  2  3  2  0
  2  7  1  0
  3  4  1  0
  4  5  2  0
  4 24  1  0
  5  6  1  0
  5 25  1  0
  6  7  2  0
  6 26  1  0
  7  8  1  0
  8  9  2  0
  8 10  1  0
 10 11  1  0
 10 27  1  0
 11 12  1  6
 11 13  1  0
 11 18  1  0
 13 14  1  0
 13 28  1  0
 13 29  1  0
 14 15  1  0
 14 30  1  0
 14 31  1  0
 15 16  1  0
 15 17  2  0
 16 32  1  0
 16 33  1  0
 18 19  2  0
 18 20  1  0
 20 34  1  0
M  END

