
     RDKit          3D

 36 38  0  0  0  0  0  0  0  0999 V2000
    2.5807    1.2006    0.4593 C   0  0  0  0  0  0  0  0  0  0  0  0
    2.4944    0.0950   -0.4194 O   0  0  0  0  0  0  0  0  0  0  0  0
    2.9340   -1.1340    0.1247 C   0  0  1  0  0  0  0  0  0  0  0  0
    2.3794   -2.2794   -0.7228 C   0  0  0  0  0  0  0  0  0  0  0  0
    2.8854   -3.5816   -0.5900 C   0  0  0  0  0  0  0  0  0  0  0  0
    2.3259   -4.6358   -1.3164 C   0  0  0  0  0  0  0  0  0  0  0  0
    1.2541   -4.4130   -2.1843 C   0  0  0  0  0  0  0  0  0  0  0  0
    0.7620   -3.1156   -2.3013 C   0  0  0  0  0  0  0  0  0  0  0  0
   -0.2681   -2.8825   -3.1279 F   0  0  0  0  0  0  0  0  0  0  0  0
    1.3022   -2.0484   -1.5876 C   0  0  0  0  0  0  0  0  0  0  0  0
    4.4542   -1.1715    0.2526 C   0  0  0  0  0  0  0  0  0  0  0  0
    5.1517   -1.4427    1.4128 C   0  0  0  0  0  0  0  0  0  0  0  0
    4.4375   -1.6759    2.7262 C   0  0  0  0  0  0  0  0  0  0  0  0
    5.0082   -2.6244    3.5256 N   0  0  0  0  0  0  0  0  0  0  0  0
    3.4461   -1.0542    3.0756 O   0  0  0  0  0  0  0  0  0  0  0  0
    6.5921   -1.4964    1.4098 C   0  0  0  0  0  0  0  0  0  0  0  0
    7.2906   -1.2792    0.2541 C   0  0  0  0  0  0  0  0  0  0  0  0
    9.0278   -1.3233    0.2181 Cl  0  0  0  0  0  0  0  0  0  0  0  0
    6.6018   -0.9934   -0.9524 C   0  0  0  0  0  0  0  0  0  0  0  0
    6.9383   -0.7168   -2.2706 C   0  0  0  0  0  0  0  0  0  0  0  0
    5.8141   -0.4972   -3.0012 N   0  0  0  0  0  0  0  0  0  0  0  0
    4.7871   -0.6274   -2.1870 C   0  0  0  0  0  0  0  0  0  0  0  0
    5.1889   -0.9368   -0.9047 N   0  0  0  0  0  0  0  0  0  0  0  0
    2.1407    2.0601   -0.0655 H   0  0  0  0  0  0  0  0  0  0  0  0
    3.6274    1.4409    0.7217 H   0  0  0  0  0  0  0  0  0  0  0  0
    2.0281    1.0169    1.3975 H   0  0  0  0  0  0  0  0  0  0  0  0
    2.5325   -1.2406    1.1439 H   0  0  0  0  0  0  0  0  0  0  0  0
    3.7228   -3.7763    0.0838 H   0  0  0  0  0  0  0  0  0  0  0  0
    2.7307   -5.6451   -1.2078 H   0  0  0  0  0  0  0  0  0  0  0  0
    0.8007   -5.2176   -2.7659 H   0  0  0  0  0  0  0  0  0  0  0  0
    0.8877   -1.0481   -1.7070 H   0  0  0  0  0  0  0  0  0  0  0  0
    5.7229   -3.2572    3.1922 H   0  0  0  0  0  0  0  0  0  0  0  0
    4.5516   -2.8250    4.4083 H   0  0  0  0  0  0  0  0  0  0  0  0
    7.1318   -1.6735    2.3398 H   0  0  0  0  0  0  0  0  0  0  0  0
    7.9385   -0.6657   -2.6963 H   0  0  0  0  0  0  0  0  0  0  0  0
    3.7417   -0.4891   -2.4433 H   0  0  0  0  0  0  0  0  0  0  0  0
  1  2  1  0
  1 24  1  0
  1 25  1  0
  1 26  1  0
  2  3  1  0
  3  4  1  0
  3 11  1  0
  3 27  1  1
  4  5  2  0
  4 10  1  0
  5  6  1  0
  5 28  1  0
  6  7  2  0
  6 29  1  0
  7  8  1  0
  7 30  1  0
  8  9  1  0
  8 10  2  0
 10 31  1  0
 11 12  2  0
 11 23  1  0
 12 13  1  0
 12 16  1  0
 13 14  1  0
 13 15  2  0
 14 32  1  0
 14 33  1  0
 16 17  2  0
 16 34  1  0
 17 18  1  0
 17 19  1  0
 19 20  2  0
 19 23  1  0
 20 21  1  0
 20 35  1  0
 21 22  2  0
 22 23  1  0
 22 36  1  0
M  END

