
     RDKit          3D

 40 42  0  0  0  0  0  0  0  0999 V2000
    4.8661    2.6345   -6.0669 C   0  0  0  0  0  0  0  0  0  0  0  0
    4.8689    2.9716   -4.2825 S   0  0  0  0  0  0  0  0  0  0  0  0
    4.4643    1.4019   -3.5640 C   0  0  0  0  0  0  0  0  0  0  0  0
    4.3708    1.3478   -2.1603 C   0  0  0  0  0  0  0  0  0  0  0  0
    4.0517    0.1527   -1.5296 C   0  0  0  0  0  0  0  0  0  0  0  0
    3.8275   -1.0124   -2.2745 C   0  0  0  0  0  0  0  0  0  0  0  0
    3.4005   -2.4403   -1.3241 Cl  0  0  0  0  0  0  0  0  0  0  0  0
    3.9198   -0.9978   -3.6793 C   0  0  0  0  0  0  0  0  0  0  0  0
    3.7141   -2.1268   -4.6818 C   0  0  0  0  0  0  0  0  0  0  0  0
    3.5838   -1.8674   -5.8699 O   0  0  0  0  0  0  0  0  0  0  0  0
    3.7331   -3.4075   -4.2114 N   0  0  0  0  0  0  0  0  0  0  0  0
    3.5874   -4.5571   -4.9953 C   0  0  0  0  0  0  0  0  0  0  0  0
    3.3980   -4.6916   -6.3988 C   0  0  0  0  0  0  0  0  0  0  0  0
    3.2956   -5.9743   -6.7386 N   0  0  0  0  0  0  0  0  0  0  0  0
    3.4021   -6.6669   -5.5986 N   0  0  0  0  0  0  0  0  0  0  0  0
    3.4375   -8.1216   -5.6370 C   0  0  0  0  0  0  0  0  0  0  0  0
    4.8362   -8.6834   -5.8059 C   0  0  0  0  0  0  0  0  0  0  0  0
    5.4527   -8.6359   -7.0678 C   0  0  0  0  0  0  0  0  0  0  0  0
    6.7423   -9.1199   -7.2792 C   0  0  0  0  0  0  0  0  0  0  0  0
    7.4322   -9.6660   -6.1986 C   0  0  0  0  0  0  0  0  0  0  0  0
    8.6693  -10.1418   -6.3810 F   0  0  0  0  0  0  0  0  0  0  0  0
    6.8705   -9.7303   -4.9273 C   0  0  0  0  0  0  0  0  0  0  0  0
    5.5775   -9.2309   -4.7453 C   0  0  0  0  0  0  0  0  0  0  0  0
    4.9048   -9.3066   -3.1233 Cl  0  0  0  0  0  0  0  0  0  0  0  0
    3.5908   -5.8619   -4.5146 C   0  0  0  0  0  0  0  0  0  0  0  0
    4.2332    0.2321   -4.2915 C   0  0  0  0  0  0  0  0  0  0  0  0
    5.1091    3.5941   -6.5445 H   0  0  0  0  0  0  0  0  0  0  0  0
    3.8779    2.3018   -6.4161 H   0  0  0  0  0  0  0  0  0  0  0  0
    5.6317    1.8949   -6.3428 H   0  0  0  0  0  0  0  0  0  0  0  0
    4.5431    2.2452   -1.5606 H   0  0  0  0  0  0  0  0  0  0  0  0
    3.9678    0.1102   -0.4425 H   0  0  0  0  0  0  0  0  0  0  0  0
    3.8267   -3.5465   -3.2116 H   0  0  0  0  0  0  0  0  0  0  0  0
    3.3275   -3.8989   -7.1367 H   0  0  0  0  0  0  0  0  0  0  0  0
    2.8095   -8.4179   -6.4878 H   0  0  0  0  0  0  0  0  0  0  0  0
    2.9769   -8.5040   -4.7178 H   0  0  0  0  0  0  0  0  0  0  0  0
    4.8996   -8.1897   -7.8978 H   0  0  0  0  0  0  0  0  0  0  0  0
    7.2181   -9.0815   -8.2605 H   0  0  0  0  0  0  0  0  0  0  0  0
    7.4350  -10.1578   -4.0986 H   0  0  0  0  0  0  0  0  0  0  0  0
    3.7172   -6.2658   -3.5126 H   0  0  0  0  0  0  0  0  0  0  0  0
    4.2744    0.2128   -5.3794 H   0  0  0  0  0  0  0  0  0  0  0  0
  1  2  1  0
  1 27  1  0
  1 28  1  0
  1 29  1  0
  2  3  1  0
  3  4  2  0
  3 26  1  0
  4  5  1  0
  4 30  1  0
  5  6  2  0
  5 31  1  0
  6  7  1  0
  6  8  1  0
  8  9  1  0
  8 26  2  0
  9 10  2  0
  9 11  1  0
 11 12  1  0
 11 32  1  0
 12 13  1  0
 12 25  2  0
 13 14  2  0
 13 33  1  0
 14 15  1  0
 15 16  1  0
 15 25  1  0
 16 17  1  0
 16 34  1  0
 16 35  1  0
 17 18  2  0
 17 23  1  0
 18 19  1  0
 18 36  1  0
 19 20  2  0
 19 37  1  0
 20 21  1  0
 20 22  1  0
 22 23  2  0
 22 38  1  0
 23 24  1  0
 25 39  1  0
 26 40  1  0
M  END

