
     RDKit          3D

 42 45  0  0  0  0  0  0  0  0999 V2000
    1.2533   -1.7502   -0.3585 O   0  0  0  0  0  0  0  0  0  0  0  0
    2.1127   -0.9140   -0.3888 C   0  0  0  0  0  0  0  0  0  0  0  0
    2.0275    0.3789   -0.8576 N   0  0  0  0  0  0  0  0  0  0  0  0
    3.3061    1.0546   -0.9304 C   0  0  2  0  0  0  0  0  0  0  0  0
    3.8531    1.2024   -2.3469 C   0  0  0  0  0  0  0  0  0  0  0  0
    3.6978    0.1584   -3.2623 C   0  0  0  0  0  0  0  0  0  0  0  0
    4.1794    0.2889   -4.5793 C   0  0  0  0  0  0  0  0  0  0  0  0
    4.0201   -0.7844   -5.5139 C   0  0  0  0  0  0  0  0  0  0  0  0
    3.8727   -1.7127   -6.2903 C   0  0  0  0  0  0  0  0  0  0  0  0
    3.7065   -2.7925   -7.2095 C   0  0  0  0  0  0  0  0  0  0  0  0
    3.0660   -3.9857   -6.8097 C   0  0  0  0  0  0  0  0  0  0  0  0
    2.9071   -5.0362   -7.7125 C   0  0  0  0  0  0  0  0  0  0  0  0
    3.3811   -4.9175   -9.0237 C   0  0  0  0  0  0  0  0  0  0  0  0
    4.0174   -3.7394   -9.4304 C   0  0  0  0  0  0  0  0  0  0  0  0
    4.1810   -2.6834   -8.5351 C   0  0  0  0  0  0  0  0  0  0  0  0
    4.7914    1.4120   -5.0020 N   0  0  0  0  0  0  0  0  0  0  0  0
    4.9384    2.4014   -4.1329 C   0  0  0  0  0  0  0  0  0  0  0  0
    4.5046    2.3758   -2.7901 C   0  0  0  0  0  0  0  0  0  0  0  0
    4.7284    3.5877   -1.9548 C   0  0  0  0  0  0  0  0  0  0  0  0
    4.2777    4.8527   -2.3796 C   0  0  0  0  0  0  0  0  0  0  0  0
    4.5234    6.0059   -1.6316 C   0  0  0  0  0  0  0  0  0  0  0  0
    5.2378    5.9229   -0.4326 C   0  0  0  0  0  0  0  0  0  0  0  0
    5.7064    4.6848    0.0131 C   0  0  0  0  0  0  0  0  0  0  0  0
    5.4482    3.5515   -0.7512 C   0  0  0  0  0  0  0  0  0  0  0  0
    5.9228    2.3670   -0.3138 F   0  0  0  0  0  0  0  0  0  0  0  0
    4.1369    0.1004   -0.0155 C   0  0  0  0  0  0  0  0  0  0  0  0
    3.3891   -1.1108    0.0542 O   0  0  0  0  0  0  0  0  0  0  0  0
    1.2102    0.6650   -1.3818 H   0  0  0  0  0  0  0  0  0  0  0  0
    3.2456    2.0519   -0.4712 H   0  0  0  0  0  0  0  0  0  0  0  0
    3.1878   -0.7627   -2.9760 H   0  0  0  0  0  0  0  0  0  0  0  0
    2.6973   -4.0759   -5.7859 H   0  0  0  0  0  0  0  0  0  0  0  0
    2.4098   -5.9548   -7.3911 H   0  0  0  0  0  0  0  0  0  0  0  0
    3.2548   -5.7432   -9.7285 H   0  0  0  0  0  0  0  0  0  0  0  0
    4.3890   -3.6434  -10.4537 H   0  0  0  0  0  0  0  0  0  0  0  0
    4.6770   -1.7624   -8.8480 H   0  0  0  0  0  0  0  0  0  0  0  0
    5.4499    3.2984   -4.5027 H   0  0  0  0  0  0  0  0  0  0  0  0
    3.7116    4.9188   -3.3117 H   0  0  0  0  0  0  0  0  0  0  0  0
    4.1533    6.9708   -1.9851 H   0  0  0  0  0  0  0  0  0  0  0  0
    5.4339    6.8206    0.1582 H   0  0  0  0  0  0  0  0  0  0  0  0
    6.2769    4.5801    0.9379 H   0  0  0  0  0  0  0  0  0  0  0  0
    4.2440    0.5226    0.9963 H   0  0  0  0  0  0  0  0  0  0  0  0
    5.1341   -0.1133   -0.4195 H   0  0  0  0  0  0  0  0  0  0  0  0
  1  2  2  0
  2  3  1  0
  2 27  1  0
  3  4  1  0
  3 28  1  0
  4  5  1  0
  4 26  1  0
  4 29  1  1
  5  6  2  0
  5 18  1  0
  6  7  1  0
  6 30  1  0
  7  8  1  0
  7 16  2  0
  8  9  3  0
  9 10  1  0
 10 11  2  0
 10 15  1  0
 11 12  1  0
 11 31  1  0
 12 13  2  0
 12 32  1  0
 13 14  1  0
 13 33  1  0
 14 15  2  0
 14 34  1  0
 15 35  1  0
 16 17  1  0
 17 18  2  0
 17 36  1  0
 18 19  1  0
 19 20  2  0
 19 24  1  0
 20 21  1  0
 20 37  1  0
 21 22  2  0
 21 38  1  0
 22 23  1  0
 22 39  1  0
 23 24  2  0
 23 40  1  0
 24 25  1  0
 26 27  1  0
 26 41  1  0
 26 42  1  0
M  END

