
     RDKit          3D

 60 68  0  0  0  0  0  0  0  0999 V2000
    4.4165   -3.9853    0.3850 O   0  0  0  0  0  0  0  0  0  0  0  0
    4.5383   -2.9839    1.0328 C   0  0  0  0  0  0  0  0  0  0  0  0
    3.9383   -1.8263    0.5682 O   0  0  0  0  0  0  0  0  0  0  0  0
    3.9816   -0.5926    1.1779 C   0  0  0  0  0  0  0  0  0  0  0  0
    3.4052    0.3252    0.6633 O   0  0  0  0  0  0  0  0  0  0  0  0
    4.7508   -0.5020    2.4434 C   0  0  0  0  0  0  0  0  0  0  0  0
    4.8345    0.7139    3.0895 C   0  0  0  0  0  0  0  0  0  0  0  0
    5.5882    0.8487    4.2698 C   0  0  0  0  0  0  0  0  0  0  0  0
    5.6757    2.0761    4.8587 O   0  0  0  0  0  0  0  0  0  0  0  0
    4.6767    3.0278    4.7068 C   0  0  0  0  0  0  0  0  0  0  0  0
    3.3788    2.7790    5.1640 C   0  0  0  0  0  0  0  0  0  0  0  0
    2.4180    3.7878    5.0603 C   0  0  0  0  0  0  0  0  0  0  0  0
    2.7533    5.0320    4.5154 C   0  0  0  0  0  0  0  0  0  0  0  0
    4.0576    5.2677    4.0707 C   0  0  0  0  0  0  0  0  0  0  0  0
    5.0268    4.2642    4.1618 C   0  0  0  0  0  0  0  0  0  0  0  0
    6.2929   -0.2453    4.8307 C   0  0  0  0  0  0  0  0  0  0  0  0
    7.1808   -0.1443    5.9993 C   0  0  0  0  0  0  0  0  0  0  0  0
    7.6207    1.0848    6.5181 C   0  0  0  0  0  0  0  0  0  0  0  0
    8.4113    1.1723    7.6696 C   0  0  0  0  0  0  0  0  0  0  0  0
    8.7694    0.0256    8.3580 C   0  0  0  0  0  0  0  0  0  0  0  0
    8.3805   -1.2406    7.8544 C   0  0  0  0  0  0  0  0  0  0  0  0
    8.7543   -2.4080    8.5635 C   0  0  0  0  0  0  0  0  0  0  0  0
    8.3870   -3.6520    8.0939 C   0  0  0  0  0  0  0  0  0  0  0  0
    7.6781   -3.7821    6.8856 C   0  0  0  0  0  0  0  0  0  0  0  0
    7.3655   -5.0320    6.4371 O   0  0  0  0  0  0  0  0  0  0  0  0
    7.1970   -6.0965    7.3117 C   0  0  0  0  0  0  0  0  0  0  0  0
    7.9989   -7.2248    7.1322 C   0  0  0  0  0  0  0  0  0  0  0  0
    7.7960   -8.3418    7.9480 C   0  0  0  0  0  0  0  0  0  0  0  0
    6.8057   -8.3251    8.9347 C   0  0  0  0  0  0  0  0  0  0  0  0
    6.0093   -7.1870    9.1019 C   0  0  0  0  0  0  0  0  0  0  0  0
    6.1964   -6.0669    8.2884 C   0  0  0  0  0  0  0  0  0  0  0  0
    7.3265   -2.6530    6.1049 C   0  0  0  0  0  0  0  0  0  0  0  0
    6.6816   -2.7298    4.7850 C   0  0  0  0  0  0  0  0  0  0  0  0
    6.5841   -3.9249    4.0531 C   0  0  0  0  0  0  0  0  0  0  0  0
    5.9103   -4.0010    2.8289 C   0  0  0  0  0  0  0  0  0  0  0  0
    5.2871   -2.8808    2.3055 C   0  0  0  0  0  0  0  0  0  0  0  0
    5.3881   -1.6431    2.9883 C   0  0  0  0  0  0  0  0  0  0  0  0
    6.1270   -1.5314    4.2100 C   0  0  0  0  0  0  0  0  0  0  0  0
    7.6255   -1.3537    6.6428 C   0  0  0  0  0  0  0  0  0  0  0  0
    9.5388   -2.3162    9.8195 C   0  0  0  0  0  0  0  0  0  0  0  0
    9.8803   -3.2575   10.4803 O   0  0  0  0  0  0  0  0  0  0  0  0
    9.8880   -1.0521   10.2387 O   0  0  0  0  0  0  0  0  0  0  0  0
    9.5671    0.1335    9.6003 C   0  0  0  0  0  0  0  0  0  0  0  0
    9.9495    1.1607   10.0858 O   0  0  0  0  0  0  0  0  0  0  0  0
    4.3247    1.5766    2.6604 H   0  0  0  0  0  0  0  0  0  0  0  0
    3.1313    1.8088    5.5999 H   0  0  0  0  0  0  0  0  0  0  0  0
    1.4017    3.6006    5.4152 H   0  0  0  0  0  0  0  0  0  0  0  0
    1.9981    5.8175    4.4393 H   0  0  0  0  0  0  0  0  0  0  0  0
    4.3256    6.2378    3.6454 H   0  0  0  0  0  0  0  0  0  0  0  0
    6.0500    4.4267    3.8176 H   0  0  0  0  0  0  0  0  0  0  0  0
    7.3425    2.0039    6.0170 H   0  0  0  0  0  0  0  0  0  0  0  0
    8.7388    2.1425    8.0472 H   0  0  0  0  0  0  0  0  0  0  0  0
    8.6726   -4.5372    8.6623 H   0  0  0  0  0  0  0  0  0  0  0  0
    8.7687   -7.2162    6.3581 H   0  0  0  0  0  0  0  0  0  0  0  0
    8.4203   -9.2282    7.8120 H   0  0  0  0  0  0  0  0  0  0  0  0
    6.6527   -9.1985    9.5725 H   0  0  0  0  0  0  0  0  0  0  0  0
    5.2296   -7.1711    9.8673 H   0  0  0  0  0  0  0  0  0  0  0  0
    5.5714   -5.1787    8.4016 H   0  0  0  0  0  0  0  0  0  0  0  0
    7.0425   -4.8259    4.4421 H   0  0  0  0  0  0  0  0  0  0  0  0
    5.8531   -4.9442    2.2830 H   0  0  0  0  0  0  0  0  0  0  0  0
  1  2  2  0
  2  3  1  0
  2 36  1  0
  3  4  1  0
  4  5  2  0
  4  6  1  0
  6  7  1  0
  6 37  2  0
  7  8  2  0
  7 45  1  0
  8  9  1  0
  8 16  1  0
  9 10  1  0
 10 11  2  0
 10 15  1  0
 11 12  1  0
 11 46  1  0
 12 13  2  0
 12 47  1  0
 13 14  1  0
 13 48  1  0
 14 15  2  0
 14 49  1  0
 15 50  1  0
 16 17  1  0
 16 38  2  0
 17 18  2  0
 17 39  1  0
 18 19  1  0
 18 51  1  0
 19 20  2  0
 19 52  1  0
 20 21  1  0
 20 43  1  0
 21 22  1  0
 21 39  2  0
 22 23  2  0
 22 40  1  0
 23 24  1  0
 23 53  1  0
 24 25  1  0
 24 32  2  0
 25 26  1  0
 26 27  2  0
 26 31  1  0
 27 28  1  0
 27 54  1  0
 28 29  2  0
 28 55  1  0
 29 30  1  0
 29 56  1  0
 30 31  2  0
 30 57  1  0
 31 58  1  0
 32 33  1  0
 32 39  1  0
 33 34  2  0
 33 38  1  0
 34 35  1  0
 34 59  1  0
 35 36  2  0
 35 60  1  0
 36 37  1  0
 37 38  1  0
 40 41  2  0
 40 42  1  0
 42 43  1  0
 43 44  2  0
M  END

