
     RDKit          3D

 23 23  0  0  0  0  0  0  0  0999 V2000
    0.9619   -0.0624   -0.1596 C   0  0  0  0  0  0  0  0  0  0  0  0
    2.2922   -0.0689    0.0542 C   0  0  0  0  0  0  0  0  0  0  0  0
    3.1325   -0.9049   -0.7669 C   0  0  0  0  0  0  0  0  0  0  0  0
    3.8218   -1.5651   -1.4283 N   0  0  0  0  0  0  0  0  0  0  0  0
    2.9577    0.8090    1.0706 C   0  0  0  0  0  0  0  0  0  0  0  0
    2.6911    2.1882    1.0052 C   0  0  0  0  0  0  0  0  0  0  0  0
    3.2618    3.0591    1.9330 C   0  0  0  0  0  0  0  0  0  0  0  0
    2.9279    4.7693    1.8351 Cl  0  0  0  0  0  0  0  0  0  0  0  0
    4.1038    2.5768    2.9352 C   0  0  0  0  0  0  0  0  0  0  0  0
    4.3498    1.2088    2.9739 C   0  0  0  0  0  0  0  0  0  0  0  0
    5.1466    0.7459    3.9516 F   0  0  0  0  0  0  0  0  0  0  0  0
    3.8057    0.2831    2.0724 C   0  0  0  0  0  0  0  0  0  0  0  0
    4.1295   -1.1858    2.2475 C   0  0  0  0  0  0  0  0  0  0  0  0
    5.5462   -1.5756    1.7940 C   0  0  0  0  0  0  0  0  0  0  0  0
    0.5083   -0.6799   -0.9379 H   0  0  0  0  0  0  0  0  0  0  0  0
    0.3048    0.5612    0.4510 H   0  0  0  0  0  0  0  0  0  0  0  0
    2.0522    2.5840    0.2158 H   0  0  0  0  0  0  0  0  0  0  0  0
    4.5623    3.2359    3.6724 H   0  0  0  0  0  0  0  0  0  0  0  0
    3.3863   -1.7962    1.7141 H   0  0  0  0  0  0  0  0  0  0  0  0
    4.0185   -1.4326    3.3164 H   0  0  0  0  0  0  0  0  0  0  0  0
    5.6873   -1.3959    0.7182 H   0  0  0  0  0  0  0  0  0  0  0  0
    5.7251   -2.6458    1.9822 H   0  0  0  0  0  0  0  0  0  0  0  0
    6.3070   -1.0038    2.3464 H   0  0  0  0  0  0  0  0  0  0  0  0
  1  2  2  0
  1 15  1  0
  1 16  1  0
  2  3  1  0
  2  5  1  0
  3  4  3  0
  5  6  2  0
  5 12  1  0
  6  7  1  0
  6 17  1  0
  7  8  1  0
  7  9  2  0
  9 10  1  0
  9 18  1  0
 10 11  1  0
 10 12  2  0
 12 13  1  0
 13 14  1  0
 13 19  1  0
 13 20  1  0
 14 21  1  0
 14 22  1  0
 14 23  1  0
M  END

