
     RDKit          3D

 40 40  0  0  0  0  0  0  0  0999 V2000
    0.9439    0.2263   -0.2857 C   0  0  0  0  0  0  0  0  0  0  0  0
    2.4613    0.1525   -0.1088 C   0  0  0  0  0  0  0  0  0  0  0  0
    3.0268    1.0427    1.0248 C   0  0  1  0  0  0  0  0  0  0  0  0
    2.7276    2.5266    0.7991 C   0  0  0  0  0  0  0  0  0  0  0  0
    2.4269    0.7568    2.2948 O   0  0  0  0  0  0  0  0  0  0  0  0
    2.4238   -0.5659    2.7879 C   0  0  0  0  0  0  0  0  0  0  0  0
    4.5331    0.8228    1.1085 C   0  0  0  0  0  0  0  0  0  0  0  0
    5.3906    1.8101    1.1624 N   0  0  0  0  0  0  0  0  0  0  0  0
    6.6245    1.1741    1.2439 O   0  0  0  0  0  0  0  0  0  0  0  0
    6.3912   -0.1465    1.2289 C   0  0  0  0  0  0  0  0  0  0  0  0
    7.5541   -1.0734    1.3316 C   0  0  0  0  0  0  0  0  0  0  0  0
    8.2362   -1.0261    2.7122 C   0  0  0  0  0  0  0  0  0  0  0  0
    9.3960   -2.0220    2.8790 C   0  0  1  0  0  0  0  0  0  0  0  0
   10.5503   -1.7730    1.9016 C   0  0  0  0  0  0  0  0  0  0  0  0
    9.8903   -2.0096    4.3380 C   0  0  0  0  0  0  0  0  0  0  0  0
   10.8889   -3.0446    4.5808 N   0  0  0  0  0  0  0  0  0  0  0  0
    5.1235   -0.4246    1.1445 N   0  0  0  0  0  0  0  0  0  0  0  0
    0.6063   -0.5155   -1.0265 H   0  0  0  0  0  0  0  0  0  0  0  0
    0.6151    1.2159   -0.6381 H   0  0  0  0  0  0  0  0  0  0  0  0
    0.4195    0.0235    0.6604 H   0  0  0  0  0  0  0  0  0  0  0  0
    2.9664    0.4443   -1.0454 H   0  0  0  0  0  0  0  0  0  0  0  0
    2.7717   -0.8873    0.0784 H   0  0  0  0  0  0  0  0  0  0  0  0
    1.6418    2.6874    0.8258 H   0  0  0  0  0  0  0  0  0  0  0  0
    3.1244    2.8707   -0.1667 H   0  0  0  0  0  0  0  0  0  0  0  0
    3.1851    3.1275    1.5957 H   0  0  0  0  0  0  0  0  0  0  0  0
    1.9844   -0.5160    3.7955 H   0  0  0  0  0  0  0  0  0  0  0  0
    3.4350   -0.9993    2.8606 H   0  0  0  0  0  0  0  0  0  0  0  0
    1.8024   -1.2477    2.1777 H   0  0  0  0  0  0  0  0  0  0  0  0
    8.2766   -0.8113    0.5422 H   0  0  0  0  0  0  0  0  0  0  0  0
    7.1803   -2.0858    1.1195 H   0  0  0  0  0  0  0  0  0  0  0  0
    7.4731   -1.2241    3.4847 H   0  0  0  0  0  0  0  0  0  0  0  0
    8.6032   -0.0006    2.8956 H   0  0  0  0  0  0  0  0  0  0  0  0
    8.9940   -3.0370    2.6846 H   0  0  0  0  0  0  0  0  0  0  0  0
   10.9061   -0.7303    1.9747 H   0  0  0  0  0  0  0  0  0  0  0  0
   10.2613   -1.9579    0.8552 H   0  0  0  0  0  0  0  0  0  0  0  0
   11.3936   -2.4337    2.1476 H   0  0  0  0  0  0  0  0  0  0  0  0
    9.0060   -2.0730    5.0090 H   0  0  0  0  0  0  0  0  0  0  0  0
   10.3576   -1.0293    4.5422 H   0  0  0  0  0  0  0  0  0  0  0  0
   10.4513   -3.9668    4.5940 H   0  0  0  0  0  0  0  0  0  0  0  0
   11.3239   -2.9207    5.4941 H   0  0  0  0  0  0  0  0  0  0  0  0
  1  2  1  0
  1 18  1  0
  1 19  1  0
  1 20  1  0
  2  3  1  0
  2 21  1  0
  2 22  1  0
  3  4  1  0
  3  5  1  1
  3  7  1  0
  4 23  1  0
  4 24  1  0
  4 25  1  0
  5  6  1  0
  6 26  1  0
  6 27  1  0
  6 28  1  0
  7  8  2  0
  7 17  1  0
  8  9  1  0
  9 10  1  0
 10 11  1  0
 10 17  2  0
 11 12  1  0
 11 29  1  0
 11 30  1  0
 12 13  1  0
 12 31  1  0
 12 32  1  0
 13 14  1  0
 13 15  1  0
 13 33  1  6
 14 34  1  0
 14 35  1  0
 14 36  1  0
 15 16  1  0
 15 37  1  0
 15 38  1  0
 16 39  1  0
 16 40  1  0
M  END

