
     RDKit          3D

 60 61  0  0  0  0  0  0  0  0999 V2000
    2.0587    4.5395    2.8675 C   0  0  0  0  0  0  0  0  0  0  0  0
    3.3830    4.1431    2.2214 C   0  0  0  0  0  0  0  0  0  0  0  0
    3.6057    2.6955    2.1515 N   0  0  0  0  0  0  0  0  0  0  0  0
    2.5537    1.9331    1.4851 C   0  0  0  0  0  0  0  0  0  0  0  0
    2.3517    2.3182    0.0108 C   0  0  0  0  0  0  0  0  0  0  0  0
    1.5656    3.1494   -0.3584 O   0  0  0  0  0  0  0  0  0  0  0  0
    3.1851    1.7247   -0.8789 O   0  0  0  0  0  0  0  0  0  0  0  0
    4.9494    2.3671    1.7096 C   0  0  1  0  0  0  0  0  0  0  0  0
    6.1178    2.7208    2.6658 C   0  0  0  0  0  0  0  0  0  0  0  0
    6.7719    1.3559    2.3324 C   0  0  2  0  0  0  0  0  0  0  0  0
    7.7817    1.4900    1.2957 N   0  0  0  0  0  0  0  0  0  0  0  0
    8.3381    0.3460    0.7481 C   0  0  0  0  0  0  0  0  0  0  0  0
    7.8914   -0.7591    1.0375 O   0  0  0  0  0  0  0  0  0  0  0  0
    9.3918    0.5079   -0.1380 N   0  0  0  0  0  0  0  0  0  0  0  0
   10.1591   -0.7008   -0.4523 C   0  0  0  0  0  0  0  0  0  0  0  0
   11.3086   -0.9544    0.5322 C   0  0  0  0  0  0  0  0  0  0  0  0
   12.2566    0.2312    0.7874 C   0  0  0  0  0  0  0  0  0  0  0  0
   11.6043    1.4464    1.4797 C   0  0  0  0  0  0  0  0  0  0  0  0
   10.8641    2.4389    0.5630 C   0  0  0  0  0  0  0  0  0  0  0  0
   10.0204    1.7761   -0.5502 C   0  0  2  0  0  0  0  0  0  0  0  0
    9.0527    2.7278   -1.2836 C   0  0  0  0  0  0  0  0  0  0  0  0
    9.6958    3.9432   -1.9834 C   0  0  1  0  0  0  0  0  0  0  0  0
   10.7252    3.5476   -3.0508 C   0  0  0  0  0  0  0  0  0  0  0  0
    8.6004    4.8295   -2.5926 C   0  0  0  0  0  0  0  0  0  0  0  0
    5.3947    0.8846    1.7967 C   0  0  0  0  0  0  0  0  0  0  0  0
    2.0429    5.6258    3.0466 H   0  0  0  0  0  0  0  0  0  0  0  0
    1.9249    4.0295    3.8351 H   0  0  0  0  0  0  0  0  0  0  0  0
    1.2032    4.3039    2.2176 H   0  0  0  0  0  0  0  0  0  0  0  0
    4.2121    4.5586    2.8174 H   0  0  0  0  0  0  0  0  0  0  0  0
    3.4552    4.6180    1.2179 H   0  0  0  0  0  0  0  0  0  0  0  0
    1.5959    2.1034    1.9938 H   0  0  0  0  0  0  0  0  0  0  0  0
    2.7862    0.8589    1.5732 H   0  0  0  0  0  0  0  0  0  0  0  0
    3.7451    1.0703   -0.4363 H   0  0  0  0  0  0  0  0  0  0  0  0
    5.1688    2.7707    0.6974 H   0  0  0  0  0  0  0  0  0  0  0  0
    5.7679    2.7457    3.7081 H   0  0  0  0  0  0  0  0  0  0  0  0
    6.7036    3.6306    2.4578 H   0  0  0  0  0  0  0  0  0  0  0  0
    7.1548    0.7718    3.1855 H   0  0  0  0  0  0  0  0  0  0  0  0
    8.3298    2.3402    1.3105 H   0  0  0  0  0  0  0  0  0  0  0  0
   10.5470   -0.5973   -1.4797 H   0  0  0  0  0  0  0  0  0  0  0  0
    9.4688   -1.5534   -0.4394 H   0  0  0  0  0  0  0  0  0  0  0  0
   11.8918   -1.8181    0.1663 H   0  0  0  0  0  0  0  0  0  0  0  0
   10.8697   -1.2660    1.4962 H   0  0  0  0  0  0  0  0  0  0  0  0
   12.7447    0.5466   -0.1543 H   0  0  0  0  0  0  0  0  0  0  0  0
   13.0745   -0.1314    1.4323 H   0  0  0  0  0  0  0  0  0  0  0  0
   12.3785    2.0105    2.0262 H   0  0  0  0  0  0  0  0  0  0  0  0
   10.9108    1.0722    2.2529 H   0  0  0  0  0  0  0  0  0  0  0  0
   11.5979    3.1009    0.0727 H   0  0  0  0  0  0  0  0  0  0  0  0
   10.2465    3.1123    1.1864 H   0  0  0  0  0  0  0  0  0  0  0  0
   10.7431    1.4528   -1.3118 H   0  0  0  0  0  0  0  0  0  0  0  0
    8.2804    3.0991   -0.5925 H   0  0  0  0  0  0  0  0  0  0  0  0
    8.5114    2.1287   -2.0371 H   0  0  0  0  0  0  0  0  0  0  0  0
   10.2174    4.5473   -1.2179 H   0  0  0  0  0  0  0  0  0  0  0  0
   10.2659    2.9060   -3.8228 H   0  0  0  0  0  0  0  0  0  0  0  0
   11.5841    3.0008   -2.6301 H   0  0  0  0  0  0  0  0  0  0  0  0
   11.1273    4.4392   -3.5580 H   0  0  0  0  0  0  0  0  0  0  0  0
    8.0407    4.2860   -3.3730 H   0  0  0  0  0  0  0  0  0  0  0  0
    9.0280    5.7325   -3.0572 H   0  0  0  0  0  0  0  0  0  0  0  0
    7.8736    5.1553   -1.8310 H   0  0  0  0  0  0  0  0  0  0  0  0
    4.8392    0.3528    2.5834 H   0  0  0  0  0  0  0  0  0  0  0  0
    5.4212    0.2657    0.8878 H   0  0  0  0  0  0  0  0  0  0  0  0
  1  2  1  0
  1 26  1  0
  1 27  1  0
  1 28  1  0
  2  3  1  0
  2 29  1  0
  2 30  1  0
  3  4  1  0
  3  8  1  0
  4  5  1  0
  4 31  1  0
  4 32  1  0
  5  6  2  0
  5  7  1  0
  7 33  1  0
  8  9  1  0
  8 25  1  0
  8 34  1  6
  9 10  1  0
  9 35  1  0
  9 36  1  0
 10 11  1  0
 10 25  1  0
 10 37  1  1
 11 12  1  0
 11 38  1  0
 12 13  2  0
 12 14  1  0
 14 15  1  0
 14 20  1  0
 15 16  1  0
 15 39  1  0
 15 40  1  0
 16 17  1  0
 16 41  1  0
 16 42  1  0
 17 18  1  0
 17 43  1  0
 17 44  1  0
 18 19  1  0
 18 45  1  0
 18 46  1  0
 19 20  1  0
 19 47  1  0
 19 48  1  0
 20 21  1  0
 20 49  1  6
 21 22  1  0
 21 50  1  0
 21 51  1  0
 22 23  1  0
 22 24  1  0
 22 52  1  1
 23 53  1  0
 23 54  1  0
 23 55  1  0
 24 56  1  0
 24 57  1  0
 24 58  1  0
 25 59  1  0
 25 60  1  0
M  END

