
     RDKit          3D

 58 61  0  0  0  0  0  0  0  0999 V2000
   -5.6055   -8.7094   -0.5724 C   0  0  0  0  0  0  0  0  0  0  0  0
   -4.4229   -9.6163   -0.3297 C   0  0  0  0  0  0  0  0  0  0  0  0
   -4.5105  -10.7165    0.5360 C   0  0  0  0  0  0  0  0  0  0  0  0
   -3.4216  -11.5748    0.7234 C   0  0  0  0  0  0  0  0  0  0  0  0
   -2.2220  -11.3443    0.0535 C   0  0  0  0  0  0  0  0  0  0  0  0
   -2.1014  -10.2366   -0.8005 C   0  0  0  0  0  0  0  0  0  0  0  0
   -0.7845  -10.0367   -1.4970 C   0  0  0  0  0  0  0  0  0  0  0  0
    0.0141  -10.9620   -1.6392 O   0  0  0  0  0  0  0  0  0  0  0  0
   -0.5179   -8.7821   -1.9575 N   0  0  0  0  0  0  0  0  0  0  0  0
    0.6871   -8.4678   -2.7110 C   0  0  0  0  0  0  0  0  0  0  0  0
    1.9355   -8.2029   -1.8441 C   0  0  0  0  0  0  0  0  0  0  0  0
    2.4560   -7.0998   -1.8033 O   0  0  0  0  0  0  0  0  0  0  0  0
    2.3727   -9.2960   -1.1628 N   0  0  0  0  0  0  0  0  0  0  0  0
    3.5444   -9.2812   -0.3123 C   0  0  0  0  0  0  0  0  0  0  0  0
    4.6238  -10.3117   -0.7258 C   0  0  1  0  0  0  0  0  0  0  0  0
    5.0994  -10.0187   -2.1607 C   0  0  0  0  0  0  0  0  0  0  0  0
    4.8299  -10.8633   -3.2510 C   0  0  0  0  0  0  0  0  0  0  0  0
    5.2437  -10.5348   -4.5446 C   0  0  0  0  0  0  0  0  0  0  0  0
    5.9449   -9.3542   -4.7882 C   0  0  0  0  0  0  0  0  0  0  0  0
    6.2399   -8.5020   -3.7054 C   0  0  0  0  0  0  0  0  0  0  0  0
    5.8104   -8.8361   -2.4206 C   0  0  0  0  0  0  0  0  0  0  0  0
    6.9401   -7.3394   -3.8816 O   0  0  0  0  0  0  0  0  0  0  0  0
    7.6118   -7.2395   -5.1261 C   0  0  0  0  0  0  0  0  0  0  0  0
    6.7035   -7.6964   -6.2556 C   0  0  0  0  0  0  0  0  0  0  0  0
    6.3285   -9.0514   -6.0667 O   0  0  0  0  0  0  0  0  0  0  0  0
    5.8138  -10.2915    0.2719 C   0  0  0  0  0  0  0  0  0  0  0  0
    6.5258  -11.6413    0.0665 C   0  0  0  0  0  0  0  0  0  0  0  0
    5.4114  -12.6294   -0.3796 C   0  0  0  0  0  0  0  0  0  0  0  0
    4.1353  -11.7689   -0.5200 C   0  0  0  0  0  0  0  0  0  0  0  0
   -3.2051   -9.3922   -0.9907 C   0  0  0  0  0  0  0  0  0  0  0  0
   -6.4127   -8.8957    0.1511 H   0  0  0  0  0  0  0  0  0  0  0  0
   -6.0232   -8.8622   -1.5824 H   0  0  0  0  0  0  0  0  0  0  0  0
   -5.3223   -7.6471   -0.4981 H   0  0  0  0  0  0  0  0  0  0  0  0
   -5.4479  -10.9082    1.0660 H   0  0  0  0  0  0  0  0  0  0  0  0
   -3.5146  -12.4300    1.3976 H   0  0  0  0  0  0  0  0  0  0  0  0
   -1.3628  -12.0060    0.1745 H   0  0  0  0  0  0  0  0  0  0  0  0
   -1.0963   -8.0131   -1.6439 H   0  0  0  0  0  0  0  0  0  0  0  0
    0.5133   -7.5584   -3.2999 H   0  0  0  0  0  0  0  0  0  0  0  0
    0.8913   -9.3074   -3.3934 H   0  0  0  0  0  0  0  0  0  0  0  0
    1.8312  -10.1549   -1.2694 H   0  0  0  0  0  0  0  0  0  0  0  0
    3.2540   -9.4833    0.7360 H   0  0  0  0  0  0  0  0  0  0  0  0
    3.9462   -8.2592   -0.3503 H   0  0  0  0  0  0  0  0  0  0  0  0
    4.2804  -11.7937   -3.1088 H   0  0  0  0  0  0  0  0  0  0  0  0
    5.0235  -11.1881   -5.3919 H   0  0  0  0  0  0  0  0  0  0  0  0
    6.0522   -8.1278   -1.6260 H   0  0  0  0  0  0  0  0  0  0  0  0
    8.5298   -7.8577   -5.1135 H   0  0  0  0  0  0  0  0  0  0  0  0
    7.9012   -6.1855   -5.2517 H   0  0  0  0  0  0  0  0  0  0  0  0
    7.2174   -7.6368   -7.2265 H   0  0  0  0  0  0  0  0  0  0  0  0
    5.8027   -7.0545   -6.2926 H   0  0  0  0  0  0  0  0  0  0  0  0
    5.4071  -10.2285    1.2967 H   0  0  0  0  0  0  0  0  0  0  0  0
    6.4810   -9.4272    0.1394 H   0  0  0  0  0  0  0  0  0  0  0  0
    7.0489  -11.9729    0.9770 H   0  0  0  0  0  0  0  0  0  0  0  0
    7.2891  -11.5466   -0.7213 H   0  0  0  0  0  0  0  0  0  0  0  0
    5.2616  -13.4455    0.3445 H   0  0  0  0  0  0  0  0  0  0  0  0
    5.6758  -13.1048   -1.3365 H   0  0  0  0  0  0  0  0  0  0  0  0
    3.5677  -11.7957    0.4257 H   0  0  0  0  0  0  0  0  0  0  0  0
    3.4479  -12.1304   -1.2985 H   0  0  0  0  0  0  0  0  0  0  0  0
   -3.1384   -8.5541   -1.6907 H   0  0  0  0  0  0  0  0  0  0  0  0
  1  2  1  0
  1 31  1  0
  1 32  1  0
  1 33  1  0
  2  3  2  0
  2 30  1  0
  3  4  1  0
  3 34  1  0
  4  5  2  0
  4 35  1  0
  5  6  1  0
  5 36  1  0
  6  7  1  0
  6 30  2  0
  7  8  2  0
  7  9  1  0
  9 10  1  0
  9 37  1  0
 10 11  1  0
 10 38  1  0
 10 39  1  0
 11 12  2  0
 11 13  1  0
 13 14  1  0
 13 40  1  0
 15 14  1  1
 14 41  1  0
 14 42  1  0
 15 16  1  0
 15 26  1  0
 15 29  1  0
 16 17  2  0
 16 21  1  0
 17 18  1  0
 17 43  1  0
 18 19  2  0
 18 44  1  0
 19 20  1  0
 19 25  1  0
 20 21  2  0
 20 22  1  0
 21 45  1  0
 22 23  1  0
 23 24  1  0
 23 46  1  0
 23 47  1  0
 24 25  1  0
 24 48  1  0
 24 49  1  0
 26 27  1  0
 26 50  1  0
 26 51  1  0
 27 28  1  0
 27 52  1  0
 27 53  1  0
 28 29  1  0
 28 54  1  0
 28 55  1  0
 29 56  1  0
 29 57  1  0
 30 58  1  0
M  END

