
     RDKit          3D

 79 88  0  0  0  0  0  0  0  0999 V2000
   -0.8431    0.4667    2.5465 C   0  0  0  0  0  0  0  0  0  0  0  0
    0.2854    0.6624    3.3483 C   0  0  0  0  0  0  0  0  0  0  0  0
    1.5590    0.6889    2.7766 C   0  0  0  0  0  0  0  0  0  0  0  0
    1.7351    0.5212    1.3898 C   0  0  0  0  0  0  0  0  0  0  0  0
    3.0919    0.5500    0.7812 C   0  0  0  0  0  0  0  0  0  0  0  0
    4.2010   -0.0083    1.4446 C   0  0  0  0  0  0  0  0  0  0  0  0
    5.4764    0.0248    0.8821 C   0  0  0  0  0  0  0  0  0  0  0  0
    5.6788    0.6062   -0.3781 C   0  0  0  0  0  0  0  0  0  0  0  0
    6.9748    0.6360   -0.9586 N   0  0  0  0  0  0  0  0  0  0  0  0
    7.7788   -0.4778   -1.2259 C   0  0  0  0  0  0  0  0  0  0  0  0
    7.5091   -1.8386   -1.0324 C   0  0  0  0  0  0  0  0  0  0  0  0
    8.4909   -2.7564   -1.4079 C   0  0  0  0  0  0  0  0  0  0  0  0
    9.7127   -2.3374   -1.9679 C   0  0  0  0  0  0  0  0  0  0  0  0
    9.9720   -0.9826   -2.1703 C   0  0  0  0  0  0  0  0  0  0  0  0
    9.0021   -0.0393   -1.8018 C   0  0  0  0  0  0  0  0  0  0  0  0
    8.9289    1.4070   -1.8851 C   0  0  0  0  0  0  0  0  0  0  0  0
    9.8168    2.3899   -2.3335 C   0  0  0  0  0  0  0  0  0  0  0  0
    9.4599    3.7476   -2.2656 C   0  0  0  0  0  0  0  0  0  0  0  0
   10.3720    4.8029   -2.7269 C   0  0  0  0  0  0  0  0  0  0  0  0
   10.4242    6.1245   -2.3186 C   0  0  0  0  0  0  0  0  0  0  0  0
   11.4389    6.8438   -3.0063 C   0  0  0  0  0  0  0  0  0  0  0  0
   12.1638    6.0844   -3.9216 C   0  0  0  0  0  0  0  0  0  0  0  0
   11.5814    4.4508   -3.9683 S   0  0  0  0  0  0  0  0  0  0  0  0
   13.1797    6.9150   -4.4966 C   0  0  0  0  0  0  0  0  0  0  0  0
   14.1837    6.7359   -5.4637 C   0  0  0  0  0  0  0  0  0  0  0  0
   14.9941    7.8147   -5.8078 C   0  0  0  0  0  0  0  0  0  0  0  0
   14.8101    9.0753   -5.2070 C   0  0  0  0  0  0  0  0  0  0  0  0
   13.8235    9.2825   -4.2423 C   0  0  0  0  0  0  0  0  0  0  0  0
   13.0171    8.1973   -3.8773 C   0  0  0  0  0  0  0  0  0  0  0  0
   11.9554    8.1384   -2.9644 N   0  0  0  0  0  0  0  0  0  0  0  0
   11.4758    9.1923   -2.1484 C   0  0  0  0  0  0  0  0  0  0  0  0
   10.1048    9.4901   -2.1102 C   0  0  0  0  0  0  0  0  0  0  0  0
    9.6286   10.5139   -1.2929 C   0  0  0  0  0  0  0  0  0  0  0  0
   10.4987   11.2868   -0.5008 C   0  0  0  0  0  0  0  0  0  0  0  0
    9.9877   12.3851    0.3608 C   0  0  0  0  0  0  0  0  0  0  0  0
    8.7508   12.2719    1.0243 C   0  0  0  0  0  0  0  0  0  0  0  0
    8.2704   13.3038    1.8330 C   0  0  0  0  0  0  0  0  0  0  0  0
    9.0158   14.4749    1.9986 C   0  0  0  0  0  0  0  0  0  0  0  0
   10.2462   14.6033    1.3472 C   0  0  0  0  0  0  0  0  0  0  0  0
   10.7257   13.5713    0.5382 C   0  0  0  0  0  0  0  0  0  0  0  0
   11.8713   10.9788   -0.5551 C   0  0  0  0  0  0  0  0  0  0  0  0
   12.3554    9.9450   -1.3551 C   0  0  0  0  0  0  0  0  0  0  0  0
    8.1914    4.0898   -1.7274 C   0  0  0  0  0  0  0  0  0  0  0  0
    7.2956    3.1306   -1.2655 C   0  0  0  0  0  0  0  0  0  0  0  0
    7.6652    1.7823   -1.3554 C   0  0  0  0  0  0  0  0  0  0  0  0
    4.5828    1.1588   -1.0566 C   0  0  0  0  0  0  0  0  0  0  0  0
    3.3139    1.1369   -0.4789 C   0  0  0  0  0  0  0  0  0  0  0  0
    0.5885    0.3254    0.5964 C   0  0  0  0  0  0  0  0  0  0  0  0
   -0.6853    0.2982    1.1676 C   0  0  0  0  0  0  0  0  0  0  0  0
   -1.8401    0.4457    2.9938 H   0  0  0  0  0  0  0  0  0  0  0  0
    0.1737    0.8037    4.4264 H   0  0  0  0  0  0  0  0  0  0  0  0
    2.4291    0.8672    3.4128 H   0  0  0  0  0  0  0  0  0  0  0  0
    4.0628   -0.4886    2.4157 H   0  0  0  0  0  0  0  0  0  0  0  0
    6.3252   -0.4020    1.4200 H   0  0  0  0  0  0  0  0  0  0  0  0
    6.5622   -2.1741   -0.6067 H   0  0  0  0  0  0  0  0  0  0  0  0
    8.3032   -3.8237   -1.2653 H   0  0  0  0  0  0  0  0  0  0  0  0
   10.4605   -3.0824   -2.2497 H   0  0  0  0  0  0  0  0  0  0  0  0
   10.9170   -0.6591   -2.6138 H   0  0  0  0  0  0  0  0  0  0  0  0
   10.7991    2.1019   -2.7156 H   0  0  0  0  0  0  0  0  0  0  0  0
    9.7838    6.5344   -1.5390 H   0  0  0  0  0  0  0  0  0  0  0  0
   14.3196    5.7626   -5.9413 H   0  0  0  0  0  0  0  0  0  0  0  0
   15.7781    7.6853   -6.5579 H   0  0  0  0  0  0  0  0  0  0  0  0
   15.4495    9.9110   -5.5021 H   0  0  0  0  0  0  0  0  0  0  0  0
   13.6833   10.2664   -3.7926 H   0  0  0  0  0  0  0  0  0  0  0  0
    9.4151    8.9280   -2.7428 H   0  0  0  0  0  0  0  0  0  0  0  0
    8.5606   10.7426   -1.3006 H   0  0  0  0  0  0  0  0  0  0  0  0
    8.1690   11.3524    0.9260 H   0  0  0  0  0  0  0  0  0  0  0  0
    7.3111   13.1881    2.3441 H   0  0  0  0  0  0  0  0  0  0  0  0
    8.6402   15.2827    2.6317 H   0  0  0  0  0  0  0  0  0  0  0  0
   10.8342   15.5177    1.4621 H   0  0  0  0  0  0  0  0  0  0  0  0
   11.6765   13.6974    0.0151 H   0  0  0  0  0  0  0  0  0  0  0  0
   12.5729   11.5332    0.0723 H   0  0  0  0  0  0  0  0  0  0  0  0
   13.4189    9.7001   -1.3483 H   0  0  0  0  0  0  0  0  0  0  0  0
    7.8982    5.1408   -1.6907 H   0  0  0  0  0  0  0  0  0  0  0  0
    6.3300    3.4284   -0.8541 H   0  0  0  0  0  0  0  0  0  0  0  0
    4.7302    1.6062   -2.0417 H   0  0  0  0  0  0  0  0  0  0  0  0
    2.4800    1.5956   -1.0146 H   0  0  0  0  0  0  0  0  0  0  0  0
    0.6977    0.1673   -0.4791 H   0  0  0  0  0  0  0  0  0  0  0  0
   -1.5595    0.1357    0.5319 H   0  0  0  0  0  0  0  0  0  0  0  0
  1  2  2  0
  1 49  1  0
  1 50  1  0
  2  3  1  0
  2 51  1  0
  3  4  2  0
  3 52  1  0
  4  5  1  0
  4 48  1  0
  5  6  2  0
  5 47  1  0
  6  7  1  0
  6 53  1  0
  7  8  2  0
  7 54  1  0
  8  9  1  0
  8 46  1  0
  9 10  1  0
  9 45  1  0
 10 11  2  0
 10 15  1  0
 11 12  1  0
 11 55  1  0
 12 13  2  0
 12 56  1  0
 13 14  1  0
 13 57  1  0
 14 15  2  0
 14 58  1  0
 15 16  1  0
 16 17  1  0
 16 45  2  0
 17 18  2  0
 17 59  1  0
 18 19  1  0
 18 43  1  0
 19 20  2  0
 19 23  1  0
 20 21  1  0
 20 60  1  0
 21 22  2  0
 21 30  1  0
 22 23  1  0
 22 24  1  0
 24 25  2  0
 24 29  1  0
 25 26  1  0
 25 61  1  0
 26 27  2  0
 26 62  1  0
 27 28  1  0
 27 63  1  0
 28 29  2  0
 28 64  1  0
 29 30  1  0
 30 31  1  0
 31 32  2  0
 31 42  1  0
 32 33  1  0
 32 65  1  0
 33 34  2  0
 33 66  1  0
 34 35  1  0
 34 41  1  0
 35 36  2  0
 35 40  1  0
 36 37  1  0
 36 67  1  0
 37 38  2  0
 37 68  1  0
 38 39  1  0
 38 69  1  0
 39 40  2  0
 39 70  1  0
 40 71  1  0
 41 42  2  0
 41 72  1  0
 42 73  1  0
 43 44  2  0
 43 74  1  0
 44 45  1  0
 44 75  1  0
 46 47  2  0
 46 76  1  0
 47 77  1  0
 48 49  2  0
 48 78  1  0
 49 79  1  0
M  END

