
     RDKit          3D

 31 31  0  0  0  0  0  0  0  0999 V2000
    0.4426    0.5191   -0.1913 C   0  0  0  0  0  0  0  0  0  0  0  0
    1.9576    0.4582    0.0122 C   0  0  0  0  0  0  0  0  0  0  0  0
    2.7406    1.1463   -1.1127 C   0  0  0  0  0  0  0  0  0  0  0  0
    4.2688    1.1642   -0.9305 C   0  0  1  0  0  0  0  0  0  0  0  0
    4.8810   -0.2400   -1.1641 C   0  0  0  0  0  0  0  0  0  0  0  0
    6.3066   -0.2968   -0.8940 N   0  0  0  0  0  0  0  0  0  0  0  0
    6.8624   -0.5337    0.4236 C   0  0  0  0  0  0  0  0  0  0  0  0
    8.3649   -0.4988    0.1013 C   0  0  0  0  0  0  0  0  0  0  0  0
    8.4426   -0.7984   -1.2920 O   0  0  0  0  0  0  0  0  0  0  0  0
    7.2261   -0.5921   -1.8790 C   0  0  0  0  0  0  0  0  0  0  0  0
    7.0386   -0.6699   -3.0650 O   0  0  0  0  0  0  0  0  0  0  0  0
    4.8860    2.2251   -1.7234 N   0  0  0  0  0  0  0  0  0  0  0  0
    4.7816    2.1368   -3.1760 C   0  0  0  0  0  0  0  0  0  0  0  0
   -0.0968    0.0274    0.6339 H   0  0  0  0  0  0  0  0  0  0  0  0
    0.1438    0.0201   -1.1283 H   0  0  0  0  0  0  0  0  0  0  0  0
    0.0888    1.5620   -0.2474 H   0  0  0  0  0  0  0  0  0  0  0  0
    2.2655   -0.5986    0.1030 H   0  0  0  0  0  0  0  0  0  0  0  0
    2.2181    0.9319    0.9763 H   0  0  0  0  0  0  0  0  0  0  0  0
    2.4148    2.1974   -1.1887 H   0  0  0  0  0  0  0  0  0  0  0  0
    2.4812    0.6713   -2.0764 H   0  0  0  0  0  0  0  0  0  0  0  0
    4.4636    1.4347    0.1249 H   0  0  0  0  0  0  0  0  0  0  0  0
    4.7427   -0.5426   -2.2129 H   0  0  0  0  0  0  0  0  0  0  0  0
    4.3691   -0.9895   -0.5341 H   0  0  0  0  0  0  0  0  0  0  0  0
    6.5398   -1.5144    0.8274 H   0  0  0  0  0  0  0  0  0  0  0  0
    6.5741    0.2416    1.1513 H   0  0  0  0  0  0  0  0  0  0  0  0
    8.9518   -1.2404    0.6610 H   0  0  0  0  0  0  0  0  0  0  0  0
    8.7949    0.5023    0.2790 H   0  0  0  0  0  0  0  0  0  0  0  0
    5.8668    2.3048   -1.4610 H   0  0  0  0  0  0  0  0  0  0  0  0
    3.7263    2.1888   -3.4877 H   0  0  0  0  0  0  0  0  0  0  0  0
    5.2324    1.2313   -3.6288 H   0  0  0  0  0  0  0  0  0  0  0  0
    5.2839    3.0116   -3.6188 H   0  0  0  0  0  0  0  0  0  0  0  0
  1  2  1  0
  1 14  1  0
  1 15  1  0
  1 16  1  0
  2  3  1  0
  2 17  1  0
  2 18  1  0
  3  4  1  0
  3 19  1  0
  3 20  1  0
  4  5  1  0
  4 12  1  0
  4 21  1  1
  5  6  1  0
  5 22  1  0
  5 23  1  0
  6  7  1  0
  6 10  1  0
  7  8  1  0
  7 24  1  0
  7 25  1  0
  8  9  1  0
  8 26  1  0
  8 27  1  0
  9 10  1  0
 10 11  2  0
 12 13  1  0
 12 28  1  0
 13 29  1  0
 13 30  1  0
 13 31  1  0
M  END

