
     RDKit          3D

 47 49  0  0  0  0  0  0  0  0999 V2000
    0.1820    0.7270    0.3696 C   0  0  0  0  0  0  0  0  0  0  0  0
    1.5877    0.2812   -0.0423 C   0  0  0  0  0  0  0  0  0  0  0  0
    2.7042    0.6580    0.9655 C   0  0  1  0  0  0  0  0  0  0  0  0
    2.6404   -0.1727    2.2379 C   0  0  0  0  0  0  0  0  0  0  0  0
    1.6304   -0.8657    2.6726 N   0  0  0  0  0  0  0  0  0  0  0  0
    1.8981   -1.4475    3.8865 C   0  0  0  0  0  0  0  0  0  0  0  0
    3.1442   -1.2001    4.3975 C   0  0  0  0  0  0  0  0  0  0  0  0
    4.0404   -0.1978    3.3061 S   0  0  0  0  0  0  0  0  0  0  0  0
    4.0783    0.6578    0.4783 N   0  0  0  0  0  0  0  0  0  0  0  0
    4.6475   -0.5616   -0.0807 C   0  0  0  0  0  0  0  0  0  0  0  0
    4.6588   -0.5574   -1.6122 C   0  0  0  0  0  0  0  0  0  0  0  0
    5.3137    0.6554   -2.0915 N   0  0  0  0  0  0  0  0  0  0  0  0
    4.6555    1.8862   -1.6515 C   0  0  2  0  0  0  0  0  0  0  0  0
    5.3953    3.1395   -2.1846 C   0  0  1  0  0  0  0  0  0  0  0  0
    5.7445    3.0812   -3.6886 C   0  0  0  0  0  0  0  0  0  0  0  0
    4.5181    3.2206   -4.6015 C   0  0  0  0  0  0  0  0  0  0  0  0
    3.7559    4.5194   -4.3055 C   0  0  0  0  0  0  0  0  0  0  0  0
    3.3925    4.6350   -2.8192 C   0  0  0  0  0  0  0  0  0  0  0  0
    4.6219    4.4520   -1.9140 C   0  0  0  0  0  0  0  0  0  0  0  0
    4.6424    1.8630   -0.1049 C   0  0  0  0  0  0  0  0  0  0  0  0
   -0.5488    0.4872   -0.4196 H   0  0  0  0  0  0  0  0  0  0  0  0
    0.1435    1.8181    0.5324 H   0  0  0  0  0  0  0  0  0  0  0  0
   -0.1356    0.2299    1.2957 H   0  0  0  0  0  0  0  0  0  0  0  0
    1.8483    0.7551   -1.0018 H   0  0  0  0  0  0  0  0  0  0  0  0
    1.6008   -0.8084   -0.2122 H   0  0  0  0  0  0  0  0  0  0  0  0
    2.5066    1.7019    1.2740 H   0  0  0  0  0  0  0  0  0  0  0  0
    1.1361   -2.0635    4.3684 H   0  0  0  0  0  0  0  0  0  0  0  0
    3.5755   -1.5638    5.3287 H   0  0  0  0  0  0  0  0  0  0  0  0
    4.0985   -1.4363    0.2993 H   0  0  0  0  0  0  0  0  0  0  0  0
    5.6945   -0.6569    0.2657 H   0  0  0  0  0  0  0  0  0  0  0  0
    3.6168   -0.6595   -1.9880 H   0  0  0  0  0  0  0  0  0  0  0  0
    5.2231   -1.4328   -1.9762 H   0  0  0  0  0  0  0  0  0  0  0  0
    5.3810    0.6303   -3.1053 H   0  0  0  0  0  0  0  0  0  0  0  0
    3.5963    1.9152   -1.9944 H   0  0  0  0  0  0  0  0  0  0  0  0
    6.3511    3.1815   -1.6325 H   0  0  0  0  0  0  0  0  0  0  0  0
    6.3144    2.1673   -3.9217 H   0  0  0  0  0  0  0  0  0  0  0  0
    6.4374    3.9147   -3.9040 H   0  0  0  0  0  0  0  0  0  0  0  0
    3.8416    2.3573   -4.4617 H   0  0  0  0  0  0  0  0  0  0  0  0
    4.8305    3.1947   -5.6592 H   0  0  0  0  0  0  0  0  0  0  0  0
    2.8487    4.5873   -4.9294 H   0  0  0  0  0  0  0  0  0  0  0  0
    4.3924    5.3783   -4.5895 H   0  0  0  0  0  0  0  0  0  0  0  0
    2.6271    3.8779   -2.5722 H   0  0  0  0  0  0  0  0  0  0  0  0
    2.9254    5.6138   -2.6170 H   0  0  0  0  0  0  0  0  0  0  0  0
    4.3253    4.5266   -0.8555 H   0  0  0  0  0  0  0  0  0  0  0  0
    5.3148    5.2947   -2.0883 H   0  0  0  0  0  0  0  0  0  0  0  0
    4.0986    2.7327    0.2904 H   0  0  0  0  0  0  0  0  0  0  0  0
    5.6969    1.9547    0.2230 H   0  0  0  0  0  0  0  0  0  0  0  0
  1  2  1  0
  1 21  1  0
  1 22  1  0
  1 23  1  0
  2  3  1  0
  2 24  1  0
  2 25  1  0
  3  4  1  0
  3  9  1  0
  3 26  1  1
  4  5  2  0
  4  8  1  0
  5  6  1  0
  6  7  2  0
  6 27  1  0
  7  8  1  0
  7 28  1  0
  9 10  1  0
  9 20  1  0
 10 11  1  0
 10 29  1  0
 10 30  1  0
 11 12  1  0
 11 31  1  0
 11 32  1  0
 12 13  1  0
 12 33  1  0
 13 14  1  0
 13 20  1  0
 13 34  1  6
 14 15  1  0
 14 19  1  0
 14 35  1  1
 15 16  1  0
 15 36  1  0
 15 37  1  0
 16 17  1  0
 16 38  1  0
 16 39  1  0
 17 18  1  0
 17 40  1  0
 17 41  1  0
 18 19  1  0
 18 42  1  0
 18 43  1  0
 19 44  1  0
 19 45  1  0
 20 46  1  0
 20 47  1  0
M  END

