
     RDKit          3D

 92 94  0  0  0  0  0  0  0  0999 V2000
   10.5554    0.3116   -4.6930 N   0  0  0  0  0  0  0  0  0  0  0  0
    9.5312    0.0651   -5.7258 C   0  0  0  0  0  0  0  0  0  0  0  0
    8.8491    1.3477   -6.1961 C   0  0  2  0  0  0  0  0  0  0  0  0
    8.0909    1.0413   -6.9500 H   0  0  0  0  0  0  0  0  0  0  0  0
    9.8249    2.1817   -6.7746 O   0  0  0  0  0  0  0  0  0  0  0  0
    8.0574    2.2101   -5.1819 C   0  0  0  0  0  0  0  0  0  0  0  0
    7.8322    3.3724   -5.5077 O   0  0  0  0  0  0  0  0  0  0  0  0
    7.6407    1.6278   -4.0407 N   0  0  0  0  0  0  0  0  0  0  0  0
    6.8549    2.2770   -2.9782 C   0  0  2  0  0  0  0  0  0  0  0  0
    5.8339    2.4708   -3.3554 H   0  0  0  0  0  0  0  0  0  0  0  0
    7.4869    3.6169   -2.5426 C   0  0  0  0  0  0  0  0  0  0  0  0
    6.8778    4.1844   -1.2479 C   0  0  2  0  0  0  0  0  0  0  0  0
    5.7926    4.3304   -1.4038 H   0  0  0  0  0  0  0  0  0  0  0  0
    7.4325    5.4506   -0.7947 N   0  0  0  0  0  0  0  0  0  0  0  0
    7.0293    3.1430   -0.1372 C   0  0  2  0  0  0  0  0  0  0  0  0
    8.4318    2.8628   -0.0072 O   0  0  0  0  0  0  0  0  0  0  0  0
    9.0155    2.7896    1.2614 C   0  0  1  0  0  0  0  0  0  0  0  0
    8.5201    3.4901    1.9538 H   0  0  0  0  0  0  0  0  0  0  0  0
    8.8330    1.5045    1.8449 O   0  0  0  0  0  0  0  0  0  0  0  0
    9.4995    0.4059    1.1860 C   0  0  2  0  0  0  0  0  0  0  0  0
    9.0880    0.3129    0.1672 H   0  0  0  0  0  0  0  0  0  0  0  0
    9.1681   -0.8956    1.9340 C   0  0  0  0  0  0  0  0  0  0  0  0
    9.8412   -1.1656    3.1938 N   0  0  0  0  0  0  0  0  0  0  0  0
    9.5233   -0.3395    4.3607 C   0  0  0  0  0  0  0  0  0  0  0  0
    8.2331   -0.8487    5.0287 C   0  0  1  0  0  0  0  0  0  0  0  0
    8.2682   -2.2633    5.0745 O   0  0  0  0  0  0  0  0  0  0  0  0
    8.0970   -0.3568    6.4709 C   0  0  0  0  0  0  0  0  0  0  0  0
    9.1088   -0.9044    7.2820 O   0  0  0  0  0  0  0  0  0  0  0  0
   11.0003    0.6776    1.0453 C   0  0  1  0  0  0  0  0  0  0  0  0
   11.4616    0.7077    2.0480 H   0  0  0  0  0  0  0  0  0  0  0  0
   11.6568   -0.3510    0.3318 O   0  0  0  0  0  0  0  0  0  0  0  0
   11.2483    2.0347    0.3881 C   0  0  2  0  0  0  0  0  0  0  0  0
   10.8522    1.9795   -0.6489 H   0  0  0  0  0  0  0  0  0  0  0  0
   12.6251    2.3415    0.3764 O   0  0  0  0  0  0  0  0  0  0  0  0
   10.5006    3.1533    1.1186 C   0  0  1  0  0  0  0  0  0  0  0  0
   10.9102    3.2137    2.1409 H   0  0  0  0  0  0  0  0  0  0  0  0
   10.6330    4.4693    0.5052 N   0  0  0  0  0  0  0  0  0  0  0  0
    6.2646    1.8625   -0.4777 C   0  0  2  0  0  0  0  0  0  0  0  0
    5.2003    2.1317   -0.6048 H   0  0  0  0  0  0  0  0  0  0  0  0
    6.3396    0.8941    0.5474 O   0  0  0  0  0  0  0  0  0  0  0  0
    6.7545    1.2673   -1.8101 C   0  0  1  0  0  0  0  0  0  0  0  0
    7.7733    0.8893   -1.6292 H   0  0  0  0  0  0  0  0  0  0  0  0
    5.8697    0.1741   -2.0657 O   0  0  0  0  0  0  0  0  0  0  0  0
    6.1614   -0.7681   -3.0681 C   0  0  1  0  0  0  0  0  0  0  0  0
    5.9337   -0.3574   -4.0660 H   0  0  0  0  0  0  0  0  0  0  0  0
    7.5308   -1.1088   -3.1128 O   0  0  0  0  0  0  0  0  0  0  0  0
    8.0483   -1.7509   -1.9365 C   0  0  2  0  0  0  0  0  0  0  0  0
    7.8823   -1.0927   -1.0653 H   0  0  0  0  0  0  0  0  0  0  0  0
    9.5499   -1.9050   -2.1315 C   0  0  0  0  0  0  0  0  0  0  0  0
   10.2295   -0.6643   -2.0632 O   0  0  0  0  0  0  0  0  0  0  0  0
    7.2825   -3.0521   -1.6734 C   0  0  1  0  0  0  0  0  0  0  0  0
    7.4627   -3.7572   -2.5050 H   0  0  0  0  0  0  0  0  0  0  0  0
    7.7663   -3.7023   -0.5096 O   0  0  0  0  0  0  0  0  0  0  0  0
    5.7638   -2.7737   -1.5670 C   0  0  2  0  0  0  0  0  0  0  0  0
    5.6361   -2.0982   -0.6965 H   0  0  0  0  0  0  0  0  0  0  0  0
    4.9560   -3.9576   -1.3413 N   0  0  0  0  0  0  0  0  0  0  0  0
    5.2747   -1.9971   -2.8050 C   0  0  1  0  0  0  0  0  0  0  0  0
    5.3784   -2.6544   -3.6875 H   0  0  0  0  0  0  0  0  0  0  0  0
    3.9261   -1.6243   -2.7514 O   0  0  0  0  0  0  0  0  0  0  0  0
   11.3271   -0.3453   -4.8199 H   0  0  0  0  0  0  0  0  0  0  0  0
   10.9655    1.2316   -4.8790 H   0  0  0  0  0  0  0  0  0  0  0  0
    8.7775   -0.6413   -5.3424 H   0  0  0  0  0  0  0  0  0  0  0  0
    9.9692   -0.3910   -6.6311 H   0  0  0  0  0  0  0  0  0  0  0  0
    9.4279    3.0724   -6.7556 H   0  0  0  0  0  0  0  0  0  0  0  0
    7.9949    0.6969   -3.8274 H   0  0  0  0  0  0  0  0  0  0  0  0
    7.3817    4.3363   -3.3652 H   0  0  0  0  0  0  0  0  0  0  0  0
    8.5655    3.4633   -2.3832 H   0  0  0  0  0  0  0  0  0  0  0  0
    7.4401    6.1369   -1.5481 H   0  0  0  0  0  0  0  0  0  0  0  0
    8.3969    5.3311   -0.4788 H   0  0  0  0  0  0  0  0  0  0  0  0
    6.6503    3.5576    0.8131 H   0  0  0  0  0  0  0  0  0  0  0  0
    9.4053   -1.7242    1.2479 H   0  0  0  0  0  0  0  0  0  0  0  0
    8.0767   -0.9199    2.0927 H   0  0  0  0  0  0  0  0  0  0  0  0
   10.8427   -1.2721    3.0585 H   0  0  0  0  0  0  0  0  0  0  0  0
    9.4283    0.7357    4.1308 H   0  0  0  0  0  0  0  0  0  0  0  0
   10.3383   -0.4637    5.0901 H   0  0  0  0  0  0  0  0  0  0  0  0
    7.3512   -0.4984    4.4512 H   0  0  0  0  0  0  0  0  0  0  0  0
    8.8494   -2.5046    4.3251 H   0  0  0  0  0  0  0  0  0  0  0  0
    7.0865   -0.6237    6.8417 H   0  0  0  0  0  0  0  0  0  0  0  0
    8.1828    0.7424    6.5087 H   0  0  0  0  0  0  0  0  0  0  0  0
    9.1248   -1.8468    7.0467 H   0  0  0  0  0  0  0  0  0  0  0  0
   11.2431   -0.4251   -0.5573 H   0  0  0  0  0  0  0  0  0  0  0  0
   13.0796    1.5257    0.1157 H   0  0  0  0  0  0  0  0  0  0  0  0
   10.4818    4.3818   -0.5010 H   0  0  0  0  0  0  0  0  0  0  0  0
   11.5955    4.7891    0.6118 H   0  0  0  0  0  0  0  0  0  0  0  0
    7.0734    1.1175    1.1483 H   0  0  0  0  0  0  0  0  0  0  0  0
    9.7405   -2.4168   -3.0934 H   0  0  0  0  0  0  0  0  0  0  0  0
    9.9334   -2.5552   -1.3307 H   0  0  0  0  0  0  0  0  0  0  0  0
   10.2637   -0.2289   -2.9581 H   0  0  0  0  0  0  0  0  0  0  0  0
    7.5204   -3.1688    0.2610 H   0  0  0  0  0  0  0  0  0  0  0  0
    5.3927   -4.5336   -0.6212 H   0  0  0  0  0  0  0  0  0  0  0  0
    4.9140   -4.5307   -2.1856 H   0  0  0  0  0  0  0  0  0  0  0  0
    3.8361   -0.9913   -2.0235 H   0  0  0  0  0  0  0  0  0  0  0  0
  1  2  1  0
  1 60  1  0
  1 61  1  0
  2  3  1  0
  2 62  1  0
  2 63  1  0
  3  4  1  6
  3  5  1  0
  3  6  1  0
  5 64  1  0
  6  7  2  0
  6  8  1  0
  8  9  1  0
  8 65  1  0
  9 10  1  6
  9 11  1  0
  9 41  1  0
 11 12  1  0
 11 66  1  0
 11 67  1  0
 12 13  1  6
 12 14  1  0
 12 15  1  0
 14 68  1  0
 14 69  1  0
 15 16  1  0
 15 38  1  0
 15 70  1  1
 16 17  1  0
 17 18  1  1
 17 19  1  0
 17 35  1  0
 19 20  1  0
 20 21  1  6
 20 22  1  0
 20 29  1  0
 22 23  1  0
 22 71  1  0
 22 72  1  0
 23 24  1  0
 23 73  1  0
 24 25  1  0
 24 74  1  0
 24 75  1  0
 25 26  1  0
 25 27  1  0
 25 76  1  6
 26 77  1  0
 27 28  1  0
 27 78  1  0
 27 79  1  0
 28 80  1  0
 29 30  1  1
 29 31  1  0
 29 32  1  0
 31 81  1  0
 32 33  1  6
 32 34  1  0
 32 35  1  0
 34 82  1  0
 35 36  1  1
 35 37  1  0
 37 83  1  0
 37 84  1  0
 38 39  1  6
 38 40  1  0
 38 41  1  0
 40 85  1  0
 41 42  1  1
 41 43  1  0
 43 44  1  0
 44 45  1  6
 44 46  1  0
 44 57  1  0
 46 47  1  0
 47 48  1  1
 47 49  1  0
 47 51  1  0
 49 50  1  0
 49 86  1  0
 49 87  1  0
 50 88  1  0
 51 52  1  6
 51 53  1  0
 51 54  1  0
 53 89  1  0
 54 55  1  1
 54 56  1  0
 54 57  1  0
 56 90  1  0
 56 91  1  0
 57 58  1  6
 57 59  1  0
 59 92  1  0
M  END

