
     RDKit          3D

 31 31  0  0  0  0  0  0  0  0999 V2000
    2.7936   -2.9924   -0.5811 C   0  0  0  0  0  0  0  0  0  0  0  0
    2.6793   -2.4966    0.7373 O   0  0  0  0  0  0  0  0  0  0  0  0
    2.8668   -1.0932    0.9449 C   0  0  1  0  0  0  0  0  0  0  0  0
    2.1223   -0.2222   -0.0701 C   0  0  0  0  0  0  0  0  0  0  0  0
    2.3499   -0.8317    2.3668 C   0  0  0  0  0  0  0  0  0  0  0  0
    4.3834   -0.7368    0.9233 C   0  0  0  0  0  0  0  0  0  0  0  0
    4.7641    0.4002    0.7014 O   0  0  0  0  0  0  0  0  0  0  0  0
    5.1879   -1.8017    1.2327 N   0  0  0  0  0  0  0  0  0  0  0  0
    6.5808   -1.8537    1.3704 C   0  0  0  0  0  0  0  0  0  0  0  0
    7.3902   -0.7165    1.2265 C   0  0  0  0  0  0  0  0  0  0  0  0
    8.7881   -0.7891    1.3690 C   0  0  0  0  0  0  0  0  0  0  0  0
    9.5554    0.3579    1.2697 N   0  0  0  0  0  0  0  0  0  0  0  0
    9.3821   -2.0339    1.6581 C   0  0  0  0  0  0  0  0  0  0  0  0
    8.5872   -3.1680    1.8014 C   0  0  0  0  0  0  0  0  0  0  0  0
    7.2027   -3.0900    1.6614 C   0  0  0  0  0  0  0  0  0  0  0  0
    6.1596   -4.6867    1.8648 Br  0  0  0  0  0  0  0  0  0  0  0  0
    2.7864   -4.0895   -0.5069 H   0  0  0  0  0  0  0  0  0  0  0  0
    3.7368   -2.6851   -1.0711 H   0  0  0  0  0  0  0  0  0  0  0  0
    1.9490   -2.6810   -1.2204 H   0  0  0  0  0  0  0  0  0  0  0  0
    1.0475   -0.4593   -0.0518 H   0  0  0  0  0  0  0  0  0  0  0  0
    2.5008   -0.3582   -1.0935 H   0  0  0  0  0  0  0  0  0  0  0  0
    2.2626    0.8354    0.1870 H   0  0  0  0  0  0  0  0  0  0  0  0
    1.2692   -1.0351    2.4092 H   0  0  0  0  0  0  0  0  0  0  0  0
    2.5340    0.2124    2.6578 H   0  0  0  0  0  0  0  0  0  0  0  0
    2.8537   -1.4945    3.0858 H   0  0  0  0  0  0  0  0  0  0  0  0
    4.6859   -2.6759    1.3815 H   0  0  0  0  0  0  0  0  0  0  0  0
    6.9047    0.2312    1.0011 H   0  0  0  0  0  0  0  0  0  0  0  0
    9.1352    1.1534    0.8046 H   0  0  0  0  0  0  0  0  0  0  0  0
   10.5413    0.2397    1.0713 H   0  0  0  0  0  0  0  0  0  0  0  0
   10.4659   -2.1120    1.7757 H   0  0  0  0  0  0  0  0  0  0  0  0
    9.0487   -4.1316    2.0247 H   0  0  0  0  0  0  0  0  0  0  0  0
  1  2  1  0
  1 17  1  0
  1 18  1  0
  1 19  1  0
  3  2  1  6
  3  4  1  0
  3  5  1  0
  3  6  1  0
  4 20  1  0
  4 21  1  0
  4 22  1  0
  5 23  1  0
  5 24  1  0
  5 25  1  0
  6  7  2  0
  6  8  1  0
  8  9  1  0
  8 26  1  0
  9 10  2  0
  9 15  1  0
 10 11  1  0
 10 27  1  0
 11 12  1  0
 11 13  2  0
 12 28  1  0
 12 29  1  0
 13 14  1  0
 13 30  1  0
 14 15  2  0
 14 31  1  0
 15 16  1  0
M  END

