
     RDKit          3D

 38 39  0  0  0  0  0  0  0  0999 V2000
    2.4030    0.8659   -2.0897 C   0  0  0  0  0  0  0  0  0  0  0  0
    2.1012    0.5149   -0.6283 C   0  0  1  0  0  0  0  0  0  0  0  0
    2.4172   -0.9528   -0.3180 C   0  0  0  0  0  0  0  0  0  0  0  0
    2.8221    1.4678    0.3438 C   0  0  0  0  0  0  0  0  0  0  0  0
    4.2607    1.3738    0.2384 N   0  0  0  0  0  0  0  0  0  0  0  0
    4.9943    2.0950    1.0053 C   0  0  0  0  0  0  0  0  0  0  0  0
    4.4954    3.0007    1.9442 N   0  0  0  0  0  0  0  0  0  0  0  0
    5.2404    3.6247    2.9388 N   0  0  0  0  0  0  0  0  0  0  0  0
    6.3769    2.0706    0.9603 N   0  0  0  0  0  0  0  0  0  0  0  0
    7.2369    1.3492    0.1549 C   0  0  0  0  0  0  0  0  0  0  0  0
    6.8773    0.4324   -0.8248 C   0  0  0  0  0  0  0  0  0  0  0  0
    7.8688   -0.2378   -1.5767 C   0  0  0  0  0  0  0  0  0  0  0  0
    9.2127   -0.0091   -1.3679 C   0  0  0  0  0  0  0  0  0  0  0  0
   10.4025   -0.8687   -2.3296 Cl  0  0  0  0  0  0  0  0  0  0  0  0
    9.6391    0.9210   -0.3757 C   0  0  0  0  0  0  0  0  0  0  0  0
   10.9928    1.2293   -0.0811 C   0  0  0  0  0  0  0  0  0  0  0  0
   11.2875    2.1487    0.9036 C   0  0  0  0  0  0  0  0  0  0  0  0
   10.2223    2.7666    1.6013 C   0  0  0  0  0  0  0  0  0  0  0  0
    8.9554    2.5047    1.3548 N   0  0  0  0  0  0  0  0  0  0  0  0
    8.6388    1.6037    0.3902 C   0  0  0  0  0  0  0  0  0  0  0  0
    1.8535    0.2049   -2.7797 H   0  0  0  0  0  0  0  0  0  0  0  0
    3.4787    0.7647   -2.3019 H   0  0  0  0  0  0  0  0  0  0  0  0
    2.1157    1.9054   -2.3200 H   0  0  0  0  0  0  0  0  0  0  0  0
    1.0191    0.6717   -0.4592 H   0  0  0  0  0  0  0  0  0  0  0  0
    3.4946   -1.1518   -0.4288 H   0  0  0  0  0  0  0  0  0  0  0  0
    1.8717   -1.6301   -0.9952 H   0  0  0  0  0  0  0  0  0  0  0  0
    2.1357   -1.2139    0.7160 H   0  0  0  0  0  0  0  0  0  0  0  0
    2.4726    1.2293    1.3746 H   0  0  0  0  0  0  0  0  0  0  0  0
    2.4726    2.5031    0.1379 H   0  0  0  0  0  0  0  0  0  0  0  0
    3.5097    2.9180    2.1569 H   0  0  0  0  0  0  0  0  0  0  0  0
    5.8123    4.3815    2.5654 H   0  0  0  0  0  0  0  0  0  0  0  0
    5.8256    2.9752    3.4676 H   0  0  0  0  0  0  0  0  0  0  0  0
    6.8878    2.6849    1.5912 H   0  0  0  0  0  0  0  0  0  0  0  0
    5.8206    0.2448   -0.9987 H   0  0  0  0  0  0  0  0  0  0  0  0
    7.5632   -0.9539   -2.3418 H   0  0  0  0  0  0  0  0  0  0  0  0
   11.7828    0.7292   -0.6440 H   0  0  0  0  0  0  0  0  0  0  0  0
   12.3210    2.4026    1.1484 H   0  0  0  0  0  0  0  0  0  0  0  0
   10.4347    3.5006    2.3880 H   0  0  0  0  0  0  0  0  0  0  0  0
  1  2  1  0
  1 21  1  0
  1 22  1  0
  1 23  1  0
  2  3  1  0
  2  4  1  0
  2 24  1  6
  3 25  1  0
  3 26  1  0
  3 27  1  0
  4  5  1  0
  4 28  1  0
  4 29  1  0
  5  6  2  0
  6  7  1  0
  6  9  1  0
  7  8  1  0
  7 30  1  0
  8 31  1  0
  8 32  1  0
  9 10  1  0
  9 33  1  0
 10 11  2  0
 10 20  1  0
 11 12  1  0
 11 34  1  0
 12 13  2  0
 12 35  1  0
 13 14  1  0
 13 15  1  0
 15 16  1  0
 15 20  2  0
 16 17  2  0
 16 36  1  0
 17 18  1  0
 17 37  1  0
 18 19  2  0
 18 38  1  0
 19 20  1  0
M  END

