
     RDKit          3D

 42 44  0  0  0  0  0  0  0  0999 V2000
    2.9807    1.5273   -1.6614 O   0  0  0  0  0  0  0  0  0  0  0  0
    2.5270    0.3720   -0.9912 C   0  0  1  0  0  0  0  0  0  0  0  0
    3.1949   -0.8529   -1.6565 C   0  0  0  0  0  0  0  0  0  0  0  0
    4.6333   -0.6292   -1.7717 N   0  0  0  0  0  0  0  0  0  0  0  0
    5.3192   -1.4967   -2.7296 C   0  0  0  0  0  0  0  0  0  0  0  0
    6.7987   -1.2440   -2.7518 C   0  0  0  0  0  0  0  0  0  0  0  0
    7.8525   -2.1928   -2.7770 C   0  0  0  0  0  0  0  0  0  0  0  0
    9.0474   -1.6074   -2.7951 N   0  0  0  0  0  0  0  0  0  0  0  0
    8.7927   -0.2899   -2.7742 N   0  0  0  0  0  0  0  0  0  0  0  0
    9.8927    0.6625   -2.8538 C   0  0  0  0  0  0  0  0  0  0  0  0
   10.2829    1.0418   -4.2709 C   0  0  0  0  0  0  0  0  0  0  0  0
   10.3031    2.3838   -4.6731 C   0  0  0  0  0  0  0  0  0  0  0  0
   10.6818    2.7433   -5.9703 C   0  0  0  0  0  0  0  0  0  0  0  0
   11.0363    1.7389   -6.8658 C   0  0  0  0  0  0  0  0  0  0  0  0
   11.3986    2.0712   -8.1130 F   0  0  0  0  0  0  0  0  0  0  0  0
   11.0231    0.3935   -6.4977 C   0  0  0  0  0  0  0  0  0  0  0  0
   10.6482    0.0516   -5.1985 C   0  0  0  0  0  0  0  0  0  0  0  0
    7.4593   -0.0215   -2.7546 C   0  0  0  0  0  0  0  0  0  0  0  0
    2.8053    0.4514    0.5312 C   0  0  0  0  0  0  0  0  0  0  0  0
    1.9606   -0.6017    1.2467 C   0  0  0  0  0  0  0  0  0  0  0  0
    0.3924   -0.7710    0.2661 S   0  0  0  0  0  0  0  0  0  0  0  0
    0.9936    0.3081   -1.0955 C   0  0  0  0  0  0  0  0  0  0  0  0
    3.8899    1.3005   -1.9336 H   0  0  0  0  0  0  0  0  0  0  0  0
    2.7922   -0.9356   -2.6794 H   0  0  0  0  0  0  0  0  0  0  0  0
    2.9251   -1.7905   -1.1312 H   0  0  0  0  0  0  0  0  0  0  0  0
    5.0857   -0.7207   -0.8621 H   0  0  0  0  0  0  0  0  0  0  0  0
    4.8804   -1.3033   -3.7256 H   0  0  0  0  0  0  0  0  0  0  0  0
    5.1456   -2.5755   -2.5290 H   0  0  0  0  0  0  0  0  0  0  0  0
    7.7777   -3.2809   -2.7749 H   0  0  0  0  0  0  0  0  0  0  0  0
   10.7386    0.1906   -2.3317 H   0  0  0  0  0  0  0  0  0  0  0  0
    9.6088    1.5607   -2.2863 H   0  0  0  0  0  0  0  0  0  0  0  0
   10.0205    3.1683   -3.9651 H   0  0  0  0  0  0  0  0  0  0  0  0
   10.7015    3.7854   -6.2951 H   0  0  0  0  0  0  0  0  0  0  0  0
   11.3080   -0.3644   -7.2301 H   0  0  0  0  0  0  0  0  0  0  0  0
   10.6283   -0.9980   -4.8950 H   0  0  0  0  0  0  0  0  0  0  0  0
    7.0792    0.9975   -2.7366 H   0  0  0  0  0  0  0  0  0  0  0  0
    2.5168    1.4653    0.8495 H   0  0  0  0  0  0  0  0  0  0  0  0
    3.8788    0.3395    0.7604 H   0  0  0  0  0  0  0  0  0  0  0  0
    1.7137   -0.3122    2.2783 H   0  0  0  0  0  0  0  0  0  0  0  0
    2.4616   -1.5817    1.2829 H   0  0  0  0  0  0  0  0  0  0  0  0
    0.5945    1.3284   -0.9924 H   0  0  0  0  0  0  0  0  0  0  0  0
    0.6576   -0.0977   -2.0608 H   0  0  0  0  0  0  0  0  0  0  0  0
  2  1  1  6
  1 23  1  0
  2  3  1  0
  2 19  1  0
  2 22  1  0
  3  4  1  0
  3 24  1  0
  3 25  1  0
  4  5  1  0
  4 26  1  0
  5  6  1  0
  5 27  1  0
  5 28  1  0
  6  7  1  0
  6 18  2  0
  7  8  2  0
  7 29  1  0
  8  9  1  0
  9 10  1  0
  9 18  1  0
 10 11  1  0
 10 30  1  0
 10 31  1  0
 11 12  2  0
 11 17  1  0
 12 13  1  0
 12 32  1  0
 13 14  2  0
 13 33  1  0
 14 15  1  0
 14 16  1  0
 16 17  2  0
 16 34  1  0
 17 35  1  0
 18 36  1  0
 19 20  1  0
 19 37  1  0
 19 38  1  0
 20 21  1  0
 20 39  1  0
 20 40  1  0
 21 22  1  0
 22 41  1  0
 22 42  1  0
M  END

