
     RDKit          3D

 69 76  0  0  0  0  0  0  0  0999 V2000
    1.6422    0.0903   -0.0753 O   0  0  0  0  0  0  0  0  0  0  0  0
    2.5157    0.0772   -1.3066 P   0  0  1  0  0  0  0  0  0  0  0  0
    2.0320   -1.2911   -2.4306 C   0  0  0  0  0  0  0  0  0  0  0  0
    2.2717   -1.3045   -3.8140 C   0  0  0  0  0  0  0  0  0  0  0  0
    1.8399   -2.3832   -4.5910 C   0  0  0  0  0  0  0  0  0  0  0  0
    1.1607   -3.4502   -3.9937 C   0  0  0  0  0  0  0  0  0  0  0  0
    0.9064   -3.4342   -2.6188 C   0  0  0  0  0  0  0  0  0  0  0  0
    1.3358   -2.3573   -1.8388 C   0  0  0  0  0  0  0  0  0  0  0  0
    2.3497    1.6263   -2.2763 C   0  0  0  0  0  0  0  0  0  0  0  0
    1.1622    2.3536   -2.0951 C   0  0  0  0  0  0  0  0  0  0  0  0
    0.9487    3.5359   -2.8080 C   0  0  0  0  0  0  0  0  0  0  0  0
    1.9196    4.0022   -3.7004 C   0  0  0  0  0  0  0  0  0  0  0  0
    3.1092    3.2880   -3.8752 C   0  0  0  0  0  0  0  0  0  0  0  0
    3.3268    2.1044   -3.1635 C   0  0  0  0  0  0  0  0  0  0  0  0
    4.3180   -0.1090   -0.9771 C   0  0  0  0  0  0  0  0  0  0  0  0
    5.0808   -0.9901   -1.7253 C   0  0  0  0  0  0  0  0  0  0  0  0
    6.4752   -1.1053   -1.5337 C   0  0  0  0  0  0  0  0  0  0  0  0
    7.1381   -0.3443   -0.5872 C   0  0  0  0  0  0  0  0  0  0  0  0
    8.6356   -0.4208   -0.5206 C   0  0  0  0  0  0  0  0  0  0  0  0
    9.3048    0.7056   -1.0073 C   0  0  0  0  0  0  0  0  0  0  0  0
   10.6912    0.7086   -1.1836 C   0  0  0  0  0  0  0  0  0  0  0  0
   11.4062   -0.4511   -0.9422 C   0  0  0  0  0  0  0  0  0  0  0  0
   10.7771   -1.6211   -0.4622 C   0  0  0  0  0  0  0  0  0  0  0  0
   11.5349   -2.8765   -0.3412 C   0  0  0  0  0  0  0  0  0  0  0  0
   12.8888   -2.9682   -0.7456 C   0  0  0  0  0  0  0  0  0  0  0  0
   13.5821   -4.1680   -0.7193 C   0  0  0  0  0  0  0  0  0  0  0  0
   12.9331   -5.3357   -0.2904 C   0  0  0  0  0  0  0  0  0  0  0  0
   11.6127   -5.2702    0.1247 C   0  0  0  0  0  0  0  0  0  0  0  0
   10.8911   -4.0528    0.1286 C   0  0  0  0  0  0  0  0  0  0  0  0
    9.5233   -3.9661    0.6503 C   0  0  0  0  0  0  0  0  0  0  0  0
    8.9285   -5.0632    1.3168 C   0  0  0  0  0  0  0  0  0  0  0  0
    7.6795   -4.9723    1.9097 C   0  0  0  0  0  0  0  0  0  0  0  0
    6.9919   -3.7514    1.8779 C   0  0  0  0  0  0  0  0  0  0  0  0
    7.5461   -2.6666    1.2157 C   0  0  0  0  0  0  0  0  0  0  0  0
    8.7949   -2.7445    0.5519 C   0  0  0  0  0  0  0  0  0  0  0  0
    9.3818   -1.5884   -0.1518 C   0  0  0  0  0  0  0  0  0  0  0  0
    6.3818    0.5647    0.2315 C   0  0  0  0  0  0  0  0  0  0  0  0
    7.0013    1.3356    1.2574 C   0  0  0  0  0  0  0  0  0  0  0  0
    6.2666    2.1867    2.0558 C   0  0  0  0  0  0  0  0  0  0  0  0
    4.8691    2.2984    1.8731 C   0  0  0  0  0  0  0  0  0  0  0  0
    4.2296    1.5587    0.9001 C   0  0  0  0  0  0  0  0  0  0  0  0
    4.9568    0.6779    0.0461 C   0  0  0  0  0  0  0  0  0  0  0  0
    2.7850   -0.4676   -4.2935 H   0  0  0  0  0  0  0  0  0  0  0  0
    2.0278   -2.3866   -5.6678 H   0  0  0  0  0  0  0  0  0  0  0  0
    0.8212   -4.2914   -4.6037 H   0  0  0  0  0  0  0  0  0  0  0  0
    0.3647   -4.2609   -2.1520 H   0  0  0  0  0  0  0  0  0  0  0  0
    1.1232   -2.3182   -0.7679 H   0  0  0  0  0  0  0  0  0  0  0  0
    0.4217    1.9860   -1.3805 H   0  0  0  0  0  0  0  0  0  0  0  0
    0.0232    4.0992   -2.6621 H   0  0  0  0  0  0  0  0  0  0  0  0
    1.7526    4.9291   -4.2554 H   0  0  0  0  0  0  0  0  0  0  0  0
    3.8746    3.6578   -4.5625 H   0  0  0  0  0  0  0  0  0  0  0  0
    4.2678    1.5625   -3.2895 H   0  0  0  0  0  0  0  0  0  0  0  0
    4.6108   -1.6100   -2.4907 H   0  0  0  0  0  0  0  0  0  0  0  0
    7.0424   -1.8023   -2.1547 H   0  0  0  0  0  0  0  0  0  0  0  0
    8.7200    1.5868   -1.2808 H   0  0  0  0  0  0  0  0  0  0  0  0
   11.1985    1.6039   -1.5509 H   0  0  0  0  0  0  0  0  0  0  0  0
   12.4770   -0.4504   -1.1389 H   0  0  0  0  0  0  0  0  0  0  0  0
   13.4117   -2.0835   -1.1062 H   0  0  0  0  0  0  0  0  0  0  0  0
   14.6250   -4.2017   -1.0438 H   0  0  0  0  0  0  0  0  0  0  0  0
   13.4618   -6.2920   -0.2825 H   0  0  0  0  0  0  0  0  0  0  0  0
   11.1266   -6.1889    0.4514 H   0  0  0  0  0  0  0  0  0  0  0  0
    9.4720   -6.0038    1.3989 H   0  0  0  0  0  0  0  0  0  0  0  0
    7.2529   -5.8377    2.4230 H   0  0  0  0  0  0  0  0  0  0  0  0
    6.0282   -3.6429    2.3811 H   0  0  0  0  0  0  0  0  0  0  0  0
    7.0061   -1.7257    1.2402 H   0  0  0  0  0  0  0  0  0  0  0  0
    8.0766    1.2372    1.4125 H   0  0  0  0  0  0  0  0  0  0  0  0
    6.7632    2.7652    2.8389 H   0  0  0  0  0  0  0  0  0  0  0  0
    4.2871    2.9615    2.5181 H   0  0  0  0  0  0  0  0  0  0  0  0
    3.1447    1.6069    0.8024 H   0  0  0  0  0  0  0  0  0  0  0  0
  1  2  2  0
  2  3  1  6
  2  9  1  0
  2 15  1  0
  3  4  2  0
  3  8  1  0
  4  5  1  0
  4 43  1  0
  5  6  2  0
  5 44  1  0
  6  7  1  0
  6 45  1  0
  7  8  2  0
  7 46  1  0
  8 47  1  0
  9 10  2  0
  9 14  1  0
 10 11  1  0
 10 48  1  0
 11 12  2  0
 11 49  1  0
 12 13  1  0
 12 50  1  0
 13 14  2  0
 13 51  1  0
 14 52  1  0
 15 16  2  0
 15 42  1  0
 16 17  1  0
 16 53  1  0
 17 18  2  0
 17 54  1  0
 18 19  1  0
 18 37  1  0
 19 20  2  0
 19 36  1  0
 20 21  1  0
 20 55  1  0
 21 22  2  0
 21 56  1  0
 22 23  1  0
 22 57  1  0
 23 24  1  0
 23 36  2  0
 24 25  2  0
 24 29  1  0
 25 26  1  0
 25 58  1  0
 26 27  2  0
 26 59  1  0
 27 28  1  0
 27 60  1  0
 28 29  2  0
 28 61  1  0
 29 30  1  0
 30 31  1  0
 30 35  2  0
 31 32  2  0
 31 62  1  0
 32 33  1  0
 32 63  1  0
 33 34  2  0
 33 64  1  0
 34 35  1  0
 34 65  1  0
 35 36  1  0
 37 38  1  0
 37 42  2  0
 38 39  2  0
 38 66  1  0
 39 40  1  0
 39 67  1  0
 40 41  2  0
 40 68  1  0
 41 42  1  0
 41 69  1  0
M  END

