
     RDKit          3D

 45 47  0  0  0  0  0  0  0  0999 V2000
    1.0937   -0.4182   -0.2551 O   0  0  0  0  0  0  0  0  0  0  0  0
    2.2655   -0.1443   -0.0492 C   0  0  0  0  0  0  0  0  0  0  0  0
    2.8822    0.9568   -0.5732 N   0  0  0  0  0  0  0  0  0  0  0  0
    2.1905    1.8801   -1.4669 C   0  0  0  0  0  0  0  0  0  0  0  0
    2.4537    1.6213   -2.9391 C   0  0  0  0  0  0  0  0  0  0  0  0
    1.9098    0.4869   -3.5666 C   0  0  0  0  0  0  0  0  0  0  0  0
    2.1644    0.2346   -4.9158 C   0  0  0  0  0  0  0  0  0  0  0  0
    2.9623    1.1123   -5.6595 C   0  0  0  0  0  0  0  0  0  0  0  0
    3.5034    2.2444   -5.0459 C   0  0  0  0  0  0  0  0  0  0  0  0
    3.2496    2.4948   -3.6927 C   0  0  0  0  0  0  0  0  0  0  0  0
    3.1278   -1.0246    0.8273 C   0  0  0  0  0  0  0  0  0  0  0  0
    4.2534   -0.5675    1.5264 C   0  0  0  0  0  0  0  0  0  0  0  0
    4.9612   -1.4674    2.3305 C   0  0  0  0  0  0  0  0  0  0  0  0
    4.6182   -2.7475    2.4624 N   0  0  0  0  0  0  0  0  0  0  0  0
    3.5379   -3.1866    1.8022 C   0  0  0  0  0  0  0  0  0  0  0  0
    3.1558   -4.6452    1.9575 C   0  0  0  0  0  0  0  0  0  0  0  0
    2.2063   -5.1262    1.3526 O   0  0  0  0  0  0  0  0  0  0  0  0
    3.9469   -5.3303    2.8182 N   0  0  0  0  0  0  0  0  0  0  0  0
    3.7711   -6.7510    3.0666 C   0  0  0  0  0  0  0  0  0  0  0  0
    4.5607   -7.6421    2.1255 C   0  0  0  0  0  0  0  0  0  0  0  0
    4.0529   -8.0310    0.8761 C   0  0  0  0  0  0  0  0  0  0  0  0
    4.8000   -8.8374    0.0132 C   0  0  0  0  0  0  0  0  0  0  0  0
    6.0765   -9.2693    0.3887 C   0  0  0  0  0  0  0  0  0  0  0  0
    6.6076   -8.8920    1.6248 C   0  0  0  0  0  0  0  0  0  0  0  0
    5.8440   -8.0845    2.4633 C   0  0  0  0  0  0  0  0  0  0  0  0
    6.3626   -7.7163    3.6531 F   0  0  0  0  0  0  0  0  0  0  0  0
    2.7574   -2.3646    0.9845 C   0  0  0  0  0  0  0  0  0  0  0  0
    3.8937    1.0043   -0.5403 H   0  0  0  0  0  0  0  0  0  0  0  0
    2.4882    2.9088   -1.2078 H   0  0  0  0  0  0  0  0  0  0  0  0
    1.1194    1.7710   -1.2471 H   0  0  0  0  0  0  0  0  0  0  0  0
    1.2807   -0.1935   -2.9864 H   0  0  0  0  0  0  0  0  0  0  0  0
    1.7330   -0.6493   -5.3929 H   0  0  0  0  0  0  0  0  0  0  0  0
    3.1579    0.9144   -6.7165 H   0  0  0  0  0  0  0  0  0  0  0  0
    4.1240    2.9369   -5.6205 H   0  0  0  0  0  0  0  0  0  0  0  0
    3.6724    3.3860   -3.2185 H   0  0  0  0  0  0  0  0  0  0  0  0
    4.5709    0.4766    1.4809 H   0  0  0  0  0  0  0  0  0  0  0  0
    5.8396   -1.1311    2.8929 H   0  0  0  0  0  0  0  0  0  0  0  0
    4.7395   -4.8234    3.2030 H   0  0  0  0  0  0  0  0  0  0  0  0
    2.6999   -6.9682    2.9526 H   0  0  0  0  0  0  0  0  0  0  0  0
    4.0582   -6.9582    4.1070 H   0  0  0  0  0  0  0  0  0  0  0  0
    3.0599   -7.6777    0.5873 H   0  0  0  0  0  0  0  0  0  0  0  0
    4.3849   -9.1299   -0.9541 H   0  0  0  0  0  0  0  0  0  0  0  0
    6.6640   -9.9025   -0.2808 H   0  0  0  0  0  0  0  0  0  0  0  0
    7.6001   -9.2099    1.9504 H   0  0  0  0  0  0  0  0  0  0  0  0
    1.8780   -2.7690    0.4829 H   0  0  0  0  0  0  0  0  0  0  0  0
  1  2  2  0
  2  3  1  0
  2 11  1  0
  3  4  1  0
  3 28  1  0
  4  5  1  0
  4 29  1  0
  4 30  1  0
  5  6  2  0
  5 10  1  0
  6  7  1  0
  6 31  1  0
  7  8  2  0
  7 32  1  0
  8  9  1  0
  8 33  1  0
  9 10  2  0
  9 34  1  0
 10 35  1  0
 11 12  2  0
 11 27  1  0
 12 13  1  0
 12 36  1  0
 13 14  2  0
 13 37  1  0
 14 15  1  0
 15 16  1  0
 15 27  2  0
 16 17  2  0
 16 18  1  0
 18 19  1  0
 18 38  1  0
 19 20  1  0
 19 39  1  0
 19 40  1  0
 20 21  2  0
 20 25  1  0
 21 22  1  0
 21 41  1  0
 22 23  2  0
 22 42  1  0
 23 24  1  0
 23 43  1  0
 24 25  2  0
 24 44  1  0
 25 26  1  0
 27 45  1  0
M  END

