
     RDKit          3D

 48 50  0  0  0  0  0  0  0  0999 V2000
    3.2500   -7.4205   -6.1490 C   0  0  0  0  0  0  0  0  0  0  0  0
    2.6803   -6.7034   -5.0767 O   0  0  0  0  0  0  0  0  0  0  0  0
    1.4385   -6.1669   -5.2205 C   0  0  0  0  0  0  0  0  0  0  0  0
    0.6466   -6.2809   -6.3705 C   0  0  0  0  0  0  0  0  0  0  0  0
   -0.6327   -5.7104   -6.4048 C   0  0  0  0  0  0  0  0  0  0  0  0
   -1.1315   -5.0234   -5.2991 C   0  0  0  0  0  0  0  0  0  0  0  0
   -0.3395   -4.8971   -4.1518 C   0  0  0  0  0  0  0  0  0  0  0  0
    0.9351   -5.4588   -4.1032 C   0  0  0  0  0  0  0  0  0  0  0  0
    1.6603   -5.3636   -2.9427 O   0  0  0  0  0  0  0  0  0  0  0  0
    2.8553   -4.5802   -2.9777 C   0  0  0  0  0  0  0  0  0  0  0  0
    3.1510   -4.1091   -1.5547 C   0  0  0  0  0  0  0  0  0  0  0  0
    2.7948   -3.0069   -1.1782 O   0  0  0  0  0  0  0  0  0  0  0  0
    3.8491   -4.9392   -0.7043 N   0  0  0  0  0  0  0  0  0  0  0  0
    4.4181   -6.2226   -0.8539 C   0  0  0  0  0  0  0  0  0  0  0  0
    5.5876   -6.5151   -0.1277 C   0  0  0  0  0  0  0  0  0  0  0  0
    6.1895   -7.7666   -0.1945 C   0  0  0  0  0  0  0  0  0  0  0  0
    5.6424   -8.7785   -1.0043 C   0  0  0  0  0  0  0  0  0  0  0  0
    6.2665  -10.0594   -1.1234 N   0  0  0  0  0  0  0  0  0  0  0  0
    6.1446  -10.7356   -2.4263 C   0  0  0  0  0  0  0  0  0  0  0  0
    7.1932  -11.8187   -2.6431 C   0  0  0  0  0  0  0  0  0  0  0  0
    7.1751  -12.7973   -1.4741 C   0  0  0  0  0  0  0  0  0  0  0  0
    7.4882  -12.0358   -0.1888 C   0  0  0  0  0  0  0  0  0  0  0  0
    6.7789  -10.6951    0.0050 C   0  0  0  0  0  0  0  0  0  0  0  0
    6.7356  -10.1960    1.1144 O   0  0  0  0  0  0  0  0  0  0  0  0
    4.4760   -8.4846   -1.7268 C   0  0  0  0  0  0  0  0  0  0  0  0
    3.8608   -7.2324   -1.6501 C   0  0  0  0  0  0  0  0  0  0  0  0
    4.2399   -7.7538   -5.8097 H   0  0  0  0  0  0  0  0  0  0  0  0
    3.3725   -6.7888   -7.0471 H   0  0  0  0  0  0  0  0  0  0  0  0
    2.6453   -8.3054   -6.4172 H   0  0  0  0  0  0  0  0  0  0  0  0
    1.0162   -6.8206   -7.2427 H   0  0  0  0  0  0  0  0  0  0  0  0
   -1.2377   -5.8126   -7.3091 H   0  0  0  0  0  0  0  0  0  0  0  0
   -2.1296   -4.5805   -5.3250 H   0  0  0  0  0  0  0  0  0  0  0  0
   -0.6925   -4.3635   -3.2669 H   0  0  0  0  0  0  0  0  0  0  0  0
    2.6908   -3.6665   -3.5683 H   0  0  0  0  0  0  0  0  0  0  0  0
    3.6877   -5.1571   -3.4118 H   0  0  0  0  0  0  0  0  0  0  0  0
    4.0466   -4.4710    0.1769 H   0  0  0  0  0  0  0  0  0  0  0  0
    6.0387   -5.7391    0.4970 H   0  0  0  0  0  0  0  0  0  0  0  0
    7.0862   -7.9623    0.3890 H   0  0  0  0  0  0  0  0  0  0  0  0
    6.2223   -9.9649   -3.2081 H   0  0  0  0  0  0  0  0  0  0  0  0
    5.1395  -11.1885   -2.5259 H   0  0  0  0  0  0  0  0  0  0  0  0
    8.1935  -11.3598   -2.7355 H   0  0  0  0  0  0  0  0  0  0  0  0
    6.9813  -12.3242   -3.5993 H   0  0  0  0  0  0  0  0  0  0  0  0
    7.8988  -13.6150   -1.6217 H   0  0  0  0  0  0  0  0  0  0  0  0
    6.1781  -13.2682   -1.4058 H   0  0  0  0  0  0  0  0  0  0  0  0
    8.5669  -11.7984   -0.1456 H   0  0  0  0  0  0  0  0  0  0  0  0
    7.2755  -12.6224    0.7167 H   0  0  0  0  0  0  0  0  0  0  0  0
    4.0025   -9.2480   -2.3452 H   0  0  0  0  0  0  0  0  0  0  0  0
    2.9320   -7.0580   -2.1916 H   0  0  0  0  0  0  0  0  0  0  0  0
  1  2  1  0
  1 27  1  0
  1 28  1  0
  1 29  1  0
  2  3  1  0
  3  4  2  0
  3  8  1  0
  4  5  1  0
  4 30  1  0
  5  6  2  0
  5 31  1  0
  6  7  1  0
  6 32  1  0
  7  8  2  0
  7 33  1  0
  8  9  1  0
  9 10  1  0
 10 11  1  0
 10 34  1  0
 10 35  1  0
 11 12  2  0
 11 13  1  0
 13 14  1  0
 13 36  1  0
 14 15  2  0
 14 26  1  0
 15 16  1  0
 15 37  1  0
 16 17  2  0
 16 38  1  0
 17 18  1  0
 17 25  1  0
 18 19  1  0
 18 23  1  0
 19 20  1  0
 19 39  1  0
 19 40  1  0
 20 21  1  0
 20 41  1  0
 20 42  1  0
 21 22  1  0
 21 43  1  0
 21 44  1  0
 22 23  1  0
 22 45  1  0
 22 46  1  0
 23 24  2  0
 25 26  2  0
 25 47  1  0
 26 48  1  0
M  END

