
     RDKit          3D

 50 52  0  0  0  0  0  0  0  0999 V2000
    3.1755   -2.8019    1.7502 C   0  0  0  0  0  0  0  0  0  0  0  0
    2.7094   -2.8811    0.2964 C   0  0  0  0  0  0  0  0  0  0  0  0
    2.9984   -1.6253   -0.5353 C   0  0  0  0  0  0  0  0  0  0  0  0
    4.4344   -1.3252   -0.6706 N   0  0  0  0  0  0  0  0  0  0  0  0
    4.9725   -0.1262   -0.0228 C   0  0  0  0  0  0  0  0  0  0  0  0
    5.0397    1.1201   -0.9412 C   0  0  1  0  0  0  0  0  0  0  0  0
    5.6313    0.8220   -1.8227 H   0  0  0  0  0  0  0  0  0  0  0  0
    3.6895    1.6706   -1.4300 C   0  0  0  0  0  0  0  0  0  0  0  0
    2.9483    2.4525   -0.3372 C   0  0  0  0  0  0  0  0  0  0  0  0
    3.8804    3.5095    0.2659 C   0  0  0  0  0  0  0  0  0  0  0  0
    5.1846    2.8603    0.7240 C   0  0  0  0  0  0  0  0  0  0  0  0
    5.8182    2.1341   -0.3198 O   0  0  0  0  0  0  0  0  0  0  0  0
    5.1178   -2.0668   -1.6025 C   0  0  0  0  0  0  0  0  0  0  0  0
    4.5581   -2.8589   -2.3489 O   0  0  0  0  0  0  0  0  0  0  0  0
    6.6234   -1.9375   -1.6928 C   0  0  0  0  0  0  0  0  0  0  0  0
    7.2058   -1.8118   -2.9624 C   0  0  0  0  0  0  0  0  0  0  0  0
    8.5912   -1.7692   -3.1092 C   0  0  0  0  0  0  0  0  0  0  0  0
    9.4337   -1.9264   -2.0015 C   0  0  0  0  0  0  0  0  0  0  0  0
   10.8343   -1.8440   -2.1716 N   0  0  0  0  0  0  0  0  0  0  0  0
   11.6326   -2.5045   -3.0593 C   0  0  0  0  0  0  0  0  0  0  0  0
   12.8852   -2.1536   -2.8826 N   0  0  0  0  0  0  0  0  0  0  0  0
   12.8123   -1.2602   -1.8553 C   0  0  0  0  0  0  0  0  0  0  0  0
   11.5963   -1.0423   -1.3904 N   0  0  0  0  0  0  0  0  0  0  0  0
    8.8440   -2.1238   -0.7418 C   0  0  0  0  0  0  0  0  0  0  0  0
    9.6472   -2.4454    0.4568 N   0  0  0  0  0  0  0  0  0  0  0  0
   10.6137   -3.1680    0.3040 O   0  0  0  0  0  0  0  0  0  0  0  0
    9.2466   -2.0054    1.5211 O   0  0  0  0  0  0  0  0  0  0  0  0
    7.4600   -2.0998   -0.5829 C   0  0  0  0  0  0  0  0  0  0  0  0
    2.9380   -3.7292    2.2946 H   0  0  0  0  0  0  0  0  0  0  0  0
    2.6904   -1.9696    2.2886 H   0  0  0  0  0  0  0  0  0  0  0  0
    4.2655   -2.6534    1.8187 H   0  0  0  0  0  0  0  0  0  0  0  0
    1.6192   -3.0534    0.2623 H   0  0  0  0  0  0  0  0  0  0  0  0
    3.1689   -3.7457   -0.2091 H   0  0  0  0  0  0  0  0  0  0  0  0
    2.5176   -0.7507   -0.0731 H   0  0  0  0  0  0  0  0  0  0  0  0
    2.5717   -1.7532   -1.5415 H   0  0  0  0  0  0  0  0  0  0  0  0
    5.9941   -0.2964    0.3389 H   0  0  0  0  0  0  0  0  0  0  0  0
    4.3608    0.0659    0.8693 H   0  0  0  0  0  0  0  0  0  0  0  0
    3.0706    0.8548   -1.8357 H   0  0  0  0  0  0  0  0  0  0  0  0
    3.8971    2.3522   -2.2724 H   0  0  0  0  0  0  0  0  0  0  0  0
    2.6018    1.7692    0.4601 H   0  0  0  0  0  0  0  0  0  0  0  0
    2.0412    2.9197   -0.7539 H   0  0  0  0  0  0  0  0  0  0  0  0
    3.4043    4.0269    1.1157 H   0  0  0  0  0  0  0  0  0  0  0  0
    4.1104    4.2765   -0.4943 H   0  0  0  0  0  0  0  0  0  0  0  0
    4.9904    2.2066    1.5991 H   0  0  0  0  0  0  0  0  0  0  0  0
    5.9167    3.6164    1.0460 H   0  0  0  0  0  0  0  0  0  0  0  0
    6.5594   -1.7291   -3.8381 H   0  0  0  0  0  0  0  0  0  0  0  0
    9.0377   -1.5926   -4.0895 H   0  0  0  0  0  0  0  0  0  0  0  0
   11.2457   -3.2274   -3.7771 H   0  0  0  0  0  0  0  0  0  0  0  0
   13.6821   -0.7511   -1.4405 H   0  0  0  0  0  0  0  0  0  0  0  0
    7.0584   -2.2485    0.4194 H   0  0  0  0  0  0  0  0  0  0  0  0
  1  2  1  0
  1 29  1  0
  1 30  1  0
  1 31  1  0
  2  3  1  0
  2 32  1  0
  2 33  1  0
  3  4  1  0
  3 34  1  0
  3 35  1  0
  4  5  1  0
  4 13  1  0
  5  6  1  0
  5 36  1  0
  5 37  1  0
  6  7  1  6
  6  8  1  0
  6 12  1  0
  8  9  1  0
  8 38  1  0
  8 39  1  0
  9 10  1  0
  9 40  1  0
  9 41  1  0
 10 11  1  0
 10 42  1  0
 10 43  1  0
 11 12  1  0
 11 44  1  0
 11 45  1  0
 13 14  2  0
 13 15  1  0
 15 16  2  0
 15 28  1  0
 16 17  1  0
 16 46  1  0
 17 18  2  0
 17 47  1  0
 18 19  1  0
 18 24  1  0
 19 20  1  0
 19 23  1  0
 20 21  2  0
 20 48  1  0
 21 22  1  0
 22 23  2  0
 22 49  1  0
 24 25  1  0
 24 28  2  0
 25 26  2  0
 25 27  1  0
 28 50  1  0
M  CHG  2  25   1  27  -1
M  END

