
     RDKit          3D

 54 56  0  0  0  0  0  0  0  0999 V2000
    3.4128    0.7212   -0.7446 C   0  0  0  0  0  0  0  0  0  0  0  0
    2.2318   -0.1070   -0.1910 C   0  0  1  0  0  0  0  0  0  0  0  0
    1.1355    0.8489    0.3300 C   0  0  0  0  0  0  0  0  0  0  0  0
    1.6550   -0.9921   -1.3082 C   0  0  0  0  0  0  0  0  0  0  0  0
    2.7278   -0.9634    0.9625 C   0  0  0  0  0  0  0  0  0  0  0  0
    3.3288   -0.4989    2.1773 C   0  0  0  0  0  0  0  0  0  0  0  0
    3.6030   -1.6399    2.8963 C   0  0  0  0  0  0  0  0  0  0  0  0
    4.1722   -1.8407    4.1378 N   0  0  0  0  0  0  0  0  0  0  0  0
    4.6408   -0.8202    4.9583 C   0  0  0  0  0  0  0  0  0  0  0  0
    4.6037    0.3615    4.6588 O   0  0  0  0  0  0  0  0  0  0  0  0
    5.1700   -1.2775    6.1451 N   0  0  0  0  0  0  0  0  0  0  0  0
    5.5738   -0.3426    7.2001 C   0  0  1  0  0  0  0  0  0  0  0  0
    5.6955   -1.0880    8.5377 C   0  0  0  0  0  0  0  0  0  0  0  0
    6.9018   -2.0396    8.5967 C   0  0  0  0  0  0  0  0  0  0  0  0
    8.2210   -1.3359    8.2340 C   0  0  2  0  0  0  0  0  0  0  0  0
    8.6881   -0.4173    9.3730 C   0  0  0  0  0  0  0  0  0  0  0  0
    8.1619   -0.3494   10.4513 O   0  0  0  0  0  0  0  0  0  0  0  0
    9.7891    0.3244    9.1128 O   0  0  0  0  0  0  0  0  0  0  0  0
    8.0866   -0.6073    6.8766 C   0  0  0  0  0  0  0  0  0  0  0  0
    6.9011    0.3621    6.8544 C   0  0  0  0  0  0  0  0  0  0  0  0
    3.1702   -2.7169    2.1119 N   0  0  0  0  0  0  0  0  0  0  0  0
    3.2225   -4.0864    2.3790 C   0  0  0  0  0  0  0  0  0  0  0  0
    3.7708   -4.4643    3.5481 N   0  0  0  0  0  0  0  0  0  0  0  0
    3.8199   -5.7739    3.8006 C   0  0  0  0  0  0  0  0  0  0  0  0
    3.3313   -6.7218    2.9062 C   0  0  0  0  0  0  0  0  0  0  0  0
    2.7833   -6.2122    1.7226 C   0  0  0  0  0  0  0  0  0  0  0  0
    2.7260   -4.9140    1.4557 N   0  0  0  0  0  0  0  0  0  0  0  0
    2.6361   -2.2759    0.9284 N   0  0  0  0  0  0  0  0  0  0  0  0
    3.0747    1.3627   -1.5750 H   0  0  0  0  0  0  0  0  0  0  0  0
    4.2117    0.0648   -1.1245 H   0  0  0  0  0  0  0  0  0  0  0  0
    3.8497    1.3728    0.0284 H   0  0  0  0  0  0  0  0  0  0  0  0
    0.7678    1.4917   -0.4868 H   0  0  0  0  0  0  0  0  0  0  0  0
    1.5143    1.5042    1.1301 H   0  0  0  0  0  0  0  0  0  0  0  0
    0.2787    0.2854    0.7321 H   0  0  0  0  0  0  0  0  0  0  0  0
    1.2977   -0.3637   -2.1400 H   0  0  0  0  0  0  0  0  0  0  0  0
    0.8145   -1.5991   -0.9416 H   0  0  0  0  0  0  0  0  0  0  0  0
    2.4126   -1.6887   -1.6957 H   0  0  0  0  0  0  0  0  0  0  0  0
    3.5427    0.5116    2.5045 H   0  0  0  0  0  0  0  0  0  0  0  0
    4.2644   -2.8289    4.3892 H   0  0  0  0  0  0  0  0  0  0  0  0
    4.9776   -2.2341    6.4179 H   0  0  0  0  0  0  0  0  0  0  0  0
    4.7930    0.4321    7.2836 H   0  0  0  0  0  0  0  0  0  0  0  0
    4.7628   -1.6405    8.7461 H   0  0  0  0  0  0  0  0  0  0  0  0
    5.7986   -0.3414    9.3393 H   0  0  0  0  0  0  0  0  0  0  0  0
    6.7625   -2.8828    7.8976 H   0  0  0  0  0  0  0  0  0  0  0  0
    6.9793   -2.4714    9.6049 H   0  0  0  0  0  0  0  0  0  0  0  0
    9.0163   -2.1000    8.1408 H   0  0  0  0  0  0  0  0  0  0  0  0
   10.0940    0.1722    8.2070 H   0  0  0  0  0  0  0  0  0  0  0  0
    7.9462   -1.3698    6.0927 H   0  0  0  0  0  0  0  0  0  0  0  0
    9.0165   -0.0777    6.6014 H   0  0  0  0  0  0  0  0  0  0  0  0
    6.8038    0.8404    5.8693 H   0  0  0  0  0  0  0  0  0  0  0  0
    7.0612    1.1726    7.5873 H   0  0  0  0  0  0  0  0  0  0  0  0
    4.2680   -6.0717    4.7553 H   0  0  0  0  0  0  0  0  0  0  0  0
    3.3729   -7.7914    3.1152 H   0  0  0  0  0  0  0  0  0  0  0  0
    2.3735   -6.8853    0.9593 H   0  0  0  0  0  0  0  0  0  0  0  0
  2  1  1  6
  1 29  1  0
  1 30  1  0
  1 31  1  0
  2  3  1  0
  2  4  1  0
  2  5  1  0
  3 32  1  0
  3 33  1  0
  3 34  1  0
  4 35  1  0
  4 36  1  0
  4 37  1  0
  5  6  1  0
  5 28  2  0
  6  7  2  0
  6 38  1  0
  7  8  1  0
  7 21  1  0
  8  9  1  0
  8 39  1  0
  9 10  2  0
  9 11  1  0
 11 12  1  0
 11 40  1  0
 12 13  1  0
 12 20  1  0
 12 41  1  1
 13 14  1  0
 13 42  1  0
 13 43  1  0
 14 15  1  0
 14 44  1  0
 14 45  1  0
 15 16  1  0
 15 19  1  0
 15 46  1  6
 16 17  2  0
 16 18  1  0
 18 47  1  0
 19 20  1  0
 19 48  1  0
 19 49  1  0
 20 50  1  0
 20 51  1  0
 21 22  1  0
 21 28  1  0
 22 23  2  0
 22 27  1  0
 23 24  1  0
 24 25  2  0
 24 52  1  0
 25 26  1  0
 25 53  1  0
 26 27  2  0
 26 54  1  0
M  END

