
     RDKit          3D

 40 41  0  0  0  0  0  0  0  0999 V2000
    0.8220   -0.3937    0.0331 C   0  0  0  0  0  0  0  0  0  0  0  0
    2.3064   -0.1319    0.0294 C   0  0  0  0  0  0  0  0  0  0  0  0
    2.8193    1.1656    0.0245 C   0  0  0  0  0  0  0  0  0  0  0  0
    4.1963    1.4480    0.0227 C   0  0  0  0  0  0  0  0  0  0  0  0
    4.5868    2.9096   -0.0144 C   0  0  0  0  0  0  0  0  0  0  0  0
    5.0821    0.3414    0.0403 C   0  0  0  0  0  0  0  0  0  0  0  0
    6.8731    0.5760    0.0050 S   0  0  1  0  0  0  0  0  0  0  0  0
    7.4322   -0.1486   -1.1351 O   0  0  0  0  0  0  0  0  0  0  0  0
    7.1651    2.0204    0.1591 O   0  0  0  0  0  0  0  0  0  0  0  0
    7.4899   -0.2065    1.3587 N   0  0  0  0  0  0  0  0  0  0  0  0
    7.7452    0.3764    2.6938 C   0  0  1  0  0  0  0  0  0  0  0  0
    9.1227    1.1218    2.7181 C   0  0  0  0  0  0  0  0  0  0  0  0
    9.9960    0.8269    3.4917 O   0  0  0  0  0  0  0  0  0  0  0  0
    9.2678    2.1209    1.8488 O   0  0  0  0  0  0  0  0  0  0  0  0
    6.6236    1.3358    3.1593 C   0  0  0  0  0  0  0  0  0  0  0  0
    6.8107    1.5338    4.6607 C   0  0  0  0  0  0  0  0  0  0  0  0
    7.2058   -0.1262    5.3486 S   0  0  0  0  0  0  0  0  0  0  0  0
    7.7635   -0.7827    3.7180 C   0  0  0  0  0  0  0  0  0  0  0  0
    4.6017   -0.9971    0.0084 C   0  0  0  0  0  0  0  0  0  0  0  0
    5.4886   -2.2193   -0.0410 C   0  0  0  0  0  0  0  0  0  0  0  0
    3.2182   -1.1944    0.0145 C   0  0  0  0  0  0  0  0  0  0  0  0
    0.2436    0.5407    0.0621 H   0  0  0  0  0  0  0  0  0  0  0  0
    0.5297   -1.0031    0.9042 H   0  0  0  0  0  0  0  0  0  0  0  0
    0.5176   -0.9542   -0.8664 H   0  0  0  0  0  0  0  0  0  0  0  0
    2.1247    2.0095    0.0142 H   0  0  0  0  0  0  0  0  0  0  0  0
    3.6823    3.5243   -0.1210 H   0  0  0  0  0  0  0  0  0  0  0  0
    5.2676    3.1373   -0.8449 H   0  0  0  0  0  0  0  0  0  0  0  0
    5.1088    3.2228    0.9009 H   0  0  0  0  0  0  0  0  0  0  0  0
    8.1701   -0.8977    1.0454 H   0  0  0  0  0  0  0  0  0  0  0  0
    8.5167    2.1981    1.2139 H   0  0  0  0  0  0  0  0  0  0  0  0
    5.6526    0.8560    2.9588 H   0  0  0  0  0  0  0  0  0  0  0  0
    6.6497    2.2937    2.6219 H   0  0  0  0  0  0  0  0  0  0  0  0
    5.8977    1.9153    5.1399 H   0  0  0  0  0  0  0  0  0  0  0  0
    7.6327    2.2336    4.8783 H   0  0  0  0  0  0  0  0  0  0  0  0
    7.0675   -1.5673    3.3903 H   0  0  0  0  0  0  0  0  0  0  0  0
    8.7761   -1.1947    3.8188 H   0  0  0  0  0  0  0  0  0  0  0  0
    6.0933   -2.3126    0.8737 H   0  0  0  0  0  0  0  0  0  0  0  0
    6.1863   -2.1733   -0.8886 H   0  0  0  0  0  0  0  0  0  0  0  0
    4.8757   -3.1257   -0.1366 H   0  0  0  0  0  0  0  0  0  0  0  0
    2.8423   -2.2212   -0.0024 H   0  0  0  0  0  0  0  0  0  0  0  0
  1  2  1  0
  1 22  1  0
  1 23  1  0
  1 24  1  0
  2  3  2  0
  2 21  1  0
  3  4  1  0
  3 25  1  0
  4  5  1  0
  4  6  2  0
  5 26  1  0
  5 27  1  0
  5 28  1  0
  6  7  1  0
  6 19  1  0
  7  8  2  0
  7  9  2  0
  7 10  1  1
 10 11  1  0
 10 29  1  0
 11 12  1  6
 11 15  1  0
 11 18  1  0
 12 13  2  0
 12 14  1  0
 14 30  1  0
 15 16  1  0
 15 31  1  0
 15 32  1  0
 16 17  1  0
 16 33  1  0
 16 34  1  0
 17 18  1  0
 18 35  1  0
 18 36  1  0
 19 20  1  0
 19 21  2  0
 20 37  1  0
 20 38  1  0
 20 39  1  0
 21 40  1  0
M  END

