
     RDKit          3D

 66 69  0  0  0  0  0  0  0  0999 V2000
    0.2452   -8.1271   -3.6523 C   0  0  0  0  0  0  0  0  0  0  0  0
   -0.7357   -7.1382   -3.8721 O   0  0  0  0  0  0  0  0  0  0  0  0
   -0.7669   -6.0415   -3.0737 C   0  0  0  0  0  0  0  0  0  0  0  0
   -1.7783   -5.1041   -3.3505 C   0  0  0  0  0  0  0  0  0  0  0  0
   -1.8710   -3.9374   -2.5969 C   0  0  0  0  0  0  0  0  0  0  0  0
   -0.9657   -3.6841   -1.5614 C   0  0  0  0  0  0  0  0  0  0  0  0
    0.0232   -4.6287   -1.2608 C   0  0  0  0  0  0  0  0  0  0  0  0
    1.0207   -4.2691   -0.1897 C   0  0  0  0  0  0  0  0  0  0  0  0
    1.4288   -3.1192   -0.1023 O   0  0  0  0  0  0  0  0  0  0  0  0
    1.4959   -5.2627    0.6571 N   0  0  0  0  0  0  0  0  0  0  0  0
    2.5855   -4.8848    1.5843 C   0  0  0  0  0  0  0  0  0  0  0  0
    3.9865   -5.1789    1.0797 C   0  0  0  0  0  0  0  0  0  0  0  0
    4.5010   -4.5009   -0.0397 C   0  0  0  0  0  0  0  0  0  0  0  0
    5.7923   -4.7687   -0.4987 C   0  0  0  0  0  0  0  0  0  0  0  0
    6.5951   -5.7100    0.1561 C   0  0  0  0  0  0  0  0  0  0  0  0
    6.0982   -6.3803    1.2762 C   0  0  0  0  0  0  0  0  0  0  0  0
    4.8020   -6.1152    1.7320 C   0  0  0  0  0  0  0  0  0  0  0  0
    0.8493   -6.5155    0.8741 C   0  0  0  0  0  0  0  0  0  0  0  0
    1.5825   -7.7116    0.8278 C   0  0  0  0  0  0  0  0  0  0  0  0
    0.9553   -8.9345    1.0787 C   0  0  0  0  0  0  0  0  0  0  0  0
   -0.4169   -9.0070    1.3722 C   0  0  0  0  0  0  0  0  0  0  0  0
   -1.0875  -10.3272    1.6633 C   0  0  0  0  0  0  0  0  0  0  0  0
   -1.1658  -10.7872    3.1332 C   0  0  0  0  0  0  0  0  0  0  0  0
   -1.8868  -11.7180    3.4472 O   0  0  0  0  0  0  0  0  0  0  0  0
   -0.3713  -10.1185    4.0174 N   0  0  0  0  0  0  0  0  0  0  0  0
   -0.3062  -10.4576    5.4281 C   0  0  0  0  0  0  0  0  0  0  0  0
   -0.4898   -9.2624    6.3439 C   0  0  0  0  0  0  0  0  0  0  0  0
    0.3891   -9.0461    7.4151 C   0  0  0  0  0  0  0  0  0  0  0  0
    0.1966   -7.9635    8.2763 C   0  0  0  0  0  0  0  0  0  0  0  0
   -0.8693   -7.0836    8.0731 C   0  0  0  0  0  0  0  0  0  0  0  0
   -1.7606   -7.2735    7.0056 C   0  0  0  0  0  0  0  0  0  0  0  0
   -2.9131   -6.3271    6.7670 C   0  0  0  0  0  0  0  0  0  0  0  0
   -1.5536   -8.3694    6.1539 C   0  0  0  0  0  0  0  0  0  0  0  0
   -1.1387   -7.8022    1.4187 C   0  0  0  0  0  0  0  0  0  0  0  0
   -0.5184   -6.5752    1.1866 C   0  0  0  0  0  0  0  0  0  0  0  0
    0.1301   -5.8052   -2.0229 C   0  0  0  0  0  0  0  0  0  0  0  0
    0.0698   -8.9126   -4.3995 H   0  0  0  0  0  0  0  0  0  0  0  0
    0.1664   -8.5685   -2.6425 H   0  0  0  0  0  0  0  0  0  0  0  0
    1.2676   -7.7295   -3.7864 H   0  0  0  0  0  0  0  0  0  0  0  0
   -2.4699   -5.3151   -4.1687 H   0  0  0  0  0  0  0  0  0  0  0  0
   -2.6539   -3.2099   -2.8257 H   0  0  0  0  0  0  0  0  0  0  0  0
   -1.0089   -2.7574   -0.9875 H   0  0  0  0  0  0  0  0  0  0  0  0
    2.4117   -5.4068    2.5356 H   0  0  0  0  0  0  0  0  0  0  0  0
    2.4770   -3.8046    1.7578 H   0  0  0  0  0  0  0  0  0  0  0  0
    3.8837   -3.7508   -0.5395 H   0  0  0  0  0  0  0  0  0  0  0  0
    6.1791   -4.2321   -1.3691 H   0  0  0  0  0  0  0  0  0  0  0  0
    7.6069   -5.9147   -0.2032 H   0  0  0  0  0  0  0  0  0  0  0  0
    6.7199   -7.1117    1.7994 H   0  0  0  0  0  0  0  0  0  0  0  0
    4.4201   -6.6425    2.6115 H   0  0  0  0  0  0  0  0  0  0  0  0
    2.6451   -7.6822    0.5809 H   0  0  0  0  0  0  0  0  0  0  0  0
    1.5445   -9.8550    1.0298 H   0  0  0  0  0  0  0  0  0  0  0  0
   -0.5793  -11.1460    1.1273 H   0  0  0  0  0  0  0  0  0  0  0  0
   -2.1278  -10.3326    1.3049 H   0  0  0  0  0  0  0  0  0  0  0  0
    0.1875   -9.3425    3.6805 H   0  0  0  0  0  0  0  0  0  0  0  0
    0.6533  -10.9523    5.6627 H   0  0  0  0  0  0  0  0  0  0  0  0
   -1.0978  -11.2060    5.5922 H   0  0  0  0  0  0  0  0  0  0  0  0
    1.2271   -9.7307    7.5755 H   0  0  0  0  0  0  0  0  0  0  0  0
    0.8847   -7.8015    9.1102 H   0  0  0  0  0  0  0  0  0  0  0  0
   -1.0119   -6.2370    8.7506 H   0  0  0  0  0  0  0  0  0  0  0  0
   -3.0075   -5.5905    7.5784 H   0  0  0  0  0  0  0  0  0  0  0  0
   -3.8693   -6.8701    6.6898 H   0  0  0  0  0  0  0  0  0  0  0  0
   -2.7836   -5.7697    5.8235 H   0  0  0  0  0  0  0  0  0  0  0  0
   -2.2406   -8.5338    5.3183 H   0  0  0  0  0  0  0  0  0  0  0  0
   -2.2077   -7.8240    1.6488 H   0  0  0  0  0  0  0  0  0  0  0  0
   -1.0977   -5.6518    1.2414 H   0  0  0  0  0  0  0  0  0  0  0  0
    0.9199   -6.5194   -1.7993 H   0  0  0  0  0  0  0  0  0  0  0  0
  1  2  1  0
  1 37  1  0
  1 38  1  0
  1 39  1  0
  2  3  1  0
  3  4  2  0
  3 36  1  0
  4  5  1  0
  4 40  1  0
  5  6  2  0
  5 41  1  0
  6  7  1  0
  6 42  1  0
  7  8  1  0
  7 36  2  0
  8  9  2  0
  8 10  1  0
 10 11  1  0
 10 18  1  0
 11 12  1  0
 11 43  1  0
 11 44  1  0
 12 13  2  0
 12 17  1  0
 13 14  1  0
 13 45  1  0
 14 15  2  0
 14 46  1  0
 15 16  1  0
 15 47  1  0
 16 17  2  0
 16 48  1  0
 17 49  1  0
 18 19  2  0
 18 35  1  0
 19 20  1  0
 19 50  1  0
 20 21  2  0
 20 51  1  0
 21 22  1  0
 21 34  1  0
 22 23  1  0
 22 52  1  0
 22 53  1  0
 23 24  2  0
 23 25  1  0
 25 26  1  0
 25 54  1  0
 26 27  1  0
 26 55  1  0
 26 56  1  0
 27 28  2  0
 27 33  1  0
 28 29  1  0
 28 57  1  0
 29 30  2  0
 29 58  1  0
 30 31  1  0
 30 59  1  0
 31 32  1  0
 31 33  2  0
 32 60  1  0
 32 61  1  0
 32 62  1  0
 33 63  1  0
 34 35  2  0
 34 64  1  0
 35 65  1  0
 36 66  1  0
M  END

