
     RDKit          3D

 29 30  0  0  0  0  0  0  0  0999 V2000
    1.9770    0.2383    1.6520 C   0  0  0  0  0  0  0  0  0  0  0  0
    3.0892    0.0012    0.6712 C   0  0  0  0  0  0  0  0  0  0  0  0
    3.9242    1.0724    0.4100 N   0  0  0  0  0  0  0  0  0  0  0  0
    4.8664    0.7618   -0.4271 C   0  0  0  0  0  0  0  0  0  0  0  0
    5.8695    1.6184   -0.8132 N   0  0  0  0  0  0  0  0  0  0  0  0
    4.8132   -0.9012   -0.9962 S   0  0  0  0  0  0  0  0  0  0  0  0
    3.3776   -1.1624   -0.0011 C   0  0  0  0  0  0  0  0  0  0  0  0
    2.7747   -2.5602    0.0453 C   0  0  1  0  0  0  0  0  0  0  0  0
    3.2618   -3.3298    1.2869 C   0  0  0  0  0  0  0  0  0  0  0  0
    1.2564   -2.5827   -0.1476 C   0  0  0  0  0  0  0  0  0  0  0  0
    0.3745   -2.9328    0.8886 C   0  0  0  0  0  0  0  0  0  0  0  0
   -1.0109   -2.9638    0.7090 C   0  0  0  0  0  0  0  0  0  0  0  0
   -1.5587   -2.6496   -0.5354 C   0  0  0  0  0  0  0  0  0  0  0  0
   -0.7123   -2.3152   -1.5936 C   0  0  0  0  0  0  0  0  0  0  0  0
    0.6709   -2.2883   -1.3958 C   0  0  0  0  0  0  0  0  0  0  0  0
    1.6767   -1.8966   -2.7796 Cl  0  0  0  0  0  0  0  0  0  0  0  0
    2.3940    0.5224    2.6326 H   0  0  0  0  0  0  0  0  0  0  0  0
    1.3318   -0.6369    1.7840 H   0  0  0  0  0  0  0  0  0  0  0  0
    1.3522    1.0824    1.3169 H   0  0  0  0  0  0  0  0  0  0  0  0
    5.6838    2.5907   -0.5873 H   0  0  0  0  0  0  0  0  0  0  0  0
    6.2872    1.4705   -1.7244 H   0  0  0  0  0  0  0  0  0  0  0  0
    3.1790   -3.0909   -0.8329 H   0  0  0  0  0  0  0  0  0  0  0  0
    2.9508   -2.8404    2.2226 H   0  0  0  0  0  0  0  0  0  0  0  0
    4.3613   -3.3622    1.2889 H   0  0  0  0  0  0  0  0  0  0  0  0
    2.8865   -4.3658    1.2934 H   0  0  0  0  0  0  0  0  0  0  0  0
    0.7813   -3.1876    1.8682 H   0  0  0  0  0  0  0  0  0  0  0  0
   -1.6595   -3.2370    1.5449 H   0  0  0  0  0  0  0  0  0  0  0  0
   -2.6402   -2.6702   -0.6902 H   0  0  0  0  0  0  0  0  0  0  0  0
   -1.1123   -2.0790   -2.5810 H   0  0  0  0  0  0  0  0  0  0  0  0
  1  2  1  0
  1 17  1  0
  1 18  1  0
  1 19  1  0
  2  3  1  0
  2  7  2  0
  3  4  2  0
  4  5  1  0
  4  6  1  0
  5 20  1  0
  5 21  1  0
  6  7  1  0
  7  8  1  0
  8  9  1  0
  8 10  1  0
  8 22  1  6
  9 23  1  0
  9 24  1  0
  9 25  1  0
 10 11  2  0
 10 15  1  0
 11 12  1  0
 11 26  1  0
 12 13  2  0
 12 27  1  0
 13 14  1  0
 13 28  1  0
 14 15  2  0
 14 29  1  0
 15 16  1  0
M  END

