
     RDKit          3D

 46 47  0  0  0  0  0  0  0  0999 V2000
   -0.0606   -3.2296   -4.2313 C   0  0  0  0  0  0  0  0  0  0  0  0
    0.6282   -2.6639   -2.9905 C   0  0  0  0  0  0  0  0  0  0  0  0
    1.4927   -3.6339   -2.3202 N   0  0  0  0  0  0  0  0  0  0  0  0
    2.7025   -4.0211   -3.0421 C   0  0  0  0  0  0  0  0  0  0  0  0
    3.7997   -2.9397   -3.0279 C   0  0  0  0  0  0  0  0  0  0  0  0
    4.1407   -2.5253   -1.5850 C   0  0  2  0  0  0  0  0  0  0  0  0
    4.7791   -3.5897   -0.8851 O   0  0  0  0  0  0  0  0  0  0  0  0
    6.2076   -3.6345   -0.9555 C   0  0  1  0  0  0  0  0  0  0  0  0
    6.8516   -2.6656    0.0475 C   0  0  0  0  0  0  0  0  0  0  0  0
    6.5604   -3.0565    1.5033 C   0  0  0  0  0  0  0  0  0  0  0  0
    6.9359   -4.5155    1.8144 C   0  0  2  0  0  0  0  0  0  0  0  0
    8.4451   -4.7042    1.9177 C   0  0  0  0  0  0  0  0  0  0  0  0
    9.2844   -3.8562    1.7254 O   0  0  0  0  0  0  0  0  0  0  0  0
    8.7580   -5.9661    2.2772 O   0  0  0  0  0  0  0  0  0  0  0  0
   10.1469   -6.2608    2.4211 C   0  0  0  0  0  0  0  0  0  0  0  0
    6.3030   -5.4822    0.7860 C   0  0  0  0  0  0  0  0  0  0  0  0
    6.6250   -5.0782   -0.6582 C   0  0  0  0  0  0  0  0  0  0  0  0
    2.8588   -2.2100   -0.8147 C   0  0  0  0  0  0  0  0  0  0  0  0
    2.6360   -1.1527   -0.1428 N   0  0  0  0  0  0  0  0  0  0  0  0
    1.8051   -3.2993   -0.9298 C   0  0  0  0  0  0  0  0  0  0  0  0
   -0.7850   -2.5015   -4.6299 H   0  0  0  0  0  0  0  0  0  0  0  0
   -0.5975   -4.1586   -3.9830 H   0  0  0  0  0  0  0  0  0  0  0  0
    0.6505   -3.4557   -5.0418 H   0  0  0  0  0  0  0  0  0  0  0  0
   -0.1449   -2.3704   -2.2620 H   0  0  0  0  0  0  0  0  0  0  0  0
    1.1525   -1.7190   -3.2600 H   0  0  0  0  0  0  0  0  0  0  0  0
    2.4451   -4.2880   -4.0780 H   0  0  0  0  0  0  0  0  0  0  0  0
    3.1031   -4.9348   -2.5711 H   0  0  0  0  0  0  0  0  0  0  0  0
    3.4644   -2.0465   -3.5831 H   0  0  0  0  0  0  0  0  0  0  0  0
    4.7090   -3.3027   -3.5368 H   0  0  0  0  0  0  0  0  0  0  0  0
    4.7834   -1.6245   -1.5851 H   0  0  0  0  0  0  0  0  0  0  0  0
    6.5308   -3.3697   -1.9808 H   0  0  0  0  0  0  0  0  0  0  0  0
    6.5004   -1.6374   -0.1418 H   0  0  0  0  0  0  0  0  0  0  0  0
    7.9401   -2.6572   -0.1222 H   0  0  0  0  0  0  0  0  0  0  0  0
    5.4830   -2.9341    1.6993 H   0  0  0  0  0  0  0  0  0  0  0  0
    7.0960   -2.3776    2.1841 H   0  0  0  0  0  0  0  0  0  0  0  0
    6.5465   -4.7886    2.8110 H   0  0  0  0  0  0  0  0  0  0  0  0
   10.2084   -7.3184    2.7064 H   0  0  0  0  0  0  0  0  0  0  0  0
   10.6031   -5.6292    3.1986 H   0  0  0  0  0  0  0  0  0  0  0  0
   10.6856   -6.0885    1.4768 H   0  0  0  0  0  0  0  0  0  0  0  0
    5.2107   -5.4617    0.9240 H   0  0  0  0  0  0  0  0  0  0  0  0
    6.6367   -6.5116    0.9837 H   0  0  0  0  0  0  0  0  0  0  0  0
    6.1165   -5.7541   -1.3642 H   0  0  0  0  0  0  0  0  0  0  0  0
    7.7088   -5.1710   -0.8494 H   0  0  0  0  0  0  0  0  0  0  0  0
    3.4495   -0.5223   -0.1815 H   0  0  0  0  0  0  0  0  0  0  0  0
    0.8988   -2.9777   -0.3974 H   0  0  0  0  0  0  0  0  0  0  0  0
    2.1955   -4.2056   -0.4329 H   0  0  0  0  0  0  0  0  0  0  0  0
  1  2  1  0
  1 21  1  0
  1 22  1  0
  1 23  1  0
  2  3  1  0
  2 24  1  0
  2 25  1  0
  3  4  1  0
  3 20  1  0
  4  5  1  0
  4 26  1  0
  4 27  1  0
  5  6  1  0
  5 28  1  0
  5 29  1  0
  6  7  1  0
  6 18  1  0
  6 30  1  6
  7  8  1  0
  8  9  1  0
  8 17  1  0
  8 31  1  6
  9 10  1  0
  9 32  1  0
  9 33  1  0
 10 11  1  0
 10 34  1  0
 10 35  1  0
 11 12  1  0
 11 16  1  0
 11 36  1  1
 12 13  2  0
 12 14  1  0
 14 15  1  0
 15 37  1  0
 15 38  1  0
 15 39  1  0
 16 17  1  0
 16 40  1  0
 16 41  1  0
 17 42  1  0
 17 43  1  0
 18 19  2  0
 18 20  1  0
 19 44  1  0
 20 45  1  0
 20 46  1  0
M  END

