
     RDKit          3D

 35 37  0  0  0  0  0  0  0  0999 V2000
    1.4869   -0.1397    3.5377 C   0  0  0  0  0  0  0  0  0  0  0  0
    0.4185   -0.5489    2.7235 C   0  0  0  0  0  0  0  0  0  0  0  0
    0.1078    0.1156    1.5231 C   0  0  0  0  0  0  0  0  0  0  0  0
    0.9180    1.1981    1.1975 C   0  0  0  0  0  0  0  0  0  0  0  0
    1.9775    1.6087    2.0109 C   0  0  0  0  0  0  0  0  0  0  0  0
    2.2989    0.9571    3.1960 C   0  0  0  0  0  0  0  0  0  0  0  0
    2.3642    2.7547    1.0894 C   0  0  0  0  0  0  0  0  0  0  0  0
    1.1639    2.2941    0.1647 C   0  0  2  0  0  0  0  0  0  0  0  0
    0.0338    3.3155   -0.0504 C   0  0  0  0  0  0  0  0  0  0  0  0
    0.3398    4.4810   -0.8595 N   0  0  0  0  0  0  0  0  0  0  0  0
    0.6070    4.2920   -2.2865 C   0  0  1  0  0  0  0  0  0  0  0  0
   -0.1743    5.3247   -3.1290 C   0  0  0  0  0  0  0  0  0  0  0  0
    0.3923    6.7314   -2.8980 C   0  0  0  0  0  0  0  0  0  0  0  0
    1.9086    6.7388   -3.1017 C   0  0  0  0  0  0  0  0  0  0  0  0
    2.5527    5.7462   -2.3176 O   0  0  0  0  0  0  0  0  0  0  0  0
    2.1012    4.4390   -2.6209 C   0  0  0  0  0  0  0  0  0  0  0  0
    1.6891   -0.6904    4.4606 H   0  0  0  0  0  0  0  0  0  0  0  0
   -0.1834   -1.4077    3.0333 H   0  0  0  0  0  0  0  0  0  0  0  0
   -0.7242   -0.2198    0.8980 H   0  0  0  0  0  0  0  0  0  0  0  0
    3.1278    1.2627    3.8404 H   0  0  0  0  0  0  0  0  0  0  0  0
    3.3648    2.6874    0.6319 H   0  0  0  0  0  0  0  0  0  0  0  0
    2.2457    3.7651    1.5165 H   0  0  0  0  0  0  0  0  0  0  0  0
    1.5098    1.8994   -0.8070 H   0  0  0  0  0  0  0  0  0  0  0  0
   -0.3080    3.6645    0.9404 H   0  0  0  0  0  0  0  0  0  0  0  0
   -0.8311    2.7957   -0.5008 H   0  0  0  0  0  0  0  0  0  0  0  0
    1.0583    5.0642   -0.4342 H   0  0  0  0  0  0  0  0  0  0  0  0
    0.2817    3.2776   -2.5764 H   0  0  0  0  0  0  0  0  0  0  0  0
   -1.2414    5.2832   -2.8606 H   0  0  0  0  0  0  0  0  0  0  0  0
   -0.0907    5.0597   -4.1995 H   0  0  0  0  0  0  0  0  0  0  0  0
    0.1641    7.0452   -1.8654 H   0  0  0  0  0  0  0  0  0  0  0  0
   -0.0783    7.4672   -3.5719 H   0  0  0  0  0  0  0  0  0  0  0  0
    2.3506    7.7033   -2.8074 H   0  0  0  0  0  0  0  0  0  0  0  0
    2.1464    6.5747   -4.1752 H   0  0  0  0  0  0  0  0  0  0  0  0
    2.7143    3.7488   -2.0218 H   0  0  0  0  0  0  0  0  0  0  0  0
    2.2756    4.2097   -3.6940 H   0  0  0  0  0  0  0  0  0  0  0  0
  1  2  2  0
  1  6  1  0
  1 17  1  0
  2  3  1  0
  2 18  1  0
  3  4  2  0
  3 19  1  0
  4  5  1  0
  4  8  1  0
  5  6  2  0
  5  7  1  0
  6 20  1  0
  7  8  1  0
  7 21  1  0
  7 22  1  0
  8  9  1  0
  8 23  1  6
  9 10  1  0
  9 24  1  0
  9 25  1  0
 10 11  1  0
 10 26  1  0
 11 12  1  0
 11 16  1  0
 11 27  1  6
 12 13  1  0
 12 28  1  0
 12 29  1  0
 13 14  1  0
 13 30  1  0
 13 31  1  0
 14 15  1  0
 14 32  1  0
 14 33  1  0
 15 16  1  0
 16 34  1  0
 16 35  1  0
M  END

