
     RDKit          3D

 39 42  0  0  0  0  0  0  0  0999 V2000
    7.3696   -5.8598    3.3382 N   0  0  0  0  0  0  0  0  0  0  0  0
    7.5704   -4.8190    2.8637 C   0  0  0  0  0  0  0  0  0  0  0  0
    7.8181   -3.5321    2.2789 C   0  0  0  0  0  0  0  0  0  0  0  0
    8.8674   -2.7154    2.7583 C   0  0  0  0  0  0  0  0  0  0  0  0
    9.1143   -1.4691    2.2032 C   0  0  0  0  0  0  0  0  0  0  0  0
    8.3109   -0.9855    1.1455 C   0  0  0  0  0  0  0  0  0  0  0  0
    7.2650   -1.8114    0.6406 C   0  0  0  0  0  0  0  0  0  0  0  0
    6.4750   -1.3273   -0.4630 C   0  0  0  0  0  0  0  0  0  0  0  0
    6.7209   -0.1183   -1.0199 C   0  0  0  0  0  0  0  0  0  0  0  0
    7.7822    0.7558   -0.5292 C   0  0  0  0  0  0  0  0  0  0  0  0
    8.0466    1.8468   -1.0133 O   0  0  0  0  0  0  0  0  0  0  0  0
    8.5123    0.2709    0.5843 N   0  0  0  0  0  0  0  0  0  0  0  0
    9.4860    1.2031    1.1583 C   0  0  0  0  0  0  0  0  0  0  0  0
   10.9384    0.9032    0.7769 C   0  0  0  0  0  0  0  0  0  0  0  0
   11.7266    0.4104    1.5719 O   0  0  0  0  0  0  0  0  0  0  0  0
   11.2879    1.2133   -0.5069 N   0  0  0  0  0  0  0  0  0  0  0  0
   12.5437    0.9827   -1.0410 C   0  0  0  0  0  0  0  0  0  0  0  0
   13.8464    0.2666   -0.1307 S   0  0  0  0  0  0  0  0  0  0  0  0
   14.9058    0.3676   -1.5044 C   0  0  0  0  0  0  0  0  0  0  0  0
   14.2836    0.9217   -2.5848 C   0  0  0  0  0  0  0  0  0  0  0  0
   15.1039    1.1533   -4.1119 Cl  0  0  0  0  0  0  0  0  0  0  0  0
   12.9125    1.2913   -2.3520 C   0  0  0  0  0  0  0  0  0  0  0  0
   11.9703    1.8988   -3.2801 C   0  0  0  0  0  0  0  0  0  0  0  0
   10.7133    2.2148   -2.9646 N   0  0  0  0  0  0  0  0  0  0  0  0
   10.2095    2.7403   -4.1094 C   0  0  0  0  0  0  0  0  0  0  0  0
   11.0648    2.7751   -5.1160 N   0  0  0  0  0  0  0  0  0  0  0  0
   12.1780    2.2383   -4.5768 N   0  0  0  0  0  0  0  0  0  0  0  0
   13.0291    2.1289   -5.1173 H   0  0  0  0  0  0  0  0  0  0  0  0
    7.0335   -3.0703    1.2188 C   0  0  0  0  0  0  0  0  0  0  0  0
    9.4994   -3.0759    3.5719 H   0  0  0  0  0  0  0  0  0  0  0  0
    9.9625   -0.8893    2.5653 H   0  0  0  0  0  0  0  0  0  0  0  0
    5.6736   -1.9640   -0.8483 H   0  0  0  0  0  0  0  0  0  0  0  0
    6.1471    0.2709   -1.8617 H   0  0  0  0  0  0  0  0  0  0  0  0
    9.4240    1.1795    2.2530 H   0  0  0  0  0  0  0  0  0  0  0  0
    9.2055    2.1998    0.7938 H   0  0  0  0  0  0  0  0  0  0  0  0
   10.6262    1.6570   -1.1767 H   0  0  0  0  0  0  0  0  0  0  0  0
   15.9328    0.0150   -1.4421 H   0  0  0  0  0  0  0  0  0  0  0  0
    9.1868    3.1037   -4.1977 H   0  0  0  0  0  0  0  0  0  0  0  0
    6.2261   -3.6926    0.8273 H   0  0  0  0  0  0  0  0  0  0  0  0
  1  2  3  0
  2  3  1  0
  3  4  2  0
  3 29  1  0
  4  5  1  0
  4 30  1  0
  5  6  2  0
  5 31  1  0
  6  7  1  0
  6 12  1  0
  7  8  1  0
  7 29  2  0
  8  9  2  0
  8 32  1  0
  9 10  1  0
  9 33  1  0
 10 11  2  0
 10 12  1  0
 12 13  1  0
 13 14  1  0
 13 34  1  0
 13 35  1  0
 14 15  2  0
 14 16  1  0
 16 17  1  0
 16 36  1  0
 17 18  1  0
 17 22  2  0
 18 19  1  0
 19 20  2  0
 19 37  1  0
 20 21  1  0
 20 22  1  0
 22 23  1  0
 23 24  2  0
 23 27  1  0
 24 25  1  0
 25 26  2  0
 25 38  1  0
 26 27  1  0
 27 28  1  0
 29 39  1  0
M  END

