
     RDKit          3D

 66 72  0  0  0  0  0  0  0  0999 V2000
    7.8129   -1.7583   -1.6236 C   0  0  0  0  0  0  0  0  0  0  0  0
    6.8324   -1.2385   -1.1376 C   0  0  0  0  0  0  0  0  0  0  0  0
    5.7771   -0.5888   -0.6040 N   0  0  0  0  0  0  0  0  0  0  0  0
    4.5011   -1.0782   -0.2263 C   0  0  0  0  0  0  0  0  0  0  0  0
    4.0910   -2.4929   -0.2596 C   0  0  0  0  0  0  0  0  0  0  0  0
    4.9900   -3.5634   -0.2622 C   0  0  0  0  0  0  0  0  0  0  0  0
    4.5219   -4.8939   -0.2673 C   0  0  0  0  0  0  0  0  0  0  0  0
    5.5423   -5.9564   -0.2428 C   0  0  0  0  0  0  0  0  0  0  0  0
    6.7816   -5.7520    0.1190 N   0  0  0  0  0  0  0  0  0  0  0  0
    7.4402   -6.9598    0.0106 C   0  0  0  0  0  0  0  0  0  0  0  0
    8.7729   -7.2992    0.2782 C   0  0  0  0  0  0  0  0  0  0  0  0
    9.1671   -8.6203    0.0721 C   0  0  0  0  0  0  0  0  0  0  0  0
    8.2753   -9.6171   -0.3925 C   0  0  0  0  0  0  0  0  0  0  0  0
    8.7485  -11.0369   -0.6005 C   0  0  0  0  0  0  0  0  0  0  0  0
    6.9396   -9.2801   -0.6593 C   0  0  0  0  0  0  0  0  0  0  0  0
    6.5550   -7.9592   -0.4482 C   0  0  0  0  0  0  0  0  0  0  0  0
    5.3237   -7.3071   -0.6148 N   0  0  0  0  0  0  0  0  0  0  0  0
    4.2274   -7.8975   -1.1345 C   0  0  0  0  0  0  0  0  0  0  0  0
    3.2818   -8.4883   -1.6085 C   0  0  0  0  0  0  0  0  0  0  0  0
    3.1455   -5.1372   -0.2523 C   0  0  0  0  0  0  0  0  0  0  0  0
    2.2271   -4.0667   -0.2494 C   0  0  0  0  0  0  0  0  0  0  0  0
    0.7973   -4.4192   -0.2061 C   0  0  0  0  0  0  0  0  0  0  0  0
    0.3596   -5.5942    0.1632 N   0  0  0  0  0  0  0  0  0  0  0  0
   -1.0169   -5.5610    0.0726 C   0  0  0  0  0  0  0  0  0  0  0  0
   -1.9735   -6.5452    0.3543 C   0  0  0  0  0  0  0  0  0  0  0  0
   -3.3173   -6.2265    0.1655 C   0  0  0  0  0  0  0  0  0  0  0  0
   -3.7410   -4.9565   -0.2953 C   0  0  0  0  0  0  0  0  0  0  0  0
   -5.2098   -4.6571   -0.4849 C   0  0  0  0  0  0  0  0  0  0  0  0
   -2.7850   -3.9685   -0.5762 C   0  0  0  0  0  0  0  0  0  0  0  0
   -1.4461   -4.2955   -0.3824 C   0  0  0  0  0  0  0  0  0  0  0  0
   -0.2681   -3.5551   -0.5654 N   0  0  0  0  0  0  0  0  0  0  0  0
   -0.2383   -2.3111   -1.0868 C   0  0  0  0  0  0  0  0  0  0  0  0
   -0.2836   -1.1973   -1.5614 C   0  0  0  0  0  0  0  0  0  0  0  0
    2.7049   -2.7530   -0.2445 C   0  0  0  0  0  0  0  0  0  0  0  0
    3.7072   -0.1105    0.1502 N   0  0  0  0  0  0  0  0  0  0  0  0
    4.4229    1.0648    0.0463 C   0  0  0  0  0  0  0  0  0  0  0  0
    4.0523    2.3862    0.3282 C   0  0  0  0  0  0  0  0  0  0  0  0
    4.9975    3.3901    0.1235 C   0  0  0  0  0  0  0  0  0  0  0  0
    6.3032    3.1204   -0.3534 C   0  0  0  0  0  0  0  0  0  0  0  0
    7.2943    4.2421   -0.5594 C   0  0  0  0  0  0  0  0  0  0  0  0
    6.6772    1.7976   -0.6347 C   0  0  0  0  0  0  0  0  0  0  0  0
    5.7274    0.8021   -0.4249 C   0  0  0  0  0  0  0  0  0  0  0  0
    8.6699   -2.2466   -2.0463 H   0  0  0  0  0  0  0  0  0  0  0  0
    6.0661   -3.4070   -0.2407 H   0  0  0  0  0  0  0  0  0  0  0  0
    9.4729   -6.5423    0.6374 H   0  0  0  0  0  0  0  0  0  0  0  0
   10.2034   -8.9033    0.2758 H   0  0  0  0  0  0  0  0  0  0  0  0
    9.8146  -11.1476   -0.3544 H   0  0  0  0  0  0  0  0  0  0  0  0
    8.6106  -11.3573   -1.6468 H   0  0  0  0  0  0  0  0  0  0  0  0
    8.1838  -11.7450    0.0289 H   0  0  0  0  0  0  0  0  0  0  0  0
    6.2270  -10.0261   -1.0188 H   0  0  0  0  0  0  0  0  0  0  0  0
    2.4257   -8.9876   -2.0198 H   0  0  0  0  0  0  0  0  0  0  0  0
    2.7433   -6.1473   -0.2226 H   0  0  0  0  0  0  0  0  0  0  0  0
   -1.6631   -7.5292    0.7110 H   0  0  0  0  0  0  0  0  0  0  0  0
   -4.0777   -6.9822    0.3804 H   0  0  0  0  0  0  0  0  0  0  0  0
   -5.8356   -5.5230   -0.2241 H   0  0  0  0  0  0  0  0  0  0  0  0
   -5.4328   -4.3846   -1.5302 H   0  0  0  0  0  0  0  0  0  0  0  0
   -5.5315   -3.8095    0.1432 H   0  0  0  0  0  0  0  0  0  0  0  0
   -3.0796   -2.9789   -0.9331 H   0  0  0  0  0  0  0  0  0  0  0  0
   -0.2934   -0.2066   -1.9737 H   0  0  0  0  0  0  0  0  0  0  0  0
    2.0316   -1.8995   -0.2092 H   0  0  0  0  0  0  0  0  0  0  0  0
    3.0496    2.6106    0.6972 H   0  0  0  0  0  0  0  0  0  0  0  0
    4.7260    4.4271    0.3383 H   0  0  0  0  0  0  0  0  0  0  0  0
    6.8592    5.2184   -0.3008 H   0  0  0  0  0  0  0  0  0  0  0  0
    7.6321    4.2925   -1.6082 H   0  0  0  0  0  0  0  0  0  0  0  0
    8.1951    4.1015    0.0613 H   0  0  0  0  0  0  0  0  0  0  0  0
    7.6768    1.5568   -1.0041 H   0  0  0  0  0  0  0  0  0  0  0  0
  1  2  3  0
  1 43  1  0
  2  3  1  0
  3  4  1  0
  3 42  1  0
  4  5  1  0
  4 35  2  0
  5  6  2  0
  5 34  1  0
  6  7  1  0
  6 44  1  0
  7  8  1  0
  7 20  2  0
  8  9  2  0
  8 17  1  0
  9 10  1  0
 10 11  2  0
 10 16  1  0
 11 12  1  0
 11 45  1  0
 12 13  2  0
 12 46  1  0
 13 14  1  0
 13 15  1  0
 14 47  1  0
 14 48  1  0
 14 49  1  0
 15 16  2  0
 15 50  1  0
 16 17  1  0
 17 18  1  0
 18 19  3  0
 19 51  1  0
 20 21  1  0
 20 52  1  0
 21 22  1  0
 21 34  2  0
 22 23  2  0
 22 31  1  0
 23 24  1  0
 24 25  2  0
 24 30  1  0
 25 26  1  0
 25 53  1  0
 26 27  2  0
 26 54  1  0
 27 28  1  0
 27 29  1  0
 28 55  1  0
 28 56  1  0
 28 57  1  0
 29 30  2  0
 29 58  1  0
 30 31  1  0
 31 32  1  0
 32 33  3  0
 33 59  1  0
 34 60  1  0
 35 36  1  0
 36 37  1  0
 36 42  2  0
 37 38  2  0
 37 61  1  0
 38 39  1  0
 38 62  1  0
 39 40  1  0
 39 41  2  0
 40 63  1  0
 40 64  1  0
 40 65  1  0
 41 42  1  0
 41 66  1  0
M  END

