
     RDKit          3D

 32 33  0  0  0  0  0  0  0  0999 V2000
    1.2132    0.1201   -0.3456 N   0  0  0  0  0  0  0  0  0  0  0  0
    2.5690    0.1926   -0.2571 C   0  0  0  0  0  0  0  0  0  0  0  0
    3.3157    0.1779   -1.2172 O   0  0  0  0  0  0  0  0  0  0  0  0
    3.1284    0.3974    1.1620 C   0  0  1  0  0  0  0  0  0  0  0  0
    3.2237    1.9024    1.4946 C   0  0  0  0  0  0  0  0  0  0  0  0
    3.1357    1.9350    3.0225 C   0  0  0  0  0  0  0  0  0  0  0  0
    2.1272    0.8249    3.3408 C   0  0  0  0  0  0  0  0  0  0  0  0
    2.3094   -0.1417    2.2500 N   0  0  0  0  0  0  0  0  0  0  0  0
    2.0897   -1.4970    2.4137 C   0  0  0  0  0  0  0  0  0  0  0  0
    2.6120   -2.4560    1.5123 C   0  0  0  0  0  0  0  0  0  0  0  0
    2.3551   -3.8046    1.6971 C   0  0  0  0  0  0  0  0  0  0  0  0
    1.5983   -4.3131    2.7754 C   0  0  0  0  0  0  0  0  0  0  0  0
    1.4095   -5.7947    2.8549 C   0  0  0  0  0  0  0  0  0  0  0  0
    1.4746   -6.3554    4.0787 N   0  0  0  0  0  0  0  0  0  0  0  0
    1.1698   -6.7222    1.4915 S   0  0  0  0  0  0  0  0  0  0  0  0
    1.0768   -3.3426    3.6563 C   0  0  0  0  0  0  0  0  0  0  0  0
   -0.0804   -3.7814    5.1335 Br  0  0  0  0  0  0  0  0  0  0  0  0
    1.3011   -1.9766    3.4832 C   0  0  0  0  0  0  0  0  0  0  0  0
    0.8051   -0.0653   -1.2546 H   0  0  0  0  0  0  0  0  0  0  0  0
    0.6515   -0.0254    0.4836 H   0  0  0  0  0  0  0  0  0  0  0  0
    4.1368   -0.0548    1.1485 H   0  0  0  0  0  0  0  0  0  0  0  0
    2.3653    2.4327    1.0504 H   0  0  0  0  0  0  0  0  0  0  0  0
    4.1402    2.3495    1.0867 H   0  0  0  0  0  0  0  0  0  0  0  0
    2.8275    2.9134    3.4195 H   0  0  0  0  0  0  0  0  0  0  0  0
    4.1146    1.6867    3.4640 H   0  0  0  0  0  0  0  0  0  0  0  0
    1.0909    1.2132    3.3680 H   0  0  0  0  0  0  0  0  0  0  0  0
    2.3234    0.3533    4.3169 H   0  0  0  0  0  0  0  0  0  0  0  0
    3.2221   -2.1519    0.6621 H   0  0  0  0  0  0  0  0  0  0  0  0
    2.7493   -4.5313    0.9844 H   0  0  0  0  0  0  0  0  0  0  0  0
    1.5745   -5.8043    4.9227 H   0  0  0  0  0  0  0  0  0  0  0  0
    1.2898   -7.3493    4.1555 H   0  0  0  0  0  0  0  0  0  0  0  0
    0.8319   -1.2805    4.1760 H   0  0  0  0  0  0  0  0  0  0  0  0
  1  2  1  0
  1 19  1  0
  1 20  1  0
  2  3  2  0
  2  4  1  0
  4  5  1  0
  4  8  1  0
  4 21  1  6
  5  6  1  0
  5 22  1  0
  5 23  1  0
  6  7  1  0
  6 24  1  0
  6 25  1  0
  7  8  1  0
  7 26  1  0
  7 27  1  0
  8  9  1  0
  9 10  2  0
  9 18  1  0
 10 11  1  0
 10 28  1  0
 11 12  2  0
 11 29  1  0
 12 13  1  0
 12 16  1  0
 13 14  1  0
 13 15  2  0
 14 30  1  0
 14 31  1  0
 16 17  1  0
 16 18  2  0
 18 32  1  0
M  END

