
     RDKit          3D

 41 42  0  0  0  0  0  0  0  0999 V2000
    0.9044   -0.1591   -0.1410 C   0  0  0  0  0  0  0  0  0  0  0  0
    2.4093    0.0858   -0.3192 C   0  0  1  0  0  0  0  0  0  0  0  0
    2.6693    0.8111   -1.6473 C   0  0  0  0  0  0  0  0  0  0  0  0
    2.9939    0.8823    0.8844 C   0  0  1  0  0  0  0  0  0  0  0  0
    2.6287    0.3912    2.2195 N   0  0  0  0  0  0  0  0  0  0  0  0
    3.0246   -0.9588    2.5866 C   0  0  0  0  0  0  0  0  0  0  0  0
    2.7553   -1.2105    4.0786 C   0  0  0  0  0  0  0  0  0  0  0  0
    3.1210   -2.6118    4.5049 C   0  0  0  0  0  0  0  0  0  0  0  0
    4.2386   -2.8698    5.3160 C   0  0  0  0  0  0  0  0  0  0  0  0
    4.5407   -4.1881    5.6609 C   0  0  0  0  0  0  0  0  0  0  0  0
    3.7213   -5.2123    5.1832 C   0  0  0  0  0  0  0  0  0  0  0  0
    2.6333   -4.8597    4.3784 C   0  0  0  0  0  0  0  0  0  0  0  0
    2.3381   -3.6020    4.0477 N   0  0  0  0  0  0  0  0  0  0  0  0
    4.5091    1.1027    0.8400 C   0  0  0  0  0  0  0  0  0  0  0  0
    5.0382    2.2314    1.4887 C   0  0  0  0  0  0  0  0  0  0  0  0
    6.4129    2.4679    1.5279 C   0  0  0  0  0  0  0  0  0  0  0  0
    7.2968    1.5695    0.9196 C   0  0  0  0  0  0  0  0  0  0  0  0
    6.7888    0.4386    0.2778 C   0  0  0  0  0  0  0  0  0  0  0  0
    5.4080    0.2086    0.2399 C   0  0  0  0  0  0  0  0  0  0  0  0
    0.4904   -0.6916   -1.0120 H   0  0  0  0  0  0  0  0  0  0  0  0
    0.3555    0.7949   -0.0488 H   0  0  0  0  0  0  0  0  0  0  0  0
    0.6798   -0.7662    0.7489 H   0  0  0  0  0  0  0  0  0  0  0  0
    2.8998   -0.9032   -0.3618 H   0  0  0  0  0  0  0  0  0  0  0  0
    2.1783    1.8000   -1.6528 H   0  0  0  0  0  0  0  0  0  0  0  0
    2.2628    0.2376   -2.4960 H   0  0  0  0  0  0  0  0  0  0  0  0
    3.7407    0.9740   -1.8337 H   0  0  0  0  0  0  0  0  0  0  0  0
    2.5386    1.8882    0.8232 H   0  0  0  0  0  0  0  0  0  0  0  0
    1.6330    0.5263    2.3832 H   0  0  0  0  0  0  0  0  0  0  0  0
    4.1043   -1.0697    2.3929 H   0  0  0  0  0  0  0  0  0  0  0  0
    2.5170   -1.7587    2.0078 H   0  0  0  0  0  0  0  0  0  0  0  0
    1.6780   -1.0646    4.2725 H   0  0  0  0  0  0  0  0  0  0  0  0
    3.3029   -0.4627    4.6719 H   0  0  0  0  0  0  0  0  0  0  0  0
    4.8578   -2.0428    5.6715 H   0  0  0  0  0  0  0  0  0  0  0  0
    5.4035   -4.4117    6.2942 H   0  0  0  0  0  0  0  0  0  0  0  0
    3.9154   -6.2595    5.4266 H   0  0  0  0  0  0  0  0  0  0  0  0
    1.9661   -5.6366    3.9846 H   0  0  0  0  0  0  0  0  0  0  0  0
    4.3529    2.9292    1.9780 H   0  0  0  0  0  0  0  0  0  0  0  0
    6.7978    3.3571    2.0344 H   0  0  0  0  0  0  0  0  0  0  0  0
    8.3743    1.7516    0.9463 H   0  0  0  0  0  0  0  0  0  0  0  0
    7.4683   -0.2731   -0.1987 H   0  0  0  0  0  0  0  0  0  0  0  0
    5.0368   -0.6834   -0.2692 H   0  0  0  0  0  0  0  0  0  0  0  0
  1  2  1  0
  1 20  1  0
  1 21  1  0
  1 22  1  0
  2  3  1  0
  2  4  1  0
  2 23  1  6
  3 24  1  0
  3 25  1  0
  3 26  1  0
  4  5  1  0
  4 14  1  0
  4 27  1  6
  5  6  1  0
  5 28  1  0
  6  7  1  0
  6 29  1  0
  6 30  1  0
  7  8  1  0
  7 31  1  0
  7 32  1  0
  8  9  2  0
  8 13  1  0
  9 10  1  0
  9 33  1  0
 10 11  2  0
 10 34  1  0
 11 12  1  0
 11 35  1  0
 12 13  2  0
 12 36  1  0
 14 15  2  0
 14 19  1  0
 15 16  1  0
 15 37  1  0
 16 17  2  0
 16 38  1  0
 17 18  1  0
 17 39  1  0
 18 19  2  0
 18 40  1  0
 19 41  1  0
M  END

