
     RDKit          3D

 45 46  0  0  0  0  0  0  0  0999 V2000
    6.6242    5.8148   -2.7921 C   0  0  0  0  0  0  0  0  0  0  0  0
    6.7045    4.4945   -2.0535 C   0  0  0  0  0  0  0  0  0  0  0  0
    5.4223    3.8531   -2.1367 O   0  0  0  0  0  0  0  0  0  0  0  0
    5.2936    2.6627   -1.4774 C   0  0  0  0  0  0  0  0  0  0  0  0
    4.5227    2.6030   -0.3141 C   0  0  0  0  0  0  0  0  0  0  0  0
    4.3658    1.3924    0.3699 C   0  0  0  0  0  0  0  0  0  0  0  0
    4.9846    0.2384   -0.0966 C   0  0  0  0  0  0  0  0  0  0  0  0
    5.7597    0.2569   -1.2797 C   0  0  0  0  0  0  0  0  0  0  0  0
    6.4315   -0.9018   -1.8460 C   0  0  0  0  0  0  0  0  0  0  0  0
    6.4671   -2.2100   -1.4649 C   0  0  0  0  0  0  0  0  0  0  0  0
    5.7941   -2.7553   -0.3296 C   0  0  0  0  0  0  0  0  0  0  0  0
    5.2782   -3.2755    0.5754 N   0  0  0  0  0  0  0  0  0  0  0  0
    7.2899   -3.1518   -2.3315 C   0  0  0  0  0  0  0  0  0  0  0  0
    7.8673   -2.7425   -3.3243 O   0  0  0  0  0  0  0  0  0  0  0  0
    7.3111   -4.4510   -1.8965 N   0  0  0  0  0  0  0  0  0  0  0  0
    7.9668   -5.5632   -2.4611 C   0  0  0  0  0  0  0  0  0  0  0  0
    8.7483   -5.4918   -3.6286 C   0  0  0  0  0  0  0  0  0  0  0  0
    9.3535   -6.6554   -4.1046 C   0  0  0  0  0  0  0  0  0  0  0  0
    9.1989   -7.8791   -3.4479 C   0  0  0  0  0  0  0  0  0  0  0  0
    8.4233   -7.9633   -2.2820 C   0  0  0  0  0  0  0  0  0  0  0  0
    8.2482   -9.2693   -1.5441 C   0  0  0  0  0  0  0  0  0  0  0  0
    7.8143   -6.7964   -1.8040 C   0  0  0  0  0  0  0  0  0  0  0  0
    5.9006    1.4904   -1.9752 C   0  0  0  0  0  0  0  0  0  0  0  0
    6.6609    1.5405   -3.1057 O   0  0  0  0  0  0  0  0  0  0  0  0
    5.9713    1.7679   -4.3359 C   0  0  0  0  0  0  0  0  0  0  0  0
    7.5875    6.3443   -2.7266 H   0  0  0  0  0  0  0  0  0  0  0  0
    5.8426    6.4578   -2.3590 H   0  0  0  0  0  0  0  0  0  0  0  0
    6.3890    5.6577   -3.8562 H   0  0  0  0  0  0  0  0  0  0  0  0
    6.9565    4.6544   -0.9887 H   0  0  0  0  0  0  0  0  0  0  0  0
    7.4788    3.8394   -2.4878 H   0  0  0  0  0  0  0  0  0  0  0  0
    4.0558    3.5245    0.0406 H   0  0  0  0  0  0  0  0  0  0  0  0
    3.7640    1.3559    1.2806 H   0  0  0  0  0  0  0  0  0  0  0  0
    4.8628   -0.6906    0.4585 H   0  0  0  0  0  0  0  0  0  0  0  0
    7.0216   -0.7040   -2.7445 H   0  0  0  0  0  0  0  0  0  0  0  0
    6.7845   -4.6525   -1.0520 H   0  0  0  0  0  0  0  0  0  0  0  0
    8.8672   -4.5396   -4.1389 H   0  0  0  0  0  0  0  0  0  0  0  0
    9.9601   -6.6023   -5.0126 H   0  0  0  0  0  0  0  0  0  0  0  0
    9.6829   -8.7766   -3.8421 H   0  0  0  0  0  0  0  0  0  0  0  0
    8.6891  -10.1087   -2.1014 H   0  0  0  0  0  0  0  0  0  0  0  0
    7.1830   -9.4973   -1.3754 H   0  0  0  0  0  0  0  0  0  0  0  0
    8.7312   -9.2360   -0.5526 H   0  0  0  0  0  0  0  0  0  0  0  0
    7.2034   -6.8450   -0.8961 H   0  0  0  0  0  0  0  0  0  0  0  0
    6.7379    1.8001   -5.1216 H   0  0  0  0  0  0  0  0  0  0  0  0
    5.4182    2.7195   -4.3151 H   0  0  0  0  0  0  0  0  0  0  0  0
    5.2726    0.9403   -4.5483 H   0  0  0  0  0  0  0  0  0  0  0  0
  1  2  1  0
  1 26  1  0
  1 27  1  0
  1 28  1  0
  2  3  1  0
  2 29  1  0
  2 30  1  0
  3  4  1  0
  4  5  2  0
  4 23  1  0
  5  6  1  0
  5 31  1  0
  6  7  2  0
  6 32  1  0
  7  8  1  0
  7 33  1  0
  8  9  1  0
  8 23  2  0
  9 10  2  0
  9 34  1  0
 10 11  1  0
 10 13  1  0
 11 12  3  0
 13 14  2  0
 13 15  1  0
 15 16  1  0
 15 35  1  0
 16 17  2  0
 16 22  1  0
 17 18  1  0
 17 36  1  0
 18 19  2  0
 18 37  1  0
 19 20  1  0
 19 38  1  0
 20 21  1  0
 20 22  2  0
 21 39  1  0
 21 40  1  0
 21 41  1  0
 22 42  1  0
 23 24  1  0
 24 25  1  0
 25 43  1  0
 25 44  1  0
 25 45  1  0
M  END

