
     RDKit          3D

 42 42  0  0  0  0  0  0  0  0999 V2000
    1.1940    1.5049   -1.1751 C   0  0  0  0  0  0  0  0  0  0  0  0
    2.4076    2.2329   -0.5832 C   0  0  1  0  0  0  0  0  0  0  0  0
    2.0663    2.8764    0.7676 C   0  0  0  0  0  0  0  0  0  0  0  0
    3.6343    1.3162   -0.4215 C   0  0  0  0  0  0  0  0  0  0  0  0
    4.1595    0.5863   -1.6744 C   0  0  2  0  0  0  0  0  0  0  0  0
    3.3450   -0.0366   -2.0864 H   0  0  0  0  0  0  0  0  0  0  0  0
    5.3440   -0.1957   -1.3027 N   0  0  0  0  0  0  0  0  0  0  0  0
    4.4965    1.5929   -2.7927 C   0  0  0  0  0  0  0  0  0  0  0  0
    3.6196    2.0563   -3.5117 O   0  0  0  0  0  0  0  0  0  0  0  0
    5.8086    1.9300   -2.8620 N   0  0  0  0  0  0  0  0  0  0  0  0
    6.3540    2.8991   -3.8032 C   0  0  1  0  0  0  0  0  0  0  0  0
    7.1296    3.9833   -3.0465 C   0  0  0  0  0  0  0  0  0  0  0  0
    7.1991    2.2182   -4.8971 C   0  0  1  0  0  0  0  0  0  0  0  0
    6.4866    1.0835   -5.6574 C   0  0  0  0  0  0  0  0  0  0  0  0
    7.3487    0.9003   -6.9116 C   0  0  0  0  0  0  0  0  0  0  0  0
    7.7045    2.3419   -7.3321 C   0  0  0  0  0  0  0  0  0  0  0  0
    7.6695    3.1809   -6.0226 C   0  0  0  0  0  0  0  0  0  0  0  0
    0.3125    2.1665   -1.1888 H   0  0  0  0  0  0  0  0  0  0  0  0
    0.9289    0.6134   -0.5788 H   0  0  0  0  0  0  0  0  0  0  0  0
    1.3877    1.1937   -2.2115 H   0  0  0  0  0  0  0  0  0  0  0  0
    2.6777    3.0393   -1.2858 H   0  0  0  0  0  0  0  0  0  0  0  0
    1.7662    2.1145    1.5085 H   0  0  0  0  0  0  0  0  0  0  0  0
    1.2311    3.5882    0.6683 H   0  0  0  0  0  0  0  0  0  0  0  0
    2.9262    3.4252    1.1860 H   0  0  0  0  0  0  0  0  0  0  0  0
    3.3926    0.5390    0.3301 H   0  0  0  0  0  0  0  0  0  0  0  0
    4.4722    1.9003   -0.0013 H   0  0  0  0  0  0  0  0  0  0  0  0
    5.5051   -0.9495   -1.9709 H   0  0  0  0  0  0  0  0  0  0  0  0
    5.2137   -0.6358   -0.3922 H   0  0  0  0  0  0  0  0  0  0  0  0
    6.4168    1.4204   -2.2222 H   0  0  0  0  0  0  0  0  0  0  0  0
    5.4740    3.3527   -4.2877 H   0  0  0  0  0  0  0  0  0  0  0  0
    8.0006    3.5529   -2.5223 H   0  0  0  0  0  0  0  0  0  0  0  0
    6.4869    4.4685   -2.2961 H   0  0  0  0  0  0  0  0  0  0  0  0
    7.5029    4.7602   -3.7307 H   0  0  0  0  0  0  0  0  0  0  0  0
    8.0958    1.7851   -4.4116 H   0  0  0  0  0  0  0  0  0  0  0  0
    5.4654    1.4034   -5.9306 H   0  0  0  0  0  0  0  0  0  0  0  0
    6.3873    0.1643   -5.0597 H   0  0  0  0  0  0  0  0  0  0  0  0
    6.8453    0.3311   -7.7090 H   0  0  0  0  0  0  0  0  0  0  0  0
    8.2659    0.3443   -6.6489 H   0  0  0  0  0  0  0  0  0  0  0  0
    6.9550    2.7220   -8.0448 H   0  0  0  0  0  0  0  0  0  0  0  0
    8.6782    2.3984   -7.8432 H   0  0  0  0  0  0  0  0  0  0  0  0
    6.9575    4.0174   -6.1228 H   0  0  0  0  0  0  0  0  0  0  0  0
    8.6472    3.6303   -5.7906 H   0  0  0  0  0  0  0  0  0  0  0  0
  1  2  1  0
  1 18  1  0
  1 19  1  0
  1 20  1  0
  2  3  1  0
  2  4  1  0
  2 21  1  6
  3 22  1  0
  3 23  1  0
  3 24  1  0
  4  5  1  0
  4 25  1  0
  4 26  1  0
  5  6  1  6
  5  7  1  0
  5  8  1  0
  7 27  1  0
  7 28  1  0
  8  9  2  0
  8 10  1  0
 10 11  1  0
 10 29  1  0
 11 12  1  0
 11 13  1  0
 11 30  1  6
 12 31  1  0
 12 32  1  0
 12 33  1  0
 13 14  1  0
 13 17  1  0
 13 34  1  1
 14 15  1  0
 14 35  1  0
 14 36  1  0
 15 16  1  0
 15 37  1  0
 15 38  1  0
 16 17  1  0
 16 39  1  0
 16 40  1  0
 17 41  1  0
 17 42  1  0
M  END

