
     RDKit          3D

 49 52  0  0  0  0  0  0  0  0999 V2000
    1.0149   -0.2031    0.0381 C   0  0  0  0  0  0  0  0  0  0  0  0
    2.4575   -0.1128   -0.0093 N   0  0  0  0  0  0  0  0  0  0  0  0
    3.2524    1.0181   -0.1254 C   0  0  0  0  0  0  0  0  0  0  0  0
    2.6909    2.4057   -0.2110 C   0  0  0  0  0  0  0  0  0  0  0  0
    3.7161    3.4038   -0.7691 C   0  0  0  0  0  0  0  0  0  0  0  0
    3.2465    4.7780   -0.7286 N   0  0  0  0  0  0  0  0  0  0  0  0
    2.2772    5.2346   -1.5710 C   0  0  0  0  0  0  0  0  0  0  0  0
    1.6984    4.5258   -2.3852 O   0  0  0  0  0  0  0  0  0  0  0  0
    1.9508    6.6742   -1.4420 C   0  0  0  0  0  0  0  0  0  0  0  0
    1.0427    7.4461   -2.1175 C   0  0  0  0  0  0  0  0  0  0  0  0
    1.1622    8.7665   -1.5811 C   0  0  0  0  0  0  0  0  0  0  0  0
    2.1333    8.6990   -0.6199 C   0  0  0  0  0  0  0  0  0  0  0  0
    2.6189    7.4375   -0.5262 O   0  0  0  0  0  0  0  0  0  0  0  0
    4.5352    0.7428   -0.1250 N   0  0  0  0  0  0  0  0  0  0  0  0
    4.6267   -0.6304   -0.0024 C   0  0  0  0  0  0  0  0  0  0  0  0
    5.7656   -1.4461    0.0509 C   0  0  0  0  0  0  0  0  0  0  0  0
    5.5711   -2.8277    0.1819 C   0  0  0  0  0  0  0  0  0  0  0  0
    6.6359   -3.7542    0.2397 N   0  0  0  0  0  0  0  0  0  0  0  0
    7.9904   -3.5196    0.2301 C   0  0  0  0  0  0  0  0  0  0  0  0
    8.4898   -2.4056    0.2060 O   0  0  0  0  0  0  0  0  0  0  0  0
    8.8520   -4.7590    0.2718 C   0  0  0  0  0  0  0  0  0  0  0  0
    8.4263   -6.0259   -0.1607 C   0  0  0  0  0  0  0  0  0  0  0  0
    9.2921   -7.1216   -0.1076 C   0  0  0  0  0  0  0  0  0  0  0  0
   10.5935   -6.9628    0.3770 C   0  0  0  0  0  0  0  0  0  0  0  0
   11.0303   -5.7010    0.7957 C   0  0  0  0  0  0  0  0  0  0  0  0
   10.1686   -4.6058    0.7351 C   0  0  0  0  0  0  0  0  0  0  0  0
    4.2608   -3.3690    0.2575 C   0  0  0  0  0  0  0  0  0  0  0  0
    3.1250   -2.5649    0.2070 C   0  0  0  0  0  0  0  0  0  0  0  0
    3.3270   -1.1884    0.0746 C   0  0  0  0  0  0  0  0  0  0  0  0
    0.5721    0.7844   -0.1391 H   0  0  0  0  0  0  0  0  0  0  0  0
    0.6703   -0.5689    1.0202 H   0  0  0  0  0  0  0  0  0  0  0  0
    0.6433   -0.8912   -0.7388 H   0  0  0  0  0  0  0  0  0  0  0  0
    2.3686    2.7382    0.7937 H   0  0  0  0  0  0  0  0  0  0  0  0
    1.7971    2.4313   -0.8533 H   0  0  0  0  0  0  0  0  0  0  0  0
    3.9503    3.1282   -1.8092 H   0  0  0  0  0  0  0  0  0  0  0  0
    4.6516    3.3330   -0.1994 H   0  0  0  0  0  0  0  0  0  0  0  0
    3.6781    5.4344   -0.0895 H   0  0  0  0  0  0  0  0  0  0  0  0
    0.3794    7.0914   -2.9022 H   0  0  0  0  0  0  0  0  0  0  0  0
    0.6012    9.6526   -1.8707 H   0  0  0  0  0  0  0  0  0  0  0  0
    2.5700    9.4330    0.0526 H   0  0  0  0  0  0  0  0  0  0  0  0
    6.7664   -1.0267   -0.0012 H   0  0  0  0  0  0  0  0  0  0  0  0
    6.3533   -4.7163    0.3746 H   0  0  0  0  0  0  0  0  0  0  0  0
    7.4250   -6.1654   -0.5774 H   0  0  0  0  0  0  0  0  0  0  0  0
    8.9515   -8.1000   -0.4558 H   0  0  0  0  0  0  0  0  0  0  0  0
   11.2699   -7.8204    0.4200 H   0  0  0  0  0  0  0  0  0  0  0  0
   12.0499   -5.5708    1.1673 H   0  0  0  0  0  0  0  0  0  0  0  0
   10.4938   -3.6097    1.0408 H   0  0  0  0  0  0  0  0  0  0  0  0
    4.1399   -4.4518    0.3587 H   0  0  0  0  0  0  0  0  0  0  0  0
    2.1284   -3.0069    0.2696 H   0  0  0  0  0  0  0  0  0  0  0  0
  1  2  1  0
  1 30  1  0
  1 31  1  0
  1 32  1  0
  2  3  1  0
  2 29  1  0
  3  4  1  0
  3 14  2  0
  4  5  1  0
  4 33  1  0
  4 34  1  0
  5  6  1  0
  5 35  1  0
  5 36  1  0
  6  7  1  0
  6 37  1  0
  7  8  2  0
  7  9  1  0
  9 10  2  0
  9 13  1  0
 10 11  1  0
 10 38  1  0
 11 12  2  0
 11 39  1  0
 12 13  1  0
 12 40  1  0
 14 15  1  0
 15 16  1  0
 15 29  2  0
 16 17  2  0
 16 41  1  0
 17 18  1  0
 17 27  1  0
 18 19  1  0
 18 42  1  0
 19 20  2  0
 19 21  1  0
 21 22  2  0
 21 26  1  0
 22 23  1  0
 22 43  1  0
 23 24  2  0
 23 44  1  0
 24 25  1  0
 24 45  1  0
 25 26  2  0
 25 46  1  0
 26 47  1  0
 27 28  2  0
 27 48  1  0
 28 29  1  0
 28 49  1  0
M  END

