
     RDKit          3D

 44 43  0  0  0  0  0  0  0  0999 V2000
    2.4152    0.8751   -2.4440 C   0  0  0  0  0  0  0  0  0  0  0  0
    2.3030    0.3474   -1.0142 C   0  0  0  0  0  0  0  0  0  0  0  0
    2.9908    1.2268    0.0440 C   0  0  1  0  0  0  0  0  0  0  0  0
    2.7327    0.7226    1.4689 C   0  0  0  0  0  0  0  0  0  0  0  0
    4.4225    1.3428   -0.2198 N   0  0  0  0  0  0  0  0  0  0  0  0
    5.0860    2.5377   -0.2832 C   0  0  0  0  0  0  0  0  0  0  0  0
    4.5227    3.6164   -0.1786 O   0  0  0  0  0  0  0  0  0  0  0  0
    6.5944    2.4414   -0.4974 C   0  0  0  0  0  0  0  0  0  0  0  0
    7.0825    3.4568   -1.5541 C   0  0  0  0  0  0  0  0  0  0  0  0
    8.5176    3.6022   -1.7037 N   0  0  0  0  0  0  0  0  0  0  0  0
    9.2592    2.4455   -2.1745 C   0  0  0  0  0  0  0  0  0  0  0  0
   10.7181    2.8003   -2.4649 C   0  0  0  0  0  0  0  0  0  0  0  0
   11.5332    1.6326   -3.0235 C   0  0  0  0  0  0  0  0  0  0  0  0
   13.0047    1.9956   -3.2827 C   0  0  0  0  0  0  0  0  0  0  0  0
   13.8210    0.8600   -3.8399 C   0  0  0  0  0  0  0  0  0  0  0  0
   13.4949    0.3737   -5.0847 N   0  0  0  0  0  0  0  0  0  0  0  0
   14.7421    0.3583   -3.0896 N   0  0  0  0  0  0  0  0  0  0  0  0
   15.3930   -0.7018   -3.7633 O   0  0  0  0  0  0  0  0  0  0  0  0
    1.9056    0.2075   -3.1565 H   0  0  0  0  0  0  0  0  0  0  0  0
    3.4674    0.9614   -2.7575 H   0  0  0  0  0  0  0  0  0  0  0  0
    1.9619    1.8755   -2.5363 H   0  0  0  0  0  0  0  0  0  0  0  0
    2.7199   -0.6766   -0.9549 H   0  0  0  0  0  0  0  0  0  0  0  0
    1.2396    0.2506   -0.7351 H   0  0  0  0  0  0  0  0  0  0  0  0
    2.6086    2.2559   -0.0413 H   0  0  0  0  0  0  0  0  0  0  0  0
    3.1356   -0.2953    1.6111 H   0  0  0  0  0  0  0  0  0  0  0  0
    1.6528    0.6867    1.6840 H   0  0  0  0  0  0  0  0  0  0  0  0
    3.2069    1.3850    2.2088 H   0  0  0  0  0  0  0  0  0  0  0  0
    4.9656    0.4881   -0.2701 H   0  0  0  0  0  0  0  0  0  0  0  0
    6.8957    1.4135   -0.7580 H   0  0  0  0  0  0  0  0  0  0  0  0
    7.0720    2.6819    0.4702 H   0  0  0  0  0  0  0  0  0  0  0  0
    6.6478    4.4343   -1.2950 H   0  0  0  0  0  0  0  0  0  0  0  0
    6.6576    3.1823   -2.5367 H   0  0  0  0  0  0  0  0  0  0  0  0
    8.9342    3.9736   -0.8505 H   0  0  0  0  0  0  0  0  0  0  0  0
    8.7787    2.0933   -3.1064 H   0  0  0  0  0  0  0  0  0  0  0  0
    9.2362    1.5758   -1.4776 H   0  0  0  0  0  0  0  0  0  0  0  0
   11.1933    3.1636   -1.5340 H   0  0  0  0  0  0  0  0  0  0  0  0
   10.7348    3.6528   -3.1662 H   0  0  0  0  0  0  0  0  0  0  0  0
   11.0698    1.2713   -3.9585 H   0  0  0  0  0  0  0  0  0  0  0  0
   11.5014    0.7802   -2.3223 H   0  0  0  0  0  0  0  0  0  0  0  0
   13.4885    2.3146   -2.3479 H   0  0  0  0  0  0  0  0  0  0  0  0
   13.0543    2.8528   -3.9810 H   0  0  0  0  0  0  0  0  0  0  0  0
   13.0480    1.0075   -5.7352 H   0  0  0  0  0  0  0  0  0  0  0  0
   14.1674   -0.2725   -5.4842 H   0  0  0  0  0  0  0  0  0  0  0  0
   16.0766   -0.9591   -3.1342 H   0  0  0  0  0  0  0  0  0  0  0  0
  1  2  1  0
  1 19  1  0
  1 20  1  0
  1 21  1  0
  2  3  1  0
  2 22  1  0
  2 23  1  0
  3  4  1  0
  3  5  1  0
  3 24  1  1
  4 25  1  0
  4 26  1  0
  4 27  1  0
  5  6  1  0
  5 28  1  0
  6  7  2  0
  6  8  1  0
  8  9  1  0
  8 29  1  0
  8 30  1  0
  9 10  1  0
  9 31  1  0
  9 32  1  0
 10 11  1  0
 10 33  1  0
 11 12  1  0
 11 34  1  0
 11 35  1  0
 12 13  1  0
 12 36  1  0
 12 37  1  0
 13 14  1  0
 13 38  1  0
 13 39  1  0
 14 15  1  0
 14 40  1  0
 14 41  1  0
 15 16  1  0
 15 17  2  0
 16 42  1  0
 16 43  1  0
 17 18  1  0
 18 44  1  0
M  END

