
     RDKit          3D

 49 49  0  0  0  0  0  0  0  0999 V2000
    5.2960    3.3213   -1.9046 C   0  0  0  0  0  0  0  0  0  0  0  0
    4.8059    1.8819   -2.0285 C   0  0  0  0  0  0  0  0  0  0  0  0
    5.2623    1.0842   -0.8940 N   0  0  0  0  0  0  0  0  0  0  0  0
    4.9839   -0.3420   -0.9286 C   0  0  1  0  0  0  0  0  0  0  0  0
    5.9523   -1.1139    0.0015 C   0  0  0  0  0  0  0  0  0  0  0  0
    5.9350   -0.7316    1.4538 C   0  0  0  0  0  0  0  0  0  0  0  0
    6.4933    0.4219    2.0658 C   0  0  0  0  0  0  0  0  0  0  0  0
    6.2146    0.2707    3.4132 C   0  0  0  0  0  0  0  0  0  0  0  0
    5.5394   -0.9025    3.5479 N   0  0  0  0  0  0  0  0  0  0  0  0
    5.0318   -1.5135    4.7801 C   0  0  1  0  0  0  0  0  0  0  0  0
    3.4955   -1.5748    4.7699 C   0  0  0  0  0  0  0  0  0  0  0  0
    2.8176   -0.2104    4.6529 C   0  0  0  0  0  0  0  0  0  0  0  0
    5.6710   -2.8917    5.0141 C   0  0  0  0  0  0  0  0  0  0  0  0
    7.1943   -2.8662    5.1312 C   0  0  0  0  0  0  0  0  0  0  0  0
    5.3643   -1.5206    2.3677 N   0  0  0  0  0  0  0  0  0  0  0  0
    3.4996   -0.7052   -0.6668 C   0  0  1  0  0  0  0  0  0  0  0  0
    3.0281    0.1012    0.3583 O   0  0  0  0  0  0  0  0  0  0  0  0
    1.7397   -0.2273    0.8329 C   0  0  0  0  0  0  0  0  0  0  0  0
    2.6896   -0.4831   -1.8126 O   0  0  0  0  0  0  0  0  0  0  0  0
    2.5935   -1.5601   -2.7075 C   0  0  0  0  0  0  0  0  0  0  0  0
    4.9907    3.9206   -2.7774 H   0  0  0  0  0  0  0  0  0  0  0  0
    6.3937    3.3539   -1.8194 H   0  0  0  0  0  0  0  0  0  0  0  0
    4.8756    3.8072   -1.0074 H   0  0  0  0  0  0  0  0  0  0  0  0
    5.2210    1.4310   -2.9482 H   0  0  0  0  0  0  0  0  0  0  0  0
    3.7050    1.8711   -2.1544 H   0  0  0  0  0  0  0  0  0  0  0  0
    4.8741    1.4652   -0.0309 H   0  0  0  0  0  0  0  0  0  0  0  0
    5.2009   -0.6958   -1.9517 H   0  0  0  0  0  0  0  0  0  0  0  0
    6.9658   -0.9488   -0.3965 H   0  0  0  0  0  0  0  0  0  0  0  0
    5.7414   -2.1929   -0.0677 H   0  0  0  0  0  0  0  0  0  0  0  0
    7.0226    1.2363    1.5784 H   0  0  0  0  0  0  0  0  0  0  0  0
    6.4466    0.8942    4.2745 H   0  0  0  0  0  0  0  0  0  0  0  0
    5.3523   -0.8327    5.5881 H   0  0  0  0  0  0  0  0  0  0  0  0
    3.1725   -2.0774    5.6976 H   0  0  0  0  0  0  0  0  0  0  0  0
    3.1866   -2.2238    3.9340 H   0  0  0  0  0  0  0  0  0  0  0  0
    3.0927    0.4516    5.4915 H   0  0  0  0  0  0  0  0  0  0  0  0
    1.7209   -0.3128    4.6590 H   0  0  0  0  0  0  0  0  0  0  0  0
    3.1023    0.2963    3.7179 H   0  0  0  0  0  0  0  0  0  0  0  0
    5.3684   -3.5529    4.1858 H   0  0  0  0  0  0  0  0  0  0  0  0
    5.2305   -3.3123    5.9342 H   0  0  0  0  0  0  0  0  0  0  0  0
    7.6606   -2.4934    4.2061 H   0  0  0  0  0  0  0  0  0  0  0  0
    7.5910   -3.8762    5.3198 H   0  0  0  0  0  0  0  0  0  0  0  0
    7.5270   -2.2189    5.9604 H   0  0  0  0  0  0  0  0  0  0  0  0
    3.4116   -1.7803   -0.3859 H   0  0  0  0  0  0  0  0  0  0  0  0
    1.4919    0.4878    1.6294 H   0  0  0  0  0  0  0  0  0  0  0  0
    1.7170   -1.2506    1.2550 H   0  0  0  0  0  0  0  0  0  0  0  0
    0.9851   -0.1550    0.0322 H   0  0  0  0  0  0  0  0  0  0  0  0
    1.8824   -1.2742   -3.4963 H   0  0  0  0  0  0  0  0  0  0  0  0
    2.2202   -2.4794   -2.2121 H   0  0  0  0  0  0  0  0  0  0  0  0
    3.5601   -1.8054   -3.1906 H   0  0  0  0  0  0  0  0  0  0  0  0
  1  2  1  0
  1 21  1  0
  1 22  1  0
  1 23  1  0
  2  3  1  0
  2 24  1  0
  2 25  1  0
  3  4  1  0
  3 26  1  0
  4  5  1  0
  4 16  1  0
  4 27  1  6
  5  6  1  0
  5 28  1  0
  5 29  1  0
  6  7  1  0
  6 15  2  0
  7  8  2  0
  7 30  1  0
  8  9  1  0
  8 31  1  0
  9 10  1  0
  9 15  1  0
 10 11  1  0
 10 13  1  0
 10 32  1  1
 11 12  1  0
 11 33  1  0
 11 34  1  0
 12 35  1  0
 12 36  1  0
 12 37  1  0
 13 14  1  0
 13 38  1  0
 13 39  1  0
 14 40  1  0
 14 41  1  0
 14 42  1  0
 16 17  1  0
 16 19  1  0
 16 43  1  1
 17 18  1  0
 18 44  1  0
 18 45  1  0
 18 46  1  0
 19 20  1  0
 20 47  1  0
 20 48  1  0
 20 49  1  0
M  END

