
     RDKit          3D

 71 76  0  0  0  0  0  0  0  0999 V2000
    1.8825   -0.2620    2.1293 C   0  0  0  0  0  0  0  0  0  0  0  0
    2.9241   -0.0896    1.0477 C   0  0  0  0  0  0  0  0  0  0  0  0
    3.6005    1.1364    0.9360 C   0  0  0  0  0  0  0  0  0  0  0  0
    4.5533    1.3276   -0.0678 C   0  0  0  0  0  0  0  0  0  0  0  0
    5.2434    2.4944   -0.2723 O   0  0  0  0  0  0  0  0  0  0  0  0
    5.0367    3.6067    0.5820 C   0  0  0  0  0  0  0  0  0  0  0  0
    3.7298    4.3031    0.3282 C   0  0  0  0  0  0  0  0  0  0  0  0
    2.9120    5.0212    1.1730 C   0  0  0  0  0  0  0  0  0  0  0  0
    1.8179    5.5156    0.3818 C   0  0  0  0  0  0  0  0  0  0  0  0
    0.6799    6.3030    0.6511 C   0  0  0  0  0  0  0  0  0  0  0  0
   -0.2074    6.5900   -0.3866 C   0  0  0  0  0  0  0  0  0  0  0  0
    0.0155    6.1005   -1.6944 C   0  0  0  0  0  0  0  0  0  0  0  0
    1.1337    5.3266   -1.9921 C   0  0  0  0  0  0  0  0  0  0  0  0
    2.0289    5.0464   -0.9501 C   0  0  0  0  0  0  0  0  0  0  0  0
    3.2036    4.3291   -0.9472 N   0  0  0  0  0  0  0  0  0  0  0  0
    3.5998    3.8193   -1.7270 H   0  0  0  0  0  0  0  0  0  0  0  0
    4.8493    0.2843   -0.9535 C   0  0  0  0  0  0  0  0  0  0  0  0
    4.1896   -0.9440   -0.8618 C   0  0  0  0  0  0  0  0  0  0  0  0
    4.5224   -2.0489   -1.8372 C   0  0  0  0  0  0  0  0  0  0  0  0
    3.2105   -1.1334    0.1430 C   0  0  0  0  0  0  0  0  0  0  0  0
    2.4446   -2.4190    0.2280 C   0  0  0  0  0  0  0  0  0  0  0  0
    2.8920   -3.4958    1.0100 C   0  0  0  0  0  0  0  0  0  0  0  0
    2.1360   -4.6688    1.1031 C   0  0  0  0  0  0  0  0  0  0  0  0
    0.9206   -4.7780    0.4251 C   0  0  0  0  0  0  0  0  0  0  0  0
    0.4539   -3.7196   -0.3689 C   0  0  0  0  0  0  0  0  0  0  0  0
   -0.8958   -3.8131   -1.0473 C   0  0  0  0  0  0  0  0  0  0  0  0
   -1.9632   -3.4269   -0.1805 O   0  0  0  0  0  0  0  0  0  0  0  0
   -2.2215   -2.1103    0.0713 C   0  0  0  0  0  0  0  0  0  0  0  0
   -1.9923   -1.0730   -0.8502 C   0  0  0  0  0  0  0  0  0  0  0  0
   -2.3351    0.2484   -0.5205 C   0  0  0  0  0  0  0  0  0  0  0  0
   -2.8946    0.5335    0.7189 C   0  0  0  0  0  0  0  0  0  0  0  0
   -3.1210   -0.5177    1.6210 C   0  0  0  0  0  0  0  0  0  0  0  0
   -2.7917   -1.8364    1.3279 C   0  0  0  0  0  0  0  0  0  0  0  0
   -3.6809   -0.1084    2.7835 O   0  0  0  0  0  0  0  0  0  0  0  0
   -3.6776    1.3342    2.8021 C   0  0  0  0  0  0  0  0  0  0  0  0
   -3.4156    1.8113    1.3471 C   0  0  1  0  0  0  0  0  0  0  0  0
   -2.4753    3.0148    1.2466 C   0  0  0  0  0  0  0  0  0  0  0  0
   -3.0304    4.2622    1.9241 C   0  0  0  0  0  0  0  0  0  0  0  0
   -4.0282    4.2711    2.5967 O   0  0  0  0  0  0  0  0  0  0  0  0
   -2.3180    5.3915    1.7473 O   0  0  0  0  0  0  0  0  0  0  0  0
    1.2293   -2.5556   -0.4631 C   0  0  0  0  0  0  0  0  0  0  0  0
    1.8195    0.6317    2.7671 H   0  0  0  0  0  0  0  0  0  0  0  0
    2.1083   -1.1262    2.7737 H   0  0  0  0  0  0  0  0  0  0  0  0
    0.8838   -0.4478    1.7026 H   0  0  0  0  0  0  0  0  0  0  0  0
    3.3467    1.9386    1.6285 H   0  0  0  0  0  0  0  0  0  0  0  0
    5.8785    4.2826    0.3563 H   0  0  0  0  0  0  0  0  0  0  0  0
    5.1164    3.3282    1.6469 H   0  0  0  0  0  0  0  0  0  0  0  0
    3.0766    5.1813    2.2370 H   0  0  0  0  0  0  0  0  0  0  0  0
    0.5026    6.6957    1.6561 H   0  0  0  0  0  0  0  0  0  0  0  0
   -1.0827    7.2149   -0.1920 H   0  0  0  0  0  0  0  0  0  0  0  0
   -0.6961    6.3451   -2.4868 H   0  0  0  0  0  0  0  0  0  0  0  0
    1.3097    4.9560   -3.0050 H   0  0  0  0  0  0  0  0  0  0  0  0
    5.6072    0.4556   -1.7213 H   0  0  0  0  0  0  0  0  0  0  0  0
    5.3036   -1.7343   -2.5443 H   0  0  0  0  0  0  0  0  0  0  0  0
    3.6370   -2.3542   -2.4178 H   0  0  0  0  0  0  0  0  0  0  0  0
    4.8764   -2.9530   -1.3164 H   0  0  0  0  0  0  0  0  0  0  0  0
    3.8373   -3.4095    1.5526 H   0  0  0  0  0  0  0  0  0  0  0  0
    2.4961   -5.5005    1.7142 H   0  0  0  0  0  0  0  0  0  0  0  0
    0.3256   -5.6914    0.5128 H   0  0  0  0  0  0  0  0  0  0  0  0
   -1.1183   -4.8577   -1.3082 H   0  0  0  0  0  0  0  0  0  0  0  0
   -0.9082   -3.2302   -1.9824 H   0  0  0  0  0  0  0  0  0  0  0  0
   -1.5668   -1.2827   -1.8311 H   0  0  0  0  0  0  0  0  0  0  0  0
   -2.1605    1.0420   -1.2526 H   0  0  0  0  0  0  0  0  0  0  0  0
   -2.9594   -2.6452    2.0391 H   0  0  0  0  0  0  0  0  0  0  0  0
   -2.8717    1.6673    3.4809 H   0  0  0  0  0  0  0  0  0  0  0  0
   -4.6342    1.6811    3.2093 H   0  0  0  0  0  0  0  0  0  0  0  0
   -4.3753    2.0956    0.8793 H   0  0  0  0  0  0  0  0  0  0  0  0
   -2.2596    3.2511    0.1896 H   0  0  0  0  0  0  0  0  0  0  0  0
   -1.4972    2.7798    1.7057 H   0  0  0  0  0  0  0  0  0  0  0  0
   -1.5498    5.2588    1.1650 H   0  0  0  0  0  0  0  0  0  0  0  0
    0.8778   -1.7216   -1.0751 H   0  0  0  0  0  0  0  0  0  0  0  0
  1  2  1  0
  1 42  1  0
  1 43  1  0
  1 44  1  0
  2  3  2  0
  2 20  1  0
  3  4  1  0
  3 45  1  0
  4  5  1  0
  4 17  2  0
  5  6  1  0
  6  7  1  0
  6 46  1  0
  6 47  1  0
  7  8  2  0
  7 15  1  0
  8  9  1  0
  8 48  1  0
  9 10  2  0
  9 14  1  0
 10 11  1  0
 10 49  1  0
 11 12  2  0
 11 50  1  0
 12 13  1  0
 12 51  1  0
 13 14  2  0
 13 52  1  0
 14 15  1  0
 15 16  1  0
 17 18  1  0
 17 53  1  0
 18 19  1  0
 18 20  2  0
 19 54  1  0
 19 55  1  0
 19 56  1  0
 20 21  1  0
 21 22  2  0
 21 41  1  0
 22 23  1  0
 22 57  1  0
 23 24  2  0
 23 58  1  0
 24 25  1  0
 24 59  1  0
 25 26  1  0
 25 41  2  0
 26 27  1  0
 26 60  1  0
 26 61  1  0
 27 28  1  0
 28 29  2  0
 28 33  1  0
 29 30  1  0
 29 62  1  0
 30 31  2  0
 30 63  1  0
 31 32  1  0
 31 36  1  0
 32 33  2  0
 32 34  1  0
 33 64  1  0
 34 35  1  0
 35 36  1  0
 35 65  1  0
 35 66  1  0
 36 37  1  0
 36 67  1  6
 37 38  1  0
 37 68  1  0
 37 69  1  0
 38 39  2  0
 38 40  1  0
 40 70  1  0
 41 71  1  0
M  END

