
     RDKit          3D

 85 86  0  0  0  0  0  0  0  0999 V2000
   -9.6653   -3.1428   -3.4695 C   0  0  0  0  0  0  0  0  0  0  0  0
   -8.6397   -3.3476   -4.5576 C   0  0  0  0  0  0  0  0  0  0  0  0
   -8.8607   -3.1720   -5.8735 C   0  0  0  0  0  0  0  0  0  0  0  0
  -10.1253   -2.7382   -6.5761 C   0  0  1  0  0  0  0  0  0  0  0  0
  -10.9638   -2.7373   -5.8579 H   0  0  0  0  0  0  0  0  0  0  0  0
   -9.9382   -1.2948   -7.0856 C   0  0  0  0  0  0  0  0  0  0  0  0
  -10.5024   -3.7335   -7.7123 C   0  0  1  0  0  0  0  0  0  0  0  0
  -10.7072   -5.1548   -7.1704 C   0  0  0  0  0  0  0  0  0  0  0  0
  -11.7407   -3.2897   -8.5036 C   0  0  0  0  0  0  0  0  0  0  0  0
   -7.2470   -3.7441   -4.0978 C   0  0  1  0  0  0  0  0  0  0  0  0
   -6.5977   -3.8603   -4.9768 H   0  0  0  0  0  0  0  0  0  0  0  0
   -6.7065   -2.6452   -3.3006 O   0  0  0  0  0  0  0  0  0  0  0  0
   -5.9005   -1.7603   -3.9001 C   0  0  0  0  0  0  0  0  0  0  0  0
   -5.5760   -1.7816   -5.0612 O   0  0  0  0  0  0  0  0  0  0  0  0
   -5.5700   -0.6035   -2.9431 C   0  0  2  0  0  0  0  0  0  0  0  0
   -5.8353   -0.9179   -1.9186 H   0  0  0  0  0  0  0  0  0  0  0  0
   -6.4558    0.5833   -3.3760 C   0  0  0  0  0  0  0  0  0  0  0  0
   -6.0460    1.9086   -2.7373 C   0  0  0  0  0  0  0  0  0  0  0  0
   -4.5832    2.1904   -3.0753 C   0  0  0  0  0  0  0  0  0  0  0  0
   -3.6873    1.0678   -2.5659 C   0  0  0  0  0  0  0  0  0  0  0  0
   -4.1385   -0.2657   -2.9990 N   0  0  0  0  0  0  0  0  0  0  0  0
   -3.2632   -1.3039   -3.0044 C   0  0  0  0  0  0  0  0  0  0  0  0
   -3.5842   -2.4856   -2.9998 O   0  0  0  0  0  0  0  0  0  0  0  0
   -1.7580   -1.0269   -3.0049 C   0  0  0  0  0  0  0  0  0  0  0  0
   -1.1435   -0.9295   -1.9664 O   0  0  0  0  0  0  0  0  0  0  0  0
   -0.9937   -0.9451   -4.3574 C   0  0  2  0  0  0  0  0  0  0  0  0
    0.3636   -1.0437   -4.0896 O   0  0  0  0  0  0  0  0  0  0  0  0
   -1.3557    0.3639   -4.7928 O   0  0  0  0  0  0  0  0  0  0  0  0
   -0.7556    0.7968   -6.0288 C   0  0  2  0  0  0  0  0  0  0  0  0
   -1.1731    2.2620   -6.2365 C   0  0  1  0  0  0  0  0  0  0  0  0
   -0.6855    3.1468   -5.0814 C   0  0  0  0  0  0  0  0  0  0  0  0
   -0.6793    2.8153   -7.5803 C   0  0  0  0  0  0  0  0  0  0  0  0
   -1.1559   -0.1690   -7.1446 C   0  0  0  0  0  0  0  0  0  0  0  0
   -0.8073   -1.6112   -6.7608 C   0  0  0  0  0  0  0  0  0  0  0  0
   -1.4105   -2.0014   -5.4023 C   0  0  1  0  0  0  0  0  0  0  0  0
   -2.5080   -1.9308   -5.4915 H   0  0  0  0  0  0  0  0  0  0  0  0
   -1.0357   -3.4228   -4.9798 C   0  0  0  0  0  0  0  0  0  0  0  0
   -7.1577   -5.0100   -3.2245 C   0  0  1  0  0  0  0  0  0  0  0  0
   -7.8159   -6.2056   -3.9247 C   0  0  0  0  0  0  0  0  0  0  0  0
   -5.7013   -5.3232   -2.8578 C   0  0  0  0  0  0  0  0  0  0  0  0
  -10.5898   -2.6819   -3.8412 H   0  0  0  0  0  0  0  0  0  0  0  0
   -9.2565   -2.4960   -2.6761 H   0  0  0  0  0  0  0  0  0  0  0  0
   -9.9400   -4.0964   -2.9861 H   0  0  0  0  0  0  0  0  0  0  0  0
   -8.0044   -3.3208   -6.5450 H   0  0  0  0  0  0  0  0  0  0  0  0
   -9.6403   -0.6295   -6.2606 H   0  0  0  0  0  0  0  0  0  0  0  0
  -10.8611   -0.8888   -7.5261 H   0  0  0  0  0  0  0  0  0  0  0  0
   -9.1456   -1.2454   -7.8515 H   0  0  0  0  0  0  0  0  0  0  0  0
   -9.6460   -3.7594   -8.4143 H   0  0  0  0  0  0  0  0  0  0  0  0
  -11.5581   -5.1882   -6.4676 H   0  0  0  0  0  0  0  0  0  0  0  0
   -9.8197   -5.5229   -6.6344 H   0  0  0  0  0  0  0  0  0  0  0  0
  -10.9259   -5.8609   -7.9876 H   0  0  0  0  0  0  0  0  0  0  0  0
  -12.6143   -3.1719   -7.8387 H   0  0  0  0  0  0  0  0  0  0  0  0
  -12.0053   -4.0432   -9.2630 H   0  0  0  0  0  0  0  0  0  0  0  0
  -11.5884   -2.3361   -9.0301 H   0  0  0  0  0  0  0  0  0  0  0  0
   -7.5005    0.3263   -3.1405 H   0  0  0  0  0  0  0  0  0  0  0  0
   -6.3821    0.6748   -4.4721 H   0  0  0  0  0  0  0  0  0  0  0  0
   -6.1782    1.8664   -1.6407 H   0  0  0  0  0  0  0  0  0  0  0  0
   -6.6975    2.7180   -3.1042 H   0  0  0  0  0  0  0  0  0  0  0  0
   -4.2412    3.1378   -2.6286 H   0  0  0  0  0  0  0  0  0  0  0  0
   -4.4662    2.2854   -4.1686 H   0  0  0  0  0  0  0  0  0  0  0  0
   -3.6545    1.0977   -1.4597 H   0  0  0  0  0  0  0  0  0  0  0  0
   -2.6645    1.2124   -2.9356 H   0  0  0  0  0  0  0  0  0  0  0  0
    0.4746   -0.8061   -3.1501 H   0  0  0  0  0  0  0  0  0  0  0  0
    0.3437    0.7587   -5.9016 H   0  0  0  0  0  0  0  0  0  0  0  0
   -2.2792    2.2754   -6.2411 H   0  0  0  0  0  0  0  0  0  0  0  0
    0.4173    3.1816   -5.0538 H   0  0  0  0  0  0  0  0  0  0  0  0
   -1.0307    2.7699   -4.1088 H   0  0  0  0  0  0  0  0  0  0  0  0
   -1.0478    4.1808   -5.1988 H   0  0  0  0  0  0  0  0  0  0  0  0
    0.4181    2.7326   -7.6658 H   0  0  0  0  0  0  0  0  0  0  0  0
   -0.9355    3.8827   -7.6725 H   0  0  0  0  0  0  0  0  0  0  0  0
   -1.1250    2.2955   -8.4413 H   0  0  0  0  0  0  0  0  0  0  0  0
   -0.6440    0.1041   -8.0803 H   0  0  0  0  0  0  0  0  0  0  0  0
   -2.2421   -0.0770   -7.3237 H   0  0  0  0  0  0  0  0  0  0  0  0
    0.2893   -1.7291   -6.7148 H   0  0  0  0  0  0  0  0  0  0  0  0
   -1.1703   -2.3102   -7.5323 H   0  0  0  0  0  0  0  0  0  0  0  0
    0.0508   -3.5113   -4.8302 H   0  0  0  0  0  0  0  0  0  0  0  0
   -1.3391   -4.1423   -5.7569 H   0  0  0  0  0  0  0  0  0  0  0  0
   -1.5459   -3.7084   -4.0476 H   0  0  0  0  0  0  0  0  0  0  0  0
   -7.7094   -4.8042   -2.2895 H   0  0  0  0  0  0  0  0  0  0  0  0
   -7.3185   -6.4219   -4.8856 H   0  0  0  0  0  0  0  0  0  0  0  0
   -8.8831   -6.0377   -4.1342 H   0  0  0  0  0  0  0  0  0  0  0  0
   -7.7327   -7.1090   -3.3001 H   0  0  0  0  0  0  0  0  0  0  0  0
   -5.1213   -5.5925   -3.7570 H   0  0  0  0  0  0  0  0  0  0  0  0
   -5.6527   -6.1761   -2.1618 H   0  0  0  0  0  0  0  0  0  0  0  0
   -5.2010   -4.4638   -2.3916 H   0  0  0  0  0  0  0  0  0  0  0  0
  1  2  1  0
  1 41  1  0
  1 42  1  0
  1 43  1  0
  2  3  2  0
  2 10  1  0
  3  4  1  0
  3 44  1  0
  4  5  1  1
  4  6  1  0
  4  7  1  0
  6 45  1  0
  6 46  1  0
  6 47  1  0
  7  8  1  0
  7  9  1  0
  7 48  1  6
  8 49  1  0
  8 50  1  0
  8 51  1  0
  9 52  1  0
  9 53  1  0
  9 54  1  0
 10 11  1  6
 10 12  1  0
 10 38  1  0
 12 13  1  0
 13 14  2  0
 13 15  1  0
 15 16  1  1
 15 17  1  0
 15 21  1  0
 17 18  1  0
 17 55  1  0
 17 56  1  0
 18 19  1  0
 18 57  1  0
 18 58  1  0
 19 20  1  0
 19 59  1  0
 19 60  1  0
 20 21  1  0
 20 61  1  0
 20 62  1  0
 21 22  1  0
 22 23  2  0
 22 24  1  0
 24 25  2  0
 24 26  1  0
 26 27  1  1
 26 28  1  0
 26 35  1  0
 27 63  1  0
 28 29  1  0
 29 30  1  0
 29 33  1  0
 29 64  1  1
 30 31  1  0
 30 32  1  0
 30 65  1  6
 31 66  1  0
 31 67  1  0
 31 68  1  0
 32 69  1  0
 32 70  1  0
 32 71  1  0
 33 34  1  0
 33 72  1  0
 33 73  1  0
 34 35  1  0
 34 74  1  0
 34 75  1  0
 35 36  1  6
 35 37  1  0
 37 76  1  0
 37 77  1  0
 37 78  1  0
 38 39  1  0
 38 40  1  0
 38 79  1  1
 39 80  1  0
 39 81  1  0
 39 82  1  0
 40 83  1  0
 40 84  1  0
 40 85  1  0
M  END

