
     RDKit          3D

 43 44  0  0  0  0  0  0  0  0999 V2000
    0.7690    0.8627   -0.1553 C   0  0  0  0  0  0  0  0  0  0  0  0
    2.2876    0.6663   -0.1983 C   0  0  0  0  0  0  0  0  0  0  0  0
    2.9933    1.4673   -1.3080 C   0  0  1  0  0  0  0  0  0  0  0  0
    2.7271    2.9853   -1.1851 C   0  0  0  0  0  0  0  0  0  0  0  0
    3.3849    3.5587   -0.0297 N   0  0  0  0  0  0  0  0  0  0  0  0
    2.6856    4.0844    1.0417 C   0  0  0  0  0  0  0  0  0  0  0  0
    3.5147    4.4373    2.1055 N   0  0  0  0  0  0  0  0  0  0  0  0
    1.4065    4.2047    1.0166 N   0  0  0  0  0  0  0  0  0  0  0  0
    0.7380    4.8519    2.1149 C   0  0  0  0  0  0  0  0  0  0  0  0
    4.4616    1.2588   -1.3408 N   0  0  0  0  0  0  0  0  0  0  0  0
    5.0568    1.6122   -2.6281 C   0  0  0  0  0  0  0  0  0  0  0  0
    6.5529    1.8735   -2.4735 C   0  0  0  0  0  0  0  0  0  0  0  0
    7.2421    0.7631   -1.7130 C   0  0  0  0  0  0  0  0  0  0  0  0
    8.6386    0.6199   -1.7407 C   0  0  0  0  0  0  0  0  0  0  0  0
    9.2739   -0.3966   -1.0281 C   0  0  0  0  0  0  0  0  0  0  0  0
    8.5098   -1.2912   -0.2701 C   0  0  0  0  0  0  0  0  0  0  0  0
    7.1224   -1.1551   -0.2352 C   0  0  0  0  0  0  0  0  0  0  0  0
    6.4757   -0.1339   -0.9494 C   0  0  0  0  0  0  0  0  0  0  0  0
    4.9609   -0.0406   -0.9085 C   0  0  0  0  0  0  0  0  0  0  0  0
    0.3139    0.1519    0.5528 H   0  0  0  0  0  0  0  0  0  0  0  0
    0.3117    0.6800   -1.1430 H   0  0  0  0  0  0  0  0  0  0  0  0
    0.5005    1.8782    0.1714 H   0  0  0  0  0  0  0  0  0  0  0  0
    2.4949   -0.4047   -0.3474 H   0  0  0  0  0  0  0  0  0  0  0  0
    2.7199    0.9352    0.7812 H   0  0  0  0  0  0  0  0  0  0  0  0
    2.5485    1.1344   -2.2740 H   0  0  0  0  0  0  0  0  0  0  0  0
    1.6530    3.1890   -1.0990 H   0  0  0  0  0  0  0  0  0  0  0  0
    3.0712    3.4940   -2.1031 H   0  0  0  0  0  0  0  0  0  0  0  0
    4.2795    3.1215    0.1758 H   0  0  0  0  0  0  0  0  0  0  0  0
    4.4493    4.7436    1.8543 H   0  0  0  0  0  0  0  0  0  0  0  0
    3.0882    5.0221    2.8143 H   0  0  0  0  0  0  0  0  0  0  0  0
   -0.3082    5.0678    1.8452 H   0  0  0  0  0  0  0  0  0  0  0  0
    1.1925    5.8249    2.4104 H   0  0  0  0  0  0  0  0  0  0  0  0
    0.7051    4.2265    3.0320 H   0  0  0  0  0  0  0  0  0  0  0  0
    4.5686    2.5111   -3.0276 H   0  0  0  0  0  0  0  0  0  0  0  0
    4.8888    0.8034   -3.3771 H   0  0  0  0  0  0  0  0  0  0  0  0
    6.6953    2.8289   -1.9365 H   0  0  0  0  0  0  0  0  0  0  0  0
    7.0184    2.0013   -3.4655 H   0  0  0  0  0  0  0  0  0  0  0  0
    9.2332    1.3197   -2.3362 H   0  0  0  0  0  0  0  0  0  0  0  0
   10.3621   -0.4936   -1.0635 H   0  0  0  0  0  0  0  0  0  0  0  0
    8.9959   -2.0911    0.2943 H   0  0  0  0  0  0  0  0  0  0  0  0
    6.5243   -1.8527    0.3595 H   0  0  0  0  0  0  0  0  0  0  0  0
    4.6344   -0.2411    0.1209 H   0  0  0  0  0  0  0  0  0  0  0  0
    4.5464   -0.8691   -1.5338 H   0  0  0  0  0  0  0  0  0  0  0  0
  1  2  1  0
  1 20  1  0
  1 21  1  0
  1 22  1  0
  2  3  1  0
  2 23  1  0
  2 24  1  0
  3  4  1  0
  3 10  1  0
  3 25  1  6
  4  5  1  0
  4 26  1  0
  4 27  1  0
  5  6  1  0
  5 28  1  0
  6  7  1  0
  6  8  2  0
  7 29  1  0
  7 30  1  0
  8  9  1  0
  9 31  1  0
  9 32  1  0
  9 33  1  0
 10 11  1  0
 10 19  1  0
 11 12  1  0
 11 34  1  0
 11 35  1  0
 12 13  1  0
 12 36  1  0
 12 37  1  0
 13 14  1  0
 13 18  2  0
 14 15  2  0
 14 38  1  0
 15 16  1  0
 15 39  1  0
 16 17  2  0
 16 40  1  0
 17 18  1  0
 17 41  1  0
 18 19  1  0
 19 42  1  0
 19 43  1  0
M  END

