
     RDKit          3D

 78 83  0  0  0  0  0  0  0  0999 V2000
    1.0405   -0.0220    3.0763 C   0  0  0  0  0  0  0  0  0  0  0  0
    2.3490   -0.0585    2.5058 O   0  0  0  0  0  0  0  0  0  0  0  0
    2.4441    0.2942    1.2112 C   0  0  0  0  0  0  0  0  0  0  0  0
    1.4938    0.6292    0.5429 O   0  0  0  0  0  0  0  0  0  0  0  0
    3.8482    0.2249    0.7010 C   0  0  0  0  0  0  0  0  0  0  0  0
    4.9262   -0.1676    1.5067 C   0  0  0  0  0  0  0  0  0  0  0  0
    6.2152   -0.2161    0.9737 C   0  0  0  0  0  0  0  0  0  0  0  0
    6.4562    0.1297   -0.3646 C   0  0  0  0  0  0  0  0  0  0  0  0
    7.8546    0.0822   -0.9226 C   0  0  1  0  0  0  0  0  0  0  0  0
    8.0568   -0.6756   -2.2068 N   0  0  0  0  0  0  0  0  0  0  0  0
    8.6541    0.5066   -2.8277 N   0  0  0  0  0  0  0  0  0  0  0  0
   10.0384    0.3959   -3.0430 C   0  0  0  0  0  0  0  0  0  0  0  0
   10.5759   -0.3657   -3.8203 O   0  0  0  0  0  0  0  0  0  0  0  0
   10.6753    1.3176   -2.2106 N   0  0  0  0  0  0  0  0  0  0  0  0
   12.0564    1.6414   -2.1640 C   0  0  0  0  0  0  0  0  0  0  0  0
   12.4409    2.4786   -1.3697 O   0  0  0  0  0  0  0  0  0  0  0  0
   12.8188    0.9352   -3.0509 N   0  0  0  0  0  0  0  0  0  0  0  0
   14.2042    1.0257   -3.2549 C   0  0  0  0  0  0  0  0  0  0  0  0
   15.0446    1.9057   -2.5465 C   0  0  0  0  0  0  0  0  0  0  0  0
   16.4105    1.9207   -2.8311 C   0  0  0  0  0  0  0  0  0  0  0  0
   16.9617    1.0805   -3.8029 C   0  0  0  0  0  0  0  0  0  0  0  0
   16.1338    0.1951   -4.5136 C   0  0  0  0  0  0  0  0  0  0  0  0
   16.7120   -0.7569   -5.5346 C   0  0  0  0  0  0  0  0  0  0  0  0
   17.1362   -2.1452   -5.0346 C   0  0  0  0  0  0  0  0  0  0  0  0
   17.3730   -3.0528   -5.8071 O   0  0  0  0  0  0  0  0  0  0  0  0
   17.2379   -2.2864   -3.6659 N   0  0  0  0  0  0  0  0  0  0  0  0
   17.8622   -3.4234   -3.0340 C   0  0  2  0  0  0  0  0  0  0  0  0
   17.7961   -3.2542   -1.4997 C   0  0  0  0  0  0  0  0  0  0  0  0
   18.7039   -3.4968   -0.7619 O   0  0  0  0  0  0  0  0  0  0  0  0
   16.6093   -2.7994   -1.0457 O   0  0  0  0  0  0  0  0  0  0  0  0
   19.2941   -3.8695   -3.4873 C   0  0  0  0  0  0  0  0  0  0  0  0
   20.3588   -3.3406   -3.6185 O   0  0  0  0  0  0  0  0  0  0  0  0
   18.8405   -5.1624   -3.7011 N   0  0  0  0  0  0  0  0  0  0  0  0
   19.4214   -6.4114   -3.7846 C   0  0  0  0  0  0  0  0  0  0  0  0
   18.7142   -7.5453   -3.5804 C   0  0  0  0  0  0  0  0  0  0  0  0
   19.4144   -8.8726   -3.6453 C   0  0  0  0  0  0  0  0  0  0  0  0
   19.0114   -9.6632   -4.7908 O   0  0  0  0  0  0  0  0  0  0  0  0
   18.0384  -10.5811   -4.6214 C   0  0  0  0  0  0  0  0  0  0  0  0
   17.8046  -11.3567   -5.8945 C   0  0  0  0  0  0  0  0  0  0  0  0
   17.4442  -10.7494   -3.5834 O   0  0  0  0  0  0  0  0  0  0  0  0
   17.2374   -7.5336   -3.2429 C   0  0  0  0  0  0  0  0  0  0  0  0
   16.6710   -6.0493   -2.2981 S   0  0  0  0  0  0  0  0  0  0  0  0
   17.4313   -4.8751   -3.4830 C   0  0  1  0  0  0  0  0  0  0  0  0
   16.8685   -4.8642   -4.4246 H   0  0  0  0  0  0  0  0  0  0  0  0
   14.7625    0.1782   -4.2300 C   0  0  0  0  0  0  0  0  0  0  0  0
    9.7664    1.9683   -1.2621 C   0  0  0  0  0  0  0  0  0  0  0  0
    8.4102    1.3505   -1.6393 C   0  0  2  0  0  0  0  0  0  0  0  0
    5.3675    0.5214   -1.1655 C   0  0  0  0  0  0  0  0  0  0  0  0
    4.0789    0.5681   -0.6406 C   0  0  0  0  0  0  0  0  0  0  0  0
    1.1536   -0.3357    4.1211 H   0  0  0  0  0  0  0  0  0  0  0  0
    0.3630   -0.7056    2.5426 H   0  0  0  0  0  0  0  0  0  0  0  0
    0.6204    0.9938    3.0247 H   0  0  0  0  0  0  0  0  0  0  0  0
    4.7481   -0.4380    2.5480 H   0  0  0  0  0  0  0  0  0  0  0  0
    7.0491   -0.5315    1.6064 H   0  0  0  0  0  0  0  0  0  0  0  0
    8.5453   -0.2991   -0.1518 H   0  0  0  0  0  0  0  0  0  0  0  0
    7.1689   -0.8631   -2.6758 H   0  0  0  0  0  0  0  0  0  0  0  0
   12.3000    0.2466   -3.6073 H   0  0  0  0  0  0  0  0  0  0  0  0
   14.6195    2.5617   -1.7908 H   0  0  0  0  0  0  0  0  0  0  0  0
   17.0574    2.6104   -2.2831 H   0  0  0  0  0  0  0  0  0  0  0  0
   18.0330    1.1199   -4.0189 H   0  0  0  0  0  0  0  0  0  0  0  0
   17.6153   -0.3258   -5.9984 H   0  0  0  0  0  0  0  0  0  0  0  0
   16.0086   -0.9451   -6.3594 H   0  0  0  0  0  0  0  0  0  0  0  0
   17.1974   -1.4226   -3.1300 H   0  0  0  0  0  0  0  0  0  0  0  0
   15.9780   -2.7011   -1.7765 H   0  0  0  0  0  0  0  0  0  0  0  0
   20.4962   -6.4082   -3.9816 H   0  0  0  0  0  0  0  0  0  0  0  0
   19.2238   -9.4643   -2.7370 H   0  0  0  0  0  0  0  0  0  0  0  0
   20.4966   -8.7292   -3.7675 H   0  0  0  0  0  0  0  0  0  0  0  0
   18.7199  -11.9030   -6.1702 H   0  0  0  0  0  0  0  0  0  0  0  0
   17.5795  -10.6654   -6.7208 H   0  0  0  0  0  0  0  0  0  0  0  0
   16.9766  -12.0608   -5.7510 H   0  0  0  0  0  0  0  0  0  0  0  0
   16.9865   -8.3970   -2.6105 H   0  0  0  0  0  0  0  0  0  0  0  0
   16.6164   -7.6241   -4.1505 H   0  0  0  0  0  0  0  0  0  0  0  0
   14.1069   -0.5015   -4.7831 H   0  0  0  0  0  0  0  0  0  0  0  0
    9.7835    3.0590   -1.3994 H   0  0  0  0  0  0  0  0  0  0  0  0
   10.0709    1.7634   -0.2232 H   0  0  0  0  0  0  0  0  0  0  0  0
    7.6407    2.1181   -1.8106 H   0  0  0  0  0  0  0  0  0  0  0  0
    5.5248    0.7956   -2.2129 H   0  0  0  0  0  0  0  0  0  0  0  0
    3.2290    0.8713   -1.2549 H   0  0  0  0  0  0  0  0  0  0  0  0
  1  2  1  0
  1 50  1  0
  1 51  1  0
  1 52  1  0
  2  3  1  0
  3  4  2  0
  3  5  1  0
  5  6  2  0
  5 49  1  0
  6  7  1  0
  6 53  1  0
  7  8  2  0
  7 54  1  0
  8  9  1  0
  8 48  1  0
  9 10  1  0
  9 47  1  0
  9 55  1  1
 10 11  1  0
 10 56  1  0
 11 12  1  0
 11 47  1  0
 12 13  2  0
 12 14  1  0
 14 15  1  0
 14 46  1  0
 15 16  2  0
 15 17  1  0
 17 18  1  0
 17 57  1  0
 18 19  2  0
 18 45  1  0
 19 20  1  0
 19 58  1  0
 20 21  2  0
 20 59  1  0
 21 22  1  0
 21 60  1  0
 22 23  1  0
 22 45  2  0
 23 24  1  0
 23 61  1  0
 23 62  1  0
 24 25  2  0
 24 26  1  0
 26 27  1  0
 26 63  1  0
 27 28  1  1
 27 31  1  0
 27 43  1  0
 28 29  2  0
 28 30  1  0
 30 64  1  0
 31 32  2  0
 31 33  1  0
 33 34  1  0
 33 43  1  0
 34 35  2  0
 34 65  1  0
 35 36  1  0
 35 41  1  0
 36 37  1  0
 36 66  1  0
 36 67  1  0
 37 38  1  0
 38 39  1  0
 38 40  2  0
 39 68  1  0
 39 69  1  0
 39 70  1  0
 41 42  1  0
 41 71  1  0
 41 72  1  0
 42 43  1  0
 43 44  1  6
 45 73  1  0
 46 47  1  0
 46 74  1  0
 46 75  1  0
 47 76  1  6
 48 49  2  0
 48 77  1  0
 49 78  1  0
M  END

