
     RDKit          3D

 42 44  0  0  0  0  0  0  0  0999 V2000
    1.2456   -0.7508    0.1729 O   0  0  0  0  0  0  0  0  0  0  0  0
    2.4112   -0.3988    0.0945 C   0  0  0  0  0  0  0  0  0  0  0  0
    3.0927   -0.3042   -1.0835 N   0  0  0  0  0  0  0  0  0  0  0  0
    2.4863   -0.5339   -2.3894 C   0  0  1  0  0  0  0  0  0  0  0  0
    3.2525   -0.2504   -3.1242 H   0  0  0  0  0  0  0  0  0  0  0  0
    2.0518   -2.0002   -2.6505 C   0  0  0  0  0  0  0  0  0  0  0  0
    0.9230   -1.9110   -3.4906 O   0  0  0  0  0  0  0  0  0  0  0  0
    0.1600   -0.8177   -2.9970 C   0  0  0  0  0  0  0  0  0  0  0  0
    1.1776    0.2961   -2.6926 C   0  0  2  0  0  0  0  0  0  0  0  0
    0.8797    0.8462   -1.7893 H   0  0  0  0  0  0  0  0  0  0  0  0
    1.2920    1.2649   -3.7668 N   0  0  0  0  0  0  0  0  0  0  0  0
    2.0909    2.4498   -3.4991 C   0  0  0  0  0  0  0  0  0  0  0  0
    2.0716    3.2203   -4.8364 C   0  0  0  0  0  0  0  0  0  0  0  0
    1.6959    2.1473   -5.8963 C   0  0  0  0  0  0  0  0  0  0  0  0
    1.6607    0.8284   -5.1061 C   0  0  0  0  0  0  0  0  0  0  0  0
    3.2314   -0.0681    1.3247 C   0  0  0  0  0  0  0  0  0  0  0  0
    4.4128   -0.7835    1.5654 C   0  0  0  0  0  0  0  0  0  0  0  0
    5.1612   -0.5715    2.7264 C   0  0  0  0  0  0  0  0  0  0  0  0
    4.7393    0.3772    3.6576 C   0  0  0  0  0  0  0  0  0  0  0  0
    3.5735    1.1106    3.4219 C   0  0  0  0  0  0  0  0  0  0  0  0
    2.8137    0.8946    2.2674 C   0  0  0  0  0  0  0  0  0  0  0  0
    1.5608    1.7264    2.0589 C   0  0  1  0  0  0  0  0  0  0  0  0
    1.4599    2.1602    0.7853 F   0  0  0  0  0  0  0  0  0  0  0  0
    0.4425    1.0564    2.3519 F   0  0  0  0  0  0  0  0  0  0  0  0
    1.5752    2.8256    2.8396 F   0  0  0  0  0  0  0  0  0  0  0  0
    4.0199    0.1015   -1.0569 H   0  0  0  0  0  0  0  0  0  0  0  0
    1.8014   -2.4906   -1.6917 H   0  0  0  0  0  0  0  0  0  0  0  0
    2.8226   -2.5935   -3.1661 H   0  0  0  0  0  0  0  0  0  0  0  0
   -0.3643   -1.1009   -2.0666 H   0  0  0  0  0  0  0  0  0  0  0  0
   -0.5763   -0.5254   -3.7580 H   0  0  0  0  0  0  0  0  0  0  0  0
    3.1446    2.1961   -3.2275 H   0  0  0  0  0  0  0  0  0  0  0  0
    1.6734    3.0192   -2.6522 H   0  0  0  0  0  0  0  0  0  0  0  0
    3.0452    3.6911   -5.0403 H   0  0  0  0  0  0  0  0  0  0  0  0
    1.3213    4.0244   -4.8129 H   0  0  0  0  0  0  0  0  0  0  0  0
    2.4076    2.1054   -6.7346 H   0  0  0  0  0  0  0  0  0  0  0  0
    0.7020    2.3580   -6.3187 H   0  0  0  0  0  0  0  0  0  0  0  0
    2.6664    0.3451   -5.1373 H   0  0  0  0  0  0  0  0  0  0  0  0
    0.9458    0.0945   -5.5056 H   0  0  0  0  0  0  0  0  0  0  0  0
    4.7353   -1.5345    0.8400 H   0  0  0  0  0  0  0  0  0  0  0  0
    6.0714   -1.1505    2.9009 H   0  0  0  0  0  0  0  0  0  0  0  0
    5.3174    0.5546    4.5674 H   0  0  0  0  0  0  0  0  0  0  0  0
    3.2522    1.8685    4.1372 H   0  0  0  0  0  0  0  0  0  0  0  0
  1  2  2  0
  2  3  1  0
  2 16  1  0
  3  4  1  0
  3 26  1  0
  4  5  1  6
  4  6  1  0
  4  9  1  0
  6  7  1  0
  6 27  1  0
  6 28  1  0
  7  8  1  0
  8  9  1  0
  8 29  1  0
  8 30  1  0
  9 10  1  1
  9 11  1  0
 11 12  1  0
 11 15  1  0
 12 13  1  0
 12 31  1  0
 12 32  1  0
 13 14  1  0
 13 33  1  0
 13 34  1  0
 14 15  1  0
 14 35  1  0
 14 36  1  0
 15 37  1  0
 15 38  1  0
 16 17  2  0
 16 21  1  0
 17 18  1  0
 17 39  1  0
 18 19  2  0
 18 40  1  0
 19 20  1  0
 19 41  1  0
 20 21  2  0
 20 42  1  0
 21 22  1  0
 22 23  1  6
 22 24  1  0
 22 25  1  0
M  END

