
     RDKit          3D

 55 58  0  0  0  0  0  0  0  0999 V2000
    3.3407    2.1999    0.5567 C   0  0  0  0  0  0  0  0  0  0  0  0
    3.5388    0.6765    0.6169 C   0  0  1  0  0  0  0  0  0  0  0  0
    2.4213   -0.0250   -0.1855 C   0  0  0  0  0  0  0  0  0  0  0  0
    4.9092    0.3065    0.0085 C   0  0  0  0  0  0  0  0  0  0  0  0
    3.4915    0.1876    2.0528 C   0  0  0  0  0  0  0  0  0  0  0  0
    3.3099    0.9014    3.2214 C   0  0  0  0  0  0  0  0  0  0  0  0
    3.3568   -0.0254    4.2457 N   0  0  0  0  0  0  0  0  0  0  0  0
    3.5546   -1.2487    3.6606 C   0  0  0  0  0  0  0  0  0  0  0  0
    3.6437   -1.1481    2.3511 N   0  0  0  0  0  0  0  0  0  0  0  0
    3.7097   -2.4945    4.4826 C   0  0  0  0  0  0  0  0  0  0  0  0
    3.2177   -2.2907    5.9256 C   0  0  0  0  0  0  0  0  0  0  0  0
    3.6815   -0.9483    6.5100 C   0  0  1  0  0  0  0  0  0  0  0  0
    5.1335   -0.9151    6.6221 N   0  0  0  0  0  0  0  0  0  0  0  0
    5.7530   -0.0368    7.4610 C   0  0  0  0  0  0  0  0  0  0  0  0
    5.1184    0.7570    8.1424 O   0  0  0  0  0  0  0  0  0  0  0  0
    7.2670   -0.0729    7.5222 C   0  0  0  0  0  0  0  0  0  0  0  0
    7.8676    0.8941    8.3403 C   0  0  0  0  0  0  0  0  0  0  0  0
    9.2640    0.9696    8.4957 C   0  0  0  0  0  0  0  0  0  0  0  0
    9.8679    1.9271    9.3287 N   0  0  0  0  0  0  0  0  0  0  0  0
   11.3031    1.9447    9.5886 C   0  0  0  0  0  0  0  0  0  0  0  0
   11.4443    3.0349   10.6658 C   0  0  0  0  0  0  0  0  0  0  0  0
   10.2695    3.8419   10.4085 N   0  0  0  0  0  0  0  0  0  0  0  0
    9.2710    3.1177    9.7825 C   0  0  0  0  0  0  0  0  0  0  0  0
    8.1171    3.4598    9.6509 O   0  0  0  0  0  0  0  0  0  0  0  0
   10.0667    0.0368    7.8086 C   0  0  0  0  0  0  0  0  0  0  0  0
    9.4842   -0.9353    6.9959 C   0  0  0  0  0  0  0  0  0  0  0  0
    8.1046   -0.9815    6.8588 C   0  0  0  0  0  0  0  0  0  0  0  0
    7.5911   -1.9460    6.0532 F   0  0  0  0  0  0  0  0  0  0  0  0
    3.1312    0.2137    5.6648 C   0  0  0  0  0  0  0  0  0  0  0  0
    3.3759    2.5520   -0.4868 H   0  0  0  0  0  0  0  0  0  0  0  0
    4.1284    2.7318    1.1148 H   0  0  0  0  0  0  0  0  0  0  0  0
    2.3656    2.4968    0.9761 H   0  0  0  0  0  0  0  0  0  0  0  0
    2.4623    0.2640   -1.2491 H   0  0  0  0  0  0  0  0  0  0  0  0
    1.4265    0.2449    0.2048 H   0  0  0  0  0  0  0  0  0  0  0  0
    2.5261   -1.1177   -0.1144 H   0  0  0  0  0  0  0  0  0  0  0  0
    4.9573    0.5970   -1.0544 H   0  0  0  0  0  0  0  0  0  0  0  0
    5.0824   -0.7772    0.0842 H   0  0  0  0  0  0  0  0  0  0  0  0
    5.7279    0.8175    0.5408 H   0  0  0  0  0  0  0  0  0  0  0  0
    3.1549    1.9584    3.4188 H   0  0  0  0  0  0  0  0  0  0  0  0
    4.7723   -2.8032    4.4721 H   0  0  0  0  0  0  0  0  0  0  0  0
    3.1675   -3.3192    3.9950 H   0  0  0  0  0  0  0  0  0  0  0  0
    3.5564   -3.1173    6.5695 H   0  0  0  0  0  0  0  0  0  0  0  0
    2.1154   -2.3013    5.9458 H   0  0  0  0  0  0  0  0  0  0  0  0
    3.2751   -0.8150    7.5241 H   0  0  0  0  0  0  0  0  0  0  0  0
    5.6952   -1.5336    6.0512 H   0  0  0  0  0  0  0  0  0  0  0  0
    7.2135    1.5987    8.8492 H   0  0  0  0  0  0  0  0  0  0  0  0
   11.8691    2.2086    8.6751 H   0  0  0  0  0  0  0  0  0  0  0  0
   11.6628    0.9659    9.9402 H   0  0  0  0  0  0  0  0  0  0  0  0
   12.3792    3.6046   10.5514 H   0  0  0  0  0  0  0  0  0  0  0  0
   11.4352    2.5914   11.6802 H   0  0  0  0  0  0  0  0  0  0  0  0
    9.9751    4.5854   11.0305 H   0  0  0  0  0  0  0  0  0  0  0  0
   11.1530    0.0599    7.8932 H   0  0  0  0  0  0  0  0  0  0  0  0
   10.0946   -1.6631    6.4581 H   0  0  0  0  0  0  0  0  0  0  0  0
    3.6136    1.1532    5.9687 H   0  0  0  0  0  0  0  0  0  0  0  0
    2.0486    0.3185    5.8594 H   0  0  0  0  0  0  0  0  0  0  0  0
  2  1  1  1
  1 30  1  0
  1 31  1  0
  1 32  1  0
  2  3  1  0
  2  4  1  0
  2  5  1  0
  3 33  1  0
  3 34  1  0
  3 35  1  0
  4 36  1  0
  4 37  1  0
  4 38  1  0
  5  6  2  0
  5  9  1  0
  6  7  1  0
  6 39  1  0
  7  8  1  0
  7 29  1  0
  8  9  2  0
  8 10  1  0
 10 11  1  0
 10 40  1  0
 10 41  1  0
 11 12  1  0
 11 42  1  0
 11 43  1  0
 12 13  1  0
 12 29  1  0
 12 44  1  1
 13 14  1  0
 13 45  1  0
 14 15  2  0
 14 16  1  0
 16 17  2  0
 16 27  1  0
 17 18  1  0
 17 46  1  0
 18 19  1  0
 18 25  2  0
 19 20  1  0
 19 23  1  0
 20 21  1  0
 20 47  1  0
 20 48  1  0
 21 22  1  0
 21 49  1  0
 21 50  1  0
 22 23  1  0
 22 51  1  0
 23 24  2  0
 25 26  1  0
 25 52  1  0
 26 27  2  0
 26 53  1  0
 27 28  1  0
 29 54  1  0
 29 55  1  0
M  END

