
     RDKit          3D

 39 41  0  0  0  0  0  0  0  0999 V2000
    2.2822    1.0581    0.6428 C   0  0  0  0  0  0  0  0  0  0  0  0
    2.3917   -0.1894   -0.1098 N   0  0  0  0  0  0  0  0  0  0  0  0
    1.2682   -1.1423   -0.0724 C   0  0  1  0  0  0  0  0  0  0  0  0
    0.8875   -1.6271    1.3356 C   0  0  0  0  0  0  0  0  0  0  0  0
   -0.4286   -2.3688    1.0699 C   0  0  0  0  0  0  0  0  0  0  0  0
   -1.1742   -1.4767    0.0452 C   0  0  0  0  0  0  0  0  0  0  0  0
   -0.0726   -0.6653   -0.6895 C   0  0  0  0  0  0  0  0  0  0  0  0
    3.1437   -0.0119   -1.6147 S   0  0  1  0  0  0  0  0  0  0  0  0
    2.9974   -1.3035   -2.2963 O   0  0  0  0  0  0  0  0  0  0  0  0
    2.7123    1.2138   -2.2924 O   0  0  0  0  0  0  0  0  0  0  0  0
    4.7093    0.2792   -1.1367 N   0  0  0  0  0  0  0  0  0  0  0  0
    5.5708    1.2070   -1.9168 C   0  0  0  0  0  0  0  0  0  0  0  0
    6.9630    0.5981   -1.6564 C   0  0  2  0  0  0  0  0  0  0  0  0
    7.0789   -0.7267   -2.4512 C   0  0  0  0  0  0  0  0  0  0  0  0
    6.1183   -1.6907   -1.6828 C   0  0  0  0  0  0  0  0  0  0  0  0
    5.5737   -0.7796   -0.5598 C   0  0  1  0  0  0  0  0  0  0  0  0
    6.8027    0.0769   -0.2108 C   0  0  0  0  0  0  0  0  0  0  0  0
    2.1324    0.8274    1.7072 H   0  0  0  0  0  0  0  0  0  0  0  0
    1.4623    1.7110    0.2955 H   0  0  0  0  0  0  0  0  0  0  0  0
    3.2255    1.6124    0.5519 H   0  0  0  0  0  0  0  0  0  0  0  0
    1.6139   -2.0189   -0.6362 H   0  0  0  0  0  0  0  0  0  0  0  0
    0.7040   -0.7734    2.0105 H   0  0  0  0  0  0  0  0  0  0  0  0
    1.6693   -2.2530    1.7933 H   0  0  0  0  0  0  0  0  0  0  0  0
   -1.0130   -2.5524    1.9845 H   0  0  0  0  0  0  0  0  0  0  0  0
   -0.2083   -3.3542    0.6256 H   0  0  0  0  0  0  0  0  0  0  0  0
   -1.8676   -0.7971    0.5660 H   0  0  0  0  0  0  0  0  0  0  0  0
   -1.7860   -2.0763   -0.6455 H   0  0  0  0  0  0  0  0  0  0  0  0
   -0.2066    0.4151   -0.5241 H   0  0  0  0  0  0  0  0  0  0  0  0
   -0.0732   -0.8188   -1.7786 H   0  0  0  0  0  0  0  0  0  0  0  0
    5.4766    2.2365   -1.5331 H   0  0  0  0  0  0  0  0  0  0  0  0
    5.3093    1.2216   -2.9859 H   0  0  0  0  0  0  0  0  0  0  0  0
    7.7816    1.3100   -1.8339 H   0  0  0  0  0  0  0  0  0  0  0  0
    8.1168   -1.0944   -2.4378 H   0  0  0  0  0  0  0  0  0  0  0  0
    6.7937   -0.5964   -3.5065 H   0  0  0  0  0  0  0  0  0  0  0  0
    6.6580   -2.5486   -1.2505 H   0  0  0  0  0  0  0  0  0  0  0  0
    5.3032   -2.0823   -2.3039 H   0  0  0  0  0  0  0  0  0  0  0  0
    5.0610   -1.2896    0.2659 H   0  0  0  0  0  0  0  0  0  0  0  0
    7.6587   -0.5245    0.1316 H   0  0  0  0  0  0  0  0  0  0  0  0
    6.5855    0.8626    0.5284 H   0  0  0  0  0  0  0  0  0  0  0  0
  1  2  1  0
  1 18  1  0
  1 19  1  0
  1 20  1  0
  2  3  1  0
  8  2  1  1
  3  4  1  0
  3  7  1  0
  3 21  1  6
  4  5  1  0
  4 22  1  0
  4 23  1  0
  5  6  1  0
  5 24  1  0
  5 25  1  0
  6  7  1  0
  6 26  1  0
  6 27  1  0
  7 28  1  0
  7 29  1  0
  8  9  2  0
  8 10  2  0
  8 11  1  0
 11 12  1  0
 11 16  1  0
 12 13  1  0
 12 30  1  0
 12 31  1  0
 13 14  1  0
 13 17  1  0
 13 32  1  1
 14 15  1  0
 14 33  1  0
 14 34  1  0
 15 16  1  0
 15 35  1  0
 15 36  1  0
 16 17  1  0
 16 37  1  1
 17 38  1  0
 17 39  1  0
M  END

