
     RDKit          3D

 39 40  0  0  0  0  0  0  0  0999 V2000
    2.1246    0.3771    1.2908 C   0  0  0  0  0  0  0  0  0  0  0  0
    2.6043   -0.0521    0.0343 O   0  0  0  0  0  0  0  0  0  0  0  0
    2.9509    0.8702   -0.9147 C   0  0  0  0  0  0  0  0  0  0  0  0
    2.8086    2.2487   -0.7087 C   0  0  0  0  0  0  0  0  0  0  0  0
    3.1867    3.1564   -1.7011 C   0  0  0  0  0  0  0  0  0  0  0  0
    3.7190    2.7123   -2.9149 C   0  0  0  0  0  0  0  0  0  0  0  0
    4.1621    3.6897   -3.9838 C   0  0  0  0  0  0  0  0  0  0  0  0
    3.7336    3.2809   -5.3128 N   0  0  0  0  0  0  0  0  0  0  0  0
    4.1504    4.1672   -6.3808 C   0  0  0  0  0  0  0  0  0  0  0  0
    3.7724    3.6126   -7.7178 C   0  0  0  0  0  0  0  0  0  0  0  0
    3.5085    2.3505   -8.1665 C   0  0  0  0  0  0  0  0  0  0  0  0
    3.2371    2.5358   -9.5604 C   0  0  0  0  0  0  0  0  0  0  0  0
    2.8828    1.5040  -10.5849 C   0  0  0  0  0  0  0  0  0  0  0  0
    3.3334    3.8022   -9.8981 N   0  0  0  0  0  0  0  0  0  0  0  0
    3.6669    4.4831   -8.7366 O   0  0  0  0  0  0  0  0  0  0  0  0
    3.8468    1.3321   -3.1126 C   0  0  0  0  0  0  0  0  0  0  0  0
    3.4750    0.3899   -2.1428 C   0  0  0  0  0  0  0  0  0  0  0  0
    3.6764   -1.0571   -2.4476 C   0  0  0  0  0  0  0  0  0  0  0  0
    2.8652   -2.0025   -1.8763 N   0  0  0  0  0  0  0  0  0  0  0  0
    4.5940   -1.3412   -3.3189 N   0  0  0  0  0  0  0  0  0  0  0  0
    4.6389   -2.7329   -3.5338 O   0  0  0  0  0  0  0  0  0  0  0  0
    1.9443   -0.5309    1.8818 H   0  0  0  0  0  0  0  0  0  0  0  0
    1.1782    0.9391    1.2001 H   0  0  0  0  0  0  0  0  0  0  0  0
    2.8653    1.0049    1.8163 H   0  0  0  0  0  0  0  0  0  0  0  0
    2.3991    2.6277    0.2270 H   0  0  0  0  0  0  0  0  0  0  0  0
    3.0574    4.2273   -1.5192 H   0  0  0  0  0  0  0  0  0  0  0  0
    5.2675    3.7471   -3.9964 H   0  0  0  0  0  0  0  0  0  0  0  0
    3.8135    4.7099   -3.7069 H   0  0  0  0  0  0  0  0  0  0  0  0
    2.7228    3.1476   -5.3335 H   0  0  0  0  0  0  0  0  0  0  0  0
    5.2509    4.2730   -6.3344 H   0  0  0  0  0  0  0  0  0  0  0  0
    3.7499    5.2034   -6.3077 H   0  0  0  0  0  0  0  0  0  0  0  0
    3.5156    1.4307   -7.5888 H   0  0  0  0  0  0  0  0  0  0  0  0
    3.6785    0.7468  -10.6734 H   0  0  0  0  0  0  0  0  0  0  0  0
    2.7398    1.9805  -11.5644 H   0  0  0  0  0  0  0  0  0  0  0  0
    1.9553    0.9767  -10.3094 H   0  0  0  0  0  0  0  0  0  0  0  0
    4.2437    0.9586   -4.0563 H   0  0  0  0  0  0  0  0  0  0  0  0
    2.4366   -1.7552   -0.9940 H   0  0  0  0  0  0  0  0  0  0  0  0
    3.1860   -2.9573   -1.9935 H   0  0  0  0  0  0  0  0  0  0  0  0
    5.3911   -2.8273   -4.1296 H   0  0  0  0  0  0  0  0  0  0  0  0
  1  2  1  0
  1 22  1  0
  1 23  1  0
  1 24  1  0
  2  3  1  0
  3  4  2  0
  3 17  1  0
  4  5  1  0
  4 25  1  0
  5  6  2  0
  5 26  1  0
  6  7  1  0
  6 16  1  0
  7  8  1  0
  7 27  1  0
  7 28  1  0
  8  9  1  0
  8 29  1  0
  9 10  1  0
  9 30  1  0
  9 31  1  0
 10 11  2  0
 10 15  1  0
 11 12  1  0
 11 32  1  0
 12 13  1  0
 12 14  2  0
 13 33  1  0
 13 34  1  0
 13 35  1  0
 14 15  1  0
 16 17  2  0
 16 36  1  0
 17 18  1  0
 18 19  1  0
 18 20  2  0
 19 37  1  0
 19 38  1  0
 20 21  1  0
 21 39  1  0
M  END

