
     RDKit          3D

 37 38  0  0  0  0  0  0  0  0999 V2000
    5.0274   -1.2095   -0.8432 C   0  0  0  0  0  0  0  0  0  0  0  0
    4.2943   -0.7871    0.4074 C   0  0  0  0  0  0  0  0  0  0  0  0
    4.9576   -0.0238    1.3767 C   0  0  0  0  0  0  0  0  0  0  0  0
    4.3056    0.3670    2.5491 C   0  0  0  0  0  0  0  0  0  0  0  0
    5.1657    1.3248    3.7351 Cl  0  0  0  0  0  0  0  0  0  0  0  0
    2.9821   -0.0025    2.7813 C   0  0  0  0  0  0  0  0  0  0  0  0
    2.3179   -0.7647    1.8170 C   0  0  0  0  0  0  0  0  0  0  0  0
    2.9462   -1.1579    0.6292 C   0  0  0  0  0  0  0  0  0  0  0  0
    2.2218   -1.9974   -0.4060 C   0  0  0  0  0  0  0  0  0  0  0  0
    0.7838   -2.0486   -0.2083 N   0  0  0  0  0  0  0  0  0  0  0  0
    0.0823   -3.1474   -0.5967 C   0  0  0  0  0  0  0  0  0  0  0  0
    0.5261   -4.3091   -0.9724 N   0  0  0  0  0  0  0  0  0  0  0  0
   -0.6085   -5.0892   -1.1899 N   0  0  0  0  0  0  0  0  0  0  0  0
   -1.6395   -4.3560   -0.9501 C   0  0  0  0  0  0  0  0  0  0  0  0
   -3.1050   -4.6844   -1.0402 C   0  0  1  0  0  0  0  0  0  0  0  0
   -3.2536   -6.1479   -1.4877 C   0  0  0  0  0  0  0  0  0  0  0  0
   -3.7555   -4.4832    0.3473 C   0  0  0  0  0  0  0  0  0  0  0  0
   -3.7722   -3.7430   -2.0686 C   0  0  0  0  0  0  0  0  0  0  0  0
   -1.2700   -3.0819   -0.5605 O   0  0  0  0  0  0  0  0  0  0  0  0
    6.0720   -0.8680   -0.8258 H   0  0  0  0  0  0  0  0  0  0  0  0
    4.5568   -0.7981   -1.7525 H   0  0  0  0  0  0  0  0  0  0  0  0
    5.0350   -2.3061   -0.9605 H   0  0  0  0  0  0  0  0  0  0  0  0
    5.9973    0.2708    1.2212 H   0  0  0  0  0  0  0  0  0  0  0  0
    2.4812    0.2974    3.7031 H   0  0  0  0  0  0  0  0  0  0  0  0
    1.2860   -1.0709    1.9987 H   0  0  0  0  0  0  0  0  0  0  0  0
    2.5812   -3.0395   -0.3780 H   0  0  0  0  0  0  0  0  0  0  0  0
    2.4644   -1.6310   -1.4215 H   0  0  0  0  0  0  0  0  0  0  0  0
    0.2737   -1.1721   -0.2316 H   0  0  0  0  0  0  0  0  0  0  0  0
   -2.7725   -6.8328   -0.7744 H   0  0  0  0  0  0  0  0  0  0  0  0
   -2.7855   -6.3135   -2.4690 H   0  0  0  0  0  0  0  0  0  0  0  0
   -4.3214   -6.4079   -1.5590 H   0  0  0  0  0  0  0  0  0  0  0  0
   -3.3009   -5.1489    1.0975 H   0  0  0  0  0  0  0  0  0  0  0  0
   -4.8322   -4.7105    0.2963 H   0  0  0  0  0  0  0  0  0  0  0  0
   -3.6421   -3.4454    0.6966 H   0  0  0  0  0  0  0  0  0  0  0  0
   -3.3304   -3.8729   -3.0690 H   0  0  0  0  0  0  0  0  0  0  0  0
   -3.6594   -2.6872   -1.7778 H   0  0  0  0  0  0  0  0  0  0  0  0
   -4.8492   -3.9638   -2.1396 H   0  0  0  0  0  0  0  0  0  0  0  0
  1  2  1  0
  1 20  1  0
  1 21  1  0
  1 22  1  0
  2  3  2  0
  2  8  1  0
  3  4  1  0
  3 23  1  0
  4  5  1  0
  4  6  2  0
  6  7  1  0
  6 24  1  0
  7  8  2  0
  7 25  1  0
  8  9  1  0
  9 10  1  0
  9 26  1  0
  9 27  1  0
 10 11  1  0
 10 28  1  0
 11 12  2  0
 11 19  1  0
 12 13  1  0
 13 14  2  0
 14 15  1  0
 14 19  1  0
 15 16  1  6
 15 17  1  0
 15 18  1  0
 16 29  1  0
 16 30  1  0
 16 31  1  0
 17 32  1  0
 17 33  1  0
 17 34  1  0
 18 35  1  0
 18 36  1  0
 18 37  1  0
M  END

