
     RDKit          3D

118125  0  0  0  0  0  0  0  0999 V2000
    1.1079   -0.2006    1.0685 C   0  0  0  0  0  0  0  0  0  0  0  0
    2.6298   -0.1844    0.9184 C   0  0  0  0  0  0  0  0  0  0  0  0
    3.1073    0.6135   -0.2981 C   0  0  0  0  0  0  0  0  0  0  0  0
    4.6209    0.6272   -0.4447 C   0  0  0  0  0  0  0  0  0  0  0  0
    4.9493    1.3881   -1.5947 O   0  0  0  0  0  0  0  0  0  0  0  0
    6.2485    1.5512   -1.9499 C   0  0  0  0  0  0  0  0  0  0  0  0
    7.3412    1.0167   -1.2510 C   0  0  0  0  0  0  0  0  0  0  0  0
    8.6419    1.2495   -1.7111 C   0  0  0  0  0  0  0  0  0  0  0  0
    8.8985    2.0148   -2.8591 C   0  0  0  0  0  0  0  0  0  0  0  0
   10.2911    2.2065   -3.3538 C   0  0  0  0  0  0  0  0  0  0  0  0
   11.0898    1.0742   -3.5572 C   0  0  0  0  0  0  0  0  0  0  0  0
   12.4047    1.1372   -4.0340 C   0  0  0  0  0  0  0  0  0  0  0  0
   13.1684   -0.1355   -4.1759 C   0  0  0  0  0  0  0  0  0  0  0  0
   12.6495   -1.2049   -4.9212 C   0  0  0  0  0  0  0  0  0  0  0  0
   13.3233   -2.4263   -5.0330 C   0  0  0  0  0  0  0  0  0  0  0  0
   14.5526   -2.6061   -4.3814 C   0  0  0  0  0  0  0  0  0  0  0  0
   15.2892   -3.7449   -4.4214 O   0  0  0  0  0  0  0  0  0  0  0  0
   14.8232   -4.8628   -5.1577 C   0  0  0  0  0  0  0  0  0  0  0  0
   15.8425   -5.9831   -5.0199 C   0  0  0  0  0  0  0  0  0  0  0  0
   15.4454   -7.2521   -5.7792 C   0  0  0  0  0  0  0  0  0  0  0  0
   16.4689   -8.3803   -5.6434 C   0  0  0  0  0  0  0  0  0  0  0  0
   15.0836   -1.5480   -3.6222 C   0  0  0  0  0  0  0  0  0  0  0  0
   14.4033   -0.3397   -3.5241 C   0  0  0  0  0  0  0  0  0  0  0  0
   12.9493    2.4055   -4.3737 C   0  0  0  0  0  0  0  0  0  0  0  0
   14.2572    2.5497   -4.9488 C   0  0  0  0  0  0  0  0  0  0  0  0
   14.7708    3.7717   -5.2674 C   0  0  0  0  0  0  0  0  0  0  0  0
   14.0304    4.9835   -5.0529 C   0  0  0  0  0  0  0  0  0  0  0  0
   14.5619    6.2638   -5.3666 C   0  0  0  0  0  0  0  0  0  0  0  0
   15.8960    6.4533   -6.0056 C   0  0  0  0  0  0  0  0  0  0  0  0
   16.2189    5.8742   -7.2429 C   0  0  0  0  0  0  0  0  0  0  0  0
   17.4537    6.0949   -7.8623 C   0  0  0  0  0  0  0  0  0  0  0  0
   18.4087    6.9165   -7.2438 C   0  0  0  0  0  0  0  0  0  0  0  0
   19.6346    7.1942   -7.7552 O   0  0  0  0  0  0  0  0  0  0  0  0
   20.0275    6.6348   -8.9989 C   0  0  0  0  0  0  0  0  0  0  0  0
   21.4428    7.0966   -9.3118 C   0  0  0  0  0  0  0  0  0  0  0  0
   22.4974    6.6078   -8.3142 C   0  0  0  0  0  0  0  0  0  0  0  0
   23.9073    7.1041   -8.6353 C   0  0  0  0  0  0  0  0  0  0  0  0
   18.0995    7.5104   -6.0078 C   0  0  0  0  0  0  0  0  0  0  0  0
   16.8661    7.2833   -5.4072 C   0  0  0  0  0  0  0  0  0  0  0  0
   13.7965    7.4010   -5.0813 C   0  0  0  0  0  0  0  0  0  0  0  0
   12.5098    7.3426   -4.5311 C   0  0  0  0  0  0  0  0  0  0  0  0
   11.7711    8.6209   -4.3245 C   0  0  0  0  0  0  0  0  0  0  0  0
   10.5108    8.8545   -4.8972 C   0  0  0  0  0  0  0  0  0  0  0  0
    9.8430   10.0740   -4.7421 C   0  0  0  0  0  0  0  0  0  0  0  0
   10.4352   11.1050   -3.9964 C   0  0  0  0  0  0  0  0  0  0  0  0
    9.8756   12.3220   -3.7813 O   0  0  0  0  0  0  0  0  0  0  0  0
    8.6008   12.6207   -4.3242 C   0  0  0  0  0  0  0  0  0  0  0  0
    8.2299   14.0385   -3.9178 C   0  0  0  0  0  0  0  0  0  0  0  0
    6.8631   14.4772   -4.4506 C   0  0  0  0  0  0  0  0  0  0  0  0
    6.4872   15.9025   -4.0431 C   0  0  0  0  0  0  0  0  0  0  0  0
   11.6998   10.8906   -3.4209 C   0  0  0  0  0  0  0  0  0  0  0  0
   12.3516    9.6739   -3.5875 C   0  0  0  0  0  0  0  0  0  0  0  0
   11.9585    6.0721   -4.2122 C   0  0  0  0  0  0  0  0  0  0  0  0
   10.6763    5.9289   -3.5807 C   0  0  0  0  0  0  0  0  0  0  0  0
   10.1446    4.7042   -3.3048 C   0  0  0  0  0  0  0  0  0  0  0  0
   10.8447    3.4891   -3.6149 C   0  0  0  0  0  0  0  0  0  0  0  0
   12.1698    3.5909   -4.1569 C   0  0  0  0  0  0  0  0  0  0  0  0
   12.7188    4.8838   -4.4782 C   0  0  0  0  0  0  0  0  0  0  0  0
    7.7847    2.5389   -3.5493 C   0  0  0  0  0  0  0  0  0  0  0  0
    6.4861    2.3136   -3.1077 C   0  0  0  0  0  0  0  0  0  0  0  0
    0.7960   -0.7812    1.9510 H   0  0  0  0  0  0  0  0  0  0  0  0
    0.6234   -0.6493    0.1854 H   0  0  0  0  0  0  0  0  0  0  0  0
    0.7061    0.8201    1.1815 H   0  0  0  0  0  0  0  0  0  0  0  0
    3.0028   -1.2224    0.8460 H   0  0  0  0  0  0  0  0  0  0  0  0
    3.0848    0.2352    1.8342 H   0  0  0  0  0  0  0  0  0  0  0  0
    2.7526    1.6568   -0.2316 H   0  0  0  0  0  0  0  0  0  0  0  0
    2.6699    0.1964   -1.2219 H   0  0  0  0  0  0  0  0  0  0  0  0
    5.0107   -0.4044   -0.5460 H   0  0  0  0  0  0  0  0  0  0  0  0
    5.0940    1.0697    0.4534 H   0  0  0  0  0  0  0  0  0  0  0  0
    7.1957    0.4240   -0.3478 H   0  0  0  0  0  0  0  0  0  0  0  0
    9.4816    0.8345   -1.1478 H   0  0  0  0  0  0  0  0  0  0  0  0
   10.6673    0.0930   -3.3292 H   0  0  0  0  0  0  0  0  0  0  0  0
   11.6975   -1.0788   -5.4432 H   0  0  0  0  0  0  0  0  0  0  0  0
   12.8824   -3.2230   -5.6323 H   0  0  0  0  0  0  0  0  0  0  0  0
   14.6888   -4.5893   -6.2223 H   0  0  0  0  0  0  0  0  0  0  0  0
   13.8358   -5.1868   -4.7753 H   0  0  0  0  0  0  0  0  0  0  0  0
   15.9735   -6.2072   -3.9470 H   0  0  0  0  0  0  0  0  0  0  0  0
   16.8186   -5.6143   -5.3802 H   0  0  0  0  0  0  0  0  0  0  0  0
   15.3043   -7.0109   -6.8486 H   0  0  0  0  0  0  0  0  0  0  0  0
   14.4616   -7.6032   -5.4179 H   0  0  0  0  0  0  0  0  0  0  0  0
   17.4551   -8.0747   -6.0305 H   0  0  0  0  0  0  0  0  0  0  0  0
   16.1558   -9.2779   -6.1998 H   0  0  0  0  0  0  0  0  0  0  0  0
   16.6053   -8.6721   -4.5887 H   0  0  0  0  0  0  0  0  0  0  0  0
   16.0346   -1.7054   -3.1090 H   0  0  0  0  0  0  0  0  0  0  0  0
   14.8266    0.4610   -2.9129 H   0  0  0  0  0  0  0  0  0  0  0  0
   14.8493    1.6543   -5.1378 H   0  0  0  0  0  0  0  0  0  0  0  0
   15.7742    3.8375   -5.6879 H   0  0  0  0  0  0  0  0  0  0  0  0
   15.4815    5.2475   -7.7503 H   0  0  0  0  0  0  0  0  0  0  0  0
   17.6532    5.6293   -8.8275 H   0  0  0  0  0  0  0  0  0  0  0  0
   19.3307    6.9587   -9.7949 H   0  0  0  0  0  0  0  0  0  0  0  0
   19.9828    5.5295   -8.9467 H   0  0  0  0  0  0  0  0  0  0  0  0
   21.4490    8.2002   -9.3535 H   0  0  0  0  0  0  0  0  0  0  0  0
   21.6935    6.7449  -10.3287 H   0  0  0  0  0  0  0  0  0  0  0  0
   22.4885    5.5025   -8.2921 H   0  0  0  0  0  0  0  0  0  0  0  0
   22.2056    6.9344   -7.3025 H   0  0  0  0  0  0  0  0  0  0  0  0
   24.2370    6.7681   -9.6331 H   0  0  0  0  0  0  0  0  0  0  0  0
   24.6413    6.7349   -7.9015 H   0  0  0  0  0  0  0  0  0  0  0  0
   23.9555    8.2060   -8.6272 H   0  0  0  0  0  0  0  0  0  0  0  0
   18.8506    8.1468   -5.5353 H   0  0  0  0  0  0  0  0  0  0  0  0
   16.6489    7.7478   -4.4419 H   0  0  0  0  0  0  0  0  0  0  0  0
   14.2014    8.3791   -5.3510 H   0  0  0  0  0  0  0  0  0  0  0  0
   10.0419    8.0720   -5.4986 H   0  0  0  0  0  0  0  0  0  0  0  0
    8.8698   10.2093   -5.2140 H   0  0  0  0  0  0  0  0  0  0  0  0
    7.8483   11.8998   -3.9495 H   0  0  0  0  0  0  0  0  0  0  0  0
    8.6242   12.5267   -5.4273 H   0  0  0  0  0  0  0  0  0  0  0  0
    9.0166   14.7233   -4.2796 H   0  0  0  0  0  0  0  0  0  0  0  0
    8.2469   14.1025   -2.8159 H   0  0  0  0  0  0  0  0  0  0  0  0
    6.0873   13.7760   -4.0925 H   0  0  0  0  0  0  0  0  0  0  0  0
    6.8557   14.3963   -5.5530 H   0  0  0  0  0  0  0  0  0  0  0  0
    6.4485   16.0080   -2.9461 H   0  0  0  0  0  0  0  0  0  0  0  0
    5.5005   16.1886   -4.4405 H   0  0  0  0  0  0  0  0  0  0  0  0
    7.2228   16.6333   -4.4183 H   0  0  0  0  0  0  0  0  0  0  0  0
   12.1488   11.6994   -2.8406 H   0  0  0  0  0  0  0  0  0  0  0  0
   13.3300    9.5249   -3.1238 H   0  0  0  0  0  0  0  0  0  0  0  0
   10.1272    6.8276   -3.2995 H   0  0  0  0  0  0  0  0  0  0  0  0
    9.1755    4.6393   -2.8095 H   0  0  0  0  0  0  0  0  0  0  0  0
    7.9434    3.1184   -4.4618 H   0  0  0  0  0  0  0  0  0  0  0  0
    5.6264    2.7129   -3.6499 H   0  0  0  0  0  0  0  0  0  0  0  0
  1  2  1  0
  1 61  1  0
  1 62  1  0
  1 63  1  0
  2  3  1  0
  2 64  1  0
  2 65  1  0
  3  4  1  0
  3 66  1  0
  3 67  1  0
  4  5  1  0
  4 68  1  0
  4 69  1  0
  5  6  1  0
  6  7  2  0
  6 60  1  0
  7  8  1  0
  7 70  1  0
  8  9  2  0
  8 71  1  0
  9 10  1  0
  9 59  1  0
 10 11  2  0
 10 56  1  0
 11 12  1  0
 11 72  1  0
 12 13  1  0
 12 24  2  0
 13 14  2  0
 13 23  1  0
 14 15  1  0
 14 73  1  0
 15 16  2  0
 15 74  1  0
 16 17  1  0
 16 22  1  0
 17 18  1  0
 18 19  1  0
 18 75  1  0
 18 76  1  0
 19 20  1  0
 19 77  1  0
 19 78  1  0
 20 21  1  0
 20 79  1  0
 20 80  1  0
 21 81  1  0
 21 82  1  0
 21 83  1  0
 22 23  2  0
 22 84  1  0
 23 85  1  0
 24 25  1  0
 24 57  1  0
 25 26  2  0
 25 86  1  0
 26 27  1  0
 26 87  1  0
 27 28  2  0
 27 58  1  0
 28 29  1  0
 28 40  1  0
 29 30  2  0
 29 39  1  0
 30 31  1  0
 30 88  1  0
 31 32  2  0
 31 89  1  0
 32 33  1  0
 32 38  1  0
 33 34  1  0
 34 35  1  0
 34 90  1  0
 34 91  1  0
 35 36  1  0
 35 92  1  0
 35 93  1  0
 36 37  1  0
 36 94  1  0
 36 95  1  0
 37 96  1  0
 37 97  1  0
 37 98  1  0
 38 39  2  0
 38 99  1  0
 39100  1  0
 40 41  2  0
 40101  1  0
 41 42  1  0
 41 53  1  0
 42 43  2  0
 42 52  1  0
 43 44  1  0
 43102  1  0
 44 45  2  0
 44103  1  0
 45 46  1  0
 45 51  1  0
 46 47  1  0
 47 48  1  0
 47104  1  0
 47105  1  0
 48 49  1  0
 48106  1  0
 48107  1  0
 49 50  1  0
 49108  1  0
 49109  1  0
 50110  1  0
 50111  1  0
 50112  1  0
 51 52  2  0
 51113  1  0
 52114  1  0
 53 54  2  0
 53 58  1  0
 54 55  1  0
 54115  1  0
 55 56  2  0
 55116  1  0
 56 57  1  0
 57 58  2  0
 59 60  2  0
 59117  1  0
 60118  1  0
M  END

