
     RDKit          3D

 41 40  0  0  0  0  0  0  0  0999 V2000
    5.3291    4.8519   -1.3169 C   0  0  0  0  0  0  0  0  0  0  0  0
    4.9544    3.4339   -0.8843 C   0  0  0  0  0  0  0  0  0  0  0  0
    5.3024    2.3630   -1.9239 C   0  0  0  0  0  0  0  0  0  0  0  0
    4.9260    0.9469   -1.4830 C   0  0  0  0  0  0  0  0  0  0  0  0
    5.2065   -0.1502   -2.5195 C   0  0  2  0  0  0  0  0  0  0  0  0
    4.6771    0.1121   -3.4464 H   0  0  0  0  0  0  0  0  0  0  0  0
    4.6519   -1.4219   -2.0550 N   0  0  0  0  0  0  0  0  0  0  0  0
    6.7316   -0.2948   -2.7414 C   0  0  0  0  0  0  0  0  0  0  0  0
    7.4489   -0.4967   -1.7740 O   0  0  0  0  0  0  0  0  0  0  0  0
    7.2418   -0.3077   -4.0388 N   0  0  0  0  0  0  0  0  0  0  0  0
    6.4466    0.0804   -5.1960 C   0  0  0  0  0  0  0  0  0  0  0  0
    5.4799   -0.9880   -5.7339 C   0  0  0  0  0  0  0  0  0  0  0  0
    4.6609   -0.7460   -6.5743 O   0  0  0  0  0  0  0  0  0  0  0  0
    5.6289   -2.2171   -5.2036 O   0  0  0  0  0  0  0  0  0  0  0  0
    8.7066   -0.4949   -4.2141 C   0  0  1  0  0  0  0  0  0  0  0  0
    9.0161   -1.6812   -5.1332 C   0  0  0  0  0  0  0  0  0  0  0  0
    9.4251    0.7881   -4.6698 C   0  0  0  0  0  0  0  0  0  0  0  0
    9.2162    1.9980   -3.7601 C   0  0  0  0  0  0  0  0  0  0  0  0
    5.0647    5.5930   -0.5460 H   0  0  0  0  0  0  0  0  0  0  0  0
    4.8082    5.1393   -2.2459 H   0  0  0  0  0  0  0  0  0  0  0  0
    6.4122    4.9412   -1.5056 H   0  0  0  0  0  0  0  0  0  0  0  0
    3.8722    3.3869   -0.6665 H   0  0  0  0  0  0  0  0  0  0  0  0
    5.4623    3.1900    0.0661 H   0  0  0  0  0  0  0  0  0  0  0  0
    6.3860    2.4136   -2.1361 H   0  0  0  0  0  0  0  0  0  0  0  0
    4.7899    2.6047   -2.8749 H   0  0  0  0  0  0  0  0  0  0  0  0
    3.8507    0.8910   -1.2484 H   0  0  0  0  0  0  0  0  0  0  0  0
    5.4713    0.6883   -0.5594 H   0  0  0  0  0  0  0  0  0  0  0  0
    4.6403   -2.1181   -2.8000 H   0  0  0  0  0  0  0  0  0  0  0  0
    5.2250   -1.7878   -1.2929 H   0  0  0  0  0  0  0  0  0  0  0  0
    7.1226    0.3242   -6.0285 H   0  0  0  0  0  0  0  0  0  0  0  0
    5.8572    0.9928   -5.0247 H   0  0  0  0  0  0  0  0  0  0  0  0
    6.3569   -2.1769   -4.5581 H   0  0  0  0  0  0  0  0  0  0  0  0
    9.0597   -0.7363   -3.2026 H   0  0  0  0  0  0  0  0  0  0  0  0
    8.6383   -1.5327   -6.1586 H   0  0  0  0  0  0  0  0  0  0  0  0
    8.5899   -2.6193   -4.7425 H   0  0  0  0  0  0  0  0  0  0  0  0
   10.1049   -1.8259   -5.2076 H   0  0  0  0  0  0  0  0  0  0  0  0
    9.1358    1.0396   -5.7071 H   0  0  0  0  0  0  0  0  0  0  0  0
   10.5010    0.5480   -4.7211 H   0  0  0  0  0  0  0  0  0  0  0  0
    8.1623    2.3171   -3.7415 H   0  0  0  0  0  0  0  0  0  0  0  0
    9.8131    2.8566   -4.1052 H   0  0  0  0  0  0  0  0  0  0  0  0
    9.5092    1.7738   -2.7224 H   0  0  0  0  0  0  0  0  0  0  0  0
  1  2  1  0
  1 19  1  0
  1 20  1  0
  1 21  1  0
  2  3  1  0
  2 22  1  0
  2 23  1  0
  3  4  1  0
  3 24  1  0
  3 25  1  0
  4  5  1  0
  4 26  1  0
  4 27  1  0
  5  6  1  6
  5  7  1  0
  5  8  1  0
  7 28  1  0
  7 29  1  0
  8  9  2  0
  8 10  1  0
 10 11  1  0
 10 15  1  0
 11 12  1  0
 11 30  1  0
 11 31  1  0
 12 13  2  0
 12 14  1  0
 14 32  1  0
 15 16  1  0
 15 17  1  0
 15 33  1  1
 16 34  1  0
 16 35  1  0
 16 36  1  0
 17 18  1  0
 17 37  1  0
 17 38  1  0
 18 39  1  0
 18 40  1  0
 18 41  1  0
M  END

