
     RDKit          3D

 45 45  0  0  0  0  0  0  0  0999 V2000
    1.0462    1.6771   -1.9962 C   0  0  0  0  0  0  0  0  0  0  0  0
    2.2612    1.1193   -1.8526 C   0  0  0  0  0  0  0  0  0  0  0  0
    3.1460    1.5483   -0.8520 N   0  0  0  0  0  0  0  0  0  0  0  0
    4.5117    1.4548   -0.8973 C   0  0  0  0  0  0  0  0  0  0  0  0
    5.4698    2.1327    0.2739 S   0  0  0  0  0  0  0  0  0  0  0  0
    5.0562    0.7329   -2.0535 C   0  0  0  0  0  0  0  0  0  0  0  0
    4.2630    0.0668   -2.9101 C   0  0  0  0  0  0  0  0  0  0  0  0
    2.7710   -0.0281   -2.7033 C   0  0  1  0  0  0  0  0  0  0  0  0
    2.4428   -1.4124   -2.0743 C   0  0  2  0  0  0  0  0  0  0  0  0
    2.8760   -1.4275   -1.0517 H   0  0  0  0  0  0  0  0  0  0  0  0
    3.0578   -2.4146   -2.8738 O   0  0  0  0  0  0  0  0  0  0  0  0
    2.2802   -3.6050   -2.7924 C   0  0  2  0  0  0  0  0  0  0  0  0
    2.4359   -4.0970   -1.8059 H   0  0  0  0  0  0  0  0  0  0  0  0
    2.6620   -4.5697   -3.9011 C   0  0  0  0  0  0  0  0  0  0  0  0
    4.0988   -5.0854   -3.7816 C   0  0  0  0  0  0  0  0  0  0  0  0
    4.7406   -6.1763   -5.1248 P   0  0  0  0  0  0  0  0  0  0  0  0
    6.2839   -6.7051   -4.7245 C   0  0  0  0  0  0  0  0  0  0  0  0
    3.3193   -7.3529   -5.4429 C   0  0  0  0  0  0  0  0  0  0  0  0
    4.7778   -5.2091   -6.6823 C   0  0  0  0  0  0  0  0  0  0  0  0
    0.8381   -3.0728   -2.8383 C   0  0  1  0  0  0  0  0  0  0  0  0
    0.6155   -2.7888   -3.8833 H   0  0  0  0  0  0  0  0  0  0  0  0
   -0.1403   -3.9610   -2.3900 O   0  0  0  0  0  0  0  0  0  0  0  0
    0.9440   -1.7907   -1.9697 C   0  0  1  0  0  0  0  0  0  0  0  0
    0.2813   -0.9941   -2.3316 H   0  0  0  0  0  0  0  0  0  0  0  0
    0.5182   -2.0634   -0.6421 O   0  0  0  0  0  0  0  0  0  0  0  0
    0.7092    2.4880   -1.3455 H   0  0  0  0  0  0  0  0  0  0  0  0
    0.3599    1.3340   -2.7706 H   0  0  0  0  0  0  0  0  0  0  0  0
    2.7851    2.1532   -0.1185 H   0  0  0  0  0  0  0  0  0  0  0  0
    6.1409    0.7529   -2.1627 H   0  0  0  0  0  0  0  0  0  0  0  0
    4.6901   -0.4948   -3.7434 H   0  0  0  0  0  0  0  0  0  0  0  0
    2.2616    0.0020   -3.6794 H   0  0  0  0  0  0  0  0  0  0  0  0
    2.5134   -4.0514   -4.8647 H   0  0  0  0  0  0  0  0  0  0  0  0
    1.9362   -5.3983   -3.8653 H   0  0  0  0  0  0  0  0  0  0  0  0
    4.2269   -5.6634   -2.8494 H   0  0  0  0  0  0  0  0  0  0  0  0
    4.8090   -4.2471   -3.7203 H   0  0  0  0  0  0  0  0  0  0  0  0
    6.4371   -7.1025   -3.7166 H   0  0  0  0  0  0  0  0  0  0  0  0
    6.8887   -7.1467   -5.5221 H   0  0  0  0  0  0  0  0  0  0  0  0
    3.1490   -7.9514   -4.5340 H   0  0  0  0  0  0  0  0  0  0  0  0
    3.6267   -8.0417   -6.2452 H   0  0  0  0  0  0  0  0  0  0  0  0
    2.3778   -6.8583   -5.7338 H   0  0  0  0  0  0  0  0  0  0  0  0
    5.4283   -4.3341   -6.5462 H   0  0  0  0  0  0  0  0  0  0  0  0
    3.7726   -4.8916   -6.9968 H   0  0  0  0  0  0  0  0  0  0  0  0
    5.2096   -5.8428   -7.4724 H   0  0  0  0  0  0  0  0  0  0  0  0
   -0.3318   -3.6992   -1.4722 H   0  0  0  0  0  0  0  0  0  0  0  0
    1.2552   -2.4417   -0.1421 H   0  0  0  0  0  0  0  0  0  0  0  0
  1  2  1  0
  1 26  1  0
  1 27  1  0
  2  3  2  0
  2  8  1  0
  3  4  1  0
  3 28  1  0
  4  5  2  0
  4  6  1  0
  6  7  2  0
  6 29  1  0
  7  8  1  0
  7 30  1  0
  8  9  1  0
  8 31  1  6
  9 10  1  1
  9 11  1  0
  9 23  1  0
 11 12  1  0
 12 13  1  1
 12 14  1  0
 12 20  1  0
 14 15  1  0
 14 32  1  0
 14 33  1  0
 15 16  1  0
 15 34  1  0
 15 35  1  0
 16 17  2  0
 16 19  1  0
 17 36  1  0
 17 37  1  0
 18 38  1  0
 18 39  1  0
 18 40  1  0
 19 41  1  0
 19 42  1  0
 19 43  1  0
 20 21  1  6
 20 22  1  0
 20 23  1  0
 22 44  1  0
 23 24  1  6
 23 25  1  0
 25 45  1  0
M  CHG  4   1  -1   3   1  16   1  18  -1
M  END

