
     RDKit          3D

 56 58  0  0  0  0  0  0  0  0999 V2000
    2.6320   -0.2716   -2.0162 C   0  0  0  0  0  0  0  0  0  0  0  0
    2.4541   -0.0179   -0.5187 C   0  0  2  0  0  0  0  0  0  0  0  0
    1.3918   -0.1883   -0.2931 H   0  0  0  0  0  0  0  0  0  0  0  0
    2.6969    1.3876   -0.1241 N   0  0  0  0  0  0  0  0  0  0  0  0
    4.0314    1.8758    0.2740 C   0  0  1  0  0  0  0  0  0  0  0  0
    4.3693    1.4541    1.2397 H   0  0  0  0  0  0  0  0  0  0  0  0
    5.1267    1.6055   -0.7799 C   0  0  0  0  0  0  0  0  0  0  0  0
    6.5411    2.0040   -0.3197 C   0  0  0  0  0  0  0  0  0  0  0  0
    7.5897    1.7027   -1.3697 C   0  0  0  0  0  0  0  0  0  0  0  0
    8.1467    2.7285   -2.1485 C   0  0  0  0  0  0  0  0  0  0  0  0
    9.0975    2.4476   -3.1351 C   0  0  0  0  0  0  0  0  0  0  0  0
    9.5073    1.1308   -3.3599 C   0  0  0  0  0  0  0  0  0  0  0  0
    8.9605    0.0981   -2.5908 C   0  0  0  0  0  0  0  0  0  0  0  0
    8.0112    0.3832   -1.6065 C   0  0  0  0  0  0  0  0  0  0  0  0
    3.9065    3.3971    0.4893 C   0  0  0  0  0  0  0  0  0  0  0  0
    4.5999    4.0216    1.2470 O   0  0  0  0  0  0  0  0  0  0  0  0
    2.9810    3.9748   -0.2917 O   0  0  0  0  0  0  0  0  0  0  0  0
    3.2686   -1.0225    0.3239 C   0  0  0  0  0  0  0  0  0  0  0  0
    4.3022   -1.5343   -0.1328 O   0  0  0  0  0  0  0  0  0  0  0  0
    2.8655   -1.2926    1.5882 N   0  0  0  0  0  0  0  0  0  0  0  0
    3.7568   -2.0389    2.5068 C   0  0  2  0  0  0  0  0  0  0  0  0
    3.7354   -3.5659    2.2333 C   0  0  0  0  0  0  0  0  0  0  0  0
    3.3685   -4.3758    3.0473 O   0  0  0  0  0  0  0  0  0  0  0  0
    4.1764   -3.9128    1.0282 O   0  0  0  0  0  0  0  0  0  0  0  0
    3.2687   -1.6424    3.9026 C   0  0  0  0  0  0  0  0  0  0  0  0
    1.7828   -1.2742    3.7388 C   0  0  2  0  0  0  0  0  0  0  0  0
    1.5324   -0.4051    4.3660 H   0  0  0  0  0  0  0  0  0  0  0  0
    0.7533   -2.3941    4.0018 C   0  0  0  0  0  0  0  0  0  0  0  0
   -0.3946   -2.0685    3.0396 C   0  0  0  0  0  0  0  0  0  0  0  0
    0.3372   -1.6612    1.7499 C   0  0  0  0  0  0  0  0  0  0  0  0
    1.5985   -0.8933    2.2337 C   0  0  2  0  0  0  0  0  0  0  0  0
    1.4666    0.1940    2.1217 H   0  0  0  0  0  0  0  0  0  0  0  0
    3.6777   -0.1884   -2.3342 H   0  0  0  0  0  0  0  0  0  0  0  0
    2.0297    0.4554   -2.5802 H   0  0  0  0  0  0  0  0  0  0  0  0
    2.2886   -1.2856   -2.2724 H   0  0  0  0  0  0  0  0  0  0  0  0
    2.0464    1.6240    0.6238 H   0  0  0  0  0  0  0  0  0  0  0  0
    4.8698    2.1356   -1.7128 H   0  0  0  0  0  0  0  0  0  0  0  0
    5.1321    0.5314   -1.0069 H   0  0  0  0  0  0  0  0  0  0  0  0
    6.7778    1.4514    0.6063 H   0  0  0  0  0  0  0  0  0  0  0  0
    6.5709    3.0710   -0.0554 H   0  0  0  0  0  0  0  0  0  0  0  0
    7.8351    3.7628   -1.9751 H   0  0  0  0  0  0  0  0  0  0  0  0
    9.5216    3.2625   -3.7278 H   0  0  0  0  0  0  0  0  0  0  0  0
   10.2522    0.9093   -4.1285 H   0  0  0  0  0  0  0  0  0  0  0  0
    9.2779   -0.9350   -2.7562 H   0  0  0  0  0  0  0  0  0  0  0  0
    7.5909   -0.4318   -1.0090 H   0  0  0  0  0  0  0  0  0  0  0  0
    2.5349    3.2407   -0.7683 H   0  0  0  0  0  0  0  0  0  0  0  0
    4.7902   -1.7065    2.3136 H   0  0  0  0  0  0  0  0  0  0  0  0
    4.4114   -3.1029    0.5031 H   0  0  0  0  0  0  0  0  0  0  0  0
    3.8444   -0.7724    4.2523 H   0  0  0  0  0  0  0  0  0  0  0  0
    3.4201   -2.4647    4.6143 H   0  0  0  0  0  0  0  0  0  0  0  0
    0.4432   -2.4313    5.0573 H   0  0  0  0  0  0  0  0  0  0  0  0
    1.1930   -3.3734    3.7545 H   0  0  0  0  0  0  0  0  0  0  0  0
   -0.9897   -1.2212    3.4239 H   0  0  0  0  0  0  0  0  0  0  0  0
   -1.0890   -2.9083    2.8842 H   0  0  0  0  0  0  0  0  0  0  0  0
   -0.2907   -1.0689    1.0662 H   0  0  0  0  0  0  0  0  0  0  0  0
    0.6581   -2.5622    1.2028 H   0  0  0  0  0  0  0  0  0  0  0  0
  1  2  1  0
  1 33  1  0
  1 34  1  0
  1 35  1  0
  2  3  1  1
  2  4  1  0
  2 18  1  0
  4  5  1  0
  4 36  1  0
  5  6  1  1
  5  7  1  0
  5 15  1  0
  7  8  1  0
  7 37  1  0
  7 38  1  0
  8  9  1  0
  8 39  1  0
  8 40  1  0
  9 10  2  0
  9 14  1  0
 10 11  1  0
 10 41  1  0
 11 12  2  0
 11 42  1  0
 12 13  1  0
 12 43  1  0
 13 14  2  0
 13 44  1  0
 14 45  1  0
 15 16  2  0
 15 17  1  0
 17 46  1  0
 18 19  2  0
 18 20  1  0
 20 21  1  0
 20 31  1  0
 21 22  1  0
 21 25  1  0
 21 47  1  1
 22 23  2  0
 22 24  1  0
 24 48  1  0
 25 26  1  0
 25 49  1  0
 25 50  1  0
 26 27  1  1
 26 28  1  0
 26 31  1  0
 28 29  1  0
 28 51  1  0
 28 52  1  0
 29 30  1  0
 29 53  1  0
 29 54  1  0
 30 31  1  0
 30 55  1  0
 30 56  1  0
 31 32  1  1
M  END

