
     RDKit          3D

 48 47  0  0  0  0  0  0  0  0999 V2000
    3.1493    0.8143    1.1496 C   0  0  0  0  0  0  0  0  0  0  0  0
    2.6992   -0.0640   -0.0253 C   0  0  1  0  0  0  0  0  0  0  0  0
    1.1726   -0.0235   -0.1799 C   0  0  0  0  0  0  0  0  0  0  0  0
    3.3796    0.3257   -1.3526 C   0  0  0  0  0  0  0  0  0  0  0  0
    4.9190    0.2536   -1.4044 C   0  0  1  0  0  0  0  0  0  0  0  0
    5.4706   -1.1469   -1.0686 C   0  0  0  0  0  0  0  0  0  0  0  0
    4.9927   -2.1667   -2.0042 N   0  0  0  0  0  0  0  0  0  0  0  0
    5.4195    0.7144   -2.7817 C   0  0  0  0  0  0  0  0  0  0  0  0
    6.8872    1.1411   -2.7883 C   0  0  0  0  0  0  0  0  0  0  0  0
    7.5618    1.1407   -1.7652 O   0  0  0  0  0  0  0  0  0  0  0  0
    7.4157    1.5339   -3.9994 N   0  0  0  0  0  0  0  0  0  0  0  0
    6.6398    1.6186   -5.2246 C   0  0  0  0  0  0  0  0  0  0  0  0
    8.8014    1.9976   -4.0460 C   0  0  0  0  0  0  0  0  0  0  0  0
    8.9645    3.5180   -4.1844 C   0  0  0  0  0  0  0  0  0  0  0  0
    8.3645    4.3272   -3.0311 C   0  0  0  0  0  0  0  0  0  0  0  0
    8.5972    5.8344   -3.1591 C   0  0  0  0  0  0  0  0  0  0  0  0
    7.9921    6.6469   -2.0150 C   0  0  0  0  0  0  0  0  0  0  0  0
    8.1532    8.0411   -2.1779 O   0  0  0  0  0  0  0  0  0  0  0  0
    2.6294    0.5297    2.0790 H   0  0  0  0  0  0  0  0  0  0  0  0
    2.9218    1.8769    0.9544 H   0  0  0  0  0  0  0  0  0  0  0  0
    4.2308    0.7361    1.3389 H   0  0  0  0  0  0  0  0  0  0  0  0
    2.9753   -1.1086    0.2132 H   0  0  0  0  0  0  0  0  0  0  0  0
    0.8263    0.9993   -0.4091 H   0  0  0  0  0  0  0  0  0  0  0  0
    0.6651   -0.3459    0.7439 H   0  0  0  0  0  0  0  0  0  0  0  0
    0.8306   -0.6789   -0.9978 H   0  0  0  0  0  0  0  0  0  0  0  0
    3.0699    1.3575   -1.6050 H   0  0  0  0  0  0  0  0  0  0  0  0
    2.9681   -0.3088   -2.1591 H   0  0  0  0  0  0  0  0  0  0  0  0
    5.3400    0.9412   -0.6540 H   0  0  0  0  0  0  0  0  0  0  0  0
    5.2467   -1.3783   -0.0067 H   0  0  0  0  0  0  0  0  0  0  0  0
    6.5668   -1.0950   -1.1411 H   0  0  0  0  0  0  0  0  0  0  0  0
    5.5586   -3.0110   -1.9298 H   0  0  0  0  0  0  0  0  0  0  0  0
    4.0374   -2.4476   -1.7823 H   0  0  0  0  0  0  0  0  0  0  0  0
    4.8119    1.5605   -3.1486 H   0  0  0  0  0  0  0  0  0  0  0  0
    5.2683   -0.1095   -3.4999 H   0  0  0  0  0  0  0  0  0  0  0  0
    5.9188    0.7941   -5.3029 H   0  0  0  0  0  0  0  0  0  0  0  0
    7.3200    1.5438   -6.0868 H   0  0  0  0  0  0  0  0  0  0  0  0
    6.0817    2.5688   -5.3208 H   0  0  0  0  0  0  0  0  0  0  0  0
    9.3053    1.4984   -4.8930 H   0  0  0  0  0  0  0  0  0  0  0  0
    9.2778    1.6538   -3.1188 H   0  0  0  0  0  0  0  0  0  0  0  0
    8.5283    3.8596   -5.1415 H   0  0  0  0  0  0  0  0  0  0  0  0
   10.0468    3.7281   -4.2605 H   0  0  0  0  0  0  0  0  0  0  0  0
    8.7771    3.9597   -2.0752 H   0  0  0  0  0  0  0  0  0  0  0  0
    7.2785    4.1321   -2.9761 H   0  0  0  0  0  0  0  0  0  0  0  0
    8.1771    6.2104   -4.1090 H   0  0  0  0  0  0  0  0  0  0  0  0
    9.6852    6.0375   -3.2039 H   0  0  0  0  0  0  0  0  0  0  0  0
    8.4086    6.2967   -1.0470 H   0  0  0  0  0  0  0  0  0  0  0  0
    6.9044    6.4693   -1.9673 H   0  0  0  0  0  0  0  0  0  0  0  0
    9.1003    8.2322   -2.1864 H   0  0  0  0  0  0  0  0  0  0  0  0
  1  2  1  0
  1 19  1  0
  1 20  1  0
  1 21  1  0
  2  3  1  0
  2  4  1  0
  2 22  1  1
  3 23  1  0
  3 24  1  0
  3 25  1  0
  4  5  1  0
  4 26  1  0
  4 27  1  0
  5  6  1  0
  5  8  1  0
  5 28  1  1
  6  7  1  0
  6 29  1  0
  6 30  1  0
  7 31  1  0
  7 32  1  0
  8  9  1  0
  8 33  1  0
  8 34  1  0
  9 10  2  0
  9 11  1  0
 11 12  1  0
 11 13  1  0
 12 35  1  0
 12 36  1  0
 12 37  1  0
 13 14  1  0
 13 38  1  0
 13 39  1  0
 14 15  1  0
 14 40  1  0
 14 41  1  0
 15 16  1  0
 15 42  1  0
 15 43  1  0
 16 17  1  0
 16 44  1  0
 16 45  1  0
 17 18  1  0
 17 46  1  0
 17 47  1  0
 18 48  1  0
M  END

