
     RDKit          3D

 58 61  0  0  0  0  0  0  0  0999 V2000
   -2.3911   -0.9930    3.5910 C   0  0  0  0  0  0  0  0  0  0  0  0
   -1.2775   -0.0054    3.2083 C   0  0  0  0  0  0  0  0  0  0  0  0
    0.1132   -0.5637    3.4205 C   0  0  0  0  0  0  0  0  0  0  0  0
    0.7671   -1.2789    2.4049 C   0  0  0  0  0  0  0  0  0  0  0  0
    2.0333   -1.8286    2.6084 C   0  0  0  0  0  0  0  0  0  0  0  0
    2.6669   -1.6726    3.8422 C   0  0  0  0  0  0  0  0  0  0  0  0
    3.9795   -2.2401    4.0578 N   0  0  0  0  0  0  0  0  0  0  0  0
    4.0306   -3.5928    4.4207 C   0  0  0  0  0  0  0  0  0  0  0  0
    3.0477   -4.2823    4.5535 O   0  0  0  0  0  0  0  0  0  0  0  0
    5.3088   -4.0947    4.6226 N   0  0  0  0  0  0  0  0  0  0  0  0
    6.5231   -3.4393    4.5069 C   0  0  0  0  0  0  0  0  0  0  0  0
    7.5621   -4.0345    4.7227 O   0  0  0  0  0  0  0  0  0  0  0  0
    6.4329   -1.9989    4.1079 C   0  0  0  0  0  0  0  0  0  0  0  0
    7.6547   -1.3860    3.9913 C   0  0  0  0  0  0  0  0  0  0  0  0
    8.1962   -0.0799    3.6495 C   0  0  0  0  0  0  0  0  0  0  0  0
    7.4637    1.0682    3.2866 C   0  0  0  0  0  0  0  0  0  0  0  0
    8.1389    2.2496    2.9865 C   0  0  0  0  0  0  0  0  0  0  0  0
    7.2322    3.6742    2.5521 Cl  0  0  0  0  0  0  0  0  0  0  0  0
    9.5397    2.3377    3.0190 C   0  0  0  0  0  0  0  0  0  0  0  0
   10.1752    3.4713    2.6499 O   0  0  0  0  0  0  0  0  0  0  0  0
   10.7507    4.2846    3.6799 C   0  0  0  0  0  0  0  0  0  0  0  0
   11.8554    5.1277    3.0959 C   0  0  0  0  0  0  0  0  0  0  0  0
   11.9864    6.4806    3.4306 C   0  0  0  0  0  0  0  0  0  0  0  0
   13.0429    7.2381    2.9228 C   0  0  0  0  0  0  0  0  0  0  0  0
   13.9791    6.6566    2.0629 C   0  0  0  0  0  0  0  0  0  0  0  0
   15.2817    7.6262    1.4376 Cl  0  0  0  0  0  0  0  0  0  0  0  0
   13.8476    5.2999    1.7147 C   0  0  0  0  0  0  0  0  0  0  0  0
   14.9885    4.5355    0.6434 Cl  0  0  0  0  0  0  0  0  0  0  0  0
   12.7928    4.5463    2.2331 C   0  0  0  0  0  0  0  0  0  0  0  0
   10.2826    1.1860    3.3901 C   0  0  0  0  0  0  0  0  0  0  0  0
   11.6285    1.3472    3.4058 O   0  0  0  0  0  0  0  0  0  0  0  0
   12.4539    0.2472    3.7362 C   0  0  0  0  0  0  0  0  0  0  0  0
    9.6151    0.0035    3.6948 C   0  0  0  0  0  0  0  0  0  0  0  0
    5.0971   -1.3929    3.8861 C   0  0  0  0  0  0  0  0  0  0  0  0
    4.9088   -0.2332    3.5719 O   0  0  0  0  0  0  0  0  0  0  0  0
    2.0354   -0.9649    4.8664 C   0  0  0  0  0  0  0  0  0  0  0  0
    0.7705   -0.4165    4.6523 C   0  0  0  0  0  0  0  0  0  0  0  0
   -3.3862   -0.5508    3.4227 H   0  0  0  0  0  0  0  0  0  0  0  0
   -2.3214   -1.2791    4.6527 H   0  0  0  0  0  0  0  0  0  0  0  0
   -2.3247   -1.9175    2.9954 H   0  0  0  0  0  0  0  0  0  0  0  0
   -1.3925    0.9194    3.7983 H   0  0  0  0  0  0  0  0  0  0  0  0
   -1.3959    0.2847    2.1508 H   0  0  0  0  0  0  0  0  0  0  0  0
    0.2794   -1.4043    1.4340 H   0  0  0  0  0  0  0  0  0  0  0  0
    2.5334   -2.3795    1.8091 H   0  0  0  0  0  0  0  0  0  0  0  0
    5.3490   -5.0752    4.8893 H   0  0  0  0  0  0  0  0  0  0  0  0
    8.4480   -2.1056    4.2259 H   0  0  0  0  0  0  0  0  0  0  0  0
    6.3785    1.0303    3.2508 H   0  0  0  0  0  0  0  0  0  0  0  0
   11.1520    3.6361    4.4779 H   0  0  0  0  0  0  0  0  0  0  0  0
    9.9650    4.9235    4.1187 H   0  0  0  0  0  0  0  0  0  0  0  0
   11.2559    6.9551    4.0908 H   0  0  0  0  0  0  0  0  0  0  0  0
   13.1480    8.2933    3.1797 H   0  0  0  0  0  0  0  0  0  0  0  0
   12.6949    3.4960    1.9573 H   0  0  0  0  0  0  0  0  0  0  0  0
   13.4889    0.6075    3.6760 H   0  0  0  0  0  0  0  0  0  0  0  0
   12.3210   -0.5872    3.0258 H   0  0  0  0  0  0  0  0  0  0  0  0
   12.2575   -0.1167    4.7601 H   0  0  0  0  0  0  0  0  0  0  0  0
   10.1809   -0.8857    3.9705 H   0  0  0  0  0  0  0  0  0  0  0  0
    2.5381   -0.8403    5.8278 H   0  0  0  0  0  0  0  0  0  0  0  0
    0.2858    0.1412    5.4586 H   0  0  0  0  0  0  0  0  0  0  0  0
  1  2  1  0
  1 38  1  0
  1 39  1  0
  1 40  1  0
  2  3  1  0
  2 41  1  0
  2 42  1  0
  3  4  2  0
  3 37  1  0
  4  5  1  0
  4 43  1  0
  5  6  2  0
  5 44  1  0
  6  7  1  0
  6 36  1  0
  7  8  1  0
  7 34  1  0
  8  9  2  0
  8 10  1  0
 10 11  1  0
 10 45  1  0
 11 12  2  0
 11 13  1  0
 13 14  2  0
 13 34  1  0
 14 15  1  0
 14 46  1  0
 15 16  2  0
 15 33  1  0
 16 17  1  0
 16 47  1  0
 17 18  1  0
 17 19  2  0
 19 20  1  0
 19 30  1  0
 20 21  1  0
 21 22  1  0
 21 48  1  0
 21 49  1  0
 22 23  2  0
 22 29  1  0
 23 24  1  0
 23 50  1  0
 24 25  2  0
 24 51  1  0
 25 26  1  0
 25 27  1  0
 27 28  1  0
 27 29  2  0
 29 52  1  0
 30 31  1  0
 30 33  2  0
 31 32  1  0
 32 53  1  0
 32 54  1  0
 32 55  1  0
 33 56  1  0
 34 35  2  0
 36 37  2  0
 36 57  1  0
 37 58  1  0
M  END

