
     RDKit          3D

 54 58  0  0  0  0  0  0  0  0999 V2000
    4.9795   -1.5250    3.6853 C   0  0  0  0  0  0  0  0  0  0  0  0
    5.7352   -1.3846    2.3783 C   0  0  0  0  0  0  0  0  0  0  0  0
    5.0326   -2.0941    1.3617 O   0  0  0  0  0  0  0  0  0  0  0  0
    5.5824   -2.2561    0.1362 C   0  0  0  0  0  0  0  0  0  0  0  0
    6.8139   -1.6608   -0.2197 C   0  0  0  0  0  0  0  0  0  0  0  0
    7.3263   -1.9577   -1.4703 C   0  0  0  0  0  0  0  0  0  0  0  0
    6.6761   -2.8166   -2.3577 C   0  0  0  0  0  0  0  0  0  0  0  0
    5.4754   -3.4016   -2.0291 C   0  0  0  0  0  0  0  0  0  0  0  0
    4.8812   -3.1009   -0.7698 C   0  0  0  0  0  0  0  0  0  0  0  0
    3.5909   -3.7203   -0.5005 C   0  0  0  0  0  0  0  0  0  0  0  0
    2.5120   -3.3610    0.2397 C   0  0  0  0  0  0  0  0  0  0  0  0
    2.2070   -1.9027    1.1923 S   0  0  0  0  0  0  0  0  0  0  0  0
    0.4980   -2.3915    1.4759 C   0  0  0  0  0  0  0  0  0  0  0  0
   -0.3794   -1.7635    2.1491 N   0  0  0  0  0  0  0  0  0  0  0  0
   -0.1697   -0.4938    2.7045 C   0  0  0  0  0  0  0  0  0  0  0  0
    0.1529    0.6258    1.9124 C   0  0  0  0  0  0  0  0  0  0  0  0
    0.2977    1.8862    2.4971 C   0  0  0  0  0  0  0  0  0  0  0  0
    0.1272    2.0548    3.8742 C   0  0  0  0  0  0  0  0  0  0  0  0
   -0.2008    0.9477    4.6650 C   0  0  0  0  0  0  0  0  0  0  0  0
   -0.3578   -0.3128    4.0882 C   0  0  0  0  0  0  0  0  0  0  0  0
    0.2431   -3.6191    0.8833 N   0  0  0  0  0  0  0  0  0  0  0  0
   -1.0676   -4.2698    0.9772 C   0  0  0  0  0  0  0  0  0  0  0  0
   -1.2422   -5.1150    2.2227 C   0  0  0  0  0  0  0  0  0  0  0  0
   -1.8819   -4.6206    3.3662 C   0  0  0  0  0  0  0  0  0  0  0  0
   -2.0128   -5.4501    4.4812 C   0  0  0  0  0  0  0  0  0  0  0  0
   -1.4941   -6.7466    4.4119 C   0  0  0  0  0  0  0  0  0  0  0  0
   -0.8809   -7.2334    3.3301 N   0  0  0  0  0  0  0  0  0  0  0  0
   -0.7613   -6.4352    2.2676 C   0  0  0  0  0  0  0  0  0  0  0  0
    1.2930   -4.2211    0.1940 C   0  0  0  0  0  0  0  0  0  0  0  0
    1.1939   -5.2923   -0.3729 O   0  0  0  0  0  0  0  0  0  0  0  0
    7.4073   -2.9083   -3.5148 O   0  0  0  0  0  0  0  0  0  0  0  0
    8.6240   -2.2181   -3.2670 C   0  0  0  0  0  0  0  0  0  0  0  0
    8.4747   -1.5003   -2.0378 O   0  0  0  0  0  0  0  0  0  0  0  0
    5.5257   -1.0019    4.4856 H   0  0  0  0  0  0  0  0  0  0  0  0
    4.8822   -2.5849    3.9648 H   0  0  0  0  0  0  0  0  0  0  0  0
    3.9706   -1.0952    3.6111 H   0  0  0  0  0  0  0  0  0  0  0  0
    6.7549   -1.8000    2.4744 H   0  0  0  0  0  0  0  0  0  0  0  0
    5.8331   -0.3215    2.0900 H   0  0  0  0  0  0  0  0  0  0  0  0
    7.3590   -1.0021    0.4523 H   0  0  0  0  0  0  0  0  0  0  0  0
    4.9656   -4.0664   -2.7278 H   0  0  0  0  0  0  0  0  0  0  0  0
    3.4015   -4.6405   -1.0662 H   0  0  0  0  0  0  0  0  0  0  0  0
    0.2721    0.5033    0.8337 H   0  0  0  0  0  0  0  0  0  0  0  0
    0.5421    2.7452    1.8663 H   0  0  0  0  0  0  0  0  0  0  0  0
    0.2405    3.0425    4.3275 H   0  0  0  0  0  0  0  0  0  0  0  0
   -0.3424    1.0678    5.7425 H   0  0  0  0  0  0  0  0  0  0  0  0
   -0.6233   -1.1788    4.6983 H   0  0  0  0  0  0  0  0  0  0  0  0
   -1.1549   -4.8974    0.0801 H   0  0  0  0  0  0  0  0  0  0  0  0
   -1.8262   -3.4772    0.9438 H   0  0  0  0  0  0  0  0  0  0  0  0
   -2.2633   -3.5966    3.3758 H   0  0  0  0  0  0  0  0  0  0  0  0
   -2.5090   -5.1008    5.3899 H   0  0  0  0  0  0  0  0  0  0  0  0
   -1.5818   -7.4227    5.2712 H   0  0  0  0  0  0  0  0  0  0  0  0
   -0.2521   -6.8519    1.3901 H   0  0  0  0  0  0  0  0  0  0  0  0
    8.8271   -1.5078   -4.0848 H   0  0  0  0  0  0  0  0  0  0  0  0
    9.4579   -2.9406   -3.1678 H   0  0  0  0  0  0  0  0  0  0  0  0
  1  2  1  0
  1 34  1  0
  1 35  1  0
  1 36  1  0
  2  3  1  0
  2 37  1  0
  2 38  1  0
  3  4  1  0
  4  5  2  0
  4  9  1  0
  5  6  1  0
  5 39  1  0
  6  7  2  0
  6 33  1  0
  7  8  1  0
  7 31  1  0
  8  9  2  0
  8 40  1  0
  9 10  1  0
 10 11  2  0
 10 41  1  0
 11 12  1  0
 11 29  1  0
 12 13  1  0
 13 14  2  0
 13 21  1  0
 14 15  1  0
 15 16  2  0
 15 20  1  0
 16 17  1  0
 16 42  1  0
 17 18  2  0
 17 43  1  0
 18 19  1  0
 18 44  1  0
 19 20  2  0
 19 45  1  0
 20 46  1  0
 21 22  1  0
 21 29  1  0
 22 23  1  0
 22 47  1  0
 22 48  1  0
 23 24  2  0
 23 28  1  0
 24 25  1  0
 24 49  1  0
 25 26  2  0
 25 50  1  0
 26 27  1  0
 26 51  1  0
 27 28  2  0
 28 52  1  0
 29 30  2  0
 31 32  1  0
 32 33  1  0
 32 53  1  0
 32 54  1  0
M  END

