
     RDKit          3D

 54 57  0  0  0  0  0  0  0  0999 V2000
   -0.0878   -0.9027    0.0986 C   0  0  0  0  0  0  0  0  0  0  0  0
    1.4389   -0.7962    0.2294 C   0  0  1  0  0  0  0  0  0  0  0  0
    2.0416   -2.2084    0.4676 C   0  0  0  0  0  0  0  0  0  0  0  0
    1.4012   -3.0995    1.0012 O   0  0  0  0  0  0  0  0  0  0  0  0
    3.3416   -2.3331    0.0807 N   0  0  0  0  0  0  0  0  0  0  0  0
    4.1101   -3.5408    0.2560 C   0  0  1  0  0  0  0  0  0  0  0  0
    4.8692   -4.0230   -0.9881 C   0  0  0  0  0  0  0  0  0  0  0  0
    6.0730   -4.7855   -0.4309 C   0  0  0  0  0  0  0  0  0  0  0  0
    6.8130   -5.5216   -1.0465 O   0  0  0  0  0  0  0  0  0  0  0  0
    6.1757   -4.4594    0.9095 N   0  0  0  0  0  0  0  0  0  0  0  0
    7.2809   -4.8389    1.7354 C   0  0  1  0  0  0  0  0  0  0  0  0
    7.0098   -5.5947    3.0178 C   0  0  0  0  0  0  0  0  0  0  0  0
    7.6514   -6.2899    1.8471 C   0  0  0  0  0  0  0  0  0  0  0  0
    5.2258   -3.4372    1.3220 C   0  0  0  0  0  0  0  0  0  0  0  0
    2.1772   -0.0710   -0.8055 N   0  0  0  0  0  0  0  0  0  0  0  0
    1.9524   -0.4239   -2.2040 C   0  0  0  0  0  0  0  0  0  0  0  0
    0.9008    0.4397   -2.9203 C   0  0  0  0  0  0  0  0  0  0  0  0
    1.1964    1.8548   -2.7441 N   0  0  0  0  0  0  0  0  0  0  0  0
    0.6027    2.7826   -3.6250 C   0  0  0  0  0  0  0  0  0  0  0  0
   -0.4141    2.4184   -4.5316 C   0  0  0  0  0  0  0  0  0  0  0  0
   -0.9562    3.3468   -5.4263 C   0  0  0  0  0  0  0  0  0  0  0  0
   -0.5008    4.6590   -5.4126 C   0  0  0  0  0  0  0  0  0  0  0  0
   -1.0240    5.5563   -6.2659 F   0  0  0  0  0  0  0  0  0  0  0  0
    0.4972    5.0573   -4.5244 C   0  0  0  0  0  0  0  0  0  0  0  0
    1.0452    4.1248   -3.6470 C   0  0  0  0  0  0  0  0  0  0  0  0
    1.3283    2.2280   -1.3355 C   0  0  0  0  0  0  0  0  0  0  0  0
    2.3911    1.3620   -0.6499 C   0  0  0  0  0  0  0  0  0  0  0  0
   -0.4835   -1.4761    0.9476 H   0  0  0  0  0  0  0  0  0  0  0  0
   -0.3815   -1.4382   -0.8171 H   0  0  0  0  0  0  0  0  0  0  0  0
   -0.5565    0.0920    0.0890 H   0  0  0  0  0  0  0  0  0  0  0  0
    1.6501   -0.2614    1.1732 H   0  0  0  0  0  0  0  0  0  0  0  0
    3.7428   -1.5093   -0.3617 H   0  0  0  0  0  0  0  0  0  0  0  0
    3.3927   -4.3102    0.5773 H   0  0  0  0  0  0  0  0  0  0  0  0
    5.2566   -3.1718   -1.5773 H   0  0  0  0  0  0  0  0  0  0  0  0
    4.2821   -4.6544   -1.6695 H   0  0  0  0  0  0  0  0  0  0  0  0
    8.1065   -4.1132    1.7567 H   0  0  0  0  0  0  0  0  0  0  0  0
    5.9679   -5.8394    3.2434 H   0  0  0  0  0  0  0  0  0  0  0  0
    7.6193   -5.3514    3.8924 H   0  0  0  0  0  0  0  0  0  0  0  0
    7.0542   -7.0006    1.2733 H   0  0  0  0  0  0  0  0  0  0  0  0
    8.7161   -6.5323    1.8936 H   0  0  0  0  0  0  0  0  0  0  0  0
    5.6832   -2.4263    1.3122 H   0  0  0  0  0  0  0  0  0  0  0  0
    4.8521   -3.6220    2.3413 H   0  0  0  0  0  0  0  0  0  0  0  0
    1.6716   -1.4856   -2.2776 H   0  0  0  0  0  0  0  0  0  0  0  0
    2.9065   -0.3029   -2.7510 H   0  0  0  0  0  0  0  0  0  0  0  0
   -0.1178    0.1839   -2.5594 H   0  0  0  0  0  0  0  0  0  0  0  0
    0.9358    0.1987   -3.9935 H   0  0  0  0  0  0  0  0  0  0  0  0
   -0.8060    1.4018   -4.5441 H   0  0  0  0  0  0  0  0  0  0  0  0
   -1.7427    3.0591   -6.1271 H   0  0  0  0  0  0  0  0  0  0  0  0
    0.8482    6.0912   -4.5406 H   0  0  0  0  0  0  0  0  0  0  0  0
    1.8519    4.4404   -2.9833 H   0  0  0  0  0  0  0  0  0  0  0  0
    0.3538    2.1259   -0.8096 H   0  0  0  0  0  0  0  0  0  0  0  0
    1.6233    3.2825   -1.2550 H   0  0  0  0  0  0  0  0  0  0  0  0
    2.4416    1.6104    0.4216 H   0  0  0  0  0  0  0  0  0  0  0  0
    3.3703    1.6212   -1.0961 H   0  0  0  0  0  0  0  0  0  0  0  0
  1  2  1  0
  1 28  1  0
  1 29  1  0
  1 30  1  0
  2  3  1  0
  2 15  1  0
  2 31  1  1
  3  4  2  0
  3  5  1  0
  5  6  1  0
  5 32  1  0
  6  7  1  0
  6 14  1  0
  6 33  1  1
  7  8  1  0
  7 34  1  0
  7 35  1  0
  8  9  2  0
  8 10  1  0
 10 11  1  0
 10 14  1  0
 11 12  1  0
 11 13  1  0
 11 36  1  1
 12 13  1  0
 12 37  1  0
 12 38  1  0
 13 39  1  0
 13 40  1  0
 14 41  1  0
 14 42  1  0
 15 16  1  0
 15 27  1  0
 16 17  1  0
 16 43  1  0
 16 44  1  0
 17 18  1  0
 17 45  1  0
 17 46  1  0
 18 19  1  0
 18 26  1  0
 19 20  2  0
 19 25  1  0
 20 21  1  0
 20 47  1  0
 21 22  2  0
 21 48  1  0
 22 23  1  0
 22 24  1  0
 24 25  2  0
 24 49  1  0
 25 50  1  0
 26 27  1  0
 26 51  1  0
 26 52  1  0
 27 53  1  0
 27 54  1  0
M  END

