
     RDKit          3D

 37 37  0  0  0  0  0  0  0  0999 V2000
    0.9608    0.8411    1.1747 C   0  0  0  0  0  0  0  0  0  0  0  0
    2.4580    1.0821    1.2121 C   0  0  0  0  0  0  0  0  0  0  0  0
    3.0932   -0.1389    1.5510 O   0  0  0  0  0  0  0  0  0  0  0  0
    4.4496   -0.1987    1.6470 C   0  0  0  0  0  0  0  0  0  0  0  0
    5.3020    0.8897    1.4377 C   0  0  0  0  0  0  0  0  0  0  0  0
    6.6998    0.7655    1.5511 C   0  0  0  0  0  0  0  0  0  0  0  0
    7.5567    1.9900    1.3049 C   0  0  0  0  0  0  0  0  0  0  0  0
    7.2498   -0.4872    1.8858 C   0  0  0  0  0  0  0  0  0  0  0  0
    8.7552   -0.7125    2.0626 C   0  0  1  0  0  0  0  0  0  0  0  0
    9.1485   -1.1411    3.4127 N   0  0  0  0  0  0  0  0  0  0  0  0
    9.3351   -1.7143    1.0486 C   0  0  0  0  0  0  0  0  0  0  0  0
    9.2088   -1.2947   -0.4139 C   0  0  0  0  0  0  0  0  0  0  0  0
    9.7178   -2.2671   -1.3042 O   0  0  0  0  0  0  0  0  0  0  0  0
    6.3694   -1.5656    2.0919 C   0  0  0  0  0  0  0  0  0  0  0  0
    4.9838   -1.4630    1.9825 C   0  0  0  0  0  0  0  0  0  0  0  0
    4.0637   -2.6339    2.2043 C   0  0  0  0  0  0  0  0  0  0  0  0
    0.4312    1.7706    0.9141 H   0  0  0  0  0  0  0  0  0  0  0  0
    0.5976    0.4961    2.1549 H   0  0  0  0  0  0  0  0  0  0  0  0
    0.7088    0.0747    0.4257 H   0  0  0  0  0  0  0  0  0  0  0  0
    2.7105    1.8603    1.9574 H   0  0  0  0  0  0  0  0  0  0  0  0
    2.8218    1.4384    0.2296 H   0  0  0  0  0  0  0  0  0  0  0  0
    4.8891    1.8653    1.1794 H   0  0  0  0  0  0  0  0  0  0  0  0
    6.9313    2.8670    1.0828 H   0  0  0  0  0  0  0  0  0  0  0  0
    8.2422    1.8526    0.4522 H   0  0  0  0  0  0  0  0  0  0  0  0
    8.1803    2.2442    2.1781 H   0  0  0  0  0  0  0  0  0  0  0  0
    9.2663    0.2476    1.8906 H   0  0  0  0  0  0  0  0  0  0  0  0
    8.7378   -2.0534    3.6197 H   0  0  0  0  0  0  0  0  0  0  0  0
    8.7530   -0.5023    4.1042 H   0  0  0  0  0  0  0  0  0  0  0  0
    8.8508   -2.7001    1.1667 H   0  0  0  0  0  0  0  0  0  0  0  0
   10.4011   -1.8562    1.3019 H   0  0  0  0  0  0  0  0  0  0  0  0
    9.7013   -0.3099   -0.5639 H   0  0  0  0  0  0  0  0  0  0  0  0
    8.1485   -1.1614   -0.6811 H   0  0  0  0  0  0  0  0  0  0  0  0
   10.6489   -2.4094   -1.0884 H   0  0  0  0  0  0  0  0  0  0  0  0
    6.7840   -2.5446    2.3538 H   0  0  0  0  0  0  0  0  0  0  0  0
    4.6302   -3.5419    2.4574 H   0  0  0  0  0  0  0  0  0  0  0  0
    3.4577   -2.8417    1.3069 H   0  0  0  0  0  0  0  0  0  0  0  0
    3.3474   -2.4318    3.0179 H   0  0  0  0  0  0  0  0  0  0  0  0
  1  2  1  0
  1 17  1  0
  1 18  1  0
  1 19  1  0
  2  3  1  0
  2 20  1  0
  2 21  1  0
  3  4  1  0
  4  5  2  0
  4 15  1  0
  5  6  1  0
  5 22  1  0
  6  7  1  0
  6  8  2  0
  7 23  1  0
  7 24  1  0
  7 25  1  0
  8  9  1  0
  8 14  1  0
  9 10  1  0
  9 11  1  0
  9 26  1  6
 10 27  1  0
 10 28  1  0
 11 12  1  0
 11 29  1  0
 11 30  1  0
 12 13  1  0
 12 31  1  0
 12 32  1  0
 13 33  1  0
 14 15  2  0
 14 34  1  0
 15 16  1  0
 16 35  1  0
 16 36  1  0
 16 37  1  0
M  END

