
     RDKit          3D

 48 50  0  0  0  0  0  0  0  0999 V2000
    3.2337    0.7531    2.2988 C   0  0  0  0  0  0  0  0  0  0  0  0
    2.7473    1.3560    0.9807 C   0  0  0  0  0  0  0  0  0  0  0  0
    3.3378    2.7381    0.6653 C   0  0  0  0  0  0  0  0  0  0  0  0
    4.7827    2.7496    0.5236 N   0  0  0  0  0  0  0  0  0  0  0  0
    5.4042    2.6654   -0.6828 C   0  0  0  0  0  0  0  0  0  0  0  0
    4.8139    2.6026   -1.7593 O   0  0  0  0  0  0  0  0  0  0  0  0
    6.8842    2.6626   -0.5860 C   0  0  0  0  0  0  0  0  0  0  0  0
    7.5865    2.7207    0.5372 N   0  0  0  0  0  0  0  0  0  0  0  0
    8.9000    2.6909    0.2074 C   0  0  0  0  0  0  0  0  0  0  0  0
   10.0089    2.7343    1.1897 C   0  0  0  0  0  0  0  0  0  0  0  0
   11.1864    2.6823    0.8409 O   0  0  0  0  0  0  0  0  0  0  0  0
    9.6066    2.8480    2.4866 N   0  0  0  0  0  0  0  0  0  0  0  0
   10.5467    2.8302    3.5970 C   0  0  0  0  0  0  0  0  0  0  0  0
   10.7062    1.4646    4.2487 C   0  0  0  0  0  0  0  0  0  0  0  0
   11.5963    0.5466    3.6692 C   0  0  0  0  0  0  0  0  0  0  0  0
   11.7703   -0.7302    4.2065 C   0  0  0  0  0  0  0  0  0  0  0  0
   11.0475   -1.1027    5.3419 C   0  0  0  0  0  0  0  0  0  0  0  0
   10.1576   -0.1969    5.9235 C   0  0  0  0  0  0  0  0  0  0  0  0
    9.9680    1.0897    5.3940 C   0  0  0  0  0  0  0  0  0  0  0  0
    8.9912    2.0358    6.0571 C   0  0  0  0  0  0  0  0  0  0  0  0
    9.0370    2.6105   -1.1912 C   0  0  0  0  0  0  0  0  0  0  0  0
   10.1207    2.5489   -2.1000 C   0  0  0  0  0  0  0  0  0  0  0  0
    9.8535    2.4752   -3.4470 C   0  0  0  0  0  0  0  0  0  0  0  0
    8.5035    2.4613   -3.9125 C   0  0  0  0  0  0  0  0  0  0  0  0
    7.4557    2.5204   -3.0354 C   0  0  0  0  0  0  0  0  0  0  0  0
    7.7271    2.5940   -1.6838 N   0  0  0  0  0  0  0  0  0  0  0  0
    2.7751   -0.2312    2.4828 H   0  0  0  0  0  0  0  0  0  0  0  0
    2.9822    1.4010    3.1563 H   0  0  0  0  0  0  0  0  0  0  0  0
    4.3266    0.6081    2.2961 H   0  0  0  0  0  0  0  0  0  0  0  0
    1.6477    1.4565    0.9984 H   0  0  0  0  0  0  0  0  0  0  0  0
    2.9823    0.6769    0.1435 H   0  0  0  0  0  0  0  0  0  0  0  0
    3.0616    3.4553    1.4582 H   0  0  0  0  0  0  0  0  0  0  0  0
    2.9201    3.1096   -0.2814 H   0  0  0  0  0  0  0  0  0  0  0  0
    5.3833    2.7808    1.3405 H   0  0  0  0  0  0  0  0  0  0  0  0
    8.6081    2.8048    2.6598 H   0  0  0  0  0  0  0  0  0  0  0  0
   10.2353    3.5855    4.3336 H   0  0  0  0  0  0  0  0  0  0  0  0
   11.5121    3.1504    3.1823 H   0  0  0  0  0  0  0  0  0  0  0  0
   12.1505    0.8482    2.7763 H   0  0  0  0  0  0  0  0  0  0  0  0
   12.4694   -1.4297    3.7410 H   0  0  0  0  0  0  0  0  0  0  0  0
   11.1745   -2.0976    5.7769 H   0  0  0  0  0  0  0  0  0  0  0  0
    9.5924   -0.4928    6.8122 H   0  0  0  0  0  0  0  0  0  0  0  0
    8.4855    1.5486    6.9035 H   0  0  0  0  0  0  0  0  0  0  0  0
    8.2074    2.3803    5.3616 H   0  0  0  0  0  0  0  0  0  0  0  0
    9.4903    2.9389    6.4475 H   0  0  0  0  0  0  0  0  0  0  0  0
   11.1273    2.5628   -1.6830 H   0  0  0  0  0  0  0  0  0  0  0  0
   10.6721    2.4267   -4.1681 H   0  0  0  0  0  0  0  0  0  0  0  0
    8.2873    2.4031   -4.9805 H   0  0  0  0  0  0  0  0  0  0  0  0
    6.3986    2.5152   -3.2960 H   0  0  0  0  0  0  0  0  0  0  0  0
  1  2  1  0
  1 27  1  0
  1 28  1  0
  1 29  1  0
  2  3  1  0
  2 30  1  0
  2 31  1  0
  3  4  1  0
  3 32  1  0
  3 33  1  0
  4  5  1  0
  4 34  1  0
  5  6  2  0
  5  7  1  0
  7  8  2  0
  7 26  1  0
  8  9  1  0
  9 10  1  0
  9 21  2  0
 10 11  2  0
 10 12  1  0
 12 13  1  0
 12 35  1  0
 13 14  1  0
 13 36  1  0
 13 37  1  0
 14 15  2  0
 14 19  1  0
 15 16  1  0
 15 38  1  0
 16 17  2  0
 16 39  1  0
 17 18  1  0
 17 40  1  0
 18 19  2  0
 18 41  1  0
 19 20  1  0
 20 42  1  0
 20 43  1  0
 20 44  1  0
 21 22  1  0
 21 26  1  0
 22 23  2  0
 22 45  1  0
 23 24  1  0
 23 46  1  0
 24 25  2  0
 24 47  1  0
 25 26  1  0
 25 48  1  0
M  END

