
     RDKit          3D

 33 35  0  0  0  0  0  0  0  0999 V2000
    1.2507    0.2309    1.2789 C   0  0  0  0  0  0  0  0  0  0  0  0
    2.4181    0.0868    0.4298 N   0  0  0  0  0  0  0  0  0  0  0  0
    3.1531    1.1613    0.1744 N   0  0  0  0  0  0  0  0  0  0  0  0
    4.2338    0.7410   -0.4834 C   0  0  0  0  0  0  0  0  0  0  0  0
    4.2257   -0.6678   -0.6379 C   0  0  0  0  0  0  0  0  0  0  0  0
    5.1456   -1.4776   -1.2673 N   0  0  0  0  0  0  0  0  0  0  0  0
    3.0168   -1.0736   -0.0475 C   0  0  0  0  0  0  0  0  0  0  0  0
    2.5639   -2.4705    0.0261 C   0  0  0  0  0  0  0  0  0  0  0  0
    3.3815   -3.3922   -0.0070 O   0  0  0  0  0  0  0  0  0  0  0  0
    1.2141   -2.7376    0.1000 N   0  0  0  0  0  0  0  0  0  0  0  0
    0.6872   -4.0959   -0.0817 C   0  0  0  0  0  0  0  0  0  0  0  0
   -0.5296   -3.5025   -0.8606 C   0  0  2  0  0  0  0  0  0  0  0  0
   -1.7570   -3.5717   -0.1697 O   0  0  0  0  0  0  0  0  0  0  0  0
   -0.6412   -3.9387   -2.3108 C   0  0  1  0  0  0  0  0  0  0  0  0
   -1.5907   -5.0315   -2.7362 C   0  0  0  0  0  0  0  0  0  0  0  0
   -1.8662   -3.5983   -3.1176 C   0  0  0  0  0  0  0  0  0  0  0  0
    0.1063   -2.1028   -0.6440 C   0  0  0  0  0  0  0  0  0  0  0  0
    1.4831    0.9553    2.0710 H   0  0  0  0  0  0  0  0  0  0  0  0
    1.0027   -0.7379    1.7289 H   0  0  0  0  0  0  0  0  0  0  0  0
    0.3825    0.6012    0.7103 H   0  0  0  0  0  0  0  0  0  0  0  0
    4.9919    1.4529   -0.8093 H   0  0  0  0  0  0  0  0  0  0  0  0
    6.0816   -1.0997   -1.3514 H   0  0  0  0  0  0  0  0  0  0  0  0
    5.1070   -2.4453   -0.9555 H   0  0  0  0  0  0  0  0  0  0  0  0
    0.4155   -4.5958    0.8628 H   0  0  0  0  0  0  0  0  0  0  0  0
    1.3677   -4.7419   -0.6574 H   0  0  0  0  0  0  0  0  0  0  0  0
   -1.9972   -4.5025   -0.0655 H   0  0  0  0  0  0  0  0  0  0  0  0
    0.3173   -3.9067   -2.8400 H   0  0  0  0  0  0  0  0  0  0  0  0
   -2.2452   -5.4847   -1.9848 H   0  0  0  0  0  0  0  0  0  0  0  0
   -1.2570   -5.7308   -3.5076 H   0  0  0  0  0  0  0  0  0  0  0  0
   -2.6801   -3.0950   -2.5893 H   0  0  0  0  0  0  0  0  0  0  0  0
   -1.7366   -3.2994   -4.1613 H   0  0  0  0  0  0  0  0  0  0  0  0
   -0.5367   -1.4480   -0.0393 H   0  0  0  0  0  0  0  0  0  0  0  0
    0.4254   -1.5765   -1.5579 H   0  0  0  0  0  0  0  0  0  0  0  0
  1  2  1  0
  1 18  1  0
  1 19  1  0
  1 20  1  0
  2  3  1  0
  2  7  1  0
  3  4  2  0
  4  5  1  0
  4 21  1  0
  5  6  1  0
  5  7  2  0
  6 22  1  0
  6 23  1  0
  7  8  1  0
  8  9  2  0
  8 10  1  0
 10 11  1  0
 10 17  1  0
 11 12  1  0
 11 24  1  0
 11 25  1  0
 12 13  1  1
 12 14  1  0
 12 17  1  0
 13 26  1  0
 14 15  1  0
 14 16  1  0
 14 27  1  6
 15 16  1  0
 15 28  1  0
 15 29  1  0
 16 30  1  0
 16 31  1  0
 17 32  1  0
 17 33  1  0
M  END

