
     RDKit          3D

 50 52  0  0  0  0  0  0  0  0999 V2000
   -0.5415    1.9363   -4.6499 C   0  0  0  0  0  0  0  0  0  0  0  0
    0.1272    1.4139   -3.5248 O   0  0  0  0  0  0  0  0  0  0  0  0
    1.3093    0.7683   -3.6932 C   0  0  0  0  0  0  0  0  0  0  0  0
    1.9176    0.2734   -2.5276 C   0  0  0  0  0  0  0  0  0  0  0  0
    3.1322   -0.4026   -2.6052 C   0  0  0  0  0  0  0  0  0  0  0  0
    3.7768   -0.6041   -3.8363 C   0  0  0  0  0  0  0  0  0  0  0  0
    5.0908   -1.3563   -3.9270 C   0  0  0  0  0  0  0  0  0  0  0  0
    4.9674   -2.6963   -4.4828 N   0  0  0  0  0  0  0  0  0  0  0  0
    5.2431   -2.9964   -5.7647 C   0  0  0  0  0  0  0  0  0  0  0  0
    5.6636   -2.2238   -6.6187 O   0  0  0  0  0  0  0  0  0  0  0  0
    4.9745   -4.4880   -6.0790 C   0  0  0  0  0  0  0  0  0  0  0  0
    4.5279   -5.2506   -5.2294 O   0  0  0  0  0  0  0  0  0  0  0  0
    5.2928   -4.7948   -7.3493 N   0  0  0  0  0  0  0  0  0  0  0  0
    5.1294   -6.1128   -7.9529 C   0  0  1  0  0  0  0  0  0  0  0  0
    4.1208   -6.0374   -9.1066 C   0  0  0  0  0  0  0  0  0  0  0  0
    6.4840   -6.6903   -8.4042 C   0  0  2  0  0  0  0  0  0  0  0  0
    6.4273   -8.1896   -8.8575 C   0  0  0  0  0  0  0  0  0  0  0  0
    7.5977   -8.8424   -8.0861 C   0  0  2  0  0  0  0  0  0  0  0  0
    7.1909   -8.9719   -6.6001 C   0  0  0  0  0  0  0  0  0  0  0  0
    7.2236   -7.4944   -6.0948 C   0  0  0  0  0  0  0  0  0  0  0  0
    7.6327   -6.7006   -7.3582 C   0  0  1  0  0  0  0  0  0  0  0  0
    8.6163   -7.6845   -8.0270 C   0  0  0  0  0  0  0  0  0  0  0  0
    3.1623   -0.1029   -4.9917 C   0  0  0  0  0  0  0  0  0  0  0  0
    1.9417    0.5759   -4.9327 C   0  0  0  0  0  0  0  0  0  0  0  0
   -1.4625    2.4047   -4.2775 H   0  0  0  0  0  0  0  0  0  0  0  0
   -0.8109    1.1457   -5.3737 H   0  0  0  0  0  0  0  0  0  0  0  0
    0.0624    2.7016   -5.1706 H   0  0  0  0  0  0  0  0  0  0  0  0
    1.4150    0.4340   -1.5716 H   0  0  0  0  0  0  0  0  0  0  0  0
    3.5915   -0.7788   -1.6859 H   0  0  0  0  0  0  0  0  0  0  0  0
    5.5492   -1.4320   -2.9282 H   0  0  0  0  0  0  0  0  0  0  0  0
    5.7930   -0.8172   -4.5799 H   0  0  0  0  0  0  0  0  0  0  0  0
    4.5650   -3.4568   -3.9389 H   0  0  0  0  0  0  0  0  0  0  0  0
    5.6404   -4.0122   -7.9019 H   0  0  0  0  0  0  0  0  0  0  0  0
    4.7094   -6.7452   -7.1564 H   0  0  0  0  0  0  0  0  0  0  0  0
    4.4816   -5.3618   -9.9009 H   0  0  0  0  0  0  0  0  0  0  0  0
    3.1499   -5.6597   -8.7519 H   0  0  0  0  0  0  0  0  0  0  0  0
    3.9592   -7.0278   -9.5580 H   0  0  0  0  0  0  0  0  0  0  0  0
    6.8261   -6.0738   -9.2561 H   0  0  0  0  0  0  0  0  0  0  0  0
    6.5602   -8.2850   -9.9465 H   0  0  0  0  0  0  0  0  0  0  0  0
    5.4655   -8.6670   -8.6079 H   0  0  0  0  0  0  0  0  0  0  0  0
    7.9523   -9.7825   -8.5346 H   0  0  0  0  0  0  0  0  0  0  0  0
    7.9111   -9.5993   -6.0509 H   0  0  0  0  0  0  0  0  0  0  0  0
    6.2012   -9.4418   -6.4843 H   0  0  0  0  0  0  0  0  0  0  0  0
    7.9889   -7.3629   -5.3133 H   0  0  0  0  0  0  0  0  0  0  0  0
    6.2722   -7.1584   -5.6588 H   0  0  0  0  0  0  0  0  0  0  0  0
    8.0269   -5.6972   -7.1413 H   0  0  0  0  0  0  0  0  0  0  0  0
    9.4977   -7.9083   -7.4043 H   0  0  0  0  0  0  0  0  0  0  0  0
    8.9620   -7.3530   -9.0199 H   0  0  0  0  0  0  0  0  0  0  0  0
    3.6496   -0.2454   -5.9603 H   0  0  0  0  0  0  0  0  0  0  0  0
    1.4976    0.9533   -5.8541 H   0  0  0  0  0  0  0  0  0  0  0  0
  1  2  1  0
  1 25  1  0
  1 26  1  0
  1 27  1  0
  2  3  1  0
  3  4  2  0
  3 24  1  0
  4  5  1  0
  4 28  1  0
  5  6  2  0
  5 29  1  0
  6  7  1  0
  6 23  1  0
  7  8  1  0
  7 30  1  0
  7 31  1  0
  8  9  1  0
  8 32  1  0
  9 10  2  0
  9 11  1  0
 11 12  2  0
 11 13  1  0
 13 14  1  0
 13 33  1  0
 14 15  1  0
 14 16  1  0
 14 34  1  1
 15 35  1  0
 15 36  1  0
 15 37  1  0
 16 17  1  0
 16 21  1  0
 16 38  1  6
 17 18  1  0
 17 39  1  0
 17 40  1  0
 18 19  1  0
 18 22  1  0
 18 41  1  6
 19 20  1  0
 19 42  1  0
 19 43  1  0
 20 21  1  0
 20 44  1  0
 20 45  1  0
 21 22  1  0
 21 46  1  1
 22 47  1  0
 22 48  1  0
 23 24  2  0
 23 49  1  0
 24 50  1  0
M  END

