
     RDKit          3D

 56 58  0  0  0  0  0  0  0  0999 V2000
   -0.2995   -3.5487   -2.7180 O   0  0  0  0  0  0  0  0  0  0  0  0
    0.3704   -3.1394   -1.8087 C   0  0  0  0  0  0  0  0  0  0  0  0
   -0.1549   -2.2540   -0.9305 O   0  0  0  0  0  0  0  0  0  0  0  0
    1.8129   -3.5853   -1.5230 C   0  0  1  0  0  0  0  0  0  0  0  0
    2.3558   -4.4606   -2.6663 C   0  0  0  0  0  0  0  0  0  0  0  0
    2.6932   -3.6419   -3.9239 C   0  0  0  0  0  0  0  0  0  0  0  0
    3.6262   -2.4533   -3.6439 C   0  0  2  0  0  0  0  0  0  0  0  0
    4.9827   -2.9294   -3.3733 N   0  0  0  0  0  0  0  0  0  0  0  0
    6.0634   -2.0816   -3.4772 C   0  0  0  0  0  0  0  0  0  0  0  0
    5.9194   -0.8962   -3.7551 O   0  0  0  0  0  0  0  0  0  0  0  0
    7.3189   -2.6413   -3.2726 N   0  0  0  0  0  0  0  0  0  0  0  0
    7.5757   -4.0389   -2.9531 C   0  0  0  0  0  0  0  0  0  0  0  0
    8.8834   -4.5151   -3.6187 C   0  0  0  0  0  0  0  0  0  0  0  0
   10.0250   -3.6462   -3.3761 N   0  0  0  0  0  0  0  0  0  0  0  0
   10.6924   -3.8158   -2.0878 C   0  0  0  0  0  0  0  0  0  0  0  0
   11.3914   -5.1433   -1.9865 C   0  0  0  0  0  0  0  0  0  0  0  0
   11.2771   -5.9880   -0.9472 C   0  0  0  0  0  0  0  0  0  0  0  0
   11.9573   -7.2802   -0.7565 C   0  0  0  0  0  0  0  0  0  0  0  0
   11.6718   -8.0380    0.3959 C   0  0  0  0  0  0  0  0  0  0  0  0
   12.2848   -9.2720    0.6235 C   0  0  0  0  0  0  0  0  0  0  0  0
   13.2022   -9.7789   -0.3002 C   0  0  0  0  0  0  0  0  0  0  0  0
   13.5000   -9.0383   -1.4509 C   0  0  0  0  0  0  0  0  0  0  0  0
   12.8881   -7.8064   -1.6760 C   0  0  0  0  0  0  0  0  0  0  0  0
    9.7044   -2.2731   -3.7533 C   0  0  0  0  0  0  0  0  0  0  0  0
    8.4449   -1.7314   -3.0697 C   0  0  0  0  0  0  0  0  0  0  0  0
    3.0640   -1.5835   -2.4991 C   0  0  0  0  0  0  0  0  0  0  0  0
    2.7762   -2.4087   -1.2412 C   0  0  0  0  0  0  0  0  0  0  0  0
    0.5014   -2.0102   -0.2624 H   0  0  0  0  0  0  0  0  0  0  0  0
    1.7399   -4.2024   -0.6069 H   0  0  0  0  0  0  0  0  0  0  0  0
    1.6170   -5.2347   -2.9190 H   0  0  0  0  0  0  0  0  0  0  0  0
    3.2510   -4.9922   -2.2954 H   0  0  0  0  0  0  0  0  0  0  0  0
    1.7539   -3.2533   -4.3459 H   0  0  0  0  0  0  0  0  0  0  0  0
    3.1409   -4.2928   -4.6930 H   0  0  0  0  0  0  0  0  0  0  0  0
    3.6937   -1.8202   -4.5412 H   0  0  0  0  0  0  0  0  0  0  0  0
    5.0955   -3.8485   -2.9703 H   0  0  0  0  0  0  0  0  0  0  0  0
    6.7627   -4.6689   -3.3412 H   0  0  0  0  0  0  0  0  0  0  0  0
    7.6240   -4.1953   -1.8547 H   0  0  0  0  0  0  0  0  0  0  0  0
    8.7111   -4.5606   -4.7091 H   0  0  0  0  0  0  0  0  0  0  0  0
    9.1177   -5.5355   -3.2779 H   0  0  0  0  0  0  0  0  0  0  0  0
   10.0306   -3.6807   -1.2037 H   0  0  0  0  0  0  0  0  0  0  0  0
   11.4517   -3.0147   -2.0209 H   0  0  0  0  0  0  0  0  0  0  0  0
   12.0339   -5.3864   -2.8404 H   0  0  0  0  0  0  0  0  0  0  0  0
   10.6048   -5.7007   -0.1287 H   0  0  0  0  0  0  0  0  0  0  0  0
   10.9548   -7.6479    1.1241 H   0  0  0  0  0  0  0  0  0  0  0  0
   12.0448   -9.8394    1.5266 H   0  0  0  0  0  0  0  0  0  0  0  0
   13.6851  -10.7437   -0.1261 H   0  0  0  0  0  0  0  0  0  0  0  0
   14.2186   -9.4253   -2.1782 H   0  0  0  0  0  0  0  0  0  0  0  0
   13.1389   -7.2434   -2.5777 H   0  0  0  0  0  0  0  0  0  0  0  0
    9.5500   -2.2446   -4.8470 H   0  0  0  0  0  0  0  0  0  0  0  0
   10.5637   -1.6220   -3.5255 H   0  0  0  0  0  0  0  0  0  0  0  0
    8.1581   -0.7547   -3.4788 H   0  0  0  0  0  0  0  0  0  0  0  0
    8.6314   -1.5962   -1.9839 H   0  0  0  0  0  0  0  0  0  0  0  0
    2.1341   -1.1021   -2.8511 H   0  0  0  0  0  0  0  0  0  0  0  0
    3.7788   -0.7751   -2.2876 H   0  0  0  0  0  0  0  0  0  0  0  0
    2.4027   -1.7557   -0.4315 H   0  0  0  0  0  0  0  0  0  0  0  0
    3.7207   -2.8267   -0.8530 H   0  0  0  0  0  0  0  0  0  0  0  0
  1  2  2  0
  2  3  1  0
  2  4  1  0
  3 28  1  0
  4  5  1  0
  4 27  1  0
  4 29  1  1
  5  6  1  0
  5 30  1  0
  5 31  1  0
  6  7  1  0
  6 32  1  0
  6 33  1  0
  7  8  1  0
  7 26  1  0
  7 34  1  6
  8  9  1  0
  8 35  1  0
  9 10  2  0
  9 11  1  0
 11 12  1  0
 11 25  1  0
 12 13  1  0
 12 36  1  0
 12 37  1  0
 13 14  1  0
 13 38  1  0
 13 39  1  0
 14 15  1  0
 14 24  1  0
 15 16  1  0
 15 40  1  0
 15 41  1  0
 16 17  2  0
 16 42  1  0
 17 18  1  0
 17 43  1  0
 18 19  2  0
 18 23  1  0
 19 20  1  0
 19 44  1  0
 20 21  2  0
 20 45  1  0
 21 22  1  0
 21 46  1  0
 22 23  2  0
 22 47  1  0
 23 48  1  0
 24 25  1  0
 24 49  1  0
 24 50  1  0
 25 51  1  0
 25 52  1  0
 26 27  1  0
 26 53  1  0
 26 54  1  0
 27 55  1  0
 27 56  1  0
M  END

