
     RDKit          3D

 59 63  0  0  0  0  0  0  0  0999 V2000
    1.3528    0.5374    1.3749 C   0  0  0  0  0  0  0  0  0  0  0  0
    2.2025   -0.1728    0.3078 C   0  0  0  0  0  0  0  0  0  0  0  0
    2.8317   -1.4589    0.7751 C   0  0  0  0  0  0  0  0  0  0  0  0
    4.0537   -1.5881    1.4474 C   0  0  0  0  0  0  0  0  0  0  0  0
    5.0649   -0.5571    1.8330 C   0  0  0  0  0  0  0  0  0  0  0  0
    4.2307   -2.9006    1.7448 N   0  0  0  0  0  0  0  0  0  0  0  0
    5.0015   -3.2988    2.2798 H   0  0  0  0  0  0  0  0  0  0  0  0
    3.1695   -3.6551    1.2814 C   0  0  0  0  0  0  0  0  0  0  0  0
    3.1086   -5.0851    1.4670 C   0  0  0  0  0  0  0  0  0  0  0  0
    3.5659   -5.7513    2.5597 N   0  0  0  0  0  0  0  0  0  0  0  0
    3.3458   -7.1257    2.4119 C   0  0  0  0  0  0  0  0  0  0  0  0
    3.6702   -8.0290    3.4072 C   0  0  0  0  0  0  0  0  0  0  0  0
    4.2322   -7.6262    4.6267 C   0  0  0  0  0  0  0  0  0  0  0  0
    4.6166   -8.3681    5.7728 C   0  0  0  0  0  0  0  0  0  0  0  0
    4.5151   -9.8522    5.9482 C   0  0  0  0  0  0  0  0  0  0  0  0
    5.1095   -7.4359    6.7070 C   0  0  0  0  0  0  0  0  0  0  0  0
    5.6092   -7.7368    8.0943 C   0  0  0  0  0  0  0  0  0  0  0  0
    4.5197   -7.6851    9.1786 C   0  0  0  0  0  0  0  0  0  0  0  0
    5.0096   -6.1570    6.1081 C   0  0  0  0  0  0  0  0  0  0  0  0
    5.4007   -4.8308    6.6740 C   0  0  0  0  0  0  0  0  0  0  0  0
    4.4824   -6.2810    4.8621 N   0  0  0  0  0  0  0  0  0  0  0  0
    4.2429   -5.1394    3.8495 B   0  0  1  0  0  0  0  0  0  0  0  0
    5.4967   -4.5834    3.4776 F   0  0  0  0  0  0  0  0  0  0  0  0
    3.4394   -4.1500    4.3870 F   0  0  0  0  0  0  0  0  0  0  0  0
    2.7341   -7.3397    1.1291 C   0  0  0  0  0  0  0  0  0  0  0  0
    2.3404   -8.5022    0.4423 C   0  0  0  0  0  0  0  0  0  0  0  0
    1.8416   -8.3723   -0.8477 C   0  0  0  0  0  0  0  0  0  0  0  0
    1.7487   -7.1059   -1.4707 C   0  0  0  0  0  0  0  0  0  0  0  0
    2.1268   -5.9504   -0.7993 C   0  0  0  0  0  0  0  0  0  0  0  0
    2.5948   -6.0596    0.5253 C   0  0  0  0  0  0  0  0  0  0  0  0
    2.2645   -2.7602    0.6712 C   0  0  0  0  0  0  0  0  0  0  0  0
    0.8947   -3.0479    0.1254 C   0  0  0  0  0  0  0  0  0  0  0  0
    0.9067    1.4645    0.9785 H   0  0  0  0  0  0  0  0  0  0  0  0
    1.9609    0.8027    2.2545 H   0  0  0  0  0  0  0  0  0  0  0  0
    0.5331   -0.1077    1.7295 H   0  0  0  0  0  0  0  0  0  0  0  0
    2.9899    0.5180   -0.0405 H   0  0  0  0  0  0  0  0  0  0  0  0
    1.5768   -0.3733   -0.5781 H   0  0  0  0  0  0  0  0  0  0  0  0
    4.8287    0.4129    1.3747 H   0  0  0  0  0  0  0  0  0  0  0  0
    6.0802   -0.8441    1.5107 H   0  0  0  0  0  0  0  0  0  0  0  0
    5.0993   -0.4105    2.9268 H   0  0  0  0  0  0  0  0  0  0  0  0
    3.4617   -9.0866    3.2394 H   0  0  0  0  0  0  0  0  0  0  0  0
    4.2113  -10.3584    5.0203 H   0  0  0  0  0  0  0  0  0  0  0  0
    3.7804  -10.1232    6.7262 H   0  0  0  0  0  0  0  0  0  0  0  0
    5.4800  -10.2874    6.2590 H   0  0  0  0  0  0  0  0  0  0  0  0
    6.4161   -7.0333    8.3610 H   0  0  0  0  0  0  0  0  0  0  0  0
    6.0756   -8.7367    8.1009 H   0  0  0  0  0  0  0  0  0  0  0  0
    4.0627   -6.6842    9.2358 H   0  0  0  0  0  0  0  0  0  0  0  0
    4.9336   -7.9262   10.1715 H   0  0  0  0  0  0  0  0  0  0  0  0
    3.7106   -8.4023    8.9662 H   0  0  0  0  0  0  0  0  0  0  0  0
    5.8734   -4.9454    7.6583 H   0  0  0  0  0  0  0  0  0  0  0  0
    4.5230   -4.1729    6.7778 H   0  0  0  0  0  0  0  0  0  0  0  0
    6.1032   -4.3135    6.0014 H   0  0  0  0  0  0  0  0  0  0  0  0
    2.4367   -9.4884    0.9031 H   0  0  0  0  0  0  0  0  0  0  0  0
    1.5338   -9.2638   -1.4002 H   0  0  0  0  0  0  0  0  0  0  0  0
    1.3843   -7.0401   -2.4986 H   0  0  0  0  0  0  0  0  0  0  0  0
    2.0819   -4.9828   -1.2982 H   0  0  0  0  0  0  0  0  0  0  0  0
    0.5371   -4.0466    0.4082 H   0  0  0  0  0  0  0  0  0  0  0  0
    0.8561   -2.9802   -0.9762 H   0  0  0  0  0  0  0  0  0  0  0  0
    0.1646   -2.3174    0.5090 H   0  0  0  0  0  0  0  0  0  0  0  0
  1  2  1  0
  1 33  1  0
  1 34  1  0
  1 35  1  0
  2  3  1  0
  2 36  1  0
  2 37  1  0
  3  4  2  0
  3 31  1  0
  4  5  1  0
  4  6  1  0
  5 38  1  0
  5 39  1  0
  5 40  1  0
  6  7  1  0
  6  8  1  0
  8  9  1  0
  8 31  2  0
  9 10  1  0
  9 30  2  0
 10 11  1  0
 10 22  1  0
 11 12  1  0
 11 25  2  0
 12 13  2  0
 12 41  1  0
 13 14  1  0
 13 21  1  0
 14 15  1  0
 14 16  2  0
 15 42  1  0
 15 43  1  0
 15 44  1  0
 16 17  1  0
 16 19  1  0
 17 18  1  0
 17 45  1  0
 17 46  1  0
 18 47  1  0
 18 48  1  0
 18 49  1  0
 19 20  1  0
 19 21  2  0
 20 50  1  0
 20 51  1  0
 20 52  1  0
 21 22  1  0
 22 23  1  6
 22 24  1  0
 25 26  1  0
 25 30  1  0
 26 27  2  0
 26 53  1  0
 27 28  1  0
 27 54  1  0
 28 29  2  0
 28 55  1  0
 29 30  1  0
 29 56  1  0
 31 32  1  0
 32 57  1  0
 32 58  1  0
 32 59  1  0
M  CHG  2  21   1  22  -1
M  END

