
     RDKit          3D

 55 57  0  0  0  0  0  0  0  0999 V2000
    4.3431   -2.5400    2.8753 C   0  0  0  0  0  0  0  0  0  0  0  0
    4.8982   -2.4111    1.5922 O   0  0  0  0  0  0  0  0  0  0  0  0
    3.9922   -1.9370    0.6269 C   0  0  0  0  0  0  0  0  0  0  0  0
    4.7052   -1.7407   -0.7049 C   0  0  0  0  0  0  0  0  0  0  0  0
    5.2241   -2.9614   -1.3082 N   0  0  0  0  0  0  0  0  0  0  0  0
    4.2837   -3.9254   -1.8486 C   0  0  0  0  0  0  0  0  0  0  0  0
    4.1022   -5.2045   -1.0425 C   0  0  0  0  0  0  0  0  0  0  0  0
    4.6943   -5.4100    0.1862 C   0  0  0  0  0  0  0  0  0  0  0  0
    4.5010   -6.6250    0.8981 C   0  0  0  0  0  0  0  0  0  0  0  0
    5.0912   -6.8815    2.1603 C   0  0  0  0  0  0  0  0  0  0  0  0
    4.8606   -8.0844    2.7923 C   0  0  0  0  0  0  0  0  0  0  0  0
    4.0398   -9.0903    2.2135 C   0  0  0  0  0  0  0  0  0  0  0  0
    3.8247  -10.3892    2.9508 C   0  0  0  0  0  0  0  0  0  0  0  0
    3.4406   -8.8725    0.9703 C   0  0  0  0  0  0  0  0  0  0  0  0
    2.5665   -9.9193    0.3315 C   0  0  0  0  0  0  0  0  0  0  0  0
    3.6700   -7.6274    0.3015 C   0  0  0  0  0  0  0  0  0  0  0  0
    3.0879   -7.4021   -0.9114 N   0  0  0  0  0  0  0  0  0  0  0  0
    3.2923   -6.2822   -1.5240 C   0  0  0  0  0  0  0  0  0  0  0  0
    2.4909   -6.0705   -3.0889 Cl  0  0  0  0  0  0  0  0  0  0  0  0
    6.5948   -3.0260   -1.5633 C   0  0  0  0  0  0  0  0  0  0  0  0
    7.3509   -2.0926   -1.3236 O   0  0  0  0  0  0  0  0  0  0  0  0
    7.0487   -4.2094   -2.0961 N   0  0  0  0  0  0  0  0  0  0  0  0
    8.4427   -4.3801   -2.4806 C   0  0  0  0  0  0  0  0  0  0  0  0
    8.7111   -4.1490   -3.9579 C   0  0  0  0  0  0  0  0  0  0  0  0
    8.6239   -2.8525   -4.4950 C   0  0  0  0  0  0  0  0  0  0  0  0
    8.8524   -2.6321   -5.8544 C   0  0  0  0  0  0  0  0  0  0  0  0
    9.1743   -3.7018   -6.6987 C   0  0  0  0  0  0  0  0  0  0  0  0
    9.2671   -4.9927   -6.1738 C   0  0  0  0  0  0  0  0  0  0  0  0
    9.0358   -5.2120   -4.8110 C   0  0  0  0  0  0  0  0  0  0  0  0
    5.1338   -2.8996    3.5500 H   0  0  0  0  0  0  0  0  0  0  0  0
    3.5033   -3.2640    2.8955 H   0  0  0  0  0  0  0  0  0  0  0  0
    3.9671   -1.5707    3.2605 H   0  0  0  0  0  0  0  0  0  0  0  0
    3.5679   -0.9582    0.9359 H   0  0  0  0  0  0  0  0  0  0  0  0
    3.1325   -2.6345    0.5242 H   0  0  0  0  0  0  0  0  0  0  0  0
    5.5641   -1.0733   -0.5608 H   0  0  0  0  0  0  0  0  0  0  0  0
    4.0004   -1.2443   -1.3993 H   0  0  0  0  0  0  0  0  0  0  0  0
    4.5599   -4.1916   -2.8841 H   0  0  0  0  0  0  0  0  0  0  0  0
    3.3032   -3.4306   -1.9496 H   0  0  0  0  0  0  0  0  0  0  0  0
    5.3037   -4.6155    0.6249 H   0  0  0  0  0  0  0  0  0  0  0  0
    5.7277   -6.1202    2.6185 H   0  0  0  0  0  0  0  0  0  0  0  0
    5.3190   -8.2795    3.7657 H   0  0  0  0  0  0  0  0  0  0  0  0
    4.3564  -10.3989    3.9132 H   0  0  0  0  0  0  0  0  0  0  0  0
    4.1779  -11.2524    2.3616 H   0  0  0  0  0  0  0  0  0  0  0  0
    2.7553  -10.5679    3.1537 H   0  0  0  0  0  0  0  0  0  0  0  0
    1.7061  -10.1687    0.9755 H   0  0  0  0  0  0  0  0  0  0  0  0
    3.1208  -10.8597    0.1711 H   0  0  0  0  0  0  0  0  0  0  0  0
    2.1874   -9.5687   -0.6354 H   0  0  0  0  0  0  0  0  0  0  0  0
    6.4141   -4.9760   -2.2710 H   0  0  0  0  0  0  0  0  0  0  0  0
    8.7626   -5.3961   -2.1986 H   0  0  0  0  0  0  0  0  0  0  0  0
    9.0206   -3.6648   -1.8787 H   0  0  0  0  0  0  0  0  0  0  0  0
    8.3788   -2.0194   -3.8307 H   0  0  0  0  0  0  0  0  0  0  0  0
    8.7852   -1.6185   -6.2588 H   0  0  0  0  0  0  0  0  0  0  0  0
    9.3553   -3.5269   -7.7625 H   0  0  0  0  0  0  0  0  0  0  0  0
    9.5204   -5.8334   -6.8253 H   0  0  0  0  0  0  0  0  0  0  0  0
    9.1124   -6.2256   -4.4051 H   0  0  0  0  0  0  0  0  0  0  0  0
  1  2  1  0
  1 30  1  0
  1 31  1  0
  1 32  1  0
  2  3  1  0
  3  4  1  0
  3 33  1  0
  3 34  1  0
  4  5  1  0
  4 35  1  0
  4 36  1  0
  5  6  1  0
  5 20  1  0
  6  7  1  0
  6 37  1  0
  6 38  1  0
  7  8  2  0
  7 18  1  0
  8  9  1  0
  8 39  1  0
  9 10  2  0
  9 16  1  0
 10 11  1  0
 10 40  1  0
 11 12  2  0
 11 41  1  0
 12 13  1  0
 12 14  1  0
 13 42  1  0
 13 43  1  0
 13 44  1  0
 14 15  1  0
 14 16  2  0
 15 45  1  0
 15 46  1  0
 15 47  1  0
 16 17  1  0
 17 18  2  0
 18 19  1  0
 20 21  2  0
 20 22  1  0
 22 23  1  0
 22 48  1  0
 23 24  1  0
 23 49  1  0
 23 50  1  0
 24 25  2  0
 24 29  1  0
 25 26  1  0
 25 51  1  0
 26 27  2  0
 26 52  1  0
 27 28  1  0
 27 53  1  0
 28 29  2  0
 28 54  1  0
 29 55  1  0
M  END

