
     RDKit          3D

 36 37  0  0  0  0  0  0  0  0999 V2000
    2.2743    2.1875    0.8584 C   0  0  0  0  0  0  0  0  0  0  0  0
    2.9200    0.9009    0.3253 C   0  0  1  0  0  0  0  0  0  0  0  0
    1.9684   -0.2950    0.4592 C   0  0  0  0  0  0  0  0  0  0  0  0
    3.3846    1.1243   -1.1250 C   0  0  0  0  0  0  0  0  0  0  0  0
    4.4197   -0.2761   -1.6977 S   0  0  0  0  0  0  0  0  0  0  0  0
    4.8522    0.1532   -3.3531 C   0  0  0  0  0  0  0  0  0  0  0  0
    4.4413    1.3216   -4.0203 C   0  0  0  0  0  0  0  0  0  0  0  0
    4.8393    1.5575   -5.3346 C   0  0  0  0  0  0  0  0  0  0  0  0
    5.6667    0.6515   -6.0250 C   0  0  0  0  0  0  0  0  0  0  0  0
    6.0611    0.9221   -7.4213 C   0  0  0  0  0  0  0  0  0  0  0  0
    5.0921    1.4949   -8.2111 N   0  0  0  0  0  0  0  0  0  0  0  0
    4.1589    1.6248   -7.8333 H   0  0  0  0  0  0  0  0  0  0  0  0
    5.2256    1.8583   -9.5379 C   0  0  0  0  0  0  0  0  0  0  0  0
    3.9801    2.5384  -10.3895 S   0  0  0  0  0  0  0  0  0  0  0  0
    6.4628    1.5889  -10.0524 N   0  0  0  0  0  0  0  0  0  0  0  0
    6.6119    1.8334  -11.0287 H   0  0  0  0  0  0  0  0  0  0  0  0
    7.5601    0.9952   -9.3975 C   0  0  0  0  0  0  0  0  0  0  0  0
    8.5995    0.8072   -9.9877 O   0  0  0  0  0  0  0  0  0  0  0  0
    7.3018    0.6688   -7.9809 C   0  0  0  0  0  0  0  0  0  0  0  0
    8.3998    0.1466   -7.2371 C   0  0  0  0  0  0  0  0  0  0  0  0
    9.3013   -0.2820   -6.6427 N   0  0  0  0  0  0  0  0  0  0  0  0
    6.0812   -0.5146   -5.3486 C   0  0  0  0  0  0  0  0  0  0  0  0
    5.6773   -0.7600   -4.0438 C   0  0  0  0  0  0  0  0  0  0  0  0
    1.9582    2.0602    1.9058 H   0  0  0  0  0  0  0  0  0  0  0  0
    1.3788    2.4553    0.2718 H   0  0  0  0  0  0  0  0  0  0  0  0
    2.9710    3.0402    0.8194 H   0  0  0  0  0  0  0  0  0  0  0  0
    3.8204    0.6977    0.9336 H   0  0  0  0  0  0  0  0  0  0  0  0
    1.0448   -0.1283   -0.1216 H   0  0  0  0  0  0  0  0  0  0  0  0
    1.6785   -0.4463    1.5109 H   0  0  0  0  0  0  0  0  0  0  0  0
    2.4255   -1.2288    0.0980 H   0  0  0  0  0  0  0  0  0  0  0  0
    3.9830    2.0463   -1.1925 H   0  0  0  0  0  0  0  0  0  0  0  0
    2.5120    1.2263   -1.7916 H   0  0  0  0  0  0  0  0  0  0  0  0
    3.8165    2.0621   -3.5220 H   0  0  0  0  0  0  0  0  0  0  0  0
    4.5248    2.4894   -5.8122 H   0  0  0  0  0  0  0  0  0  0  0  0
    6.7121   -1.2470   -5.8525 H   0  0  0  0  0  0  0  0  0  0  0  0
    6.0032   -1.6764   -3.5457 H   0  0  0  0  0  0  0  0  0  0  0  0
  1  2  1  0
  1 24  1  0
  1 25  1  0
  1 26  1  0
  2  3  1  0
  2  4  1  0
  2 27  1  1
  3 28  1  0
  3 29  1  0
  3 30  1  0
  4  5  1  0
  4 31  1  0
  4 32  1  0
  5  6  2  0
  6  7  1  0
  6 23  1  0
  7  8  2  0
  7 33  1  0
  8  9  1  0
  8 34  1  0
  9 10  2  0
  9 22  1  0
 10 11  1  0
 10 19  1  0
 11 12  1  0
 11 13  1  0
 13 14  2  0
 13 15  1  0
 15 16  1  0
 15 17  1  0
 17 18  1  0
 17 19  2  0
 19 20  1  0
 20 21  3  0
 22 23  2  0
 22 35  1  0
 23 36  1  0
M  CHG  2   5   1  18  -1
M  END

