
     RDKit          3D

119126  0  0  0  0  0  0  0  0999 V2000
    3.7025    3.3601    5.5172 C   0  0  0  0  0  0  0  0  0  0  0  0
    3.7773    2.2487    4.4693 C   0  0  0  0  0  0  0  0  0  0  0  0
    4.5640    2.6424    3.2149 C   0  0  0  0  0  0  0  0  0  0  0  0
    4.6326    1.5330    2.1624 C   0  0  0  0  0  0  0  0  0  0  0  0
    5.4108    1.9042    0.8826 C   0  0  0  0  0  0  0  0  0  0  0  0
    6.8919    2.1335    1.0919 C   0  0  0  0  0  0  0  0  0  0  0  0
    7.7685    1.0470    1.2628 C   0  0  0  0  0  0  0  0  0  0  0  0
    9.1302    1.2387    1.4772 C   0  0  0  0  0  0  0  0  0  0  0  0
    9.6738    2.5418    1.5283 C   0  0  0  0  0  0  0  0  0  0  0  0
   11.0696    2.7424    1.7449 C   0  0  0  0  0  0  0  0  0  0  0  0
   12.2656    2.9054    1.9306 C   0  0  0  0  0  0  0  0  0  0  0  0
   13.6650    3.0611    2.1477 C   0  0  0  0  0  0  0  0  0  0  0  0
   14.4653    1.9170    2.2909 C   0  0  0  0  0  0  0  0  0  0  0  0
   15.8499    1.9984    2.5032 C   0  0  0  0  0  0  0  0  0  0  0  0
   16.6034    0.7971    2.6374 C   0  0  0  0  0  0  0  0  0  0  0  0
   17.2275   -0.2468    2.7484 C   0  0  0  0  0  0  0  0  0  0  0  0
   17.9526   -1.4685    2.8781 C   0  0  0  0  0  0  0  0  0  0  0  0
   19.3538   -1.4671    3.0580 C   0  0  0  0  0  0  0  0  0  0  0  0
   20.0535   -2.6640    3.1812 C   0  0  0  0  0  0  0  0  0  0  0  0
   19.3964   -3.9066    3.1328 C   0  0  0  0  0  0  0  0  0  0  0  0
   20.1725   -5.1961    3.2915 C   0  0  0  0  0  0  0  0  0  0  0  0
   20.6003   -5.5126    4.7398 C   0  0  0  0  0  0  0  0  0  0  0  0
   19.4437   -5.7976    5.7013 C   0  0  0  0  0  0  0  0  0  0  0  0
   19.8987   -6.1176    7.1289 C   0  0  0  0  0  0  0  0  0  0  0  0
   18.7431   -6.4086    8.0874 C   0  0  0  0  0  0  0  0  0  0  0  0
   18.0038   -3.9032    2.9506 C   0  0  0  0  0  0  0  0  0  0  0  0
   17.2897   -2.7130    2.8250 C   0  0  0  0  0  0  0  0  0  0  0  0
   16.4749    3.2811    2.5800 C   0  0  0  0  0  0  0  0  0  0  0  0
   17.8797    3.4255    2.7933 C   0  0  0  0  0  0  0  0  0  0  0  0
   18.4748    4.6543    2.8625 C   0  0  0  0  0  0  0  0  0  0  0  0
   17.7122    5.8622    2.7323 C   0  0  0  0  0  0  0  0  0  0  0  0
   18.2950    7.1609    2.8366 C   0  0  0  0  0  0  0  0  0  0  0  0
   19.7789    7.3525    2.9999 C   0  0  0  0  0  0  0  0  0  0  0  0
   20.5752    6.6507    2.3970 O   0  0  0  0  0  0  0  0  0  0  0  0
   20.2879    8.4385    3.9108 C   0  0  0  0  0  0  0  0  0  0  0  0
   21.5980    8.9054    3.6992 C   0  0  0  0  0  0  0  0  0  0  0  0
   22.1501    9.8711    4.5386 C   0  0  0  0  0  0  0  0  0  0  0  0
   21.4082   10.3680    5.6176 C   0  0  0  0  0  0  0  0  0  0  0  0
   20.1140    9.8945    5.8510 C   0  0  0  0  0  0  0  0  0  0  0  0
   19.5528    8.9385    4.9998 C   0  0  0  0  0  0  0  0  0  0  0  0
   17.4891    8.2931    2.7016 C   0  0  0  0  0  0  0  0  0  0  0  0
   16.1062    8.2124    2.4588 C   0  0  0  0  0  0  0  0  0  0  0  0
   15.3555    9.4127    2.3077 C   0  0  0  0  0  0  0  0  0  0  0  0
   14.7382   10.4593    2.1823 C   0  0  0  0  0  0  0  0  0  0  0  0
   14.0243   11.6857    2.0370 C   0  0  0  0  0  0  0  0  0  0  0  0
   12.6343   11.6942    1.7846 C   0  0  0  0  0  0  0  0  0  0  0  0
   11.9470   12.8961    1.6419 C   0  0  0  0  0  0  0  0  0  0  0  0
   12.6052   14.1348    1.7442 C   0  0  0  0  0  0  0  0  0  0  0  0
   11.8357   15.4309    1.6086 C   0  0  0  0  0  0  0  0  0  0  0  0
   10.9967   15.8109    2.8466 C   0  0  0  0  0  0  0  0  0  0  0  0
   11.8144   16.1372    4.0989 C   0  0  0  0  0  0  0  0  0  0  0  0
   10.9555   16.5206    5.3084 C   0  0  0  0  0  0  0  0  0  0  0  0
   11.7729   16.8531    6.5574 C   0  0  0  0  0  0  0  0  0  0  0  0
   13.9876   14.1217    1.9921 C   0  0  0  0  0  0  0  0  0  0  0  0
   14.6895   12.9264    2.1366 C   0  0  0  0  0  0  0  0  0  0  0  0
   15.4920    6.9283    2.3754 C   0  0  0  0  0  0  0  0  0  0  0  0
   14.0857    6.7837    2.1531 C   0  0  0  0  0  0  0  0  0  0  0  0
   13.5001    5.5517    2.0808 C   0  0  0  0  0  0  0  0  0  0  0  0
   14.2680    4.3539    2.2213 C   0  0  0  0  0  0  0  0  0  0  0  0
   15.6775    4.4588    2.4398 C   0  0  0  0  0  0  0  0  0  0  0  0
   16.2975    5.7538    2.5180 C   0  0  0  0  0  0  0  0  0  0  0  0
    8.7986    3.6347    1.3540 C   0  0  0  0  0  0  0  0  0  0  0  0
    7.4371    3.4270    1.1404 C   0  0  0  0  0  0  0  0  0  0  0  0
    3.1328    3.0424    6.4051 H   0  0  0  0  0  0  0  0  0  0  0  0
    3.2114    4.2610    5.1122 H   0  0  0  0  0  0  0  0  0  0  0  0
    4.7084    3.6590    5.8568 H   0  0  0  0  0  0  0  0  0  0  0  0
    2.7545    1.9463    4.1783 H   0  0  0  0  0  0  0  0  0  0  0  0
    4.2383    1.3498    4.9178 H   0  0  0  0  0  0  0  0  0  0  0  0
    5.5868    2.9407    3.5071 H   0  0  0  0  0  0  0  0  0  0  0  0
    4.1046    3.5430    2.7649 H   0  0  0  0  0  0  0  0  0  0  0  0
    3.6064    1.2449    1.8714 H   0  0  0  0  0  0  0  0  0  0  0  0
    5.0845    0.6295    2.6106 H   0  0  0  0  0  0  0  0  0  0  0  0
    4.9608    2.8069    0.4360 H   0  0  0  0  0  0  0  0  0  0  0  0
    5.2760    1.0933    0.1465 H   0  0  0  0  0  0  0  0  0  0  0  0
    7.3744    0.0272    1.2203 H   0  0  0  0  0  0  0  0  0  0  0  0
    9.7931    0.3801    1.6031 H   0  0  0  0  0  0  0  0  0  0  0  0
   13.9966    0.9341    2.2334 H   0  0  0  0  0  0  0  0  0  0  0  0
   19.8864   -0.5144    3.0939 H   0  0  0  0  0  0  0  0  0  0  0  0
   21.1393   -2.6350    3.3119 H   0  0  0  0  0  0  0  0  0  0  0  0
   21.0790   -5.1462    2.6643 H   0  0  0  0  0  0  0  0  0  0  0  0
   19.5710   -6.0347    2.9016 H   0  0  0  0  0  0  0  0  0  0  0  0
   21.2033   -4.6727    5.1301 H   0  0  0  0  0  0  0  0  0  0  0  0
   21.2772   -6.3855    4.7174 H   0  0  0  0  0  0  0  0  0  0  0  0
   18.8463   -6.6435    5.3113 H   0  0  0  0  0  0  0  0  0  0  0  0
   18.7585   -4.9313    5.7245 H   0  0  0  0  0  0  0  0  0  0  0  0
   20.4948   -5.2714    7.5164 H   0  0  0  0  0  0  0  0  0  0  0  0
   20.5869   -6.9825    7.1069 H   0  0  0  0  0  0  0  0  0  0  0  0
   18.0567   -5.5483    8.1602 H   0  0  0  0  0  0  0  0  0  0  0  0
   19.1057   -6.6315    9.1037 H   0  0  0  0  0  0  0  0  0  0  0  0
   18.1494   -7.2746    7.7490 H   0  0  0  0  0  0  0  0  0  0  0  0
   17.4675   -4.8551    2.9018 H   0  0  0  0  0  0  0  0  0  0  0  0
   16.2073   -2.7348    2.6820 H   0  0  0  0  0  0  0  0  0  0  0  0
   18.4826    2.5221    2.8976 H   0  0  0  0  0  0  0  0  0  0  0  0
   19.5513    4.7267    3.0015 H   0  0  0  0  0  0  0  0  0  0  0  0
   22.1669    8.4892    2.8655 H   0  0  0  0  0  0  0  0  0  0  0  0
   23.1641   10.2365    4.3574 H   0  0  0  0  0  0  0  0  0  0  0  0
   21.8426   11.1213    6.2801 H   0  0  0  0  0  0  0  0  0  0  0  0
   19.5381   10.2688    6.7011 H   0  0  0  0  0  0  0  0  0  0  0  0
   18.5459    8.5661    5.1968 H   0  0  0  0  0  0  0  0  0  0  0  0
   17.9414    9.2838    2.7602 H   0  0  0  0  0  0  0  0  0  0  0  0
   12.1023   10.7446    1.6965 H   0  0  0  0  0  0  0  0  0  0  0  0
   10.8720   12.8741    1.4394 H   0  0  0  0  0  0  0  0  0  0  0  0
   11.1591   15.3548    0.7404 H   0  0  0  0  0  0  0  0  0  0  0  0
   12.5384   16.2510    1.3836 H   0  0  0  0  0  0  0  0  0  0  0  0
   10.2927   14.9894    3.0720 H   0  0  0  0  0  0  0  0  0  0  0  0
   10.3701   16.6825    2.5852 H   0  0  0  0  0  0  0  0  0  0  0  0
   12.5133   16.9645    3.8718 H   0  0  0  0  0  0  0  0  0  0  0  0
   12.4486   15.2723    4.3639 H   0  0  0  0  0  0  0  0  0  0  0  0
   10.2586   15.6927    5.5337 H   0  0  0  0  0  0  0  0  0  0  0  0
   10.3179   17.3841    5.0438 H   0  0  0  0  0  0  0  0  0  0  0  0
   12.3933   15.9964    6.8701 H   0  0  0  0  0  0  0  0  0  0  0  0
   11.1244   17.1214    7.4067 H   0  0  0  0  0  0  0  0  0  0  0  0
   12.4531   17.7027    6.3773 H   0  0  0  0  0  0  0  0  0  0  0  0
   14.5271   15.0699    2.0690 H   0  0  0  0  0  0  0  0  0  0  0  0
   15.7648   12.9409    2.3264 H   0  0  0  0  0  0  0  0  0  0  0  0
   13.4842    7.6874    2.0436 H   0  0  0  0  0  0  0  0  0  0  0  0
   12.4257    5.4616    1.9129 H   0  0  0  0  0  0  0  0  0  0  0  0
    9.1992    4.6501    1.3853 H   0  0  0  0  0  0  0  0  0  0  0  0
    6.7804    4.2906    1.0033 H   0  0  0  0  0  0  0  0  0  0  0  0
  1  2  1  0
  1 64  1  0
  1 65  1  0
  1 66  1  0
  2  3  1  0
  2 67  1  0
  2 68  1  0
  3  4  1  0
  3 69  1  0
  3 70  1  0
  4  5  1  0
  4 71  1  0
  4 72  1  0
  5  6  1  0
  5 73  1  0
  5 74  1  0
  6  7  2  0
  6 63  1  0
  7  8  1  0
  7 75  1  0
  8  9  2  0
  8 76  1  0
  9 10  1  0
  9 62  1  0
 10 11  3  0
 11 12  1  0
 12 13  2  0
 12 59  1  0
 13 14  1  0
 13 77  1  0
 14 15  1  0
 14 28  2  0
 15 16  3  0
 16 17  1  0
 17 18  2  0
 17 27  1  0
 18 19  1  0
 18 78  1  0
 19 20  2  0
 19 79  1  0
 20 21  1  0
 20 26  1  0
 21 22  1  0
 21 80  1  0
 21 81  1  0
 22 23  1  0
 22 82  1  0
 22 83  1  0
 23 24  1  0
 23 84  1  0
 23 85  1  0
 24 25  1  0
 24 86  1  0
 24 87  1  0
 25 88  1  0
 25 89  1  0
 25 90  1  0
 26 27  2  0
 26 91  1  0
 27 92  1  0
 28 29  1  0
 28 60  1  0
 29 30  2  0
 29 93  1  0
 30 31  1  0
 30 94  1  0
 31 32  2  0
 31 61  1  0
 32 33  1  0
 32 41  1  0
 33 34  2  0
 33 35  1  0
 35 36  2  0
 35 40  1  0
 36 37  1  0
 36 95  1  0
 37 38  2  0
 37 96  1  0
 38 39  1  0
 38 97  1  0
 39 40  2  0
 39 98  1  0
 40 99  1  0
 41 42  2  0
 41100  1  0
 42 43  1  0
 42 56  1  0
 43 44  3  0
 44 45  1  0
 45 46  2  0
 45 55  1  0
 46 47  1  0
 46101  1  0
 47 48  2  0
 47102  1  0
 48 49  1  0
 48 54  1  0
 49 50  1  0
 49103  1  0
 49104  1  0
 50 51  1  0
 50105  1  0
 50106  1  0
 51 52  1  0
 51107  1  0
 51108  1  0
 52 53  1  0
 52109  1  0
 52110  1  0
 53111  1  0
 53112  1  0
 53113  1  0
 54 55  2  0
 54114  1  0
 55115  1  0
 56 57  2  0
 56 61  1  0
 57 58  1  0
 57116  1  0
 58 59  2  0
 58117  1  0
 59 60  1  0
 60 61  2  0
 62 63  2  0
 62118  1  0
 63119  1  0
M  END

