
     RDKit          3D

 62 67  0  0  0  0  0  0  0  0999 V2000
    1.0154   -0.6828   -0.4086 C   0  0  0  0  0  0  0  0  0  0  0  0
   -0.0357   -0.2358   -1.1314 C   0  0  0  0  0  0  0  0  0  0  0  0
   -1.4360   -0.4462   -0.7527 C   0  0  0  0  0  0  0  0  0  0  0  0
   -2.3600    0.0872   -1.6177 N   0  0  0  0  0  0  0  0  0  0  0  0
   -3.6254   -0.0740   -1.3226 C   0  0  0  0  0  0  0  0  0  0  0  0
   -4.0697   -0.7670   -0.1627 C   0  0  0  0  0  0  0  0  0  0  0  0
   -5.4305   -0.9599    0.1865 C   0  0  0  0  0  0  0  0  0  0  0  0
   -5.7538   -1.6492    1.3376 C   0  0  0  0  0  0  0  0  0  0  0  0
   -4.7268   -2.1656    2.1728 C   0  0  0  0  0  0  0  0  0  0  0  0
   -3.3957   -1.9919    1.8558 C   0  0  0  0  0  0  0  0  0  0  0  0
   -3.0311   -1.2849    0.6744 C   0  0  0  0  0  0  0  0  0  0  0  0
   -1.7272   -1.1101    0.3559 N   0  0  0  0  0  0  0  0  0  0  0  0
    2.4350   -0.5175   -0.7134 C   0  0  0  0  0  0  0  0  0  0  0  0
    2.9152    0.1586   -1.8558 C   0  0  0  0  0  0  0  0  0  0  0  0
    4.2776    0.2872   -2.0967 C   0  0  0  0  0  0  0  0  0  0  0  0
    5.2387   -0.2511   -1.2131 C   0  0  0  0  0  0  0  0  0  0  0  0
    6.6914   -0.1109   -1.4757 C   0  0  0  0  0  0  0  0  0  0  0  0
    7.2172    1.0263   -2.1202 C   0  0  0  0  0  0  0  0  0  0  0  0
    8.5798    1.1606   -2.3733 C   0  0  0  0  0  0  0  0  0  0  0  0
    9.4874    0.1595   -1.9785 C   0  0  0  0  0  0  0  0  0  0  0  0
   10.8747    0.2940   -2.2277 N   0  0  0  0  0  0  0  0  0  0  0  0
   11.5068    1.5590   -2.0851 C   0  0  0  0  0  0  0  0  0  0  0  0
   11.2131    2.3879   -0.9869 C   0  0  0  0  0  0  0  0  0  0  0  0
   11.8329    3.6316   -0.8552 C   0  0  0  0  0  0  0  0  0  0  0  0
   12.7670    4.0650   -1.8018 C   0  0  0  0  0  0  0  0  0  0  0  0
   13.0690    3.2401   -2.8901 C   0  0  0  0  0  0  0  0  0  0  0  0
   12.4414    2.0022   -3.0387 C   0  0  0  0  0  0  0  0  0  0  0  0
   11.6431   -0.8353   -2.6200 C   0  0  0  0  0  0  0  0  0  0  0  0
   11.1494   -1.7418   -3.5761 C   0  0  0  0  0  0  0  0  0  0  0  0
   11.9062   -2.8524   -3.9531 C   0  0  0  0  0  0  0  0  0  0  0  0
   13.1722   -3.0717   -3.4005 C   0  0  0  0  0  0  0  0  0  0  0  0
   13.6709   -2.1680   -2.4567 C   0  0  0  0  0  0  0  0  0  0  0  0
   12.9139   -1.0640   -2.0613 C   0  0  0  0  0  0  0  0  0  0  0  0
    8.9746   -0.9790   -1.3286 C   0  0  0  0  0  0  0  0  0  0  0  0
    7.6088   -1.1087   -1.0913 C   0  0  0  0  0  0  0  0  0  0  0  0
    4.7599   -0.9260   -0.0736 C   0  0  0  0  0  0  0  0  0  0  0  0
    3.3948   -1.0550    0.1682 C   0  0  0  0  0  0  0  0  0  0  0  0
    0.7795   -1.2309    0.5095 H   0  0  0  0  0  0  0  0  0  0  0  0
    0.0934    0.3218   -2.0616 H   0  0  0  0  0  0  0  0  0  0  0  0
   -4.3656    0.3527   -2.0146 H   0  0  0  0  0  0  0  0  0  0  0  0
   -6.2117   -0.5574   -0.4648 H   0  0  0  0  0  0  0  0  0  0  0  0
   -6.8001   -1.8016    1.6128 H   0  0  0  0  0  0  0  0  0  0  0  0
   -5.0013   -2.7091    3.0808 H   0  0  0  0  0  0  0  0  0  0  0  0
   -2.5945   -2.3821    2.4863 H   0  0  0  0  0  0  0  0  0  0  0  0
    2.2090    0.5825   -2.5728 H   0  0  0  0  0  0  0  0  0  0  0  0
    4.6083    0.7948   -3.0055 H   0  0  0  0  0  0  0  0  0  0  0  0
    6.5472    1.8346   -2.4214 H   0  0  0  0  0  0  0  0  0  0  0  0
    8.9507    2.0549   -2.8770 H   0  0  0  0  0  0  0  0  0  0  0  0
   10.4957    2.0504   -0.2365 H   0  0  0  0  0  0  0  0  0  0  0  0
   11.5920    4.2617    0.0051 H   0  0  0  0  0  0  0  0  0  0  0  0
   13.2551    5.0362   -1.6921 H   0  0  0  0  0  0  0  0  0  0  0  0
   13.7923    3.5677   -3.6416 H   0  0  0  0  0  0  0  0  0  0  0  0
   12.6725    1.3693   -3.8976 H   0  0  0  0  0  0  0  0  0  0  0  0
   10.1681   -1.5696   -4.0224 H   0  0  0  0  0  0  0  0  0  0  0  0
   11.5059   -3.5456   -4.6977 H   0  0  0  0  0  0  0  0  0  0  0  0
   13.7647   -3.9384   -3.7029 H   0  0  0  0  0  0  0  0  0  0  0  0
   14.6561   -2.3293   -2.0112 H   0  0  0  0  0  0  0  0  0  0  0  0
   13.3040   -0.3700   -1.3145 H   0  0  0  0  0  0  0  0  0  0  0  0
    9.6557   -1.7716   -1.0141 H   0  0  0  0  0  0  0  0  0  0  0  0
    7.2462   -2.0170   -0.6048 H   0  0  0  0  0  0  0  0  0  0  0  0
    5.4688   -1.3348    0.6498 H   0  0  0  0  0  0  0  0  0  0  0  0
    3.0549   -1.5767    1.0671 H   0  0  0  0  0  0  0  0  0  0  0  0
  1  2  2  0
  1 13  1  0
  1 38  1  0
  2  3  1  0
  2 39  1  0
  3  4  2  0
  3 12  1  0
  4  5  1  0
  5  6  2  0
  5 40  1  0
  6  7  1  0
  6 11  1  0
  7  8  2  0
  7 41  1  0
  8  9  1  0
  8 42  1  0
  9 10  2  0
  9 43  1  0
 10 11  1  0
 10 44  1  0
 11 12  2  0
 13 14  2  0
 13 37  1  0
 14 15  1  0
 14 45  1  0
 15 16  2  0
 15 46  1  0
 16 17  1  0
 16 36  1  0
 17 18  2  0
 17 35  1  0
 18 19  1  0
 18 47  1  0
 19 20  2  0
 19 48  1  0
 20 21  1  0
 20 34  1  0
 21 22  1  0
 21 28  1  0
 22 23  2  0
 22 27  1  0
 23 24  1  0
 23 49  1  0
 24 25  2  0
 24 50  1  0
 25 26  1  0
 25 51  1  0
 26 27  2  0
 26 52  1  0
 27 53  1  0
 28 29  2  0
 28 33  1  0
 29 30  1  0
 29 54  1  0
 30 31  2  0
 30 55  1  0
 31 32  1  0
 31 56  1  0
 32 33  2  0
 32 57  1  0
 33 58  1  0
 34 35  2  0
 34 59  1  0
 35 60  1  0
 36 37  2  0
 36 61  1  0
 37 62  1  0
M  END

