
     RDKit          3D

 46 48  0  0  0  0  0  0  0  0999 V2000
    3.9897   -1.9832   -1.6566 O   0  0  0  0  0  0  0  0  0  0  0  0
    3.7975   -0.8446   -1.2540 C   0  0  0  0  0  0  0  0  0  0  0  0
    3.1073    0.0901   -1.9853 N   0  0  0  0  0  0  0  0  0  0  0  0
    2.5387   -0.0949   -3.2486 C   0  0  0  0  0  0  0  0  0  0  0  0
    2.5291   -1.2419   -4.0825 C   0  0  0  0  0  0  0  0  0  0  0  0
    1.8267   -0.8200   -5.1997 C   0  0  0  0  0  0  0  0  0  0  0  0
    1.4761    0.4775   -4.9976 N   0  0  0  0  0  0  0  0  0  0  0  0
    0.6828    1.3381   -5.8553 C   0  0  0  0  0  0  0  0  0  0  0  0
   -0.7390    1.5686   -5.3156 C   0  0  0  0  0  0  0  0  0  0  0  0
   -1.4693    2.4923   -6.1725 N   0  0  0  0  0  0  0  0  0  0  0  0
   -2.8724    2.1836   -6.4408 C   0  0  0  0  0  0  0  0  0  0  0  0
   -3.8061    2.6764   -5.3313 C   0  0  0  0  0  0  0  0  0  0  0  0
   -3.6171    4.0598   -5.0972 O   0  0  0  0  0  0  0  0  0  0  0  0
   -2.2790    4.3641   -4.7481 C   0  0  0  0  0  0  0  0  0  0  0  0
   -1.3098    3.9103   -5.8447 C   0  0  0  0  0  0  0  0  0  0  0  0
    1.9013    0.9345   -3.8044 N   0  0  0  0  0  0  0  0  0  0  0  0
    4.3030   -0.3465    0.1022 C   0  0  1  0  0  0  0  0  0  0  0  0
    3.6389   -1.1222    1.2672 C   0  0  0  0  0  0  0  0  0  0  0  0
    4.0935   -2.5755    1.4139 C   0  0  0  0  0  0  0  0  0  0  0  0
    5.8955   -2.7168    1.7190 S   0  0  0  0  0  0  0  0  0  0  0  0
    6.4595   -1.7833    0.2455 C   0  0  0  0  0  0  0  0  0  0  0  0
    5.8499   -0.3820    0.1732 C   0  0  0  0  0  0  0  0  0  0  0  0
    2.9796    1.0192   -1.6007 H   0  0  0  0  0  0  0  0  0  0  0  0
    2.9784   -2.2060   -3.8765 H   0  0  0  0  0  0  0  0  0  0  0  0
    1.5627   -1.3437   -6.1164 H   0  0  0  0  0  0  0  0  0  0  0  0
    0.6328    0.8792   -6.8529 H   0  0  0  0  0  0  0  0  0  0  0  0
    1.2084    2.3002   -5.9569 H   0  0  0  0  0  0  0  0  0  0  0  0
   -0.6579    1.9009   -4.2621 H   0  0  0  0  0  0  0  0  0  0  0  0
   -1.2637    0.6000   -5.2938 H   0  0  0  0  0  0  0  0  0  0  0  0
   -2.9912    1.0992   -6.5972 H   0  0  0  0  0  0  0  0  0  0  0  0
   -3.1631    2.6841   -7.3828 H   0  0  0  0  0  0  0  0  0  0  0  0
   -3.6277    2.1010   -4.3972 H   0  0  0  0  0  0  0  0  0  0  0  0
   -4.8624    2.5406   -5.6136 H   0  0  0  0  0  0  0  0  0  0  0  0
   -2.0176    3.8812   -3.7824 H   0  0  0  0  0  0  0  0  0  0  0  0
   -2.2257    5.4546   -4.6021 H   0  0  0  0  0  0  0  0  0  0  0  0
   -0.2688    4.1115   -5.5444 H   0  0  0  0  0  0  0  0  0  0  0  0
   -1.5062    4.5059   -6.7547 H   0  0  0  0  0  0  0  0  0  0  0  0
    4.0024    0.7095    0.2091 H   0  0  0  0  0  0  0  0  0  0  0  0
    2.5420   -1.0955    1.1365 H   0  0  0  0  0  0  0  0  0  0  0  0
    3.8629   -0.5833    2.2034 H   0  0  0  0  0  0  0  0  0  0  0  0
    3.8326   -3.1603    0.5200 H   0  0  0  0  0  0  0  0  0  0  0  0
    3.6089   -3.0417    2.2855 H   0  0  0  0  0  0  0  0  0  0  0  0
    6.2223   -2.3611   -0.6592 H   0  0  0  0  0  0  0  0  0  0  0  0
    7.5546   -1.7194    0.3380 H   0  0  0  0  0  0  0  0  0  0  0  0
    6.2614    0.1485   -0.7044 H   0  0  0  0  0  0  0  0  0  0  0  0
    6.1603    0.1875    1.0657 H   0  0  0  0  0  0  0  0  0  0  0  0
  1  2  2  0
  2  3  1  0
  2 17  1  0
  3  4  1  0
  3 23  1  0
  4  5  1  0
  4 16  2  0
  5  6  2  0
  5 24  1  0
  6  7  1  0
  6 25  1  0
  7  8  1  0
  7 16  1  0
  8  9  1  0
  8 26  1  0
  8 27  1  0
  9 10  1  0
  9 28  1  0
  9 29  1  0
 10 11  1  0
 10 15  1  0
 11 12  1  0
 11 30  1  0
 11 31  1  0
 12 13  1  0
 12 32  1  0
 12 33  1  0
 13 14  1  0
 14 15  1  0
 14 34  1  0
 14 35  1  0
 15 36  1  0
 15 37  1  0
 17 18  1  0
 17 22  1  0
 17 38  1  1
 18 19  1  0
 18 39  1  0
 18 40  1  0
 19 20  1  0
 19 41  1  0
 19 42  1  0
 20 21  1  0
 21 22  1  0
 21 43  1  0
 21 44  1  0
 22 45  1  0
 22 46  1  0
M  END

