
     RDKit          3D

 46 49  0  0  0  0  0  0  0  0999 V2000
    2.1103   -2.5239   -1.7145 C   0  0  0  0  0  0  0  0  0  0  0  0
    2.9061   -1.2781   -1.4070 C   0  0  0  0  0  0  0  0  0  0  0  0
    2.2946   -0.2240   -0.6720 C   0  0  0  0  0  0  0  0  0  0  0  0
    2.9509    0.9572   -0.3461 C   0  0  0  0  0  0  0  0  0  0  0  0
    2.2794    2.0604    0.4283 C   0  0  0  0  0  0  0  0  0  0  0  0
    4.2957    1.0963   -0.7789 C   0  0  0  0  0  0  0  0  0  0  0  0
    5.2718    2.1350   -0.6613 C   0  0  0  0  0  0  0  0  0  0  0  0
    6.4247    1.6914   -1.2830 C   0  0  0  0  0  0  0  0  0  0  0  0
    7.6678    2.4867   -1.4511 C   0  0  0  0  0  0  0  0  0  0  0  0
    7.6073    3.7095   -1.4955 O   0  0  0  0  0  0  0  0  0  0  0  0
    8.8794    1.8244   -1.5935 N   0  0  0  0  0  0  0  0  0  0  0  0
    9.1708    0.4985   -1.0465 C   0  0  0  0  0  0  0  0  0  0  0  0
    9.5772   -0.5120   -2.0728 C   0  0  0  0  0  0  0  0  0  0  0  0
   10.7480   -1.1681   -2.3335 C   0  0  0  0  0  0  0  0  0  0  0  0
   10.5018   -2.0204   -3.4631 C   0  0  0  0  0  0  0  0  0  0  0  0
    9.1997   -1.8196   -3.8114 C   0  0  0  0  0  0  0  0  0  0  0  0
    8.6274   -0.9089   -2.9754 O   0  0  0  0  0  0  0  0  0  0  0  0
   10.0436    2.6440   -1.9511 C   0  0  0  0  0  0  0  0  0  0  0  0
   10.8056    3.2041   -0.7748 C   0  0  0  0  0  0  0  0  0  0  0  0
   10.4414    4.2312    0.0656 C   0  0  0  0  0  0  0  0  0  0  0  0
   11.4029    4.4863    1.0897 C   0  0  0  0  0  0  0  0  0  0  0  0
   12.4902    3.6511    1.0223 C   0  0  0  0  0  0  0  0  0  0  0  0
   12.3501    2.5435   -0.2982 S   0  0  0  0  0  0  0  0  0  0  0  0
    6.2002    0.4159   -1.7875 N   0  0  0  0  0  0  0  0  0  0  0  0
    6.8420   -0.0957   -2.3852 H   0  0  0  0  0  0  0  0  0  0  0  0
    4.9094    0.0380   -1.5072 C   0  0  0  0  0  0  0  0  0  0  0  0
    4.2256   -1.1468   -1.8297 C   0  0  0  0  0  0  0  0  0  0  0  0
    1.2086   -2.2877   -2.3051 H   0  0  0  0  0  0  0  0  0  0  0  0
    1.7647   -3.0178   -0.7904 H   0  0  0  0  0  0  0  0  0  0  0  0
    2.7025   -3.2551   -2.2847 H   0  0  0  0  0  0  0  0  0  0  0  0
    1.2563   -0.3533   -0.3505 H   0  0  0  0  0  0  0  0  0  0  0  0
    1.2438    1.7986    0.6906 H   0  0  0  0  0  0  0  0  0  0  0  0
    2.2562    2.9989   -0.1516 H   0  0  0  0  0  0  0  0  0  0  0  0
    2.8220    2.2807    1.3637 H   0  0  0  0  0  0  0  0  0  0  0  0
    5.1691    3.1048   -0.1813 H   0  0  0  0  0  0  0  0  0  0  0  0
    8.2955    0.1431   -0.4856 H   0  0  0  0  0  0  0  0  0  0  0  0
    9.9954    0.5828   -0.3190 H   0  0  0  0  0  0  0  0  0  0  0  0
   11.6788   -1.0547   -1.7813 H   0  0  0  0  0  0  0  0  0  0  0  0
   11.2057   -2.6908   -3.9517 H   0  0  0  0  0  0  0  0  0  0  0  0
    8.5598   -2.2245   -4.5909 H   0  0  0  0  0  0  0  0  0  0  0  0
    9.6735    3.4747   -2.5651 H   0  0  0  0  0  0  0  0  0  0  0  0
   10.7097    2.0277   -2.5752 H   0  0  0  0  0  0  0  0  0  0  0  0
    9.5034    4.7724   -0.0634 H   0  0  0  0  0  0  0  0  0  0  0  0
   11.2947    5.2657    1.8460 H   0  0  0  0  0  0  0  0  0  0  0  0
   13.3681    3.6305    1.6665 H   0  0  0  0  0  0  0  0  0  0  0  0
    4.7160   -1.9451   -2.3929 H   0  0  0  0  0  0  0  0  0  0  0  0
  1  2  1  0
  1 28  1  0
  1 29  1  0
  1 30  1  0
  2  3  2  0
  2 27  1  0
  3  4  1  0
  3 31  1  0
  4  5  1  0
  4  6  2  0
  5 32  1  0
  5 33  1  0
  5 34  1  0
  6  7  1  0
  6 26  1  0
  7  8  2  0
  7 35  1  0
  8  9  1  0
  8 24  1  0
  9 10  2  0
  9 11  1  0
 11 12  1  0
 11 18  1  0
 12 13  1  0
 12 36  1  0
 12 37  1  0
 13 14  2  0
 13 17  1  0
 14 15  1  0
 14 38  1  0
 15 16  2  0
 15 39  1  0
 16 17  1  0
 16 40  1  0
 18 19  1  0
 18 41  1  0
 18 42  1  0
 19 20  2  0
 19 23  1  0
 20 21  1  0
 20 43  1  0
 21 22  2  0
 21 44  1  0
 22 23  1  0
 22 45  1  0
 24 25  1  0
 24 26  1  0
 26 27  2  0
 27 46  1  0
M  END

