
     RDKit          3D

 93 98  0  0  0  0  0  0  0  0999 V2000
    5.4114  -23.7255    7.2515 C   0  0  0  0  0  0  0  0  0  0  0  0
    6.2496  -23.9362    6.1423 O   0  0  0  0  0  0  0  0  0  0  0  0
    6.5976  -22.8729    5.3651 C   0  0  0  0  0  0  0  0  0  0  0  0
    7.4299  -23.1443    4.2675 C   0  0  0  0  0  0  0  0  0  0  0  0
    7.8464  -22.1360    3.4041 C   0  0  0  0  0  0  0  0  0  0  0  0
    7.4373  -20.8050    3.6227 C   0  0  0  0  0  0  0  0  0  0  0  0
    7.8215  -19.7153    2.8132 N   0  0  0  0  0  0  0  0  0  0  0  0
    8.5714  -19.7345    1.6488 C   0  0  0  0  0  0  0  0  0  0  0  0
    8.9305  -20.7742    1.1090 O   0  0  0  0  0  0  0  0  0  0  0  0
    8.8713  -18.4823    1.1207 N   0  0  0  0  0  0  0  0  0  0  0  0
    9.5098  -18.4713   -0.2065 C   0  0  0  0  0  0  0  0  0  0  0  0
   11.0099  -18.2454   -0.1785 C   0  0  0  0  0  0  0  0  0  0  0  0
   11.8757  -19.2893    0.1894 C   0  0  0  0  0  0  0  0  0  0  0  0
   13.2572  -19.1353    0.2098 C   0  0  0  0  0  0  0  0  0  0  0  0
   13.8200  -17.9006   -0.1485 C   0  0  0  0  0  0  0  0  0  0  0  0
   15.1749  -17.8230   -0.1127 O   0  0  0  0  0  0  0  0  0  0  0  0
   15.8144  -16.6199   -0.4668 C   0  0  0  0  0  0  0  0  0  0  0  0
   12.9870  -16.8327   -0.5156 C   0  0  0  0  0  0  0  0  0  0  0  0
   11.5929  -17.0110   -0.5201 C   0  0  0  0  0  0  0  0  0  0  0  0
   10.7345  -15.9868   -0.8475 O   0  0  0  0  0  0  0  0  0  0  0  0
   11.2392  -14.8040   -1.4380 C   0  0  0  0  0  0  0  0  0  0  0  0
    8.9497  -17.2633    1.9234 C   0  0  0  0  0  0  0  0  0  0  0  0
    7.9232  -16.1600    1.5885 C   0  0  1  0  0  0  0  0  0  0  0  0
    8.0429  -15.7783    0.2224 O   0  0  0  0  0  0  0  0  0  0  0  0
    6.4533  -16.5686    1.7583 C   0  0  0  0  0  0  0  0  0  0  0  0
    5.7069  -15.2365    1.6282 C   0  0  0  0  0  0  0  0  0  0  0  0
    6.6219  -14.1771    2.3004 C   0  0  2  0  0  0  0  0  0  0  0  0
    6.6630  -12.8264    1.6102 C   0  0  0  0  0  0  0  0  0  0  0  0
    5.7047  -12.4045    0.7555 C   0  0  0  0  0  0  0  0  0  0  0  0
    5.6749  -11.0315    0.2649 C   0  0  0  0  0  0  0  0  0  0  0  0
    6.7360  -10.2104    0.3890 C   0  0  0  0  0  0  0  0  0  0  0  0
    6.6713   -8.7395    0.0433 C   0  0  0  0  0  0  0  0  0  0  0  0
    7.9846   -8.1422   -0.4595 C   0  0  2  0  0  0  0  0  0  0  0  0
    8.2020   -8.6443   -1.7750 O   0  0  0  0  0  0  0  0  0  0  0  0
    9.1565   -8.4667    0.5074 C   0  0  0  0  0  0  0  0  0  0  0  0
    8.8612   -9.5906    1.5197 C   0  0  0  0  0  0  0  0  0  0  0  0
    8.0547  -10.7759    0.9372 C   0  0  2  0  0  0  0  0  0  0  0  0
    8.8296  -11.4379   -0.2327 C   0  0  0  0  0  0  0  0  0  0  0  0
    7.7258  -11.8170    2.0564 C   0  0  2  0  0  0  0  0  0  0  0  0
    8.9752  -12.5173    2.6549 C   0  0  0  0  0  0  0  0  0  0  0  0
    9.1793  -13.9382    2.1177 C   0  0  0  0  0  0  0  0  0  0  0  0
    8.0285  -14.8782    2.5143 C   0  0  2  0  0  0  0  0  0  0  0  0
    8.1822  -15.2633    4.0013 C   0  0  0  0  0  0  0  0  0  0  0  0
    6.6060  -20.5381    4.7207 C   0  0  0  0  0  0  0  0  0  0  0  0
    6.1842  -21.5524    5.5859 C   0  0  0  0  0  0  0  0  0  0  0  0
    5.2615  -24.7055    7.7252 H   0  0  0  0  0  0  0  0  0  0  0  0
    4.4260  -23.3194    6.9559 H   0  0  0  0  0  0  0  0  0  0  0  0
    5.8656  -23.0396    7.9910 H   0  0  0  0  0  0  0  0  0  0  0  0
    7.7432  -24.1773    4.1011 H   0  0  0  0  0  0  0  0  0  0  0  0
    8.4784  -22.3630    2.5493 H   0  0  0  0  0  0  0  0  0  0  0  0
    7.3783  -18.8403    3.0570 H   0  0  0  0  0  0  0  0  0  0  0  0
    9.0162  -17.7108   -0.8209 H   0  0  0  0  0  0  0  0  0  0  0  0
    9.3065  -19.4528   -0.6489 H   0  0  0  0  0  0  0  0  0  0  0  0
   11.4287  -20.2493    0.4606 H   0  0  0  0  0  0  0  0  0  0  0  0
   13.9222  -19.9539    0.4896 H   0  0  0  0  0  0  0  0  0  0  0  0
   16.8940  -16.7974   -0.3689 H   0  0  0  0  0  0  0  0  0  0  0  0
   15.5296  -15.7873    0.2025 H   0  0  0  0  0  0  0  0  0  0  0  0
   15.5957  -16.3269   -1.5101 H   0  0  0  0  0  0  0  0  0  0  0  0
   13.4150  -15.8706   -0.7842 H   0  0  0  0  0  0  0  0  0  0  0  0
   10.3673  -14.1917   -1.7041 H   0  0  0  0  0  0  0  0  0  0  0  0
   11.8179  -15.0277   -2.3504 H   0  0  0  0  0  0  0  0  0  0  0  0
   11.8728  -14.2321   -0.7379 H   0  0  0  0  0  0  0  0  0  0  0  0
    9.9652  -16.8420    1.8033 H   0  0  0  0  0  0  0  0  0  0  0  0
    8.8768  -17.5359    2.9825 H   0  0  0  0  0  0  0  0  0  0  0  0
    8.9797  -15.7438   -0.0328 H   0  0  0  0  0  0  0  0  0  0  0  0
    6.2900  -17.0125    2.7551 H   0  0  0  0  0  0  0  0  0  0  0  0
    6.1560  -17.3108    1.0039 H   0  0  0  0  0  0  0  0  0  0  0  0
    4.6976  -15.2648    2.0656 H   0  0  0  0  0  0  0  0  0  0  0  0
    5.6030  -15.0092    0.5598 H   0  0  0  0  0  0  0  0  0  0  0  0
    6.2273  -13.9682    3.3136 H   0  0  0  0  0  0  0  0  0  0  0  0
    4.8842  -13.0645    0.4669 H   0  0  0  0  0  0  0  0  0  0  0  0
    4.7475  -10.6640   -0.1875 H   0  0  0  0  0  0  0  0  0  0  0  0
    6.3921   -8.1751    0.9538 H   0  0  0  0  0  0  0  0  0  0  0  0
    5.8774   -8.5494   -0.6956 H   0  0  0  0  0  0  0  0  0  0  0  0
    7.8599   -7.0431   -0.5132 H   0  0  0  0  0  0  0  0  0  0  0  0
    9.0113   -8.2456   -2.1202 H   0  0  0  0  0  0  0  0  0  0  0  0
    9.4379   -7.5587    1.0662 H   0  0  0  0  0  0  0  0  0  0  0  0
   10.0360   -8.7276   -0.1048 H   0  0  0  0  0  0  0  0  0  0  0  0
    8.2863   -9.1726    2.3646 H   0  0  0  0  0  0  0  0  0  0  0  0
    9.8141   -9.9402    1.9477 H   0  0  0  0  0  0  0  0  0  0  0  0
    8.9179  -10.7439   -1.0778 H   0  0  0  0  0  0  0  0  0  0  0  0
    8.2955  -12.3320   -0.5871 H   0  0  0  0  0  0  0  0  0  0  0  0
    9.8432  -11.7394    0.0810 H   0  0  0  0  0  0  0  0  0  0  0  0
    7.2502  -11.2299    2.8708 H   0  0  0  0  0  0  0  0  0  0  0  0
    8.8880  -12.5514    3.7531 H   0  0  0  0  0  0  0  0  0  0  0  0
    9.8781  -11.9201    2.4595 H   0  0  0  0  0  0  0  0  0  0  0  0
   10.1397  -14.3416    2.4839 H   0  0  0  0  0  0  0  0  0  0  0  0
    9.2453  -13.8906    1.0228 H   0  0  0  0  0  0  0  0  0  0  0  0
    8.1123  -14.3696    4.6404 H   0  0  0  0  0  0  0  0  0  0  0  0
    9.1568  -15.7314    4.2104 H   0  0  0  0  0  0  0  0  0  0  0  0
    7.3932  -15.9523    4.3411 H   0  0  0  0  0  0  0  0  0  0  0  0
    6.2764  -19.5121    4.9126 H   0  0  0  0  0  0  0  0  0  0  0  0
    5.5369  -21.2939    6.4242 H   0  0  0  0  0  0  0  0  0  0  0  0
  1  2  1  0
  1 46  1  0
  1 47  1  0
  1 48  1  0
  2  3  1  0
  3  4  2  0
  3 45  1  0
  4  5  1  0
  4 49  1  0
  5  6  2  0
  5 50  1  0
  6  7  1  0
  6 44  1  0
  7  8  1  0
  7 51  1  0
  8  9  2  0
  8 10  1  0
 10 11  1  0
 10 22  1  0
 11 12  1  0
 11 52  1  0
 11 53  1  0
 12 13  2  0
 12 19  1  0
 13 14  1  0
 13 54  1  0
 14 15  2  0
 14 55  1  0
 15 16  1  0
 15 18  1  0
 16 17  1  0
 17 56  1  0
 17 57  1  0
 17 58  1  0
 18 19  2  0
 18 59  1  0
 19 20  1  0
 20 21  1  0
 21 60  1  0
 21 61  1  0
 21 62  1  0
 22 23  1  0
 22 63  1  0
 22 64  1  0
 23 24  1  6
 23 25  1  0
 23 42  1  0
 24 65  1  0
 25 26  1  0
 25 66  1  0
 25 67  1  0
 26 27  1  0
 26 68  1  0
 26 69  1  0
 27 28  1  0
 27 42  1  0
 27 70  1  1
 28 29  2  0
 28 39  1  0
 29 30  1  0
 29 71  1  0
 30 31  2  0
 30 72  1  0
 31 32  1  0
 31 37  1  0
 32 33  1  0
 32 73  1  0
 32 74  1  0
 33 34  1  0
 33 35  1  0
 33 75  1  6
 34 76  1  0
 35 36  1  0
 35 77  1  0
 35 78  1  0
 36 37  1  0
 36 79  1  0
 36 80  1  0
 37 38  1  6
 37 39  1  0
 38 81  1  0
 38 82  1  0
 38 83  1  0
 39 40  1  0
 39 84  1  1
 40 41  1  0
 40 85  1  0
 40 86  1  0
 41 42  1  0
 41 87  1  0
 41 88  1  0
 42 43  1  1
 43 89  1  0
 43 90  1  0
 43 91  1  0
 44 45  2  0
 44 92  1  0
 45 93  1  0
M  END

