
     RDKit          3D

 46 46  0  0  0  0  0  0  0  0999 V2000
    7.6284   -0.7454   -2.1031 C   0  0  0  0  0  0  0  0  0  0  0  0
    6.2677   -0.7097   -1.4179 C   0  0  1  0  0  0  0  0  0  0  0  0
    5.3523   -1.8445   -1.8846 C   0  0  0  0  0  0  0  0  0  0  0  0
    6.5130   -0.7731   -0.0181 O   0  0  0  0  0  0  0  0  0  0  0  0
    5.4777   -0.3234    0.8225 C   0  0  0  0  0  0  0  0  0  0  0  0
    5.9652   -0.3576    2.2650 C   0  0  0  0  0  0  0  0  0  0  0  0
    7.1833    0.5395    2.5059 C   0  0  0  0  0  0  0  0  0  0  0  0
    7.6329    0.5211    3.8850 N   0  0  0  0  0  0  0  0  0  0  0  0
    8.8959    0.1646    4.2611 C   0  0  0  0  0  0  0  0  0  0  0  0
    9.7584   -0.1826    3.4678 O   0  0  0  0  0  0  0  0  0  0  0  0
    9.1743    0.2128    5.7693 C   0  0  1  0  0  0  0  0  0  0  0  0
    9.4892   -1.2041    6.2693 C   0  0  0  0  0  0  0  0  0  0  0  0
   10.3487    1.1803    6.0505 C   0  0  0  0  0  0  0  0  0  0  0  0
   10.0646    2.6251    5.6999 C   0  0  0  0  0  0  0  0  0  0  0  0
   10.3585    3.1313    4.4258 C   0  0  0  0  0  0  0  0  0  0  0  0
   10.0662    4.4627    4.1021 C   0  0  0  0  0  0  0  0  0  0  0  0
    9.4759    5.2998    5.0451 C   0  0  0  0  0  0  0  0  0  0  0  0
    9.1526    6.6165    4.8347 O   0  0  0  0  0  0  0  0  0  0  0  0
    9.1719    4.8077    6.3307 C   0  0  0  0  0  0  0  0  0  0  0  0
    8.6021    5.6240    7.2526 O   0  0  0  0  0  0  0  0  0  0  0  0
    9.4680    3.4811    6.6428 C   0  0  0  0  0  0  0  0  0  0  0  0
    7.5207   -0.6753   -3.1967 H   0  0  0  0  0  0  0  0  0  0  0  0
    8.1494   -1.6859   -1.8629 H   0  0  0  0  0  0  0  0  0  0  0  0
    8.2563    0.0888   -1.7561 H   0  0  0  0  0  0  0  0  0  0  0  0
    5.7762    0.2599   -1.6481 H   0  0  0  0  0  0  0  0  0  0  0  0
    5.8128   -2.8202   -1.6598 H   0  0  0  0  0  0  0  0  0  0  0  0
    5.1798   -1.7836   -2.9709 H   0  0  0  0  0  0  0  0  0  0  0  0
    4.3685   -1.8081   -1.3914 H   0  0  0  0  0  0  0  0  0  0  0  0
    4.5703   -0.9527    0.7255 H   0  0  0  0  0  0  0  0  0  0  0  0
    5.1791    0.7112    0.5437 H   0  0  0  0  0  0  0  0  0  0  0  0
    6.2197   -1.3956    2.5368 H   0  0  0  0  0  0  0  0  0  0  0  0
    5.1285   -0.0497    2.9183 H   0  0  0  0  0  0  0  0  0  0  0  0
    6.9492    1.5767    2.1986 H   0  0  0  0  0  0  0  0  0  0  0  0
    8.0273    0.1986    1.8927 H   0  0  0  0  0  0  0  0  0  0  0  0
    6.9998    0.8502    4.6040 H   0  0  0  0  0  0  0  0  0  0  0  0
    8.2799    0.5903    6.2960 H   0  0  0  0  0  0  0  0  0  0  0  0
   10.3533   -1.6128    5.7238 H   0  0  0  0  0  0  0  0  0  0  0  0
    8.6370   -1.8838    6.1098 H   0  0  0  0  0  0  0  0  0  0  0  0
    9.7242   -1.1980    7.3456 H   0  0  0  0  0  0  0  0  0  0  0  0
   11.2177    0.8197    5.4780 H   0  0  0  0  0  0  0  0  0  0  0  0
   10.6074    1.1029    7.1194 H   0  0  0  0  0  0  0  0  0  0  0  0
   10.8146    2.4795    3.6776 H   0  0  0  0  0  0  0  0  0  0  0  0
   10.3025    4.8527    3.1066 H   0  0  0  0  0  0  0  0  0  0  0  0
    9.4252    6.8892    3.9498 H   0  0  0  0  0  0  0  0  0  0  0  0
    8.4995    6.4976    6.8446 H   0  0  0  0  0  0  0  0  0  0  0  0
    9.2322    3.1300    7.6509 H   0  0  0  0  0  0  0  0  0  0  0  0
  1  2  1  0
  1 22  1  0
  1 23  1  0
  1 24  1  0
  2  3  1  0
  2  4  1  0
  2 25  1  1
  3 26  1  0
  3 27  1  0
  3 28  1  0
  4  5  1  0
  5  6  1  0
  5 29  1  0
  5 30  1  0
  6  7  1  0
  6 31  1  0
  6 32  1  0
  7  8  1  0
  7 33  1  0
  7 34  1  0
  8  9  1  0
  8 35  1  0
  9 10  2  0
  9 11  1  0
 11 12  1  0
 11 13  1  0
 11 36  1  1
 12 37  1  0
 12 38  1  0
 12 39  1  0
 13 14  1  0
 13 40  1  0
 13 41  1  0
 14 15  2  0
 14 21  1  0
 15 16  1  0
 15 42  1  0
 16 17  2  0
 16 43  1  0
 17 18  1  0
 17 19  1  0
 18 44  1  0
 19 20  1  0
 19 21  2  0
 20 45  1  0
 21 46  1  0
M  END

