
     RDKit          3D

 31 32  0  0  0  0  0  0  0  0999 V2000
    1.1575    0.0139    0.2884 C   0  0  0  0  0  0  0  0  0  0  0  0
    2.6737   -0.0742    0.0566 C   0  0  0  0  0  0  0  0  0  0  0  0
    3.0541   -0.1944   -1.4047 C   0  0  0  0  0  0  0  0  0  0  0  0
    3.2972    0.9487   -2.1795 C   0  0  0  0  0  0  0  0  0  0  0  0
    3.6043    0.8114   -3.5300 C   0  0  0  0  0  0  0  0  0  0  0  0
    3.9464    2.3787   -4.5897 Br  0  0  0  0  0  0  0  0  0  0  0  0
    3.6835   -0.4415   -4.1655 C   0  0  0  0  0  0  0  0  0  0  0  0
    3.9870   -0.5586   -5.4785 O   0  0  0  0  0  0  0  0  0  0  0  0
    3.4407   -1.6025   -3.3927 C   0  0  0  0  0  0  0  0  0  0  0  0
    3.5032   -2.9646   -3.9608 C   0  0  0  0  0  0  0  0  0  0  0  0
    3.8055   -3.3977   -5.2840 C   0  0  0  0  0  0  0  0  0  0  0  0
    3.7152   -4.7811   -5.2314 C   0  0  0  0  0  0  0  0  0  0  0  0
    3.8315   -5.7681   -6.2144 N   0  0  0  0  0  0  0  0  0  0  0  0
    3.3676   -5.1004   -3.9490 N   0  0  0  0  0  0  0  0  0  0  0  0
    3.1500   -6.4210   -3.4064 C   0  0  0  0  0  0  0  0  0  0  0  0
    3.2574   -4.0131   -3.1666 N   0  0  0  0  0  0  0  0  0  0  0  0
    3.1321   -1.4424   -2.0304 C   0  0  0  0  0  0  0  0  0  0  0  0
    0.9239    0.0961    1.3625 H   0  0  0  0  0  0  0  0  0  0  0  0
    0.6445   -0.8789   -0.1036 H   0  0  0  0  0  0  0  0  0  0  0  0
    0.7275    0.8919   -0.2204 H   0  0  0  0  0  0  0  0  0  0  0  0
    3.0747   -0.9423    0.6061 H   0  0  0  0  0  0  0  0  0  0  0  0
    3.1602    0.8164    0.4893 H   0  0  0  0  0  0  0  0  0  0  0  0
    3.2527    1.9448   -1.7344 H   0  0  0  0  0  0  0  0  0  0  0  0
    4.1213    0.3320   -5.8436 H   0  0  0  0  0  0  0  0  0  0  0  0
    4.0584   -2.7861   -6.1416 H   0  0  0  0  0  0  0  0  0  0  0  0
    3.9587   -5.3668   -7.1388 H   0  0  0  0  0  0  0  0  0  0  0  0
    4.5781   -6.4397   -6.0388 H   0  0  0  0  0  0  0  0  0  0  0  0
    2.8074   -7.0869   -4.2113 H   0  0  0  0  0  0  0  0  0  0  0  0
    2.3785   -6.3555   -2.6280 H   0  0  0  0  0  0  0  0  0  0  0  0
    4.0680   -6.8390   -2.9568 H   0  0  0  0  0  0  0  0  0  0  0  0
    2.9535   -2.3527   -1.4552 H   0  0  0  0  0  0  0  0  0  0  0  0
  1  2  1  0
  1 18  1  0
  1 19  1  0
  1 20  1  0
  2  3  1  0
  2 21  1  0
  2 22  1  0
  3  4  2  0
  3 17  1  0
  4  5  1  0
  4 23  1  0
  5  6  1  0
  5  7  2  0
  7  8  1  0
  7  9  1  0
  8 24  1  0
  9 10  1  0
  9 17  2  0
 10 11  1  0
 10 16  2  0
 11 12  2  0
 11 25  1  0
 12 13  1  0
 12 14  1  0
 13 26  1  0
 13 27  1  0
 14 15  1  0
 14 16  1  0
 15 28  1  0
 15 29  1  0
 15 30  1  0
 17 31  1  0
M  END

