
     RDKit          3D

 50 52  0  0  0  0  0  0  0  0999 V2000
    8.5239    2.9247   -0.9841 C   0  0  0  0  0  0  0  0  0  0  0  0
    7.2662    2.4677   -1.4081 O   0  0  0  0  0  0  0  0  0  0  0  0
    6.9070    1.2028   -0.8971 C   0  0  0  0  0  0  0  0  0  0  0  0
    5.5521    0.8305   -1.4769 C   0  0  0  0  0  0  0  0  0  0  0  0
    5.5799    0.8291   -2.9253 N   0  0  0  0  0  0  0  0  0  0  0  0
    5.2209   -0.2465   -3.6856 C   0  0  0  0  0  0  0  0  0  0  0  0
    4.8030   -1.2819   -3.1883 O   0  0  0  0  0  0  0  0  0  0  0  0
    5.3384   -0.0339   -5.2184 C   0  0  1  0  0  0  0  0  0  0  0  0
    4.2666    0.9796   -5.6592 C   0  0  0  0  0  0  0  0  0  0  0  0
    6.7922    0.3943   -5.6278 C   0  0  0  0  0  0  0  0  0  0  0  0
    7.3495   -0.8030   -6.4199 C   0  0  0  0  0  0  0  0  0  0  0  0
    6.5294   -1.9228   -5.9824 N   0  0  0  0  0  0  0  0  0  0  0  0
    6.7138   -3.1488   -6.7287 C   0  0  0  0  0  0  0  0  0  0  0  0
    6.2517   -4.4056   -6.0063 C   0  0  0  0  0  0  0  0  0  0  0  0
    5.9213   -4.3504   -4.6226 C   0  0  0  0  0  0  0  0  0  0  0  0
    5.5215   -5.4733   -3.9366 C   0  0  0  0  0  0  0  0  0  0  0  0
    5.4298   -6.7347   -4.5818 C   0  0  0  0  0  0  0  0  0  0  0  0
    5.0149   -7.9038   -3.8841 C   0  0  0  0  0  0  0  0  0  0  0  0
    4.9329   -9.1227   -4.5211 C   0  0  0  0  0  0  0  0  0  0  0  0
    5.2661   -9.2221   -5.8943 C   0  0  0  0  0  0  0  0  0  0  0  0
    5.6722   -8.1099   -6.6020 C   0  0  0  0  0  0  0  0  0  0  0  0
    5.7664   -6.8339   -5.9766 C   0  0  0  0  0  0  0  0  0  0  0  0
    6.1740   -5.6359   -6.6436 C   0  0  0  0  0  0  0  0  0  0  0  0
    6.6618   -5.7454   -8.5042 Br  0  0  0  0  0  0  0  0  0  0  0  0
    5.1746   -1.3919   -5.9284 C   0  0  0  0  0  0  0  0  0  0  0  0
    8.6988    3.9082   -1.4442 H   0  0  0  0  0  0  0  0  0  0  0  0
    9.3399    2.2397   -1.2916 H   0  0  0  0  0  0  0  0  0  0  0  0
    8.5725    3.0380    0.1177 H   0  0  0  0  0  0  0  0  0  0  0  0
    6.8491    1.2254    0.2111 H   0  0  0  0  0  0  0  0  0  0  0  0
    7.6650    0.4415   -1.1759 H   0  0  0  0  0  0  0  0  0  0  0  0
    4.7959    1.5471   -1.1080 H   0  0  0  0  0  0  0  0  0  0  0  0
    5.2543   -0.1758   -1.1513 H   0  0  0  0  0  0  0  0  0  0  0  0
    5.9637    1.6574   -3.3646 H   0  0  0  0  0  0  0  0  0  0  0  0
    4.3992    1.9563   -5.1680 H   0  0  0  0  0  0  0  0  0  0  0  0
    3.2561    0.6165   -5.4120 H   0  0  0  0  0  0  0  0  0  0  0  0
    4.3128    1.1406   -6.7479 H   0  0  0  0  0  0  0  0  0  0  0  0
    7.4135    0.5916   -4.7424 H   0  0  0  0  0  0  0  0  0  0  0  0
    6.7874    1.3128   -6.2344 H   0  0  0  0  0  0  0  0  0  0  0  0
    8.4176   -0.9929   -6.2236 H   0  0  0  0  0  0  0  0  0  0  0  0
    7.2445   -0.6192   -7.5148 H   0  0  0  0  0  0  0  0  0  0  0  0
    7.7914   -3.2590   -6.9453 H   0  0  0  0  0  0  0  0  0  0  0  0
    6.2205   -3.1004   -7.7248 H   0  0  0  0  0  0  0  0  0  0  0  0
    5.9815   -3.3857   -4.1172 H   0  0  0  0  0  0  0  0  0  0  0  0
    5.2650   -5.4015   -2.8764 H   0  0  0  0  0  0  0  0  0  0  0  0
    4.7611   -7.8127   -2.8244 H   0  0  0  0  0  0  0  0  0  0  0  0
    4.6128  -10.0118   -3.9720 H   0  0  0  0  0  0  0  0  0  0  0  0
    5.2011  -10.1894   -6.3990 H   0  0  0  0  0  0  0  0  0  0  0  0
    5.9265   -8.1993   -7.6583 H   0  0  0  0  0  0  0  0  0  0  0  0
    4.4961   -2.0575   -5.3794 H   0  0  0  0  0  0  0  0  0  0  0  0
    4.7619   -1.2327   -6.9519 H   0  0  0  0  0  0  0  0  0  0  0  0
  1  2  1  0
  1 26  1  0
  1 27  1  0
  1 28  1  0
  2  3  1  0
  3  4  1  0
  3 29  1  0
  3 30  1  0
  4  5  1  0
  4 31  1  0
  4 32  1  0
  5  6  1  0
  5 33  1  0
  6  7  2  0
  8  6  1  1
  8  9  1  0
  8 10  1  0
  8 25  1  0
  9 34  1  0
  9 35  1  0
  9 36  1  0
 10 11  1  0
 10 37  1  0
 10 38  1  0
 11 12  1  0
 11 39  1  0
 11 40  1  0
 12 13  1  0
 12 25  1  0
 13 14  1  0
 13 41  1  0
 13 42  1  0
 14 15  2  0
 14 23  1  0
 15 16  1  0
 15 43  1  0
 16 17  2  0
 16 44  1  0
 17 18  1  0
 17 22  1  0
 18 19  2  0
 18 45  1  0
 19 20  1  0
 19 46  1  0
 20 21  2  0
 20 47  1  0
 21 22  1  0
 21 48  1  0
 22 23  2  0
 23 24  1  0
 25 49  1  0
 25 50  1  0
M  END

