
     RDKit          3D

 60 63  0  0  0  0  0  0  0  0999 V2000
    3.0760    1.6431   -4.2879 C   0  0  0  0  0  0  0  0  0  0  0  0
    3.2328    0.3175   -4.2832 C   0  0  0  0  0  0  0  0  0  0  0  0
    2.8645   -0.5620   -3.1148 C   0  0  0  0  0  0  0  0  0  0  0  0
    4.0439   -1.1575   -2.4509 N   0  0  0  0  0  0  0  0  0  0  0  0
    4.5872   -2.3520   -2.8500 C   0  0  0  0  0  0  0  0  0  0  0  0
    3.7681   -3.2035   -4.1999 S   0  0  0  0  0  0  0  0  0  0  0  0
    4.8757   -4.6401   -4.3830 C   0  0  0  0  0  0  0  0  0  0  0  0
    4.8139   -5.7775   -3.3511 C   0  0  0  0  0  0  0  0  0  0  0  0
    5.7126   -6.5939   -3.3351 O   0  0  0  0  0  0  0  0  0  0  0  0
    3.6965   -5.8096   -2.5586 N   0  0  0  0  0  0  0  0  0  0  0  0
    3.3512   -6.7346   -1.5620 C   0  0  0  0  0  0  0  0  0  0  0  0
    4.1365   -7.8616   -1.2516 C   0  0  0  0  0  0  0  0  0  0  0  0
    3.7202   -8.7381   -0.2500 C   0  0  0  0  0  0  0  0  0  0  0  0
    2.5341   -8.4995    0.4521 C   0  0  0  0  0  0  0  0  0  0  0  0
    2.0292   -9.6140    1.7681 S   0  0  1  0  0  0  0  0  0  0  0  0
    0.5860   -9.4456    1.9472 O   0  0  0  0  0  0  0  0  0  0  0  0
    2.6345  -10.9173    1.4923 O   0  0  0  0  0  0  0  0  0  0  0  0
    2.7481   -9.0518    3.1873 N   0  0  0  0  0  0  0  0  0  0  0  0
    4.1783   -9.2681    3.3489 C   0  0  0  0  0  0  0  0  0  0  0  0
    2.2004   -7.8439    3.7862 C   0  0  0  0  0  0  0  0  0  0  0  0
    1.7398   -7.3898    0.1412 C   0  0  0  0  0  0  0  0  0  0  0  0
    2.1504   -6.5140   -0.8586 C   0  0  0  0  0  0  0  0  0  0  0  0
    5.6358   -2.8944   -2.3152 N   0  0  0  0  0  0  0  0  0  0  0  0
    6.2227   -2.2078   -1.3055 C   0  0  0  0  0  0  0  0  0  0  0  0
    7.6159   -2.8184   -0.4629 S   0  0  0  0  0  0  0  0  0  0  0  0
    7.6224   -1.4231    0.5713 C   0  0  0  0  0  0  0  0  0  0  0  0
    6.6213   -0.5163    0.3065 C   0  0  0  0  0  0  0  0  0  0  0  0
    6.4810    0.7375    1.0908 C   0  0  0  0  0  0  0  0  0  0  0  0
    6.2856    1.9850    0.4711 C   0  0  0  0  0  0  0  0  0  0  0  0
    6.2256    3.1539    1.2306 C   0  0  0  0  0  0  0  0  0  0  0  0
    6.3541    3.1030    2.6225 C   0  0  0  0  0  0  0  0  0  0  0  0
    6.5430    1.8699    3.2515 C   0  0  0  0  0  0  0  0  0  0  0  0
    6.6054    0.6990    2.4922 C   0  0  0  0  0  0  0  0  0  0  0  0
    5.8016   -0.9766   -0.7957 C   0  0  0  0  0  0  0  0  0  0  0  0
    4.6070   -0.3803   -1.3740 C   0  0  0  0  0  0  0  0  0  0  0  0
    4.0669    0.6602   -1.0492 O   0  0  0  0  0  0  0  0  0  0  0  0
    3.3500    2.2446   -5.1592 H   0  0  0  0  0  0  0  0  0  0  0  0
    2.6747    2.1735   -3.4189 H   0  0  0  0  0  0  0  0  0  0  0  0
    3.6537   -0.1898   -5.1593 H   0  0  0  0  0  0  0  0  0  0  0  0
    2.2027   -1.3838   -3.4289 H   0  0  0  0  0  0  0  0  0  0  0  0
    2.3453    0.0241   -2.3474 H   0  0  0  0  0  0  0  0  0  0  0  0
    5.9162   -4.2950   -4.4166 H   0  0  0  0  0  0  0  0  0  0  0  0
    4.6178   -5.0594   -5.3690 H   0  0  0  0  0  0  0  0  0  0  0  0
    3.0458   -5.0405   -2.6954 H   0  0  0  0  0  0  0  0  0  0  0  0
    5.0558   -8.0397   -1.8044 H   0  0  0  0  0  0  0  0  0  0  0  0
    4.3093   -9.6293   -0.0262 H   0  0  0  0  0  0  0  0  0  0  0  0
    4.4475  -10.2507    2.9426 H   0  0  0  0  0  0  0  0  0  0  0  0
    4.4151   -9.2650    4.4249 H   0  0  0  0  0  0  0  0  0  0  0  0
    4.7926   -8.4862    2.8582 H   0  0  0  0  0  0  0  0  0  0  0  0
    1.1084   -7.8472    3.6828 H   0  0  0  0  0  0  0  0  0  0  0  0
    2.6098   -6.9151    3.3396 H   0  0  0  0  0  0  0  0  0  0  0  0
    2.4433   -7.8427    4.8609 H   0  0  0  0  0  0  0  0  0  0  0  0
    0.7964   -7.2333    0.6667 H   0  0  0  0  0  0  0  0  0  0  0  0
    1.5280   -5.6496   -1.1079 H   0  0  0  0  0  0  0  0  0  0  0  0
    8.4034   -1.3201    1.3230 H   0  0  0  0  0  0  0  0  0  0  0  0
    6.1786    2.0393   -0.6122 H   0  0  0  0  0  0  0  0  0  0  0  0
    6.0764    4.1141    0.7300 H   0  0  0  0  0  0  0  0  0  0  0  0
    6.3022    4.0208    3.2139 H   0  0  0  0  0  0  0  0  0  0  0  0
    6.6348    1.8158    4.3394 H   0  0  0  0  0  0  0  0  0  0  0  0
    6.7333   -0.2642    2.9922 H   0  0  0  0  0  0  0  0  0  0  0  0
  1  2  2  0
  1 37  1  0
  1 38  1  0
  2  3  1  0
  2 39  1  0
  3  4  1  0
  3 40  1  0
  3 41  1  0
  4  5  1  0
  4 35  1  0
  5  6  2  0
  5 23  1  0
  6  7  1  0
  7  8  1  0
  7 42  1  0
  7 43  1  0
  8  9  2  0
  8 10  1  0
 10 11  1  0
 10 44  1  0
 11 12  2  0
 11 22  1  0
 12 13  1  0
 12 45  1  0
 13 14  2  0
 13 46  1  0
 14 15  1  0
 14 21  1  0
 15 16  2  0
 15 17  2  0
 15 18  1  1
 18 19  1  0
 18 20  1  0
 19 47  1  0
 19 48  1  0
 19 49  1  0
 20 50  1  0
 20 51  1  0
 20 52  1  0
 21 22  2  0
 21 53  1  0
 22 54  1  0
 23 24  2  0
 24 25  1  0
 24 34  1  0
 25 26  1  0
 26 27  2  0
 26 55  1  0
 27 28  1  0
 27 34  1  0
 28 29  2  0
 28 33  1  0
 29 30  1  0
 29 56  1  0
 30 31  2  0
 30 57  1  0
 31 32  1  0
 31 58  1  0
 32 33  2  0
 32 59  1  0
 33 60  1  0
 34 35  2  0
 35 36  1  0
M  CHG  2   6   1  36  -1
M  END

