
     RDKit          3D

 65 68  0  0  0  0  0  0  0  0999 V2000
    0.8958    0.1212   -0.1599 C   0  0  0  0  0  0  0  0  0  0  0  0
    2.4033    0.0855   -0.0441 C   0  0  0  0  0  0  0  0  0  0  0  0
    3.1168    1.2834   -0.2107 C   0  0  0  0  0  0  0  0  0  0  0  0
    4.5076    1.3589   -0.1717 C   0  0  0  0  0  0  0  0  0  0  0  0
    5.2427    0.1784    0.0227 C   0  0  0  0  0  0  0  0  0  0  0  0
    6.6521    0.1281    0.0479 N   0  0  0  0  0  0  0  0  0  0  0  0
    7.5515    1.1608   -0.0314 C   0  0  0  0  0  0  0  0  0  0  0  0
    7.2475    2.3394   -0.1049 O   0  0  0  0  0  0  0  0  0  0  0  0
    9.0050    0.7396   -0.0065 C   0  0  0  0  0  0  0  0  0  0  0  0
    9.4744   -0.5120   -0.4253 C   0  0  0  0  0  0  0  0  0  0  0  0
   10.8504   -0.7611   -0.3845 C   0  0  0  0  0  0  0  0  0  0  0  0
   11.7415    0.1316    0.0417 N   0  0  0  0  0  0  0  0  0  0  0  0
   11.2964    1.3278    0.4383 C   0  0  0  0  0  0  0  0  0  0  0  0
   12.3603    2.2903    0.9599 C   0  0  1  0  0  0  0  0  0  0  0  0
   13.5973    2.4024    0.1003 C   0  0  0  0  0  0  0  0  0  0  0  0
   11.7978    3.5300    1.1180 F   0  0  0  0  0  0  0  0  0  0  0  0
   12.7197    1.8752    2.2173 F   0  0  0  0  0  0  0  0  0  0  0  0
    9.9462    1.6854    0.4193 C   0  0  0  0  0  0  0  0  0  0  0  0
    4.5532   -1.0283    0.1911 C   0  0  0  0  0  0  0  0  0  0  0  0
    3.1521   -1.0967    0.1807 C   0  0  0  0  0  0  0  0  0  0  0  0
    2.5490   -2.4486    0.3827 C   0  0  0  0  0  0  0  0  0  0  0  0
    1.3921   -2.6633    1.1642 C   0  0  0  0  0  0  0  0  0  0  0  0
    0.8942   -3.9533    1.3410 C   0  0  0  0  0  0  0  0  0  0  0  0
   -0.1952   -4.2518    2.1511 N   0  0  0  0  0  0  0  0  0  0  0  0
   -1.2719   -5.1133    1.6436 C   0  0  0  0  0  0  0  0  0  0  0  0
   -2.0783   -5.6813    2.8047 C   0  0  0  0  0  0  0  0  0  0  0  0
   -2.5802   -4.6561    3.6381 O   0  0  0  0  0  0  0  0  0  0  0  0
   -1.5353   -3.8686    4.1615 C   0  0  0  0  0  0  0  0  0  0  0  0
   -0.6961   -3.2239    3.0574 C   0  0  0  0  0  0  0  0  0  0  0  0
    1.6673   -4.9704    0.6820 C   0  0  0  0  0  0  0  0  0  0  0  0
    1.2743   -6.2519    0.8139 O   0  0  0  0  0  0  0  0  0  0  0  0
    2.0698   -7.3157    0.2271 C   0  0  1  0  0  0  0  0  0  0  0  0
    3.2342   -7.6620    1.1474 C   0  0  0  0  0  0  0  0  0  0  0  0
    1.1131   -8.4767    0.0003 C   0  0  0  0  0  0  0  0  0  0  0  0
    2.7544   -4.7027   -0.0121 N   0  0  0  0  0  0  0  0  0  0  0  0
    3.2065   -3.4658   -0.1757 N   0  0  0  0  0  0  0  0  0  0  0  0
    0.5802    0.9967   -0.7467 H   0  0  0  0  0  0  0  0  0  0  0  0
    0.4003    0.2046    0.8234 H   0  0  0  0  0  0  0  0  0  0  0  0
    0.4931   -0.7768   -0.6513 H   0  0  0  0  0  0  0  0  0  0  0  0
    2.5551    2.2039   -0.3935 H   0  0  0  0  0  0  0  0  0  0  0  0
    5.0252    2.3066   -0.2972 H   0  0  0  0  0  0  0  0  0  0  0  0
    7.0372   -0.7955    0.2041 H   0  0  0  0  0  0  0  0  0  0  0  0
    8.8039   -1.2818   -0.8149 H   0  0  0  0  0  0  0  0  0  0  0  0
   11.2436   -1.7274   -0.7206 H   0  0  0  0  0  0  0  0  0  0  0  0
   13.3375    2.8206   -0.8825 H   0  0  0  0  0  0  0  0  0  0  0  0
   14.0351    1.4056   -0.0364 H   0  0  0  0  0  0  0  0  0  0  0  0
   14.3166    3.0659    0.6013 H   0  0  0  0  0  0  0  0  0  0  0  0
    9.6166    2.6779    0.7239 H   0  0  0  0  0  0  0  0  0  0  0  0
    5.1044   -1.9620    0.3246 H   0  0  0  0  0  0  0  0  0  0  0  0
    0.9027   -1.8185    1.6412 H   0  0  0  0  0  0  0  0  0  0  0  0
   -0.8431   -5.9278    1.0514 H   0  0  0  0  0  0  0  0  0  0  0  0
   -1.9470   -4.5214    0.9907 H   0  0  0  0  0  0  0  0  0  0  0  0
   -1.4388   -6.3745    3.3887 H   0  0  0  0  0  0  0  0  0  0  0  0
   -2.9453   -6.2430    2.4252 H   0  0  0  0  0  0  0  0  0  0  0  0
   -0.8730   -4.4839    4.8050 H   0  0  0  0  0  0  0  0  0  0  0  0
   -1.9962   -3.0882    4.7861 H   0  0  0  0  0  0  0  0  0  0  0  0
    0.1521   -2.6967    3.5195 H   0  0  0  0  0  0  0  0  0  0  0  0
   -1.3124   -2.4718    2.5199 H   0  0  0  0  0  0  0  0  0  0  0  0
    2.4632   -6.9475   -0.7318 H   0  0  0  0  0  0  0  0  0  0  0  0
    2.8674   -7.9764    2.1378 H   0  0  0  0  0  0  0  0  0  0  0  0
    3.9019   -6.7978    1.2697 H   0  0  0  0  0  0  0  0  0  0  0  0
    3.8222   -8.4883    0.7173 H   0  0  0  0  0  0  0  0  0  0  0  0
    0.6791   -8.8212    0.9528 H   0  0  0  0  0  0  0  0  0  0  0  0
    1.6476   -9.3227   -0.4588 H   0  0  0  0  0  0  0  0  0  0  0  0
    0.2915   -8.1853   -0.6717 H   0  0  0  0  0  0  0  0  0  0  0  0
  1  2  1  0
  1 37  1  0
  1 38  1  0
  1 39  1  0
  2  3  2  0
  2 20  1  0
  3  4  1  0
  3 40  1  0
  4  5  2  0
  4 41  1  0
  5  6  1  0
  5 19  1  0
  6  7  1  0
  6 42  1  0
  7  8  2  0
  7  9  1  0
  9 10  2  0
  9 18  1  0
 10 11  1  0
 10 43  1  0
 11 12  2  0
 11 44  1  0
 12 13  1  0
 13 14  1  0
 13 18  2  0
 14 15  1  0
 14 16  1  1
 14 17  1  0
 15 45  1  0
 15 46  1  0
 15 47  1  0
 18 48  1  0
 19 20  2  0
 19 49  1  0
 20 21  1  0
 21 22  2  0
 21 36  1  0
 22 23  1  0
 22 50  1  0
 23 24  1  0
 23 30  2  0
 24 25  1  0
 24 29  1  0
 25 26  1  0
 25 51  1  0
 25 52  1  0
 26 27  1  0
 26 53  1  0
 26 54  1  0
 27 28  1  0
 28 29  1  0
 28 55  1  0
 28 56  1  0
 29 57  1  0
 29 58  1  0
 30 31  1  0
 30 35  1  0
 31 32  1  0
 32 33  1  0
 32 34  1  0
 32 59  1  6
 33 60  1  0
 33 61  1  0
 33 62  1  0
 34 63  1  0
 34 64  1  0
 34 65  1  0
 35 36  2  0
M  END

