
     RDKit          3D

 32 34  0  0  0  0  0  0  0  0999 V2000
    2.7162   -0.0569    1.0829 O   0  0  0  0  0  0  0  0  0  0  0  0
    2.4850   -0.0980   -0.1102 C   0  0  0  0  0  0  0  0  0  0  0  0
    3.0947    0.9864   -1.0210 C   0  0  0  0  0  0  0  0  0  0  0  0
    2.1435    2.0049   -1.4205 N   0  0  0  0  0  0  0  0  0  0  0  0
    1.7568    2.2003   -2.7432 C   0  0  0  0  0  0  0  0  0  0  0  0
    2.0992    1.5017   -3.6744 O   0  0  0  0  0  0  0  0  0  0  0  0
    0.8492    3.4323   -2.7736 C   0  0  0  0  0  0  0  0  0  0  0  0
    0.8239    3.8881   -1.3400 C   0  0  0  0  0  0  0  0  0  0  0  0
    0.2043    4.9611   -0.7131 C   0  0  0  0  0  0  0  0  0  0  0  0
    0.3697    5.1472    0.6682 C   0  0  0  0  0  0  0  0  0  0  0  0
    1.1540    4.2483    1.3965 C   0  0  0  0  0  0  0  0  0  0  0  0
    1.3497    4.4864    3.1177 Cl  0  0  0  0  0  0  0  0  0  0  0  0
    1.7901    3.1527    0.7932 C   0  0  0  0  0  0  0  0  0  0  0  0
    1.6089    2.9994   -0.5797 C   0  0  0  0  0  0  0  0  0  0  0  0
    1.6166   -1.1674   -0.6984 C   0  0  0  0  0  0  0  0  0  0  0  0
    1.3766   -1.2969   -2.0774 C   0  0  0  0  0  0  0  0  0  0  0  0
    0.5660   -2.3356   -2.5444 C   0  0  0  0  0  0  0  0  0  0  0  0
   -0.0082   -3.2480   -1.6569 C   0  0  0  0  0  0  0  0  0  0  0  0
    0.2353   -3.1114   -0.2840 C   0  0  0  0  0  0  0  0  0  0  0  0
   -0.5474   -4.3536    0.9338 Br  0  0  0  0  0  0  0  0  0  0  0  0
    1.0386   -2.0845    0.2003 C   0  0  0  0  0  0  0  0  0  0  0  0
    3.5009    0.5556   -1.9468 H   0  0  0  0  0  0  0  0  0  0  0  0
    3.9144    1.4459   -0.4474 H   0  0  0  0  0  0  0  0  0  0  0  0
   -0.1391    3.1427   -3.1689 H   0  0  0  0  0  0  0  0  0  0  0  0
    1.2685    4.1726   -3.4752 H   0  0  0  0  0  0  0  0  0  0  0  0
   -0.4080    5.6638   -1.2842 H   0  0  0  0  0  0  0  0  0  0  0  0
   -0.1076    5.9835    1.1802 H   0  0  0  0  0  0  0  0  0  0  0  0
    2.3767    2.4495    1.3842 H   0  0  0  0  0  0  0  0  0  0  0  0
    1.8023   -0.5928   -2.7950 H   0  0  0  0  0  0  0  0  0  0  0  0
    0.3784   -2.4365   -3.6161 H   0  0  0  0  0  0  0  0  0  0  0  0
   -0.6400   -4.0594   -2.0225 H   0  0  0  0  0  0  0  0  0  0  0  0
    1.2380   -1.9697    1.2663 H   0  0  0  0  0  0  0  0  0  0  0  0
  1  2  2  0
  2  3  1  0
  2 15  1  0
  3  4  1  0
  3 22  1  0
  3 23  1  0
  4  5  1  0
  4 14  1  0
  5  6  2  0
  5  7  1  0
  7  8  1  0
  7 24  1  0
  7 25  1  0
  8  9  1  0
  8 14  2  0
  9 10  2  0
  9 26  1  0
 10 11  1  0
 10 27  1  0
 11 12  1  0
 11 13  2  0
 13 14  1  0
 13 28  1  0
 15 16  2  0
 15 21  1  0
 16 17  1  0
 16 29  1  0
 17 18  2  0
 17 30  1  0
 18 19  1  0
 18 31  1  0
 19 20  1  0
 19 21  2  0
 21 32  1  0
M  END

