
     RDKit          3D

 36 37  0  0  0  0  0  0  0  0999 V2000
    0.4558   -1.3296    0.8721 C   0  0  0  0  0  0  0  0  0  0  0  0
    1.6299   -0.7609    0.0897 C   0  0  1  0  0  0  0  0  0  0  0  0
    2.6575   -0.2738    0.9524 O   0  0  0  0  0  0  0  0  0  0  0  0
    2.5730    0.9532    1.5393 C   0  0  0  0  0  0  0  0  0  0  0  0
    3.6155    1.2760    2.4255 C   0  0  0  0  0  0  0  0  0  0  0  0
    3.6316    2.5180    3.0539 C   0  0  0  0  0  0  0  0  0  0  0  0
    2.6221    3.4600    2.8215 C   0  0  0  0  0  0  0  0  0  0  0  0
    1.5939    3.1225    1.9425 C   0  0  0  0  0  0  0  0  0  0  0  0
    0.3116    4.2716    1.6308 Cl  0  0  0  0  0  0  0  0  0  0  0  0
    1.5499    1.8806    1.2966 C   0  0  0  0  0  0  0  0  0  0  0  0
    2.2844   -1.8315   -0.8027 C   0  0  0  0  0  0  0  0  0  0  0  0
    1.8434   -2.9874   -0.8089 O   0  0  0  0  0  0  0  0  0  0  0  0
    3.3232   -1.4628   -1.5806 N   0  0  0  0  0  0  0  0  0  0  0  0
    3.9196   -0.1174   -1.6987 C   0  0  0  0  0  0  0  0  0  0  0  0
    4.9229   -0.2742   -2.8451 C   0  0  0  0  0  0  0  0  0  0  0  0
    5.3894   -1.7286   -2.7028 C   0  0  0  0  0  0  0  0  0  0  0  0
    4.1032   -2.4743   -2.3381 C   0  0  2  0  0  0  0  0  0  0  0  0
    3.3413   -2.9896   -3.5909 C   0  0  0  0  0  0  0  0  0  0  0  0
    3.7675   -2.8483   -4.7091 O   0  0  0  0  0  0  0  0  0  0  0  0
    2.2002   -3.6189   -3.3336 O   0  0  0  0  0  0  0  0  0  0  0  0
    0.0120   -0.5571    1.5157 H   0  0  0  0  0  0  0  0  0  0  0  0
    0.7913   -2.1696    1.4954 H   0  0  0  0  0  0  0  0  0  0  0  0
   -0.3147   -1.7048    0.1841 H   0  0  0  0  0  0  0  0  0  0  0  0
    1.2895    0.0523   -0.5787 H   0  0  0  0  0  0  0  0  0  0  0  0
    4.3961    0.5345    2.6040 H   0  0  0  0  0  0  0  0  0  0  0  0
    4.4450    2.7621    3.7418 H   0  0  0  0  0  0  0  0  0  0  0  0
    2.6280    4.4336    3.3123 H   0  0  0  0  0  0  0  0  0  0  0  0
    0.7185    1.6671    0.6273 H   0  0  0  0  0  0  0  0  0  0  0  0
    4.4216    0.1551   -0.7578 H   0  0  0  0  0  0  0  0  0  0  0  0
    3.1474    0.6407   -1.9004 H   0  0  0  0  0  0  0  0  0  0  0  0
    5.7409    0.4576   -2.7795 H   0  0  0  0  0  0  0  0  0  0  0  0
    4.4233   -0.1423   -3.8175 H   0  0  0  0  0  0  0  0  0  0  0  0
    6.1205   -1.8236   -1.8839 H   0  0  0  0  0  0  0  0  0  0  0  0
    5.8294   -2.1310   -3.6233 H   0  0  0  0  0  0  0  0  0  0  0  0
    4.2773   -3.3438   -1.6821 H   0  0  0  0  0  0  0  0  0  0  0  0
    2.0058   -3.5935   -2.3586 H   0  0  0  0  0  0  0  0  0  0  0  0
  1  2  1  0
  1 21  1  0
  1 22  1  0
  1 23  1  0
  2  3  1  0
  2 11  1  0
  2 24  1  6
  3  4  1  0
  4  5  2  0
  4 10  1  0
  5  6  1  0
  5 25  1  0
  6  7  2  0
  6 26  1  0
  7  8  1  0
  7 27  1  0
  8  9  1  0
  8 10  2  0
 10 28  1  0
 11 12  2  0
 11 13  1  0
 13 14  1  0
 13 17  1  0
 14 15  1  0
 14 29  1  0
 14 30  1  0
 15 16  1  0
 15 31  1  0
 15 32  1  0
 16 17  1  0
 16 33  1  0
 16 34  1  0
 17 18  1  0
 17 35  1  1
 18 19  2  0
 18 20  1  0
 20 36  1  0
M  END

