
     RDKit          3D

 52 54  0  0  0  0  0  0  0  0999 V2000
    5.0154   -0.8083   -3.0784 O   0  0  0  0  0  0  0  0  0  0  0  0
    4.4405   -0.7370   -2.0017 C   0  0  0  0  0  0  0  0  0  0  0  0
    5.0234   -0.2452   -0.8696 N   0  0  0  0  0  0  0  0  0  0  0  0
    6.3978    0.2463   -0.8128 C   0  0  1  0  0  0  0  0  0  0  0  0
    6.3896    1.7221   -0.3782 C   0  0  0  0  0  0  0  0  0  0  0  0
    7.7524    2.4114   -0.2129 C   0  0  0  0  0  0  0  0  0  0  0  0
    8.5698    1.9190    0.9929 C   0  0  0  0  0  0  0  0  0  0  0  0
    9.4072    0.6444    0.7747 C   0  0  0  0  0  0  0  0  0  0  0  0
    8.7867   -0.4455   -0.1182 C   0  0  0  0  0  0  0  0  0  0  0  0
    7.2771   -0.6936    0.0373 C   0  0  0  0  0  0  0  0  0  0  0  0
    2.9842   -1.1767   -1.8467 C   0  0  2  0  0  0  0  0  0  0  0  0
    2.6783   -1.1126   -0.7897 H   0  0  0  0  0  0  0  0  0  0  0  0
    2.7866   -2.6199   -2.3436 C   0  0  0  0  0  0  0  0  0  0  0  0
    1.3044   -3.0111   -2.3366 C   0  0  0  0  0  0  0  0  0  0  0  0
    0.4555   -1.9991   -3.1118 C   0  0  0  0  0  0  0  0  0  0  0  0
    0.6912   -0.6427   -2.6191 N   0  0  0  0  0  0  0  0  0  0  0  0
   -0.3642    0.1015   -2.1644 C   0  0  0  0  0  0  0  0  0  0  0  0
   -1.5198   -0.2917   -2.1827 O   0  0  0  0  0  0  0  0  0  0  0  0
   -0.0754    1.5061   -1.6629 C   0  0  0  0  0  0  0  0  0  0  0  0
   -0.3853    2.5920   -2.4969 C   0  0  0  0  0  0  0  0  0  0  0  0
   -0.2468    3.9078   -2.0532 C   0  0  0  0  0  0  0  0  0  0  0  0
    0.1916    4.1600   -0.7498 C   0  0  0  0  0  0  0  0  0  0  0  0
    0.4904    3.0968    0.1040 C   0  0  0  0  0  0  0  0  0  0  0  0
    0.3543    1.7842   -0.3574 C   0  0  0  0  0  0  0  0  0  0  0  0
    0.7338    0.4704    0.7483 Cl  0  0  0  0  0  0  0  0  0  0  0  0
    2.0817   -0.2138   -2.6501 C   0  0  0  0  0  0  0  0  0  0  0  0
    4.4691   -0.2110   -0.0212 H   0  0  0  0  0  0  0  0  0  0  0  0
    6.7574    0.1841   -1.8520 H   0  0  0  0  0  0  0  0  0  0  0  0
    5.8438    1.8038    0.5821 H   0  0  0  0  0  0  0  0  0  0  0  0
    5.7872    2.2766   -1.1171 H   0  0  0  0  0  0  0  0  0  0  0  0
    7.5587    3.4897   -0.0872 H   0  0  0  0  0  0  0  0  0  0  0  0
    8.3417    2.3232   -1.1437 H   0  0  0  0  0  0  0  0  0  0  0  0
    7.8721    1.7648    1.8357 H   0  0  0  0  0  0  0  0  0  0  0  0
    9.2504    2.7207    1.3253 H   0  0  0  0  0  0  0  0  0  0  0  0
    9.6408    0.2158    1.7651 H   0  0  0  0  0  0  0  0  0  0  0  0
   10.3828    0.9210    0.3381 H   0  0  0  0  0  0  0  0  0  0  0  0
    9.3262   -1.3878    0.0730 H   0  0  0  0  0  0  0  0  0  0  0  0
    8.9835   -0.2125   -1.1794 H   0  0  0  0  0  0  0  0  0  0  0  0
    6.9776   -0.6403    1.1011 H   0  0  0  0  0  0  0  0  0  0  0  0
    7.0508   -1.7203   -0.2924 H   0  0  0  0  0  0  0  0  0  0  0  0
    3.3740   -3.3151   -1.7210 H   0  0  0  0  0  0  0  0  0  0  0  0
    3.1980   -2.6872   -3.3650 H   0  0  0  0  0  0  0  0  0  0  0  0
    0.9337   -3.0650   -1.2982 H   0  0  0  0  0  0  0  0  0  0  0  0
    1.1704   -4.0127   -2.7774 H   0  0  0  0  0  0  0  0  0  0  0  0
   -0.6177   -2.2031   -3.0153 H   0  0  0  0  0  0  0  0  0  0  0  0
    0.7175   -2.0359   -4.1866 H   0  0  0  0  0  0  0  0  0  0  0  0
   -0.7460    2.3902   -3.5085 H   0  0  0  0  0  0  0  0  0  0  0  0
   -0.4887    4.7364   -2.7226 H   0  0  0  0  0  0  0  0  0  0  0  0
    0.2976    5.1866   -0.3907 H   0  0  0  0  0  0  0  0  0  0  0  0
    0.8244    3.2733    1.1278 H   0  0  0  0  0  0  0  0  0  0  0  0
    2.1624    0.8071   -2.2565 H   0  0  0  0  0  0  0  0  0  0  0  0
    2.4425   -0.1947   -3.6948 H   0  0  0  0  0  0  0  0  0  0  0  0
  1  2  2  0
  2  3  1  0
  2 11  1  0
  3  4  1  0
  3 27  1  0
  4  5  1  0
  4 10  1  0
  4 28  1  6
  5  6  1  0
  5 29  1  0
  5 30  1  0
  6  7  1  0
  6 31  1  0
  6 32  1  0
  7  8  1  0
  7 33  1  0
  7 34  1  0
  8  9  1  0
  8 35  1  0
  8 36  1  0
  9 10  1  0
  9 37  1  0
  9 38  1  0
 10 39  1  0
 10 40  1  0
 11 12  1  1
 11 13  1  0
 11 26  1  0
 13 14  1  0
 13 41  1  0
 13 42  1  0
 14 15  1  0
 14 43  1  0
 14 44  1  0
 15 16  1  0
 15 45  1  0
 15 46  1  0
 16 17  1  0
 16 26  1  0
 17 18  2  0
 17 19  1  0
 19 20  2  0
 19 24  1  0
 20 21  1  0
 20 47  1  0
 21 22  2  0
 21 48  1  0
 22 23  1  0
 22 49  1  0
 23 24  2  0
 23 50  1  0
 24 25  1  0
 26 51  1  0
 26 52  1  0
M  END

