
     RDKit          3D

 32 32  0  0  0  0  0  0  0  0999 V2000
    5.6569    0.6762    0.8225 C   0  0  0  0  0  0  0  0  0  0  0  0
    6.1947   -1.0479    1.0809 S   0  0  0  0  0  0  0  0  0  0  0  0
    4.8443   -2.0044    0.2439 C   0  0  1  0  0  0  0  0  0  0  0  0
    3.4698   -1.7986    0.8737 C   0  0  0  0  0  0  0  0  0  0  0  0
    4.8336   -1.6584   -1.2502 C   0  0  0  0  0  0  0  0  0  0  0  0
    4.0314   -0.8391   -1.6755 O   0  0  0  0  0  0  0  0  0  0  0  0
    5.7527   -2.2629   -2.0854 N   0  0  0  0  0  0  0  0  0  0  0  0
    6.8067   -3.1875   -1.6868 C   0  0  0  0  0  0  0  0  0  0  0  0
    6.5967   -4.5771   -2.2956 C   0  0  0  0  0  0  0  0  0  0  0  0
    6.5827   -4.4750   -4.1134 S   0  0  2  0  0  0  0  0  0  0  0  0
    6.0621   -5.7344   -4.6617 O   0  0  0  0  0  0  0  0  0  0  0  0
    7.9029   -3.9595   -4.5214 O   0  0  0  0  0  0  0  0  0  0  0  0
    5.3599   -3.1324   -4.3923 C   0  0  2  0  0  0  0  0  0  0  0  0
    5.3362   -2.8118   -5.8832 C   0  0  0  0  0  0  0  0  0  0  0  0
    5.7233   -1.9297   -3.5076 C   0  0  0  0  0  0  0  0  0  0  0  0
    6.5056    1.3029    1.1319 H   0  0  0  0  0  0  0  0  0  0  0  0
    4.7854    0.9256    1.4445 H   0  0  0  0  0  0  0  0  0  0  0  0
    5.4250    0.8726   -0.2338 H   0  0  0  0  0  0  0  0  0  0  0  0
    5.1619   -3.0448    0.4049 H   0  0  0  0  0  0  0  0  0  0  0  0
    3.1092   -0.7753    0.7051 H   0  0  0  0  0  0  0  0  0  0  0  0
    3.5151   -1.9977    1.9541 H   0  0  0  0  0  0  0  0  0  0  0  0
    2.7331   -2.4800    0.4179 H   0  0  0  0  0  0  0  0  0  0  0  0
    6.8704   -3.2572   -0.5961 H   0  0  0  0  0  0  0  0  0  0  0  0
    7.7797   -2.7962   -2.0305 H   0  0  0  0  0  0  0  0  0  0  0  0
    5.6458   -5.0388   -1.9912 H   0  0  0  0  0  0  0  0  0  0  0  0
    7.4279   -5.2626   -2.0702 H   0  0  0  0  0  0  0  0  0  0  0  0
    4.4011   -3.5677   -4.0674 H   0  0  0  0  0  0  0  0  0  0  0  0
    6.3146   -2.4343   -6.2162 H   0  0  0  0  0  0  0  0  0  0  0  0
    4.5728   -2.0454   -6.0885 H   0  0  0  0  0  0  0  0  0  0  0  0
    5.0938   -3.7100   -6.4694 H   0  0  0  0  0  0  0  0  0  0  0  0
    4.9730   -1.1402   -3.6442 H   0  0  0  0  0  0  0  0  0  0  0  0
    6.7074   -1.5388   -3.8201 H   0  0  0  0  0  0  0  0  0  0  0  0
  1  2  1  0
  1 16  1  0
  1 17  1  0
  1 18  1  0
  2  3  1  0
  3  4  1  0
  3  5  1  0
  3 19  1  6
  4 20  1  0
  4 21  1  0
  4 22  1  0
  5  6  2  0
  5  7  1  0
  7  8  1  0
  7 15  1  0
  8  9  1  0
  8 23  1  0
  8 24  1  0
 10  9  1  1
  9 25  1  0
  9 26  1  0
 10 11  2  0
 10 12  2  0
 10 13  1  0
 13 14  1  0
 13 15  1  0
 13 27  1  1
 14 28  1  0
 14 29  1  0
 14 30  1  0
 15 31  1  0
 15 32  1  0
M  END

