
     RDKit          3D

 36 38  0  0  0  0  0  0  0  0999 V2000
    1.7931   -0.0553   -0.4982 N   0  0  0  0  0  0  0  0  0  0  0  0
    3.1098   -0.4947   -0.5230 C   0  0  0  0  0  0  0  0  0  0  0  0
    4.0897    0.4393   -0.7073 N   0  0  0  0  0  0  0  0  0  0  0  0
    5.2755   -0.1220   -0.7022 C   0  0  0  0  0  0  0  0  0  0  0  0
    6.4362    0.5670   -0.8901 N   0  0  0  0  0  0  0  0  0  0  0  0
    6.4739    1.9993   -0.9400 C   0  0  1  0  0  0  0  0  0  0  0  0
    7.5447    2.6379   -1.7842 C   0  0  0  0  0  0  0  0  0  0  0  0
    6.1040    2.6978   -2.2210 C   0  0  0  0  0  0  0  0  0  0  0  0
    5.2884   -1.8647   -0.4826 S   0  0  0  0  0  0  0  0  0  0  0  0
    3.5315   -1.8057   -0.3418 C   0  0  0  0  0  0  0  0  0  0  0  0
    2.8178   -3.0498   -0.0456 C   0  0  0  0  0  0  0  0  0  0  0  0
    3.3586   -4.1478   -0.1120 O   0  0  0  0  0  0  0  0  0  0  0  0
    1.4860   -2.8995    0.3093 N   0  0  0  0  0  0  0  0  0  0  0  0
    0.6859   -4.0387    0.7183 C   0  0  0  0  0  0  0  0  0  0  0  0
   -0.7068   -4.0300    0.1185 C   0  0  0  0  0  0  0  0  0  0  0  0
   -0.8916   -3.8765   -1.2654 C   0  0  0  0  0  0  0  0  0  0  0  0
   -2.1672   -3.8886   -1.8311 C   0  0  0  0  0  0  0  0  0  0  0  0
   -3.2819   -4.0561   -1.0025 C   0  0  0  0  0  0  0  0  0  0  0  0
   -5.0313   -4.0695   -1.7667 Br  0  0  0  0  0  0  0  0  0  0  0  0
   -3.1279   -4.2110    0.3757 C   0  0  0  0  0  0  0  0  0  0  0  0
   -1.8410   -4.1944    0.9242 C   0  0  0  0  0  0  0  0  0  0  0  0
    1.7079    0.9167   -0.7809 H   0  0  0  0  0  0  0  0  0  0  0  0
    1.1286   -0.6587   -0.9753 H   0  0  0  0  0  0  0  0  0  0  0  0
    7.2995    0.0839   -0.6702 H   0  0  0  0  0  0  0  0  0  0  0  0
    6.1936    2.5059   -0.0070 H   0  0  0  0  0  0  0  0  0  0  0  0
    8.2138    1.9714   -2.3368 H   0  0  0  0  0  0  0  0  0  0  0  0
    8.0229    3.5435   -1.4016 H   0  0  0  0  0  0  0  0  0  0  0  0
    5.7980    2.0657   -3.0578 H   0  0  0  0  0  0  0  0  0  0  0  0
    5.5661    3.6461   -2.1418 H   0  0  0  0  0  0  0  0  0  0  0  0
    1.1864   -1.9799    0.6202 H   0  0  0  0  0  0  0  0  0  0  0  0
    0.6095   -4.0996    1.8196 H   0  0  0  0  0  0  0  0  0  0  0  0
    1.2459   -4.9301    0.3945 H   0  0  0  0  0  0  0  0  0  0  0  0
   -0.0194   -3.7470   -1.9117 H   0  0  0  0  0  0  0  0  0  0  0  0
   -2.2977   -3.7733   -2.9086 H   0  0  0  0  0  0  0  0  0  0  0  0
   -4.0020   -4.3381    1.0166 H   0  0  0  0  0  0  0  0  0  0  0  0
   -1.7229   -4.3121    2.0053 H   0  0  0  0  0  0  0  0  0  0  0  0
  1  2  1  0
  1 22  1  0
  1 23  1  0
  2  3  2  0
  2 10  1  0
  3  4  1  0
  4  5  1  0
  4  9  2  0
  5  6  1  0
  5 24  1  0
  6  7  1  0
  6  8  1  0
  6 25  1  1
  7  8  1  0
  7 26  1  0
  7 27  1  0
  8 28  1  0
  8 29  1  0
  9 10  1  0
 10 11  2  0
 11 12  1  0
 11 13  1  0
 13 14  1  0
 13 30  1  0
 14 15  1  0
 14 31  1  0
 14 32  1  0
 15 16  2  0
 15 21  1  0
 16 17  1  0
 16 33  1  0
 17 18  2  0
 17 34  1  0
 18 19  1  0
 18 20  1  0
 20 21  2  0
 20 35  1  0
 21 36  1  0
M  CHG  2   9   1  12  -1
M  END

