
     RDKit          3D

 60 62  0  0  0  0  0  0  0  0999 V2000
    4.7289   -1.7090    0.8262 C   0  0  0  0  0  0  0  0  0  0  0  0
    3.6143   -0.9161    1.4850 C   0  0  0  0  0  0  0  0  0  0  0  0
    4.1477    0.2118    2.2107 O   0  0  0  0  0  0  0  0  0  0  0  0
    4.1354    1.4197    1.6414 C   0  0  0  0  0  0  0  0  0  0  0  0
    3.7763    1.6429    0.5089 O   0  0  0  0  0  0  0  0  0  0  0  0
    4.6315    2.4857    2.6136 C   0  0  1  0  0  0  0  0  0  0  0  0
    5.5058    2.0646    3.1329 H   0  0  0  0  0  0  0  0  0  0  0  0
    4.9855    3.7997    1.9057 C   0  0  0  0  0  0  0  0  0  0  0  0
    4.8904    4.8589    3.0000 C   0  0  0  0  0  0  0  0  0  0  0  0
    3.8406    4.3383    3.8792 N   0  0  0  0  0  0  0  0  0  0  0  0
    3.3537    5.0009    4.9689 C   0  0  0  0  0  0  0  0  0  0  0  0
    2.5927    4.5053    5.7826 O   0  0  0  0  0  0  0  0  0  0  0  0
    3.8221    6.2669    5.0063 O   0  0  0  0  0  0  0  0  0  0  0  0
    3.4453    7.2065    6.0660 C   0  0  1  0  0  0  0  0  0  0  0  0
    3.9184    6.6828    7.4262 C   0  0  0  0  0  0  0  0  0  0  0  0
    4.2080    8.4761    5.6815 C   0  0  0  0  0  0  0  0  0  0  0  0
    1.9332    7.4534    6.0368 C   0  0  0  0  0  0  0  0  0  0  0  0
    3.5975    2.8952    3.7337 C   0  0  1  0  0  0  0  0  0  0  0  0
    3.8567    2.3752    4.6603 H   0  0  0  0  0  0  0  0  0  0  0  0
    2.1505    2.5563    3.3787 C   0  0  0  0  0  0  0  0  0  0  0  0
    1.4509    3.4099    2.5242 C   0  0  0  0  0  0  0  0  0  0  0  0
    0.1595    3.1168    2.0422 C   0  0  0  0  0  0  0  0  0  0  0  0
   -0.4817    3.9724    1.1839 N   0  0  0  0  0  0  0  0  0  0  0  0
   -0.4337    1.8958    2.4297 C   0  0  0  0  0  0  0  0  0  0  0  0
    0.2438    1.0371    3.2812 C   0  0  0  0  0  0  0  0  0  0  0  0
    1.5178    1.3569    3.7837 C   0  0  0  0  0  0  0  0  0  0  0  0
    2.1874    0.1266    4.9268 S   0  0  1  0  0  0  0  0  0  0  0  0
    1.7176   -1.1933    4.4589 O   0  0  0  0  0  0  0  0  0  0  0  0
    3.6281    0.3280    5.1609 O   0  0  0  0  0  0  0  0  0  0  0  0
    1.3841    0.4069    6.5158 C   0  0  1  0  0  0  0  0  0  0  0  0
    1.3032    1.7567    7.1635 C   0  0  0  0  0  0  0  0  0  0  0  0
    0.0438    1.0567    6.7170 C   0  0  0  0  0  0  0  0  0  0  0  0
    4.3133   -2.6103    0.3472 H   0  0  0  0  0  0  0  0  0  0  0  0
    5.4756   -2.0294    1.5692 H   0  0  0  0  0  0  0  0  0  0  0  0
    5.2352   -1.1132    0.0509 H   0  0  0  0  0  0  0  0  0  0  0  0
    3.0841   -1.5033    2.2477 H   0  0  0  0  0  0  0  0  0  0  0  0
    2.8936   -0.5482    0.7408 H   0  0  0  0  0  0  0  0  0  0  0  0
    4.2525    3.9836    1.1064 H   0  0  0  0  0  0  0  0  0  0  0  0
    5.9791    3.7668    1.4351 H   0  0  0  0  0  0  0  0  0  0  0  0
    4.6234    5.8549    2.6187 H   0  0  0  0  0  0  0  0  0  0  0  0
    5.8433    4.9661    3.5509 H   0  0  0  0  0  0  0  0  0  0  0  0
    5.0000    6.4767    7.4016 H   0  0  0  0  0  0  0  0  0  0  0  0
    3.3893    5.7618    7.7008 H   0  0  0  0  0  0  0  0  0  0  0  0
    3.7339    7.4430    8.2013 H   0  0  0  0  0  0  0  0  0  0  0  0
    5.2916    8.2850    5.6581 H   0  0  0  0  0  0  0  0  0  0  0  0
    4.0104    9.2755    6.4116 H   0  0  0  0  0  0  0  0  0  0  0  0
    3.8984    8.8286    4.6859 H   0  0  0  0  0  0  0  0  0  0  0  0
    1.3796    6.5402    6.2885 H   0  0  0  0  0  0  0  0  0  0  0  0
    1.6206    7.7951    5.0374 H   0  0  0  0  0  0  0  0  0  0  0  0
    1.6711    8.2394    6.7624 H   0  0  0  0  0  0  0  0  0  0  0  0
    1.9292    4.3412    2.2136 H   0  0  0  0  0  0  0  0  0  0  0  0
   -0.1242    4.9094    1.0577 H   0  0  0  0  0  0  0  0  0  0  0  0
   -1.4655    3.8398    0.9939 H   0  0  0  0  0  0  0  0  0  0  0  0
   -1.4221    1.6234    2.0506 H   0  0  0  0  0  0  0  0  0  0  0  0
   -0.2083    0.0855    3.5658 H   0  0  0  0  0  0  0  0  0  0  0  0
    1.6421   -0.4673    7.1237 H   0  0  0  0  0  0  0  0  0  0  0  0
    1.6337    2.6315    6.5940 H   0  0  0  0  0  0  0  0  0  0  0  0
    1.5353    1.8004    8.2317 H   0  0  0  0  0  0  0  0  0  0  0  0
   -0.4751    1.4682    5.8477 H   0  0  0  0  0  0  0  0  0  0  0  0
   -0.6138    0.5999    7.4624 H   0  0  0  0  0  0  0  0  0  0  0  0
  1  2  1  0
  1 33  1  0
  1 34  1  0
  1 35  1  0
  2  3  1  0
  2 36  1  0
  2 37  1  0
  3  4  1  0
  4  5  2  0
  4  6  1  0
  6  7  1  1
  6  8  1  0
  6 18  1  0
  8  9  1  0
  8 38  1  0
  8 39  1  0
  9 10  1  0
  9 40  1  0
  9 41  1  0
 10 11  1  0
 10 18  1  0
 11 12  2  0
 11 13  1  0
 14 13  1  6
 14 15  1  0
 14 16  1  0
 14 17  1  0
 15 42  1  0
 15 43  1  0
 15 44  1  0
 16 45  1  0
 16 46  1  0
 16 47  1  0
 17 48  1  0
 17 49  1  0
 17 50  1  0
 18 19  1  1
 18 20  1  0
 20 21  2  0
 20 26  1  0
 21 22  1  0
 21 51  1  0
 22 23  1  0
 22 24  2  0
 23 52  1  0
 23 53  1  0
 24 25  1  0
 24 54  1  0
 25 26  2  0
 25 55  1  0
 27 26  1  6
 27 28  2  0
 27 29  2  0
 27 30  1  0
 30 31  1  0
 30 32  1  0
 30 56  1  1
 31 32  1  0
 31 57  1  0
 31 58  1  0
 32 59  1  0
 32 60  1  0
M  END

