
     RDKit          3D

 80 84  0  0  0  0  0  0  0  0999 V2000
    0.0663   -1.8810    0.5543 C   0  0  0  0  0  0  0  0  0  0  0  0
    1.3975   -1.4560    0.4598 O   0  0  0  0  0  0  0  0  0  0  0  0
    2.0714   -1.4120    1.6937 C   0  0  0  0  0  0  0  0  0  0  0  0
    3.5046   -0.9316    1.4543 C   0  0  0  0  0  0  0  0  0  0  0  0
    4.3238   -0.8629    2.7111 C   0  0  0  0  0  0  0  0  0  0  0  0
    4.5098    0.2164    3.5365 C   0  0  0  0  0  0  0  0  0  0  0  0
    5.3436   -0.2503    4.6314 C   0  0  0  0  0  0  0  0  0  0  0  0
    5.6703   -1.5704    4.4634 N   0  0  0  0  0  0  0  0  0  0  0  0
    5.0815   -1.9643    3.3375 C   0  0  0  0  0  0  0  0  0  0  0  0
    5.1171   -3.3377    2.8442 C   0  0  0  0  0  0  0  0  0  0  0  0
    5.9650   -4.3241    3.2393 C   0  0  0  0  0  0  0  0  0  0  0  0
    7.1467   -4.0565    4.0691 C   0  0  0  0  0  0  0  0  0  0  0  0
    7.1452   -4.2731    5.4307 N   0  0  0  0  0  0  0  0  0  0  0  0
    6.3088   -4.5196    5.9455 H   0  0  0  0  0  0  0  0  0  0  0  0
    8.2036   -3.6016    6.0080 C   0  0  0  0  0  0  0  0  0  0  0  0
    8.9688   -3.0738    4.9752 C   0  0  0  0  0  0  0  0  0  0  0  0
    8.3134   -3.3583    3.7487 C   0  0  0  0  0  0  0  0  0  0  0  0
    8.7546   -2.9584    2.3681 C   0  0  0  0  0  0  0  0  0  0  0  0
    9.0595   -1.4717    2.2015 C   0  0  0  0  0  0  0  0  0  0  0  0
   10.2588   -1.1550    2.8755 O   0  0  0  0  0  0  0  0  0  0  0  0
   10.5750    0.2079    2.8538 C   0  0  0  0  0  0  0  0  0  0  0  0
    8.2022   -3.2397    7.4264 C   0  0  0  0  0  0  0  0  0  0  0  0
    8.0314   -1.9537    7.7235 N   0  0  0  0  0  0  0  0  0  0  0  0
    8.0001   -1.8340    9.0926 C   0  0  0  0  0  0  0  0  0  0  0  0
    7.7626   -0.5658    9.6832 C   0  0  0  0  0  0  0  0  0  0  0  0
    7.9560   -0.4176   11.0340 N   0  0  0  0  0  0  0  0  0  0  0  0
    7.2728    0.6154    9.0198 C   0  0  0  0  0  0  0  0  0  0  0  0
    6.6630    0.8306    7.7882 C   0  0  0  0  0  0  0  0  0  0  0  0
    6.4952   -0.0658    6.7724 N   0  0  0  0  0  0  0  0  0  0  0  0
    7.0346   -0.9721    6.8262 H   0  0  0  0  0  0  0  0  0  0  0  0
    5.7431    0.4645    5.7646 C   0  0  0  0  0  0  0  0  0  0  0  0
    5.4271    1.8271    6.1467 C   0  0  0  0  0  0  0  0  0  0  0  0
    5.9934    2.0751    7.3684 C   0  0  0  0  0  0  0  0  0  0  0  0
    5.9298    3.3333    8.1869 C   0  0  0  0  0  0  0  0  0  0  0  0
    5.6661    4.6148    7.4050 C   0  0  0  0  0  0  0  0  0  0  0  0
    4.3604    4.5998    6.8780 O   0  0  0  0  0  0  0  0  0  0  0  0
    4.0176    5.7707    6.1838 C   0  0  0  0  0  0  0  0  0  0  0  0
    8.1892   -3.1477    9.6956 C   0  0  0  0  0  0  0  0  0  0  0  0
    8.2058   -3.5668   11.1428 C   0  0  0  0  0  0  0  0  0  0  0  0
    6.8388   -3.5632   11.8340 C   0  0  0  0  0  0  0  0  0  0  0  0
    6.0236   -4.5375   11.2359 O   0  0  0  0  0  0  0  0  0  0  0  0
    4.7139   -4.5641   11.7302 C   0  0  0  0  0  0  0  0  0  0  0  0
    8.2875   -4.0236    8.6266 C   0  0  0  0  0  0  0  0  0  0  0  0
   -0.3627   -1.8795   -0.4589 H   0  0  0  0  0  0  0  0  0  0  0  0
   -0.5427   -1.2097    1.1948 H   0  0  0  0  0  0  0  0  0  0  0  0
   -0.0168   -2.9071    0.9692 H   0  0  0  0  0  0  0  0  0  0  0  0
    2.0739   -2.4137    2.1747 H   0  0  0  0  0  0  0  0  0  0  0  0
    1.5585   -0.7259    2.4005 H   0  0  0  0  0  0  0  0  0  0  0  0
    3.4523    0.0610    0.9789 H   0  0  0  0  0  0  0  0  0  0  0  0
    3.9697   -1.6068    0.7171 H   0  0  0  0  0  0  0  0  0  0  0  0
    4.1116    1.2223    3.4050 H   0  0  0  0  0  0  0  0  0  0  0  0
    4.3302   -3.6031    2.1293 H   0  0  0  0  0  0  0  0  0  0  0  0
    5.7500   -5.3508    2.9128 H   0  0  0  0  0  0  0  0  0  0  0  0
    9.8908   -2.5114    5.0928 H   0  0  0  0  0  0  0  0  0  0  0  0
    7.9699   -3.2287    1.6434 H   0  0  0  0  0  0  0  0  0  0  0  0
    9.6622   -3.5146    2.0699 H   0  0  0  0  0  0  0  0  0  0  0  0
    8.2207   -0.8645    2.5979 H   0  0  0  0  0  0  0  0  0  0  0  0
    9.1614   -1.2287    1.1214 H   0  0  0  0  0  0  0  0  0  0  0  0
   11.5219    0.3462    3.3972 H   0  0  0  0  0  0  0  0  0  0  0  0
    9.7947    0.8261    3.3436 H   0  0  0  0  0  0  0  0  0  0  0  0
   10.7062    0.5893    1.8191 H   0  0  0  0  0  0  0  0  0  0  0  0
    8.5503   -1.0644   11.5318 H   0  0  0  0  0  0  0  0  0  0  0  0
    7.8117    0.4869   11.4607 H   0  0  0  0  0  0  0  0  0  0  0  0
    7.2719    1.5011    9.6616 H   0  0  0  0  0  0  0  0  0  0  0  0
    4.8140    2.5169    5.5736 H   0  0  0  0  0  0  0  0  0  0  0  0
    6.8809    3.4678    8.7290 H   0  0  0  0  0  0  0  0  0  0  0  0
    5.1472    3.2376    8.9624 H   0  0  0  0  0  0  0  0  0  0  0  0
    6.4139    4.7269    6.5917 H   0  0  0  0  0  0  0  0  0  0  0  0
    5.7924    5.4851    8.0829 H   0  0  0  0  0  0  0  0  0  0  0  0
    2.9839    5.6597    5.8254 H   0  0  0  0  0  0  0  0  0  0  0  0
    4.6781    5.9463    5.3106 H   0  0  0  0  0  0  0  0  0  0  0  0
    4.0710    6.6668    6.8351 H   0  0  0  0  0  0  0  0  0  0  0  0
    8.8998   -2.9543   11.7483 H   0  0  0  0  0  0  0  0  0  0  0  0
    8.6020   -4.5928   11.2056 H   0  0  0  0  0  0  0  0  0  0  0  0
    6.3713   -2.5596   11.7604 H   0  0  0  0  0  0  0  0  0  0  0  0
    6.9711   -3.7795   12.9173 H   0  0  0  0  0  0  0  0  0  0  0  0
    4.1662   -5.3535   11.1943 H   0  0  0  0  0  0  0  0  0  0  0  0
    4.1881   -3.6004   11.5695 H   0  0  0  0  0  0  0  0  0  0  0  0
    4.6800   -4.7899   12.8168 H   0  0  0  0  0  0  0  0  0  0  0  0
    8.4241   -5.1028    8.6885 H   0  0  0  0  0  0  0  0  0  0  0  0
  1  2  1  0
  1 44  1  0
  1 45  1  0
  1 46  1  0
  2  3  1  0
  3  4  1  0
  3 47  1  0
  3 48  1  0
  4  5  1  0
  4 49  1  0
  4 50  1  0
  5  6  2  0
  5  9  1  0
  6  7  1  0
  6 51  1  0
  7  8  2  0
  7 31  1  0
  8  9  1  0
  9 10  2  0
 10 11  1  0
 10 52  1  0
 11 12  2  0
 11 53  1  0
 12 13  1  0
 12 17  1  0
 13 14  1  0
 13 15  1  0
 15 16  1  0
 15 22  2  0
 16 17  2  0
 16 54  1  0
 17 18  1  0
 18 19  1  0
 18 55  1  0
 18 56  1  0
 19 20  1  0
 19 57  1  0
 19 58  1  0
 20 21  1  0
 21 59  1  0
 21 60  1  0
 21 61  1  0
 22 23  1  0
 22 43  1  0
 23 24  2  0
 24 25  1  0
 24 38  1  0
 25 26  1  0
 25 27  2  0
 26 62  1  0
 26 63  1  0
 27 28  1  0
 27 64  1  0
 28 29  1  0
 28 33  2  0
 29 30  1  0
 29 31  1  0
 31 32  2  0
 32 33  1  0
 32 65  1  0
 33 34  1  0
 34 35  1  0
 34 66  1  0
 34 67  1  0
 35 36  1  0
 35 68  1  0
 35 69  1  0
 36 37  1  0
 37 70  1  0
 37 71  1  0
 37 72  1  0
 38 39  1  0
 38 43  2  0
 39 40  1  0
 39 73  1  0
 39 74  1  0
 40 41  1  0
 40 75  1  0
 40 76  1  0
 41 42  1  0
 42 77  1  0
 42 78  1  0
 42 79  1  0
 43 80  1  0
M  END

