
     RDKit          3D

 30 30  0  0  0  0  0  0  0  0999 V2000
    3.3907   -2.7818   -3.4715 C   0  0  0  0  0  0  0  0  0  0  0  0
    3.3503   -2.8116   -1.6527 S   0  0  0  0  0  0  0  0  0  0  0  0
    4.7167   -1.6413   -1.2804 C   0  0  0  0  0  0  0  0  0  0  0  0
    5.1616   -1.7802    0.1768 C   0  0  0  0  0  0  0  0  0  0  0  0
    5.7705   -3.0595    0.4633 N   0  0  0  0  0  0  0  0  0  0  0  0
    7.0408   -3.1827    0.9374 C   0  0  0  0  0  0  0  0  0  0  0  0
    7.7803   -2.2431    1.1966 O   0  0  0  0  0  0  0  0  0  0  0  0
    7.4741   -4.6045    1.1281 C   0  0  0  0  0  0  0  0  0  0  0  0
    8.7106   -4.9512    1.6119 C   0  0  0  0  0  0  0  0  0  0  0  0
    8.8401   -6.6672    1.6882 S   0  0  0  0  0  0  0  0  0  0  0  0
    7.2000   -6.8069    1.0617 C   0  0  0  0  0  0  0  0  0  0  0  0
    6.5464   -8.1408    0.8443 C   0  0  0  0  0  0  0  0  0  0  0  0
    5.8965   -8.2718   -0.5405 C   0  0  0  0  0  0  0  0  0  0  0  0
    5.1971   -9.5452   -0.6495 N   0  0  0  0  0  0  0  0  0  0  0  0
    6.6421   -5.6559    0.8249 N   0  0  0  0  0  0  0  0  0  0  0  0
    2.5968   -3.4581   -3.8197 H   0  0  0  0  0  0  0  0  0  0  0  0
    4.3575   -3.1396   -3.8585 H   0  0  0  0  0  0  0  0  0  0  0  0
    3.1881   -1.7722   -3.8612 H   0  0  0  0  0  0  0  0  0  0  0  0
    4.3782   -0.6092   -1.4694 H   0  0  0  0  0  0  0  0  0  0  0  0
    5.5639   -1.8580   -1.9510 H   0  0  0  0  0  0  0  0  0  0  0  0
    4.2984   -1.6027    0.8454 H   0  0  0  0  0  0  0  0  0  0  0  0
    5.9160   -1.0135    0.4076 H   0  0  0  0  0  0  0  0  0  0  0  0
    5.2643   -3.9165    0.2569 H   0  0  0  0  0  0  0  0  0  0  0  0
    9.5083   -4.2744    1.9102 H   0  0  0  0  0  0  0  0  0  0  0  0
    5.7621   -8.2951    1.6055 H   0  0  0  0  0  0  0  0  0  0  0  0
    7.2873   -8.9441    0.9926 H   0  0  0  0  0  0  0  0  0  0  0  0
    6.6742   -8.0998   -1.3161 H   0  0  0  0  0  0  0  0  0  0  0  0
    5.1653   -7.4561   -0.6532 H   0  0  0  0  0  0  0  0  0  0  0  0
    5.8624  -10.3164   -0.7222 H   0  0  0  0  0  0  0  0  0  0  0  0
    4.6365   -9.5735   -1.5005 H   0  0  0  0  0  0  0  0  0  0  0  0
  1  2  1  0
  1 16  1  0
  1 17  1  0
  1 18  1  0
  2  3  1  0
  3  4  1  0
  3 19  1  0
  3 20  1  0
  4  5  1  0
  4 21  1  0
  4 22  1  0
  5  6  1  0
  5 23  1  0
  6  7  2  0
  6  8  1  0
  8  9  2  0
  8 15  1  0
  9 10  1  0
  9 24  1  0
 10 11  1  0
 11 12  1  0
 11 15  2  0
 12 13  1  0
 12 25  1  0
 12 26  1  0
 13 14  1  0
 13 27  1  0
 13 28  1  0
 14 29  1  0
 14 30  1  0
M  END

