
     RDKit          3D

 33 33  0  0  0  0  0  0  0  0999 V2000
    2.2911    2.6949   -2.1180 C   0  0  0  0  0  0  0  0  0  0  0  0
    3.4056    2.8395   -1.3959 C   0  0  0  0  0  0  0  0  0  0  0  0
    4.1856    1.7148   -0.7757 C   0  0  0  0  0  0  0  0  0  0  0  0
    4.3750    1.9300    0.6544 N   0  0  0  0  0  0  0  0  0  0  0  0
    5.2002    0.9357    1.3204 C   0  0  0  0  0  0  0  0  0  0  0  0
    6.6800    1.1864    1.1520 C   0  0  0  0  0  0  0  0  0  0  0  0
    7.2655    2.3823    0.8393 C   0  0  0  0  0  0  0  0  0  0  0  0
    8.9976    2.2256    0.7950 S   0  0  0  0  0  0  0  0  0  0  0  0
    8.7972    0.5310    1.2157 C   0  0  0  0  0  0  0  0  0  0  0  0
    9.8615   -0.3639    1.3916 N   0  0  0  0  0  0  0  0  0  0  0  0
    9.4996   -1.7534    1.7260 C   0  0  0  0  0  0  0  0  0  0  0  0
    9.1607   -2.6066    0.5056 C   0  0  0  0  0  0  0  0  0  0  0  0
   11.1731    0.0560    1.2073 C   0  0  0  0  0  0  0  0  0  0  0  0
   12.2793   -0.9641    1.4038 C   0  0  0  0  0  0  0  0  0  0  0  0
   11.4249    1.2106    0.9065 O   0  0  0  0  0  0  0  0  0  0  0  0
    7.5579    0.1482    1.3583 N   0  0  0  0  0  0  0  0  0  0  0  0
    1.7752    3.5546   -2.5548 H   0  0  0  0  0  0  0  0  0  0  0  0
    1.8554    1.7078   -2.3077 H   0  0  0  0  0  0  0  0  0  0  0  0
    3.8112    3.8425   -1.2140 H   0  0  0  0  0  0  0  0  0  0  0  0
    5.1881    1.6756   -1.2404 H   0  0  0  0  0  0  0  0  0  0  0  0
    3.6976    0.7423   -1.0109 H   0  0  0  0  0  0  0  0  0  0  0  0
    3.4691    2.0008    1.1121 H   0  0  0  0  0  0  0  0  0  0  0  0
    4.9961   -0.1063    0.9899 H   0  0  0  0  0  0  0  0  0  0  0  0
    4.9646    0.9595    2.3992 H   0  0  0  0  0  0  0  0  0  0  0  0
    6.7650    3.3279    0.6433 H   0  0  0  0  0  0  0  0  0  0  0  0
    8.6291   -1.7021    2.3926 H   0  0  0  0  0  0  0  0  0  0  0  0
   10.3270   -2.1932    2.2966 H   0  0  0  0  0  0  0  0  0  0  0  0
    8.2992   -2.1826   -0.0300 H   0  0  0  0  0  0  0  0  0  0  0  0
    8.8958   -3.6278    0.8233 H   0  0  0  0  0  0  0  0  0  0  0  0
   10.0084   -2.6776   -0.1947 H   0  0  0  0  0  0  0  0  0  0  0  0
   12.3459   -1.2838    2.4562 H   0  0  0  0  0  0  0  0  0  0  0  0
   13.2204   -0.4757    1.1248 H   0  0  0  0  0  0  0  0  0  0  0  0
   12.1388   -1.8639    0.7867 H   0  0  0  0  0  0  0  0  0  0  0  0
  1  2  2  0
  1 17  1  0
  1 18  1  0
  2  3  1  0
  2 19  1  0
  3  4  1  0
  3 20  1  0
  3 21  1  0
  4  5  1  0
  4 22  1  0
  5  6  1  0
  5 23  1  0
  5 24  1  0
  6  7  2  0
  6 16  1  0
  7  8  1  0
  7 25  1  0
  8  9  1  0
  9 10  1  0
  9 16  2  0
 10 11  1  0
 10 13  1  0
 11 12  1  0
 11 26  1  0
 11 27  1  0
 12 28  1  0
 12 29  1  0
 12 30  1  0
 13 14  1  0
 13 15  2  0
 14 31  1  0
 14 32  1  0
 14 33  1  0
M  END

