
     RDKit          3D

 42 44  0  0  0  0  0  0  0  0999 V2000
    0.7468   -0.0267    0.4766 C   0  0  0  0  0  0  0  0  0  0  0  0
    2.2315    0.2334    0.1655 C   0  0  1  0  0  0  0  0  0  0  0  0
    2.7953   -0.4716    0.8013 H   0  0  0  0  0  0  0  0  0  0  0  0
    2.7001   -0.1289   -1.2790 C   0  0  1  0  0  0  0  0  0  0  0  0
    2.5131   -1.6534   -1.5421 C   0  0  0  0  0  0  0  0  0  0  0  0
    1.1898   -1.7964   -2.2985 C   0  0  2  0  0  0  0  0  0  0  0  0
    1.2115   -1.6599   -3.7967 C   0  0  0  0  0  0  0  0  0  0  0  0
    0.9023   -0.4577   -2.9358 C   0  0  2  0  0  0  0  0  0  0  0  0
    2.0199    0.5457   -2.5427 C   0  0  1  0  0  0  0  0  0  0  0  0
    1.4066    1.9433   -2.3459 C   0  0  0  0  0  0  0  0  0  0  0  0
    3.0938    0.6874   -3.6451 C   0  0  0  0  0  0  0  0  0  0  0  0
    2.6334    1.6300    0.6342 C   0  0  1  0  0  0  0  0  0  0  0  0
    2.9401    1.8948    2.0911 C   0  0  0  0  0  0  0  0  0  0  0  0
    4.0391    2.0191    1.0522 C   0  0  1  0  0  0  0  0  0  0  0  0
    5.1819    1.0177    1.0705 C   0  0  0  0  0  0  0  0  0  0  0  0
    4.4858    3.4314    0.7038 C   0  0  0  0  0  0  0  0  0  0  0  0
    5.4378    3.9516    1.6107 O   0  0  0  0  0  0  0  0  0  0  0  0
    0.4574   -1.0668    0.2666 H   0  0  0  0  0  0  0  0  0  0  0  0
    0.0753    0.6247   -0.1021 H   0  0  0  0  0  0  0  0  0  0  0  0
    0.5479    0.1636    1.5434 H   0  0  0  0  0  0  0  0  0  0  0  0
    3.7738    0.1181   -1.2977 H   0  0  0  0  0  0  0  0  0  0  0  0
    2.5093   -2.2298   -0.6040 H   0  0  0  0  0  0  0  0  0  0  0  0
    3.3514   -2.0500   -2.1391 H   0  0  0  0  0  0  0  0  0  0  0  0
    0.3885   -2.3863   -1.8434 H   0  0  0  0  0  0  0  0  0  0  0  0
    0.3770   -2.0947   -4.3552 H   0  0  0  0  0  0  0  0  0  0  0  0
    2.1706   -1.7260   -4.3178 H   0  0  0  0  0  0  0  0  0  0  0  0
   -0.1207   -0.0698   -2.9718 H   0  0  0  0  0  0  0  0  0  0  0  0
    0.5985    1.9551   -1.6015 H   0  0  0  0  0  0  0  0  0  0  0  0
    0.9754    2.2902   -3.2996 H   0  0  0  0  0  0  0  0  0  0  0  0
    2.1639    2.6822   -2.0446 H   0  0  0  0  0  0  0  0  0  0  0  0
    3.6634   -0.2400   -3.8053 H   0  0  0  0  0  0  0  0  0  0  0  0
    3.8203    1.4704   -3.3731 H   0  0  0  0  0  0  0  0  0  0  0  0
    2.6369    0.9685   -4.6076 H   0  0  0  0  0  0  0  0  0  0  0  0
    2.0770    2.4382    0.1518 H   0  0  0  0  0  0  0  0  0  0  0  0
    2.9811    1.0327    2.7651 H   0  0  0  0  0  0  0  0  0  0  0  0
    2.5348    2.8009    2.5548 H   0  0  0  0  0  0  0  0  0  0  0  0
    4.8669    0.0218    1.4129 H   0  0  0  0  0  0  0  0  0  0  0  0
    5.9735    1.3764    1.7464 H   0  0  0  0  0  0  0  0  0  0  0  0
    5.6323    0.9076    0.0696 H   0  0  0  0  0  0  0  0  0  0  0  0
    3.5970    4.0913    0.6277 H   0  0  0  0  0  0  0  0  0  0  0  0
    4.9763    3.4377   -0.2848 H   0  0  0  0  0  0  0  0  0  0  0  0
    5.0530    3.8988    2.4965 H   0  0  0  0  0  0  0  0  0  0  0  0
  1  2  1  0
  1 18  1  0
  1 19  1  0
  1 20  1  0
  2  3  1  1
  2  4  1  0
  2 12  1  0
  4  5  1  0
  4  9  1  0
  4 21  1  1
  5  6  1  0
  5 22  1  0
  5 23  1  0
  6  7  1  0
  6  8  1  0
  6 24  1  6
  7  8  1  0
  7 25  1  0
  7 26  1  0
  8  9  1  0
  8 27  1  6
  9 10  1  1
  9 11  1  0
 10 28  1  0
 10 29  1  0
 10 30  1  0
 11 31  1  0
 11 32  1  0
 11 33  1  0
 12 13  1  0
 12 14  1  0
 12 34  1  6
 13 14  1  0
 13 35  1  0
 13 36  1  0
 14 15  1  1
 14 16  1  0
 15 37  1  0
 15 38  1  0
 15 39  1  0
 16 17  1  0
 16 40  1  0
 16 41  1  0
 17 42  1  0
M  END

