
     RDKit          3D

 35 35  0  0  0  0  0  0  0  0999 V2000
    5.8760   -1.2976   -0.2817 C   0  0  0  0  0  0  0  0  0  0  0  0
    4.7963   -0.5470   -1.0441 C   0  0  0  0  0  0  0  0  0  0  0  0
    4.8917    0.8701   -0.8186 O   0  0  0  0  0  0  0  0  0  0  0  0
    4.3129    1.3723    0.2842 C   0  0  0  0  0  0  0  0  0  0  0  0
    3.5557    0.7390    0.9906 O   0  0  0  0  0  0  0  0  0  0  0  0
    4.7231    2.7867    0.5327 C   0  0  0  0  0  0  0  0  0  0  0  0
    3.8494    3.7819    0.9231 C   0  0  0  0  0  0  0  0  0  0  0  0
    2.5036    3.8412    0.8856 N   0  0  0  0  0  0  0  0  0  0  0  0
    1.6705    2.8354    0.2433 C   0  0  0  0  0  0  0  0  0  0  0  0
    1.8059    4.9130    1.5786 C   0  0  0  0  0  0  0  0  0  0  0  0
    6.1753    3.0330    0.6078 C   0  0  0  0  0  0  0  0  0  0  0  0
    7.0066    2.1414    0.5950 O   0  0  0  0  0  0  0  0  0  0  0  0
    6.6658    4.4735    0.6807 C   0  0  0  0  0  0  0  0  0  0  0  0
    6.5211    5.3130   -0.4345 C   0  0  0  0  0  0  0  0  0  0  0  0
    7.0674    6.5973   -0.4673 C   0  0  0  0  0  0  0  0  0  0  0  0
    7.7637    7.0610    0.6515 C   0  0  0  0  0  0  0  0  0  0  0  0
    8.5108    8.8144    0.6404 Br  0  0  0  0  0  0  0  0  0  0  0  0
    7.9171    6.2614    1.7855 C   0  0  0  0  0  0  0  0  0  0  0  0
    7.3736    4.9724    1.7869 C   0  0  0  0  0  0  0  0  0  0  0  0
    7.5602    4.0098    3.2335 Cl  0  0  0  0  0  0  0  0  0  0  0  0
    5.8546   -2.3657   -0.5524 H   0  0  0  0  0  0  0  0  0  0  0  0
    5.7175   -1.2131    0.8034 H   0  0  0  0  0  0  0  0  0  0  0  0
    6.8705   -0.8901   -0.5164 H   0  0  0  0  0  0  0  0  0  0  0  0
    3.7916   -0.8924   -0.7577 H   0  0  0  0  0  0  0  0  0  0  0  0
    4.9198   -0.6641   -2.1308 H   0  0  0  0  0  0  0  0  0  0  0  0
    4.3019    4.7026    1.3031 H   0  0  0  0  0  0  0  0  0  0  0  0
    2.1407    2.5080   -0.6957 H   0  0  0  0  0  0  0  0  0  0  0  0
    0.6969    3.2870    0.0042 H   0  0  0  0  0  0  0  0  0  0  0  0
    1.5256    1.9457    0.8755 H   0  0  0  0  0  0  0  0  0  0  0  0
    2.5252    5.6637    1.9331 H   0  0  0  0  0  0  0  0  0  0  0  0
    1.2512    4.5307    2.4542 H   0  0  0  0  0  0  0  0  0  0  0  0
    1.0840    5.4067    0.9063 H   0  0  0  0  0  0  0  0  0  0  0  0
    5.9737    4.9413   -1.3046 H   0  0  0  0  0  0  0  0  0  0  0  0
    6.9544    7.2287   -1.3496 H   0  0  0  0  0  0  0  0  0  0  0  0
    8.4512    6.6260    2.6628 H   0  0  0  0  0  0  0  0  0  0  0  0
  1  2  1  0
  1 21  1  0
  1 22  1  0
  1 23  1  0
  2  3  1  0
  2 24  1  0
  2 25  1  0
  3  4  1  0
  4  5  2  0
  4  6  1  0
  6  7  2  0
  6 11  1  0
  7  8  1  0
  7 26  1  0
  8  9  1  0
  8 10  1  0
  9 27  1  0
  9 28  1  0
  9 29  1  0
 10 30  1  0
 10 31  1  0
 10 32  1  0
 11 12  2  0
 11 13  1  0
 13 14  2  0
 13 19  1  0
 14 15  1  0
 14 33  1  0
 15 16  2  0
 15 34  1  0
 16 17  1  0
 16 18  1  0
 18 19  2  0
 18 35  1  0
 19 20  1  0
M  END

