
     RDKit          3D

 48 48  0  0  0  0  0  0  0  0999 V2000
    5.0781   -0.4247   -1.9450 C   0  0  0  0  0  0  0  0  0  0  0  0
    6.0132    0.1965   -1.2218 C   0  0  0  0  0  0  0  0  0  0  0  0
    6.6389   -0.3595    0.0286 C   0  0  0  0  0  0  0  0  0  0  0  0
    8.0848   -0.5141   -0.1529 N   0  0  0  0  0  0  0  0  0  0  0  0
    9.1138   -0.1976    0.6882 C   0  0  0  0  0  0  0  0  0  0  0  0
   10.2202    0.0846    0.2559 O   0  0  0  0  0  0  0  0  0  0  0  0
    8.9831   -0.3522    2.2283 C   0  0  2  0  0  0  0  0  0  0  0  0
    9.7971   -1.0578    2.4513 H   0  0  0  0  0  0  0  0  0  0  0  0
    7.7093   -0.8698    2.8834 C   0  0  0  0  0  0  0  0  0  0  0  0
    9.4346    0.8593    2.8735 O   0  0  0  0  0  0  0  0  0  0  0  0
    8.8641    2.0223    2.5095 C   0  0  0  0  0  0  0  0  0  0  0  0
    7.9753    2.1057    1.6961 O   0  0  0  0  0  0  0  0  0  0  0  0
    9.5037    3.1996    3.2398 C   0  0  1  0  0  0  0  0  0  0  0  0
    8.8571    4.0681    3.0583 H   0  0  0  0  0  0  0  0  0  0  0  0
    9.4875    2.9510    4.6720 N   0  0  0  0  0  0  0  0  0  0  0  0
    8.8094    3.7493    5.5477 C   0  0  0  0  0  0  0  0  0  0  0  0
    8.1981    4.7471    5.1949 O   0  0  0  0  0  0  0  0  0  0  0  0
    8.8508    3.3626    7.0128 C   0  0  0  0  0  0  0  0  0  0  0  0
    8.1957    4.2326    7.9031 C   0  0  0  0  0  0  0  0  0  0  0  0
    8.1596    3.9890    9.2744 C   0  0  0  0  0  0  0  0  0  0  0  0
    8.7857    2.8514    9.7960 C   0  0  0  0  0  0  0  0  0  0  0  0
    9.4427    1.9661    8.9405 C   0  0  0  0  0  0  0  0  0  0  0  0
    9.4642    2.2333    7.5744 C   0  0  0  0  0  0  0  0  0  0  0  0
   10.1136    1.3409    6.7888 F   0  0  0  0  0  0  0  0  0  0  0  0
   10.9342    3.4896    2.7039 C   0  0  1  0  0  0  0  0  0  0  0  0
   10.9597    3.5673    1.1716 C   0  0  0  0  0  0  0  0  0  0  0  0
   11.4952    4.7634    3.3444 C   0  0  0  0  0  0  0  0  0  0  0  0
    4.6455    0.0364   -2.8370 H   0  0  0  0  0  0  0  0  0  0  0  0
    4.7019   -1.4151   -1.6668 H   0  0  0  0  0  0  0  0  0  0  0  0
    6.3730    1.1878   -1.5249 H   0  0  0  0  0  0  0  0  0  0  0  0
    6.1580   -1.3180    0.2923 H   0  0  0  0  0  0  0  0  0  0  0  0
    6.4670    0.3540    0.8454 H   0  0  0  0  0  0  0  0  0  0  0  0
    8.4007   -0.5062   -1.1205 H   0  0  0  0  0  0  0  0  0  0  0  0
    7.9142   -1.0758    3.9450 H   0  0  0  0  0  0  0  0  0  0  0  0
    7.3908   -1.8119    2.4130 H   0  0  0  0  0  0  0  0  0  0  0  0
    6.8827   -0.1509    2.8300 H   0  0  0  0  0  0  0  0  0  0  0  0
    9.9513    2.1166    5.0108 H   0  0  0  0  0  0  0  0  0  0  0  0
    7.7156    5.1091    7.4645 H   0  0  0  0  0  0  0  0  0  0  0  0
    7.6431    4.6854    9.9386 H   0  0  0  0  0  0  0  0  0  0  0  0
    8.7642    2.6496   10.8697 H   0  0  0  0  0  0  0  0  0  0  0  0
    9.9421    1.0676    9.3078 H   0  0  0  0  0  0  0  0  0  0  0  0
   11.5657    2.6353    3.0095 H   0  0  0  0  0  0  0  0  0  0  0  0
   10.2472    4.3225    0.7991 H   0  0  0  0  0  0  0  0  0  0  0  0
   10.7186    2.6014    0.7028 H   0  0  0  0  0  0  0  0  0  0  0  0
   11.9644    3.8565    0.8250 H   0  0  0  0  0  0  0  0  0  0  0  0
   10.9011    5.6463    3.0561 H   0  0  0  0  0  0  0  0  0  0  0  0
   12.5335    4.9328    3.0177 H   0  0  0  0  0  0  0  0  0  0  0  0
   11.4943    4.7029    4.4430 H   0  0  0  0  0  0  0  0  0  0  0  0
  1  2  2  0
  1 28  1  0
  1 29  1  0
  2  3  1  0
  2 30  1  0
  3  4  1  0
  3 31  1  0
  3 32  1  0
  4  5  1  0
  4 33  1  0
  5  6  2  0
  5  7  1  0
  7  8  1  1
  7  9  1  0
  7 10  1  0
  9 34  1  0
  9 35  1  0
  9 36  1  0
 10 11  1  0
 11 12  2  0
 11 13  1  0
 13 14  1  1
 13 15  1  0
 13 25  1  0
 15 16  1  0
 15 37  1  0
 16 17  2  0
 16 18  1  0
 18 19  2  0
 18 23  1  0
 19 20  1  0
 19 38  1  0
 20 21  2  0
 20 39  1  0
 21 22  1  0
 21 40  1  0
 22 23  2  0
 22 41  1  0
 23 24  1  0
 25 26  1  0
 25 27  1  0
 25 42  1  6
 26 43  1  0
 26 44  1  0
 26 45  1  0
 27 46  1  0
 27 47  1  0
 27 48  1  0
M  END

