
     RDKit          3D

 59 61  0  0  0  0  0  0  0  0999 V2000
    1.2018    0.6338   -0.8032 C   0  0  0  0  0  0  0  0  0  0  0  0
    2.7082    0.5293   -0.9800 C   0  0  1  0  0  0  0  0  0  0  0  0
    3.4093    1.3416   -0.0288 O   0  0  0  0  0  0  0  0  0  0  0  0
    3.5524    2.6792   -0.2102 C   0  0  0  0  0  0  0  0  0  0  0  0
    4.1873    3.3859    0.8243 C   0  0  0  0  0  0  0  0  0  0  0  0
    4.3856    4.7543    0.6793 C   0  0  0  0  0  0  0  0  0  0  0  0
    3.9456    5.3802   -0.4953 C   0  0  0  0  0  0  0  0  0  0  0  0
    3.3387    4.7167   -1.4769 N   0  0  0  0  0  0  0  0  0  0  0  0
    3.1400    3.4024   -1.3443 C   0  0  0  0  0  0  0  0  0  0  0  0
    3.1974   -0.9191   -0.7402 C   0  0  0  0  0  0  0  0  0  0  0  0
    2.4086   -1.7775   -0.3769 O   0  0  0  0  0  0  0  0  0  0  0  0
    4.5240   -1.1818   -0.9602 N   0  0  0  0  0  0  0  0  0  0  0  0
    5.0428   -2.5110   -0.6287 C   0  0  0  0  0  0  0  0  0  0  0  0
    5.8996   -3.0598   -1.7778 C   0  0  0  0  0  0  0  0  0  0  0  0
    6.9576   -2.1419   -2.1954 N   0  0  0  0  0  0  0  0  0  0  0  0
    8.1629   -2.1551   -1.3716 C   0  0  0  0  0  0  0  0  0  0  0  0
    9.1327   -3.2766   -1.8016 C   0  0  1  0  0  0  0  0  0  0  0  0
    9.7777   -3.0039   -3.1640 C   0  0  0  0  0  0  0  0  0  0  0  0
   10.7631   -1.9268   -3.0804 N   0  0  0  0  0  0  0  0  0  0  0  0
   11.3176   -1.5136   -4.3826 C   0  0  1  0  0  0  0  0  0  0  0  0
   10.2103   -1.1277   -5.3723 C   0  0  0  0  0  0  0  0  0  0  0  0
   12.2865   -0.3329   -4.2302 C   0  0  0  0  0  0  0  0  0  0  0  0
   11.7738   -2.2971   -2.0929 C   0  0  0  0  0  0  0  0  0  0  0  0
   11.1264   -2.5530   -0.7366 C   0  0  0  0  0  0  0  0  0  0  0  0
   10.1097   -3.5329   -0.8024 O   0  0  0  0  0  0  0  0  0  0  0  0
    6.3983   -0.8354   -2.5113 C   0  0  0  0  0  0  0  0  0  0  0  0
    5.5474   -0.2281   -1.3813 C   0  0  0  0  0  0  0  0  0  0  0  0
    0.8640    1.6713   -0.9388 H   0  0  0  0  0  0  0  0  0  0  0  0
    0.9176    0.2847    0.1985 H   0  0  0  0  0  0  0  0  0  0  0  0
    0.6905   -0.0043   -1.5378 H   0  0  0  0  0  0  0  0  0  0  0  0
    2.9934    0.8307   -2.0039 H   0  0  0  0  0  0  0  0  0  0  0  0
    4.5086    2.8414    1.7150 H   0  0  0  0  0  0  0  0  0  0  0  0
    4.8757    5.3333    1.4658 H   0  0  0  0  0  0  0  0  0  0  0  0
    4.0904    6.4568   -0.6403 H   0  0  0  0  0  0  0  0  0  0  0  0
    2.6253    2.9072   -2.1733 H   0  0  0  0  0  0  0  0  0  0  0  0
    4.1849   -3.1621   -0.4211 H   0  0  0  0  0  0  0  0  0  0  0  0
    5.6462   -2.4415    0.2966 H   0  0  0  0  0  0  0  0  0  0  0  0
    5.2446   -3.2595   -2.6448 H   0  0  0  0  0  0  0  0  0  0  0  0
    6.3399   -4.0237   -1.4796 H   0  0  0  0  0  0  0  0  0  0  0  0
    7.9620   -2.2888   -0.2891 H   0  0  0  0  0  0  0  0  0  0  0  0
    8.6714   -1.1871   -1.4894 H   0  0  0  0  0  0  0  0  0  0  0  0
    8.5584   -4.2137   -1.8832 H   0  0  0  0  0  0  0  0  0  0  0  0
    8.9664   -2.7331   -3.8506 H   0  0  0  0  0  0  0  0  0  0  0  0
   10.2410   -3.9461   -3.5379 H   0  0  0  0  0  0  0  0  0  0  0  0
   11.8873   -2.3638   -4.8301 H   0  0  0  0  0  0  0  0  0  0  0  0
    9.5659   -0.3438   -4.9411 H   0  0  0  0  0  0  0  0  0  0  0  0
    9.5739   -1.9763   -5.6593 H   0  0  0  0  0  0  0  0  0  0  0  0
   10.6581   -0.7334   -6.2970 H   0  0  0  0  0  0  0  0  0  0  0  0
   11.7899    0.5042   -3.7124 H   0  0  0  0  0  0  0  0  0  0  0  0
   12.6084    0.0177   -5.2225 H   0  0  0  0  0  0  0  0  0  0  0  0
   13.1976   -0.5910   -3.6721 H   0  0  0  0  0  0  0  0  0  0  0  0
   12.5063   -1.4876   -1.9694 H   0  0  0  0  0  0  0  0  0  0  0  0
   12.3351   -3.2081   -2.4096 H   0  0  0  0  0  0  0  0  0  0  0  0
   10.7344   -1.5975   -0.3352 H   0  0  0  0  0  0  0  0  0  0  0  0
   11.8777   -2.9300   -0.0250 H   0  0  0  0  0  0  0  0  0  0  0  0
    5.7550   -0.9397   -3.4049 H   0  0  0  0  0  0  0  0  0  0  0  0
    7.2117   -0.1415   -2.7746 H   0  0  0  0  0  0  0  0  0  0  0  0
    5.0902    0.7043   -1.7307 H   0  0  0  0  0  0  0  0  0  0  0  0
    6.1887    0.0332   -0.5178 H   0  0  0  0  0  0  0  0  0  0  0  0
  1  2  1  0
  1 28  1  0
  1 29  1  0
  1 30  1  0
  2  3  1  0
  2 10  1  0
  2 31  1  6
  3  4  1  0
  4  5  2  0
  4  9  1  0
  5  6  1  0
  5 32  1  0
  6  7  2  0
  6 33  1  0
  7  8  1  0
  7 34  1  0
  8  9  2  0
  9 35  1  0
 10 11  2  0
 10 12  1  0
 12 13  1  0
 12 27  1  0
 13 14  1  0
 13 36  1  0
 13 37  1  0
 14 15  1  0
 14 38  1  0
 14 39  1  0
 15 16  1  0
 15 26  1  0
 16 17  1  0
 16 40  1  0
 16 41  1  0
 17 18  1  0
 17 25  1  0
 17 42  1  6
 18 19  1  0
 18 43  1  0
 18 44  1  0
 19 20  1  0
 19 23  1  0
 20 21  1  0
 20 22  1  0
 20 45  1  6
 21 46  1  0
 21 47  1  0
 21 48  1  0
 22 49  1  0
 22 50  1  0
 22 51  1  0
 23 24  1  0
 23 52  1  0
 23 53  1  0
 24 25  1  0
 24 54  1  0
 24 55  1  0
 26 27  1  0
 26 56  1  0
 26 57  1  0
 27 58  1  0
 27 59  1  0
M  END

