
     RDKit          3D

 77 84  0  0  0  0  0  0  0  0999 V2000
    1.9683    6.5159   -3.9319 C   0  0  0  0  0  0  0  0  0  0  0  0
    2.8259    6.6416   -2.8228 O   0  0  0  0  0  0  0  0  0  0  0  0
    3.5047    5.5457   -2.3865 C   0  0  0  0  0  0  0  0  0  0  0  0
    3.4188    4.2685   -2.9563 C   0  0  0  0  0  0  0  0  0  0  0  0
    4.1738    3.2297   -2.4139 C   0  0  0  0  0  0  0  0  0  0  0  0
    5.0211    3.4058   -1.3053 C   0  0  0  0  0  0  0  0  0  0  0  0
    5.0996    4.6925   -0.7222 C   0  0  0  0  0  0  0  0  0  0  0  0
    4.3420    5.7288   -1.2801 C   0  0  0  0  0  0  0  0  0  0  0  0
    5.9578    5.0152    0.4819 C   0  0  0  0  0  0  0  0  0  0  0  0
    6.3457    3.8146    1.3444 C   0  0  0  0  0  0  0  0  0  0  0  0
    7.3355    2.9380    0.7280 N   0  0  0  0  0  0  0  0  0  0  0  0
    8.7009    2.7408    1.2607 C   0  0  1  0  0  0  0  0  0  0  0  0
    9.4009    4.0254    1.7559 C   0  0  0  0  0  0  0  0  0  0  0  0
    9.1757    4.3982    3.2303 C   0  0  0  0  0  0  0  0  0  0  0  0
    9.3587    3.2424    4.1021 N   0  0  0  0  0  0  0  0  0  0  0  0
    9.4356    3.5463    5.5014 C   0  0  2  0  0  0  0  0  0  0  0  0
    8.3239    4.2757    6.1518 C   0  0  0  0  0  0  0  0  0  0  0  0
    8.5433    5.0972    7.2097 C   0  0  0  0  0  0  0  0  0  0  0  0
    7.4723    5.5793    7.9129 O   0  0  0  0  0  0  0  0  0  0  0  0
    7.4214    6.9023    8.3093 C   0  0  0  0  0  0  0  0  0  0  0  0
    7.8377    7.9433    7.4505 C   0  0  0  0  0  0  0  0  0  0  0  0
    7.7184    9.2871    7.8093 C   0  0  0  0  0  0  0  0  0  0  0  0
    8.1612   10.4101    6.9117 C   0  0  0  0  0  0  0  0  0  0  0  0
    7.1509    9.5622    9.0708 C   0  0  0  0  0  0  0  0  0  0  0  0
    6.9090   10.7815    9.6809 N   0  0  0  0  0  0  0  0  0  0  0  0
    6.3689   10.4963   10.8408 C   0  0  0  0  0  0  0  0  0  0  0  0
    5.9364   11.4791   11.8568 C   0  0  1  0  0  0  0  0  0  0  0  0
    6.7306   12.7618   12.0238 C   0  0  0  0  0  0  0  0  0  0  0  0
    5.3726   12.8114   11.3978 C   0  0  0  0  0  0  0  0  0  0  0  0
    6.2356    9.1351   11.0374 N   0  0  0  0  0  0  0  0  0  0  0  0
    5.8498    8.6880   11.8587 H   0  0  0  0  0  0  0  0  0  0  0  0
    6.7325    8.5027    9.9124 C   0  0  0  0  0  0  0  0  0  0  0  0
    6.8592    7.1560    9.5585 C   0  0  0  0  0  0  0  0  0  0  0  0
    9.7865    5.5259    7.6296 N   0  0  0  0  0  0  0  0  0  0  0  0
   10.8362    5.0629    7.0427 C   0  0  0  0  0  0  0  0  0  0  0  0
   10.8489    3.9736    6.0613 C   0  0  1  0  0  0  0  0  0  0  0  0
   11.6845    3.9632    5.3554 H   0  0  0  0  0  0  0  0  0  0  0  0
   10.2473    2.6174    6.3510 C   0  0  0  0  0  0  0  0  0  0  0  0
    8.4901    2.1189    3.7491 C   0  0  0  0  0  0  0  0  0  0  0  0
    8.8017    1.6348    2.3335 C   0  0  0  0  0  0  0  0  0  0  0  0
    6.9512    2.0515   -0.2486 C   0  0  0  0  0  0  0  0  0  0  0  0
    7.6198    1.0784   -0.5736 O   0  0  0  0  0  0  0  0  0  0  0  0
    5.7019    2.2509   -0.8514 N   0  0  0  0  0  0  0  0  0  0  0  0
    1.5332    7.5092   -4.1080 H   0  0  0  0  0  0  0  0  0  0  0  0
    1.1493    5.7975   -3.7429 H   0  0  0  0  0  0  0  0  0  0  0  0
    2.5115    6.1993   -4.8415 H   0  0  0  0  0  0  0  0  0  0  0  0
    2.7792    4.0671   -3.8156 H   0  0  0  0  0  0  0  0  0  0  0  0
    4.1053    2.2374   -2.8697 H   0  0  0  0  0  0  0  0  0  0  0  0
    4.3890    6.7286   -0.8414 H   0  0  0  0  0  0  0  0  0  0  0  0
    5.4131    5.7398    1.1106 H   0  0  0  0  0  0  0  0  0  0  0  0
    6.8826    5.5267    0.1596 H   0  0  0  0  0  0  0  0  0  0  0  0
    5.4423    3.2340    1.6013 H   0  0  0  0  0  0  0  0  0  0  0  0
    6.7556    4.1816    2.2889 H   0  0  0  0  0  0  0  0  0  0  0  0
    9.2620    2.3761    0.3913 H   0  0  0  0  0  0  0  0  0  0  0  0
    9.1463    4.8798    1.1084 H   0  0  0  0  0  0  0  0  0  0  0  0
   10.4817    3.8500    1.6294 H   0  0  0  0  0  0  0  0  0  0  0  0
    8.1797    4.8681    3.3770 H   0  0  0  0  0  0  0  0  0  0  0  0
    9.9096    5.1679    3.5190 H   0  0  0  0  0  0  0  0  0  0  0  0
    7.3050    4.1415    5.7835 H   0  0  0  0  0  0  0  0  0  0  0  0
    8.2632    7.6824    6.4796 H   0  0  0  0  0  0  0  0  0  0  0  0
    8.5542   10.0340    5.9558 H   0  0  0  0  0  0  0  0  0  0  0  0
    8.9455   11.0146    7.3966 H   0  0  0  0  0  0  0  0  0  0  0  0
    7.3271   11.0995    6.7016 H   0  0  0  0  0  0  0  0  0  0  0  0
    5.5035   11.0414   12.7614 H   0  0  0  0  0  0  0  0  0  0  0  0
    7.5954   12.8743   11.3649 H   0  0  0  0  0  0  0  0  0  0  0  0
    6.8595   13.1488   13.0386 H   0  0  0  0  0  0  0  0  0  0  0  0
    5.3199   12.9575   10.3159 H   0  0  0  0  0  0  0  0  0  0  0  0
    4.5417   13.2335   11.9702 H   0  0  0  0  0  0  0  0  0  0  0  0
    6.5469    6.3284   10.1967 H   0  0  0  0  0  0  0  0  0  0  0  0
   11.7934    5.5594    7.2619 H   0  0  0  0  0  0  0  0  0  0  0  0
    9.8922    2.4056    7.3628 H   0  0  0  0  0  0  0  0  0  0  0  0
   10.7415    1.7900    5.8369 H   0  0  0  0  0  0  0  0  0  0  0  0
    7.4122    2.3832    3.8407 H   0  0  0  0  0  0  0  0  0  0  0  0
    8.6684    1.3038    4.4674 H   0  0  0  0  0  0  0  0  0  0  0  0
    8.1563    0.7919    2.0469 H   0  0  0  0  0  0  0  0  0  0  0  0
    9.8392    1.2596    2.3289 H   0  0  0  0  0  0  0  0  0  0  0  0
    5.5152    1.4391   -1.4317 H   0  0  0  0  0  0  0  0  0  0  0  0
  1  2  1  0
  1 44  1  0
  1 45  1  0
  1 46  1  0
  2  3  1  0
  3  4  2  0
  3  8  1  0
  4  5  1  0
  4 47  1  0
  5  6  2  0
  5 48  1  0
  6  7  1  0
  6 43  1  0
  7  8  2  0
  7  9  1  0
  8 49  1  0
  9 10  1  0
  9 50  1  0
  9 51  1  0
 10 11  1  0
 10 52  1  0
 10 53  1  0
 11 12  1  0
 11 41  1  0
 12 13  1  0
 12 40  1  0
 12 54  1  6
 13 14  1  0
 13 55  1  0
 13 56  1  0
 14 15  1  0
 14 57  1  0
 14 58  1  0
 16 15  1  6
 15 39  1  0
 16 17  1  0
 16 36  1  0
 16 38  1  0
 17 18  2  0
 17 59  1  0
 18 19  1  0
 18 34  1  0
 19 20  1  0
 20 21  2  0
 20 33  1  0
 21 22  1  0
 21 60  1  0
 22 23  1  0
 22 24  2  0
 23 61  1  0
 23 62  1  0
 23 63  1  0
 24 25  1  0
 24 32  1  0
 25 26  2  0
 26 27  1  0
 26 30  1  0
 27 28  1  0
 27 29  1  0
 27 64  1  1
 28 29  1  0
 28 65  1  0
 28 66  1  0
 29 67  1  0
 29 68  1  0
 30 31  1  0
 30 32  1  0
 32 33  2  0
 33 69  1  0
 34 35  2  0
 35 36  1  0
 35 70  1  0
 36 37  1  6
 36 38  1  0
 38 71  1  0
 38 72  1  0
 39 40  1  0
 39 73  1  0
 39 74  1  0
 40 75  1  0
 40 76  1  0
 41 42  2  0
 41 43  1  0
 43 77  1  0
M  END

