
     RDKit          3D

 59 60  0  0  0  0  0  0  0  0999 V2000
    3.4360   -3.0222   -0.8590 C   0  0  0  0  0  0  0  0  0  0  0  0
    2.5943   -2.9947   -2.1451 C   0  0  1  0  0  0  0  0  0  0  0  0
    1.1042   -3.1530   -1.8102 C   0  0  0  0  0  0  0  0  0  0  0  0
    2.8820   -1.7706   -3.0665 C   0  0  1  0  0  0  0  0  0  0  0  0
    2.4370   -0.4293   -2.4171 C   0  0  0  0  0  0  0  0  0  0  0  0
    1.0678   -0.0263   -2.7484 N   0  0  0  0  0  0  0  0  0  0  0  0
    0.3578    0.7039   -1.7078 C   0  0  0  0  0  0  0  0  0  0  0  0
    0.6970    2.2020   -1.6126 C   0  0  2  0  0  0  0  0  0  0  0  0
   -0.1917    2.9011   -0.5776 C   0  0  0  0  0  0  0  0  0  0  0  0
    0.0417    4.4137   -0.5457 C   0  0  0  0  0  0  0  0  0  0  0  0
   -0.0955    4.9954   -1.9550 C   0  0  0  0  0  0  0  0  0  0  0  0
    0.8076    4.2488   -2.9358 C   0  0  0  0  0  0  0  0  0  0  0  0
    0.5414    2.8160   -2.9354 N   0  0  0  0  0  0  0  0  0  0  0  0
    1.3150    2.1149   -3.9533 C   0  0  0  0  0  0  0  0  0  0  0  0
    0.9136    0.6293   -4.0590 C   0  0  2  0  0  0  0  0  0  0  0  0
   -0.5043    0.4351   -4.6680 C   0  0  1  0  0  0  0  0  0  0  0  0
   -0.5486    0.8847   -6.1364 C   0  0  0  0  0  0  0  0  0  0  0  0
   -0.9889   -1.0138   -4.5490 C   0  0  0  0  0  0  0  0  0  0  0  0
    4.3561   -1.7015   -3.5718 C   0  0  1  0  0  0  0  0  0  0  0  0
    4.9195   -3.0581   -4.0244 C   0  0  0  0  0  0  0  0  0  0  0  0
    4.5137   -0.6999   -4.7286 C   0  0  0  0  0  0  0  0  0  0  0  0
    3.2489   -3.9523   -0.2980 H   0  0  0  0  0  0  0  0  0  0  0  0
    3.1847   -2.1873   -0.1836 H   0  0  0  0  0  0  0  0  0  0  0  0
    4.5175   -2.9713   -1.0588 H   0  0  0  0  0  0  0  0  0  0  0  0
    2.8706   -3.8900   -2.7271 H   0  0  0  0  0  0  0  0  0  0  0  0
    0.7293   -2.3279   -1.1851 H   0  0  0  0  0  0  0  0  0  0  0  0
    0.9353   -4.0916   -1.2563 H   0  0  0  0  0  0  0  0  0  0  0  0
    0.4852   -3.1795   -2.7196 H   0  0  0  0  0  0  0  0  0  0  0  0
    2.2539   -1.9164   -3.9642 H   0  0  0  0  0  0  0  0  0  0  0  0
    3.1726    0.3622   -2.6613 H   0  0  0  0  0  0  0  0  0  0  0  0
    2.4914   -0.5276   -1.3221 H   0  0  0  0  0  0  0  0  0  0  0  0
    0.5536    0.2250   -0.7349 H   0  0  0  0  0  0  0  0  0  0  0  0
   -0.7283    0.6176   -1.8895 H   0  0  0  0  0  0  0  0  0  0  0  0
    1.7599    2.3025   -1.2764 H   0  0  0  0  0  0  0  0  0  0  0  0
   -0.0077    2.4561    0.4152 H   0  0  0  0  0  0  0  0  0  0  0  0
   -1.2474    2.6977   -0.8314 H   0  0  0  0  0  0  0  0  0  0  0  0
    1.0577    4.6209   -0.1621 H   0  0  0  0  0  0  0  0  0  0  0  0
   -0.6616    4.9004    0.1506 H   0  0  0  0  0  0  0  0  0  0  0  0
    0.1563    6.0690   -1.9650 H   0  0  0  0  0  0  0  0  0  0  0  0
   -1.1420    4.9028   -2.2942 H   0  0  0  0  0  0  0  0  0  0  0  0
    1.8759    4.4581   -2.6810 H   0  0  0  0  0  0  0  0  0  0  0  0
    0.6533    4.6280   -3.9599 H   0  0  0  0  0  0  0  0  0  0  0  0
    2.4074    2.1799   -3.7360 H   0  0  0  0  0  0  0  0  0  0  0  0
    1.1687    2.6255   -4.9170 H   0  0  0  0  0  0  0  0  0  0  0  0
    1.6243    0.1429   -4.7479 H   0  0  0  0  0  0  0  0  0  0  0  0
   -1.1982    1.0829   -4.1056 H   0  0  0  0  0  0  0  0  0  0  0  0
    0.1556    0.2992   -6.7535 H   0  0  0  0  0  0  0  0  0  0  0  0
   -0.3014    1.9494   -6.2646 H   0  0  0  0  0  0  0  0  0  0  0  0
   -1.5559    0.7347   -6.5569 H   0  0  0  0  0  0  0  0  0  0  0  0
   -0.3158   -1.7015   -5.0904 H   0  0  0  0  0  0  0  0  0  0  0  0
   -1.9949   -1.1232   -4.9863 H   0  0  0  0  0  0  0  0  0  0  0  0
   -1.0258   -1.3476   -3.5037 H   0  0  0  0  0  0  0  0  0  0  0  0
    4.9844   -1.3418   -2.7343 H   0  0  0  0  0  0  0  0  0  0  0  0
    4.2870   -3.5065   -4.8102 H   0  0  0  0  0  0  0  0  0  0  0  0
    5.0015   -3.7868   -3.2055 H   0  0  0  0  0  0  0  0  0  0  0  0
    5.9285   -2.9318   -4.4494 H   0  0  0  0  0  0  0  0  0  0  0  0
    3.9462   -1.0346   -5.6142 H   0  0  0  0  0  0  0  0  0  0  0  0
    5.5703   -0.6126   -5.0293 H   0  0  0  0  0  0  0  0  0  0  0  0
    4.1647    0.3111   -4.4718 H   0  0  0  0  0  0  0  0  0  0  0  0
  1  2  1  0
  1 22  1  0
  1 23  1  0
  1 24  1  0
  2  3  1  0
  2  4  1  0
  2 25  1  6
  3 26  1  0
  3 27  1  0
  3 28  1  0
  4  5  1  0
  4 19  1  0
  4 29  1  6
  5  6  1  0
  5 30  1  0
  5 31  1  0
  6  7  1  0
  6 15  1  0
  7  8  1  0
  7 32  1  0
  7 33  1  0
  8  9  1  0
  8 13  1  0
  8 34  1  1
  9 10  1  0
  9 35  1  0
  9 36  1  0
 10 11  1  0
 10 37  1  0
 10 38  1  0
 11 12  1  0
 11 39  1  0
 11 40  1  0
 12 13  1  0
 12 41  1  0
 12 42  1  0
 13 14  1  0
 14 15  1  0
 14 43  1  0
 14 44  1  0
 15 16  1  0
 15 45  1  6
 16 17  1  0
 16 18  1  0
 16 46  1  1
 17 47  1  0
 17 48  1  0
 17 49  1  0
 18 50  1  0
 18 51  1  0
 18 52  1  0
 19 20  1  0
 19 21  1  0
 19 53  1  1
 20 54  1  0
 20 55  1  0
 20 56  1  0
 21 57  1  0
 21 58  1  0
 21 59  1  0
M  END

