
     RDKit          3D

 36 37  0  0  0  0  0  0  0  0999 V2000
    4.9565    1.7467   -2.7570 C   0  0  0  0  0  0  0  0  0  0  0  0
    4.6146    0.9173   -1.5191 C   0  0  0  0  0  0  0  0  0  0  0  0
    5.2061   -0.4948   -1.5501 C   0  0  0  0  0  0  0  0  0  0  0  0
    4.8491   -1.3313   -0.3192 C   0  0  0  0  0  0  0  0  0  0  0  0
    5.4739   -2.7430   -0.3079 C   0  0  0  0  0  0  0  0  0  0  0  0
    6.9633   -2.7596   -0.1505 C   0  0  0  0  0  0  0  0  0  0  0  0
    7.8572   -2.7147   -1.1241 N   0  0  0  0  0  0  0  0  0  0  0  0
    9.0576   -2.7158   -0.4724 C   0  0  0  0  0  0  0  0  0  0  0  0
   10.3565   -2.6738   -1.1657 C   0  0  0  0  0  0  0  0  0  0  0  0
   10.4015   -2.6345   -2.5694 C   0  0  0  0  0  0  0  0  0  0  0  0
   11.6285   -2.5952   -3.2343 C   0  0  0  0  0  0  0  0  0  0  0  0
   12.8239   -2.5946   -2.5084 C   0  0  0  0  0  0  0  0  0  0  0  0
   12.7849   -2.6338   -1.1099 C   0  0  0  0  0  0  0  0  0  0  0  0
   11.5614   -2.6733   -0.4410 C   0  0  0  0  0  0  0  0  0  0  0  0
    8.9442   -2.7676    0.8510 N   0  0  0  0  0  0  0  0  0  0  0  0
    7.6096   -2.7888    1.0490 N   0  0  0  0  0  0  0  0  0  0  0  0
    7.0651   -2.8610    2.3900 C   0  0  0  0  0  0  0  0  0  0  0  0
    4.5198    2.7566   -2.7012 H   0  0  0  0  0  0  0  0  0  0  0  0
    4.5768    1.2698   -3.6761 H   0  0  0  0  0  0  0  0  0  0  0  0
    6.0471    1.8603   -2.8734 H   0  0  0  0  0  0  0  0  0  0  0  0
    3.5162    0.8526   -1.4094 H   0  0  0  0  0  0  0  0  0  0  0  0
    4.9737    1.4414   -0.6142 H   0  0  0  0  0  0  0  0  0  0  0  0
    6.3033   -0.4365   -1.6539 H   0  0  0  0  0  0  0  0  0  0  0  0
    4.8539   -1.0211   -2.4567 H   0  0  0  0  0  0  0  0  0  0  0  0
    3.7521   -1.4425   -0.2562 H   0  0  0  0  0  0  0  0  0  0  0  0
    5.1489   -0.7894    0.5967 H   0  0  0  0  0  0  0  0  0  0  0  0
    5.2413   -3.2537   -1.2551 H   0  0  0  0  0  0  0  0  0  0  0  0
    5.0141   -3.3379    0.4980 H   0  0  0  0  0  0  0  0  0  0  0  0
    9.4608   -2.6360   -3.1229 H   0  0  0  0  0  0  0  0  0  0  0  0
   11.6522   -2.5649   -4.3269 H   0  0  0  0  0  0  0  0  0  0  0  0
   13.7838   -2.5640   -3.0302 H   0  0  0  0  0  0  0  0  0  0  0  0
   13.7161   -2.6336   -0.5371 H   0  0  0  0  0  0  0  0  0  0  0  0
   11.5222   -2.7039    0.6495 H   0  0  0  0  0  0  0  0  0  0  0  0
    7.9120   -2.8594    3.0859 H   0  0  0  0  0  0  0  0  0  0  0  0
    6.4835   -3.7853    2.5329 H   0  0  0  0  0  0  0  0  0  0  0  0
    6.4193   -1.9957    2.6043 H   0  0  0  0  0  0  0  0  0  0  0  0
  1  2  1  0
  1 18  1  0
  1 19  1  0
  1 20  1  0
  2  3  1  0
  2 21  1  0
  2 22  1  0
  3  4  1  0
  3 23  1  0
  3 24  1  0
  4  5  1  0
  4 25  1  0
  4 26  1  0
  5  6  1  0
  5 27  1  0
  5 28  1  0
  6  7  2  0
  6 16  1  0
  7  8  1  0
  8  9  1  0
  8 15  2  0
  9 10  2  0
  9 14  1  0
 10 11  1  0
 10 29  1  0
 11 12  2  0
 11 30  1  0
 12 13  1  0
 12 31  1  0
 13 14  2  0
 13 32  1  0
 14 33  1  0
 15 16  1  0
 16 17  1  0
 17 34  1  0
 17 35  1  0
 17 36  1  0
M  END

