
     RDKit          3D

 39 39  0  0  0  0  0  0  0  0999 V2000
    1.1118   -0.3355   -0.9537 C   0  0  0  0  0  0  0  0  0  0  0  0
    1.8936    0.5419    0.0358 C   0  0  0  0  0  0  0  0  0  0  0  0
    2.8542    1.4744   -0.6422 C   0  0  0  0  0  0  0  0  0  0  0  0
    4.1768    1.5874   -0.4190 C   0  0  0  0  0  0  0  0  0  0  0  0
    4.9241    0.8090    0.6483 C   0  0  0  0  0  0  0  0  0  0  0  0
    4.9075    2.6522   -1.2086 C   0  0  0  0  0  0  0  0  0  0  0  0
    4.4286    3.7716   -1.3485 O   0  0  0  0  0  0  0  0  0  0  0  0
    6.1410    2.3269   -1.7339 N   0  0  0  0  0  0  0  0  0  0  0  0
    6.6069    0.9707   -1.9554 C   0  0  0  0  0  0  0  0  0  0  0  0
    6.9581    3.3972   -2.3094 C   0  0  0  0  0  0  0  0  0  0  0  0
    6.8905    3.4968   -3.8246 C   0  0  0  0  0  0  0  0  0  0  0  0
    5.7037    3.9017   -4.4510 C   0  0  0  0  0  0  0  0  0  0  0  0
    5.6519    3.9858   -5.8465 C   0  0  0  0  0  0  0  0  0  0  0  0
    6.7653    3.6760   -6.6247 C   0  0  0  0  0  0  0  0  0  0  0  0
    7.9593    3.2738   -6.0049 C   0  0  0  0  0  0  0  0  0  0  0  0
    8.9999    2.9922   -6.8337 O   0  0  0  0  0  0  0  0  0  0  0  0
   10.2346    2.5975   -6.2848 C   0  0  0  0  0  0  0  0  0  0  0  0
    8.0162    3.1839   -4.6047 C   0  0  0  0  0  0  0  0  0  0  0  0
    0.3829   -0.9729   -0.4286 H   0  0  0  0  0  0  0  0  0  0  0  0
    1.7873   -0.9925   -1.5252 H   0  0  0  0  0  0  0  0  0  0  0  0
    0.5565    0.2801   -1.6803 H   0  0  0  0  0  0  0  0  0  0  0  0
    2.4122   -0.0951    0.7694 H   0  0  0  0  0  0  0  0  0  0  0  0
    1.1704    1.1499    0.6129 H   0  0  0  0  0  0  0  0  0  0  0  0
    2.4216    2.1376   -1.4008 H   0  0  0  0  0  0  0  0  0  0  0  0
    4.4051    0.8801    1.6172 H   0  0  0  0  0  0  0  0  0  0  0  0
    5.9389    1.2053    0.7949 H   0  0  0  0  0  0  0  0  0  0  0  0
    5.0213   -0.2640    0.4114 H   0  0  0  0  0  0  0  0  0  0  0  0
    5.7995    0.2492   -1.7849 H   0  0  0  0  0  0  0  0  0  0  0  0
    7.4606    0.7093   -1.3031 H   0  0  0  0  0  0  0  0  0  0  0  0
    6.9321    0.8555   -3.0030 H   0  0  0  0  0  0  0  0  0  0  0  0
    8.0038    3.2344   -1.9958 H   0  0  0  0  0  0  0  0  0  0  0  0
    6.6055    4.3360   -1.8623 H   0  0  0  0  0  0  0  0  0  0  0  0
    4.8366    4.1552   -3.8376 H   0  0  0  0  0  0  0  0  0  0  0  0
    4.7283    4.3054   -6.3367 H   0  0  0  0  0  0  0  0  0  0  0  0
    6.7411    3.7401   -7.7144 H   0  0  0  0  0  0  0  0  0  0  0  0
   10.9164    2.4335   -7.1304 H   0  0  0  0  0  0  0  0  0  0  0  0
   10.1506    1.6574   -5.7089 H   0  0  0  0  0  0  0  0  0  0  0  0
   10.6635    3.3760   -5.6275 H   0  0  0  0  0  0  0  0  0  0  0  0
    8.9366    2.8779   -4.1048 H   0  0  0  0  0  0  0  0  0  0  0  0
  1  2  1  0
  1 19  1  0
  1 20  1  0
  1 21  1  0
  2  3  1  0
  2 22  1  0
  2 23  1  0
  3  4  2  0
  3 24  1  0
  4  5  1  0
  4  6  1  0
  5 25  1  0
  5 26  1  0
  5 27  1  0
  6  7  2  0
  6  8  1  0
  8  9  1  0
  8 10  1  0
  9 28  1  0
  9 29  1  0
  9 30  1  0
 10 11  1  0
 10 31  1  0
 10 32  1  0
 11 12  2  0
 11 18  1  0
 12 13  1  0
 12 33  1  0
 13 14  2  0
 13 34  1  0
 14 15  1  0
 14 35  1  0
 15 16  1  0
 15 18  2  0
 16 17  1  0
 17 36  1  0
 17 37  1  0
 17 38  1  0
 18 39  1  0
M  END

