
     RDKit          3D

 56 61  0  0  0  0  0  0  0  0999 V2000
   11.3635    0.8609   13.6521 O   0  0  0  0  0  0  0  0  0  0  0  0
   11.3881    2.0519   13.8614 C   0  0  0  0  0  0  0  0  0  0  0  0
   12.3014    2.7293   14.6630 N   0  0  0  0  0  0  0  0  0  0  0  0
   13.3636    2.2135   15.3760 C   0  0  0  0  0  0  0  0  0  0  0  0
   13.7654    0.9722   15.4302 N   0  0  0  0  0  0  0  0  0  0  0  0
   14.8578    0.9876   16.2751 C   0  0  0  0  0  0  0  0  0  0  0  0
   15.6927   -0.0566   16.6949 C   0  0  0  0  0  0  0  0  0  0  0  0
   16.7462    0.2404   17.5565 C   0  0  0  0  0  0  0  0  0  0  0  0
   16.9979    1.5560   18.0232 C   0  0  0  0  0  0  0  0  0  0  0  0
   18.1344    1.8244   18.9437 C   0  0  0  0  0  0  0  0  0  0  0  0
   18.0247    2.7893   19.9626 C   0  0  0  0  0  0  0  0  0  0  0  0
   19.1038    3.0270   20.8069 C   0  0  0  0  0  0  0  0  0  0  0  0
   18.9760    3.9449   21.7766 F   0  0  0  0  0  0  0  0  0  0  0  0
   20.3102    2.3405   20.6948 C   0  0  0  0  0  0  0  0  0  0  0  0
   20.4088    1.3835   19.6816 C   0  0  0  0  0  0  0  0  0  0  0  0
   21.9081    0.5028   19.4915 Cl  0  0  0  0  0  0  0  0  0  0  0  0
   19.3481    1.1214   18.8132 C   0  0  0  0  0  0  0  0  0  0  0  0
   16.1611    2.6089   17.6080 C   0  0  0  0  0  0  0  0  0  0  0  0
   15.1126    2.3038   16.7445 C   0  0  0  0  0  0  0  0  0  0  0  0
   14.1321    3.0773   16.1432 N   0  0  0  0  0  0  0  0  0  0  0  0
   13.9971    4.0738   16.2557 H   0  0  0  0  0  0  0  0  0  0  0  0
   10.4044    3.0026   13.2678 C   0  0  0  0  0  0  0  0  0  0  0  0
    9.3573    2.6637   12.4185 C   0  0  0  0  0  0  0  0  0  0  0  0
    8.7381    3.8461   12.1375 N   0  0  0  0  0  0  0  0  0  0  0  0
    7.6619    4.0166   11.3453 N   0  0  0  0  0  0  0  0  0  0  0  0
    7.2433    5.2513   11.2260 C   0  0  0  0  0  0  0  0  0  0  0  0
    6.1816    5.5126   10.4583 O   0  0  0  0  0  0  0  0  0  0  0  0
    5.5153    4.4210    9.8124 C   0  0  0  0  0  0  0  0  0  0  0  0
    4.3159    4.9524    9.0466 C   0  0  2  0  0  0  0  0  0  0  0  0
    3.9316    4.0991    8.4539 H   0  0  0  0  0  0  0  0  0  0  0  0
    4.5974    6.1676    8.1264 C   0  0  0  0  0  0  0  0  0  0  0  0
    3.9874    7.3421    8.9054 C   0  0  0  0  0  0  0  0  0  0  0  0
    2.8289    6.6555    9.6282 C   0  0  0  0  0  0  0  0  0  0  0  0
    3.3194    5.3702    9.9761 O   0  0  0  0  0  0  0  0  0  0  0  0
    7.8528    6.3849   11.8714 C   0  0  0  0  0  0  0  0  0  0  0  0
    8.9448    6.1810   12.6687 C   0  0  0  0  0  0  0  0  0  0  0  0
    9.4277    4.8561   12.8232 C   0  0  0  0  0  0  0  0  0  0  0  0
   10.4404    4.3438   13.5102 N   0  0  0  0  0  0  0  0  0  0  0  0
   12.1330    3.7335   14.6999 H   0  0  0  0  0  0  0  0  0  0  0  0
   15.5069   -1.0767   16.3537 H   0  0  0  0  0  0  0  0  0  0  0  0
   17.3846   -0.5727   17.9080 H   0  0  0  0  0  0  0  0  0  0  0  0
   17.0979    3.3394   20.1293 H   0  0  0  0  0  0  0  0  0  0  0  0
   21.1350    2.5490   21.3757 H   0  0  0  0  0  0  0  0  0  0  0  0
   19.4794    0.3869   18.0190 H   0  0  0  0  0  0  0  0  0  0  0  0
   16.3517    3.6343   17.9314 H   0  0  0  0  0  0  0  0  0  0  0  0
    9.0242    1.7132   12.0140 H   0  0  0  0  0  0  0  0  0  0  0  0
    5.1861    3.6925   10.5698 H   0  0  0  0  0  0  0  0  0  0  0  0
    6.2199    3.9091    9.1356 H   0  0  0  0  0  0  0  0  0  0  0  0
    4.0818    6.0346    7.1624 H   0  0  0  0  0  0  0  0  0  0  0  0
    5.6689    6.2981    7.9168 H   0  0  0  0  0  0  0  0  0  0  0  0
    3.6649    8.1730    8.2600 H   0  0  0  0  0  0  0  0  0  0  0  0
    4.7106    7.7294    9.6391 H   0  0  0  0  0  0  0  0  0  0  0  0
    1.9428    6.5715    8.9650 H   0  0  0  0  0  0  0  0  0  0  0  0
    2.5127    7.1661   10.5513 H   0  0  0  0  0  0  0  0  0  0  0  0
    7.4212    7.3719   11.7045 H   0  0  0  0  0  0  0  0  0  0  0  0
    9.4538    6.9945   13.1874 H   0  0  0  0  0  0  0  0  0  0  0  0
  1  2  2  0
  2  3  1  0
  2 22  1  0
  3  4  1  0
  3 39  1  0
  4  5  2  0
  4 20  1  0
  5  6  1  0
  6  7  2  0
  6 19  1  0
  7  8  1  0
  7 40  1  0
  8  9  2  0
  8 41  1  0
  9 10  1  0
  9 18  1  0
 10 11  2  0
 10 17  1  0
 11 12  1  0
 11 42  1  0
 12 13  1  0
 12 14  2  0
 14 15  1  0
 14 43  1  0
 15 16  1  0
 15 17  2  0
 17 44  1  0
 18 19  2  0
 18 45  1  0
 19 20  1  0
 20 21  1  0
 22 23  2  0
 22 38  1  0
 23 24  1  0
 23 46  1  0
 24 25  1  0
 24 37  1  0
 25 26  2  0
 26 27  1  0
 26 35  1  0
 27 28  1  0
 28 29  1  0
 28 47  1  0
 28 48  1  0
 29 30  1  6
 29 31  1  0
 29 34  1  0
 31 32  1  0
 31 49  1  0
 31 50  1  0
 32 33  1  0
 32 51  1  0
 32 52  1  0
 33 34  1  0
 33 53  1  0
 33 54  1  0
 35 36  2  0
 35 55  1  0
 36 37  1  0
 36 56  1  0
 37 38  2  0
M  END

