
     RDKit          3D

 30 32  0  0  0  0  0  0  0  0999 V2000
    1.9037   -0.8940    1.1796 C   0  0  0  0  0  0  0  0  0  0  0  0
    2.6791    0.0838   -0.1422 S   0  0  0  0  0  0  0  0  0  0  0  0
    3.1157   -1.2200   -1.2666 C   0  0  0  0  0  0  0  0  0  0  0  0
    2.8448   -2.4486   -0.9843 N   0  0  0  0  0  0  0  0  0  0  0  0
    3.2088   -3.4344   -1.8778 C   0  0  0  0  0  0  0  0  0  0  0  0
    2.9131   -4.7845   -1.5875 C   0  0  0  0  0  0  0  0  0  0  0  0
    3.2727   -5.7919   -2.4705 C   0  0  0  0  0  0  0  0  0  0  0  0
    3.9401   -5.4725   -3.6695 C   0  0  0  0  0  0  0  0  0  0  0  0
    4.4247   -6.8735   -4.8675 Br  0  0  0  0  0  0  0  0  0  0  0  0
    4.2451   -4.1556   -3.9829 C   0  0  0  0  0  0  0  0  0  0  0  0
    3.8790   -3.1359   -3.0872 C   0  0  0  0  0  0  0  0  0  0  0  0
    4.1981   -1.7378   -3.4134 C   0  0  0  0  0  0  0  0  0  0  0  0
    4.7753   -1.3575   -4.4108 O   0  0  0  0  0  0  0  0  0  0  0  0
    3.7604   -0.8061   -2.4290 N   0  0  0  0  0  0  0  0  0  0  0  0
    4.0128    0.5858   -2.6903 C   0  0  0  0  0  0  0  0  0  0  0  0
    5.2460    1.1627   -2.3805 C   0  0  0  0  0  0  0  0  0  0  0  0
    5.4326    2.5131   -2.6722 C   0  0  0  0  0  0  0  0  0  0  0  0
    4.3797    3.2203   -3.2623 C   0  0  0  0  0  0  0  0  0  0  0  0
    3.2020    2.6689   -3.5652 N   0  0  0  0  0  0  0  0  0  0  0  0
    3.0254    1.3786   -3.2892 C   0  0  0  0  0  0  0  0  0  0  0  0
    1.5922   -0.1598    1.9358 H   0  0  0  0  0  0  0  0  0  0  0  0
    2.6220   -1.6043    1.6079 H   0  0  0  0  0  0  0  0  0  0  0  0
    1.0331   -1.4401    0.7952 H   0  0  0  0  0  0  0  0  0  0  0  0
    2.3963   -5.0121   -0.6533 H   0  0  0  0  0  0  0  0  0  0  0  0
    3.0416   -6.8338   -2.2415 H   0  0  0  0  0  0  0  0  0  0  0  0
    4.7609   -3.8844   -4.9049 H   0  0  0  0  0  0  0  0  0  0  0  0
    6.0354    0.5615   -1.9245 H   0  0  0  0  0  0  0  0  0  0  0  0
    6.3788    3.0110   -2.4500 H   0  0  0  0  0  0  0  0  0  0  0  0
    4.4979    4.2832   -3.5036 H   0  0  0  0  0  0  0  0  0  0  0  0
    2.0567    0.9349   -3.5466 H   0  0  0  0  0  0  0  0  0  0  0  0
  1  2  1  0
  1 21  1  0
  1 22  1  0
  1 23  1  0
  2  3  2  0
  3  4  1  0
  3 14  1  0
  4  5  2  0
  5  6  1  0
  5 11  1  0
  6  7  2  0
  6 24  1  0
  7  8  1  0
  7 25  1  0
  8  9  1  0
  8 10  2  0
 10 11  1  0
 10 26  1  0
 11 12  2  0
 12 13  1  0
 12 14  1  0
 14 15  1  0
 15 16  2  0
 15 20  1  0
 16 17  1  0
 16 27  1  0
 17 18  2  0
 17 28  1  0
 18 19  1  0
 18 29  1  0
 19 20  2  0
 20 30  1  0
M  CHG  2   2   1  13  -1
M  END

