
     RDKit          3D

 57 59  0  0  0  0  0  0  0  0999 V2000
    6.0886   -1.6354    1.2860 C   0  0  0  0  0  0  0  0  0  0  0  0
    6.5644   -2.4400    0.1766 N   0  0  0  0  0  0  0  0  0  0  0  0
    5.5507   -3.2533   -0.4848 C   0  0  0  0  0  0  0  0  0  0  0  0
    4.6582   -2.4643   -1.4499 C   0  0  0  0  0  0  0  0  0  0  0  0
    5.4695   -1.7131   -2.4087 N   0  0  0  0  0  0  0  0  0  0  0  0
    4.9713   -1.4560   -3.6754 C   0  0  0  0  0  0  0  0  0  0  0  0
    5.5425   -0.4830   -4.5356 C   0  0  0  0  0  0  0  0  0  0  0  0
    5.0202   -0.3106   -5.8181 C   0  0  0  0  0  0  0  0  0  0  0  0
    5.6029    0.7478   -6.7403 C   0  0  0  0  0  0  0  0  0  0  0  0
    5.3110    2.1151   -6.3351 N   0  0  0  0  0  0  0  0  0  0  0  0
    6.1718    2.7990   -5.4935 C   0  0  0  0  0  0  0  0  0  0  0  0
    7.2674    2.3572   -5.1682 O   0  0  0  0  0  0  0  0  0  0  0  0
    5.7060    4.0237   -5.0747 N   0  0  0  0  0  0  0  0  0  0  0  0
    6.4828    4.8848   -4.1860 C   0  0  1  0  0  0  0  0  0  0  0  0
    6.4235    6.3516   -4.6483 C   0  0  0  0  0  0  0  0  0  0  0  0
    5.0467    6.9956   -4.4101 C   0  0  0  0  0  0  0  0  0  0  0  0
    4.5497    6.8539   -2.9562 C   0  0  2  0  0  0  0  0  0  0  0  0
    5.2704    7.8247   -2.0046 C   0  0  0  0  0  0  0  0  0  0  0  0
    4.8176    7.7373   -0.6694 O   0  0  0  0  0  0  0  0  0  0  0  0
    4.6413    5.3876   -2.4853 C   0  0  0  0  0  0  0  0  0  0  0  0
    6.0270    4.7714   -2.7170 C   0  0  0  0  0  0  0  0  0  0  0  0
    3.9344   -1.1052   -6.2174 C   0  0  0  0  0  0  0  0  0  0  0  0
    3.4263   -2.0206   -5.2949 C   0  0  0  0  0  0  0  0  0  0  0  0
    3.9144   -2.1917   -4.0701 N   0  0  0  0  0  0  0  0  0  0  0  0
    6.5207   -0.8980   -1.8142 C   0  0  0  0  0  0  0  0  0  0  0  0
    7.3512   -1.7283   -0.8179 C   0  0  0  0  0  0  0  0  0  0  0  0
    5.6058   -2.2867    2.0330 H   0  0  0  0  0  0  0  0  0  0  0  0
    5.3580   -0.8382    1.0244 H   0  0  0  0  0  0  0  0  0  0  0  0
    6.9438   -1.1447    1.7792 H   0  0  0  0  0  0  0  0  0  0  0  0
    4.9250   -3.7479    0.2761 H   0  0  0  0  0  0  0  0  0  0  0  0
    6.0652   -4.0484   -1.0546 H   0  0  0  0  0  0  0  0  0  0  0  0
    4.0039   -1.7685   -0.8828 H   0  0  0  0  0  0  0  0  0  0  0  0
    3.9997   -3.1348   -2.0134 H   0  0  0  0  0  0  0  0  0  0  0  0
    6.3780    0.1442   -4.2280 H   0  0  0  0  0  0  0  0  0  0  0  0
    5.2276    0.5941   -7.7648 H   0  0  0  0  0  0  0  0  0  0  0  0
    6.6979    0.6611   -6.7642 H   0  0  0  0  0  0  0  0  0  0  0  0
    4.3336    2.3849   -6.3321 H   0  0  0  0  0  0  0  0  0  0  0  0
    4.8301    4.3691   -5.4457 H   0  0  0  0  0  0  0  0  0  0  0  0
    7.5152    4.5163   -4.2636 H   0  0  0  0  0  0  0  0  0  0  0  0
    6.6962    6.4160   -5.7145 H   0  0  0  0  0  0  0  0  0  0  0  0
    7.1960    6.9134   -4.0970 H   0  0  0  0  0  0  0  0  0  0  0  0
    4.3008    6.5327   -5.0827 H   0  0  0  0  0  0  0  0  0  0  0  0
    5.0764    8.0598   -4.7019 H   0  0  0  0  0  0  0  0  0  0  0  0
    3.4823    7.1493   -2.9389 H   0  0  0  0  0  0  0  0  0  0  0  0
    5.1682    8.8563   -2.4010 H   0  0  0  0  0  0  0  0  0  0  0  0
    6.3506    7.6117   -1.9660 H   0  0  0  0  0  0  0  0  0  0  0  0
    3.8772    7.9605   -0.6551 H   0  0  0  0  0  0  0  0  0  0  0  0
    3.8873    4.7903   -3.0288 H   0  0  0  0  0  0  0  0  0  0  0  0
    4.3745    5.3344   -1.4186 H   0  0  0  0  0  0  0  0  0  0  0  0
    6.0312    3.7108   -2.4194 H   0  0  0  0  0  0  0  0  0  0  0  0
    6.7755    5.2737   -2.0797 H   0  0  0  0  0  0  0  0  0  0  0  0
    3.4935   -1.0111   -7.2128 H   0  0  0  0  0  0  0  0  0  0  0  0
    2.5693   -2.6517   -5.5635 H   0  0  0  0  0  0  0  0  0  0  0  0
    6.0900   -0.0050   -1.3126 H   0  0  0  0  0  0  0  0  0  0  0  0
    7.1978   -0.5284   -2.5945 H   0  0  0  0  0  0  0  0  0  0  0  0
    8.0775   -1.0711   -0.3127 H   0  0  0  0  0  0  0  0  0  0  0  0
    7.9286   -2.4727   -1.3962 H   0  0  0  0  0  0  0  0  0  0  0  0
  1  2  1  0
  1 27  1  0
  1 28  1  0
  1 29  1  0
  2  3  1  0
  2 26  1  0
  3  4  1  0
  3 30  1  0
  3 31  1  0
  4  5  1  0
  4 32  1  0
  4 33  1  0
  5  6  1  0
  5 25  1  0
  6  7  2  0
  6 24  1  0
  7  8  1  0
  7 34  1  0
  8  9  1  0
  8 22  2  0
  9 10  1  0
  9 35  1  0
  9 36  1  0
 10 11  1  0
 10 37  1  0
 11 12  2  0
 11 13  1  0
 13 14  1  0
 13 38  1  0
 14 15  1  0
 14 21  1  0
 14 39  1  1
 15 16  1  0
 15 40  1  0
 15 41  1  0
 16 17  1  0
 16 42  1  0
 16 43  1  0
 17 18  1  0
 17 20  1  0
 17 44  1  6
 18 19  1  0
 18 45  1  0
 18 46  1  0
 19 47  1  0
 20 21  1  0
 20 48  1  0
 20 49  1  0
 21 50  1  0
 21 51  1  0
 22 23  1  0
 22 52  1  0
 23 24  2  0
 23 53  1  0
 25 26  1  0
 25 54  1  0
 25 55  1  0
 26 56  1  0
 26 57  1  0
M  END

