
     RDKit          3D

 39 40  0  0  0  0  0  0  0  0999 V2000
   -1.5579   -7.3416   -1.3728 C   0  0  0  0  0  0  0  0  0  0  0  0
   -1.1668   -6.8621   -2.7595 C   0  0  0  0  0  0  0  0  0  0  0  0
   -1.9693   -6.8779   -3.6738 O   0  0  0  0  0  0  0  0  0  0  0  0
    0.2314   -6.3670   -2.9806 C   0  0  0  0  0  0  0  0  0  0  0  0
    0.5941   -5.9406   -4.2671 C   0  0  0  0  0  0  0  0  0  0  0  0
    1.8768   -5.4729   -4.5348 C   0  0  0  0  0  0  0  0  0  0  0  0
    2.8414   -5.4111   -3.5159 C   0  0  0  0  0  0  0  0  0  0  0  0
    4.0996   -4.9408   -3.6668 O   0  0  0  0  0  0  0  0  0  0  0  0
    4.5437   -4.4373   -4.8947 C   0  0  0  0  0  0  0  0  0  0  0  0
    4.8888   -5.5682   -5.8850 C   0  0  0  0  0  0  0  0  0  0  0  0
    4.6923   -6.7277   -5.6057 O   0  0  0  0  0  0  0  0  0  0  0  0
    5.4251   -5.1734   -7.1048 N   0  0  0  0  0  0  0  0  0  0  0  0
    5.7597   -3.7890   -7.4184 C   0  0  0  0  0  0  0  0  0  0  0  0
    7.0771   -3.3625   -6.9016 C   0  0  0  0  0  0  0  0  0  0  0  0
    8.1042   -3.0444   -6.4713 N   0  0  0  0  0  0  0  0  0  0  0  0
    5.8687   -6.1859   -8.0310 C   0  0  0  0  0  0  0  0  0  0  0  0
    5.1747   -6.3720   -9.2323 C   0  0  0  0  0  0  0  0  0  0  0  0
    5.6157   -7.3276  -10.1514 C   0  0  0  0  0  0  0  0  0  0  0  0
    6.7408   -8.1063   -9.8653 C   0  0  0  0  0  0  0  0  0  0  0  0
    7.4259   -7.9260   -8.6597 C   0  0  0  0  0  0  0  0  0  0  0  0
    6.9953   -6.9647   -7.7427 C   0  0  0  0  0  0  0  0  0  0  0  0
    2.4791   -5.8407   -2.2199 C   0  0  0  0  0  0  0  0  0  0  0  0
    3.6565   -5.7713   -0.9358 Cl  0  0  0  0  0  0  0  0  0  0  0  0
    1.1964   -6.3124   -1.9603 C   0  0  0  0  0  0  0  0  0  0  0  0
   -2.6053   -7.6677   -1.3956 H   0  0  0  0  0  0  0  0  0  0  0  0
   -1.4421   -6.5373   -0.6282 H   0  0  0  0  0  0  0  0  0  0  0  0
   -0.9206   -8.1805   -1.0493 H   0  0  0  0  0  0  0  0  0  0  0  0
   -0.1573   -5.9932   -5.0569 H   0  0  0  0  0  0  0  0  0  0  0  0
    2.1305   -5.1732   -5.5517 H   0  0  0  0  0  0  0  0  0  0  0  0
    5.4526   -3.8584   -4.6660 H   0  0  0  0  0  0  0  0  0  0  0  0
    3.8088   -3.7386   -5.3365 H   0  0  0  0  0  0  0  0  0  0  0  0
    4.9961   -3.0957   -7.0351 H   0  0  0  0  0  0  0  0  0  0  0  0
    5.7636   -3.6674   -8.5117 H   0  0  0  0  0  0  0  0  0  0  0  0
    4.2839   -5.7735   -9.4395 H   0  0  0  0  0  0  0  0  0  0  0  0
    5.0716   -7.4707  -11.0881 H   0  0  0  0  0  0  0  0  0  0  0  0
    7.0823   -8.8577  -10.5815 H   0  0  0  0  0  0  0  0  0  0  0  0
    8.3035   -8.5354   -8.4310 H   0  0  0  0  0  0  0  0  0  0  0  0
    7.5255   -6.8192   -6.7997 H   0  0  0  0  0  0  0  0  0  0  0  0
    0.9671   -6.6325   -0.9437 H   0  0  0  0  0  0  0  0  0  0  0  0
  1  2  1  0
  1 25  1  0
  1 26  1  0
  1 27  1  0
  2  3  2  0
  2  4  1  0
  4  5  2  0
  4 24  1  0
  5  6  1  0
  5 28  1  0
  6  7  2  0
  6 29  1  0
  7  8  1  0
  7 22  1  0
  8  9  1  0
  9 10  1  0
  9 30  1  0
  9 31  1  0
 10 11  2  0
 10 12  1  0
 12 13  1  0
 12 16  1  0
 13 14  1  0
 13 32  1  0
 13 33  1  0
 14 15  3  0
 16 17  2  0
 16 21  1  0
 17 18  1  0
 17 34  1  0
 18 19  2  0
 18 35  1  0
 19 20  1  0
 19 36  1  0
 20 21  2  0
 20 37  1  0
 21 38  1  0
 22 23  1  0
 22 24  2  0
 24 39  1  0
M  END

