
     RDKit          3D

 46 48  0  0  0  0  0  0  0  0999 V2000
    6.1837    1.5357    7.9603 O   0  0  0  0  0  0  0  0  0  0  0  0
    7.1791    1.4037    8.6195 C   0  0  0  0  0  0  0  0  0  0  0  0
    7.5404    2.3606    9.5042 O   0  0  0  0  0  0  0  0  0  0  0  0
    8.1063    0.1934    8.5561 C   0  0  0  0  0  0  0  0  0  0  0  0
    7.7204   -0.8235    7.4807 C   0  0  0  0  0  0  0  0  0  0  0  0
    7.9563   -0.3317    6.0483 C   0  0  0  0  0  0  0  0  0  0  0  0
    7.5310   -1.3619    4.9981 C   0  0  0  0  0  0  0  0  0  0  0  0
    7.7369   -0.9493    3.5324 C   0  0  0  0  0  0  0  0  0  0  0  0
    9.1392   -0.7701    3.1181 N   0  0  0  0  0  0  0  0  0  0  0  0
    9.7013    0.5135    3.0455 C   0  0  0  0  0  0  0  0  0  0  0  0
    8.9748    1.6748    3.4064 C   0  0  0  0  0  0  0  0  0  0  0  0
    9.5403    2.9395    3.3139 C   0  0  0  0  0  0  0  0  0  0  0  0
   10.8601    3.0973    2.8637 C   0  0  0  0  0  0  0  0  0  0  0  0
   11.6168    4.8406    2.7462 Br  0  0  0  0  0  0  0  0  0  0  0  0
   11.6002    1.9812    2.5150 C   0  0  0  0  0  0  0  0  0  0  0  0
   11.0365    0.6953    2.6022 C   0  0  0  0  0  0  0  0  0  0  0  0
   11.8863   -0.4503    2.2203 C   0  0  0  0  0  0  0  0  0  0  0  0
   13.0428   -0.3197    1.8429 O   0  0  0  0  0  0  0  0  0  0  0  0
   11.2308   -1.7689    2.3333 C   0  0  0  0  0  0  0  0  0  0  0  0
   11.9753   -2.9047    1.9788 C   0  0  0  0  0  0  0  0  0  0  0  0
   11.4049   -4.1646    2.0594 C   0  0  0  0  0  0  0  0  0  0  0  0
   12.3551   -5.6067    1.6227 S   0  0  1  0  0  0  0  0  0  0  0  0
   11.4377   -6.7058    1.3173 O   0  0  0  0  0  0  0  0  0  0  0  0
   13.4241   -5.2092    0.7248 O   0  0  0  0  0  0  0  0  0  0  0  0
   13.0603   -5.9900    3.0606 O   0  0  0  0  0  0  0  0  0  0  0  0
   10.0739   -4.3138    2.4805 C   0  0  0  0  0  0  0  0  0  0  0  0
    9.3286   -3.2010    2.8326 C   0  0  0  0  0  0  0  0  0  0  0  0
    9.8842   -1.8933    2.7729 C   0  0  0  0  0  0  0  0  0  0  0  0
    8.3591    2.1160    9.9592 H   0  0  0  0  0  0  0  0  0  0  0  0
    8.0932   -0.2805    9.5546 H   0  0  0  0  0  0  0  0  0  0  0  0
    9.1419    0.5515    8.4061 H   0  0  0  0  0  0  0  0  0  0  0  0
    6.6560   -1.0809    7.6091 H   0  0  0  0  0  0  0  0  0  0  0  0
    8.2942   -1.7505    7.6515 H   0  0  0  0  0  0  0  0  0  0  0  0
    9.0255   -0.0863    5.9195 H   0  0  0  0  0  0  0  0  0  0  0  0
    7.3930    0.6033    5.9004 H   0  0  0  0  0  0  0  0  0  0  0  0
    6.4550   -1.5806    5.1200 H   0  0  0  0  0  0  0  0  0  0  0  0
    8.0565   -2.3137    5.1869 H   0  0  0  0  0  0  0  0  0  0  0  0
    7.1929   -0.0234    3.3178 H   0  0  0  0  0  0  0  0  0  0  0  0
    7.2858   -1.7002    2.8693 H   0  0  0  0  0  0  0  0  0  0  0  0
    7.9565    1.6112    3.7804 H   0  0  0  0  0  0  0  0  0  0  0  0
    8.9510    3.8125    3.5998 H   0  0  0  0  0  0  0  0  0  0  0  0
   12.6310    2.0493    2.1647 H   0  0  0  0  0  0  0  0  0  0  0  0
   12.9998   -2.7555    1.6332 H   0  0  0  0  0  0  0  0  0  0  0  0
   12.6845   -6.8433    3.3373 H   0  0  0  0  0  0  0  0  0  0  0  0
    9.6254   -5.3083    2.5154 H   0  0  0  0  0  0  0  0  0  0  0  0
    8.3032   -3.3606    3.1555 H   0  0  0  0  0  0  0  0  0  0  0  0
  1  2  2  0
  2  3  1  0
  2  4  1  0
  3 29  1  0
  4  5  1  0
  4 30  1  0
  4 31  1  0
  5  6  1  0
  5 32  1  0
  5 33  1  0
  6  7  1  0
  6 34  1  0
  6 35  1  0
  7  8  1  0
  7 36  1  0
  7 37  1  0
  8  9  1  0
  8 38  1  0
  8 39  1  0
  9 10  1  0
  9 28  1  0
 10 11  2  0
 10 16  1  0
 11 12  1  0
 11 40  1  0
 12 13  2  0
 12 41  1  0
 13 14  1  0
 13 15  1  0
 15 16  2  0
 15 42  1  0
 16 17  1  0
 17 18  2  0
 17 19  1  0
 19 20  1  0
 19 28  2  0
 20 21  2  0
 20 43  1  0
 21 22  1  0
 21 26  1  0
 22 23  2  0
 22 24  2  0
 22 25  1  1
 25 44  1  0
 26 27  2  0
 26 45  1  0
 27 28  1  0
 27 46  1  0
M  END

