
     RDKit          3D

 44 46  0  0  0  0  0  0  0  0999 V2000
    2.6380    0.7575   -2.0427 C   0  0  0  0  0  0  0  0  0  0  0  0
    2.4637    0.1177   -0.6619 C   0  0  1  0  0  0  0  0  0  0  0  0
    2.8439    1.0742    0.4727 C   0  0  0  0  0  0  0  0  0  0  0  0
    1.0350   -0.3985   -0.4802 C   0  0  0  0  0  0  0  0  0  0  0  0
    3.2635   -1.1110   -0.5708 O   0  0  0  0  0  0  0  0  0  0  0  0
    4.6018   -1.1152   -0.7139 C   0  0  0  0  0  0  0  0  0  0  0  0
    5.2885   -0.1099   -0.8560 O   0  0  0  0  0  0  0  0  0  0  0  0
    5.0648   -2.3929   -0.6942 N   0  0  0  0  0  0  0  0  0  0  0  0
    6.4544   -2.8659   -0.5283 C   0  0  2  0  0  0  0  0  0  0  0  0
    7.0719   -2.4130    0.8147 C   0  0  0  0  0  0  0  0  0  0  0  0
    8.4645   -3.0558    0.9927 C   0  0  1  0  0  0  0  0  0  0  0  0
    8.3283   -4.5909    0.9979 C   0  0  0  0  0  0  0  0  0  0  0  0
    7.7312   -5.0592   -0.3436 C   0  0  2  0  0  0  0  0  0  0  0  0
    8.6429   -4.6314   -1.5073 C   0  0  0  0  0  0  0  0  0  0  0  0
    8.7770   -3.1013   -1.5032 C   0  0  2  0  0  0  0  0  0  0  0  0
    9.3850   -2.6306   -0.1678 C   0  0  0  0  0  0  0  0  0  0  0  0
    7.3995   -2.4242   -1.6936 C   0  0  2  0  0  0  0  0  0  0  0  0
    7.6341   -1.0439   -1.7579 O   0  0  0  0  0  0  0  0  0  0  0  0
    6.3546   -4.4094   -0.5419 C   0  0  0  0  0  0  0  0  0  0  0  0
    1.9457    1.6077   -2.1456 H   0  0  0  0  0  0  0  0  0  0  0  0
    2.4032    0.0298   -2.8354 H   0  0  0  0  0  0  0  0  0  0  0  0
    3.6632    1.1208   -2.1870 H   0  0  0  0  0  0  0  0  0  0  0  0
    2.1639    1.9404    0.4697 H   0  0  0  0  0  0  0  0  0  0  0  0
    3.8743    1.4334    0.3589 H   0  0  0  0  0  0  0  0  0  0  0  0
    2.7487    0.5697    1.4470 H   0  0  0  0  0  0  0  0  0  0  0  0
    0.3202    0.4370   -0.5233 H   0  0  0  0  0  0  0  0  0  0  0  0
    0.9254   -0.9016    0.4925 H   0  0  0  0  0  0  0  0  0  0  0  0
    0.7786   -1.1184   -1.2722 H   0  0  0  0  0  0  0  0  0  0  0  0
    4.3409   -3.0875   -0.5457 H   0  0  0  0  0  0  0  0  0  0  0  0
    6.4009   -2.7105    1.6393 H   0  0  0  0  0  0  0  0  0  0  0  0
    7.1496   -1.3159    0.8291 H   0  0  0  0  0  0  0  0  0  0  0  0
    8.8932   -2.7185    1.9517 H   0  0  0  0  0  0  0  0  0  0  0  0
    7.6840   -4.9169    1.8334 H   0  0  0  0  0  0  0  0  0  0  0  0
    9.3152   -5.0591    1.1550 H   0  0  0  0  0  0  0  0  0  0  0  0
    7.6139   -6.1561   -0.3394 H   0  0  0  0  0  0  0  0  0  0  0  0
    8.2223   -4.9816   -2.4661 H   0  0  0  0  0  0  0  0  0  0  0  0
    9.6377   -5.0978   -1.4068 H   0  0  0  0  0  0  0  0  0  0  0  0
    9.4137   -2.7689   -2.3393 H   0  0  0  0  0  0  0  0  0  0  0  0
    9.5013   -1.5376   -0.1869 H   0  0  0  0  0  0  0  0  0  0  0  0
   10.3885   -3.0706   -0.0353 H   0  0  0  0  0  0  0  0  0  0  0  0
    6.9393   -2.7934   -2.6366 H   0  0  0  0  0  0  0  0  0  0  0  0
    6.8179   -0.5565   -1.5215 H   0  0  0  0  0  0  0  0  0  0  0  0
    5.6647   -4.7251    0.2618 H   0  0  0  0  0  0  0  0  0  0  0  0
    5.9103   -4.7361   -1.4984 H   0  0  0  0  0  0  0  0  0  0  0  0
  1  2  1  0
  1 20  1  0
  1 21  1  0
  1 22  1  0
  2  3  1  0
  2  4  1  0
  2  5  1  6
  3 23  1  0
  3 24  1  0
  3 25  1  0
  4 26  1  0
  4 27  1  0
  4 28  1  0
  5  6  1  0
  6  7  2  0
  6  8  1  0
  9  8  1  6
  8 29  1  0
  9 10  1  0
  9 17  1  0
  9 19  1  0
 10 11  1  0
 10 30  1  0
 10 31  1  0
 11 12  1  0
 11 16  1  0
 11 32  1  1
 12 13  1  0
 12 33  1  0
 12 34  1  0
 13 14  1  0
 13 19  1  0
 13 35  1  1
 14 15  1  0
 14 36  1  0
 14 37  1  0
 15 16  1  0
 15 17  1  0
 15 38  1  6
 16 39  1  0
 16 40  1  0
 17 18  1  0
 17 41  1  6
 18 42  1  0
 19 43  1  0
 19 44  1  0
M  END

