
     RDKit          3D

 53 56  0  0  0  0  0  0  0  0999 V2000
   10.1350   -4.0701   -4.3869 C   0  0  0  0  0  0  0  0  0  0  0  0
    9.1319   -3.0198   -3.8842 C   0  0  0  0  0  0  0  0  0  0  0  0
    7.7259   -3.5599   -3.7389 C   0  0  0  0  0  0  0  0  0  0  0  0
    7.2865   -4.1208   -2.5296 C   0  0  0  0  0  0  0  0  0  0  0  0
    6.0059   -4.6646   -2.4080 C   0  0  0  0  0  0  0  0  0  0  0  0
    5.1201   -4.6542   -3.4966 C   0  0  0  0  0  0  0  0  0  0  0  0
    3.6859   -5.1084   -3.3949 C   0  0  0  0  0  0  0  0  0  0  0  0
    2.7970   -4.4136   -3.8687 O   0  0  0  0  0  0  0  0  0  0  0  0
    3.4143   -6.2879   -2.7300 N   0  0  0  0  0  0  0  0  0  0  0  0
    2.0192   -6.6461   -2.4796 C   0  0  0  0  0  0  0  0  0  0  0  0
    1.6162   -7.9104   -3.2415 C   0  0  0  0  0  0  0  0  0  0  0  0
    2.5558   -8.9925   -2.9546 N   0  0  0  0  0  0  0  0  0  0  0  0
    2.0610  -10.1954   -2.5173 C   0  0  0  0  0  0  0  0  0  0  0  0
    0.8658  -10.4192   -2.4119 O   0  0  0  0  0  0  0  0  0  0  0  0
    3.0364  -11.2788   -2.1193 C   0  0  0  0  0  0  0  0  0  0  0  0
    4.2427  -11.0862   -1.5320 N   0  0  0  0  0  0  0  0  0  0  0  0
    4.6722  -12.3187   -1.2772 C   0  0  0  0  0  0  0  0  0  0  0  0
    5.8079  -12.7362   -0.7022 N   0  0  0  0  0  0  0  0  0  0  0  0
    5.9812  -14.0399   -0.5741 C   0  0  0  0  0  0  0  0  0  0  0  0
    7.2528  -14.5237    0.0693 C   0  0  0  0  0  0  0  0  0  0  0  0
    5.0090  -14.9914   -1.0231 C   0  0  0  0  0  0  0  0  0  0  0  0
    3.8380  -14.5738   -1.6154 C   0  0  0  0  0  0  0  0  0  0  0  0
    2.7325  -15.4345   -2.1280 C   0  0  0  0  0  0  0  0  0  0  0  0
    3.6980  -13.2172   -1.7298 N   0  0  0  0  0  0  0  0  0  0  0  0
    2.6584  -12.5536   -2.2589 N   0  0  0  0  0  0  0  0  0  0  0  0
    3.9409   -8.6449   -3.2507 C   0  0  0  0  0  0  0  0  0  0  0  0
    4.3562   -7.3773   -2.4904 C   0  0  0  0  0  0  0  0  0  0  0  0
    5.5414   -4.0640   -4.6981 C   0  0  0  0  0  0  0  0  0  0  0  0
    6.8281   -3.5415   -4.8197 C   0  0  0  0  0  0  0  0  0  0  0  0
   11.1449   -3.6392   -4.4813 H   0  0  0  0  0  0  0  0  0  0  0  0
    9.8398   -4.4618   -5.3736 H   0  0  0  0  0  0  0  0  0  0  0  0
   10.1945   -4.9260   -3.6955 H   0  0  0  0  0  0  0  0  0  0  0  0
    9.1233   -2.1639   -4.5800 H   0  0  0  0  0  0  0  0  0  0  0  0
    9.4740   -2.6267   -2.9121 H   0  0  0  0  0  0  0  0  0  0  0  0
    7.9548   -4.1233   -1.6633 H   0  0  0  0  0  0  0  0  0  0  0  0
    5.6857   -5.0755   -1.4474 H   0  0  0  0  0  0  0  0  0  0  0  0
    1.3952   -5.7982   -2.7866 H   0  0  0  0  0  0  0  0  0  0  0  0
    1.8862   -6.8189   -1.3959 H   0  0  0  0  0  0  0  0  0  0  0  0
    1.6157   -7.7029   -4.3276 H   0  0  0  0  0  0  0  0  0  0  0  0
    0.6124   -8.2449   -2.9531 H   0  0  0  0  0  0  0  0  0  0  0  0
    7.8743  -13.6654    0.3537 H   0  0  0  0  0  0  0  0  0  0  0  0
    7.8224  -15.1683   -0.6208 H   0  0  0  0  0  0  0  0  0  0  0  0
    7.0350  -15.1245    0.9679 H   0  0  0  0  0  0  0  0  0  0  0  0
    5.1901  -16.0597   -0.8963 H   0  0  0  0  0  0  0  0  0  0  0  0
    2.9626  -16.4965   -1.9740 H   0  0  0  0  0  0  0  0  0  0  0  0
    2.5655  -15.2444   -3.2003 H   0  0  0  0  0  0  0  0  0  0  0  0
    1.7872  -15.1826   -1.6214 H   0  0  0  0  0  0  0  0  0  0  0  0
    4.0370   -8.4585   -4.3378 H   0  0  0  0  0  0  0  0  0  0  0  0
    4.6078   -9.4641   -2.9680 H   0  0  0  0  0  0  0  0  0  0  0  0
    5.3617   -7.0823   -2.8106 H   0  0  0  0  0  0  0  0  0  0  0  0
    4.3944   -7.6118   -1.4108 H   0  0  0  0  0  0  0  0  0  0  0  0
    4.8383   -4.0093   -5.5319 H   0  0  0  0  0  0  0  0  0  0  0  0
    7.1388   -3.0937   -5.7684 H   0  0  0  0  0  0  0  0  0  0  0  0
  1  2  1  0
  1 30  1  0
  1 31  1  0
  1 32  1  0
  2  3  1  0
  2 33  1  0
  2 34  1  0
  3  4  2  0
  3 29  1  0
  4  5  1  0
  4 35  1  0
  5  6  2  0
  5 36  1  0
  6  7  1  0
  6 28  1  0
  7  8  2  0
  7  9  1  0
  9 10  1  0
  9 27  1  0
 10 11  1  0
 10 37  1  0
 10 38  1  0
 11 12  1  0
 11 39  1  0
 11 40  1  0
 12 13  1  0
 12 26  1  0
 13 14  2  0
 13 15  1  0
 15 16  1  0
 15 25  2  0
 16 17  2  0
 17 18  1  0
 17 24  1  0
 18 19  2  0
 19 20  1  0
 19 21  1  0
 20 41  1  0
 20 42  1  0
 20 43  1  0
 21 22  2  0
 21 44  1  0
 22 23  1  0
 22 24  1  0
 23 45  1  0
 23 46  1  0
 23 47  1  0
 24 25  1  0
 26 27  1  0
 26 48  1  0
 26 49  1  0
 27 50  1  0
 27 51  1  0
 28 29  2  0
 28 52  1  0
 29 53  1  0
M  END

