
     RDKit          3D

 34 34  0  0  0  0  0  0  0  0999 V2000
    3.1001    0.8875    1.0367 C   0  0  0  0  0  0  0  0  0  0  0  0
    2.5805    0.1347   -0.1920 C   0  0  0  0  0  0  0  0  0  0  0  0
    2.8570   -1.3881   -0.2550 C   0  0  1  0  0  0  0  0  0  0  0  0
    2.3255   -2.1277    1.0130 C   0  0  0  0  0  0  0  0  0  0  0  0
    0.9237   -1.7501    1.5120 C   0  0  0  0  0  0  0  0  0  0  0  0
    2.2329   -1.9435   -1.5819 C   0  0  0  0  0  0  0  0  0  0  0  0
    0.7903   -1.7464   -1.7010 N   0  0  0  0  0  0  0  0  0  0  0  0
    4.3889   -1.6054   -0.4056 C   0  0  0  0  0  0  0  0  0  0  0  0
    5.1181   -0.6584   -0.6597 O   0  0  0  0  0  0  0  0  0  0  0  0
    5.0024   -2.9554   -0.2855 C   0  0  0  0  0  0  0  0  0  0  0  0
    4.4802   -4.2554   -0.2518 C   0  0  0  0  0  0  0  0  0  0  0  0
    5.5990   -5.1002   -0.2011 C   0  0  0  0  0  0  0  0  0  0  0  0
    6.7320   -4.3958   -0.1970 N   0  0  0  0  0  0  0  0  0  0  0  0
    6.3740   -3.1159   -0.2546 N   0  0  0  0  0  0  0  0  0  0  0  0
    7.4269   -2.1088   -0.2674 C   0  0  0  0  0  0  0  0  0  0  0  0
    2.8238    1.9524    0.9696 H   0  0  0  0  0  0  0  0  0  0  0  0
    4.1961    0.8377    1.1079 H   0  0  0  0  0  0  0  0  0  0  0  0
    2.6794    0.5061    1.9804 H   0  0  0  0  0  0  0  0  0  0  0  0
    3.0239    0.5921   -1.0902 H   0  0  0  0  0  0  0  0  0  0  0  0
    1.4926    0.2651   -0.2875 H   0  0  0  0  0  0  0  0  0  0  0  0
    3.0418   -1.9667    1.8374 H   0  0  0  0  0  0  0  0  0  0  0  0
    2.3430   -3.2122    0.8322 H   0  0  0  0  0  0  0  0  0  0  0  0
    0.8690   -0.7070    1.8551 H   0  0  0  0  0  0  0  0  0  0  0  0
    0.6518   -2.3892    2.3680 H   0  0  0  0  0  0  0  0  0  0  0  0
    0.1573   -1.8715    0.7356 H   0  0  0  0  0  0  0  0  0  0  0  0
    2.5263   -3.0028   -1.7010 H   0  0  0  0  0  0  0  0  0  0  0  0
    2.7196   -1.4016   -2.4095 H   0  0  0  0  0  0  0  0  0  0  0  0
    0.2754   -2.5652   -1.3827 H   0  0  0  0  0  0  0  0  0  0  0  0
    0.5262   -1.5988   -2.6728 H   0  0  0  0  0  0  0  0  0  0  0  0
    3.4374   -4.5525   -0.2733 H   0  0  0  0  0  0  0  0  0  0  0  0
    5.6325   -6.1885   -0.1644 H   0  0  0  0  0  0  0  0  0  0  0  0
    8.3680   -2.6500   -0.1142 H   0  0  0  0  0  0  0  0  0  0  0  0
    7.2728   -1.3727    0.5320 H   0  0  0  0  0  0  0  0  0  0  0  0
    7.4422   -1.5696   -1.2234 H   0  0  0  0  0  0  0  0  0  0  0  0
  1  2  1  0
  1 16  1  0
  1 17  1  0
  1 18  1  0
  2  3  1  0
  2 19  1  0
  2 20  1  0
  3  4  1  0
  3  6  1  0
  3  8  1  6
  4  5  1  0
  4 21  1  0
  4 22  1  0
  5 23  1  0
  5 24  1  0
  5 25  1  0
  6  7  1  0
  6 26  1  0
  6 27  1  0
  7 28  1  0
  7 29  1  0
  8  9  2  0
  8 10  1  0
 10 11  2  0
 10 14  1  0
 11 12  1  0
 11 30  1  0
 12 13  2  0
 12 31  1  0
 13 14  1  0
 14 15  1  0
 15 32  1  0
 15 33  1  0
 15 34  1  0
M  END

