
     RDKit          3D

 82 89  0  0  0  0  0  0  0  0999 V2000
    1.9131   -0.1484    1.4158 C   0  0  0  0  0  0  0  0  0  0  0  0
    2.4612    0.1805    0.0155 C   0  0  1  0  0  0  0  0  0  0  0  0
    1.3849    0.9889   -0.7457 C   0  0  0  0  0  0  0  0  0  0  0  0
    3.7306    1.0469    0.1858 C   0  0  0  0  0  0  0  0  0  0  0  0
    2.8120   -1.0886   -0.7880 C   0  0  0  0  0  0  0  0  0  0  0  0
    2.6426   -2.3809   -0.2740 C   0  0  0  0  0  0  0  0  0  0  0  0
    2.9664   -3.5332   -1.0170 C   0  0  0  0  0  0  0  0  0  0  0  0
    2.7965   -4.8567   -0.4845 C   0  0  0  0  0  0  0  0  0  0  0  0
    3.1005   -5.9649   -1.2215 C   0  0  0  0  0  0  0  0  0  0  0  0
    3.6111   -5.8566   -2.5610 C   0  0  0  0  0  0  0  0  0  0  0  0
    3.9278   -6.9883   -3.3564 C   0  0  0  0  0  0  0  0  0  0  0  0
    3.7110   -8.3143   -2.8715 N   0  0  0  0  0  0  0  0  0  0  0  0
    4.8177   -9.2035   -2.8330 C   0  0  0  0  0  0  0  0  0  0  0  0
    6.0586   -8.7560   -2.3414 C   0  0  0  0  0  0  0  0  0  0  0  0
    7.1619   -9.6102   -2.3200 C   0  0  0  0  0  0  0  0  0  0  0  0
    7.0499  -10.9286   -2.7730 C   0  0  0  0  0  0  0  0  0  0  0  0
    5.8184  -11.3792   -3.2590 C   0  0  0  0  0  0  0  0  0  0  0  0
    4.7130  -10.5275   -3.2990 C   0  0  0  0  0  0  0  0  0  0  0  0
    2.3895   -8.7703   -2.6403 C   0  0  0  0  0  0  0  0  0  0  0  0
    1.3084   -8.2444   -3.3715 C   0  0  0  0  0  0  0  0  0  0  0  0
    0.0044   -8.6744   -3.1166 C   0  0  0  0  0  0  0  0  0  0  0  0
   -0.2509   -9.6434   -2.1428 C   0  0  0  0  0  0  0  0  0  0  0  0
    0.8210  -10.1729   -1.4156 C   0  0  0  0  0  0  0  0  0  0  0  0
    2.1255   -9.7390   -1.6508 C   0  0  0  0  0  0  0  0  0  0  0  0
    4.4870   -6.8109   -4.6255 C   0  0  0  0  0  0  0  0  0  0  0  0
    4.7268   -5.5419   -5.1641 C   0  0  0  0  0  0  0  0  0  0  0  0
    5.3043   -5.4380   -6.4665 N   0  0  0  0  0  0  0  0  0  0  0  0
    6.5939   -4.8702   -6.6186 C   0  0  0  0  0  0  0  0  0  0  0  0
    7.5396   -4.9442   -5.5793 C   0  0  0  0  0  0  0  0  0  0  0  0
    8.7973   -4.3544   -5.7223 C   0  0  0  0  0  0  0  0  0  0  0  0
    9.1463   -3.6929   -6.9027 C   0  0  0  0  0  0  0  0  0  0  0  0
    8.2110   -3.6202   -7.9411 C   0  0  0  0  0  0  0  0  0  0  0  0
    6.9464   -4.1917   -7.8028 C   0  0  0  0  0  0  0  0  0  0  0  0
    4.6528   -6.0943   -7.5440 C   0  0  0  0  0  0  0  0  0  0  0  0
    3.2534   -6.0096   -7.6722 C   0  0  0  0  0  0  0  0  0  0  0  0
    2.5959   -6.6688   -8.7117 C   0  0  0  0  0  0  0  0  0  0  0  0
    3.3166   -7.4127   -9.6513 C   0  0  0  0  0  0  0  0  0  0  0  0
    4.7074   -7.4972   -9.5304 C   0  0  0  0  0  0  0  0  0  0  0  0
    5.3726   -6.8543   -8.4850 C   0  0  0  0  0  0  0  0  0  0  0  0
    4.3718   -4.3846   -4.4260 C   0  0  0  0  0  0  0  0  0  0  0  0
    4.5243   -3.0519   -4.9465 C   0  0  0  0  0  0  0  0  0  0  0  0
    4.1845   -1.9562   -4.2081 C   0  0  0  0  0  0  0  0  0  0  0  0
    3.6651   -2.0838   -2.8732 C   0  0  0  0  0  0  0  0  0  0  0  0
    3.3249   -0.9684   -2.0912 C   0  0  0  0  0  0  0  0  0  0  0  0
    3.4869   -3.3964   -2.3378 C   0  0  0  0  0  0  0  0  0  0  0  0
    3.8248   -4.5520   -3.1124 C   0  0  0  0  0  0  0  0  0  0  0  0
    1.6770    0.7844    1.9516 H   0  0  0  0  0  0  0  0  0  0  0  0
    2.6448   -0.7021    2.0247 H   0  0  0  0  0  0  0  0  0  0  0  0
    0.9879   -0.7436    1.3664 H   0  0  0  0  0  0  0  0  0  0  0  0
    1.1222    1.9018   -0.1860 H   0  0  0  0  0  0  0  0  0  0  0  0
    0.4664    0.3955   -0.8796 H   0  0  0  0  0  0  0  0  0  0  0  0
    1.7311    1.2987   -1.7434 H   0  0  0  0  0  0  0  0  0  0  0  0
    3.4985    1.9614    0.7562 H   0  0  0  0  0  0  0  0  0  0  0  0
    4.1506    1.3570   -0.7831 H   0  0  0  0  0  0  0  0  0  0  0  0
    4.5146    0.4962    0.7294 H   0  0  0  0  0  0  0  0  0  0  0  0
    2.2484   -2.5279    0.7318 H   0  0  0  0  0  0  0  0  0  0  0  0
    2.4151   -4.9645    0.5346 H   0  0  0  0  0  0  0  0  0  0  0  0
    2.9632   -6.9580   -0.7940 H   0  0  0  0  0  0  0  0  0  0  0  0
    6.1492   -7.7325   -1.9724 H   0  0  0  0  0  0  0  0  0  0  0  0
    8.1163   -9.2431   -1.9332 H   0  0  0  0  0  0  0  0  0  0  0  0
    7.9136  -11.5972   -2.7495 H   0  0  0  0  0  0  0  0  0  0  0  0
    5.7170  -12.4037   -3.6271 H   0  0  0  0  0  0  0  0  0  0  0  0
    3.7618  -10.8855   -3.6963 H   0  0  0  0  0  0  0  0  0  0  0  0
    1.4946   -7.4964   -4.1436 H   0  0  0  0  0  0  0  0  0  0  0  0
   -0.8195   -8.2508   -3.6970 H   0  0  0  0  0  0  0  0  0  0  0  0
   -1.2719   -9.9812   -1.9503 H   0  0  0  0  0  0  0  0  0  0  0  0
    0.6402  -10.9254   -0.6433 H   0  0  0  0  0  0  0  0  0  0  0  0
    2.9500  -10.1480   -1.0642 H   0  0  0  0  0  0  0  0  0  0  0  0
    4.7455   -7.6912   -5.2158 H   0  0  0  0  0  0  0  0  0  0  0  0
    7.2850   -5.4685   -4.6570 H   0  0  0  0  0  0  0  0  0  0  0  0
    9.5154   -4.4242   -4.9009 H   0  0  0  0  0  0  0  0  0  0  0  0
   10.1332   -3.2376   -7.0127 H   0  0  0  0  0  0  0  0  0  0  0  0
    8.4625   -3.0989   -8.8688 H   0  0  0  0  0  0  0  0  0  0  0  0
    6.2207   -4.1124   -8.6142 H   0  0  0  0  0  0  0  0  0  0  0  0
    2.6857   -5.4185   -6.9509 H   0  0  0  0  0  0  0  0  0  0  0  0
    1.5086   -6.5889   -8.7935 H   0  0  0  0  0  0  0  0  0  0  0  0
    2.8001   -7.9228  -10.4677 H   0  0  0  0  0  0  0  0  0  0  0  0
    5.2847   -8.0839  -10.2501 H   0  0  0  0  0  0  0  0  0  0  0  0
    6.4563   -6.9421   -8.3918 H   0  0  0  0  0  0  0  0  0  0  0  0
    4.9152   -2.9283   -5.9563 H   0  0  0  0  0  0  0  0  0  0  0  0
    4.3039   -0.9538   -4.6282 H   0  0  0  0  0  0  0  0  0  0  0  0
    3.4726    0.0213   -2.5301 H   0  0  0  0  0  0  0  0  0  0  0  0
  2  1  1  1
  1 47  1  0
  1 48  1  0
  1 49  1  0
  2  3  1  0
  2  4  1  0
  2  5  1  0
  3 50  1  0
  3 51  1  0
  3 52  1  0
  4 53  1  0
  4 54  1  0
  4 55  1  0
  5  6  2  0
  5 44  1  0
  6  7  1  0
  6 56  1  0
  7  8  2  0
  7 45  1  0
  8  9  1  0
  8 57  1  0
  9 10  2  0
  9 58  1  0
 10 11  1  0
 10 46  1  0
 11 12  1  0
 11 25  2  0
 12 13  1  0
 12 19  1  0
 13 14  2  0
 13 18  1  0
 14 15  1  0
 14 59  1  0
 15 16  2  0
 15 60  1  0
 16 17  1  0
 16 61  1  0
 17 18  2  0
 17 62  1  0
 18 63  1  0
 19 20  2  0
 19 24  1  0
 20 21  1  0
 20 64  1  0
 21 22  2  0
 21 65  1  0
 22 23  1  0
 22 66  1  0
 23 24  2  0
 23 67  1  0
 24 68  1  0
 25 26  1  0
 25 69  1  0
 26 27  1  0
 26 40  2  0
 27 28  1  0
 27 34  1  0
 28 29  2  0
 28 33  1  0
 29 30  1  0
 29 70  1  0
 30 31  2  0
 30 71  1  0
 31 32  1  0
 31 72  1  0
 32 33  2  0
 32 73  1  0
 33 74  1  0
 34 35  2  0
 34 39  1  0
 35 36  1  0
 35 75  1  0
 36 37  2  0
 36 76  1  0
 37 38  1  0
 37 77  1  0
 38 39  2  0
 38 78  1  0
 39 79  1  0
 40 41  1  0
 40 46  1  0
 41 42  2  0
 41 80  1  0
 42 43  1  0
 42 81  1  0
 43 44  2  0
 43 45  1  0
 44 82  1  0
 45 46  2  0
M  END

