
     RDKit          3D

 38 38  0  0  0  0  0  0  0  0999 V2000
    1.9545    0.8262   -1.1020 C   0  0  0  0  0  0  0  0  0  0  0  0
    2.1933   -0.2751   -0.0828 C   0  0  0  0  0  0  0  0  0  0  0  0
    2.8181   -1.4277   -0.6803 O   0  0  0  0  0  0  0  0  0  0  0  0
    4.1600   -1.4399   -0.7678 C   0  0  0  0  0  0  0  0  0  0  0  0
    4.8615   -0.5349   -0.3739 O   0  0  0  0  0  0  0  0  0  0  0  0
    4.6493   -2.7222   -1.4103 C   0  0  0  0  0  0  0  0  0  0  0  0
    6.1757   -2.7392   -1.6391 C   0  0  1  0  0  0  0  0  0  0  0  0
    6.9743   -2.6479   -0.4122 N   0  0  0  0  0  0  0  0  0  0  0  0
    6.8581   -3.7292    0.5478 C   0  0  0  0  0  0  0  0  0  0  0  0
    6.6547   -3.9019   -2.5104 C   0  0  0  0  0  0  0  0  0  0  0  0
    5.9022   -5.0730   -2.6571 C   0  0  0  0  0  0  0  0  0  0  0  0
    6.3332   -6.1617   -3.4350 C   0  0  0  0  0  0  0  0  0  0  0  0
    5.4813   -7.4025   -3.5574 C   0  0  0  0  0  0  0  0  0  0  0  0
    7.5669   -6.0482   -4.0809 C   0  0  0  0  0  0  0  0  0  0  0  0
    8.3338   -4.8869   -3.9467 C   0  0  0  0  0  0  0  0  0  0  0  0
    7.9064   -3.8026   -3.1718 C   0  0  0  0  0  0  0  0  0  0  0  0
    8.7666   -2.5676   -3.0576 C   0  0  0  0  0  0  0  0  0  0  0  0
    1.4034    1.6573   -0.6334 H   0  0  0  0  0  0  0  0  0  0  0  0
    1.3598    0.4550   -1.9512 H   0  0  0  0  0  0  0  0  0  0  0  0
    2.9084    1.2209   -1.4820 H   0  0  0  0  0  0  0  0  0  0  0  0
    1.2450   -0.6534    0.3258 H   0  0  0  0  0  0  0  0  0  0  0  0
    2.8236    0.0840    0.7442 H   0  0  0  0  0  0  0  0  0  0  0  0
    4.1029   -2.8447   -2.3597 H   0  0  0  0  0  0  0  0  0  0  0  0
    4.3097   -3.5528   -0.7698 H   0  0  0  0  0  0  0  0  0  0  0  0
    6.4019   -1.8117   -2.1897 H   0  0  0  0  0  0  0  0  0  0  0  0
    6.7848   -1.7478    0.0244 H   0  0  0  0  0  0  0  0  0  0  0  0
    7.1826   -4.6800    0.0958 H   0  0  0  0  0  0  0  0  0  0  0  0
    5.8393   -3.8939    0.9649 H   0  0  0  0  0  0  0  0  0  0  0  0
    7.5270   -3.5280    1.3994 H   0  0  0  0  0  0  0  0  0  0  0  0
    4.9392   -5.1612   -2.1484 H   0  0  0  0  0  0  0  0  0  0  0  0
    4.4978   -7.1744   -4.0024 H   0  0  0  0  0  0  0  0  0  0  0  0
    5.2881   -7.8587   -2.5717 H   0  0  0  0  0  0  0  0  0  0  0  0
    5.9644   -8.1634   -4.1884 H   0  0  0  0  0  0  0  0  0  0  0  0
    7.9374   -6.8733   -4.6963 H   0  0  0  0  0  0  0  0  0  0  0  0
    9.2966   -4.8207   -4.4621 H   0  0  0  0  0  0  0  0  0  0  0  0
    9.7350   -2.7117   -3.5587 H   0  0  0  0  0  0  0  0  0  0  0  0
    8.9385   -2.3115   -2.0016 H   0  0  0  0  0  0  0  0  0  0  0  0
    8.2805   -1.6914   -3.5222 H   0  0  0  0  0  0  0  0  0  0  0  0
  1  2  1  0
  1 18  1  0
  1 19  1  0
  1 20  1  0
  2  3  1  0
  2 21  1  0
  2 22  1  0
  3  4  1  0
  4  5  2  0
  4  6  1  0
  6  7  1  0
  6 23  1  0
  6 24  1  0
  7  8  1  0
  7 10  1  0
  7 25  1  6
  8  9  1  0
  8 26  1  0
  9 27  1  0
  9 28  1  0
  9 29  1  0
 10 11  2  0
 10 16  1  0
 11 12  1  0
 11 30  1  0
 12 13  1  0
 12 14  2  0
 13 31  1  0
 13 32  1  0
 13 33  1  0
 14 15  1  0
 14 34  1  0
 15 16  2  0
 15 35  1  0
 16 17  1  0
 17 36  1  0
 17 37  1  0
 17 38  1  0
M  END

