
     RDKit          3D

 34 34  0  0  0  0  0  0  0  0999 V2000
    0.6166    0.3658    0.5943 C   0  0  0  0  0  0  0  0  0  0  0  0
    1.9092   -0.0290    0.0643 N   0  0  0  0  0  0  0  0  0  0  0  0
    2.7254   -0.8604    0.9501 C   0  0  1  0  0  0  0  0  0  0  0  0
    2.1916   -2.3029    1.0228 C   0  0  0  0  0  0  0  0  0  0  0  0
    2.4695   -3.0561   -0.2737 C   0  0  0  0  0  0  0  0  0  0  0  0
    3.8537   -3.0763   -0.5749 O   0  0  0  0  0  0  0  0  0  0  0  0
    4.4887   -1.7990   -0.7424 C   0  0  2  0  0  0  0  0  0  0  0  0
    4.0310   -1.1399   -2.0557 C   0  0  0  0  0  0  0  0  0  0  0  0
    5.9953   -2.1080   -0.8473 C   0  0  0  0  0  0  0  0  0  0  0  0
    6.5525   -3.0695    0.1945 C   0  0  0  0  0  0  0  0  0  0  0  0
    7.9427   -3.1841   -0.0190 O   0  0  0  0  0  0  0  0  0  0  0  0
    8.5713   -4.0906    0.8419 C   0  0  0  0  0  0  0  0  0  0  0  0
    4.1960   -0.9016    0.4897 C   0  0  0  0  0  0  0  0  0  0  0  0
    0.1439    1.0918   -0.0851 H   0  0  0  0  0  0  0  0  0  0  0  0
    0.6624    0.8239    1.6084 H   0  0  0  0  0  0  0  0  0  0  0  0
   -0.0636   -0.4986    0.6607 H   0  0  0  0  0  0  0  0  0  0  0  0
    2.4375    0.8030   -0.1916 H   0  0  0  0  0  0  0  0  0  0  0  0
    2.7159   -0.4427    1.9833 H   0  0  0  0  0  0  0  0  0  0  0  0
    1.1120   -2.3141    1.2445 H   0  0  0  0  0  0  0  0  0  0  0  0
    2.6933   -2.8228    1.8566 H   0  0  0  0  0  0  0  0  0  0  0  0
    1.8877   -2.6096   -1.1012 H   0  0  0  0  0  0  0  0  0  0  0  0
    2.1663   -4.1112   -0.1862 H   0  0  0  0  0  0  0  0  0  0  0  0
    4.1632   -1.8485   -2.8880 H   0  0  0  0  0  0  0  0  0  0  0  0
    4.6413   -0.2468   -2.2661 H   0  0  0  0  0  0  0  0  0  0  0  0
    2.9802   -0.8255   -2.0085 H   0  0  0  0  0  0  0  0  0  0  0  0
    6.5601   -1.1622   -0.7942 H   0  0  0  0  0  0  0  0  0  0  0  0
    6.2010   -2.5405   -1.8399 H   0  0  0  0  0  0  0  0  0  0  0  0
    6.0554   -4.0535    0.1012 H   0  0  0  0  0  0  0  0  0  0  0  0
    6.3564   -2.7095    1.2268 H   0  0  0  0  0  0  0  0  0  0  0  0
    9.6423   -4.1125    0.5898 H   0  0  0  0  0  0  0  0  0  0  0  0
    8.1643   -5.1180    0.7378 H   0  0  0  0  0  0  0  0  0  0  0  0
    8.4685   -3.7970    1.9080 H   0  0  0  0  0  0  0  0  0  0  0  0
    4.5589    0.1221    0.2904 H   0  0  0  0  0  0  0  0  0  0  0  0
    4.7868   -1.2756    1.3399 H   0  0  0  0  0  0  0  0  0  0  0  0
  1  2  1  0
  1 14  1  0
  1 15  1  0
  1 16  1  0
  2  3  1  0
  2 17  1  0
  3  4  1  0
  3 13  1  0
  3 18  1  1
  4  5  1  0
  4 19  1  0
  4 20  1  0
  5  6  1  0
  5 21  1  0
  5 22  1  0
  6  7  1  0
  7  8  1  6
  7  9  1  0
  7 13  1  0
  8 23  1  0
  8 24  1  0
  8 25  1  0
  9 10  1  0
  9 26  1  0
  9 27  1  0
 10 11  1  0
 10 28  1  0
 10 29  1  0
 11 12  1  0
 12 30  1  0
 12 31  1  0
 12 32  1  0
 13 33  1  0
 13 34  1  0
M  END

