
     RDKit          3D

 29 30  0  0  0  0  0  0  0  0999 V2000
    1.4091    0.1541    0.7413 C   0  0  0  0  0  0  0  0  0  0  0  0
    2.2603    0.2317   -0.3825 O   0  0  0  0  0  0  0  0  0  0  0  0
    2.7528   -0.9031   -0.9272 C   0  0  0  0  0  0  0  0  0  0  0  0
    3.5870   -0.7443   -2.0504 C   0  0  0  0  0  0  0  0  0  0  0  0
    4.1389   -1.8519   -2.6739 C   0  0  0  0  0  0  0  0  0  0  0  0
    3.9022   -3.1674   -2.2045 C   0  0  0  0  0  0  0  0  0  0  0  0
    4.5259   -4.2820   -2.9030 C   0  0  0  0  0  0  0  0  0  0  0  0
    4.7224   -5.5649   -2.5105 C   0  0  0  0  0  0  0  0  0  0  0  0
    4.4386   -6.2229   -1.3169 N   0  0  0  0  0  0  0  0  0  0  0  0
    4.8513   -7.5351   -1.3293 C   0  0  0  0  0  0  0  0  0  0  0  0
    4.7374   -8.6131   -0.0847 S   0  0  0  0  0  0  0  0  0  0  0  0
    5.3828   -7.7586   -2.5886 N   0  0  0  0  0  0  0  0  0  0  0  0
    5.9231   -9.0245   -3.0411 C   0  0  0  0  0  0  0  0  0  0  0  0
    5.3578   -6.5992   -3.3777 C   0  0  0  0  0  0  0  0  0  0  0  0
    5.7681   -6.5007   -4.5130 O   0  0  0  0  0  0  0  0  0  0  0  0
    3.0478   -3.3043   -1.0913 C   0  0  0  0  0  0  0  0  0  0  0  0
    2.4790   -2.1987   -0.4574 C   0  0  0  0  0  0  0  0  0  0  0  0
    1.1450    1.1869    1.0041 H   0  0  0  0  0  0  0  0  0  0  0  0
    1.9122   -0.3176    1.6043 H   0  0  0  0  0  0  0  0  0  0  0  0
    0.4840   -0.4062    0.5167 H   0  0  0  0  0  0  0  0  0  0  0  0
    3.7806    0.2672   -2.4127 H   0  0  0  0  0  0  0  0  0  0  0  0
    4.7820   -1.7089   -3.5462 H   0  0  0  0  0  0  0  0  0  0  0  0
    4.9290   -4.0739   -3.8989 H   0  0  0  0  0  0  0  0  0  0  0  0
    4.1182   -5.8002   -0.4560 H   0  0  0  0  0  0  0  0  0  0  0  0
    6.7594   -9.3379   -2.3988 H   0  0  0  0  0  0  0  0  0  0  0  0
    6.2710   -8.8796   -4.0720 H   0  0  0  0  0  0  0  0  0  0  0  0
    5.1510   -9.8072   -3.0074 H   0  0  0  0  0  0  0  0  0  0  0  0
    2.7715   -4.2958   -0.7279 H   0  0  0  0  0  0  0  0  0  0  0  0
    1.8159   -2.3587    0.3928 H   0  0  0  0  0  0  0  0  0  0  0  0
  1  2  1  0
  1 18  1  0
  1 19  1  0
  1 20  1  0
  2  3  1  0
  3  4  2  0
  3 17  1  0
  4  5  1  0
  4 21  1  0
  5  6  2  0
  5 22  1  0
  6  7  1  0
  6 16  1  0
  7  8  2  0
  7 23  1  0
  8  9  1  0
  8 14  1  0
  9 10  1  0
  9 24  1  0
 10 11  2  0
 10 12  1  0
 12 13  1  0
 12 14  1  0
 13 25  1  0
 13 26  1  0
 13 27  1  0
 14 15  2  0
 16 17  2  0
 16 28  1  0
 17 29  1  0
M  END

