
     RDKit          3D

 33 33  0  0  0  0  0  0  0  0999 V2000
    0.9136   -0.4703   -0.1880 N   0  0  0  0  0  0  0  0  0  0  0  0
    2.3340   -0.2614    0.0651 C   0  0  1  0  0  0  0  0  0  0  0  0
    2.7691   -0.6837    1.4884 C   0  0  0  0  0  0  0  0  0  0  0  0
    4.2472   -0.4938    1.8084 C   0  0  0  0  0  0  0  0  0  0  0  0
    4.6372    0.8062    1.4095 O   0  0  0  0  0  0  0  0  0  0  0  0
    6.0060    1.0821    1.4843 C   0  0  0  0  0  0  0  0  0  0  0  0
    6.3137    2.1708    0.4752 C   0  0  1  0  0  0  0  0  0  0  0  0
    7.6080    2.5570    0.6135 F   0  0  0  0  0  0  0  0  0  0  0  0
    6.1557    1.6834   -0.7884 F   0  0  0  0  0  0  0  0  0  0  0  0
    3.1764   -0.9490   -1.0318 C   0  0  0  0  0  0  0  0  0  0  0  0
    2.8070   -0.5180   -2.4297 C   0  0  0  0  0  0  0  0  0  0  0  0
    3.4171    0.5899   -3.0362 C   0  0  0  0  0  0  0  0  0  0  0  0
    3.0378    0.9968   -4.3183 C   0  0  0  0  0  0  0  0  0  0  0  0
    3.8917    2.5095   -5.1138 Br  0  0  0  0  0  0  0  0  0  0  0  0
    2.0492    0.3129   -5.0290 C   0  0  0  0  0  0  0  0  0  0  0  0
    1.4368   -0.7956   -4.4389 C   0  0  0  0  0  0  0  0  0  0  0  0
    1.8193   -1.1877   -3.1605 C   0  0  0  0  0  0  0  0  0  0  0  0
    1.2278   -2.2679   -2.6161 F   0  0  0  0  0  0  0  0  0  0  0  0
    0.3443    0.0433    0.4840 H   0  0  0  0  0  0  0  0  0  0  0  0
    0.6663   -1.4570   -0.0997 H   0  0  0  0  0  0  0  0  0  0  0  0
    2.5217    0.8216   -0.0221 H   0  0  0  0  0  0  0  0  0  0  0  0
    2.5158   -1.7472    1.6507 H   0  0  0  0  0  0  0  0  0  0  0  0
    2.1653   -0.1048    2.2090 H   0  0  0  0  0  0  0  0  0  0  0  0
    4.8631   -1.2456    1.2751 H   0  0  0  0  0  0  0  0  0  0  0  0
    4.4301   -0.6420    2.8921 H   0  0  0  0  0  0  0  0  0  0  0  0
    6.6253    0.2015    1.2222 H   0  0  0  0  0  0  0  0  0  0  0  0
    6.3134    1.4268    2.4918 H   0  0  0  0  0  0  0  0  0  0  0  0
    5.6582    3.0518    0.5873 H   0  0  0  0  0  0  0  0  0  0  0  0
    3.0669   -2.0432   -0.9407 H   0  0  0  0  0  0  0  0  0  0  0  0
    4.2346   -0.7051   -0.8622 H   0  0  0  0  0  0  0  0  0  0  0  0
    4.1978    1.1315   -2.4974 H   0  0  0  0  0  0  0  0  0  0  0  0
    1.7614    0.6361   -6.0304 H   0  0  0  0  0  0  0  0  0  0  0  0
    0.6615   -1.3601   -4.9606 H   0  0  0  0  0  0  0  0  0  0  0  0
  1  2  1  0
  1 19  1  0
  1 20  1  0
  2  3  1  0
  2 10  1  0
  2 21  1  1
  3  4  1  0
  3 22  1  0
  3 23  1  0
  4  5  1  0
  4 24  1  0
  4 25  1  0
  5  6  1  0
  6  7  1  0
  6 26  1  0
  6 27  1  0
  7  8  1  0
  7  9  1  0
  7 28  1  1
 10 11  1  0
 10 29  1  0
 10 30  1  0
 11 12  2  0
 11 17  1  0
 12 13  1  0
 12 31  1  0
 13 14  1  0
 13 15  2  0
 15 16  1  0
 15 32  1  0
 16 17  2  0
 16 33  1  0
 17 18  1  0
M  END

