
     RDKit          3D

 30 31  0  0  0  0  0  0  0  0999 V2000
    1.6685   -0.0458    0.6915 C   0  0  0  0  0  0  0  0  0  0  0  0
    2.7639   -0.1054   -0.1937 O   0  0  0  0  0  0  0  0  0  0  0  0
    3.2335   -1.3185   -0.5910 C   0  0  0  0  0  0  0  0  0  0  0  0
    4.3741   -1.3024   -1.4107 C   0  0  0  0  0  0  0  0  0  0  0  0
    4.9177   -2.4988   -1.8702 C   0  0  0  0  0  0  0  0  0  0  0  0
    4.3285   -3.7071   -1.5028 C   0  0  0  0  0  0  0  0  0  0  0  0
    4.8618   -4.8570   -1.9641 F   0  0  0  0  0  0  0  0  0  0  0  0
    3.1964   -3.7620   -0.6882 C   0  0  0  0  0  0  0  0  0  0  0  0
    2.5936   -5.0965   -0.2824 C   0  0  0  0  0  0  0  0  0  0  0  0
    3.2775   -5.7814    0.8739 C   0  0  0  0  0  0  0  0  0  0  0  0
    3.1570   -5.1136    2.4999 S   0  0  0  0  0  0  0  0  0  0  0  0
    4.1143   -6.4640    3.0876 C   0  0  0  0  0  0  0  0  0  0  0  0
    4.3909   -6.6220    4.4268 N   0  0  0  0  0  0  0  0  0  0  0  0
    4.4866   -7.3037    2.1670 N   0  0  0  0  0  0  0  0  0  0  0  0
    4.0239   -6.9343    0.9184 C   0  0  0  0  0  0  0  0  0  0  0  0
    4.3725   -7.8156   -0.2469 C   0  0  0  0  0  0  0  0  0  0  0  0
    2.6525   -2.5463   -0.2405 C   0  0  0  0  0  0  0  0  0  0  0  0
    1.4980    1.0193    0.8993 H   0  0  0  0  0  0  0  0  0  0  0  0
    1.8772   -0.5698    1.6422 H   0  0  0  0  0  0  0  0  0  0  0  0
    0.7531   -0.4734    0.2430 H   0  0  0  0  0  0  0  0  0  0  0  0
    4.8143   -0.3403   -1.6792 H   0  0  0  0  0  0  0  0  0  0  0  0
    5.8000   -2.5110   -2.5136 H   0  0  0  0  0  0  0  0  0  0  0  0
    2.6136   -5.7825   -1.1413 H   0  0  0  0  0  0  0  0  0  0  0  0
    1.5301   -4.9336   -0.0372 H   0  0  0  0  0  0  0  0  0  0  0  0
    4.4523   -5.7878    4.9984 H   0  0  0  0  0  0  0  0  0  0  0  0
    5.1088   -7.3160    4.6106 H   0  0  0  0  0  0  0  0  0  0  0  0
    5.4443   -8.0656   -0.2071 H   0  0  0  0  0  0  0  0  0  0  0  0
    4.1665   -7.3351   -1.2109 H   0  0  0  0  0  0  0  0  0  0  0  0
    3.8224   -8.7726   -0.1991 H   0  0  0  0  0  0  0  0  0  0  0  0
    1.7643   -2.5813    0.3923 H   0  0  0  0  0  0  0  0  0  0  0  0
  1  2  1  0
  1 18  1  0
  1 19  1  0
  1 20  1  0
  2  3  1  0
  3  4  2  0
  3 17  1  0
  4  5  1  0
  4 21  1  0
  5  6  2  0
  5 22  1  0
  6  7  1  0
  6  8  1  0
  8  9  1  0
  8 17  2  0
  9 10  1  0
  9 23  1  0
  9 24  1  0
 10 11  1  0
 10 15  2  0
 11 12  1  0
 12 13  1  0
 12 14  2  0
 13 25  1  0
 13 26  1  0
 14 15  1  0
 15 16  1  0
 16 27  1  0
 16 28  1  0
 16 29  1  0
 17 30  1  0
M  END

