
     RDKit          3D

 50 52  0  0  0  0  0  0  0  0999 V2000
    3.3699    4.9797   -5.1638 C   0  0  0  0  0  0  0  0  0  0  0  0
    2.4038    4.1009   -5.9757 C   0  0  1  0  0  0  0  0  0  0  0  0
    2.7982    4.0483   -7.4621 C   0  0  0  0  0  0  0  0  0  0  0  0
    2.3413    2.7063   -5.3965 C   0  0  0  0  0  0  0  0  0  0  0  0
    3.3624    1.9080   -5.2799 N   0  0  0  0  0  0  0  0  0  0  0  0
    3.0183    0.6983   -4.7227 C   0  0  0  0  0  0  0  0  0  0  0  0
    4.0792   -0.3570   -4.5198 C   0  0  0  0  0  0  0  0  0  0  0  0
    4.1102   -1.3949   -5.5722 N   0  0  0  0  0  0  0  0  0  0  0  0
    3.2782   -2.4848   -5.3795 C   0  0  0  0  0  0  0  0  0  0  0  0
    2.4868   -2.5186   -4.4448 O   0  0  0  0  0  0  0  0  0  0  0  0
    3.3832   -3.6687   -6.2980 C   0  0  0  0  0  0  0  0  0  0  0  0
    2.2336   -4.4670   -6.4720 C   0  0  0  0  0  0  0  0  0  0  0  0
    2.2987   -5.6162   -7.2405 C   0  0  0  0  0  0  0  0  0  0  0  0
    3.5459   -5.9539   -7.8006 C   0  0  0  0  0  0  0  0  0  0  0  0
    3.5925   -7.0910   -8.5375 O   0  0  0  0  0  0  0  0  0  0  0  0
    4.7863   -7.4387   -9.2080 C   0  0  0  0  0  0  0  0  0  0  0  0
    4.6639   -7.1319  -10.6926 C   0  0  1  0  0  0  0  0  0  0  0  0
    4.4185   -5.8323  -10.9109 F   0  0  0  0  0  0  0  0  0  0  0  0
    5.8139   -7.4505  -11.3108 F   0  0  0  0  0  0  0  0  0  0  0  0
    3.6792   -7.8341  -11.2707 F   0  0  0  0  0  0  0  0  0  0  0  0
    4.6435   -5.2412   -7.6160 N   0  0  0  0  0  0  0  0  0  0  0  0
    4.5678   -4.1234   -6.8869 C   0  0  0  0  0  0  0  0  0  0  0  0
    4.7119   -1.0512   -6.8216 C   0  0  0  0  0  0  0  0  0  0  0  0
    3.9438   -0.9621   -7.9916 C   0  0  0  0  0  0  0  0  0  0  0  0
    4.5348   -0.6163   -9.2078 C   0  0  0  0  0  0  0  0  0  0  0  0
    5.9019   -0.3309   -9.2528 C   0  0  0  0  0  0  0  0  0  0  0  0
    6.6461    0.1143  -10.7692 Cl  0  0  0  0  0  0  0  0  0  0  0  0
    6.6795   -0.3942   -8.0919 C   0  0  0  0  0  0  0  0  0  0  0  0
    6.0829   -0.7578   -6.8851 C   0  0  0  0  0  0  0  0  0  0  0  0
    1.6884    0.5627   -4.4029 C   0  0  0  0  0  0  0  0  0  0  0  0
    0.8379    2.0082   -4.8155 S   0  0  0  0  0  0  0  0  0  0  0  0
    3.4138    5.9973   -5.5837 H   0  0  0  0  0  0  0  0  0  0  0  0
    4.3832    4.5502   -5.1829 H   0  0  0  0  0  0  0  0  0  0  0  0
    3.0540    5.0556   -4.1116 H   0  0  0  0  0  0  0  0  0  0  0  0
    1.3923    4.5358   -5.9012 H   0  0  0  0  0  0  0  0  0  0  0  0
    3.7885    3.5816   -7.5781 H   0  0  0  0  0  0  0  0  0  0  0  0
    2.8380    5.0633   -7.8889 H   0  0  0  0  0  0  0  0  0  0  0  0
    2.0754    3.4584   -8.0471 H   0  0  0  0  0  0  0  0  0  0  0  0
    3.9223   -0.8737   -3.5658 H   0  0  0  0  0  0  0  0  0  0  0  0
    5.0564    0.1426   -4.5043 H   0  0  0  0  0  0  0  0  0  0  0  0
    1.3038   -4.1652   -5.9860 H   0  0  0  0  0  0  0  0  0  0  0  0
    1.4343   -6.2585   -7.4134 H   0  0  0  0  0  0  0  0  0  0  0  0
    4.9376   -8.5220   -9.0946 H   0  0  0  0  0  0  0  0  0  0  0  0
    5.6464   -6.8874   -8.8055 H   0  0  0  0  0  0  0  0  0  0  0  0
    5.5051   -3.5768   -6.7545 H   0  0  0  0  0  0  0  0  0  0  0  0
    2.8719   -1.1633   -7.9491 H   0  0  0  0  0  0  0  0  0  0  0  0
    3.9364   -0.5541  -10.1180 H   0  0  0  0  0  0  0  0  0  0  0  0
    7.7460   -0.1690   -8.1395 H   0  0  0  0  0  0  0  0  0  0  0  0
    6.6921   -0.8239   -5.9809 H   0  0  0  0  0  0  0  0  0  0  0  0
    1.2011   -0.3089   -3.9710 H   0  0  0  0  0  0  0  0  0  0  0  0
  1  2  1  0
  1 32  1  0
  1 33  1  0
  1 34  1  0
  2  3  1  0
  2  4  1  0
  2 35  1  6
  3 36  1  0
  3 37  1  0
  3 38  1  0
  4  5  2  0
  4 31  1  0
  5  6  1  0
  6  7  1  0
  6 30  2  0
  7  8  1  0
  7 39  1  0
  7 40  1  0
  8  9  1  0
  8 23  1  0
  9 10  2  0
  9 11  1  0
 11 12  2  0
 11 22  1  0
 12 13  1  0
 12 41  1  0
 13 14  2  0
 13 42  1  0
 14 15  1  0
 14 21  1  0
 15 16  1  0
 16 17  1  0
 16 43  1  0
 16 44  1  0
 17 18  1  1
 17 19  1  0
 17 20  1  0
 21 22  2  0
 22 45  1  0
 23 24  2  0
 23 29  1  0
 24 25  1  0
 24 46  1  0
 25 26  2  0
 25 47  1  0
 26 27  1  0
 26 28  1  0
 28 29  2  0
 28 48  1  0
 29 49  1  0
 30 31  1  0
 30 50  1  0
M  END

