
     RDKit          3D

 42 44  0  0  0  0  0  0  0  0999 V2000
    2.3825    1.2389    0.1145 C   0  0  0  0  0  0  0  0  0  0  0  0
    2.2923   -0.2767    0.2810 C   0  0  0  0  0  0  0  0  0  0  0  0
    3.1675   -0.8504    1.4126 C   0  0  1  0  0  0  0  0  0  0  0  0
    3.0364   -2.3833    1.5145 C   0  0  0  0  0  0  0  0  0  0  0  0
    3.6531   -3.0404    0.4307 O   0  0  0  0  0  0  0  0  0  0  0  0
    5.0434   -2.7692    0.3860 C   0  0  0  0  0  0  0  0  0  0  0  0
    5.3080   -1.2750    0.2357 C   0  0  0  0  0  0  0  0  0  0  0  0
    4.5923   -0.5196    1.2625 N   0  0  0  0  0  0  0  0  0  0  0  0
    5.3343    0.2752    2.1252 C   0  0  0  0  0  0  0  0  0  0  0  0
    6.5596    0.2914    2.1088 O   0  0  0  0  0  0  0  0  0  0  0  0
    4.6147    1.0453    3.0218 N   0  0  0  0  0  0  0  0  0  0  0  0
    5.3085    1.9534    3.9249 C   0  0  2  0  0  0  0  0  0  0  0  0
    4.3962    2.3169    5.1096 C   0  0  0  0  0  0  0  0  0  0  0  0
    5.1351    3.1175    6.1976 C   0  0  0  0  0  0  0  0  0  0  0  0
    5.9683    4.2021    5.5753 C   0  0  0  0  0  0  0  0  0  0  0  0
    6.6173    5.3525    6.0975 C   0  0  0  0  0  0  0  0  0  0  0  0
    7.2762    6.0172    5.1527 N   0  0  0  0  0  0  0  0  0  0  0  0
    7.0641    5.3119    4.0288 N   0  0  0  0  0  0  0  0  0  0  0  0
    7.4784    5.6262    3.1598 H   0  0  0  0  0  0  0  0  0  0  0  0
    6.2858    4.2128    4.2256 C   0  0  0  0  0  0  0  0  0  0  0  0
    5.8345    3.2184    3.2041 C   0  0  0  0  0  0  0  0  0  0  0  0
    1.7558    1.5844   -0.7225 H   0  0  0  0  0  0  0  0  0  0  0  0
    3.4162    1.5604   -0.0882 H   0  0  0  0  0  0  0  0  0  0  0  0
    2.0353    1.7704    1.0179 H   0  0  0  0  0  0  0  0  0  0  0  0
    2.5597   -0.7790   -0.6631 H   0  0  0  0  0  0  0  0  0  0  0  0
    1.2478   -0.5683    0.4869 H   0  0  0  0  0  0  0  0  0  0  0  0
    2.8236   -0.4452    2.3759 H   0  0  0  0  0  0  0  0  0  0  0  0
    1.9757   -2.6785    1.5098 H   0  0  0  0  0  0  0  0  0  0  0  0
    3.4866   -2.7171    2.4721 H   0  0  0  0  0  0  0  0  0  0  0  0
    5.4521   -3.3251   -0.4716 H   0  0  0  0  0  0  0  0  0  0  0  0
    5.5321   -3.1426    1.3094 H   0  0  0  0  0  0  0  0  0  0  0  0
    4.9843   -0.9449   -0.7686 H   0  0  0  0  0  0  0  0  0  0  0  0
    6.3768   -1.0530    0.3461 H   0  0  0  0  0  0  0  0  0  0  0  0
    3.6606    1.2923    2.7882 H   0  0  0  0  0  0  0  0  0  0  0  0
    6.1839    1.4038    4.3048 H   0  0  0  0  0  0  0  0  0  0  0  0
    3.9777    1.3905    5.5341 H   0  0  0  0  0  0  0  0  0  0  0  0
    3.5425    2.9123    4.7329 H   0  0  0  0  0  0  0  0  0  0  0  0
    5.7765    2.4320    6.7823 H   0  0  0  0  0  0  0  0  0  0  0  0
    4.4080    3.5345    6.9144 H   0  0  0  0  0  0  0  0  0  0  0  0
    6.6282    5.7200    7.1243 H   0  0  0  0  0  0  0  0  0  0  0  0
    6.6463    2.9242    2.5202 H   0  0  0  0  0  0  0  0  0  0  0  0
    5.0232    3.6413    2.5807 H   0  0  0  0  0  0  0  0  0  0  0  0
  1  2  1  0
  1 22  1  0
  1 23  1  0
  1 24  1  0
  2  3  1  0
  2 25  1  0
  2 26  1  0
  3  4  1  0
  3  8  1  0
  3 27  1  1
  4  5  1  0
  4 28  1  0
  4 29  1  0
  5  6  1  0
  6  7  1  0
  6 30  1  0
  6 31  1  0
  7  8  1  0
  7 32  1  0
  7 33  1  0
  8  9  1  0
  9 10  2  0
  9 11  1  0
 11 12  1  0
 11 34  1  0
 12 13  1  0
 12 21  1  0
 12 35  1  1
 13 14  1  0
 13 36  1  0
 13 37  1  0
 14 15  1  0
 14 38  1  0
 14 39  1  0
 15 16  1  0
 15 20  2  0
 16 17  2  0
 16 40  1  0
 17 18  1  0
 18 19  1  0
 18 20  1  0
 20 21  1  0
 21 41  1  0
 21 42  1  0
M  END

