
     RDKit          3D

 52 54  0  0  0  0  0  0  0  0999 V2000
    2.7192   -9.1750    0.4614 C   0  0  0  0  0  0  0  0  0  0  0  0
    2.0873   -8.8028    1.7645 C   0  0  0  0  0  0  0  0  0  0  0  0
    2.1489   -9.6075    2.8213 N   0  0  0  0  0  0  0  0  0  0  0  0
    1.4883   -8.9795    3.8133 N   0  0  0  0  0  0  0  0  0  0  0  0
    1.3748   -9.6063    5.1111 C   0  0  0  0  0  0  0  0  0  0  0  0
    1.0026   -7.7628    3.4325 C   0  0  0  0  0  0  0  0  0  0  0  0
    0.2482   -6.8489    4.3404 C   0  0  0  0  0  0  0  0  0  0  0  0
    1.3688   -7.6173    2.0971 C   0  0  0  0  0  0  0  0  0  0  0  0
    1.0553   -6.5211    1.2699 N   0  0  0  0  0  0  0  0  0  0  0  0
    1.9466   -5.7977    0.5302 C   0  0  0  0  0  0  0  0  0  0  0  0
    3.1460   -5.9977    0.4741 O   0  0  0  0  0  0  0  0  0  0  0  0
    1.3032   -4.6248   -0.2332 C   0  0  0  0  0  0  0  0  0  0  0  0
   -0.1424   -4.7325   -0.3881 N   0  0  0  0  0  0  0  0  0  0  0  0
   -0.8923   -3.4744   -0.3659 C   0  0  0  0  0  0  0  0  0  0  0  0
   -0.8414   -2.7092   -1.6944 C   0  0  0  0  0  0  0  0  0  0  0  0
   -1.2625   -3.5817   -2.7886 N   0  0  0  0  0  0  0  0  0  0  0  0
   -2.2144   -3.1374   -3.6701 C   0  0  0  0  0  0  0  0  0  0  0  0
   -2.7517   -2.0452   -3.5496 O   0  0  0  0  0  0  0  0  0  0  0  0
   -2.6013   -4.0944   -4.8212 C   0  0  1  0  0  0  0  0  0  0  0  0
   -3.6495   -3.4921   -5.7725 C   0  0  0  0  0  0  0  0  0  0  0  0
   -3.1403   -3.9055   -7.1606 C   0  0  0  0  0  0  0  0  0  0  0  0
   -1.6292   -3.9077   -6.9414 C   0  0  0  0  0  0  0  0  0  0  0  0
   -1.4511   -4.4090   -5.6192 O   0  0  0  0  0  0  0  0  0  0  0  0
   -0.5138   -4.8339   -2.8689 C   0  0  0  0  0  0  0  0  0  0  0  0
   -0.5663   -5.5653   -1.5186 C   0  0  0  0  0  0  0  0  0  0  0  0
    3.1374  -10.1890    0.5280 H   0  0  0  0  0  0  0  0  0  0  0  0
    3.5159   -8.4613    0.2011 H   0  0  0  0  0  0  0  0  0  0  0  0
    1.9835   -9.1531   -0.3607 H   0  0  0  0  0  0  0  0  0  0  0  0
    1.8683  -10.5830    5.0418 H   0  0  0  0  0  0  0  0  0  0  0  0
    0.3201   -9.7538    5.3963 H   0  0  0  0  0  0  0  0  0  0  0  0
    1.8708   -9.0084    5.8937 H   0  0  0  0  0  0  0  0  0  0  0  0
    0.8037   -6.6448    5.2712 H   0  0  0  0  0  0  0  0  0  0  0  0
   -0.7361   -7.2572    4.6301 H   0  0  0  0  0  0  0  0  0  0  0  0
    0.0770   -5.8852    3.8396 H   0  0  0  0  0  0  0  0  0  0  0  0
    0.0940   -6.1913    1.1904 H   0  0  0  0  0  0  0  0  0  0  0  0
    1.8701   -4.5292   -1.1786 H   0  0  0  0  0  0  0  0  0  0  0  0
    1.5374   -3.7193    0.3510 H   0  0  0  0  0  0  0  0  0  0  0  0
   -0.5129   -2.8410    0.4515 H   0  0  0  0  0  0  0  0  0  0  0  0
   -1.9473   -3.7081   -0.1370 H   0  0  0  0  0  0  0  0  0  0  0  0
    0.1872   -2.3468   -1.8868 H   0  0  0  0  0  0  0  0  0  0  0  0
   -1.5091   -1.8386   -1.6823 H   0  0  0  0  0  0  0  0  0  0  0  0
   -2.9670   -5.0383   -4.3756 H   0  0  0  0  0  0  0  0  0  0  0  0
   -3.6565   -2.3996   -5.6512 H   0  0  0  0  0  0  0  0  0  0  0  0
   -4.6638   -3.8557   -5.5541 H   0  0  0  0  0  0  0  0  0  0  0  0
   -3.4595   -3.2193   -7.9595 H   0  0  0  0  0  0  0  0  0  0  0  0
   -3.4852   -4.9191   -7.4240 H   0  0  0  0  0  0  0  0  0  0  0  0
   -1.2134   -2.8842   -7.0295 H   0  0  0  0  0  0  0  0  0  0  0  0
   -1.0743   -4.5630   -7.6306 H   0  0  0  0  0  0  0  0  0  0  0  0
    0.5347   -4.6103   -3.1423 H   0  0  0  0  0  0  0  0  0  0  0  0
   -0.9033   -5.4707   -3.6697 H   0  0  0  0  0  0  0  0  0  0  0  0
    0.0593   -6.4707   -1.5561 H   0  0  0  0  0  0  0  0  0  0  0  0
   -1.6054   -5.8935   -1.3364 H   0  0  0  0  0  0  0  0  0  0  0  0
  1  2  1  0
  1 26  1  0
  1 27  1  0
  1 28  1  0
  2  3  2  0
  2  8  1  0
  3  4  1  0
  4  5  1  0
  4  6  1  0
  5 29  1  0
  5 30  1  0
  5 31  1  0
  6  7  1  0
  6  8  2  0
  7 32  1  0
  7 33  1  0
  7 34  1  0
  8  9  1  0
  9 10  1  0
  9 35  1  0
 10 11  2  0
 10 12  1  0
 12 13  1  0
 12 36  1  0
 12 37  1  0
 13 14  1  0
 13 25  1  0
 14 15  1  0
 14 38  1  0
 14 39  1  0
 15 16  1  0
 15 40  1  0
 15 41  1  0
 16 17  1  0
 16 24  1  0
 17 18  2  0
 17 19  1  0
 19 20  1  0
 19 23  1  0
 19 42  1  1
 20 21  1  0
 20 43  1  0
 20 44  1  0
 21 22  1  0
 21 45  1  0
 21 46  1  0
 22 23  1  0
 22 47  1  0
 22 48  1  0
 24 25  1  0
 24 49  1  0
 24 50  1  0
 25 51  1  0
 25 52  1  0
M  END

