
     RDKit          3D

 53 56  0  0  0  0  0  0  0  0999 V2000
    1.5218   -5.0120   -0.7818 C   0  0  0  0  0  0  0  0  0  0  0  0
    3.0034   -4.7344   -0.7089 C   0  0  0  0  0  0  0  0  0  0  0  0
    3.6748   -4.0517   -1.7351 C   0  0  0  0  0  0  0  0  0  0  0  0
    5.0462   -3.8178   -1.6717 C   0  0  0  0  0  0  0  0  0  0  0  0
    5.8028   -4.2606   -0.5702 C   0  0  0  0  0  0  0  0  0  0  0  0
    7.1809   -3.9677   -0.6115 N   0  0  0  0  0  0  0  0  0  0  0  0
    8.1956   -4.2312    0.2367 C   0  0  0  0  0  0  0  0  0  0  0  0
    8.1857   -5.0303    1.7029 S   0  0  0  0  0  0  0  0  0  0  0  0
    9.4466   -3.7464   -0.2087 N   0  0  0  0  0  0  0  0  0  0  0  0
    9.7832   -3.0611   -1.3562 C   0  0  0  0  0  0  0  0  0  0  0  0
    8.9520   -2.7599   -2.2065 O   0  0  0  0  0  0  0  0  0  0  0  0
   11.2703   -2.7055   -1.4972 C   0  0  2  0  0  0  0  0  0  0  0  0
   11.7458   -1.8221   -0.3120 C   0  0  0  0  0  0  0  0  0  0  0  0
   13.2317   -1.4648   -0.4969 C   0  0  1  0  0  0  0  0  0  0  0  0
   14.0696   -2.7551   -0.5335 C   0  0  0  0  0  0  0  0  0  0  0  0
   13.6336   -3.6532   -1.7143 C   0  0  2  0  0  0  0  0  0  0  0  0
   14.4653   -4.9391   -1.7559 C   0  0  0  0  0  0  0  0  0  0  0  0
   13.8009   -2.8517   -3.0245 C   0  0  0  0  0  0  0  0  0  0  0  0
   12.9660   -1.5513   -3.0130 C   0  0  2  0  0  0  0  0  0  0  0  0
   13.1444   -0.7851   -4.3276 C   0  0  0  0  0  0  0  0  0  0  0  0
   13.4191   -0.6903   -1.8121 C   0  0  0  0  0  0  0  0  0  0  0  0
   11.4809   -1.9263   -2.8128 C   0  0  0  0  0  0  0  0  0  0  0  0
   12.1353   -3.9947   -1.5377 C   0  0  0  0  0  0  0  0  0  0  0  0
    5.1449   -4.9429    0.4671 C   0  0  0  0  0  0  0  0  0  0  0  0
    3.7697   -5.1668    0.3838 C   0  0  0  0  0  0  0  0  0  0  0  0
    1.0338   -4.4051   -1.5592 H   0  0  0  0  0  0  0  0  0  0  0  0
    1.0233   -4.7992    0.1776 H   0  0  0  0  0  0  0  0  0  0  0  0
    1.3241   -6.0723   -1.0182 H   0  0  0  0  0  0  0  0  0  0  0  0
    3.1147   -3.6930   -2.6034 H   0  0  0  0  0  0  0  0  0  0  0  0
    5.5430   -3.2815   -2.4855 H   0  0  0  0  0  0  0  0  0  0  0  0
    7.4891   -3.4535   -1.4486 H   0  0  0  0  0  0  0  0  0  0  0  0
   10.1804   -3.9656    0.4570 H   0  0  0  0  0  0  0  0  0  0  0  0
   11.6105   -2.3471    0.6491 H   0  0  0  0  0  0  0  0  0  0  0  0
   11.1326   -0.9064   -0.2622 H   0  0  0  0  0  0  0  0  0  0  0  0
   13.5561   -0.8385    0.3513 H   0  0  0  0  0  0  0  0  0  0  0  0
   13.9613   -3.3086    0.4162 H   0  0  0  0  0  0  0  0  0  0  0  0
   15.1407   -2.5076   -0.6339 H   0  0  0  0  0  0  0  0  0  0  0  0
   15.5369   -4.7121   -1.8810 H   0  0  0  0  0  0  0  0  0  0  0  0
   14.1591   -5.5855   -2.5951 H   0  0  0  0  0  0  0  0  0  0  0  0
   14.3518   -5.5196   -0.8252 H   0  0  0  0  0  0  0  0  0  0  0  0
   13.4989   -3.4781   -3.8830 H   0  0  0  0  0  0  0  0  0  0  0  0
   14.8680   -2.6076   -3.1731 H   0  0  0  0  0  0  0  0  0  0  0  0
   14.2003   -0.5100   -4.4867 H   0  0  0  0  0  0  0  0  0  0  0  0
   12.5504    0.1438   -4.3307 H   0  0  0  0  0  0  0  0  0  0  0  0
   12.8214   -1.3924   -5.1894 H   0  0  0  0  0  0  0  0  0  0  0  0
   12.8387    0.2487   -1.7875 H   0  0  0  0  0  0  0  0  0  0  0  0
   14.4786   -0.4053   -1.9353 H   0  0  0  0  0  0  0  0  0  0  0  0
   11.1249   -2.5341   -3.6599 H   0  0  0  0  0  0  0  0  0  0  0  0
   10.8569   -1.0181   -2.8061 H   0  0  0  0  0  0  0  0  0  0  0  0
   12.0071   -4.5813   -0.6114 H   0  0  0  0  0  0  0  0  0  0  0  0
   11.7979   -4.6394   -2.3675 H   0  0  0  0  0  0  0  0  0  0  0  0
    5.7122   -5.2892    1.3280 H   0  0  0  0  0  0  0  0  0  0  0  0
    3.2793   -5.6982    1.2051 H   0  0  0  0  0  0  0  0  0  0  0  0
  1  2  1  0
  1 26  1  0
  1 27  1  0
  1 28  1  0
  2  3  2  0
  2 25  1  0
  3  4  1  0
  3 29  1  0
  4  5  2  0
  4 30  1  0
  5  6  1  0
  5 24  1  0
  6  7  1  0
  6 31  1  0
  7  8  2  0
  7  9  1  0
  9 10  1  0
  9 32  1  0
 10 11  2  0
 12 10  1  1
 12 13  1  0
 12 22  1  0
 12 23  1  0
 13 14  1  0
 13 33  1  0
 13 34  1  0
 14 15  1  0
 14 21  1  0
 14 35  1  1
 15 16  1  0
 15 36  1  0
 15 37  1  0
 16 17  1  6
 16 18  1  0
 16 23  1  0
 17 38  1  0
 17 39  1  0
 17 40  1  0
 18 19  1  0
 18 41  1  0
 18 42  1  0
 19 20  1  6
 19 21  1  0
 19 22  1  0
 20 43  1  0
 20 44  1  0
 20 45  1  0
 21 46  1  0
 21 47  1  0
 22 48  1  0
 22 49  1  0
 23 50  1  0
 23 51  1  0
 24 25  2  0
 24 52  1  0
 25 53  1  0
M  END

