
     RDKit          3D

 38 39  0  0  0  0  0  0  0  0999 V2000
    0.6964   -0.6185    1.0069 C   0  0  0  0  0  0  0  0  0  0  0  0
    1.8099   -0.0763    0.1128 C   0  0  0  0  0  0  0  0  0  0  0  0
    2.7864   -1.1103   -0.4481 C   0  0  1  0  0  0  0  0  0  0  0  0
    3.8785   -0.5330   -1.3142 C   0  0  0  0  0  0  0  0  0  0  0  0
    5.2156   -0.5944   -0.8983 C   0  0  0  0  0  0  0  0  0  0  0  0
    6.2241   -0.0188   -1.6758 C   0  0  0  0  0  0  0  0  0  0  0  0
    5.9089    0.6162   -2.8812 C   0  0  0  0  0  0  0  0  0  0  0  0
    4.5780    0.6727   -3.3063 C   0  0  0  0  0  0  0  0  0  0  0  0
    3.5678    0.1047   -2.5251 C   0  0  0  0  0  0  0  0  0  0  0  0
    3.2039   -2.1163    0.4707 O   0  0  0  0  0  0  0  0  0  0  0  0
    2.3791   -2.5372   -0.6017 C   0  0  2  0  0  0  0  0  0  0  0  0
    1.3515   -2.8159   -0.3407 H   0  0  0  0  0  0  0  0  0  0  0  0
    2.9285   -3.4227   -1.6874 C   0  0  0  0  0  0  0  0  0  0  0  0
    2.2233   -3.8619   -2.5649 O   0  0  0  0  0  0  0  0  0  0  0  0
    4.2367   -3.6604   -1.5710 O   0  0  0  0  0  0  0  0  0  0  0  0
    4.8466   -4.4717   -2.5895 C   0  0  0  0  0  0  0  0  0  0  0  0
    6.3037   -4.7185   -2.2122 C   0  0  1  0  0  0  0  0  0  0  0  0
    6.4270   -5.4521   -0.8719 C   0  0  0  0  0  0  0  0  0  0  0  0
    7.0083   -5.4750   -3.3449 C   0  0  0  0  0  0  0  0  0  0  0  0
    0.1562    0.2104    1.4892 H   0  0  0  0  0  0  0  0  0  0  0  0
    1.1092   -1.2614    1.7990 H   0  0  0  0  0  0  0  0  0  0  0  0
   -0.0441   -1.2040    0.4395 H   0  0  0  0  0  0  0  0  0  0  0  0
    2.4232    0.6457    0.6801 H   0  0  0  0  0  0  0  0  0  0  0  0
    1.3859    0.4926   -0.7313 H   0  0  0  0  0  0  0  0  0  0  0  0
    5.4540   -1.1092    0.0340 H   0  0  0  0  0  0  0  0  0  0  0  0
    7.2630   -0.0682   -1.3388 H   0  0  0  0  0  0  0  0  0  0  0  0
    6.6988    1.0639   -3.4898 H   0  0  0  0  0  0  0  0  0  0  0  0
    4.3239    1.1601   -4.2512 H   0  0  0  0  0  0  0  0  0  0  0  0
    2.5307    0.1494   -2.8687 H   0  0  0  0  0  0  0  0  0  0  0  0
    4.7616   -3.9481   -3.5557 H   0  0  0  0  0  0  0  0  0  0  0  0
    4.2844   -5.4169   -2.6789 H   0  0  0  0  0  0  0  0  0  0  0  0
    6.7796   -3.7264   -2.1092 H   0  0  0  0  0  0  0  0  0  0  0  0
    5.9776   -6.4587   -0.9311 H   0  0  0  0  0  0  0  0  0  0  0  0
    5.9165   -4.8996   -0.0693 H   0  0  0  0  0  0  0  0  0  0  0  0
    7.4838   -5.5750   -0.5857 H   0  0  0  0  0  0  0  0  0  0  0  0
    6.5560   -6.4693   -3.5024 H   0  0  0  0  0  0  0  0  0  0  0  0
    8.0728   -5.6305   -3.1090 H   0  0  0  0  0  0  0  0  0  0  0  0
    6.9536   -4.9267   -4.2995 H   0  0  0  0  0  0  0  0  0  0  0  0
  1  2  1  0
  1 20  1  0
  1 21  1  0
  1 22  1  0
  3  2  1  1
  2 23  1  0
  2 24  1  0
  3  4  1  0
  3 10  1  0
  3 11  1  0
  4  5  2  0
  4  9  1  0
  5  6  1  0
  5 25  1  0
  6  7  2  0
  6 26  1  0
  7  8  1  0
  7 27  1  0
  8  9  2  0
  8 28  1  0
  9 29  1  0
 10 11  1  0
 11 12  1  1
 11 13  1  0
 13 14  2  0
 13 15  1  0
 15 16  1  0
 16 17  1  0
 16 30  1  0
 16 31  1  0
 17 18  1  0
 17 19  1  0
 17 32  1  1
 18 33  1  0
 18 34  1  0
 18 35  1  0
 19 36  1  0
 19 37  1  0
 19 38  1  0
M  END

