
     RDKit          3D

 50 53  0  0  0  0  0  0  0  0999 V2000
   18.3549    3.8852   -4.6782 C   0  0  0  0  0  0  0  0  0  0  0  0
   17.7701    2.8934   -3.6844 C   0  0  0  0  0  0  0  0  0  0  0  0
   18.2874    2.6537   -2.6126 O   0  0  0  0  0  0  0  0  0  0  0  0
   16.5996    2.2940   -4.1248 N   0  0  0  0  0  0  0  0  0  0  0  0
   15.7983    1.3390   -3.4865 C   0  0  0  0  0  0  0  0  0  0  0  0
   16.0868    0.8115   -2.2130 C   0  0  0  0  0  0  0  0  0  0  0  0
   15.2342   -0.1372   -1.6517 C   0  0  0  0  0  0  0  0  0  0  0  0
   14.0848   -0.5865   -2.3245 C   0  0  0  0  0  0  0  0  0  0  0  0
   13.1403   -1.5984   -1.7669 C   0  0  0  0  0  0  0  0  0  0  0  0
   12.1512   -1.9555   -2.3804 O   0  0  0  0  0  0  0  0  0  0  0  0
   13.4525   -2.1776   -0.3940 C   0  0  0  0  0  0  0  0  0  0  0  0
   12.1539   -3.3796    0.0545 S   0  0  0  0  0  0  0  0  0  0  0  0
   12.7689   -3.8299    1.6614 C   0  0  0  0  0  0  0  0  0  0  0  0
   13.8283   -3.2837    2.1545 N   0  0  0  0  0  0  0  0  0  0  0  0
   14.2646   -3.6759    3.4061 C   0  0  0  0  0  0  0  0  0  0  0  0
   15.4199   -3.0803    3.9567 C   0  0  0  0  0  0  0  0  0  0  0  0
   15.8739   -3.4647    5.2115 C   0  0  0  0  0  0  0  0  0  0  0  0
   15.1948   -4.4508    5.9529 C   0  0  0  0  0  0  0  0  0  0  0  0
   14.0570   -5.0477    5.4255 C   0  0  0  0  0  0  0  0  0  0  0  0
   13.5865   -4.6655    4.1567 C   0  0  0  0  0  0  0  0  0  0  0  0
   12.3839   -5.2987    3.5995 C   0  0  0  0  0  0  0  0  0  0  0  0
   11.7240   -6.1655    4.1348 O   0  0  0  0  0  0  0  0  0  0  0  0
   12.0116   -4.7966    2.3189 N   0  0  0  0  0  0  0  0  0  0  0  0
   10.8630   -5.3896    1.7009 C   0  0  0  0  0  0  0  0  0  0  0  0
    9.5940   -4.8105    1.7960 C   0  0  0  0  0  0  0  0  0  0  0  0
    8.4865   -5.4157    1.2024 C   0  0  0  0  0  0  0  0  0  0  0  0
    8.6677   -6.6192    0.5224 C   0  0  0  0  0  0  0  0  0  0  0  0
    7.6142   -7.2106   -0.0484 F   0  0  0  0  0  0  0  0  0  0  0  0
    9.9150   -7.2320    0.4171 C   0  0  0  0  0  0  0  0  0  0  0  0
   11.0012   -6.6037    1.0157 C   0  0  0  0  0  0  0  0  0  0  0  0
   12.2070   -7.1651    0.9360 F   0  0  0  0  0  0  0  0  0  0  0  0
   13.8066   -0.0520   -3.5963 C   0  0  0  0  0  0  0  0  0  0  0  0
   14.6456    0.8921   -4.1680 C   0  0  0  0  0  0  0  0  0  0  0  0
   19.2526    4.3323   -4.2353 H   0  0  0  0  0  0  0  0  0  0  0  0
   17.6322    4.6823   -4.9181 H   0  0  0  0  0  0  0  0  0  0  0  0
   18.6293    3.3823   -5.6201 H   0  0  0  0  0  0  0  0  0  0  0  0
   16.2704    2.5818   -5.0396 H   0  0  0  0  0  0  0  0  0  0  0  0
   16.9730    1.1527   -1.6841 H   0  0  0  0  0  0  0  0  0  0  0  0
   15.4852   -0.5275   -0.6632 H   0  0  0  0  0  0  0  0  0  0  0  0
   13.5028   -1.3901    0.3722 H   0  0  0  0  0  0  0  0  0  0  0  0
   14.4338   -2.6754   -0.3866 H   0  0  0  0  0  0  0  0  0  0  0  0
   15.9367   -2.3187    3.3698 H   0  0  0  0  0  0  0  0  0  0  0  0
   16.7699   -2.9963    5.6277 H   0  0  0  0  0  0  0  0  0  0  0  0
   15.5632   -4.7441    6.9386 H   0  0  0  0  0  0  0  0  0  0  0  0
   13.5056   -5.8166    5.9703 H   0  0  0  0  0  0  0  0  0  0  0  0
    9.4832   -3.8715    2.3408 H   0  0  0  0  0  0  0  0  0  0  0  0
    7.4906   -4.9747    1.2616 H   0  0  0  0  0  0  0  0  0  0  0  0
   10.0388   -8.1756   -0.1149 H   0  0  0  0  0  0  0  0  0  0  0  0
   12.9142   -0.3998   -4.1200 H   0  0  0  0  0  0  0  0  0  0  0  0
   14.4134    1.2960   -5.1582 H   0  0  0  0  0  0  0  0  0  0  0  0
  1  2  1  0
  1 34  1  0
  1 35  1  0
  1 36  1  0
  2  3  2  0
  2  4  1  0
  4  5  1  0
  4 37  1  0
  5  6  2  0
  5 33  1  0
  6  7  1  0
  6 38  1  0
  7  8  2  0
  7 39  1  0
  8  9  1  0
  8 32  1  0
  9 10  2  0
  9 11  1  0
 11 12  1  0
 11 40  1  0
 11 41  1  0
 12 13  2  0
 13 14  1  0
 13 23  1  0
 14 15  2  0
 15 16  1  0
 15 20  1  0
 16 17  2  0
 16 42  1  0
 17 18  1  0
 17 43  1  0
 18 19  2  0
 18 44  1  0
 19 20  1  0
 19 45  1  0
 20 21  2  0
 21 22  1  0
 21 23  1  0
 23 24  1  0
 24 25  2  0
 24 30  1  0
 25 26  1  0
 25 46  1  0
 26 27  2  0
 26 47  1  0
 27 28  1  0
 27 29  1  0
 29 30  2  0
 29 48  1  0
 30 31  1  0
 32 33  2  0
 32 49  1  0
 33 50  1  0
M  CHG  2  12   1  22  -1
M  END

