
     RDKit          3D

 34 34  0  0  0  0  0  0  0  0999 V2000
    3.3572    2.0744   -0.4779 C   0  0  0  0  0  0  0  0  0  0  0  0
    3.9935    1.0657   -1.0792 C   0  0  0  0  0  0  0  0  0  0  0  0
    5.1293    0.2844   -0.4746 C   0  0  0  0  0  0  0  0  0  0  0  0
    4.8109   -1.1300   -0.4013 N   0  0  0  0  0  0  0  0  0  0  0  0
    5.6800   -2.1894   -0.6098 C   0  0  0  0  0  0  0  0  0  0  0  0
    5.3337   -3.4217   -0.7323 N   0  0  0  0  0  0  0  0  0  0  0  0
    3.9334   -3.7543   -0.7468 C   0  0  0  0  0  0  0  0  0  0  0  0
    7.0157   -1.8289   -0.7363 N   0  0  0  0  0  0  0  0  0  0  0  0
    8.0004   -2.8812   -0.9119 C   0  0  0  0  0  0  0  0  0  0  0  0
    9.3794   -2.2810   -0.9653 C   0  0  0  0  0  0  0  0  0  0  0  0
   10.3953   -2.6456   -1.8119 C   0  0  0  0  0  0  0  0  0  0  0  0
   11.8144   -1.7163   -1.4671 S   0  0  0  0  0  0  0  0  0  0  0  0
   10.9340   -0.8781   -0.2046 C   0  0  0  0  0  0  0  0  0  0  0  0
   11.5765    0.1879    0.6398 C   0  0  0  0  0  0  0  0  0  0  0  0
   11.6185   -0.1768    2.1298 C   0  0  0  0  0  0  0  0  0  0  0  0
    9.7041   -1.2855   -0.0719 N   0  0  0  0  0  0  0  0  0  0  0  0
    2.5414    2.6119   -0.9691 H   0  0  0  0  0  0  0  0  0  0  0  0
    3.6347    2.4071    0.5284 H   0  0  0  0  0  0  0  0  0  0  0  0
    3.6880    0.7459   -2.0834 H   0  0  0  0  0  0  0  0  0  0  0  0
    5.3884    0.7158    0.5139 H   0  0  0  0  0  0  0  0  0  0  0  0
    6.0216    0.3871   -1.1142 H   0  0  0  0  0  0  0  0  0  0  0  0
    3.8719   -1.3708   -0.1132 H   0  0  0  0  0  0  0  0  0  0  0  0
    3.7980   -4.8088   -1.0365 H   0  0  0  0  0  0  0  0  0  0  0  0
    3.3375   -3.1416   -1.4584 H   0  0  0  0  0  0  0  0  0  0  0  0
    3.4487   -3.6427    0.2485 H   0  0  0  0  0  0  0  0  0  0  0  0
    7.3450   -1.1007   -0.1069 H   0  0  0  0  0  0  0  0  0  0  0  0
    7.7813   -3.4423   -1.8314 H   0  0  0  0  0  0  0  0  0  0  0  0
    7.9439   -3.6242   -0.0908 H   0  0  0  0  0  0  0  0  0  0  0  0
   10.3779   -3.3924   -2.6034 H   0  0  0  0  0  0  0  0  0  0  0  0
   10.9989    1.1191    0.5049 H   0  0  0  0  0  0  0  0  0  0  0  0
   12.5918    0.3914    0.2642 H   0  0  0  0  0  0  0  0  0  0  0  0
   10.6045   -0.3854    2.5021 H   0  0  0  0  0  0  0  0  0  0  0  0
   12.0442    0.6486    2.7216 H   0  0  0  0  0  0  0  0  0  0  0  0
   12.2330   -1.0746    2.3016 H   0  0  0  0  0  0  0  0  0  0  0  0
  1  2  2  0
  1 17  1  0
  1 18  1  0
  2  3  1  0
  2 19  1  0
  3  4  1  0
  3 20  1  0
  3 21  1  0
  4  5  1  0
  4 22  1  0
  5  6  2  0
  5  8  1  0
  6  7  1  0
  7 23  1  0
  7 24  1  0
  7 25  1  0
  8  9  1  0
  8 26  1  0
  9 10  1  0
  9 27  1  0
  9 28  1  0
 10 11  2  0
 10 16  1  0
 11 12  1  0
 11 29  1  0
 12 13  1  0
 13 14  1  0
 13 16  2  0
 14 15  1  0
 14 30  1  0
 14 31  1  0
 15 32  1  0
 15 33  1  0
 15 34  1  0
M  END

