
     RDKit          3D

166172  0  0  0  0  0  0  0  0999 V2000
    1.4696    0.3921    1.3257 C   0  0  0  0  0  0  0  0  0  0  0  0
    2.9485    0.1545    1.2140 C   0  0  0  0  0  0  0  0  0  0  0  0
    3.8352    1.1524    0.9186 C   0  0  0  0  0  0  0  0  0  0  0  0
    3.3229    2.3900    0.7104 O   0  0  0  0  0  0  0  0  0  0  0  0
    4.1179    3.4871    0.5727 C   0  0  0  0  0  0  0  0  0  0  0  0
    3.4787    4.7261    0.4566 C   0  0  0  0  0  0  0  0  0  0  0  0
    1.9794    4.8589    0.4682 C   0  0  0  0  0  0  0  0  0  0  0  0
    4.3063    5.8668    0.3661 C   0  0  0  0  0  0  0  0  0  0  0  0
    3.7563    7.1260    0.3078 N   0  0  0  0  0  0  0  0  0  0  0  0
    5.7127    5.7166    0.4069 C   0  0  0  0  0  0  0  0  0  0  0  0
    6.3275    4.4712    0.5011 C   0  0  0  0  0  0  0  0  0  0  0  0
    7.8221    4.4341    0.7282 C   0  0  0  0  0  0  0  0  0  0  0  0
    8.3423    3.7464    1.5793 O   0  0  0  0  0  0  0  0  0  0  0  0
    8.5287    5.3467   -0.0439 N   0  0  0  0  0  0  0  0  0  0  0  0
    9.7850    5.8442    0.3924 C   0  0  1  0  0  0  0  0  0  0  0  0
   10.6168    6.1855   -0.7470 O   0  0  0  0  0  0  0  0  0  0  0  0
   11.8227    5.6234   -0.9417 C   0  0  0  0  0  0  0  0  0  0  0  0
   12.1935    4.5936   -0.4427 O   0  0  0  0  0  0  0  0  0  0  0  0
   12.7256    6.5712   -1.7572 C   0  0  2  0  0  0  0  0  0  0  0  0
   11.9839    7.4527   -2.8077 C   0  0  1  0  0  0  0  0  0  0  0  0
   12.9318    8.4895   -3.4235 C   0  0  0  0  0  0  0  0  0  0  0  0
   11.1691    6.7159   -3.8829 C   0  0  0  0  0  0  0  0  0  0  0  0
   13.9394    5.9033   -2.2050 N   0  0  0  0  0  0  0  0  0  0  0  0
   13.8933    5.1170   -3.4380 C   0  0  0  0  0  0  0  0  0  0  0  0
   15.0450    5.7280   -1.4021 C   0  0  0  0  0  0  0  0  0  0  0  0
   16.0180    5.0897   -1.7767 O   0  0  0  0  0  0  0  0  0  0  0  0
   15.0688    6.2181    0.0603 C   0  0  0  0  0  0  0  0  0  0  0  0
   14.7724    7.6171    0.3861 N   0  0  0  0  0  0  0  0  0  0  0  0
   15.5840    8.6164   -0.2943 C   0  0  0  0  0  0  0  0  0  0  0  0
   14.0179    7.8476    1.5114 C   0  0  0  0  0  0  0  0  0  0  0  0
   13.3843    6.9477    2.0488 O   0  0  0  0  0  0  0  0  0  0  0  0
   13.9789    9.2782    2.1216 C   0  0  2  0  0  0  0  0  0  0  0  0
   15.3968    9.7627    2.5712 C   0  0  0  0  0  0  0  0  0  0  0  0
   15.2259   10.2167    4.0282 C   0  0  0  0  0  0  0  0  0  0  0  0
   14.0843    9.3399    4.5296 C   0  0  0  0  0  0  0  0  0  0  0  0
   13.2009    9.2832    3.3610 N   0  0  0  0  0  0  0  0  0  0  0  0
   11.9158    8.8212    3.5512 C   0  0  0  0  0  0  0  0  0  0  0  0
   11.5502    8.4402    4.6492 O   0  0  0  0  0  0  0  0  0  0  0  0
   10.9174    8.9286    2.3801 C   0  0  2  0  0  0  0  0  0  0  0  0
    9.7038    9.8271    2.7711 C   0  0  1  0  0  0  0  0  0  0  0  0
    8.7556    9.2082    3.8037 C   0  0  0  0  0  0  0  0  0  0  0  0
   10.1895   11.2161    3.2080 C   0  0  0  0  0  0  0  0  0  0  0  0
   10.5679    7.5686    1.9524 N   0  0  0  0  0  0  0  0  0  0  0  0
    9.6193    7.2463    1.0450 C   0  0  0  0  0  0  0  0  0  0  0  0
    8.7204    7.9771    0.6481 O   0  0  0  0  0  0  0  0  0  0  0  0
    5.5215    3.2993    0.5580 C   0  0  0  0  0  0  0  0  0  0  0  0
    6.0548    2.0374    0.5955 N   0  0  0  0  0  0  0  0  0  0  0  0
    5.2907    0.9856    0.7897 C   0  0  0  0  0  0  0  0  0  0  0  0
    5.8336   -0.3541    0.9082 C   0  0  0  0  0  0  0  0  0  0  0  0
    7.2618   -0.7020    0.6552 C   0  0  0  0  0  0  0  0  0  0  0  0
    7.7247   -1.8100    0.9757 O   0  0  0  0  0  0  0  0  0  0  0  0
    8.0152    0.1933   -0.0376 N   0  0  0  0  0  0  0  0  0  0  0  0
    9.3869   -0.0566   -0.3590 C   0  0  1  0  0  0  0  0  0  0  0  0
    9.5132   -1.2614   -1.1344 O   0  0  0  0  0  0  0  0  0  0  0  0
   10.4304   -2.1685   -0.7367 C   0  0  0  0  0  0  0  0  0  0  0  0
   11.1615   -2.0380    0.2113 O   0  0  0  0  0  0  0  0  0  0  0  0
   10.4687   -3.3816   -1.6778 C   0  0  2  0  0  0  0  0  0  0  0  0
    9.5814   -4.5559   -1.1804 C   0  0  1  0  0  0  0  0  0  0  0  0
    9.6665   -4.8379    0.3289 C   0  0  0  0  0  0  0  0  0  0  0  0
    8.1181   -4.3133   -1.5846 C   0  0  0  0  0  0  0  0  0  0  0  0
   11.8904   -3.7125   -1.9312 N   0  0  0  0  0  0  0  0  0  0  0  0
   12.5706   -4.8170   -1.2661 C   0  0  0  0  0  0  0  0  0  0  0  0
   12.5844   -2.7222   -2.5606 C   0  0  0  0  0  0  0  0  0  0  0  0
   12.0198   -1.7010   -2.9519 O   0  0  0  0  0  0  0  0  0  0  0  0
   14.1076   -2.8748   -2.7768 C   0  0  0  0  0  0  0  0  0  0  0  0
   14.6804   -1.5839   -3.1032 N   0  0  0  0  0  0  0  0  0  0  0  0
   14.6837   -1.2055   -4.5097 C   0  0  0  0  0  0  0  0  0  0  0  0
   14.9278   -0.7716   -2.0212 C   0  0  0  0  0  0  0  0  0  0  0  0
   14.9414   -1.2322   -0.8854 O   0  0  0  0  0  0  0  0  0  0  0  0
   15.0278    0.7598   -2.2083 C   0  0  2  0  0  0  0  0  0  0  0  0
   15.7483    1.4333   -1.0311 C   0  0  0  0  0  0  0  0  0  0  0  0
   14.6566    1.6441    0.0465 C   0  0  0  0  0  0  0  0  0  0  0  0
   13.3008    1.3975   -0.6599 C   0  0  0  0  0  0  0  0  0  0  0  0
   13.6493    1.2622   -2.0843 N   0  0  0  0  0  0  0  0  0  0  0  0
   12.9129    1.5988   -3.1785 C   0  0  0  0  0  0  0  0  0  0  0  0
   13.4098    1.6635   -4.3012 O   0  0  0  0  0  0  0  0  0  0  0  0
   11.4114    1.9076   -2.9588 C   0  0  1  0  0  0  0  0  0  0  0  0
   10.6792    2.1803   -4.2994 C   0  0  1  0  0  0  0  0  0  0  0  0
   10.5185    0.9213   -5.1609 C   0  0  0  0  0  0  0  0  0  0  0  0
    9.3222    2.8599   -4.0710 C   0  0  0  0  0  0  0  0  0  0  0  0
   10.7828    0.8602   -2.1647 N   0  0  0  0  0  0  0  0  0  0  0  0
    9.9130    1.1485   -1.1717 C   0  0  0  0  0  0  0  0  0  0  0  0
    9.5497    2.2767   -0.8738 O   0  0  0  0  0  0  0  0  0  0  0  0
    4.9664   -1.3884    1.2832 C   0  0  0  0  0  0  0  0  0  0  0  0
    5.3285   -2.6474    1.5233 N   0  0  0  0  0  0  0  0  0  0  0  0
    3.4744   -1.1796    1.4274 C   0  0  0  0  0  0  0  0  0  0  0  0
    2.7768   -2.1506    1.7202 O   0  0  0  0  0  0  0  0  0  0  0  0
    1.2433    1.1930    2.0484 H   0  0  0  0  0  0  0  0  0  0  0  0
    0.9752   -0.5321    1.6510 H   0  0  0  0  0  0  0  0  0  0  0  0
    1.0354    0.6993    0.3591 H   0  0  0  0  0  0  0  0  0  0  0  0
    1.4893    3.8862    0.5901 H   0  0  0  0  0  0  0  0  0  0  0  0
    1.6063    5.3022   -0.4732 H   0  0  0  0  0  0  0  0  0  0  0  0
    1.6456    5.5142    1.2918 H   0  0  0  0  0  0  0  0  0  0  0  0
    2.7874    7.2335    0.0416 H   0  0  0  0  0  0  0  0  0  0  0  0
    4.3609    7.9055    0.0839 H   0  0  0  0  0  0  0  0  0  0  0  0
    6.3236    6.6232    0.4259 H   0  0  0  0  0  0  0  0  0  0  0  0
    7.9883    6.0166   -0.5815 H   0  0  0  0  0  0  0  0  0  0  0  0
   10.2739    5.0870    1.0201 H   0  0  0  0  0  0  0  0  0  0  0  0
   13.0342    7.2891   -0.9833 H   0  0  0  0  0  0  0  0  0  0  0  0
   11.2489    8.0023   -2.1999 H   0  0  0  0  0  0  0  0  0  0  0  0
   13.7214    8.0190   -4.0299 H   0  0  0  0  0  0  0  0  0  0  0  0
   13.4248    9.1003   -2.6496 H   0  0  0  0  0  0  0  0  0  0  0  0
   12.3738    9.1757   -4.0798 H   0  0  0  0  0  0  0  0  0  0  0  0
   11.7948    6.2792   -4.6733 H   0  0  0  0  0  0  0  0  0  0  0  0
   10.4832    7.4276   -4.3695 H   0  0  0  0  0  0  0  0  0  0  0  0
   10.5507    5.9146   -3.4523 H   0  0  0  0  0  0  0  0  0  0  0  0
   12.9467    4.5640   -3.5017 H   0  0  0  0  0  0  0  0  0  0  0  0
   14.7215    4.4022   -3.4296 H   0  0  0  0  0  0  0  0  0  0  0  0
   13.9919    5.7499   -4.3336 H   0  0  0  0  0  0  0  0  0  0  0  0
   16.0947    5.9827    0.3853 H   0  0  0  0  0  0  0  0  0  0  0  0
   14.3738    5.5932    0.6367 H   0  0  0  0  0  0  0  0  0  0  0  0
   15.5973    8.3961   -1.3722 H   0  0  0  0  0  0  0  0  0  0  0  0
   16.6287    8.6183    0.0627 H   0  0  0  0  0  0  0  0  0  0  0  0
   15.1654    9.6217   -0.1683 H   0  0  0  0  0  0  0  0  0  0  0  0
   13.5432    9.9690    1.3797 H   0  0  0  0  0  0  0  0  0  0  0  0
   15.7865   10.5578    1.9213 H   0  0  0  0  0  0  0  0  0  0  0  0
   16.1098    8.9252    2.5221 H   0  0  0  0  0  0  0  0  0  0  0  0
   14.9276   11.2765    4.0692 H   0  0  0  0  0  0  0  0  0  0  0  0
   16.1484   10.1020    4.6158 H   0  0  0  0  0  0  0  0  0  0  0  0
   13.5370    9.7473    5.3892 H   0  0  0  0  0  0  0  0  0  0  0  0
   14.4299    8.3277    4.8123 H   0  0  0  0  0  0  0  0  0  0  0  0
   11.4061    9.4383    1.5290 H   0  0  0  0  0  0  0  0  0  0  0  0
    9.1369    9.9440    1.8366 H   0  0  0  0  0  0  0  0  0  0  0  0
    9.2468    9.0742    4.7766 H   0  0  0  0  0  0  0  0  0  0  0  0
    8.3869    8.2270    3.4718 H   0  0  0  0  0  0  0  0  0  0  0  0
    7.8791    9.8639    3.9356 H   0  0  0  0  0  0  0  0  0  0  0  0
   10.7086   11.1816    4.1796 H   0  0  0  0  0  0  0  0  0  0  0  0
    9.3324   11.8986    3.3191 H   0  0  0  0  0  0  0  0  0  0  0  0
   10.8749   11.6667    2.4699 H   0  0  0  0  0  0  0  0  0  0  0  0
   11.2897    6.8762    2.1428 H   0  0  0  0  0  0  0  0  0  0  0  0
    7.6885    1.1650   -0.0841 H   0  0  0  0  0  0  0  0  0  0  0  0
   10.0130   -0.1836    0.5400 H   0  0  0  0  0  0  0  0  0  0  0  0
   10.0612   -3.0417   -2.6383 H   0  0  0  0  0  0  0  0  0  0  0  0
    9.9269   -5.4460   -1.7358 H   0  0  0  0  0  0  0  0  0  0  0  0
    9.2296   -4.0054    0.9009 H   0  0  0  0  0  0  0  0  0  0  0  0
   10.6951   -4.9771    0.6884 H   0  0  0  0  0  0  0  0  0  0  0  0
    9.0977   -5.7505    0.5693 H   0  0  0  0  0  0  0  0  0  0  0  0
    7.7087   -3.4333   -1.0666 H   0  0  0  0  0  0  0  0  0  0  0  0
    7.5008   -5.1829   -1.3081 H   0  0  0  0  0  0  0  0  0  0  0  0
    8.0147   -4.1583   -2.6702 H   0  0  0  0  0  0  0  0  0  0  0  0
   12.9325   -4.5325   -0.2636 H   0  0  0  0  0  0  0  0  0  0  0  0
   13.4223   -5.1573   -1.8686 H   0  0  0  0  0  0  0  0  0  0  0  0
   11.8944   -5.6732   -1.1674 H   0  0  0  0  0  0  0  0  0  0  0  0
   14.2992   -3.5908   -3.5930 H   0  0  0  0  0  0  0  0  0  0  0  0
   14.5821   -3.2524   -1.8637 H   0  0  0  0  0  0  0  0  0  0  0  0
   13.7305   -1.4967   -4.9757 H   0  0  0  0  0  0  0  0  0  0  0  0
   15.5094   -1.7073   -5.0466 H   0  0  0  0  0  0  0  0  0  0  0  0
   14.7655   -0.1216   -4.6362 H   0  0  0  0  0  0  0  0  0  0  0  0
   15.4327    1.0533   -3.1819 H   0  0  0  0  0  0  0  0  0  0  0  0
   16.1427    2.4024   -1.3713 H   0  0  0  0  0  0  0  0  0  0  0  0
   16.5861    0.8247   -0.6654 H   0  0  0  0  0  0  0  0  0  0  0  0
   14.7023    2.6642    0.4560 H   0  0  0  0  0  0  0  0  0  0  0  0
   14.7772    0.9382    0.8781 H   0  0  0  0  0  0  0  0  0  0  0  0
   12.5991    2.2276   -0.5160 H   0  0  0  0  0  0  0  0  0  0  0  0
   12.8379    0.4700   -0.2903 H   0  0  0  0  0  0  0  0  0  0  0  0
   11.3478    2.8221   -2.3462 H   0  0  0  0  0  0  0  0  0  0  0  0
   11.3320    2.8782   -4.8492 H   0  0  0  0  0  0  0  0  0  0  0  0
    9.8733    0.1793   -4.6628 H   0  0  0  0  0  0  0  0  0  0  0  0
   11.4902    0.4547   -5.3703 H   0  0  0  0  0  0  0  0  0  0  0  0
   10.0463    1.1757   -6.1238 H   0  0  0  0  0  0  0  0  0  0  0  0
    8.6081    2.1792   -3.5814 H   0  0  0  0  0  0  0  0  0  0  0  0
    8.8816    3.1656   -5.0341 H   0  0  0  0  0  0  0  0  0  0  0  0
    9.4050    3.7493   -3.4275 H   0  0  0  0  0  0  0  0  0  0  0  0
   11.0015   -0.1105   -2.3950 H   0  0  0  0  0  0  0  0  0  0  0  0
    6.3258   -2.8648    1.4795 H   0  0  0  0  0  0  0  0  0  0  0  0
    4.5784   -3.2889    1.7656 H   0  0  0  0  0  0  0  0  0  0  0  0
  1  2  1  0
  1 88  1  0
  1 89  1  0
  1 90  1  0
  2  3  2  0
  2 86  1  0
  3  4  1  0
  3 48  1  0
  4  5  1  0
  5  6  2  0
  5 46  1  0
  6  7  1  0
  6  8  1  0
  7 91  1  0
  7 92  1  0
  7 93  1  0
  8  9  1  0
  8 10  2  0
  9 94  1  0
  9 95  1  0
 10 11  1  0
 10 96  1  0
 11 12  1  0
 11 46  2  0
 12 13  2  0
 12 14  1  0
 14 15  1  0
 14 97  1  0
 15 16  1  0
 15 44  1  0
 15 98  1  1
 16 17  1  0
 17 18  2  0
 17 19  1  0
 19 20  1  0
 19 23  1  0
 19 99  1  1
 20 21  1  0
 20 22  1  0
 20100  1  1
 21101  1  0
 21102  1  0
 21103  1  0
 22104  1  0
 22105  1  0
 22106  1  0
 23 24  1  0
 23 25  1  0
 24107  1  0
 24108  1  0
 24109  1  0
 25 26  2  0
 25 27  1  0
 27 28  1  0
 27110  1  0
 27111  1  0
 28 29  1  0
 28 30  1  0
 29112  1  0
 29113  1  0
 29114  1  0
 30 31  2  0
 30 32  1  0
 32 33  1  0
 32 36  1  0
 32115  1  6
 33 34  1  0
 33116  1  0
 33117  1  0
 34 35  1  0
 34118  1  0
 34119  1  0
 35 36  1  0
 35120  1  0
 35121  1  0
 36 37  1  0
 37 38  2  0
 37 39  1  0
 39 40  1  0
 39 43  1  0
 39122  1  6
 40 41  1  0
 40 42  1  0
 40123  1  6
 41124  1  0
 41125  1  0
 41126  1  0
 42127  1  0
 42128  1  0
 42129  1  0
 43 44  1  0
 43130  1  0
 44 45  2  0
 46 47  1  0
 47 48  2  0
 48 49  1  0
 49 50  1  0
 49 84  2  0
 50 51  2  0
 50 52  1  0
 52 53  1  0
 52131  1  0
 53 54  1  0
 53 82  1  0
 53132  1  1
 54 55  1  0
 55 56  2  0
 55 57  1  0
 57 58  1  0
 57 61  1  0
 57133  1  6
 58 59  1  0
 58 60  1  0
 58134  1  6
 59135  1  0
 59136  1  0
 59137  1  0
 60138  1  0
 60139  1  0
 60140  1  0
 61 62  1  0
 61 63  1  0
 62141  1  0
 62142  1  0
 62143  1  0
 63 64  2  0
 63 65  1  0
 65 66  1  0
 65144  1  0
 65145  1  0
 66 67  1  0
 66 68  1  0
 67146  1  0
 67147  1  0
 67148  1  0
 68 69  2  0
 68 70  1  0
 70 71  1  0
 70 74  1  0
 70149  1  6
 71 72  1  0
 71150  1  0
 71151  1  0
 72 73  1  0
 72152  1  0
 72153  1  0
 73 74  1  0
 73154  1  0
 73155  1  0
 74 75  1  0
 75 76  2  0
 75 77  1  0
 77 78  1  0
 77 81  1  0
 77156  1  1
 78 79  1  0
 78 80  1  0
 78157  1  6
 79158  1  0
 79159  1  0
 79160  1  0
 80161  1  0
 80162  1  0
 80163  1  0
 81 82  1  0
 81164  1  0
 82 83  2  0
 84 85  1  0
 84 86  1  0
 85165  1  0
 85166  1  0
 86 87  2  0
M  END

