
     RDKit          3D

 44 43  0  0  0  0  0  0  0  0999 V2000
    0.8850   -0.0673    0.4415 C   0  0  0  0  0  0  0  0  0  0  0  0
    2.4077   -0.0100    0.3102 C   0  0  0  0  0  0  0  0  0  0  0  0
    2.8892    0.7695   -0.9176 C   0  0  0  0  0  0  0  0  0  0  0  0
    4.4130    0.8315   -1.0566 C   0  0  0  0  0  0  0  0  0  0  0  0
    4.8940    1.6108   -2.2842 C   0  0  0  0  0  0  0  0  0  0  0  0
    6.4181    1.6720   -2.4230 C   0  0  0  0  0  0  0  0  0  0  0  0
    6.8991    2.4509   -3.6508 C   0  0  0  0  0  0  0  0  0  0  0  0
    8.4232    2.5112   -3.7894 C   0  0  0  0  0  0  0  0  0  0  0  0
    8.9036    3.2898   -5.0177 C   0  0  0  0  0  0  0  0  0  0  0  0
   10.4277    3.3484   -5.1550 C   0  0  0  0  0  0  0  0  0  0  0  0
   10.9057    4.1275   -6.3842 C   0  0  0  0  0  0  0  0  0  0  0  0
   12.4318    4.1806   -6.5124 C   0  0  0  0  0  0  0  0  0  0  0  0
   12.8856    4.9695   -7.7294 C   0  0  0  0  0  0  0  0  0  0  0  0
   14.3297    4.9196   -7.8830 O   0  0  0  0  0  0  0  0  0  0  0  0
   15.3042    5.9100   -7.0981 P   0  0  0  0  0  0  0  0  0  0  0  0
   16.7227    5.6277   -7.3675 O   0  0  0  0  0  0  0  0  0  0  0  0
   14.6076    6.9124   -6.2640 O   0  0  0  0  0  0  0  0  0  0  0  0
    0.5754   -0.6345    1.3339 H   0  0  0  0  0  0  0  0  0  0  0  0
    0.4247   -0.5515   -0.4363 H   0  0  0  0  0  0  0  0  0  0  0  0
    0.4512    0.9436    0.5232 H   0  0  0  0  0  0  0  0  0  0  0  0
    2.8133   -1.0375    0.2692 H   0  0  0  0  0  0  0  0  0  0  0  0
    2.8396    0.4449    1.2204 H   0  0  0  0  0  0  0  0  0  0  0  0
    2.4840    1.7981   -0.8774 H   0  0  0  0  0  0  0  0  0  0  0  0
    2.4576    0.3151   -1.8292 H   0  0  0  0  0  0  0  0  0  0  0  0
    4.8176   -0.1972   -1.0965 H   0  0  0  0  0  0  0  0  0  0  0  0
    4.8441    1.2857   -0.1448 H   0  0  0  0  0  0  0  0  0  0  0  0
    4.4901    2.6397   -2.2444 H   0  0  0  0  0  0  0  0  0  0  0  0
    4.4630    1.1569   -3.1962 H   0  0  0  0  0  0  0  0  0  0  0  0
    6.8222    0.6432   -2.4628 H   0  0  0  0  0  0  0  0  0  0  0  0
    6.8494    2.1261   -1.5113 H   0  0  0  0  0  0  0  0  0  0  0  0
    6.4957    3.4800   -3.6109 H   0  0  0  0  0  0  0  0  0  0  0  0
    6.4677    1.9971   -4.5626 H   0  0  0  0  0  0  0  0  0  0  0  0
    8.8268    1.4823   -3.8293 H   0  0  0  0  0  0  0  0  0  0  0  0
    8.8548    2.9656   -2.8783 H   0  0  0  0  0  0  0  0  0  0  0  0
    8.5012    4.3191   -4.9778 H   0  0  0  0  0  0  0  0  0  0  0  0
    8.4723    2.8356   -5.9293 H   0  0  0  0  0  0  0  0  0  0  0  0
   10.8315    2.3199   -5.1963 H   0  0  0  0  0  0  0  0  0  0  0  0
   10.8604    3.8042   -4.2456 H   0  0  0  0  0  0  0  0  0  0  0  0
   10.5045    5.1567   -6.3418 H   0  0  0  0  0  0  0  0  0  0  0  0
   10.4755    3.6717   -7.2951 H   0  0  0  0  0  0  0  0  0  0  0  0
   12.8434    3.1585   -6.5774 H   0  0  0  0  0  0  0  0  0  0  0  0
   12.8632    4.6481   -5.6100 H   0  0  0  0  0  0  0  0  0  0  0  0
   12.5658    6.0206   -7.6642 H   0  0  0  0  0  0  0  0  0  0  0  0
   12.4965    4.5348   -8.6617 H   0  0  0  0  0  0  0  0  0  0  0  0
  1  2  1  0
  1 18  1  0
  1 19  1  0
  1 20  1  0
  2  3  1  0
  2 21  1  0
  2 22  1  0
  3  4  1  0
  3 23  1  0
  3 24  1  0
  4  5  1  0
  4 25  1  0
  4 26  1  0
  5  6  1  0
  5 27  1  0
  5 28  1  0
  6  7  1  0
  6 29  1  0
  6 30  1  0
  7  8  1  0
  7 31  1  0
  7 32  1  0
  8  9  1  0
  8 33  1  0
  8 34  1  0
  9 10  1  0
  9 35  1  0
  9 36  1  0
 10 11  1  0
 10 37  1  0
 10 38  1  0
 11 12  1  0
 11 39  1  0
 11 40  1  0
 12 13  1  0
 12 41  1  0
 12 42  1  0
 13 14  1  0
 13 43  1  0
 13 44  1  0
 14 15  1  0
 15 16  2  0
 15 17  2  0
M  END

