
     RDKit          3D

 32 34  0  0  0  0  0  0  0  0999 V2000
    2.5180   -0.1029    1.4432 C   0  0  0  0  0  0  0  0  0  0  0  0
    3.2175   -0.3815    0.2559 O   0  0  0  0  0  0  0  0  0  0  0  0
    3.6094    0.6464   -0.5521 C   0  0  0  0  0  0  0  0  0  0  0  0
    3.3440    2.0078   -0.2675 C   0  0  0  0  0  0  0  0  0  0  0  0
    3.7688    3.0175   -1.1327 C   0  0  0  0  0  0  0  0  0  0  0  0
    4.4674    2.6522   -2.2864 C   0  0  0  0  0  0  0  0  0  0  0  0
    4.7385    1.2857   -2.5913 C   0  0  0  0  0  0  0  0  0  0  0  0
    5.4605    1.2763   -3.8367 C   0  0  0  0  0  0  0  0  0  0  0  0
    5.6002    2.5845   -4.2277 C   0  0  0  0  0  0  0  0  0  0  0  0
    5.0127    3.4298   -3.3013 N   0  0  0  0  0  0  0  0  0  0  0  0
    4.9322    4.8655   -3.4061 C   0  0  0  0  0  0  0  0  0  0  0  0
    3.6413    5.3554   -4.0004 C   0  0  0  0  0  0  0  0  0  0  0  0
    2.5468    4.7369   -4.5290 C   0  0  0  0  0  0  0  0  0  0  0  0
    1.6990    5.8264   -4.9164 C   0  0  0  0  0  0  0  0  0  0  0  0
    0.3480    5.7682   -5.5568 C   0  0  0  0  0  0  0  0  0  0  0  0
    2.2547    6.9832   -4.6369 N   0  0  0  0  0  0  0  0  0  0  0  0
    3.4818    6.6879   -4.0575 O   0  0  0  0  0  0  0  0  0  0  0  0
    4.3031    0.2839   -1.7100 C   0  0  0  0  0  0  0  0  0  0  0  0
    2.3148   -1.0705    1.9227 H   0  0  0  0  0  0  0  0  0  0  0  0
    1.5546    0.4052    1.2506 H   0  0  0  0  0  0  0  0  0  0  0  0
    3.1099    0.5195    2.1400 H   0  0  0  0  0  0  0  0  0  0  0  0
    2.7985    2.2867    0.6337 H   0  0  0  0  0  0  0  0  0  0  0  0
    3.5455    4.0612   -0.9015 H   0  0  0  0  0  0  0  0  0  0  0  0
    5.8375    0.4061   -4.3697 H   0  0  0  0  0  0  0  0  0  0  0  0
    6.0869    2.9995   -5.1092 H   0  0  0  0  0  0  0  0  0  0  0  0
    5.7740    5.2266   -4.0198 H   0  0  0  0  0  0  0  0  0  0  0  0
    5.0679    5.3204   -2.4099 H   0  0  0  0  0  0  0  0  0  0  0  0
    2.3647    3.6699   -4.6237 H   0  0  0  0  0  0  0  0  0  0  0  0
   -0.3658    5.2215   -4.9200 H   0  0  0  0  0  0  0  0  0  0  0  0
    0.3936    5.2456   -6.5257 H   0  0  0  0  0  0  0  0  0  0  0  0
   -0.0338    6.7848   -5.7222 H   0  0  0  0  0  0  0  0  0  0  0  0
    4.4906   -0.7744   -1.9016 H   0  0  0  0  0  0  0  0  0  0  0  0
  1  2  1  0
  1 19  1  0
  1 20  1  0
  1 21  1  0
  2  3  1  0
  3  4  2  0
  3 18  1  0
  4  5  1  0
  4 22  1  0
  5  6  2  0
  5 23  1  0
  6  7  1  0
  6 10  1  0
  7  8  1  0
  7 18  2  0
  8  9  2  0
  8 24  1  0
  9 10  1  0
  9 25  1  0
 10 11  1  0
 11 12  1  0
 11 26  1  0
 11 27  1  0
 12 13  2  0
 12 17  1  0
 13 14  1  0
 13 28  1  0
 14 15  1  0
 14 16  2  0
 15 29  1  0
 15 30  1  0
 15 31  1  0
 16 17  1  0
 18 32  1  0
M  END

