
     RDKit          3D

 39 40  0  0  0  0  0  0  0  0999 V2000
    6.3782    1.0960    0.8555 C   0  0  0  0  0  0  0  0  0  0  0  0
    5.5683   -0.1525    0.5500 C   0  0  0  0  0  0  0  0  0  0  0  0
    5.6390   -0.5038   -0.8464 O   0  0  0  0  0  0  0  0  0  0  0  0
    4.7664    0.0786   -1.6874 C   0  0  0  0  0  0  0  0  0  0  0  0
    3.9264    0.8717   -1.3253 O   0  0  0  0  0  0  0  0  0  0  0  0
    4.9977   -0.3663   -3.1300 C   0  0  1  0  0  0  0  0  0  0  0  0
    5.0347   -1.9028   -3.2853 C   0  0  0  0  0  0  0  0  0  0  0  0
    3.6415   -2.5293   -3.1469 C   0  0  0  0  0  0  0  0  0  0  0  0
    2.6251   -1.8895   -4.1016 C   0  0  0  0  0  0  0  0  0  0  0  0
    2.5610   -0.3670   -3.9169 C   0  0  2  0  0  0  0  0  0  0  0  0
    1.5749    0.2026   -4.8138 N   0  0  0  0  0  0  0  0  0  0  0  0
    0.9833    1.4364   -4.6577 C   0  0  0  0  0  0  0  0  0  0  0  0
    1.1659    2.2262   -3.4958 C   0  0  0  0  0  0  0  0  0  0  0  0
    0.5246    3.4538   -3.3340 C   0  0  0  0  0  0  0  0  0  0  0  0
   -0.3125    3.9328   -4.3362 C   0  0  0  0  0  0  0  0  0  0  0  0
   -0.9314    5.1186   -4.1864 F   0  0  0  0  0  0  0  0  0  0  0  0
   -0.5164    3.2026   -5.5030 C   0  0  0  0  0  0  0  0  0  0  0  0
    0.1272    1.9749   -5.6521 C   0  0  0  0  0  0  0  0  0  0  0  0
   -0.1738    0.9906   -7.2708 Br  0  0  0  0  0  0  0  0  0  0  0  0
    3.9644    0.2575   -4.0805 C   0  0  0  0  0  0  0  0  0  0  0  0
    6.3687    1.2917    1.9398 H   0  0  0  0  0  0  0  0  0  0  0  0
    5.9517    1.9734    0.3473 H   0  0  0  0  0  0  0  0  0  0  0  0
    7.4254    0.9744    0.5375 H   0  0  0  0  0  0  0  0  0  0  0  0
    4.5132   -0.0163    0.8293 H   0  0  0  0  0  0  0  0  0  0  0  0
    5.9706   -1.0293    1.0775 H   0  0  0  0  0  0  0  0  0  0  0  0
    6.0018    0.0215   -3.3801 H   0  0  0  0  0  0  0  0  0  0  0  0
    5.7335   -2.3376   -2.5558 H   0  0  0  0  0  0  0  0  0  0  0  0
    5.4369   -2.1302   -4.2880 H   0  0  0  0  0  0  0  0  0  0  0  0
    3.2856   -2.4141   -2.1067 H   0  0  0  0  0  0  0  0  0  0  0  0
    3.6999   -3.6149   -3.3295 H   0  0  0  0  0  0  0  0  0  0  0  0
    1.6215   -2.3186   -3.9496 H   0  0  0  0  0  0  0  0  0  0  0  0
    2.9121   -2.1140   -5.1472 H   0  0  0  0  0  0  0  0  0  0  0  0
    2.2249   -0.1754   -2.8852 H   0  0  0  0  0  0  0  0  0  0  0  0
    1.5026   -0.2071   -5.7384 H   0  0  0  0  0  0  0  0  0  0  0  0
    1.8341    1.8775   -2.7072 H   0  0  0  0  0  0  0  0  0  0  0  0
    0.6779    4.0478   -2.4309 H   0  0  0  0  0  0  0  0  0  0  0  0
   -1.1718    3.5931   -6.2820 H   0  0  0  0  0  0  0  0  0  0  0  0
    3.9111    1.3445   -3.9241 H   0  0  0  0  0  0  0  0  0  0  0  0
    4.2970    0.0960   -5.1206 H   0  0  0  0  0  0  0  0  0  0  0  0
  1  2  1  0
  1 21  1  0
  1 22  1  0
  1 23  1  0
  2  3  1  0
  2 24  1  0
  2 25  1  0
  3  4  1  0
  4  5  2  0
  4  6  1  0
  6  7  1  0
  6 20  1  0
  6 26  1  6
  7  8  1  0
  7 27  1  0
  7 28  1  0
  8  9  1  0
  8 29  1  0
  8 30  1  0
  9 10  1  0
  9 31  1  0
  9 32  1  0
 10 11  1  0
 10 20  1  0
 10 33  1  1
 11 12  1  0
 11 34  1  0
 12 13  2  0
 12 18  1  0
 13 14  1  0
 13 35  1  0
 14 15  2  0
 14 36  1  0
 15 16  1  0
 15 17  1  0
 17 18  2  0
 17 37  1  0
 18 19  1  0
 20 38  1  0
 20 39  1  0
M  END

