
     RDKit          3D

 42 43  0  0  0  0  0  0  0  0999 V2000
    1.1637   -1.3552    2.8557 C   0  0  0  0  0  0  0  0  0  0  0  0
    2.1247   -0.2820    2.3329 C   0  0  0  0  0  0  0  0  0  0  0  0
    2.8053   -0.6139    1.0767 N   0  0  0  0  0  0  0  0  0  0  0  0
    2.1690   -0.1153   -0.1350 C   0  0  0  0  0  0  0  0  0  0  0  0
    0.7938   -0.7093   -0.4404 C   0  0  0  0  0  0  0  0  0  0  0  0
    4.2749   -0.5087    1.0682 C   0  0  1  0  0  0  0  0  0  0  0  0
    4.8293    0.9374    0.9998 C   0  0  0  0  0  0  0  0  0  0  0  0
    4.4425    1.8140    2.0958 N   0  0  0  0  0  0  0  0  0  0  0  0
    5.2994    2.6043    2.8095 C   0  0  0  0  0  0  0  0  0  0  0  0
    4.8000    3.5766    3.7229 C   0  0  0  0  0  0  0  0  0  0  0  0
    5.7142    4.3259    4.4227 C   0  0  0  0  0  0  0  0  0  0  0  0
    7.0793    4.0622    4.1739 C   0  0  0  0  0  0  0  0  0  0  0  0
    8.2983    4.9793    5.0283 Cl  0  0  0  0  0  0  0  0  0  0  0  0
    7.4923    3.1516    3.3237 N   0  0  0  0  0  0  0  0  0  0  0  0
    6.6184    2.4236    2.6403 N   0  0  0  0  0  0  0  0  0  0  0  0
    4.9072   -1.4088    2.1331 C   0  0  0  0  0  0  0  0  0  0  0  0
    4.4538   -2.7366    2.2407 C   0  0  0  0  0  0  0  0  0  0  0  0
    5.0325   -3.6261    3.1465 C   0  0  0  0  0  0  0  0  0  0  0  0
    6.0826   -3.2054    3.9705 C   0  0  0  0  0  0  0  0  0  0  0  0
    6.5473   -1.8939    3.8678 C   0  0  0  0  0  0  0  0  0  0  0  0
    5.9685   -1.0020    2.9554 C   0  0  0  0  0  0  0  0  0  0  0  0
    0.6906   -1.0149    3.7923 H   0  0  0  0  0  0  0  0  0  0  0  0
    1.7065   -2.2876    3.0693 H   0  0  0  0  0  0  0  0  0  0  0  0
    0.3629   -1.5867    2.1396 H   0  0  0  0  0  0  0  0  0  0  0  0
    2.8863   -0.1090    3.1072 H   0  0  0  0  0  0  0  0  0  0  0  0
    1.5697    0.6779    2.2285 H   0  0  0  0  0  0  0  0  0  0  0  0
    2.8405   -0.3504   -0.9778 H   0  0  0  0  0  0  0  0  0  0  0  0
    2.0705    0.9973   -0.1278 H   0  0  0  0  0  0  0  0  0  0  0  0
    0.8356   -1.8096   -0.4564 H   0  0  0  0  0  0  0  0  0  0  0  0
    0.4482   -0.3598   -1.4267 H   0  0  0  0  0  0  0  0  0  0  0  0
    0.0345   -0.4054    0.2959 H   0  0  0  0  0  0  0  0  0  0  0  0
    4.5847   -0.9426    0.0984 H   0  0  0  0  0  0  0  0  0  0  0  0
    4.4885    1.3792    0.0461 H   0  0  0  0  0  0  0  0  0  0  0  0
    5.9250    0.9239    0.9607 H   0  0  0  0  0  0  0  0  0  0  0  0
    3.4600    2.0404    2.1760 H   0  0  0  0  0  0  0  0  0  0  0  0
    3.7244    3.7183    3.8578 H   0  0  0  0  0  0  0  0  0  0  0  0
    5.4140    5.0918    5.1393 H   0  0  0  0  0  0  0  0  0  0  0  0
    3.6336   -3.0639    1.5982 H   0  0  0  0  0  0  0  0  0  0  0  0
    4.6652   -4.6542    3.2078 H   0  0  0  0  0  0  0  0  0  0  0  0
    6.5374   -3.8989    4.6828 H   0  0  0  0  0  0  0  0  0  0  0  0
    7.3722   -1.5525    4.4987 H   0  0  0  0  0  0  0  0  0  0  0  0
    6.3722    0.0097    2.8907 H   0  0  0  0  0  0  0  0  0  0  0  0
  1  2  1  0
  1 22  1  0
  1 23  1  0
  1 24  1  0
  2  3  1  0
  2 25  1  0
  2 26  1  0
  3  4  1  0
  3  6  1  0
  4  5  1  0
  4 27  1  0
  4 28  1  0
  5 29  1  0
  5 30  1  0
  5 31  1  0
  6  7  1  0
  6 16  1  0
  6 32  1  6
  7  8  1  0
  7 33  1  0
  7 34  1  0
  8  9  1  0
  8 35  1  0
  9 10  2  0
  9 15  1  0
 10 11  1  0
 10 36  1  0
 11 12  2  0
 11 37  1  0
 12 13  1  0
 12 14  1  0
 14 15  2  0
 16 17  2  0
 16 21  1  0
 17 18  1  0
 17 38  1  0
 18 19  2  0
 18 39  1  0
 19 20  1  0
 19 40  1  0
 20 21  2  0
 20 41  1  0
 21 42  1  0
M  END

