
     RDKit          3D

 20 20  0  0  0  0  0  0  0  0999 V2000
    1.5168    1.1312    2.7430 C   0  0  0  0  0  0  0  0  0  0  0  0
    3.2615    0.9563    2.3338 S   0  0  1  0  0  0  0  0  0  0  0  0
    4.0176    1.9173    3.1605 O   0  0  0  0  0  0  0  0  0  0  0  0
    3.6061   -0.4711    2.3697 O   0  0  0  0  0  0  0  0  0  0  0  0
    3.3686    1.4862    0.6159 C   0  0  2  0  0  0  0  0  0  0  0  0
    2.9475    0.7146   -0.0354 H   0  0  0  0  0  0  0  0  0  0  0  0
    4.6218    2.2036    0.1845 C   0  0  0  0  0  0  0  0  0  0  0  0
    3.3065    2.9330    0.1735 C   0  0  2  0  0  0  0  0  0  0  0  0
    2.8380    3.0498   -0.8127 H   0  0  0  0  0  0  0  0  0  0  0  0
    3.0417    4.0974    1.1094 C   0  0  0  0  0  0  0  0  0  0  0  0
    1.6146    4.2192    1.4172 N   0  0  0  0  0  0  0  0  0  0  0  0
    1.4473    0.9082    3.8169 H   0  0  0  0  0  0  0  0  0  0  0  0
    0.9494    0.3927    2.1610 H   0  0  0  0  0  0  0  0  0  0  0  0
    1.2146    2.1644    2.5105 H   0  0  0  0  0  0  0  0  0  0  0  0
    5.0850    1.8970   -0.7569 H   0  0  0  0  0  0  0  0  0  0  0  0
    5.3212    2.4629    0.9853 H   0  0  0  0  0  0  0  0  0  0  0  0
    3.4757    5.0053    0.6388 H   0  0  0  0  0  0  0  0  0  0  0  0
    3.5800    3.9327    2.0528 H   0  0  0  0  0  0  0  0  0  0  0  0
    1.0850    4.4875    0.5861 H   0  0  0  0  0  0  0  0  0  0  0  0
    1.4641    4.9606    2.1017 H   0  0  0  0  0  0  0  0  0  0  0  0
  2  1  1  1
  1 12  1  0
  1 13  1  0
  1 14  1  0
  2  3  2  0
  2  4  2  0
  2  5  1  0
  5  6  1  6
  5  7  1  0
  5  8  1  0
  7  8  1  0
  7 15  1  0
  7 16  1  0
  8  9  1  6
  8 10  1  0
 10 11  1  0
 10 17  1  0
 10 18  1  0
 11 19  1  0
 11 20  1  0
M  END

