
     RDKit          3D

 43 48  0  0  0  0  0  0  0  0999 V2000
    1.2552    0.0212    0.7067 O   0  0  0  0  0  0  0  0  0  0  0  0
    2.4277    0.0793    0.3614 C   0  0  0  0  0  0  0  0  0  0  0  0
    3.1289    1.3907    0.2796 C   0  0  0  0  0  0  0  0  0  0  0  0
    2.3857    2.5413    0.6194 C   0  0  0  0  0  0  0  0  0  0  0  0
    2.9507    3.8072    0.5728 C   0  0  0  0  0  0  0  0  0  0  0  0
    4.2913    3.9526    0.1789 C   0  0  0  0  0  0  0  0  0  0  0  0
    5.0467    2.8376   -0.1615 C   0  0  0  0  0  0  0  0  0  0  0  0
    4.4742    1.5504   -0.1141 C   0  0  0  0  0  0  0  0  0  0  0  0
    5.5361    0.2238   -0.5678 S   0  0  0  0  0  0  0  0  0  0  0  0
    4.5195   -1.1982   -0.3966 C   0  0  0  0  0  0  0  0  0  0  0  0
    5.1249   -2.4343   -0.7024 C   0  0  0  0  0  0  0  0  0  0  0  0
    4.4057   -3.6158   -0.6084 C   0  0  0  0  0  0  0  0  0  0  0  0
    3.0601   -3.6010   -0.1836 C   0  0  0  0  0  0  0  0  0  0  0  0
    2.3316   -4.8123   -0.0854 N   0  0  0  0  0  0  0  0  0  0  0  0
    2.7152   -5.9382    0.6524 C   0  0  0  0  0  0  0  0  0  0  0  0
    3.8262   -6.1239    1.4852 C   0  0  0  0  0  0  0  0  0  0  0  0
    3.9610   -7.3556    2.1281 C   0  0  0  0  0  0  0  0  0  0  0  0
    3.0127   -8.3809    1.9554 C   0  0  0  0  0  0  0  0  0  0  0  0
    1.9004   -8.1866    1.1374 C   0  0  0  0  0  0  0  0  0  0  0  0
    1.7412   -6.9585    0.4796 C   0  0  0  0  0  0  0  0  0  0  0  0
    0.7232   -6.4208   -0.4023 C   0  0  0  0  0  0  0  0  0  0  0  0
   -0.4608   -6.9428   -0.9430 C   0  0  0  0  0  0  0  0  0  0  0  0
   -1.2259   -6.1487   -1.7958 C   0  0  0  0  0  0  0  0  0  0  0  0
   -0.8144   -4.8416   -2.1167 C   0  0  0  0  0  0  0  0  0  0  0  0
    0.3588   -4.2978   -1.5917 C   0  0  0  0  0  0  0  0  0  0  0  0
    1.1189   -5.0953   -0.7271 C   0  0  0  0  0  0  0  0  0  0  0  0
    2.4659   -2.3811    0.1260 C   0  0  0  0  0  0  0  0  0  0  0  0
    3.1717   -1.1672    0.0151 C   0  0  0  0  0  0  0  0  0  0  0  0
    1.3479    2.3876    0.9199 H   0  0  0  0  0  0  0  0  0  0  0  0
    2.3582    4.6850    0.8403 H   0  0  0  0  0  0  0  0  0  0  0  0
    4.7482    4.9446    0.1379 H   0  0  0  0  0  0  0  0  0  0  0  0
    6.0897    2.9525   -0.4677 H   0  0  0  0  0  0  0  0  0  0  0  0
    6.1669   -2.4585   -1.0317 H   0  0  0  0  0  0  0  0  0  0  0  0
    4.8773   -4.5642   -0.8722 H   0  0  0  0  0  0  0  0  0  0  0  0
    4.5618   -5.3327    1.6382 H   0  0  0  0  0  0  0  0  0  0  0  0
    4.8205   -7.5224    2.7824 H   0  0  0  0  0  0  0  0  0  0  0  0
    3.1481   -9.3336    2.4728 H   0  0  0  0  0  0  0  0  0  0  0  0
    1.1584   -8.9794    1.0133 H   0  0  0  0  0  0  0  0  0  0  0  0
   -0.7770   -7.9605   -0.7003 H   0  0  0  0  0  0  0  0  0  0  0  0
   -2.1514   -6.5427   -2.2222 H   0  0  0  0  0  0  0  0  0  0  0  0
   -1.4248   -4.2358   -2.7912 H   0  0  0  0  0  0  0  0  0  0  0  0
    0.6676   -3.2843   -1.8512 H   0  0  0  0  0  0  0  0  0  0  0  0
    1.4319   -2.3271    0.4689 H   0  0  0  0  0  0  0  0  0  0  0  0
  1  2  2  0
  2  3  1  0
  2 28  1  0
  3  4  2  0
  3  8  1  0
  4  5  1  0
  4 29  1  0
  5  6  2  0
  5 30  1  0
  6  7  1  0
  6 31  1  0
  7  8  2  0
  7 32  1  0
  8  9  1  0
  9 10  1  0
 10 11  1  0
 10 28  2  0
 11 12  2  0
 11 33  1  0
 12 13  1  0
 12 34  1  0
 13 14  1  0
 13 27  2  0
 14 15  1  0
 14 26  1  0
 15 16  2  0
 15 20  1  0
 16 17  1  0
 16 35  1  0
 17 18  2  0
 17 36  1  0
 18 19  1  0
 18 37  1  0
 19 20  2  0
 19 38  1  0
 20 21  1  0
 21 22  1  0
 21 26  2  0
 22 23  2  0
 22 39  1  0
 23 24  1  0
 23 40  1  0
 24 25  2  0
 24 41  1  0
 25 26  1  0
 25 42  1  0
 27 28  1  0
 27 43  1  0
M  END

