
     RDKit          3D

 41 41  0  0  0  0  0  0  0  0999 V2000
    0.9841    0.2506    0.6172 C   0  0  0  0  0  0  0  0  0  0  0  0
    2.3946    0.1314    0.0973 C   0  0  0  0  0  0  0  0  0  0  0  0
    3.1642    1.2675   -0.1423 C   0  0  0  0  0  0  0  0  0  0  0  0
    4.5009    1.2054   -0.6047 C   0  0  0  0  0  0  0  0  0  0  0  0
    5.1859    2.3927   -0.8075 N   0  0  0  0  0  0  0  0  0  0  0  0
    6.6175    2.4765   -1.0594 C   0  0  1  0  0  0  0  0  0  0  0  0
    6.9554    2.1683   -2.5251 C   0  0  0  0  0  0  0  0  0  0  0  0
    7.1211    3.8827   -0.5844 C   0  0  1  0  0  0  0  0  0  0  0  0
    8.6500    3.9072   -0.4702 C   0  0  0  0  0  0  0  0  0  0  0  0
    6.6247    5.0216   -1.4805 C   0  0  0  0  0  0  0  0  0  0  0  0
    6.5501    4.1577    0.7013 O   0  0  0  0  0  0  0  0  0  0  0  0
    5.0535   -0.0703   -0.8403 C   0  0  0  0  0  0  0  0  0  0  0  0
    4.2814   -1.2129   -0.6275 C   0  0  0  0  0  0  0  0  0  0  0  0
    2.9680   -1.1392   -0.1566 C   0  0  0  0  0  0  0  0  0  0  0  0
    2.2337   -2.3533    0.0334 N   0  0  0  0  0  0  0  0  0  0  0  0
    2.1123   -3.0730    1.5744 S   0  0  1  0  0  0  0  0  0  0  0  0
    3.4730   -4.2457    1.5713 C   0  0  0  0  0  0  0  0  0  0  0  0
    2.3930   -2.0987    2.6333 O   0  0  0  0  0  0  0  0  0  0  0  0
    0.8542   -3.8234    1.5436 O   0  0  0  0  0  0  0  0  0  0  0  0
    0.7048    1.3025    0.7715 H   0  0  0  0  0  0  0  0  0  0  0  0
    0.8796   -0.2811    1.5757 H   0  0  0  0  0  0  0  0  0  0  0  0
    0.2504   -0.1870   -0.0828 H   0  0  0  0  0  0  0  0  0  0  0  0
    2.7237    2.2525    0.0397 H   0  0  0  0  0  0  0  0  0  0  0  0
    4.8616    3.1502   -0.2128 H   0  0  0  0  0  0  0  0  0  0  0  0
    7.1488    1.7343   -0.4232 H   0  0  0  0  0  0  0  0  0  0  0  0
    6.4526    2.8765   -3.1995 H   0  0  0  0  0  0  0  0  0  0  0  0
    6.6142    1.1611   -2.8018 H   0  0  0  0  0  0  0  0  0  0  0  0
    8.0399    2.2121   -2.7086 H   0  0  0  0  0  0  0  0  0  0  0  0
    9.1428    3.7480   -1.4406 H   0  0  0  0  0  0  0  0  0  0  0  0
    9.0059    3.1232    0.2198 H   0  0  0  0  0  0  0  0  0  0  0  0
    8.9740    4.8821   -0.0760 H   0  0  0  0  0  0  0  0  0  0  0  0
    7.1084    4.9984   -2.4670 H   0  0  0  0  0  0  0  0  0  0  0  0
    6.8574    5.9832   -0.9999 H   0  0  0  0  0  0  0  0  0  0  0  0
    5.5360    4.9658   -1.6282 H   0  0  0  0  0  0  0  0  0  0  0  0
    6.8810    3.5002    1.3300 H   0  0  0  0  0  0  0  0  0  0  0  0
    6.0775   -0.1819   -1.1950 H   0  0  0  0  0  0  0  0  0  0  0  0
    4.7048   -2.1980   -0.8389 H   0  0  0  0  0  0  0  0  0  0  0  0
    1.2970   -2.3876   -0.3692 H   0  0  0  0  0  0  0  0  0  0  0  0
    4.4137   -3.6932    1.4514 H   0  0  0  0  0  0  0  0  0  0  0  0
    3.3158   -4.9596    0.7538 H   0  0  0  0  0  0  0  0  0  0  0  0
    3.4456   -4.7490    2.5473 H   0  0  0  0  0  0  0  0  0  0  0  0
  1  2  1  0
  1 20  1  0
  1 21  1  0
  1 22  1  0
  2  3  2  0
  2 14  1  0
  3  4  1  0
  3 23  1  0
  4  5  1  0
  4 12  2  0
  5  6  1  0
  5 24  1  0
  6  7  1  0
  6  8  1  0
  6 25  1  1
  7 26  1  0
  7 27  1  0
  7 28  1  0
  8  9  1  0
  8 10  1  0
  8 11  1  1
  9 29  1  0
  9 30  1  0
  9 31  1  0
 10 32  1  0
 10 33  1  0
 10 34  1  0
 11 35  1  0
 12 13  1  0
 12 36  1  0
 13 14  2  0
 13 37  1  0
 14 15  1  0
 16 15  1  6
 15 38  1  0
 16 17  1  0
 16 18  2  0
 16 19  2  0
 17 39  1  0
 17 40  1  0
 17 41  1  0
M  END

