
     RDKit          3D

 63 67  0  0  0  0  0  0  0  0999 V2000
    7.3443   -2.2849    0.5789 C   0  0  0  0  0  0  0  0  0  0  0  0
    6.5286   -1.4385    1.3569 O   0  0  0  0  0  0  0  0  0  0  0  0
    5.2771   -1.8385    1.6911 C   0  0  0  0  0  0  0  0  0  0  0  0
    4.5171   -0.9282    2.4481 C   0  0  0  0  0  0  0  0  0  0  0  0
    3.2155   -1.2482    2.8194 C   0  0  0  0  0  0  0  0  0  0  0  0
    2.6390   -2.4686    2.4512 C   0  0  0  0  0  0  0  0  0  0  0  0
    3.3889   -3.3862    1.7050 C   0  0  0  0  0  0  0  0  0  0  0  0
    2.8640   -4.7220    1.3429 C   0  0  0  0  0  0  0  0  0  0  0  0
    3.7599   -5.7393    1.4192 O   0  0  0  0  0  0  0  0  0  0  0  0
    1.6138   -5.0399    0.9005 C   0  0  0  0  0  0  0  0  0  0  0  0
    0.5324   -4.1439    0.4864 C   0  0  0  0  0  0  0  0  0  0  0  0
    0.3787   -2.9499    0.6371 O   0  0  0  0  0  0  0  0  0  0  0  0
   -0.4741   -5.0169   -0.2813 C   0  0  0  0  0  0  0  0  0  0  0  0
   -1.4671   -4.5919   -0.8341 O   0  0  0  0  0  0  0  0  0  0  0  0
   -0.0191   -6.3219   -0.2212 N   0  0  0  0  0  0  0  0  0  0  0  0
   -0.6110   -7.4362   -0.8723 C   0  0  0  0  0  0  0  0  0  0  0  0
   -1.8602   -7.3450   -1.5196 C   0  0  0  0  0  0  0  0  0  0  0  0
   -2.4106   -8.4423   -2.1726 C   0  0  0  0  0  0  0  0  0  0  0  0
   -1.7664   -9.7017   -2.2133 C   0  0  0  0  0  0  0  0  0  0  0  0
   -2.3229  -10.7885   -2.8833 N   0  0  0  0  0  0  0  0  0  0  0  0
   -1.5653  -11.9859   -3.2130 C   0  0  0  0  0  0  0  0  0  0  0  0
   -1.9867  -13.1912   -2.3606 C   0  0  0  0  0  0  0  0  0  0  0  0
   -3.4974  -13.4271   -2.4947 C   0  0  0  0  0  0  0  0  0  0  0  0
   -4.2832  -12.1398   -2.2135 C   0  0  0  0  0  0  0  0  0  0  0  0
   -3.7589  -10.9638   -3.0561 C   0  0  0  0  0  0  0  0  0  0  0  0
   -0.5200   -9.7811   -1.5516 C   0  0  0  0  0  0  0  0  0  0  0  0
    0.0416   -8.6807   -0.9075 C   0  0  0  0  0  0  0  0  0  0  0  0
    1.2042   -6.4721    0.5875 C   0  0  2  0  0  0  0  0  0  0  0  0
    0.9860   -7.2981    1.8588 C   0  0  0  0  0  0  0  0  0  0  0  0
    1.9492   -8.2274    2.2739 C   0  0  0  0  0  0  0  0  0  0  0  0
    1.7779   -8.9536    3.4564 C   0  0  0  0  0  0  0  0  0  0  0  0
    0.6362   -8.7606    4.2383 C   0  0  0  0  0  0  0  0  0  0  0  0
   -0.3322   -7.8378    3.8292 C   0  0  0  0  0  0  0  0  0  0  0  0
   -0.1575   -7.1118    2.6490 C   0  0  0  0  0  0  0  0  0  0  0  0
    4.7156   -3.0684    1.3280 C   0  0  0  0  0  0  0  0  0  0  0  0
    8.2933   -1.7534    0.4282 H   0  0  0  0  0  0  0  0  0  0  0  0
    6.8938   -2.4984   -0.4072 H   0  0  0  0  0  0  0  0  0  0  0  0
    7.5508   -3.2429    1.0907 H   0  0  0  0  0  0  0  0  0  0  0  0
    4.9741    0.0244    2.7233 H   0  0  0  0  0  0  0  0  0  0  0  0
    2.6332   -0.5342    3.4066 H   0  0  0  0  0  0  0  0  0  0  0  0
    1.6179   -2.7055    2.7412 H   0  0  0  0  0  0  0  0  0  0  0  0
    4.5377   -5.4417    1.9135 H   0  0  0  0  0  0  0  0  0  0  0  0
   -2.3850   -6.3933   -1.5286 H   0  0  0  0  0  0  0  0  0  0  0  0
   -3.3614   -8.2974   -2.6869 H   0  0  0  0  0  0  0  0  0  0  0  0
   -0.4903  -11.7855   -3.1278 H   0  0  0  0  0  0  0  0  0  0  0  0
   -1.7502  -12.2274   -4.2798 H   0  0  0  0  0  0  0  0  0  0  0  0
   -1.7283  -12.9965   -1.3048 H   0  0  0  0  0  0  0  0  0  0  0  0
   -1.4234  -14.0874   -2.6725 H   0  0  0  0  0  0  0  0  0  0  0  0
   -3.8277  -14.2365   -1.8227 H   0  0  0  0  0  0  0  0  0  0  0  0
   -3.7170  -13.7682   -3.5240 H   0  0  0  0  0  0  0  0  0  0  0  0
   -4.1916  -11.8740   -1.1455 H   0  0  0  0  0  0  0  0  0  0  0  0
   -5.3576  -12.2883   -2.4166 H   0  0  0  0  0  0  0  0  0  0  0  0
   -4.2873  -10.0439   -2.7813 H   0  0  0  0  0  0  0  0  0  0  0  0
   -3.9792  -11.1520   -4.1263 H   0  0  0  0  0  0  0  0  0  0  0  0
    0.0241  -10.7248   -1.5088 H   0  0  0  0  0  0  0  0  0  0  0  0
    0.9984   -8.8239   -0.4079 H   0  0  0  0  0  0  0  0  0  0  0  0
    1.9858   -6.9617   -0.0159 H   0  0  0  0  0  0  0  0  0  0  0  0
    2.8455   -8.3787    1.6670 H   0  0  0  0  0  0  0  0  0  0  0  0
    2.5380   -9.6765    3.7646 H   0  0  0  0  0  0  0  0  0  0  0  0
    0.4982   -9.3299    5.1611 H   0  0  0  0  0  0  0  0  0  0  0  0
   -1.2315   -7.6840    4.4312 H   0  0  0  0  0  0  0  0  0  0  0  0
   -0.9256   -6.4003    2.3354 H   0  0  0  0  0  0  0  0  0  0  0  0
    5.2801   -3.7704    0.7135 H   0  0  0  0  0  0  0  0  0  0  0  0
  1  2  1  0
  1 36  1  0
  1 37  1  0
  1 38  1  0
  2  3  1  0
  3  4  2  0
  3 35  1  0
  4  5  1  0
  4 39  1  0
  5  6  2  0
  5 40  1  0
  6  7  1  0
  6 41  1  0
  7  8  1  0
  7 35  2  0
  8  9  1  0
  8 10  2  0
  9 42  1  0
 10 11  1  0
 10 28  1  0
 11 12  2  0
 11 13  1  0
 13 14  2  0
 13 15  1  0
 15 16  1  0
 15 28  1  0
 16 17  2  0
 16 27  1  0
 17 18  1  0
 17 43  1  0
 18 19  2  0
 18 44  1  0
 19 20  1  0
 19 26  1  0
 20 21  1  0
 20 25  1  0
 21 22  1  0
 21 45  1  0
 21 46  1  0
 22 23  1  0
 22 47  1  0
 22 48  1  0
 23 24  1  0
 23 49  1  0
 23 50  1  0
 24 25  1  0
 24 51  1  0
 24 52  1  0
 25 53  1  0
 25 54  1  0
 26 27  2  0
 26 55  1  0
 27 56  1  0
 28 29  1  0
 28 57  1  6
 29 30  2  0
 29 34  1  0
 30 31  1  0
 30 58  1  0
 31 32  2  0
 31 59  1  0
 32 33  1  0
 32 60  1  0
 33 34  2  0
 33 61  1  0
 34 62  1  0
 35 63  1  0
M  END

