
     RDKit          3D

 42 45  0  0  0  0  0  0  0  0999 V2000
    1.9792    1.3199    2.1752 C   0  0  0  0  0  0  0  0  0  0  0  0
    2.4882    0.2365    1.2249 C   0  0  0  0  0  0  0  0  0  0  0  0
    3.7562    0.5805    0.4318 C   0  0  0  0  0  0  0  0  0  0  0  0
    4.9554    0.8148    1.2540 N   0  0  0  0  0  0  0  0  0  0  0  0
    5.5860   -0.3037    1.7576 C   0  0  0  0  0  0  0  0  0  0  0  0
    5.1735   -1.4353    1.5819 O   0  0  0  0  0  0  0  0  0  0  0  0
    6.8260   -0.0259    2.5959 C   0  0  0  0  0  0  0  0  0  0  0  0
    7.5855    1.0703    2.1198 O   0  0  0  0  0  0  0  0  0  0  0  0
    6.8638    2.1943    1.8625 C   0  0  0  0  0  0  0  0  0  0  0  0
    7.4899    3.4363    1.9664 C   0  0  0  0  0  0  0  0  0  0  0  0
    6.7896    4.6056    1.6776 C   0  0  0  0  0  0  0  0  0  0  0  0
    5.4382    4.5478    1.3045 C   0  0  0  0  0  0  0  0  0  0  0  0
    4.7121    5.8055    0.9636 C   0  0  0  0  0  0  0  0  0  0  0  0
    5.3459    6.6140    0.1612 N   0  0  0  0  0  0  0  0  0  0  0  0
    4.7594    7.7625   -0.2045 N   0  0  0  0  0  0  0  0  0  0  0  0
    5.3026    8.3406   -0.8415 H   0  0  0  0  0  0  0  0  0  0  0  0
    3.4934    8.2309    0.1200 C   0  0  0  0  0  0  0  0  0  0  0  0
    3.0698    9.2804   -0.3347 O   0  0  0  0  0  0  0  0  0  0  0  0
    2.7819    7.3441    1.0612 C   0  0  0  0  0  0  0  0  0  0  0  0
    1.5180    7.7291    1.5367 C   0  0  0  0  0  0  0  0  0  0  0  0
    0.8552    6.9379    2.4662 C   0  0  0  0  0  0  0  0  0  0  0  0
    1.4624    5.7614    2.9384 C   0  0  0  0  0  0  0  0  0  0  0  0
    2.7105    5.3678    2.4689 C   0  0  0  0  0  0  0  0  0  0  0  0
    3.3917    6.1426    1.5029 C   0  0  0  0  0  0  0  0  0  0  0  0
    4.8161    3.2912    1.1951 C   0  0  0  0  0  0  0  0  0  0  0  0
    5.5155    2.1034    1.4489 C   0  0  0  0  0  0  0  0  0  0  0  0
    1.0885    0.9707    2.7212 H   0  0  0  0  0  0  0  0  0  0  0  0
    1.6937    2.2404    1.6389 H   0  0  0  0  0  0  0  0  0  0  0  0
    2.7388    1.5902    2.9270 H   0  0  0  0  0  0  0  0  0  0  0  0
    1.7051   -0.0059    0.4850 H   0  0  0  0  0  0  0  0  0  0  0  0
    2.6803   -0.6953    1.7795 H   0  0  0  0  0  0  0  0  0  0  0  0
    3.6041    1.4628   -0.2047 H   0  0  0  0  0  0  0  0  0  0  0  0
    3.9904   -0.2669   -0.2294 H   0  0  0  0  0  0  0  0  0  0  0  0
    7.4640   -0.9170    2.5591 H   0  0  0  0  0  0  0  0  0  0  0  0
    6.5183    0.1419    3.6484 H   0  0  0  0  0  0  0  0  0  0  0  0
    8.5372    3.4589    2.2739 H   0  0  0  0  0  0  0  0  0  0  0  0
    7.2845    5.5752    1.7474 H   0  0  0  0  0  0  0  0  0  0  0  0
    1.0921    8.6618    1.1617 H   0  0  0  0  0  0  0  0  0  0  0  0
   -0.1277    7.2343    2.8403 H   0  0  0  0  0  0  0  0  0  0  0  0
    0.9532    5.1503    3.6879 H   0  0  0  0  0  0  0  0  0  0  0  0
    3.1733    4.4621    2.8602 H   0  0  0  0  0  0  0  0  0  0  0  0
    3.7786    3.2416    0.8707 H   0  0  0  0  0  0  0  0  0  0  0  0
  1  2  1  0
  1 27  1  0
  1 28  1  0
  1 29  1  0
  2  3  1  0
  2 30  1  0
  2 31  1  0
  3  4  1  0
  3 32  1  0
  3 33  1  0
  4  5  1  0
  4 26  1  0
  5  6  2  0
  5  7  1  0
  7  8  1  0
  7 34  1  0
  7 35  1  0
  8  9  1  0
  9 10  1  0
  9 26  2  0
 10 11  2  0
 10 36  1  0
 11 12  1  0
 11 37  1  0
 12 13  1  0
 12 25  2  0
 13 14  2  0
 13 24  1  0
 14 15  1  0
 15 16  1  0
 15 17  1  0
 17 18  2  0
 17 19  1  0
 19 20  1  0
 19 24  2  0
 20 21  2  0
 20 38  1  0
 21 22  1  0
 21 39  1  0
 22 23  2  0
 22 40  1  0
 23 24  1  0
 23 41  1  0
 25 26  1  0
 25 42  1  0
M  END

