
     RDKit          3D

 41 41  0  0  0  0  0  0  0  0999 V2000
    1.1250    0.0766    0.6890 C   0  0  0  0  0  0  0  0  0  0  0  0
    2.6060   -0.1144    0.6233 C   0  0  0  0  0  0  0  0  0  0  0  0
    3.4568    0.8979    0.8980 N   0  0  0  0  0  0  0  0  0  0  0  0
    3.1940    1.8374    1.1716 H   0  0  0  0  0  0  0  0  0  0  0  0
    4.7777    0.4862    0.7800 C   0  0  0  0  0  0  0  0  0  0  0  0
    5.8791    1.4098    1.0267 C   0  0  0  0  0  0  0  0  0  0  0  0
    7.0632    1.1570    0.9852 O   0  0  0  0  0  0  0  0  0  0  0  0
    5.4007    2.6577    1.3240 O   0  0  0  0  0  0  0  0  0  0  0  0
    6.3641    3.6749    1.6325 C   0  0  0  0  0  0  0  0  0  0  0  0
    6.9327    4.3306    0.3781 C   0  0  0  0  0  0  0  0  0  0  0  0
    5.8670    4.9203   -0.5658 C   0  0  0  0  0  0  0  0  0  0  0  0
    5.0520    5.9690    0.0551 C   0  0  0  0  0  0  0  0  0  0  0  0
    4.4163    6.7859    0.5761 N   0  0  0  0  0  0  0  0  0  0  0  0
    4.7745   -0.8576    0.4074 C   0  0  0  0  0  0  0  0  0  0  0  0
    5.9704   -1.7234    0.1625 C   0  0  0  0  0  0  0  0  0  0  0  0
    3.3956   -1.2377    0.3061 C   0  0  0  0  0  0  0  0  0  0  0  0
    2.9309   -2.5816   -0.0656 C   0  0  0  0  0  0  0  0  0  0  0  0
    3.6591   -3.5148   -0.3316 O   0  0  0  0  0  0  0  0  0  0  0  0
    1.5778   -2.6757   -0.0820 O   0  0  0  0  0  0  0  0  0  0  0  0
    0.9939   -3.9547   -0.4338 C   0  0  1  0  0  0  0  0  0  0  0  0
    0.9176   -4.8439    0.8022 C   0  0  0  0  0  0  0  0  0  0  0  0
   -0.3626   -3.6555   -1.0542 C   0  0  0  0  0  0  0  0  0  0  0  0
    0.8767    1.1093    0.9780 H   0  0  0  0  0  0  0  0  0  0  0  0
    0.6692   -0.6118    1.4161 H   0  0  0  0  0  0  0  0  0  0  0  0
    0.6543   -0.1401   -0.2814 H   0  0  0  0  0  0  0  0  0  0  0  0
    7.1803    3.2358    2.2242 H   0  0  0  0  0  0  0  0  0  0  0  0
    5.8192    4.4055    2.2486 H   0  0  0  0  0  0  0  0  0  0  0  0
    7.5212    3.5878   -0.1814 H   0  0  0  0  0  0  0  0  0  0  0  0
    7.6307    5.1239    0.6943 H   0  0  0  0  0  0  0  0  0  0  0  0
    5.1893    4.1235   -0.9134 H   0  0  0  0  0  0  0  0  0  0  0  0
    6.3485    5.3419   -1.4631 H   0  0  0  0  0  0  0  0  0  0  0  0
    6.8970   -1.1586    0.3199 H   0  0  0  0  0  0  0  0  0  0  0  0
    5.9530   -2.1301   -0.8605 H   0  0  0  0  0  0  0  0  0  0  0  0
    5.9563   -2.6000    0.8286 H   0  0  0  0  0  0  0  0  0  0  0  0
    1.6586   -4.4257   -1.1739 H   0  0  0  0  0  0  0  0  0  0  0  0
    0.3049   -4.3706    1.5867 H   0  0  0  0  0  0  0  0  0  0  0  0
    1.9234   -5.0354    1.2027 H   0  0  0  0  0  0  0  0  0  0  0  0
    0.4622   -5.8138    0.5463 H   0  0  0  0  0  0  0  0  0  0  0  0
   -1.0266   -3.1566   -0.3299 H   0  0  0  0  0  0  0  0  0  0  0  0
   -0.8472   -4.5902   -1.3765 H   0  0  0  0  0  0  0  0  0  0  0  0
   -0.2557   -3.0020   -1.9335 H   0  0  0  0  0  0  0  0  0  0  0  0
  1  2  1  0
  1 23  1  0
  1 24  1  0
  1 25  1  0
  2  3  1  0
  2 16  2  0
  3  4  1  0
  3  5  1  0
  5  6  1  0
  5 14  2  0
  6  7  2  0
  6  8  1  0
  8  9  1  0
  9 10  1  0
  9 26  1  0
  9 27  1  0
 10 11  1  0
 10 28  1  0
 10 29  1  0
 11 12  1  0
 11 30  1  0
 11 31  1  0
 12 13  3  0
 14 15  1  0
 14 16  1  0
 15 32  1  0
 15 33  1  0
 15 34  1  0
 16 17  1  0
 17 18  2  0
 17 19  1  0
 19 20  1  0
 20 21  1  0
 20 22  1  0
 20 35  1  6
 21 36  1  0
 21 37  1  0
 21 38  1  0
 22 39  1  0
 22 40  1  0
 22 41  1  0
M  END

