
     RDKit          3D

 49 53  0  0  0  0  0  0  0  0999 V2000
    3.6413   -2.7183    3.0613 C   0  0  0  0  0  0  0  0  0  0  0  0
    3.3765   -1.3309    2.5265 C   0  0  0  0  0  0  0  0  0  0  0  0
    4.0844   -0.2313    3.0254 C   0  0  0  0  0  0  0  0  0  0  0  0
    3.8649    1.0628    2.5470 C   0  0  0  0  0  0  0  0  0  0  0  0
    2.9148    1.2658    1.5453 C   0  0  0  0  0  0  0  0  0  0  0  0
    2.1887    0.1932    1.0245 C   0  0  0  0  0  0  0  0  0  0  0  0
    2.4139   -1.1076    1.5084 C   0  0  0  0  0  0  0  0  0  0  0  0
    1.7163   -2.2298    1.0147 N   0  0  0  0  0  0  0  0  0  0  0  0
    0.7253   -2.2922    0.0584 C   0  0  0  0  0  0  0  0  0  0  0  0
    0.2520   -1.3177   -0.5039 O   0  0  0  0  0  0  0  0  0  0  0  0
    0.2305   -3.6782   -0.2491 C   0  0  0  0  0  0  0  0  0  0  0  0
    0.9316   -4.8721   -0.0022 C   0  0  0  0  0  0  0  0  0  0  0  0
    0.3727   -6.0939   -0.3488 C   0  0  0  0  0  0  0  0  0  0  0  0
   -0.9024   -6.0867   -0.9508 C   0  0  0  0  0  0  0  0  0  0  0  0
   -1.5065   -7.3068   -1.3112 N   0  0  0  0  0  0  0  0  0  0  0  0
   -0.7866   -8.4502   -1.1449 N   0  0  0  0  0  0  0  0  0  0  0  0
   -1.5666   -9.4378   -1.5485 C   0  0  0  0  0  0  0  0  0  0  0  0
   -1.0826  -10.8358   -1.5059 C   0  0  1  0  0  0  0  0  0  0  0  0
   -2.0289  -11.9766   -1.1863 C   0  0  0  0  0  0  0  0  0  0  0  0
   -1.4851  -11.8310   -2.5766 C   0  0  0  0  0  0  0  0  0  0  0  0
   -2.8263   -8.9345   -1.9916 C   0  0  0  0  0  0  0  0  0  0  0  0
   -2.7704   -7.5645   -1.8300 C   0  0  0  0  0  0  0  0  0  0  0  0
   -3.8125   -6.5472   -2.1031 C   0  0  1  0  0  0  0  0  0  0  0  0
   -5.2492   -6.9647   -2.2946 C   0  0  0  0  0  0  0  0  0  0  0  0
   -4.8540   -6.2100   -1.0541 C   0  0  0  0  0  0  0  0  0  0  0  0
   -1.5703   -4.9644   -1.2095 N   0  0  0  0  0  0  0  0  0  0  0  0
   -1.0189   -3.8004   -0.8748 C   0  0  0  0  0  0  0  0  0  0  0  0
    4.4143   -2.6963    3.8420 H   0  0  0  0  0  0  0  0  0  0  0  0
    3.9974   -3.4074    2.2739 H   0  0  0  0  0  0  0  0  0  0  0  0
    2.7404   -3.1718    3.5135 H   0  0  0  0  0  0  0  0  0  0  0  0
    4.8274   -0.3997    3.8102 H   0  0  0  0  0  0  0  0  0  0  0  0
    4.4323    1.9023    2.9553 H   0  0  0  0  0  0  0  0  0  0  0  0
    2.7284    2.2710    1.1586 H   0  0  0  0  0  0  0  0  0  0  0  0
    1.4427    0.3436    0.2485 H   0  0  0  0  0  0  0  0  0  0  0  0
    1.9348   -3.1031    1.4741 H   0  0  0  0  0  0  0  0  0  0  0  0
    1.9330   -4.8618    0.4371 H   0  0  0  0  0  0  0  0  0  0  0  0
    0.8835   -7.0402   -0.1851 H   0  0  0  0  0  0  0  0  0  0  0  0
   -0.0642  -10.9145   -1.1164 H   0  0  0  0  0  0  0  0  0  0  0  0
   -3.0792  -11.7260   -1.0101 H   0  0  0  0  0  0  0  0  0  0  0  0
   -1.6510  -12.7873   -0.5568 H   0  0  0  0  0  0  0  0  0  0  0  0
   -2.1580  -11.4800   -3.3644 H   0  0  0  0  0  0  0  0  0  0  0  0
   -0.7261  -12.5397   -2.9200 H   0  0  0  0  0  0  0  0  0  0  0  0
   -3.6663   -9.4951   -2.3932 H   0  0  0  0  0  0  0  0  0  0  0  0
   -3.4664   -5.6934   -2.6880 H   0  0  0  0  0  0  0  0  0  0  0  0
   -5.5093   -8.0208   -2.1857 H   0  0  0  0  0  0  0  0  0  0  0  0
   -5.8234   -6.4423   -3.0644 H   0  0  0  0  0  0  0  0  0  0  0  0
   -4.8197   -6.7643   -0.1121 H   0  0  0  0  0  0  0  0  0  0  0  0
   -5.1435   -5.1606   -0.9534 H   0  0  0  0  0  0  0  0  0  0  0  0
   -1.5819   -2.8917   -1.1083 H   0  0  0  0  0  0  0  0  0  0  0  0
  1  2  1  0
  1 28  1  0
  1 29  1  0
  1 30  1  0
  2  3  2  0
  2  7  1  0
  3  4  1  0
  3 31  1  0
  4  5  2  0
  4 32  1  0
  5  6  1  0
  5 33  1  0
  6  7  2  0
  6 34  1  0
  7  8  1  0
  8  9  1  0
  8 35  1  0
  9 10  2  0
  9 11  1  0
 11 12  2  0
 11 27  1  0
 12 13  1  0
 12 36  1  0
 13 14  2  0
 13 37  1  0
 14 15  1  0
 14 26  1  0
 15 16  1  0
 15 22  1  0
 16 17  2  0
 17 18  1  0
 17 21  1  0
 18 19  1  0
 18 20  1  0
 18 38  1  1
 19 20  1  0
 19 39  1  0
 19 40  1  0
 20 41  1  0
 20 42  1  0
 21 22  2  0
 21 43  1  0
 22 23  1  0
 23 24  1  0
 23 25  1  0
 23 44  1  6
 24 25  1  0
 24 45  1  0
 24 46  1  0
 25 47  1  0
 25 48  1  0
 26 27  2  0
 27 49  1  0
M  END

