
     RDKit          3D

 32 36  0  0  0  0  0  0  0  0999 V2000
    0.9184   -1.3402   -0.4686 O   0  0  0  0  0  0  0  0  0  0  0  0
    1.9651   -0.7896   -0.1808 C   0  0  0  0  0  0  0  0  0  0  0  0
    3.1682   -1.5134    0.2049 C   0  0  0  0  0  0  0  0  0  0  0  0
    4.4258   -1.0460    0.5640 C   0  0  0  0  0  0  0  0  0  0  0  0
    5.2302   -2.1868    0.8524 C   0  0  0  0  0  0  0  0  0  0  0  0
    4.4027   -3.3366    0.6501 C   0  0  0  0  0  0  0  0  0  0  0  0
    4.8702   -4.6413    0.8447 C   0  0  0  0  0  0  0  0  0  0  0  0
    6.1962   -4.8237    1.2522 C   0  0  0  0  0  0  0  0  0  0  0  0
    6.7361   -6.1429    1.4704 C   0  0  0  0  0  0  0  0  0  0  0  0
    8.0252   -6.3323    1.8671 C   0  0  0  0  0  0  0  0  0  0  0  0
    8.9143   -5.2192    2.0882 C   0  0  0  0  0  0  0  0  0  0  0  0
   10.2449   -5.3959    2.4968 C   0  0  0  0  0  0  0  0  0  0  0  0
   11.0860   -4.2963    2.7038 C   0  0  0  0  0  0  0  0  0  0  0  0
   10.6130   -3.0028    2.5064 C   0  0  0  0  0  0  0  0  0  0  0  0
    9.2820   -2.7751    2.0956 C   0  0  0  0  0  0  0  0  0  0  0  0
    8.7644   -1.4555    1.8839 C   0  0  0  0  0  0  0  0  0  0  0  0
    7.4704   -1.2557    1.4864 C   0  0  0  0  0  0  0  0  0  0  0  0
    6.5826   -2.3562    1.2658 C   0  0  0  0  0  0  0  0  0  0  0  0
    7.0615   -3.6842    1.4653 C   0  0  0  0  0  0  0  0  0  0  0  0
    8.4149   -3.8931    1.8816 C   0  0  0  0  0  0  0  0  0  0  0  0
    3.1676   -2.8922    0.2589 N   0  0  0  0  0  0  0  0  0  0  0  0
    2.3471   -3.4465    0.0440 H   0  0  0  0  0  0  0  0  0  0  0  0
    2.0698    0.3231   -0.1949 H   0  0  0  0  0  0  0  0  0  0  0  0
    4.7147    0.0022    0.6070 H   0  0  0  0  0  0  0  0  0  0  0  0
    4.2206   -5.5050    0.6848 H   0  0  0  0  0  0  0  0  0  0  0  0
    6.0776   -7.0006    1.3084 H   0  0  0  0  0  0  0  0  0  0  0  0
    8.4107   -7.3430    2.0262 H   0  0  0  0  0  0  0  0  0  0  0  0
   10.6217   -6.4102    2.6537 H   0  0  0  0  0  0  0  0  0  0  0  0
   12.1191   -4.4560    3.0221 H   0  0  0  0  0  0  0  0  0  0  0  0
   11.2712   -2.1450    2.6683 H   0  0  0  0  0  0  0  0  0  0  0  0
    9.4280   -0.6022    2.0474 H   0  0  0  0  0  0  0  0  0  0  0  0
    7.0993   -0.2400    1.3321 H   0  0  0  0  0  0  0  0  0  0  0  0
  1  2  2  0
  2  3  1  0
  2 23  1  0
  3  4  2  0
  3 21  1  0
  4  5  1  0
  4 24  1  0
  5  6  2  0
  5 18  1  0
  6  7  1  0
  6 21  1  0
  7  8  2  0
  7 25  1  0
  8  9  1  0
  8 19  1  0
  9 10  2  0
  9 26  1  0
 10 11  1  0
 10 27  1  0
 11 12  2  0
 11 20  1  0
 12 13  1  0
 12 28  1  0
 13 14  2  0
 13 29  1  0
 14 15  1  0
 14 30  1  0
 15 16  2  0
 15 20  1  0
 16 17  1  0
 16 31  1  0
 17 18  2  0
 17 32  1  0
 18 19  1  0
 19 20  2  0
 21 22  1  0
M  END

