
     RDKit          3D

 61 65  0  0  0  0  0  0  0  0999 V2000
    1.6861    0.5866    1.1043 C   0  0  0  0  0  0  0  0  0  0  0  0
    2.2000   -0.2248    0.0726 O   0  0  0  0  0  0  0  0  0  0  0  0
    2.9491    0.3392   -0.9076 C   0  0  0  0  0  0  0  0  0  0  0  0
    3.2529    1.7038   -0.9680 C   0  0  0  0  0  0  0  0  0  0  0  0
    4.0373    2.1952   -2.0265 C   0  0  0  0  0  0  0  0  0  0  0  0
    4.2766    3.5313   -1.9979 O   0  0  0  0  0  0  0  0  0  0  0  0
    5.0479    4.1193   -3.0209 C   0  0  0  0  0  0  0  0  0  0  0  0
    4.5150    1.3318   -3.0181 C   0  0  0  0  0  0  0  0  0  0  0  0
    4.2049   -0.0446   -2.9484 C   0  0  0  0  0  0  0  0  0  0  0  0
    4.7125   -0.9572   -3.9832 C   0  0  0  0  0  0  0  0  0  0  0  0
    4.5042   -2.2305   -3.9438 N   0  0  0  0  0  0  0  0  0  0  0  0
    5.0815   -2.8210   -5.0340 N   0  0  0  0  0  0  0  0  0  0  0  0
    5.3058   -4.1837   -5.1153 C   0  0  0  0  0  0  0  0  0  0  0  0
    4.7422   -5.0183   -3.9844 C   0  0  0  0  0  0  0  0  0  0  0  0
    5.9280   -4.6435   -6.0563 O   0  0  0  0  0  0  0  0  0  0  0  0
    5.6327   -1.8451   -5.9997 C   0  0  1  0  0  0  0  0  0  0  0  0
    6.6615   -2.1523   -6.2347 H   0  0  0  0  0  0  0  0  0  0  0  0
    4.8156   -1.7811   -7.2695 C   0  0  0  0  0  0  0  0  0  0  0  0
    3.6592   -2.4856   -7.5333 C   0  0  0  0  0  0  0  0  0  0  0  0
    3.2080   -2.0886   -8.7608 N   0  0  0  0  0  0  0  0  0  0  0  0
    2.0650   -2.5523   -9.4646 C   0  0  0  0  0  0  0  0  0  0  0  0
    1.0397   -3.2324   -8.7915 C   0  0  0  0  0  0  0  0  0  0  0  0
   -0.0700   -3.6926   -9.5036 C   0  0  0  0  0  0  0  0  0  0  0  0
   -0.1737   -3.4703  -10.8794 C   0  0  0  0  0  0  0  0  0  0  0  0
    0.8475   -2.7810  -11.5416 C   0  0  0  0  0  0  0  0  0  0  0  0
    1.9663   -2.3236  -10.8449 C   0  0  0  0  0  0  0  0  0  0  0  0
    4.0131   -1.1644   -9.3066 N   0  0  0  0  0  0  0  0  0  0  0  0
    4.9973   -0.9555   -8.4316 C   0  0  0  0  0  0  0  0  0  0  0  0
    6.0347    0.0517   -8.7417 C   0  0  0  0  0  0  0  0  0  0  0  0
    5.7332    1.1053   -9.6280 C   0  0  0  0  0  0  0  0  0  0  0  0
    6.6918    2.0650   -9.9508 C   0  0  0  0  0  0  0  0  0  0  0  0
    7.9754    1.9971   -9.3972 C   0  0  0  0  0  0  0  0  0  0  0  0
    8.2905    0.9540   -8.5230 C   0  0  0  0  0  0  0  0  0  0  0  0
    7.3312   -0.0093   -8.1990 C   0  0  0  0  0  0  0  0  0  0  0  0
    5.5730   -0.5395   -5.1640 C   0  0  0  0  0  0  0  0  0  0  0  0
    3.4239   -0.5357   -1.8972 C   0  0  0  0  0  0  0  0  0  0  0  0
    1.1220   -0.0774    1.7730 H   0  0  0  0  0  0  0  0  0  0  0  0
    1.0048    1.3650    0.7156 H   0  0  0  0  0  0  0  0  0  0  0  0
    2.4903    1.0769    1.6822 H   0  0  0  0  0  0  0  0  0  0  0  0
    2.9043    2.4182   -0.2240 H   0  0  0  0  0  0  0  0  0  0  0  0
    5.1042    5.1922   -2.7928 H   0  0  0  0  0  0  0  0  0  0  0  0
    4.5824    3.9896   -4.0145 H   0  0  0  0  0  0  0  0  0  0  0  0
    6.0728    3.7073   -3.0528 H   0  0  0  0  0  0  0  0  0  0  0  0
    5.1206    1.7113   -3.8384 H   0  0  0  0  0  0  0  0  0  0  0  0
    3.6666   -4.8335   -3.8481 H   0  0  0  0  0  0  0  0  0  0  0  0
    5.2293   -4.7587   -3.0321 H   0  0  0  0  0  0  0  0  0  0  0  0
    4.9233   -6.0742   -4.2199 H   0  0  0  0  0  0  0  0  0  0  0  0
    3.1546   -3.2453   -6.9459 H   0  0  0  0  0  0  0  0  0  0  0  0
    1.0925   -3.3917   -7.7137 H   0  0  0  0  0  0  0  0  0  0  0  0
   -0.8644   -4.2216   -8.9712 H   0  0  0  0  0  0  0  0  0  0  0  0
   -1.0455   -3.8294  -11.4312 H   0  0  0  0  0  0  0  0  0  0  0  0
    0.7778   -2.6006  -12.6173 H   0  0  0  0  0  0  0  0  0  0  0  0
    2.7719   -1.7895  -11.3473 H   0  0  0  0  0  0  0  0  0  0  0  0
    4.7314    1.1556  -10.0574 H   0  0  0  0  0  0  0  0  0  0  0  0
    6.4351    2.8751  -10.6387 H   0  0  0  0  0  0  0  0  0  0  0  0
    8.7259    2.7506   -9.6495 H   0  0  0  0  0  0  0  0  0  0  0  0
    9.2939    0.8809   -8.0955 H   0  0  0  0  0  0  0  0  0  0  0  0
    7.6111   -0.8311   -7.5390 H   0  0  0  0  0  0  0  0  0  0  0  0
    5.1412    0.2936   -5.7350 H   0  0  0  0  0  0  0  0  0  0  0  0
    6.5673   -0.2156   -4.8118 H   0  0  0  0  0  0  0  0  0  0  0  0
    3.1769   -1.5949   -1.8361 H   0  0  0  0  0  0  0  0  0  0  0  0
  1  2  1  0
  1 37  1  0
  1 38  1  0
  1 39  1  0
  2  3  1  0
  3  4  2  0
  3 36  1  0
  4  5  1  0
  4 40  1  0
  5  6  1  0
  5  8  2  0
  6  7  1  0
  7 41  1  0
  7 42  1  0
  7 43  1  0
  8  9  1  0
  8 44  1  0
  9 10  1  0
  9 36  2  0
 10 11  2  0
 10 35  1  0
 11 12  1  0
 12 13  1  0
 12 16  1  0
 13 14  1  0
 13 15  2  0
 14 45  1  0
 14 46  1  0
 14 47  1  0
 16 17  1  6
 16 18  1  0
 16 35  1  0
 18 19  2  0
 18 28  1  0
 19 20  1  0
 19 48  1  0
 20 21  1  0
 20 27  1  0
 21 22  2  0
 21 26  1  0
 22 23  1  0
 22 49  1  0
 23 24  2  0
 23 50  1  0
 24 25  1  0
 24 51  1  0
 25 26  2  0
 25 52  1  0
 26 53  1  0
 27 28  2  0
 28 29  1  0
 29 30  2  0
 29 34  1  0
 30 31  1  0
 30 54  1  0
 31 32  2  0
 31 55  1  0
 32 33  1  0
 32 56  1  0
 33 34  2  0
 33 57  1  0
 34 58  1  0
 35 59  1  0
 35 60  1  0
 36 61  1  0
M  END

