
     RDKit          3D

 30 32  0  0  0  0  0  0  0  0999 V2000
    1.0271    0.2962    0.7832 Cl  0  0  0  0  0  0  0  0  0  0  0  0
    2.7238    0.1808    0.3867 C   0  0  0  0  0  0  0  0  0  0  0  0
    3.5030    1.3387    0.3213 C   0  0  0  0  0  0  0  0  0  0  0  0
    4.8564    1.2317    0.0036 C   0  0  0  0  0  0  0  0  0  0  0  0
    5.4611   -0.0158   -0.2541 C   0  0  0  0  0  0  0  0  0  0  0  0
    6.8859   -0.0557   -0.5822 C   0  0  0  0  0  0  0  0  0  0  0  0
    7.6390   -1.1431   -0.8597 C   0  0  0  0  0  0  0  0  0  0  0  0
    9.0678   -1.0791   -1.1784 C   0  0  0  0  0  0  0  0  0  0  0  0
    9.7835   -2.2939   -1.4596 C   0  0  0  0  0  0  0  0  0  0  0  0
   11.0583   -2.3230   -1.7520 N   0  0  0  0  0  0  0  0  0  0  0  0
   11.7157   -1.1299   -1.7849 C   0  0  0  0  0  0  0  0  0  0  0  0
   13.1001   -1.0896   -2.0953 C   0  0  0  0  0  0  0  0  0  0  0  0
   13.7661    0.1184   -2.1292 C   0  0  0  0  0  0  0  0  0  0  0  0
   13.0766    1.3298   -1.8549 C   0  0  0  0  0  0  0  0  0  0  0  0
   11.7318    1.3220   -1.5501 C   0  0  0  0  0  0  0  0  0  0  0  0
   11.0161    0.0923   -1.5071 C   0  0  0  0  0  0  0  0  0  0  0  0
    9.6952    0.0868   -1.2074 N   0  0  0  0  0  0  0  0  0  0  0  0
    4.6449   -1.1654   -0.1792 C   0  0  0  0  0  0  0  0  0  0  0  0
    3.2929   -1.0747    0.1366 C   0  0  0  0  0  0  0  0  0  0  0  0
    3.0493    2.3114    0.5180 H   0  0  0  0  0  0  0  0  0  0  0  0
    5.4654    2.1381   -0.0473 H   0  0  0  0  0  0  0  0  0  0  0  0
    7.4017    0.9099   -0.6054 H   0  0  0  0  0  0  0  0  0  0  0  0
    7.1998   -2.1452   -0.8578 H   0  0  0  0  0  0  0  0  0  0  0  0
    9.2472   -3.2514   -1.4314 H   0  0  0  0  0  0  0  0  0  0  0  0
   13.6033   -2.0365   -2.3017 H   0  0  0  0  0  0  0  0  0  0  0  0
   14.8320    0.1492   -2.3683 H   0  0  0  0  0  0  0  0  0  0  0  0
   13.6225    2.2761   -1.8870 H   0  0  0  0  0  0  0  0  0  0  0  0
   11.1806    2.2398   -1.3357 H   0  0  0  0  0  0  0  0  0  0  0  0
    5.0712   -2.1522   -0.3706 H   0  0  0  0  0  0  0  0  0  0  0  0
    2.6716   -1.9702    0.1916 H   0  0  0  0  0  0  0  0  0  0  0  0
  1  2  1  0
  2  3  2  0
  2 19  1  0
  3  4  1  0
  3 20  1  0
  4  5  2  0
  4 21  1  0
  5  6  1  0
  5 18  1  0
  6  7  2  0
  6 22  1  0
  7  8  1  0
  7 23  1  0
  8  9  2  0
  8 17  1  0
  9 10  1  0
  9 24  1  0
 10 11  2  0
 11 12  1  0
 11 16  1  0
 12 13  2  0
 12 25  1  0
 13 14  1  0
 13 26  1  0
 14 15  2  0
 14 27  1  0
 15 16  1  0
 15 28  1  0
 16 17  2  0
 18 19  2  0
 18 29  1  0
 19 30  1  0
M  END

