
     RDKit          3D

 49 55  0  0  0  0  0  0  0  0999 V2000
    0.9664   -0.3739   -1.2173 C   0  0  0  0  0  0  0  0  0  0  0  0
    2.4257   -0.2913   -0.8272 C   0  0  0  0  0  0  0  0  0  0  0  0
    3.0484    0.9336   -0.6136 C   0  0  0  0  0  0  0  0  0  0  0  0
    2.2520    2.2189   -0.7422 C   0  0  0  0  0  0  0  0  0  0  0  0
    2.4650    2.9951   -1.6489 O   0  0  0  0  0  0  0  0  0  0  0  0
    1.2362    2.5124    0.3351 C   0  0  0  0  0  0  0  0  0  0  0  0
    1.4935    2.0704    1.6466 C   0  0  0  0  0  0  0  0  0  0  0  0
    0.6490    2.3932    2.7084 C   0  0  0  0  0  0  0  0  0  0  0  0
   -0.4975    3.1543    2.4682 C   0  0  0  0  0  0  0  0  0  0  0  0
   -0.7931    3.5847    1.1733 C   0  0  0  0  0  0  0  0  0  0  0  0
    0.0681    3.2748    0.1162 C   0  0  0  0  0  0  0  0  0  0  0  0
   -0.4100    3.7959   -1.4807 Cl  0  0  0  0  0  0  0  0  0  0  0  0
    4.4450    1.0220   -0.3118 C   0  0  0  0  0  0  0  0  0  0  0  0
    5.1029    2.2851   -0.1178 C   0  0  0  0  0  0  0  0  0  0  0  0
    6.4293    2.3504    0.1961 C   0  0  0  0  0  0  0  0  0  0  0  0
    7.2224    1.1662    0.3440 C   0  0  0  0  0  0  0  0  0  0  0  0
    8.5921    1.2341    0.6698 C   0  0  0  0  0  0  0  0  0  0  0  0
    9.3372    0.0713    0.8052 C   0  0  0  0  0  0  0  0  0  0  0  0
    8.7366   -1.1791    0.6189 C   0  0  0  0  0  0  0  0  0  0  0  0
    7.3779   -1.3022    0.2930 C   0  0  0  0  0  0  0  0  0  0  0  0
    6.7291   -2.6052    0.0914 C   0  0  0  0  0  0  0  0  0  0  0  0
    7.4242   -3.8177    0.2104 C   0  0  0  0  0  0  0  0  0  0  0  0
    6.7921   -5.0507    0.0132 C   0  0  0  0  0  0  0  0  0  0  0  0
    5.4437   -5.1033   -0.3096 C   0  0  0  0  0  0  0  0  0  0  0  0
    4.6986   -3.9139   -0.4411 C   0  0  0  0  0  0  0  0  0  0  0  0
    3.3060   -3.9391   -0.7754 C   0  0  0  0  0  0  0  0  0  0  0  0
    2.5859   -2.7867   -0.9041 C   0  0  0  0  0  0  0  0  0  0  0  0
    3.1890   -1.4982   -0.7056 C   0  0  0  0  0  0  0  0  0  0  0  0
    4.5717   -1.4400   -0.3741 C   0  0  0  0  0  0  0  0  0  0  0  0
    5.3378   -2.6490   -0.2396 C   0  0  0  0  0  0  0  0  0  0  0  0
    5.2050   -0.1721   -0.1782 C   0  0  0  0  0  0  0  0  0  0  0  0
    6.6019   -0.1092    0.1525 C   0  0  0  0  0  0  0  0  0  0  0  0
    0.5212    0.6120   -1.3971 H   0  0  0  0  0  0  0  0  0  0  0  0
    0.3640   -0.8753   -0.4414 H   0  0  0  0  0  0  0  0  0  0  0  0
    0.8419   -0.9517   -2.1470 H   0  0  0  0  0  0  0  0  0  0  0  0
    2.3886    1.4727    1.8299 H   0  0  0  0  0  0  0  0  0  0  0  0
    0.8839    2.0484    3.7178 H   0  0  0  0  0  0  0  0  0  0  0  0
   -1.1739    3.4100    3.2877 H   0  0  0  0  0  0  0  0  0  0  0  0
   -1.6960    4.1619    0.9674 H   0  0  0  0  0  0  0  0  0  0  0  0
    4.5343    3.2066   -0.2426 H   0  0  0  0  0  0  0  0  0  0  0  0
    6.9126    3.3210    0.3353 H   0  0  0  0  0  0  0  0  0  0  0  0
    9.0571    2.2130    0.8129 H   0  0  0  0  0  0  0  0  0  0  0  0
   10.3991    0.1259    1.0577 H   0  0  0  0  0  0  0  0  0  0  0  0
    9.3537   -2.0704    0.7326 H   0  0  0  0  0  0  0  0  0  0  0  0
    8.4849   -3.8157    0.4616 H   0  0  0  0  0  0  0  0  0  0  0  0
    7.3689   -5.9734    0.1147 H   0  0  0  0  0  0  0  0  0  0  0  0
    4.9455   -6.0636   -0.4659 H   0  0  0  0  0  0  0  0  0  0  0  0
    2.8248   -4.9088   -0.9278 H   0  0  0  0  0  0  0  0  0  0  0  0
    1.5280   -2.8485   -1.1585 H   0  0  0  0  0  0  0  0  0  0  0  0
  1  2  1  0
  1 33  1  0
  1 34  1  0
  1 35  1  0
  2  3  2  0
  2 28  1  0
  3  4  1  0
  3 13  1  0
  4  5  2  0
  4  6  1  0
  6  7  2  0
  6 11  1  0
  7  8  1  0
  7 36  1  0
  8  9  2  0
  8 37  1  0
  9 10  1  0
  9 38  1  0
 10 11  2  0
 10 39  1  0
 11 12  1  0
 13 14  2  0
 13 31  1  0
 14 15  1  0
 14 40  1  0
 15 16  2  0
 15 41  1  0
 16 17  1  0
 16 32  1  0
 17 18  2  0
 17 42  1  0
 18 19  1  0
 18 43  1  0
 19 20  2  0
 19 44  1  0
 20 21  1  0
 20 32  1  0
 21 22  2  0
 21 30  1  0
 22 23  1  0
 22 45  1  0
 23 24  2  0
 23 46  1  0
 24 25  1  0
 24 47  1  0
 25 26  2  0
 25 30  1  0
 26 27  1  0
 26 48  1  0
 27 28  2  0
 27 49  1  0
 28 29  1  0
 29 30  2  0
 29 31  1  0
 31 32  2  0
M  END

