
     RDKit          3D

 46 48  0  0  0  0  0  0  0  0999 V2000
    0.5259    0.3916   -0.8925 C   0  0  0  0  0  0  0  0  0  0  0  0
    2.0296    0.4407   -0.8908 C   0  0  0  0  0  0  0  0  0  0  0  0
    2.7655    1.4036   -0.1832 C   0  0  0  0  0  0  0  0  0  0  0  0
    4.1600    1.4245   -0.2082 C   0  0  0  0  0  0  0  0  0  0  0  0
    4.8723    0.4619   -0.9378 C   0  0  0  0  0  0  0  0  0  0  0  0
    6.3762    0.5538   -0.9252 C   0  0  0  0  0  0  0  0  0  0  0  0
    6.9579    1.5715   -0.6259 O   0  0  0  0  0  0  0  0  0  0  0  0
    7.0255   -0.6363   -1.2631 N   0  0  0  0  0  0  0  0  0  0  0  0
    8.3980   -0.8157   -1.3972 C   0  0  0  0  0  0  0  0  0  0  0  0
    9.2539    0.0806   -1.7684 N   0  0  0  0  0  0  0  0  0  0  0  0
   10.5326   -0.4275   -1.8033 C   0  0  0  0  0  0  0  0  0  0  0  0
   11.6701    0.4954   -2.1775 C   0  0  0  0  0  0  0  0  0  0  0  0
   12.8852   -0.2140   -2.5344 N   0  0  0  0  0  0  0  0  0  0  0  0
   12.9464   -0.7069   -3.9082 C   0  0  0  0  0  0  0  0  0  0  0  0
   13.4626    0.3430   -4.9059 C   0  0  0  0  0  0  0  0  0  0  0  0
   14.8217    0.8932   -4.4487 C   0  0  0  0  0  0  0  0  0  0  0  0
   14.7798    1.4206   -2.9977 C   0  0  1  0  0  0  0  0  0  0  0  0
   15.8232    1.5587   -2.6585 H   0  0  0  0  0  0  0  0  0  0  0  0
   14.0842    2.7842   -2.8832 C   0  0  0  0  0  0  0  0  0  0  0  0
   14.1608    0.3326   -2.0862 C   0  0  0  0  0  0  0  0  0  0  0  0
   10.6527   -1.7507   -1.4707 C   0  0  0  0  0  0  0  0  0  0  0  0
    9.0974   -2.4041   -1.0539 S   0  0  0  0  0  0  0  0  0  0  0  0
    4.1577   -0.5050   -1.6638 C   0  0  0  0  0  0  0  0  0  0  0  0
    2.7686   -0.4963   -1.6245 C   0  0  0  0  0  0  0  0  0  0  0  0
    2.0994   -1.4239   -2.3325 F   0  0  0  0  0  0  0  0  0  0  0  0
    0.1032    1.2048   -0.2860 H   0  0  0  0  0  0  0  0  0  0  0  0
    0.1576   -0.5669   -0.4910 H   0  0  0  0  0  0  0  0  0  0  0  0
    0.1258    0.4783   -1.9159 H   0  0  0  0  0  0  0  0  0  0  0  0
    2.2248    2.1559    0.3973 H   0  0  0  0  0  0  0  0  0  0  0  0
    4.7234    2.1855    0.3340 H   0  0  0  0  0  0  0  0  0  0  0  0
    6.4631   -1.4784   -1.2663 H   0  0  0  0  0  0  0  0  0  0  0  0
   11.8764    1.1444   -1.3096 H   0  0  0  0  0  0  0  0  0  0  0  0
   11.2908    1.1797   -2.9650 H   0  0  0  0  0  0  0  0  0  0  0  0
   11.9503   -1.0752   -4.1998 H   0  0  0  0  0  0  0  0  0  0  0  0
   13.6235   -1.5828   -3.9334 H   0  0  0  0  0  0  0  0  0  0  0  0
   12.7279    1.1619   -4.9968 H   0  0  0  0  0  0  0  0  0  0  0  0
   13.5483   -0.1060   -5.9103 H   0  0  0  0  0  0  0  0  0  0  0  0
   15.1735    1.6839   -5.1333 H   0  0  0  0  0  0  0  0  0  0  0  0
   15.5679    0.0792   -4.5071 H   0  0  0  0  0  0  0  0  0  0  0  0
   13.0432    2.7610   -3.2401 H   0  0  0  0  0  0  0  0  0  0  0  0
   14.6162    3.5448   -3.4781 H   0  0  0  0  0  0  0  0  0  0  0  0
   14.0648    3.1347   -1.8381 H   0  0  0  0  0  0  0  0  0  0  0  0
   14.0442    0.7122   -1.0578 H   0  0  0  0  0  0  0  0  0  0  0  0
   14.8808   -0.5067   -2.0296 H   0  0  0  0  0  0  0  0  0  0  0  0
   11.5585   -2.3510   -1.4537 H   0  0  0  0  0  0  0  0  0  0  0  0
    4.6466   -1.2495   -2.2954 H   0  0  0  0  0  0  0  0  0  0  0  0
  1  2  1  0
  1 26  1  0
  1 27  1  0
  1 28  1  0
  2  3  2  0
  2 24  1  0
  3  4  1  0
  3 29  1  0
  4  5  2  0
  4 30  1  0
  5  6  1  0
  5 23  1  0
  6  7  2  0
  6  8  1  0
  8  9  1  0
  8 31  1  0
  9 10  2  0
  9 22  1  0
 10 11  1  0
 11 12  1  0
 11 21  2  0
 12 13  1  0
 12 32  1  0
 12 33  1  0
 13 14  1  0
 13 20  1  0
 14 15  1  0
 14 34  1  0
 14 35  1  0
 15 16  1  0
 15 36  1  0
 15 37  1  0
 16 17  1  0
 16 38  1  0
 16 39  1  0
 17 18  1  1
 17 19  1  0
 17 20  1  0
 19 40  1  0
 19 41  1  0
 19 42  1  0
 20 43  1  0
 20 44  1  0
 21 22  1  0
 21 45  1  0
 23 24  2  0
 23 46  1  0
 24 25  1  0
M  END

