
     RDKit          3D

 52 56  0  0  0  0  0  0  0  0999 V2000
    1.9526   -2.8816    1.2547 C   0  0  0  0  0  0  0  0  0  0  0  0
    2.0765   -2.3643   -0.1824 C   0  0  0  0  0  0  0  0  0  0  0  0
    3.0215   -1.2627   -0.3509 N   0  0  0  0  0  0  0  0  0  0  0  0
    2.5760    0.1185   -0.1325 C   0  0  0  0  0  0  0  0  0  0  0  0
    1.0810    0.3673   -0.3050 C   0  0  0  0  0  0  0  0  0  0  0  0
    4.3760   -1.5200   -0.4201 C   0  0  0  0  0  0  0  0  0  0  0  0
    5.3424   -0.4705   -0.3651 C   0  0  0  0  0  0  0  0  0  0  0  0
    6.6967   -0.7307   -0.4769 C   0  0  0  0  0  0  0  0  0  0  0  0
    7.2127   -2.0351   -0.6383 C   0  0  0  0  0  0  0  0  0  0  0  0
    6.2509   -3.0664   -0.6571 C   0  0  0  0  0  0  0  0  0  0  0  0
    4.8835   -2.8333   -0.5494 C   0  0  0  0  0  0  0  0  0  0  0  0
    6.6173   -4.3688   -0.7775 O   0  0  0  0  0  0  0  0  0  0  0  0
    7.9243   -4.8047   -0.8633 C   0  0  0  0  0  0  0  0  0  0  0  0
    8.0856   -5.9963   -0.9373 O   0  0  0  0  0  0  0  0  0  0  0  0
    8.9730   -3.7657   -0.8640 C   0  0  0  0  0  0  0  0  0  0  0  0
   10.3551   -4.1621   -0.9694 C   0  0  0  0  0  0  0  0  0  0  0  0
   10.7913   -5.6010   -1.0626 C   0  0  0  0  0  0  0  0  0  0  0  0
   11.3419   -3.2739   -0.9897 N   0  0  0  0  0  0  0  0  0  0  0  0
   11.0048   -1.9846   -0.9144 C   0  0  0  0  0  0  0  0  0  0  0  0
    9.6904   -1.4651   -0.8038 C   0  0  0  0  0  0  0  0  0  0  0  0
    9.8918   -0.0480   -0.7729 C   0  0  0  0  0  0  0  0  0  0  0  0
   11.1672    0.2544   -0.8504 N   0  0  0  0  0  0  0  0  0  0  0  0
   11.8659   -0.9067   -0.9348 N   0  0  0  0  0  0  0  0  0  0  0  0
   13.2889   -0.8519   -1.0222 C   0  0  0  0  0  0  0  0  0  0  0  0
   13.9187    0.4025   -0.9609 C   0  0  0  0  0  0  0  0  0  0  0  0
   15.3083    0.4847   -1.0461 C   0  0  0  0  0  0  0  0  0  0  0  0
   16.0841   -0.6697   -1.1913 C   0  0  0  0  0  0  0  0  0  0  0  0
   15.4502   -1.9130   -1.2509 C   0  0  0  0  0  0  0  0  0  0  0  0
   14.0592   -2.0162   -1.1683 C   0  0  0  0  0  0  0  0  0  0  0  0
    8.6143   -2.3928   -0.7660 C   0  0  0  0  0  0  0  0  0  0  0  0
    1.2322   -3.7142    1.3024 H   0  0  0  0  0  0  0  0  0  0  0  0
    1.5987   -2.0901    1.9347 H   0  0  0  0  0  0  0  0  0  0  0  0
    2.9183   -3.2464    1.6370 H   0  0  0  0  0  0  0  0  0  0  0  0
    1.0939   -2.0346   -0.5427 H   0  0  0  0  0  0  0  0  0  0  0  0
    2.3653   -3.1825   -0.8581 H   0  0  0  0  0  0  0  0  0  0  0  0
    3.1040    0.7620   -0.8540 H   0  0  0  0  0  0  0  0  0  0  0  0
    2.8863    0.4680    0.8730 H   0  0  0  0  0  0  0  0  0  0  0  0
    0.7274    0.0730   -1.3055 H   0  0  0  0  0  0  0  0  0  0  0  0
    0.8933    1.4462   -0.1919 H   0  0  0  0  0  0  0  0  0  0  0  0
    0.4678   -0.1497    0.4483 H   0  0  0  0  0  0  0  0  0  0  0  0
    5.0334    0.5624   -0.2251 H   0  0  0  0  0  0  0  0  0  0  0  0
    7.3771    0.1146   -0.4197 H   0  0  0  0  0  0  0  0  0  0  0  0
    4.2422   -3.7107   -0.5709 H   0  0  0  0  0  0  0  0  0  0  0  0
   10.4488   -6.1834   -0.1950 H   0  0  0  0  0  0  0  0  0  0  0  0
   11.8867   -5.6273   -1.1231 H   0  0  0  0  0  0  0  0  0  0  0  0
   10.3535   -6.0987   -1.9400 H   0  0  0  0  0  0  0  0  0  0  0  0
    9.1721    0.7643   -0.7084 H   0  0  0  0  0  0  0  0  0  0  0  0
   13.3073    1.2961   -0.8486 H   0  0  0  0  0  0  0  0  0  0  0  0
   15.7879    1.4658   -0.9974 H   0  0  0  0  0  0  0  0  0  0  0  0
   17.1725   -0.5998   -1.2572 H   0  0  0  0  0  0  0  0  0  0  0  0
   16.0423   -2.8248   -1.3643 H   0  0  0  0  0  0  0  0  0  0  0  0
   13.5649   -2.9839   -1.2123 H   0  0  0  0  0  0  0  0  0  0  0  0
  1  2  1  0
  1 31  1  0
  1 32  1  0
  1 33  1  0
  2  3  1  0
  2 34  1  0
  2 35  1  0
  3  4  1  0
  3  6  1  0
  4  5  1  0
  4 36  1  0
  4 37  1  0
  5 38  1  0
  5 39  1  0
  5 40  1  0
  6  7  2  0
  6 11  1  0
  7  8  1  0
  7 41  1  0
  8  9  2  0
  8 42  1  0
  9 10  1  0
  9 30  1  0
 10 11  2  0
 10 12  1  0
 11 43  1  0
 12 13  1  0
 13 14  2  0
 13 15  1  0
 15 16  1  0
 15 30  2  0
 16 17  1  0
 16 18  2  0
 17 44  1  0
 17 45  1  0
 17 46  1  0
 18 19  1  0
 19 20  2  0
 19 23  1  0
 20 21  1  0
 20 30  1  0
 21 22  2  0
 21 47  1  0
 22 23  1  0
 23 24  1  0
 24 25  2  0
 24 29  1  0
 25 26  1  0
 25 48  1  0
 26 27  2  0
 26 49  1  0
 27 28  1  0
 27 50  1  0
 28 29  2  0
 28 51  1  0
 29 52  1  0
M  END

