
     RDKit          3D

 45 45  0  0  0  0  0  0  0  0999 V2000
    7.8782   -0.3936   -1.2425 C   0  0  0  0  0  0  0  0  0  0  0  0
    6.8409   -1.0070   -0.3243 C   0  0  0  0  0  0  0  0  0  0  0  0
    7.1406   -1.5221    0.7289 O   0  0  0  0  0  0  0  0  0  0  0  0
    5.3917   -0.9721   -0.8161 C   0  0  0  0  0  0  0  0  0  0  0  0
    4.3824   -0.9128    0.3341 C   0  0  1  0  0  0  0  0  0  0  0  0
    4.4810    0.3363    1.0001 O   0  0  0  0  0  0  0  0  0  0  0  0
    3.8225    1.8808    0.8688 Si  0  0  1  0  0  4  0  0  0  0  0  0
    4.0437    2.5706   -0.8808 C   0  0  0  0  0  0  0  0  0  0  0  0
    1.9838    1.8854    1.2910 C   0  0  0  0  0  0  0  0  0  0  0  0
    4.8408    2.8834    2.1496 C   0  0  1  0  0  0  0  0  0  0  0  0
    6.3411    2.7906    1.8038 C   0  0  0  0  0  0  0  0  0  0  0  0
    4.4023    4.3620    2.1401 C   0  0  0  0  0  0  0  0  0  0  0  0
    4.6141    2.2893    3.5552 C   0  0  0  0  0  0  0  0  0  0  0  0
    2.9501   -1.2596   -0.0571 C   0  0  0  0  0  0  0  0  0  0  0  0
    2.4178   -0.9998   -1.3295 C   0  0  0  0  0  0  0  0  0  0  0  0
    1.0819   -1.2947   -1.6224 C   0  0  0  0  0  0  0  0  0  0  0  0
    0.2558   -1.8572   -0.6458 C   0  0  0  0  0  0  0  0  0  0  0  0
    0.7753   -2.1275    0.6245 C   0  0  0  0  0  0  0  0  0  0  0  0
    2.1094   -1.8317    0.9116 C   0  0  0  0  0  0  0  0  0  0  0  0
    8.8884   -0.6241   -0.8794 H   0  0  0  0  0  0  0  0  0  0  0  0
    7.7393    0.7011   -1.2649 H   0  0  0  0  0  0  0  0  0  0  0  0
    7.7529   -0.7527   -2.2775 H   0  0  0  0  0  0  0  0  0  0  0  0
    5.2443   -1.9035   -1.3941 H   0  0  0  0  0  0  0  0  0  0  0  0
    5.2496   -0.1401   -1.5234 H   0  0  0  0  0  0  0  0  0  0  0  0
    4.7157   -1.6615    1.0711 H   0  0  0  0  0  0  0  0  0  0  0  0
    3.4702    1.9778   -1.6119 H   0  0  0  0  0  0  0  0  0  0  0  0
    5.0991    2.5748   -1.1973 H   0  0  0  0  0  0  0  0  0  0  0  0
    3.6728    3.6073   -0.9417 H   0  0  0  0  0  0  0  0  0  0  0  0
    1.4029    1.3290    0.5388 H   0  0  0  0  0  0  0  0  0  0  0  0
    1.5924    2.9161    1.3220 H   0  0  0  0  0  0  0  0  0  0  0  0
    1.7928    1.4200    2.2707 H   0  0  0  0  0  0  0  0  0  0  0  0
    6.5660    3.2264    0.8156 H   0  0  0  0  0  0  0  0  0  0  0  0
    6.6893    1.7460    1.8027 H   0  0  0  0  0  0  0  0  0  0  0  0
    6.9434    3.3449    2.5467 H   0  0  0  0  0  0  0  0  0  0  0  0
    4.5694    4.8401    1.1604 H   0  0  0  0  0  0  0  0  0  0  0  0
    4.9794    4.9397    2.8850 H   0  0  0  0  0  0  0  0  0  0  0  0
    3.3358    4.4825    2.3936 H   0  0  0  0  0  0  0  0  0  0  0  0
    4.8974    1.2259    3.5924 H   0  0  0  0  0  0  0  0  0  0  0  0
    3.5615    2.3702    3.8736 H   0  0  0  0  0  0  0  0  0  0  0  0
    5.2238    2.8270    4.3043 H   0  0  0  0  0  0  0  0  0  0  0  0
    3.0467   -0.5653   -2.1099 H   0  0  0  0  0  0  0  0  0  0  0  0
    0.6868   -1.0869   -2.6204 H   0  0  0  0  0  0  0  0  0  0  0  0
   -0.7872   -2.0899   -0.8750 H   0  0  0  0  0  0  0  0  0  0  0  0
    0.1391   -2.5746    1.3929 H   0  0  0  0  0  0  0  0  0  0  0  0
    2.5126   -2.0455    1.9056 H   0  0  0  0  0  0  0  0  0  0  0  0
  1  2  1  0
  1 20  1  0
  1 21  1  0
  1 22  1  0
  2  3  2  0
  2  4  1  0
  4  5  1  0
  4 23  1  0
  4 24  1  0
  5  6  1  0
  5 14  1  0
  5 25  1  1
  7  6  1  6
  7  8  1  0
  7  9  1  0
  7 10  1  0
  8 26  1  0
  8 27  1  0
  8 28  1  0
  9 29  1  0
  9 30  1  0
  9 31  1  0
 10 11  1  6
 10 12  1  0
 10 13  1  0
 11 32  1  0
 11 33  1  0
 11 34  1  0
 12 35  1  0
 12 36  1  0
 12 37  1  0
 13 38  1  0
 13 39  1  0
 13 40  1  0
 14 15  2  0
 14 19  1  0
 15 16  1  0
 15 41  1  0
 16 17  2  0
 16 42  1  0
 17 18  1  0
 17 43  1  0
 18 19  2  0
 18 44  1  0
 19 45  1  0
M  END

