
     RDKit          3D

 39 41  0  0  0  0  0  0  0  0999 V2000
    4.0246   -3.3600   -2.1118 C   0  0  0  0  0  0  0  0  0  0  0  0
    4.1151   -1.9586   -1.5584 C   0  0  0  0  0  0  0  0  0  0  0  0
    5.1347   -1.0933   -1.9730 C   0  0  0  0  0  0  0  0  0  0  0  0
    5.2146    0.2085   -1.4764 C   0  0  0  0  0  0  0  0  0  0  0  0
    4.2811    0.6505   -0.5404 C   0  0  0  0  0  0  0  0  0  0  0  0
    3.2521   -0.1860   -0.0816 C   0  0  0  0  0  0  0  0  0  0  0  0
    2.2899    0.3037    0.9683 C   0  0  0  0  0  0  0  0  0  0  0  0
    3.1698   -1.4906   -0.6168 C   0  0  0  0  0  0  0  0  0  0  0  0
    2.1537   -2.3888   -0.1831 N   0  0  0  0  0  0  0  0  0  0  0  0
    0.7978   -2.1950   -0.2996 C   0  0  0  0  0  0  0  0  0  0  0  0
    0.2885   -1.1827   -0.7408 O   0  0  0  0  0  0  0  0  0  0  0  0
   -0.0624   -3.3518    0.2439 C   0  0  0  0  0  0  0  0  0  0  0  0
    0.4639   -4.7413    0.0415 C   0  0  0  0  0  0  0  0  0  0  0  0
    0.9516   -5.6011    1.0054 C   0  0  0  0  0  0  0  0  0  0  0  0
    1.3269   -6.7965    0.4322 N   0  0  0  0  0  0  0  0  0  0  0  0
    1.7030   -7.5909    0.9314 H   0  0  0  0  0  0  0  0  0  0  0  0
    1.0875   -6.7442   -0.9261 C   0  0  0  0  0  0  0  0  0  0  0  0
    1.2936   -7.7011   -1.9294 C   0  0  0  0  0  0  0  0  0  0  0  0
    0.9466   -7.3614   -3.2334 C   0  0  0  0  0  0  0  0  0  0  0  0
    0.4078   -6.0910   -3.5123 C   0  0  0  0  0  0  0  0  0  0  0  0
    0.0866   -5.8109   -4.7879 F   0  0  0  0  0  0  0  0  0  0  0  0
    0.1973   -5.1299   -2.5368 C   0  0  0  0  0  0  0  0  0  0  0  0
    0.5432   -5.4585   -1.2102 C   0  0  0  0  0  0  0  0  0  0  0  0
    4.7768   -3.5206   -2.8973 H   0  0  0  0  0  0  0  0  0  0  0  0
    3.0316   -3.5671   -2.5422 H   0  0  0  0  0  0  0  0  0  0  0  0
    4.1988   -4.1272   -1.3356 H   0  0  0  0  0  0  0  0  0  0  0  0
    5.8670   -1.4460   -2.7044 H   0  0  0  0  0  0  0  0  0  0  0  0
    6.0106    0.8767   -1.8151 H   0  0  0  0  0  0  0  0  0  0  0  0
    4.3531    1.6646   -0.1378 H   0  0  0  0  0  0  0  0  0  0  0  0
    2.6694    1.2138    1.4550 H   0  0  0  0  0  0  0  0  0  0  0  0
    2.1271   -0.4620    1.7444 H   0  0  0  0  0  0  0  0  0  0  0  0
    1.3047    0.5172    0.5255 H   0  0  0  0  0  0  0  0  0  0  0  0
    2.4368   -3.3423    0.0232 H   0  0  0  0  0  0  0  0  0  0  0  0
   -1.0486   -3.2220   -0.2270 H   0  0  0  0  0  0  0  0  0  0  0  0
   -0.2050   -3.1585    1.3211 H   0  0  0  0  0  0  0  0  0  0  0  0
    1.0440   -5.4465    2.0798 H   0  0  0  0  0  0  0  0  0  0  0  0
    1.7110   -8.6852   -1.7034 H   0  0  0  0  0  0  0  0  0  0  0  0
    1.0818   -8.0637   -4.0579 H   0  0  0  0  0  0  0  0  0  0  0  0
   -0.2233   -4.1598   -2.8089 H   0  0  0  0  0  0  0  0  0  0  0  0
  1  2  1  0
  1 24  1  0
  1 25  1  0
  1 26  1  0
  2  3  2  0
  2  8  1  0
  3  4  1  0
  3 27  1  0
  4  5  2  0
  4 28  1  0
  5  6  1  0
  5 29  1  0
  6  7  1  0
  6  8  2  0
  7 30  1  0
  7 31  1  0
  7 32  1  0
  8  9  1  0
  9 10  1  0
  9 33  1  0
 10 11  2  0
 10 12  1  0
 12 13  1  0
 12 34  1  0
 12 35  1  0
 13 14  2  0
 13 23  1  0
 14 15  1  0
 14 36  1  0
 15 16  1  0
 15 17  1  0
 17 18  1  0
 17 23  2  0
 18 19  2  0
 18 37  1  0
 19 20  1  0
 19 38  1  0
 20 21  1  0
 20 22  2  0
 22 23  1  0
 22 39  1  0
M  END

