
     RDKit          3D

 48 49  0  0  0  0  0  0  0  0999 V2000
    4.6981    1.1725   -1.4591 C   0  0  0  0  0  0  0  0  0  0  0  0
    4.5903   -0.1845   -1.1041 O   0  0  0  0  0  0  0  0  0  0  0  0
    3.6448   -0.5571   -0.2065 C   0  0  0  0  0  0  0  0  0  0  0  0
    2.7537    0.3129    0.4293 C   0  0  0  0  0  0  0  0  0  0  0  0
    1.8165   -0.1777    1.3503 C   0  0  0  0  0  0  0  0  0  0  0  0
    1.7613   -1.5386    1.6313 C   0  0  0  0  0  0  0  0  0  0  0  0
    2.6390   -2.4332    0.9945 C   0  0  0  0  0  0  0  0  0  0  0  0
    2.5364   -3.9251    1.2208 C   0  0  0  0  0  0  0  0  0  0  0  0
    3.8475   -4.5066    1.5248 N   0  0  0  0  0  0  0  0  0  0  0  0
    4.0013   -5.8873    1.7392 C   0  0  0  0  0  0  0  0  0  0  0  0
    5.1697   -6.3584    2.3729 C   0  0  0  0  0  0  0  0  0  0  0  0
    5.3801   -7.7201    2.5640 C   0  0  0  0  0  0  0  0  0  0  0  0
    4.4424   -8.6771    2.1335 C   0  0  0  0  0  0  0  0  0  0  0  0
    4.6669  -10.1509    2.3682 C   0  0  0  0  0  0  0  0  0  0  0  0
    4.2543  -10.7344    3.7347 C   0  0  0  0  0  0  0  0  0  0  0  0
    4.5991  -11.8608    4.0510 O   0  0  0  0  0  0  0  0  0  0  0  0
    3.4790   -9.9331    4.5188 N   0  0  0  0  0  0  0  0  0  0  0  0
    2.9787  -10.3341    5.8296 C   0  0  1  0  0  0  0  0  0  0  0  0
    3.5140   -9.4045    6.9243 C   0  0  0  0  0  0  0  0  0  0  0  0
    1.4475  -10.4105    5.8310 C   0  0  0  0  0  0  0  0  0  0  0  0
    3.2821   -8.2000    1.5078 C   0  0  0  0  0  0  0  0  0  0  0  0
    3.0528   -6.8339    1.3148 C   0  0  0  0  0  0  0  0  0  0  0  0
    3.5910   -1.9462    0.0804 C   0  0  0  0  0  0  0  0  0  0  0  0
    4.4650   -2.7583   -0.5553 O   0  0  0  0  0  0  0  0  0  0  0  0
    5.5111    1.2405   -2.1947 H   0  0  0  0  0  0  0  0  0  0  0  0
    4.9490    1.8095   -0.5906 H   0  0  0  0  0  0  0  0  0  0  0  0
    3.7681    1.5552   -1.9189 H   0  0  0  0  0  0  0  0  0  0  0  0
    2.7886    1.3820    0.2185 H   0  0  0  0  0  0  0  0  0  0  0  0
    1.1320    0.5159    1.8438 H   0  0  0  0  0  0  0  0  0  0  0  0
    1.0283   -1.9261    2.3440 H   0  0  0  0  0  0  0  0  0  0  0  0
    2.1641   -4.4045    0.2982 H   0  0  0  0  0  0  0  0  0  0  0  0
    1.7932   -4.1400    2.0123 H   0  0  0  0  0  0  0  0  0  0  0  0
    4.3583   -3.9506    2.2077 H   0  0  0  0  0  0  0  0  0  0  0  0
    5.9248   -5.6403    2.7065 H   0  0  0  0  0  0  0  0  0  0  0  0
    6.2991   -8.0512    3.0563 H   0  0  0  0  0  0  0  0  0  0  0  0
    5.7292  -10.4158    2.2520 H   0  0  0  0  0  0  0  0  0  0  0  0
    4.1257  -10.7497    1.6169 H   0  0  0  0  0  0  0  0  0  0  0  0
    3.2532   -9.0043    4.1779 H   0  0  0  0  0  0  0  0  0  0  0  0
    3.3860  -11.3443    5.9861 H   0  0  0  0  0  0  0  0  0  0  0  0
    3.1633   -8.3684    6.7743 H   0  0  0  0  0  0  0  0  0  0  0  0
    4.6146   -9.3950    6.9276 H   0  0  0  0  0  0  0  0  0  0  0  0
    3.1700   -9.7309    7.9187 H   0  0  0  0  0  0  0  0  0  0  0  0
    0.9988   -9.4216    5.6319 H   0  0  0  0  0  0  0  0  0  0  0  0
    1.0729  -10.7554    6.8080 H   0  0  0  0  0  0  0  0  0  0  0  0
    1.0892  -11.1096    5.0600 H   0  0  0  0  0  0  0  0  0  0  0  0
    2.5300   -8.9131    1.1573 H   0  0  0  0  0  0  0  0  0  0  0  0
    2.1329   -6.5165    0.8232 H   0  0  0  0  0  0  0  0  0  0  0  0
    4.4982   -3.6022   -0.0579 H   0  0  0  0  0  0  0  0  0  0  0  0
  1  2  1  0
  1 25  1  0
  1 26  1  0
  1 27  1  0
  2  3  1  0
  3  4  2  0
  3 23  1  0
  4  5  1  0
  4 28  1  0
  5  6  2  0
  5 29  1  0
  6  7  1  0
  6 30  1  0
  7  8  1  0
  7 23  2  0
  8  9  1  0
  8 31  1  0
  8 32  1  0
  9 10  1  0
  9 33  1  0
 10 11  2  0
 10 22  1  0
 11 12  1  0
 11 34  1  0
 12 13  2  0
 12 35  1  0
 13 14  1  0
 13 21  1  0
 14 15  1  0
 14 36  1  0
 14 37  1  0
 15 16  2  0
 15 17  1  0
 17 18  1  0
 17 38  1  0
 18 19  1  0
 18 20  1  0
 18 39  1  1
 19 40  1  0
 19 41  1  0
 19 42  1  0
 20 43  1  0
 20 44  1  0
 20 45  1  0
 21 22  2  0
 21 46  1  0
 22 47  1  0
 23 24  1  0
 24 48  1  0
M  END

