
     RDKit          3D

 30 31  0  0  0  0  0  0  0  0999 V2000
   -2.7866   -6.4143   -7.6977 O   0  0  0  0  0  0  0  0  0  0  0  0
   -2.3224   -6.4555   -6.5869 C   0  0  0  0  0  0  0  0  0  0  0  0
   -2.7500   -7.2922   -5.6367 O   0  0  0  0  0  0  0  0  0  0  0  0
   -1.1904   -5.5654   -6.1180 C   0  0  0  0  0  0  0  0  0  0  0  0
   -0.6038   -4.6469   -6.9786 C   0  0  0  0  0  0  0  0  0  0  0  0
    0.4468   -3.8699   -6.4627 C   0  0  0  0  0  0  0  0  0  0  0  0
    0.8461   -4.0374   -5.1475 C   0  0  0  0  0  0  0  0  0  0  0  0
    0.1800   -5.0005   -4.3392 C   0  0  0  0  0  0  0  0  0  0  0  0
    0.5288   -5.1643   -3.0279 N   0  0  0  0  0  0  0  0  0  0  0  0
    0.0462   -6.2327   -2.1807 C   0  0  0  0  0  0  0  0  0  0  0  0
    0.3048   -5.8915   -0.7174 C   0  0  2  0  0  0  0  0  0  0  0  0
    0.0810   -6.7924   -0.1103 H   0  0  0  0  0  0  0  0  0  0  0  0
   -0.4686   -4.6779   -0.1483 C   0  0  0  0  0  0  0  0  0  0  0  0
    0.5650   -3.9678    0.7618 C   0  0  0  0  0  0  0  0  0  0  0  0
    1.8065   -4.8763    0.6661 C   0  0  0  0  0  0  0  0  0  0  0  0
    1.6821   -5.5570   -0.5715 O   0  0  0  0  0  0  0  0  0  0  0  0
   -0.8136   -5.7466   -4.8404 N   0  0  0  0  0  0  0  0  0  0  0  0
   -2.1890   -7.0978   -4.8529 H   0  0  0  0  0  0  0  0  0  0  0  0
   -0.9622   -4.5602   -8.0041 H   0  0  0  0  0  0  0  0  0  0  0  0
    0.9511   -3.1334   -7.0937 H   0  0  0  0  0  0  0  0  0  0  0  0
    1.6578   -3.4418   -4.7231 H   0  0  0  0  0  0  0  0  0  0  0  0
    1.4025   -4.7522   -2.7188 H   0  0  0  0  0  0  0  0  0  0  0  0
    0.5348   -7.1965   -2.4228 H   0  0  0  0  0  0  0  0  0  0  0  0
   -1.0331   -6.3713   -2.3401 H   0  0  0  0  0  0  0  0  0  0  0  0
   -1.3668   -5.0009    0.3983 H   0  0  0  0  0  0  0  0  0  0  0  0
   -0.7928   -4.0187   -0.9666 H   0  0  0  0  0  0  0  0  0  0  0  0
    0.2185   -3.8565    1.7999 H   0  0  0  0  0  0  0  0  0  0  0  0
    0.7924   -2.9602    0.3823 H   0  0  0  0  0  0  0  0  0  0  0  0
    1.8241   -5.6070    1.4998 H   0  0  0  0  0  0  0  0  0  0  0  0
    2.7634   -4.3339    0.6671 H   0  0  0  0  0  0  0  0  0  0  0  0
  1  2  2  0
  2  3  1  0
  2  4  1  0
  3 18  1  0
  4  5  2  0
  4 17  1  0
  5  6  1  0
  5 19  1  0
  6  7  2  0
  6 20  1  0
  7  8  1  0
  7 21  1  0
  8  9  1  0
  8 17  2  0
  9 10  1  0
  9 22  1  0
 10 11  1  0
 10 23  1  0
 10 24  1  0
 11 12  1  1
 11 13  1  0
 11 16  1  0
 13 14  1  0
 13 25  1  0
 13 26  1  0
 14 15  1  0
 14 27  1  0
 14 28  1  0
 15 16  1  0
 15 29  1  0
 15 30  1  0
M  END

