
     RDKit          3D

 49 52  0  0  0  0  0  0  0  0999 V2000
    0.7000    0.4977   -0.4356 C   0  0  0  0  0  0  0  0  0  0  0  0
    2.0950    0.7091    0.0635 C   0  0  0  0  0  0  0  0  0  0  0  0
    3.1958    1.1716   -0.6267 C   0  0  0  0  0  0  0  0  0  0  0  0
    4.2482    1.1696    0.2781 N   0  0  0  0  0  0  0  0  0  0  0  0
    5.5824    1.6105    0.0327 C   0  0  0  0  0  0  0  0  0  0  0  0
    5.7993    2.9484   -0.3234 C   0  0  0  0  0  0  0  0  0  0  0  0
    7.0809    3.4161   -0.5930 C   0  0  0  0  0  0  0  0  0  0  0  0
    8.1797    2.5480   -0.4844 C   0  0  0  0  0  0  0  0  0  0  0  0
    9.4707    3.0702   -0.6973 N   0  0  0  0  0  0  0  0  0  0  0  0
   10.6576    2.4129   -0.9631 C   0  0  0  0  0  0  0  0  0  0  0  0
   11.8359    2.9078   -0.2895 C   0  0  0  0  0  0  0  0  0  0  0  0
   13.0250    2.4092   -0.4366 N   0  0  0  0  0  0  0  0  0  0  0  0
   13.1887    1.3644   -1.2379 N   0  0  0  0  0  0  0  0  0  0  0  0
   14.5689    0.8599   -1.3685 C   0  0  0  0  0  0  0  0  0  0  0  0
   15.3650    1.5654   -2.4465 C   0  0  0  0  0  0  0  0  0  0  0  0
   16.1575    2.6792   -2.1301 C   0  0  0  0  0  0  0  0  0  0  0  0
   16.8839    3.3494   -3.1173 C   0  0  0  0  0  0  0  0  0  0  0  0
   16.8065    2.8938   -4.4314 C   0  0  0  0  0  0  0  0  0  0  0  0
   17.5029    3.5296   -5.3851 F   0  0  0  0  0  0  0  0  0  0  0  0
   16.0257    1.7931   -4.7792 C   0  0  0  0  0  0  0  0  0  0  0  0
   15.3055    1.1329   -3.7820 C   0  0  0  0  0  0  0  0  0  0  0  0
   12.1769    0.7598   -2.0192 C   0  0  0  0  0  0  0  0  0  0  0  0
   12.4448   -0.1643   -2.7700 O   0  0  0  0  0  0  0  0  0  0  0  0
   10.8562    1.3639   -1.8432 C   0  0  0  0  0  0  0  0  0  0  0  0
    9.5228    0.6958   -2.9960 Br  0  0  0  0  0  0  0  0  0  0  0  0
    7.9583    1.2138   -0.1128 C   0  0  0  0  0  0  0  0  0  0  0  0
    6.6706    0.7185    0.1332 C   0  0  0  0  0  0  0  0  0  0  0  0
    6.4801   -0.7352    0.4916 C   0  0  0  0  0  0  0  0  0  0  0  0
    3.7239    0.7170    1.4639 C   0  0  0  0  0  0  0  0  0  0  0  0
    2.4478    0.4353    1.3672 N   0  0  0  0  0  0  0  0  0  0  0  0
    0.6042    0.7833   -1.4935 H   0  0  0  0  0  0  0  0  0  0  0  0
   -0.0206    1.0917    0.1505 H   0  0  0  0  0  0  0  0  0  0  0  0
    0.4010   -0.5588   -0.3344 H   0  0  0  0  0  0  0  0  0  0  0  0
    3.3356    1.4762   -1.6609 H   0  0  0  0  0  0  0  0  0  0  0  0
    4.9435    3.6232   -0.3912 H   0  0  0  0  0  0  0  0  0  0  0  0
    7.2341    4.4568   -0.8900 H   0  0  0  0  0  0  0  0  0  0  0  0
    9.5876    4.0256   -0.3778 H   0  0  0  0  0  0  0  0  0  0  0  0
   11.7478    3.7494    0.4053 H   0  0  0  0  0  0  0  0  0  0  0  0
   14.4903   -0.2121   -1.5848 H   0  0  0  0  0  0  0  0  0  0  0  0
   15.0348    1.0034   -0.3853 H   0  0  0  0  0  0  0  0  0  0  0  0
   16.2087    3.0300   -1.0961 H   0  0  0  0  0  0  0  0  0  0  0  0
   17.5087    4.2138   -2.8846 H   0  0  0  0  0  0  0  0  0  0  0  0
   15.9917    1.4679   -5.8209 H   0  0  0  0  0  0  0  0  0  0  0  0
   14.6757    0.2781   -4.0377 H   0  0  0  0  0  0  0  0  0  0  0  0
    8.8068    0.5354   -0.0151 H   0  0  0  0  0  0  0  0  0  0  0  0
    7.3411   -1.3330    0.1600 H   0  0  0  0  0  0  0  0  0  0  0  0
    5.5711   -1.1472    0.0289 H   0  0  0  0  0  0  0  0  0  0  0  0
    6.3770   -0.8782    1.5803 H   0  0  0  0  0  0  0  0  0  0  0  0
    4.3341    0.6400    2.3642 H   0  0  0  0  0  0  0  0  0  0  0  0
  1  2  1  0
  1 31  1  0
  1 32  1  0
  1 33  1  0
  2  3  2  0
  2 30  1  0
  3  4  1  0
  3 34  1  0
  4  5  1  0
  4 29  1  0
  5  6  2  0
  5 27  1  0
  6  7  1  0
  6 35  1  0
  7  8  2  0
  7 36  1  0
  8  9  1  0
  8 26  1  0
  9 10  1  0
  9 37  1  0
 10 11  1  0
 10 24  2  0
 11 12  2  0
 11 38  1  0
 12 13  1  0
 13 14  1  0
 13 22  1  0
 14 15  1  0
 14 39  1  0
 14 40  1  0
 15 16  2  0
 15 21  1  0
 16 17  1  0
 16 41  1  0
 17 18  2  0
 17 42  1  0
 18 19  1  0
 18 20  1  0
 20 21  2  0
 20 43  1  0
 21 44  1  0
 22 23  2  0
 22 24  1  0
 24 25  1  0
 26 27  2  0
 26 45  1  0
 27 28  1  0
 28 46  1  0
 28 47  1  0
 28 48  1  0
 29 30  2  0
 29 49  1  0
M  END

