
     RDKit          3D

 57 60  0  0  0  0  0  0  0  0999 V2000
    0.6270   -1.1844    1.4393 C   0  0  0  0  0  0  0  0  0  0  0  0
    1.7847   -0.3641    0.9149 C   0  0  0  0  0  0  0  0  0  0  0  0
    1.9447    0.9527    1.3742 C   0  0  0  0  0  0  0  0  0  0  0  0
    3.0091    1.7555    0.9574 C   0  0  0  0  0  0  0  0  0  0  0  0
    3.9465    1.2437    0.0601 C   0  0  0  0  0  0  0  0  0  0  0  0
    3.8015   -0.0642   -0.4085 C   0  0  0  0  0  0  0  0  0  0  0  0
    2.7332   -0.8777   -0.0024 C   0  0  0  0  0  0  0  0  0  0  0  0
    2.6594   -2.2963   -0.5754 C   0  0  1  0  0  0  0  0  0  0  0  0
    2.7687   -3.3201    0.4601 N   0  0  0  0  0  0  0  0  0  0  0  0
    3.9590   -3.9190    0.7588 C   0  0  0  0  0  0  0  0  0  0  0  0
    4.9922   -3.6879    0.1489 O   0  0  0  0  0  0  0  0  0  0  0  0
    3.9476   -4.9069    1.9033 C   0  0  0  0  0  0  0  0  0  0  0  0
    5.1917   -5.3436    2.3810 C   0  0  0  0  0  0  0  0  0  0  0  0
    5.2750   -6.2479    3.4368 C   0  0  0  0  0  0  0  0  0  0  0  0
    4.1079   -6.7463    4.0247 C   0  0  0  0  0  0  0  0  0  0  0  0
    4.2706   -7.8593    5.3614 Cl  0  0  0  0  0  0  0  0  0  0  0  0
    2.8547   -6.3336    3.5458 C   0  0  0  0  0  0  0  0  0  0  0  0
    1.2799   -6.9699    4.1851 S   0  0  1  0  0  0  0  0  0  0  0  0
    0.2340   -6.2177    3.4921 O   0  0  0  0  0  0  0  0  0  0  0  0
    1.3238   -8.4254    4.1675 O   0  0  0  0  0  0  0  0  0  0  0  0
    1.2249   -6.5465    5.8153 N   0  0  0  0  0  0  0  0  0  0  0  0
    1.2411   -5.2048    6.2830 C   0  0  0  0  0  0  0  0  0  0  0  0
    0.2631   -4.2860    5.8684 C   0  0  0  0  0  0  0  0  0  0  0  0
    0.2862   -2.9821    6.3673 C   0  0  0  0  0  0  0  0  0  0  0  0
    1.2563   -2.5873    7.2946 C   0  0  0  0  0  0  0  0  0  0  0  0
    2.2200   -3.5077    7.7159 C   0  0  0  0  0  0  0  0  0  0  0  0
    2.2238   -4.8068    7.2038 C   0  0  0  0  0  0  0  0  0  0  0  0
    2.7848   -5.4192    2.4909 C   0  0  0  0  0  0  0  0  0  0  0  0
    1.4690   -2.5491   -1.5093 C   0  0  0  0  0  0  0  0  0  0  0  0
    0.9347   -1.5045   -2.2814 C   0  0  0  0  0  0  0  0  0  0  0  0
   -0.1040   -1.7416   -3.1853 C   0  0  0  0  0  0  0  0  0  0  0  0
   -0.6308   -3.0278   -3.3348 C   0  0  0  0  0  0  0  0  0  0  0  0
   -0.1042   -4.0754   -2.5755 C   0  0  0  0  0  0  0  0  0  0  0  0
    0.9380   -3.8380   -1.6740 C   0  0  0  0  0  0  0  0  0  0  0  0
   -0.1610   -0.5340    1.8464 H   0  0  0  0  0  0  0  0  0  0  0  0
    0.9446   -1.8468    2.2647 H   0  0  0  0  0  0  0  0  0  0  0  0
    0.1686   -1.8123    0.6612 H   0  0  0  0  0  0  0  0  0  0  0  0
    1.2113    1.3568    2.0781 H   0  0  0  0  0  0  0  0  0  0  0  0
    3.1027    2.7771    1.3346 H   0  0  0  0  0  0  0  0  0  0  0  0
    4.7882    1.8551   -0.2745 H   0  0  0  0  0  0  0  0  0  0  0  0
    4.5390   -0.4714   -1.1055 H   0  0  0  0  0  0  0  0  0  0  0  0
    3.5734   -2.4327   -1.1735 H   0  0  0  0  0  0  0  0  0  0  0  0
    1.9734   -3.4669    1.0676 H   0  0  0  0  0  0  0  0  0  0  0  0
    6.0919   -4.9526    1.9035 H   0  0  0  0  0  0  0  0  0  0  0  0
    6.2433   -6.5778    3.8164 H   0  0  0  0  0  0  0  0  0  0  0  0
    1.7826   -7.2085    6.3516 H   0  0  0  0  0  0  0  0  0  0  0  0
   -0.5040   -4.6060    5.1638 H   0  0  0  0  0  0  0  0  0  0  0  0
   -0.4777   -2.2719    6.0402 H   0  0  0  0  0  0  0  0  0  0  0  0
    1.2584   -1.5688    7.6898 H   0  0  0  0  0  0  0  0  0  0  0  0
    2.9837   -3.2123    8.4398 H   0  0  0  0  0  0  0  0  0  0  0  0
    2.9920   -5.5202    7.5137 H   0  0  0  0  0  0  0  0  0  0  0  0
    1.7861   -5.1470    2.1463 H   0  0  0  0  0  0  0  0  0  0  0  0
    1.3335   -0.4938   -2.1732 H   0  0  0  0  0  0  0  0  0  0  0  0
   -0.5052   -0.9132   -3.7750 H   0  0  0  0  0  0  0  0  0  0  0  0
   -1.4461   -3.2119   -4.0389 H   0  0  0  0  0  0  0  0  0  0  0  0
   -0.5034   -5.0872   -2.6840 H   0  0  0  0  0  0  0  0  0  0  0  0
    1.3474   -4.6686   -1.0959 H   0  0  0  0  0  0  0  0  0  0  0  0
  1  2  1  0
  1 35  1  0
  1 36  1  0
  1 37  1  0
  2  3  2  0
  2  7  1  0
  3  4  1  0
  3 38  1  0
  4  5  2  0
  4 39  1  0
  5  6  1  0
  5 40  1  0
  6  7  2  0
  6 41  1  0
  7  8  1  0
  8  9  1  0
  8 29  1  0
  8 42  1  6
  9 10  1  0
  9 43  1  0
 10 11  2  0
 10 12  1  0
 12 13  2  0
 12 28  1  0
 13 14  1  0
 13 44  1  0
 14 15  2  0
 14 45  1  0
 15 16  1  0
 15 17  1  0
 17 18  1  0
 17 28  2  0
 18 19  2  0
 18 20  2  0
 18 21  1  1
 21 22  1  0
 21 46  1  0
 22 23  2  0
 22 27  1  0
 23 24  1  0
 23 47  1  0
 24 25  2  0
 24 48  1  0
 25 26  1  0
 25 49  1  0
 26 27  2  0
 26 50  1  0
 27 51  1  0
 28 52  1  0
 29 30  2  0
 29 34  1  0
 30 31  1  0
 30 53  1  0
 31 32  2  0
 31 54  1  0
 32 33  1  0
 32 55  1  0
 33 34  2  0
 33 56  1  0
 34 57  1  0
M  END

