
     RDKit          3D

 38 39  0  0  0  0  0  0  0  0999 V2000
    3.1760    1.6883   -2.0582 C   0  0  0  0  0  0  0  0  0  0  0  0
    3.7946    0.9014   -0.9277 C   0  0  0  0  0  0  0  0  0  0  0  0
    3.9935    1.4649    0.3397 C   0  0  0  0  0  0  0  0  0  0  0  0
    4.5884    0.7257    1.3633 C   0  0  0  0  0  0  0  0  0  0  0  0
    5.0022   -0.6020    1.1741 C   0  0  0  0  0  0  0  0  0  0  0  0
    5.6594   -1.3500    2.3136 C   0  0  0  0  0  0  0  0  0  0  0  0
    4.7967   -1.1829   -0.0981 C   0  0  0  0  0  0  0  0  0  0  0  0
    5.1948   -2.6160   -0.4178 C   0  0  0  0  0  0  0  0  0  0  0  0
    4.0504   -3.4873   -0.7074 N   0  0  0  0  0  0  0  0  0  0  0  0
    3.2904   -3.9466    0.4580 C   0  0  0  0  0  0  0  0  0  0  0  0
    1.9739   -4.6321    0.1035 C   0  0  0  0  0  0  0  0  0  0  0  0
    2.1417   -5.6034   -1.0669 C   0  0  2  0  0  0  0  0  0  0  0  0
    3.0158   -6.8077   -0.6875 C   0  0  0  0  0  0  0  0  0  0  0  0
    3.3829   -7.0469    0.4313 O   0  0  0  0  0  0  0  0  0  0  0  0
    3.3308   -7.6479   -1.6969 O   0  0  0  0  0  0  0  0  0  0  0  0
    2.6530   -4.8048   -2.2762 C   0  0  0  0  0  0  0  0  0  0  0  0
    3.8224   -3.8568   -2.0038 C   0  0  0  0  0  0  0  0  0  0  0  0
    4.4856   -3.4400   -2.9442 O   0  0  0  0  0  0  0  0  0  0  0  0
    4.2067   -0.4244   -1.1201 C   0  0  0  0  0  0  0  0  0  0  0  0
    2.8365    2.6797   -1.7232 H   0  0  0  0  0  0  0  0  0  0  0  0
    2.3086    1.1613   -2.4889 H   0  0  0  0  0  0  0  0  0  0  0  0
    3.8962    1.8410   -2.8799 H   0  0  0  0  0  0  0  0  0  0  0  0
    3.6844    2.4970    0.5295 H   0  0  0  0  0  0  0  0  0  0  0  0
    4.7368    1.1922    2.3416 H   0  0  0  0  0  0  0  0  0  0  0  0
    5.6848   -0.7304    3.2218 H   0  0  0  0  0  0  0  0  0  0  0  0
    6.7004   -1.6294    2.0790 H   0  0  0  0  0  0  0  0  0  0  0  0
    5.1282   -2.2823    2.5672 H   0  0  0  0  0  0  0  0  0  0  0  0
    5.7607   -3.0656    0.4111 H   0  0  0  0  0  0  0  0  0  0  0  0
    5.8311   -2.6332   -1.3124 H   0  0  0  0  0  0  0  0  0  0  0  0
    3.0834   -3.0707    1.0960 H   0  0  0  0  0  0  0  0  0  0  0  0
    3.9185   -4.6384    1.0451 H   0  0  0  0  0  0  0  0  0  0  0  0
    1.2194   -3.8794   -0.1788 H   0  0  0  0  0  0  0  0  0  0  0  0
    1.6016   -5.1569    0.9947 H   0  0  0  0  0  0  0  0  0  0  0  0
    1.1573   -6.0360   -1.3264 H   0  0  0  0  0  0  0  0  0  0  0  0
    2.9792   -7.3245   -2.5386 H   0  0  0  0  0  0  0  0  0  0  0  0
    1.8331   -4.1788   -2.6666 H   0  0  0  0  0  0  0  0  0  0  0  0
    2.9706   -5.4258   -3.1286 H   0  0  0  0  0  0  0  0  0  0  0  0
    4.0800   -0.8903   -2.1023 H   0  0  0  0  0  0  0  0  0  0  0  0
  1  2  1  0
  1 20  1  0
  1 21  1  0
  1 22  1  0
  2  3  2  0
  2 19  1  0
  3  4  1  0
  3 23  1  0
  4  5  2  0
  4 24  1  0
  5  6  1  0
  5  7  1  0
  6 25  1  0
  6 26  1  0
  6 27  1  0
  7  8  1  0
  7 19  2  0
  8  9  1  0
  8 28  1  0
  8 29  1  0
  9 10  1  0
  9 17  1  0
 10 11  1  0
 10 30  1  0
 10 31  1  0
 11 12  1  0
 11 32  1  0
 11 33  1  0
 12 13  1  0
 12 16  1  0
 12 34  1  6
 13 14  2  0
 13 15  1  0
 15 35  1  0
 16 17  1  0
 16 36  1  0
 16 37  1  0
 17 18  2  0
 19 38  1  0
M  END

