
     RDKit          3D

 35 37  0  0  0  0  0  0  0  0999 V2000
    2.6220   -1.2310    0.8779 O   0  0  0  0  0  0  0  0  0  0  0  0
    2.0372   -0.1945    0.6048 N   0  0  0  0  0  0  0  0  0  0  0  0
    0.9274   -0.1330    0.0968 O   0  0  0  0  0  0  0  0  0  0  0  0
    2.7171    1.0759    0.9082 C   0  0  0  0  0  0  0  0  0  0  0  0
    3.9876    1.0409    1.4916 C   0  0  0  0  0  0  0  0  0  0  0  0
    4.6491    2.2340    1.7888 C   0  0  0  0  0  0  0  0  0  0  0  0
    3.9938    3.4255    1.4816 C   0  0  0  0  0  0  0  0  0  0  0  0
    2.7215    3.4613    0.8979 C   0  0  0  0  0  0  0  0  0  0  0  0
    2.0635    2.2779    0.6005 C   0  0  0  0  0  0  0  0  0  0  0  0
    2.3402    4.9041    0.6870 C   0  0  0  0  0  0  0  0  0  0  0  0
    3.5359    5.6653    1.3499 C   0  0  1  0  0  0  0  0  0  0  0  0
    4.1871    6.7253    0.4712 C   0  0  0  0  0  0  0  0  0  0  0  0
    3.3986    7.6600   -0.2199 C   0  0  0  0  0  0  0  0  0  0  0  0
    3.9968    8.6436   -1.0071 C   0  0  0  0  0  0  0  0  0  0  0  0
    5.3886    8.7098   -1.1161 C   0  0  0  0  0  0  0  0  0  0  0  0
    6.1749    7.7852   -0.4256 C   0  0  0  0  0  0  0  0  0  0  0  0
    7.6826    7.8354   -0.5024 C   0  0  1  0  0  0  0  0  0  0  0  0
    8.1139    8.7267   -1.4092 F   0  0  0  0  0  0  0  0  0  0  0  0
    8.2231    8.1737    0.6825 F   0  0  0  0  0  0  0  0  0  0  0  0
    8.1962    6.6372   -0.8359 F   0  0  0  0  0  0  0  0  0  0  0  0
    5.5788    6.7989    0.3697 C   0  0  0  0  0  0  0  0  0  0  0  0
    3.0987    6.2837    2.7014 C   0  0  1  0  0  0  0  0  0  0  0  0
    2.5961    5.3419    3.5127 F   0  0  0  0  0  0  0  0  0  0  0  0
    4.1215    6.8666    3.3269 F   0  0  0  0  0  0  0  0  0  0  0  0
    2.1414    7.2085    2.5114 F   0  0  0  0  0  0  0  0  0  0  0  0
    4.5111    4.6600    1.7023 O   0  0  0  0  0  0  0  0  0  0  0  0
    4.4394    0.0729    1.7067 H   0  0  0  0  0  0  0  0  0  0  0  0
    5.6390    2.2416    2.2466 H   0  0  0  0  0  0  0  0  0  0  0  0
    1.0741    2.2467    0.1445 H   0  0  0  0  0  0  0  0  0  0  0  0
    1.3794    5.1664    1.1542 H   0  0  0  0  0  0  0  0  0  0  0  0
    2.2662    5.1534   -0.3820 H   0  0  0  0  0  0  0  0  0  0  0  0
    2.3101    7.6270   -0.1402 H   0  0  0  0  0  0  0  0  0  0  0  0
    3.3741    9.3638   -1.5424 H   0  0  0  0  0  0  0  0  0  0  0  0
    5.8615    9.4730   -1.7355 H   0  0  0  0  0  0  0  0  0  0  0  0
    6.1963    6.0779    0.9051 H   0  0  0  0  0  0  0  0  0  0  0  0
  1  2  2  0
  2  3  1  0
  2  4  1  0
  4  5  2  0
  4  9  1  0
  5  6  1  0
  5 27  1  0
  6  7  2  0
  6 28  1  0
  7  8  1  0
  7 26  1  0
  8  9  2  0
  8 10  1  0
  9 29  1  0
 10 11  1  0
 10 30  1  0
 10 31  1  0
 11 12  1  6
 11 22  1  0
 11 26  1  0
 12 13  2  0
 12 21  1  0
 13 14  1  0
 13 32  1  0
 14 15  2  0
 14 33  1  0
 15 16  1  0
 15 34  1  0
 16 17  1  0
 16 21  2  0
 17 18  1  6
 17 19  1  0
 17 20  1  0
 21 35  1  0
 22 23  1  1
 22 24  1  0
 22 25  1  0
M  CHG  2   2   1   3  -1
M  END

