
     RDKit          3D

 33 34  0  0  0  0  0  0  0  0999 V2000
    3.1376    1.2685   -0.7040 O   0  0  0  0  0  0  0  0  0  0  0  0
    2.4353    0.1957   -0.1003 C   0  0  0  0  0  0  0  0  0  0  0  0
    3.0402   -1.1148   -0.5841 C   0  0  0  0  0  0  0  0  0  0  0  0
    4.5503   -1.2725   -0.2892 C   0  0  1  0  0  0  0  0  0  0  0  0
    4.8354   -1.0759    1.1939 C   0  0  0  0  0  0  0  0  0  0  0  0
    4.6299   -2.1035    2.1245 C   0  0  0  0  0  0  0  0  0  0  0  0
    4.8657   -1.8557    3.4769 C   0  0  0  0  0  0  0  0  0  0  0  0
    5.3000   -0.5811    3.8572 C   0  0  0  0  0  0  0  0  0  0  0  0
    5.5022    0.4094    2.9860 N   0  0  0  0  0  0  0  0  0  0  0  0
    5.2757    0.1598    1.6935 C   0  0  0  0  0  0  0  0  0  0  0  0
    5.0463   -2.5765   -0.7308 N   0  0  0  0  0  0  0  0  0  0  0  0
    4.7110   -2.9911   -2.0929 C   0  0  0  0  0  0  0  0  0  0  0  0
    5.5940   -4.2301   -2.3362 C   0  0  0  0  0  0  0  0  0  0  0  0
    6.7761   -4.0666   -1.3443 C   0  0  0  0  0  0  0  0  0  0  0  0
    6.5000   -2.7240   -0.6521 C   0  0  0  0  0  0  0  0  0  0  0  0
    2.8142    2.0976   -0.3305 H   0  0  0  0  0  0  0  0  0  0  0  0
    1.3617    0.2110   -0.3782 H   0  0  0  0  0  0  0  0  0  0  0  0
    2.4842    0.2553    1.0039 H   0  0  0  0  0  0  0  0  0  0  0  0
    2.8810   -1.1741   -1.6721 H   0  0  0  0  0  0  0  0  0  0  0  0
    2.4886   -1.9535   -0.1252 H   0  0  0  0  0  0  0  0  0  0  0  0
    5.0662   -0.4555   -0.8403 H   0  0  0  0  0  0  0  0  0  0  0  0
    4.3072   -3.0866    1.7725 H   0  0  0  0  0  0  0  0  0  0  0  0
    4.7200   -2.6362    4.2280 H   0  0  0  0  0  0  0  0  0  0  0  0
    5.4950   -0.3552    4.9128 H   0  0  0  0  0  0  0  0  0  0  0  0
    5.4402    0.9902    0.9962 H   0  0  0  0  0  0  0  0  0  0  0  0
    4.9570   -2.1934   -2.8324 H   0  0  0  0  0  0  0  0  0  0  0  0
    3.6398   -3.2149   -2.1986 H   0  0  0  0  0  0  0  0  0  0  0  0
    5.9226   -4.2849   -3.3849 H   0  0  0  0  0  0  0  0  0  0  0  0
    5.0328   -5.1523   -2.1234 H   0  0  0  0  0  0  0  0  0  0  0  0
    7.7570   -4.0713   -1.8427 H   0  0  0  0  0  0  0  0  0  0  0  0
    6.7800   -4.8849   -0.6085 H   0  0  0  0  0  0  0  0  0  0  0  0
    7.0135   -1.8958   -1.1946 H   0  0  0  0  0  0  0  0  0  0  0  0
    6.8506   -2.6926    0.3900 H   0  0  0  0  0  0  0  0  0  0  0  0
  1  2  1  0
  1 16  1  0
  2  3  1  0
  2 17  1  0
  2 18  1  0
  3  4  1  0
  3 19  1  0
  3 20  1  0
  4  5  1  0
  4 11  1  0
  4 21  1  6
  5  6  2  0
  5 10  1  0
  6  7  1  0
  6 22  1  0
  7  8  2  0
  7 23  1  0
  8  9  1  0
  8 24  1  0
  9 10  2  0
 10 25  1  0
 11 12  1  0
 11 15  1  0
 12 13  1  0
 12 26  1  0
 12 27  1  0
 13 14  1  0
 13 28  1  0
 13 29  1  0
 14 15  1  0
 14 30  1  0
 14 31  1  0
 15 32  1  0
 15 33  1  0
M  END

