
     RDKit          3D

 87 88  0  0  0  0  0  0  0  0999 V2000
    4.8461   -0.7895    2.6887 C   0  0  0  0  0  0  0  0  0  0  0  0
    5.1730   -0.6880    1.4010 C   0  0  0  0  0  0  0  0  0  0  0  0
    5.0341    0.4904    0.7615 F   0  0  0  0  0  0  0  0  0  0  0  0
    5.7160   -1.7725    0.5072 C   0  0  1  0  0  0  0  0  0  0  0  0
    4.8809   -1.9543   -0.7720 C   0  0  0  0  0  0  0  0  0  0  0  0
    3.4833   -2.4450   -0.5194 C   0  0  0  0  0  0  0  0  0  0  0  0
    2.3298   -1.7724   -0.6810 C   0  0  0  0  0  0  0  0  0  0  0  0
    2.2010   -0.3581   -1.1804 C   0  0  0  0  0  0  0  0  0  0  0  0
    1.0208   -2.4400   -0.3326 C   0  0  0  0  0  0  0  0  0  0  0  0
    0.1406   -2.3717   -1.4334 O   0  0  0  0  0  0  0  0  0  0  0  0
   -1.1429   -2.8930   -1.1791 C   0  0  0  0  0  0  0  0  0  0  0  0
   -1.9909   -2.7531   -2.4300 C   0  0  0  0  0  0  0  0  0  0  0  0
    7.0425   -1.4501    0.0845 O   0  0  0  0  0  0  0  0  0  0  0  0
    8.0676   -1.7167    1.0125 C   0  0  1  0  0  0  0  0  0  0  0  0
    8.2404   -3.0991    1.1929 O   0  0  0  0  0  0  0  0  0  0  0  0
    9.3338   -1.0111    0.4885 C   0  0  1  0  0  0  0  0  0  0  0  0
    9.1164    0.4713    0.3016 C   0  0  0  0  0  0  0  0  0  0  0  0
    9.6997    1.4129    1.0569 C   0  0  0  0  0  0  0  0  0  0  0  0
   10.6317    1.1402    2.2204 C   0  0  1  0  0  0  0  0  0  0  0  0
   10.4077    2.1209    3.4350 C   0  0  2  0  0  0  0  0  0  0  0  0
    9.0269    1.8997    4.0861 C   0  0  0  0  0  0  0  0  0  0  0  0
   10.5894    3.6100    2.9763 C   0  0  0  0  0  0  0  0  0  0  0  0
    9.3191    4.4223    2.6748 C   0  0  0  0  0  0  0  0  0  0  0  0
    9.5845    5.8312    2.1033 C   0  0  1  0  0  0  0  0  0  0  0  0
   10.3402    5.7595    0.7782 C   0  0  0  0  0  0  0  0  0  0  0  0
    9.6517    4.9506   -0.1230 F   0  0  0  0  0  0  0  0  0  0  0  0
    8.2822    6.6841    1.9193 C   0  0  1  0  0  0  0  0  0  0  0  0
    7.2227    6.4288    2.9697 C   0  0  0  0  0  0  0  0  0  0  0  0
    6.8576    7.3080    3.9153 C   0  0  0  0  0  0  0  0  0  0  0  0
    7.4522    8.6878    4.0533 C   0  0  2  0  0  0  0  0  0  0  0  0
    6.4772    9.6820    3.7370 O   0  0  0  0  0  0  0  0  0  0  0  0
    8.7311    8.8333    3.2171 C   0  0  0  0  0  0  0  0  0  0  0  0
    8.5764    8.1974    1.8318 C   0  0  0  0  0  0  0  0  0  0  0  0
   11.4733    1.8261    4.5296 C   0  0  1  0  0  0  0  0  0  0  0  0
   12.9384    1.9501    4.1405 C   0  0  0  0  0  0  0  0  0  0  0  0
   11.2514    2.7105    5.5956 F   0  0  0  0  0  0  0  0  0  0  0  0
   10.6077   -0.3562    2.5967 C   0  0  0  0  0  0  0  0  0  0  0  0
   10.5706   -1.2677    1.3646 C   0  0  0  0  0  0  0  0  0  0  0  0
    4.4555    0.0698    3.2375 H   0  0  0  0  0  0  0  0  0  0  0  0
    4.9603   -1.7416    3.2076 H   0  0  0  0  0  0  0  0  0  0  0  0
    5.7300   -2.7142    1.0819 H   0  0  0  0  0  0  0  0  0  0  0  0
    5.4275   -2.6852   -1.3917 H   0  0  0  0  0  0  0  0  0  0  0  0
    4.8934   -1.0028   -1.3214 H   0  0  0  0  0  0  0  0  0  0  0  0
    3.4156   -3.4765   -0.1497 H   0  0  0  0  0  0  0  0  0  0  0  0
    3.1682    0.1312   -1.3490 H   0  0  0  0  0  0  0  0  0  0  0  0
    1.6382    0.2526   -0.4527 H   0  0  0  0  0  0  0  0  0  0  0  0
    1.6186   -0.3423   -2.1155 H   0  0  0  0  0  0  0  0  0  0  0  0
    0.5648   -1.9213    0.5416 H   0  0  0  0  0  0  0  0  0  0  0  0
    1.1904   -3.4927   -0.0280 H   0  0  0  0  0  0  0  0  0  0  0  0
   -1.6143   -2.3563   -0.3275 H   0  0  0  0  0  0  0  0  0  0  0  0
   -1.0729   -3.9602   -0.8771 H   0  0  0  0  0  0  0  0  0  0  0  0
   -2.0828   -1.6947   -2.7192 H   0  0  0  0  0  0  0  0  0  0  0  0
   -3.0011   -3.1578   -2.2609 H   0  0  0  0  0  0  0  0  0  0  0  0
   -1.5324   -3.2979   -3.2697 H   0  0  0  0  0  0  0  0  0  0  0  0
    7.7935   -1.3333    2.0113 H   0  0  0  0  0  0  0  0  0  0  0  0
    8.5104   -3.4734    0.3403 H   0  0  0  0  0  0  0  0  0  0  0  0
    9.5047   -1.4536   -0.5127 H   0  0  0  0  0  0  0  0  0  0  0  0
    8.4546    0.7734   -0.5144 H   0  0  0  0  0  0  0  0  0  0  0  0
    9.5376    2.4576    0.7813 H   0  0  0  0  0  0  0  0  0  0  0  0
   11.6485    1.3699    1.8454 H   0  0  0  0  0  0  0  0  0  0  0  0
    8.8630    2.6203    4.8989 H   0  0  0  0  0  0  0  0  0  0  0  0
    8.9507    0.8952    4.5291 H   0  0  0  0  0  0  0  0  0  0  0  0
    8.2119    2.0022    3.3561 H   0  0  0  0  0  0  0  0  0  0  0  0
   11.2606    3.6158    2.1028 H   0  0  0  0  0  0  0  0  0  0  0  0
   11.1244    4.1490    3.7744 H   0  0  0  0  0  0  0  0  0  0  0  0
    8.7511    4.5377    3.6078 H   0  0  0  0  0  0  0  0  0  0  0  0
    8.6578    3.8853    1.9782 H   0  0  0  0  0  0  0  0  0  0  0  0
   10.2465    6.3649    2.8114 H   0  0  0  0  0  0  0  0  0  0  0  0
   11.3493    5.3361    0.9053 H   0  0  0  0  0  0  0  0  0  0  0  0
   10.4460    6.7540    0.3151 H   0  0  0  0  0  0  0  0  0  0  0  0
    7.8511    6.3543    0.9568 H   0  0  0  0  0  0  0  0  0  0  0  0
    6.7072    5.4642    2.9241 H   0  0  0  0  0  0  0  0  0  0  0  0
    6.0430    7.0610    4.6049 H   0  0  0  0  0  0  0  0  0  0  0  0
    7.6967    8.8749    5.1129 H   0  0  0  0  0  0  0  0  0  0  0  0
    6.0591    9.4254    2.9040 H   0  0  0  0  0  0  0  0  0  0  0  0
    9.5681    8.3582    3.7583 H   0  0  0  0  0  0  0  0  0  0  0  0
    8.9702    9.9051    3.1350 H   0  0  0  0  0  0  0  0  0  0  0  0
    9.4719    8.3901    1.2199 H   0  0  0  0  0  0  0  0  0  0  0  0
    7.7435    8.6921    1.3012 H   0  0  0  0  0  0  0  0  0  0  0  0
   11.2908    0.8190    4.9403 H   0  0  0  0  0  0  0  0  0  0  0  0
   13.1632    2.9301    3.6941 H   0  0  0  0  0  0  0  0  0  0  0  0
   13.2362    1.1669    3.4281 H   0  0  0  0  0  0  0  0  0  0  0  0
   13.5579    1.8391    5.0433 H   0  0  0  0  0  0  0  0  0  0  0  0
    9.7272   -0.5690    3.2244 H   0  0  0  0  0  0  0  0  0  0  0  0
   11.4870   -0.6150    3.2075 H   0  0  0  0  0  0  0  0  0  0  0  0
   10.5967   -2.3238    1.6729 H   0  0  0  0  0  0  0  0  0  0  0  0
   11.4721   -1.0886    0.7536 H   0  0  0  0  0  0  0  0  0  0  0  0
  1  2  2  0
  1 39  1  0
  1 40  1  0
  2  3  1  0
  2  4  1  0
  4  5  1  0
  4 13  1  0
  4 41  1  1
  5  6  1  0
  5 42  1  0
  5 43  1  0
  6  7  2  0
  6 44  1  0
  7  8  1  0
  7  9  1  0
  8 45  1  0
  8 46  1  0
  8 47  1  0
  9 10  1  0
  9 48  1  0
  9 49  1  0
 10 11  1  0
 11 12  1  0
 11 50  1  0
 11 51  1  0
 12 52  1  0
 12 53  1  0
 12 54  1  0
 13 14  1  0
 14 15  1  0
 14 16  1  0
 14 55  1  1
 15 56  1  0
 16 17  1  0
 16 38  1  0
 16 57  1  6
 17 18  2  0
 17 58  1  0
 18 19  1  0
 18 59  1  0
 19 20  1  0
 19 37  1  0
 19 60  1  6
 20 21  1  1
 20 22  1  0
 20 34  1  0
 21 61  1  0
 21 62  1  0
 21 63  1  0
 22 23  1  0
 22 64  1  0
 22 65  1  0
 23 24  1  0
 23 66  1  0
 23 67  1  0
 24 25  1  0
 24 27  1  0
 24 68  1  1
 25 26  1  0
 25 69  1  0
 25 70  1  0
 27 28  1  0
 27 33  1  0
 27 71  1  6
 28 29  2  0
 28 72  1  0
 29 30  1  0
 29 73  1  0
 30 31  1  0
 30 32  1  0
 30 74  1  1
 31 75  1  0
 32 33  1  0
 32 76  1  0
 32 77  1  0
 33 78  1  0
 33 79  1  0
 34 35  1  0
 34 36  1  0
 34 80  1  1
 35 81  1  0
 35 82  1  0
 35 83  1  0
 37 38  1  0
 37 84  1  0
 37 85  1  0
 38 86  1  0
 38 87  1  0
M  END

