
     RDKit          3D

 43 44  0  0  0  0  0  0  0  0999 V2000
    0.3042   -0.6466   -0.2543 O   0  0  0  0  0  0  0  0  0  0  0  0
    0.5207   -1.8672   -0.9423 C   0  0  1  0  0  0  0  0  0  0  0  0
    0.9288   -1.6186   -2.4095 C   0  0  0  0  0  0  0  0  0  0  0  0
    2.2099   -0.7767   -2.5694 C   0  0  0  0  0  0  0  0  0  0  0  0
    2.5998   -0.4450   -3.9343 N   0  0  0  0  0  0  0  0  0  0  0  0
    3.0503   -1.5786   -4.7264 C   0  0  0  0  0  0  0  0  0  0  0  0
    4.1009   -1.2585   -5.8072 C   0  0  0  0  0  0  0  0  0  0  0  0
    5.2086   -0.2799   -5.3670 C   0  0  0  0  0  0  0  0  0  0  0  0
    5.0138    1.1849   -5.7913 C   0  0  0  0  0  0  0  0  0  0  0  0
    3.8073    1.9529   -5.2272 C   0  0  0  0  0  0  0  0  0  0  0  0
    2.4203    1.4201   -5.6406 C   0  0  0  0  0  0  0  0  0  0  0  0
    1.7343    0.5166   -4.5971 C   0  0  0  0  0  0  0  0  0  0  0  0
    1.5456   -2.6788   -0.1636 C   0  0  0  0  0  0  0  0  0  0  0  0
    2.2071   -2.1275    0.9401 C   0  0  0  0  0  0  0  0  0  0  0  0
    3.1372   -2.9034    1.6298 C   0  0  0  0  0  0  0  0  0  0  0  0
    3.7685   -2.3710    2.6847 F   0  0  0  0  0  0  0  0  0  0  0  0
    3.4373   -4.2136    1.2677 C   0  0  0  0  0  0  0  0  0  0  0  0
    2.7587   -4.7373    0.1687 C   0  0  0  0  0  0  0  0  0  0  0  0
    3.0166   -5.9987   -0.2043 F   0  0  0  0  0  0  0  0  0  0  0  0
    1.8225   -4.0003   -0.5496 C   0  0  0  0  0  0  0  0  0  0  0  0
   -0.3751   -0.1502   -0.7273 H   0  0  0  0  0  0  0  0  0  0  0  0
   -0.4152   -2.4631   -0.9535 H   0  0  0  0  0  0  0  0  0  0  0  0
    0.0833   -1.1120   -2.9107 H   0  0  0  0  0  0  0  0  0  0  0  0
    1.0405   -2.5900   -2.9194 H   0  0  0  0  0  0  0  0  0  0  0  0
    3.0495   -1.3079   -2.0907 H   0  0  0  0  0  0  0  0  0  0  0  0
    2.0816    0.1609   -2.0054 H   0  0  0  0  0  0  0  0  0  0  0  0
    2.2043   -2.1249   -5.2050 H   0  0  0  0  0  0  0  0  0  0  0  0
    3.5102   -2.2907   -4.0210 H   0  0  0  0  0  0  0  0  0  0  0  0
    3.6169   -0.8870   -6.7247 H   0  0  0  0  0  0  0  0  0  0  0  0
    4.5502   -2.2242   -6.0957 H   0  0  0  0  0  0  0  0  0  0  0  0
    6.1677   -0.6152   -5.7975 H   0  0  0  0  0  0  0  0  0  0  0  0
    5.3304   -0.3336   -4.2715 H   0  0  0  0  0  0  0  0  0  0  0  0
    4.9646    1.2234   -6.8966 H   0  0  0  0  0  0  0  0  0  0  0  0
    5.9279    1.7418   -5.5188 H   0  0  0  0  0  0  0  0  0  0  0  0
    3.9008    2.9974   -5.5706 H   0  0  0  0  0  0  0  0  0  0  0  0
    3.8733    1.9860   -4.1261 H   0  0  0  0  0  0  0  0  0  0  0  0
    2.4912    0.9080   -6.6137 H   0  0  0  0  0  0  0  0  0  0  0  0
    1.7332    2.2658   -5.8157 H   0  0  0  0  0  0  0  0  0  0  0  0
    0.8485    0.0352   -5.0739 H   0  0  0  0  0  0  0  0  0  0  0  0
    1.3340    1.1741   -3.8070 H   0  0  0  0  0  0  0  0  0  0  0  0
    1.9960   -1.1094    1.2631 H   0  0  0  0  0  0  0  0  0  0  0  0
    4.1663   -4.8056    1.8212 H   0  0  0  0  0  0  0  0  0  0  0  0
    1.3170   -4.4737   -1.3935 H   0  0  0  0  0  0  0  0  0  0  0  0
  1  2  1  0
  1 21  1  0
  2  3  1  0
  2 13  1  0
  2 22  1  6
  3  4  1  0
  3 23  1  0
  3 24  1  0
  4  5  1  0
  4 25  1  0
  4 26  1  0
  5  6  1  0
  5 12  1  0
  6  7  1  0
  6 27  1  0
  6 28  1  0
  7  8  1  0
  7 29  1  0
  7 30  1  0
  8  9  1  0
  8 31  1  0
  8 32  1  0
  9 10  1  0
  9 33  1  0
  9 34  1  0
 10 11  1  0
 10 35  1  0
 10 36  1  0
 11 12  1  0
 11 37  1  0
 11 38  1  0
 12 39  1  0
 12 40  1  0
 13 14  2  0
 13 20  1  0
 14 15  1  0
 14 41  1  0
 15 16  1  0
 15 17  2  0
 17 18  1  0
 17 42  1  0
 18 19  1  0
 18 20  2  0
 20 43  1  0
M  END

