
     RDKit          3D

 42 43  0  0  0  0  0  0  0  0999 V2000
    0.4483    3.3376   -6.9858 C   0  0  0  0  0  0  0  0  0  0  0  0
    1.1711    2.7349   -5.9357 O   0  0  0  0  0  0  0  0  0  0  0  0
    2.5040    2.9622   -5.8321 C   0  0  0  0  0  0  0  0  0  0  0  0
    3.2456    3.7701   -6.7047 C   0  0  0  0  0  0  0  0  0  0  0  0
    4.6146    3.9380   -6.4778 C   0  0  0  0  0  0  0  0  0  0  0  0
    5.2404    3.3003   -5.4089 C   0  0  0  0  0  0  0  0  0  0  0  0
    7.1116    3.6753   -5.1479 Br  0  0  0  0  0  0  0  0  0  0  0  0
    4.5273    2.4597   -4.5281 C   0  0  0  0  0  0  0  0  0  0  0  0
    5.1623    1.7486   -3.3545 C   0  0  0  0  0  0  0  0  0  0  0  0
    5.8604    0.3780   -3.6176 C   0  0  1  0  0  0  0  0  0  0  0  0
    6.6157    0.3911   -4.8215 O   0  0  0  0  0  0  0  0  0  0  0  0
    6.7550    0.0188   -2.4103 C   0  0  0  0  0  0  0  0  0  0  0  0
    7.0118   -1.5166   -2.4615 C   0  0  2  0  0  0  0  0  0  0  0  0
    6.8648   -2.1394   -1.0632 C   0  0  0  0  0  0  0  0  0  0  0  0
    8.4134   -1.8218   -3.0166 C   0  0  0  0  0  0  0  0  0  0  0  0
    5.9074   -2.0370   -3.4357 C   0  0  0  0  0  0  0  0  0  0  0  0
    4.9370   -0.8682   -3.7067 C   0  0  2  0  0  0  0  0  0  0  0  0
    4.1465   -1.0523   -5.0019 C   0  0  0  0  0  0  0  0  0  0  0  0
    3.1541    2.3286   -4.7614 C   0  0  0  0  0  0  0  0  0  0  0  0
   -0.5958    3.0166   -6.8718 H   0  0  0  0  0  0  0  0  0  0  0  0
    0.8151    3.0137   -7.9766 H   0  0  0  0  0  0  0  0  0  0  0  0
    0.4904    4.4407   -6.9344 H   0  0  0  0  0  0  0  0  0  0  0  0
    2.7802    4.2797   -7.5482 H   0  0  0  0  0  0  0  0  0  0  0  0
    5.1960    4.5806   -7.1411 H   0  0  0  0  0  0  0  0  0  0  0  0
    4.3982    1.5929   -2.5775 H   0  0  0  0  0  0  0  0  0  0  0  0
    5.9174    2.4205   -2.9149 H   0  0  0  0  0  0  0  0  0  0  0  0
    7.2072    1.1576   -4.8157 H   0  0  0  0  0  0  0  0  0  0  0  0
    6.2236    0.2850   -1.4809 H   0  0  0  0  0  0  0  0  0  0  0  0
    7.6864    0.6095   -2.4224 H   0  0  0  0  0  0  0  0  0  0  0  0
    7.5807   -1.6953   -0.3508 H   0  0  0  0  0  0  0  0  0  0  0  0
    7.0511   -3.2260   -1.0899 H   0  0  0  0  0  0  0  0  0  0  0  0
    5.8509   -1.9835   -0.6578 H   0  0  0  0  0  0  0  0  0  0  0  0
    9.2014   -1.4528   -2.3382 H   0  0  0  0  0  0  0  0  0  0  0  0
    8.5506   -1.3422   -3.9975 H   0  0  0  0  0  0  0  0  0  0  0  0
    8.5616   -2.9077   -3.1418 H   0  0  0  0  0  0  0  0  0  0  0  0
    5.3792   -2.9171   -3.0341 H   0  0  0  0  0  0  0  0  0  0  0  0
    6.3625   -2.3465   -4.3897 H   0  0  0  0  0  0  0  0  0  0  0  0
    4.2328   -0.7939   -2.8576 H   0  0  0  0  0  0  0  0  0  0  0  0
    4.8249   -1.0161   -5.8670 H   0  0  0  0  0  0  0  0  0  0  0  0
    3.3785   -0.2801   -5.1450 H   0  0  0  0  0  0  0  0  0  0  0  0
    3.6393   -2.0313   -5.0024 H   0  0  0  0  0  0  0  0  0  0  0  0
    2.5444    1.7167   -4.0936 H   0  0  0  0  0  0  0  0  0  0  0  0
  1  2  1  0
  1 20  1  0
  1 21  1  0
  1 22  1  0
  2  3  1  0
  3  4  2  0
  3 19  1  0
  4  5  1  0
  4 23  1  0
  5  6  2  0
  5 24  1  0
  6  7  1  0
  6  8  1  0
  8  9  1  0
  8 19  2  0
  9 10  1  0
  9 25  1  0
  9 26  1  0
 10 11  1  6
 10 12  1  0
 10 17  1  0
 11 27  1  0
 12 13  1  0
 12 28  1  0
 12 29  1  0
 13 14  1  1
 13 15  1  0
 13 16  1  0
 14 30  1  0
 14 31  1  0
 14 32  1  0
 15 33  1  0
 15 34  1  0
 15 35  1  0
 16 17  1  0
 16 36  1  0
 16 37  1  0
 17 18  1  0
 17 38  1  1
 18 39  1  0
 18 40  1  0
 18 41  1  0
 19 42  1  0
M  END

