
     RDKit          3D

 68 71  0  0  0  0  0  0  0  0999 V2000
    3.2110   -0.3003    3.0814 C   0  0  0  0  0  0  0  0  0  0  0  0
    4.1999   -0.4677    1.9526 C   0  0  0  0  0  0  0  0  0  0  0  0
    5.2988    0.3894    1.8102 C   0  0  0  0  0  0  0  0  0  0  0  0
    6.1919    0.2259    0.7454 C   0  0  0  0  0  0  0  0  0  0  0  0
    5.9975   -0.7954   -0.1835 C   0  0  0  0  0  0  0  0  0  0  0  0
    4.9020   -1.6671   -0.0610 C   0  0  0  0  0  0  0  0  0  0  0  0
    4.7137   -2.7392   -1.1270 C   0  0  0  0  0  0  0  0  0  0  0  0
    3.7083   -3.7726   -0.8715 N   0  0  0  0  0  0  0  0  0  0  0  0
    2.4242   -3.4758   -1.2992 C   0  0  0  0  0  0  0  0  0  0  0  0
    2.1746   -2.4176   -1.8559 O   0  0  0  0  0  0  0  0  0  0  0  0
    1.3079   -4.5101   -1.1165 C   0  0  0  0  0  0  0  0  0  0  0  0
    1.2576   -5.5350   -2.2378 C   0  0  0  0  0  0  0  0  0  0  0  0
    1.1346   -6.9059   -1.9627 C   0  0  0  0  0  0  0  0  0  0  0  0
    1.0657   -7.8513   -2.9914 C   0  0  0  0  0  0  0  0  0  0  0  0
    1.1227   -7.4118   -4.3105 C   0  0  0  0  0  0  0  0  0  0  0  0
    1.0595   -8.3105   -5.3054 F   0  0  0  0  0  0  0  0  0  0  0  0
    1.2430   -6.0581   -4.6212 C   0  0  0  0  0  0  0  0  0  0  0  0
    1.3090   -5.1278   -3.5832 C   0  0  0  0  0  0  0  0  0  0  0  0
    4.0540   -5.0729   -0.2919 C   0  0  1  0  0  0  0  0  0  0  0  0
    5.3992   -5.6653   -0.7783 C   0  0  0  0  0  0  0  0  0  0  0  0
    6.7305   -5.3152   -0.1211 C   0  0  0  0  0  0  0  0  0  0  0  0
    7.8673   -6.0344   -0.5372 C   0  0  0  0  0  0  0  0  0  0  0  0
    9.1260   -5.7793    0.0078 C   0  0  0  0  0  0  0  0  0  0  0  0
    9.2775   -4.7948    0.9907 C   0  0  0  0  0  0  0  0  0  0  0  0
    8.1598   -4.0751    1.4154 C   0  0  0  0  0  0  0  0  0  0  0  0
    6.8978   -4.3334    0.8661 C   0  0  0  0  0  0  0  0  0  0  0  0
    3.7460   -5.1563    1.2320 C   0  0  0  0  0  0  0  0  0  0  0  0
    2.8837   -4.4465    1.7282 O   0  0  0  0  0  0  0  0  0  0  0  0
    4.3689   -6.1534    1.9187 N   0  0  0  0  0  0  0  0  0  0  0  0
    4.1086   -6.4382    3.3198 C   0  0  1  0  0  0  0  0  0  0  0  0
    3.7957   -7.9134    3.6202 C   0  0  0  0  0  0  0  0  0  0  0  0
    3.8988   -7.9768    5.1493 C   0  0  0  0  0  0  0  0  0  0  0  0
    5.0734   -7.0261    5.5113 C   0  0  0  0  0  0  0  0  0  0  0  0
    5.2851   -6.1174    4.2712 C   0  0  0  0  0  0  0  0  0  0  0  0
    4.0166   -1.4917    1.0059 C   0  0  0  0  0  0  0  0  0  0  0  0
    3.6101    0.3418    3.8812 H   0  0  0  0  0  0  0  0  0  0  0  0
    2.9389   -1.2733    3.5203 H   0  0  0  0  0  0  0  0  0  0  0  0
    2.2746    0.1610    2.7219 H   0  0  0  0  0  0  0  0  0  0  0  0
    5.4601    1.1900    2.5380 H   0  0  0  0  0  0  0  0  0  0  0  0
    7.0479    0.8988    0.6441 H   0  0  0  0  0  0  0  0  0  0  0  0
    6.7025   -0.9197   -1.0114 H   0  0  0  0  0  0  0  0  0  0  0  0
    5.6809   -3.2192   -1.3282 H   0  0  0  0  0  0  0  0  0  0  0  0
    4.4052   -2.2330   -2.0542 H   0  0  0  0  0  0  0  0  0  0  0  0
    0.3858   -3.9099   -1.1294 H   0  0  0  0  0  0  0  0  0  0  0  0
    1.3597   -4.9977   -0.1355 H   0  0  0  0  0  0  0  0  0  0  0  0
    1.0795   -7.2453   -0.9242 H   0  0  0  0  0  0  0  0  0  0  0  0
    0.9658   -8.9186   -2.7841 H   0  0  0  0  0  0  0  0  0  0  0  0
    1.2801   -5.7503   -5.6683 H   0  0  0  0  0  0  0  0  0  0  0  0
    1.3984   -4.0631   -3.8127 H   0  0  0  0  0  0  0  0  0  0  0  0
    3.3199   -5.7802   -0.7040 H   0  0  0  0  0  0  0  0  0  0  0  0
    5.4639   -5.4489   -1.8582 H   0  0  0  0  0  0  0  0  0  0  0  0
    5.2921   -6.7633   -0.7373 H   0  0  0  0  0  0  0  0  0  0  0  0
    7.7609   -6.8068   -1.3055 H   0  0  0  0  0  0  0  0  0  0  0  0
    9.9921   -6.3510   -0.3356 H   0  0  0  0  0  0  0  0  0  0  0  0
   10.2616   -4.5912    1.4201 H   0  0  0  0  0  0  0  0  0  0  0  0
    8.2613   -3.2983    2.1772 H   0  0  0  0  0  0  0  0  0  0  0  0
    6.0489   -3.7450    1.2162 H   0  0  0  0  0  0  0  0  0  0  0  0
    5.1644   -6.6162    1.4943 H   0  0  0  0  0  0  0  0  0  0  0  0
    3.2383   -5.8213    3.5876 H   0  0  0  0  0  0  0  0  0  0  0  0
    4.5657   -8.5555    3.1527 H   0  0  0  0  0  0  0  0  0  0  0  0
    2.8175   -8.2313    3.2270 H   0  0  0  0  0  0  0  0  0  0  0  0
    4.0430   -8.9996    5.5289 H   0  0  0  0  0  0  0  0  0  0  0  0
    2.9605   -7.6023    5.5913 H   0  0  0  0  0  0  0  0  0  0  0  0
    5.9885   -7.5975    5.7318 H   0  0  0  0  0  0  0  0  0  0  0  0
    4.8473   -6.4421    6.4162 H   0  0  0  0  0  0  0  0  0  0  0  0
    6.2338   -6.3638    3.7653 H   0  0  0  0  0  0  0  0  0  0  0  0
    5.3286   -5.0457    4.5168 H   0  0  0  0  0  0  0  0  0  0  0  0
    3.1778   -2.1797    1.1222 H   0  0  0  0  0  0  0  0  0  0  0  0
  1  2  1  0
  1 36  1  0
  1 37  1  0
  1 38  1  0
  2  3  2  0
  2 35  1  0
  3  4  1  0
  3 39  1  0
  4  5  2  0
  4 40  1  0
  5  6  1  0
  5 41  1  0
  6  7  1  0
  6 35  2  0
  7  8  1  0
  7 42  1  0
  7 43  1  0
  8  9  1  0
  8 19  1  0
  9 10  2  0
  9 11  1  0
 11 12  1  0
 11 44  1  0
 11 45  1  0
 12 13  2  0
 12 18  1  0
 13 14  1  0
 13 46  1  0
 14 15  2  0
 14 47  1  0
 15 16  1  0
 15 17  1  0
 17 18  2  0
 17 48  1  0
 18 49  1  0
 19 20  1  0
 19 27  1  0
 19 50  1  6
 20 21  1  0
 20 51  1  0
 20 52  1  0
 21 22  2  0
 21 26  1  0
 22 23  1  0
 22 53  1  0
 23 24  2  0
 23 54  1  0
 24 25  1  0
 24 55  1  0
 25 26  2  0
 25 56  1  0
 26 57  1  0
 27 28  2  0
 27 29  1  0
 29 30  1  0
 29 58  1  0
 30 31  1  0
 30 34  1  0
 30 59  1  1
 31 32  1  0
 31 60  1  0
 31 61  1  0
 32 33  1  0
 32 62  1  0
 32 63  1  0
 33 34  1  0
 33 64  1  0
 33 65  1  0
 34 66  1  0
 34 67  1  0
 35 68  1  0
M  END

