
     RDKit          3D

 50 52  0  0  0  0  0  0  0  0999 V2000
    5.3642   -7.2106   -1.1051 C   0  0  0  0  0  0  0  0  0  0  0  0
    5.7955   -7.2262    0.3422 C   0  0  0  0  0  0  0  0  0  0  0  0
    7.1135   -7.5726    0.6707 C   0  0  0  0  0  0  0  0  0  0  0  0
    7.5529   -7.6145    1.9968 C   0  0  0  0  0  0  0  0  0  0  0  0
    6.6592   -7.3105    3.0225 C   0  0  0  0  0  0  0  0  0  0  0  0
    5.3414   -6.9616    2.7105 C   0  0  0  0  0  0  0  0  0  0  0  0
    4.8877   -6.9052    1.3846 C   0  0  0  0  0  0  0  0  0  0  0  0
    3.4630   -6.5206    1.0521 C   0  0  1  0  0  0  0  0  0  0  0  0
    2.4329   -6.1716    2.1594 C   0  0  0  0  0  0  0  0  0  0  0  0
    1.8621   -5.0379    1.2403 C   0  0  2  0  0  0  0  0  0  0  0  0
    0.6773   -5.3356    0.4608 N   0  0  0  0  0  0  0  0  0  0  0  0
   -0.5562   -5.3940    1.2117 C   0  0  0  0  0  0  0  0  0  0  0  0
   -1.8093   -5.6450    0.3427 C   0  0  1  0  0  0  0  0  0  0  0  0
   -1.8139   -7.4329   -0.2275 S   0  0  1  0  0  0  0  0  0  0  0  0
   -1.9827   -8.4779    1.2413 C   0  0  0  0  0  0  0  0  0  0  0  0
   -3.0220   -7.6567   -1.0389 O   0  0  0  0  0  0  0  0  0  0  0  0
   -0.4825   -7.7214   -0.8041 O   0  0  0  0  0  0  0  0  0  0  0  0
   -3.1117   -5.3828    1.1255 C   0  0  0  0  0  0  0  0  0  0  0  0
   -3.4109   -3.8801    1.2407 C   0  0  0  0  0  0  0  0  0  0  0  0
   -3.4203   -3.2414   -0.0121 O   0  0  0  0  0  0  0  0  0  0  0  0
   -2.1834   -3.3630   -0.6876 C   0  0  0  0  0  0  0  0  0  0  0  0
   -1.8281   -4.8245   -0.9656 C   0  0  0  0  0  0  0  0  0  0  0  0
    3.1607   -5.1296    0.4027 C   0  0  0  0  0  0  0  0  0  0  0  0
    6.1800   -7.5396   -1.7650 H   0  0  0  0  0  0  0  0  0  0  0  0
    5.0557   -6.2042   -1.4315 H   0  0  0  0  0  0  0  0  0  0  0  0
    4.5018   -7.8756   -1.2828 H   0  0  0  0  0  0  0  0  0  0  0  0
    7.8108   -7.8190   -0.1355 H   0  0  0  0  0  0  0  0  0  0  0  0
    8.5865   -7.8887    2.2232 H   0  0  0  0  0  0  0  0  0  0  0  0
    6.9807   -7.3455    4.0667 H   0  0  0  0  0  0  0  0  0  0  0  0
    4.6510   -6.7355    3.5255 H   0  0  0  0  0  0  0  0  0  0  0  0
    3.0346   -7.3051    0.4048 H   0  0  0  0  0  0  0  0  0  0  0  0
    2.9020   -5.7493    3.0602 H   0  0  0  0  0  0  0  0  0  0  0  0
    1.7418   -6.9717    2.4707 H   0  0  0  0  0  0  0  0  0  0  0  0
    1.6992   -4.0763    1.7569 H   0  0  0  0  0  0  0  0  0  0  0  0
    0.7856   -6.1896   -0.0891 H   0  0  0  0  0  0  0  0  0  0  0  0
   -0.6936   -4.4225    1.7192 H   0  0  0  0  0  0  0  0  0  0  0  0
   -0.5502   -6.1408    2.0393 H   0  0  0  0  0  0  0  0  0  0  0  0
   -2.9375   -8.2733    1.7407 H   0  0  0  0  0  0  0  0  0  0  0  0
   -1.1278   -8.3379    1.9138 H   0  0  0  0  0  0  0  0  0  0  0  0
   -1.9807   -9.4969    0.8303 H   0  0  0  0  0  0  0  0  0  0  0  0
   -3.0591   -5.8173    2.1386 H   0  0  0  0  0  0  0  0  0  0  0  0
   -3.9452   -5.8653    0.5914 H   0  0  0  0  0  0  0  0  0  0  0  0
   -2.6779   -3.3914    1.9171 H   0  0  0  0  0  0  0  0  0  0  0  0
   -4.4083   -3.7346    1.6832 H   0  0  0  0  0  0  0  0  0  0  0  0
   -1.3763   -2.8702   -0.1077 H   0  0  0  0  0  0  0  0  0  0  0  0
   -2.2882   -2.8170   -1.6369 H   0  0  0  0  0  0  0  0  0  0  0  0
   -0.8499   -4.8830   -1.4607 H   0  0  0  0  0  0  0  0  0  0  0  0
   -2.5894   -5.2494   -1.6375 H   0  0  0  0  0  0  0  0  0  0  0  0
    3.9021   -4.3725    0.6990 H   0  0  0  0  0  0  0  0  0  0  0  0
    3.0219   -5.0884   -0.6883 H   0  0  0  0  0  0  0  0  0  0  0  0
  1  2  1  0
  1 24  1  0
  1 25  1  0
  1 26  1  0
  2  3  2  0
  2  7  1  0
  3  4  1  0
  3 27  1  0
  4  5  2  0
  4 28  1  0
  5  6  1  0
  5 29  1  0
  6  7  2  0
  6 30  1  0
  7  8  1  0
  8  9  1  0
  8 23  1  0
  8 31  1  6
  9 10  1  0
  9 32  1  0
  9 33  1  0
 10 11  1  0
 10 23  1  0
 10 34  1  1
 11 12  1  0
 11 35  1  0
 13 12  1  1
 12 36  1  0
 12 37  1  0
 13 14  1  0
 13 18  1  0
 13 22  1  0
 14 15  1  1
 14 16  2  0
 14 17  2  0
 15 38  1  0
 15 39  1  0
 15 40  1  0
 18 19  1  0
 18 41  1  0
 18 42  1  0
 19 20  1  0
 19 43  1  0
 19 44  1  0
 20 21  1  0
 21 22  1  0
 21 45  1  0
 21 46  1  0
 22 47  1  0
 22 48  1  0
 23 49  1  0
 23 50  1  0
M  END

