
     RDKit          3D

 42 43  0  0  0  0  0  0  0  0999 V2000
    0.4595   -0.0426    2.6175 C   0  0  0  0  0  0  0  0  0  0  0  0
    1.7438   -0.3216    2.0967 O   0  0  0  0  0  0  0  0  0  0  0  0
    2.7190    0.6181    2.1834 C   0  0  0  0  0  0  0  0  0  0  0  0
    2.5137    1.9352    2.6099 C   0  0  0  0  0  0  0  0  0  0  0  0
    3.5807    2.8421    2.6334 C   0  0  0  0  0  0  0  0  0  0  0  0
    4.8709    2.4800    2.2317 C   0  0  0  0  0  0  0  0  0  0  0  0
    6.0206    3.4573    2.2591 C   0  0  0  0  0  0  0  0  0  0  0  0
    5.0673    1.1553    1.8060 C   0  0  0  0  0  0  0  0  0  0  0  0
    4.0194    0.2393    1.7840 C   0  0  0  0  0  0  0  0  0  0  0  0
    4.3826   -1.4702    1.3260 S   0  0  1  0  0  0  0  0  0  0  0  0
    5.7395   -1.4746    0.7730 O   0  0  0  0  0  0  0  0  0  0  0  0
    4.0090   -2.3223    2.4505 O   0  0  0  0  0  0  0  0  0  0  0  0
    3.3470   -1.8639    0.0758 N   0  0  0  0  0  0  0  0  0  0  0  0
    3.5077   -1.2460   -1.2384 C   0  0  0  0  0  0  0  0  0  0  0  0
    2.8551   -2.1109   -2.3287 C   0  0  0  0  0  0  0  0  0  0  0  0
    3.0198   -1.5277   -3.7143 C   0  0  0  0  0  0  0  0  0  0  0  0
    4.1940   -1.7389   -4.4552 C   0  0  0  0  0  0  0  0  0  0  0  0
    4.3752   -1.1769   -5.7174 C   0  0  0  0  0  0  0  0  0  0  0  0
    3.3768   -0.3683   -6.2972 C   0  0  0  0  0  0  0  0  0  0  0  0
    3.5291    0.1505   -7.5764 N   0  0  0  0  0  0  0  0  0  0  0  0
    2.1969   -0.1511   -5.5592 C   0  0  0  0  0  0  0  0  0  0  0  0
    2.0306   -0.7210   -4.2970 C   0  0  0  0  0  0  0  0  0  0  0  0
   -0.1266   -0.9646    2.5095 H   0  0  0  0  0  0  0  0  0  0  0  0
   -0.0407    0.7697    2.0609 H   0  0  0  0  0  0  0  0  0  0  0  0
    0.5084    0.2286    3.6860 H   0  0  0  0  0  0  0  0  0  0  0  0
    1.5246    2.2687    2.9241 H   0  0  0  0  0  0  0  0  0  0  0  0
    3.3905    3.8642    2.9729 H   0  0  0  0  0  0  0  0  0  0  0  0
    5.6888    4.4616    2.5613 H   0  0  0  0  0  0  0  0  0  0  0  0
    6.4987    3.5433    1.2694 H   0  0  0  0  0  0  0  0  0  0  0  0
    6.8032    3.1357    2.9666 H   0  0  0  0  0  0  0  0  0  0  0  0
    6.0524    0.8096    1.4844 H   0  0  0  0  0  0  0  0  0  0  0  0
    2.3934   -1.9162    0.4331 H   0  0  0  0  0  0  0  0  0  0  0  0
    4.5871   -1.1610   -1.4285 H   0  0  0  0  0  0  0  0  0  0  0  0
    3.0865   -0.2219   -1.2748 H   0  0  0  0  0  0  0  0  0  0  0  0
    1.7813   -2.2276   -2.1001 H   0  0  0  0  0  0  0  0  0  0  0  0
    3.2985   -3.1184   -2.2746 H   0  0  0  0  0  0  0  0  0  0  0  0
    4.9886   -2.3643   -4.0366 H   0  0  0  0  0  0  0  0  0  0  0  0
    5.2990   -1.3701   -6.2706 H   0  0  0  0  0  0  0  0  0  0  0  0
    4.4793    0.2326   -7.9188 H   0  0  0  0  0  0  0  0  0  0  0  0
    2.9551    0.9527   -7.8088 H   0  0  0  0  0  0  0  0  0  0  0  0
    1.4005    0.4652   -5.9868 H   0  0  0  0  0  0  0  0  0  0  0  0
    1.0991   -0.5350   -3.7531 H   0  0  0  0  0  0  0  0  0  0  0  0
  1  2  1  0
  1 23  1  0
  1 24  1  0
  1 25  1  0
  2  3  1  0
  3  4  2  0
  3  9  1  0
  4  5  1  0
  4 26  1  0
  5  6  2  0
  5 27  1  0
  6  7  1  0
  6  8  1  0
  7 28  1  0
  7 29  1  0
  7 30  1  0
  8  9  2  0
  8 31  1  0
  9 10  1  0
 10 11  2  0
 10 12  2  0
 10 13  1  6
 13 14  1  0
 13 32  1  0
 14 15  1  0
 14 33  1  0
 14 34  1  0
 15 16  1  0
 15 35  1  0
 15 36  1  0
 16 17  2  0
 16 22  1  0
 17 18  1  0
 17 37  1  0
 18 19  2  0
 18 38  1  0
 19 20  1  0
 19 21  1  0
 20 39  1  0
 20 40  1  0
 21 22  2  0
 21 41  1  0
 22 42  1  0
M  END

