
     RDKit          3D

 48 50  0  0  0  0  0  0  0  0999 V2000
    1.4202    0.4834   -0.7917 C   0  0  0  0  0  0  0  0  0  0  0  0
    2.9254    0.2935   -0.5896 C   0  0  1  0  0  0  0  0  0  0  0  0
    3.2281    0.7797    0.3471 H   0  0  0  0  0  0  0  0  0  0  0  0
    3.3373   -1.1826   -0.4926 C   0  0  0  0  0  0  0  0  0  0  0  0
    3.1754   -1.8482   -1.7929 N   0  0  0  0  0  0  0  0  0  0  0  0
    2.7159   -3.4777   -1.7563 S   0  0  1  0  0  0  0  0  0  0  0  0
    1.9273   -3.6310   -0.5312 O   0  0  0  0  0  0  0  0  0  0  0  0
    2.1490   -3.8180   -3.0604 O   0  0  0  0  0  0  0  0  0  0  0  0
    4.2144   -4.4599   -1.5456 C   0  0  0  0  0  0  0  0  0  0  0  0
    4.8508   -4.4807   -0.2983 C   0  0  0  0  0  0  0  0  0  0  0  0
    6.0114   -5.2411   -0.1406 C   0  0  0  0  0  0  0  0  0  0  0  0
    6.5173   -5.9841   -1.2134 C   0  0  0  0  0  0  0  0  0  0  0  0
    5.8594   -5.9746   -2.4469 C   0  0  0  0  0  0  0  0  0  0  0  0
    4.7007   -5.2116   -2.6190 C   0  0  0  0  0  0  0  0  0  0  0  0
    4.0387   -1.2594   -2.8474 C   0  0  1  0  0  0  0  0  0  0  0  0
    5.0911   -1.3101   -2.5057 H   0  0  0  0  0  0  0  0  0  0  0  0
    3.9363   -1.8895   -4.2344 C   0  0  0  0  0  0  0  0  0  0  0  0
    3.6685    0.2355   -2.9507 C   0  0  0  0  0  0  0  0  0  0  0  0
    3.6965    0.9399   -1.6711 N   0  0  0  0  0  0  0  0  0  0  0  0
    5.1216    1.7618   -1.2796 S   0  0  1  0  0  0  0  0  0  0  0  0
    5.1152    1.9456    0.1753 O   0  0  0  0  0  0  0  0  0  0  0  0
    6.2587    1.1242   -1.9573 O   0  0  0  0  0  0  0  0  0  0  0  0
    4.8991    3.3754   -2.0412 C   0  0  0  0  0  0  0  0  0  0  0  0
    4.0169    4.2896   -1.4543 C   0  0  0  0  0  0  0  0  0  0  0  0
    3.8561    5.5450   -2.0413 C   0  0  0  0  0  0  0  0  0  0  0  0
    4.5756    5.8800   -3.1956 C   0  0  0  0  0  0  0  0  0  0  0  0
    5.4641    4.9623   -3.7620 C   0  0  0  0  0  0  0  0  0  0  0  0
    5.6349    3.7004   -3.1828 C   0  0  0  0  0  0  0  0  0  0  0  0
    0.8749    0.1019    0.0854 H   0  0  0  0  0  0  0  0  0  0  0  0
    1.0515   -0.0662   -1.6702 H   0  0  0  0  0  0  0  0  0  0  0  0
    1.1799    1.5500   -0.9146 H   0  0  0  0  0  0  0  0  0  0  0  0
    2.7080   -1.6971    0.2425 H   0  0  0  0  0  0  0  0  0  0  0  0
    4.3924   -1.2321   -0.1578 H   0  0  0  0  0  0  0  0  0  0  0  0
    4.4308   -3.9269    0.5429 H   0  0  0  0  0  0  0  0  0  0  0  0
    6.5167   -5.2623    0.8279 H   0  0  0  0  0  0  0  0  0  0  0  0
    7.4234   -6.5809   -1.0829 H   0  0  0  0  0  0  0  0  0  0  0  0
    6.2441   -6.5692   -3.2790 H   0  0  0  0  0  0  0  0  0  0  0  0
    4.1581   -5.2087   -3.5657 H   0  0  0  0  0  0  0  0  0  0  0  0
    2.8989   -1.9102   -4.5946 H   0  0  0  0  0  0  0  0  0  0  0  0
    4.3216   -2.9152   -4.2603 H   0  0  0  0  0  0  0  0  0  0  0  0
    4.5471   -1.2899   -4.9277 H   0  0  0  0  0  0  0  0  0  0  0  0
    2.6555    0.3235   -3.3777 H   0  0  0  0  0  0  0  0  0  0  0  0
    4.3632    0.7238   -3.6469 H   0  0  0  0  0  0  0  0  0  0  0  0
    3.4764    4.0214   -0.5447 H   0  0  0  0  0  0  0  0  0  0  0  0
    3.1715    6.2691   -1.5930 H   0  0  0  0  0  0  0  0  0  0  0  0
    4.4464    6.8654   -3.6500 H   0  0  0  0  0  0  0  0  0  0  0  0
    6.0339    5.2291   -4.6554 H   0  0  0  0  0  0  0  0  0  0  0  0
    6.3382    2.9745   -3.5940 H   0  0  0  0  0  0  0  0  0  0  0  0
  1  2  1  0
  1 29  1  0
  1 30  1  0
  1 31  1  0
  2  3  1  1
  2  4  1  0
  2 19  1  0
  4  5  1  0
  4 32  1  0
  4 33  1  0
  5  6  1  0
  5 15  1  0
  6  7  2  0
  6  8  2  0
  6  9  1  1
  9 10  2  0
  9 14  1  0
 10 11  1  0
 10 34  1  0
 11 12  2  0
 11 35  1  0
 12 13  1  0
 12 36  1  0
 13 14  2  0
 13 37  1  0
 14 38  1  0
 15 16  1  1
 15 17  1  0
 15 18  1  0
 17 39  1  0
 17 40  1  0
 17 41  1  0
 18 19  1  0
 18 42  1  0
 18 43  1  0
 19 20  1  0
 20 21  2  0
 20 22  2  0
 20 23  1  6
 23 24  2  0
 23 28  1  0
 24 25  1  0
 24 44  1  0
 25 26  2  0
 25 45  1  0
 26 27  1  0
 26 46  1  0
 27 28  2  0
 27 47  1  0
 28 48  1  0
M  END

