
     RDKit          3D

 37 39  0  0  0  0  0  0  0  0999 V2000
    2.5606    2.1159   -3.0611 N   0  0  0  0  0  0  0  0  0  0  0  0
    2.1761    2.0154   -1.6559 C   0  0  0  0  0  0  0  0  0  0  0  0
    2.8908    0.8512   -0.9588 C   0  0  0  0  0  0  0  0  0  0  0  0
    4.4311    0.9355   -0.9703 C   0  0  1  0  0  0  0  0  0  0  0  0
    4.9978    2.0471   -0.0625 C   0  0  0  0  0  0  0  0  0  0  0  0
    4.9020    1.7145    1.4302 C   0  0  0  0  0  0  0  0  0  0  0  0
    5.4836    0.4067    1.7101 N   0  0  0  0  0  0  0  0  0  0  0  0
    6.1546    0.1814    2.8735 C   0  0  0  0  0  0  0  0  0  0  0  0
    6.5950   -1.0512    3.2415 N   0  0  0  0  0  0  0  0  0  0  0  0
    7.2175   -0.8287    4.3942 C   0  0  0  0  0  0  0  0  0  0  0  0
    7.8999   -1.6671    5.3037 C   0  0  0  0  0  0  0  0  0  0  0  0
    8.4528   -1.1204    6.4467 C   0  0  0  0  0  0  0  0  0  0  0  0
    8.3332    0.2699    6.6995 C   0  0  0  0  0  0  0  0  0  0  0  0
    9.0925    1.0227    8.2720 Br  0  0  0  0  0  0  0  0  0  0  0  0
    7.6684    1.0933    5.8145 C   0  0  0  0  0  0  0  0  0  0  0  0
    7.1338    0.5334    4.6985 N   0  0  0  0  0  0  0  0  0  0  0  0
    6.4490    1.1791    3.7338 N   0  0  0  0  0  0  0  0  0  0  0  0
    4.9922   -0.7118    0.9126 C   0  0  0  0  0  0  0  0  0  0  0  0
    5.1005   -0.3982   -0.5822 C   0  0  0  0  0  0  0  0  0  0  0  0
    2.1571    2.9490   -3.4885 H   0  0  0  0  0  0  0  0  0  0  0  0
    2.1965    1.3195   -3.5865 H   0  0  0  0  0  0  0  0  0  0  0  0
    1.0825    1.8949   -1.4948 H   0  0  0  0  0  0  0  0  0  0  0  0
    2.4466    2.9655   -1.1637 H   0  0  0  0  0  0  0  0  0  0  0  0
    2.5881   -0.0876   -1.4603 H   0  0  0  0  0  0  0  0  0  0  0  0
    2.5002    0.7720    0.0702 H   0  0  0  0  0  0  0  0  0  0  0  0
    4.7122    1.1732   -2.0085 H   0  0  0  0  0  0  0  0  0  0  0  0
    4.4920    3.0083   -0.2501 H   0  0  0  0  0  0  0  0  0  0  0  0
    6.0608    2.2002   -0.3158 H   0  0  0  0  0  0  0  0  0  0  0  0
    3.8440    1.7357    1.7653 H   0  0  0  0  0  0  0  0  0  0  0  0
    5.4352    2.4630    2.0295 H   0  0  0  0  0  0  0  0  0  0  0  0
    7.9750   -2.7316    5.0806 H   0  0  0  0  0  0  0  0  0  0  0  0
    8.9838   -1.7513    7.1610 H   0  0  0  0  0  0  0  0  0  0  0  0
    7.5338    2.1674    5.9351 H   0  0  0  0  0  0  0  0  0  0  0  0
    3.9391   -0.9342    1.1840 H   0  0  0  0  0  0  0  0  0  0  0  0
    5.5814   -1.5991    1.1747 H   0  0  0  0  0  0  0  0  0  0  0  0
    4.6628   -1.2313   -1.1582 H   0  0  0  0  0  0  0  0  0  0  0  0
    6.1704   -0.3521   -0.8493 H   0  0  0  0  0  0  0  0  0  0  0  0
  1  2  1  0
  1 20  1  0
  1 21  1  0
  2  3  1  0
  2 22  1  0
  2 23  1  0
  3  4  1  0
  3 24  1  0
  3 25  1  0
  4  5  1  0
  4 19  1  0
  4 26  1  6
  5  6  1  0
  5 27  1  0
  5 28  1  0
  6  7  1  0
  6 29  1  0
  6 30  1  0
  7  8  1  0
  7 18  1  0
  8  9  1  0
  8 17  2  0
  9 10  2  0
 10 11  1  0
 10 16  1  0
 11 12  2  0
 11 31  1  0
 12 13  1  0
 12 32  1  0
 13 14  1  0
 13 15  2  0
 15 16  1  0
 15 33  1  0
 16 17  1  0
 18 19  1  0
 18 34  1  0
 18 35  1  0
 19 36  1  0
 19 37  1  0
M  END

