
     RDKit          3D

 50 53  0  0  0  0  0  0  0  0999 V2000
    3.3401    0.0237   -1.6938 C   0  0  0  0  0  0  0  0  0  0  0  0
    2.7608   -0.0547   -0.2726 C   0  0  0  0  0  0  0  0  0  0  0  0
    2.9989   -1.3891    0.4005 C   0  0  0  0  0  0  0  0  0  0  0  0
    2.2121   -2.5200    0.0364 C   0  0  0  0  0  0  0  0  0  0  0  0
    2.4447   -3.7564    0.5920 C   0  0  0  0  0  0  0  0  0  0  0  0
    3.4751   -3.9534    1.5550 C   0  0  0  0  0  0  0  0  0  0  0  0
    3.6682   -5.2142    2.0281 N   0  0  0  0  0  0  0  0  0  0  0  0
    4.6331   -5.4351    2.8972 C   0  0  0  0  0  0  0  0  0  0  0  0
    5.4501   -4.3903    3.3689 C   0  0  0  0  0  0  0  0  0  0  0  0
    5.2546   -3.0767    2.9331 C   0  0  0  0  0  0  0  0  0  0  0  0
    4.2573   -2.8074    1.9567 C   0  0  0  0  0  0  0  0  0  0  0  0
    3.9969   -1.5473    1.3461 C   0  0  0  0  0  0  0  0  0  0  0  0
    6.2097   -2.2913    3.5805 N   0  0  0  0  0  0  0  0  0  0  0  0
    6.3295   -0.8716    3.6265 C   0  0  0  0  0  0  0  0  0  0  0  0
    7.5279   -0.2575    3.2547 C   0  0  0  0  0  0  0  0  0  0  0  0
    7.6594    1.1310    3.3366 C   0  0  0  0  0  0  0  0  0  0  0  0
    6.6023    1.9341    3.7859 C   0  0  0  0  0  0  0  0  0  0  0  0
    6.7164    3.4677    3.8969 C   0  0  1  0  0  0  0  0  0  0  0  0
    5.6196    4.1685    3.0526 C   0  0  0  0  0  0  0  0  0  0  0  0
    6.6156    3.9109    5.3809 C   0  0  0  0  0  0  0  0  0  0  0  0
    8.0245    3.9264    3.3839 C   0  0  0  0  0  0  0  0  0  0  0  0
    9.0382    4.3249    2.9886 N   0  0  0  0  0  0  0  0  0  0  0  0
    5.4061    1.3009    4.1656 C   0  0  0  0  0  0  0  0  0  0  0  0
    5.2709   -0.0845    4.0995 C   0  0  0  0  0  0  0  0  0  0  0  0
    7.0182   -3.1120    4.4079 C   0  0  0  0  0  0  0  0  0  0  0  0
    7.9422   -2.7552    5.1052 O   0  0  0  0  0  0  0  0  0  0  0  0
    6.5168   -4.3992    4.2562 N   0  0  0  0  0  0  0  0  0  0  0  0
    7.0717   -5.5453    4.9405 C   0  0  0  0  0  0  0  0  0  0  0  0
    3.1317    1.0042   -2.1515 H   0  0  0  0  0  0  0  0  0  0  0  0
    2.9077   -0.7512   -2.3469 H   0  0  0  0  0  0  0  0  0  0  0  0
    4.4319   -0.1229   -1.6846 H   0  0  0  0  0  0  0  0  0  0  0  0
    1.6747    0.1403   -0.3145 H   0  0  0  0  0  0  0  0  0  0  0  0
    3.1966    0.7482    0.3444 H   0  0  0  0  0  0  0  0  0  0  0  0
    1.4130   -2.3981   -0.7007 H   0  0  0  0  0  0  0  0  0  0  0  0
    1.8554   -4.6324    0.3138 H   0  0  0  0  0  0  0  0  0  0  0  0
    4.7802   -6.4633    3.2488 H   0  0  0  0  0  0  0  0  0  0  0  0
    4.6042   -0.6852    1.6210 H   0  0  0  0  0  0  0  0  0  0  0  0
    8.3620   -0.8679    2.9067 H   0  0  0  0  0  0  0  0  0  0  0  0
    8.6042    1.5906    3.0404 H   0  0  0  0  0  0  0  0  0  0  0  0
    4.6210    3.9019    3.4281 H   0  0  0  0  0  0  0  0  0  0  0  0
    5.6849    3.8695    1.9964 H   0  0  0  0  0  0  0  0  0  0  0  0
    5.7277    5.2619    3.1129 H   0  0  0  0  0  0  0  0  0  0  0  0
    5.6384    3.6225    5.7950 H   0  0  0  0  0  0  0  0  0  0  0  0
    6.7191    5.0032    5.4661 H   0  0  0  0  0  0  0  0  0  0  0  0
    7.4011    3.4364    5.9865 H   0  0  0  0  0  0  0  0  0  0  0  0
    4.5627    1.8887    4.5344 H   0  0  0  0  0  0  0  0  0  0  0  0
    4.3401   -0.5609    4.4137 H   0  0  0  0  0  0  0  0  0  0  0  0
    7.9059   -5.1885    5.5588 H   0  0  0  0  0  0  0  0  0  0  0  0
    7.4476   -6.2934    4.2234 H   0  0  0  0  0  0  0  0  0  0  0  0
    6.3196   -6.0222    5.5900 H   0  0  0  0  0  0  0  0  0  0  0  0
  1  2  1  0
  1 29  1  0
  1 30  1  0
  1 31  1  0
  2  3  1  0
  2 32  1  0
  2 33  1  0
  3  4  2  0
  3 12  1  0
  4  5  1  0
  4 34  1  0
  5  6  2  0
  5 35  1  0
  6  7  1  0
  6 11  1  0
  7  8  2  0
  8  9  1  0
  8 36  1  0
  9 10  2  0
  9 27  1  0
 10 11  1  0
 10 13  1  0
 11 12  2  0
 12 37  1  0
 13 14  1  0
 13 25  1  0
 14 15  2  0
 14 24  1  0
 15 16  1  0
 15 38  1  0
 16 17  2  0
 16 39  1  0
 17 18  1  0
 17 23  1  0
 18 19  1  0
 18 20  1  0
 18 21  1  6
 19 40  1  0
 19 41  1  0
 19 42  1  0
 20 43  1  0
 20 44  1  0
 20 45  1  0
 21 22  3  0
 23 24  2  0
 23 46  1  0
 24 47  1  0
 25 26  2  0
 25 27  1  0
 27 28  1  0
 28 48  1  0
 28 49  1  0
 28 50  1  0
M  END

