
     RDKit          3D

 78 82  0  0  0  0  0  0  0  0999 V2000
    8.2325    8.8540    4.0135 C   0  0  0  0  0  0  0  0  0  0  0  0
    9.2427    8.4178    5.0833 C   0  0  1  0  0  0  0  0  0  0  0  0
    9.0984    9.2727    6.3498 C   0  0  0  0  0  0  0  0  0  0  0  0
    9.1193    6.9235    5.4370 C   0  0  0  0  0  0  0  0  0  0  0  0
    9.3115    5.9154    4.2869 C   0  0  1  0  0  0  0  0  0  0  0  0
   10.6927    5.9981    3.6250 C   0  0  0  0  0  0  0  0  0  0  0  0
    9.0578    4.5654    4.7723 N   0  0  0  0  0  0  0  0  0  0  0  0
    8.0883    3.7542    4.2693 C   0  0  0  0  0  0  0  0  0  0  0  0
    7.3256    4.0565    3.3613 O   0  0  0  0  0  0  0  0  0  0  0  0
    8.0219    2.4135    4.9377 C   0  0  0  0  0  0  0  0  0  0  0  0
    7.1178    1.4435    4.5874 C   0  0  0  0  0  0  0  0  0  0  0  0
    7.3498    0.0413    5.5643 S   0  0  0  0  0  0  0  0  0  0  0  0
    8.6667    0.8689    6.3918 C   0  0  0  0  0  0  0  0  0  0  0  0
    9.3795    0.2195    7.5450 C   0  0  0  0  0  0  0  0  0  0  0  0
    9.5770   -1.2111    7.3625 N   0  0  0  0  0  0  0  0  0  0  0  0
   10.6239   -1.5066    6.3798 C   0  0  0  0  0  0  0  0  0  0  0  0
   10.6175   -2.9378    5.8840 C   0  0  0  0  0  0  0  0  0  0  0  0
    9.4679   -3.4944    5.3085 C   0  0  0  0  0  0  0  0  0  0  0  0
    9.4530   -4.8035    4.8178 C   0  0  0  0  0  0  0  0  0  0  0  0
   10.6137   -5.5905    4.8955 C   0  0  0  0  0  0  0  0  0  0  0  0
   10.7081   -6.8711    4.4515 O   0  0  0  0  0  0  0  0  0  0  0  0
    9.5900   -7.4851    3.8419 C   0  0  0  0  0  0  0  0  0  0  0  0
    9.9470   -8.8856    3.3989 C   0  0  0  0  0  0  0  0  0  0  0  0
    8.9295   -9.8357    3.2267 C   0  0  0  0  0  0  0  0  0  0  0  0
    9.2258  -11.1217    2.7682 C   0  0  0  0  0  0  0  0  0  0  0  0
   10.5481  -11.4767    2.4843 C   0  0  0  0  0  0  0  0  0  0  0  0
   11.5677  -10.5371    2.6614 C   0  0  0  0  0  0  0  0  0  0  0  0
   11.2703   -9.2481    3.1136 C   0  0  0  0  0  0  0  0  0  0  0  0
   11.7734   -5.0461    5.4707 C   0  0  0  0  0  0  0  0  0  0  0  0
   11.7674   -3.7413    5.9569 C   0  0  0  0  0  0  0  0  0  0  0  0
    9.7745   -1.9205    8.6262 C   0  0  0  0  0  0  0  0  0  0  0  0
    8.5520   -1.9335    9.5251 C   0  0  0  0  0  0  0  0  0  0  0  0
    7.2953   -2.2838    9.0103 C   0  0  0  0  0  0  0  0  0  0  0  0
    6.1491   -2.3532    9.8244 C   0  0  0  0  0  0  0  0  0  0  0  0
    6.3129   -2.0668   11.1685 C   0  0  0  0  0  0  0  0  0  0  0  0
    7.5585   -1.7165   11.6928 C   0  0  0  0  0  0  0  0  0  0  0  0
    8.6899   -1.6355   10.9003 C   0  0  0  0  0  0  0  0  0  0  0  0
    7.4285   -1.4526   13.0292 O   0  0  0  0  0  0  0  0  0  0  0  0
    6.0964   -1.8219   13.3756 C   0  0  0  0  0  0  0  0  0  0  0  0
    5.3756   -2.0307   12.1650 O   0  0  0  0  0  0  0  0  0  0  0  0
    8.8871    2.0715    5.9529 N   0  0  0  0  0  0  0  0  0  0  0  0
    8.3232    9.9318    3.8019 H   0  0  0  0  0  0  0  0  0  0  0  0
    7.1978    8.6662    4.3488 H   0  0  0  0  0  0  0  0  0  0  0  0
    8.3729    8.3195    3.0611 H   0  0  0  0  0  0  0  0  0  0  0  0
   10.2580    8.5950    4.6832 H   0  0  0  0  0  0  0  0  0  0  0  0
    8.0984    9.1470    6.7996 H   0  0  0  0  0  0  0  0  0  0  0  0
    9.2304   10.3440    6.1272 H   0  0  0  0  0  0  0  0  0  0  0  0
    9.8432    8.9941    7.1132 H   0  0  0  0  0  0  0  0  0  0  0  0
    8.1221    6.7440    5.8770 H   0  0  0  0  0  0  0  0  0  0  0  0
    9.8513    6.6868    6.2327 H   0  0  0  0  0  0  0  0  0  0  0  0
    8.5395    6.0841    3.5217 H   0  0  0  0  0  0  0  0  0  0  0  0
   11.4968    5.8155    4.3590 H   0  0  0  0  0  0  0  0  0  0  0  0
   10.8673    6.9883    3.1770 H   0  0  0  0  0  0  0  0  0  0  0  0
   10.7818    5.2454    2.8271 H   0  0  0  0  0  0  0  0  0  0  0  0
    9.6210    4.1842    5.5276 H   0  0  0  0  0  0  0  0  0  0  0  0
    6.3641    1.5092    3.8056 H   0  0  0  0  0  0  0  0  0  0  0  0
    8.7675    0.3644    8.4510 H   0  0  0  0  0  0  0  0  0  0  0  0
   10.3248    0.7806    7.7074 H   0  0  0  0  0  0  0  0  0  0  0  0
   11.6321   -1.2630    6.7830 H   0  0  0  0  0  0  0  0  0  0  0  0
   10.4675   -0.8283    5.5243 H   0  0  0  0  0  0  0  0  0  0  0  0
    8.5603   -2.8900    5.2390 H   0  0  0  0  0  0  0  0  0  0  0  0
    8.5360   -5.1955    4.3778 H   0  0  0  0  0  0  0  0  0  0  0  0
    9.2648   -6.8866    2.9671 H   0  0  0  0  0  0  0  0  0  0  0  0
    8.7359   -7.5187    4.5442 H   0  0  0  0  0  0  0  0  0  0  0  0
    7.8933   -9.5690    3.4569 H   0  0  0  0  0  0  0  0  0  0  0  0
    8.4219  -11.8512    2.6402 H   0  0  0  0  0  0  0  0  0  0  0  0
   10.7829  -12.4840    2.1308 H   0  0  0  0  0  0  0  0  0  0  0  0
   12.6046  -10.8087    2.4467 H   0  0  0  0  0  0  0  0  0  0  0  0
   12.0659   -8.5157    3.2580 H   0  0  0  0  0  0  0  0  0  0  0  0
   12.6677   -5.6697    5.5303 H   0  0  0  0  0  0  0  0  0  0  0  0
   12.6799   -3.3358    6.4039 H   0  0  0  0  0  0  0  0  0  0  0  0
   10.6398   -1.5084    9.1922 H   0  0  0  0  0  0  0  0  0  0  0  0
   10.0448   -2.9583    8.3719 H   0  0  0  0  0  0  0  0  0  0  0  0
    7.2088   -2.5058    7.9452 H   0  0  0  0  0  0  0  0  0  0  0  0
    5.1720   -2.6203    9.4186 H   0  0  0  0  0  0  0  0  0  0  0  0
    9.6531   -1.3504   11.3283 H   0  0  0  0  0  0  0  0  0  0  0  0
    5.6246   -1.0118   13.9552 H   0  0  0  0  0  0  0  0  0  0  0  0
    6.1115   -2.7590   13.9678 H   0  0  0  0  0  0  0  0  0  0  0  0
  1  2  1  0
  1 42  1  0
  1 43  1  0
  1 44  1  0
  2  3  1  0
  2  4  1  0
  2 45  1  6
  3 46  1  0
  3 47  1  0
  3 48  1  0
  4  5  1  0
  4 49  1  0
  4 50  1  0
  5  6  1  0
  5  7  1  0
  5 51  1  6
  6 52  1  0
  6 53  1  0
  6 54  1  0
  7  8  1  0
  7 55  1  0
  8  9  2  0
  8 10  1  0
 10 11  2  0
 10 41  1  0
 11 12  1  0
 11 56  1  0
 12 13  1  0
 13 14  1  0
 13 41  2  0
 14 15  1  0
 14 57  1  0
 14 58  1  0
 15 16  1  0
 15 31  1  0
 16 17  1  0
 16 59  1  0
 16 60  1  0
 17 18  2  0
 17 30  1  0
 18 19  1  0
 18 61  1  0
 19 20  2  0
 19 62  1  0
 20 21  1  0
 20 29  1  0
 21 22  1  0
 22 23  1  0
 22 63  1  0
 22 64  1  0
 23 24  2  0
 23 28  1  0
 24 25  1  0
 24 65  1  0
 25 26  2  0
 25 66  1  0
 26 27  1  0
 26 67  1  0
 27 28  2  0
 27 68  1  0
 28 69  1  0
 29 30  2  0
 29 70  1  0
 30 71  1  0
 31 32  1  0
 31 72  1  0
 31 73  1  0
 32 33  2  0
 32 37  1  0
 33 34  1  0
 33 74  1  0
 34 35  2  0
 34 75  1  0
 35 36  1  0
 35 40  1  0
 36 37  2  0
 36 38  1  0
 37 76  1  0
 38 39  1  0
 39 40  1  0
 39 77  1  0
 39 78  1  0
M  END

