
     RDKit          3D

 45 47  0  0  0  0  0  0  0  0999 V2000
    0.9328    2.5954    1.5480 C   0  0  0  0  0  0  0  0  0  0  0  0
    2.3216    2.7805    1.5283 O   0  0  0  0  0  0  0  0  0  0  0  0
    2.7403    3.9004    0.7847 C   0  0  0  0  0  0  0  0  0  0  0  0
    4.2587    3.9870    0.8170 C   0  0  0  0  0  0  0  0  0  0  0  0
    4.9142    2.7316    0.2355 C   0  0  0  0  0  0  0  0  0  0  0  0
    6.3850    2.8288    0.1748 N   0  0  0  0  0  0  0  0  0  0  0  0
    6.9850    3.3983   -0.9391 C   0  0  0  0  0  0  0  0  0  0  0  0
    6.1674    4.0120   -2.2563 S   0  0  0  0  0  0  0  0  0  0  0  0
    8.3577    3.4409   -0.9207 N   0  0  0  0  0  0  0  0  0  0  0  0
    8.7686    3.8634   -1.7473 H   0  0  0  0  0  0  0  0  0  0  0  0
    9.1717    2.9851    0.0956 C   0  0  0  0  0  0  0  0  0  0  0  0
   10.5699    3.0731    0.0195 C   0  0  0  0  0  0  0  0  0  0  0  0
   11.3556    2.5899    1.0667 C   0  0  0  0  0  0  0  0  0  0  0  0
   12.8516    2.7327    0.8973 C   0  0  0  0  0  0  0  0  0  0  0  0
   13.3190    3.5310    0.1025 O   0  0  0  0  0  0  0  0  0  0  0  0
   13.6081    1.8940    1.6814 N   0  0  0  0  0  0  0  0  0  0  0  0
   15.0092    1.7948    1.7718 C   0  0  0  0  0  0  0  0  0  0  0  0
   15.8937    2.6277    1.0637 C   0  0  0  0  0  0  0  0  0  0  0  0
   17.2731    2.4679    1.2167 C   0  0  0  0  0  0  0  0  0  0  0  0
   17.7833    1.4845    2.0679 C   0  0  0  0  0  0  0  0  0  0  0  0
   19.8843    1.2523    2.2878 I   0  0  0  0  0  0  0  0  0  0  0  0
   16.9128    0.6501    2.7760 C   0  0  0  0  0  0  0  0  0  0  0  0
   15.5365    0.8089    2.6258 C   0  0  0  0  0  0  0  0  0  0  0  0
   10.7400    2.0433    2.2134 C   0  0  0  0  0  0  0  0  0  0  0  0
    9.3541    1.9649    2.2894 C   0  0  0  0  0  0  0  0  0  0  0  0
    8.5600    2.4265    1.2310 C   0  0  0  0  0  0  0  0  0  0  0  0
    7.0874    2.3421    1.3040 C   0  0  0  0  0  0  0  0  0  0  0  0
    6.4950    1.8877    2.2622 O   0  0  0  0  0  0  0  0  0  0  0  0
    0.7193    1.7011    2.1517 H   0  0  0  0  0  0  0  0  0  0  0  0
    0.5180    2.4415    0.5304 H   0  0  0  0  0  0  0  0  0  0  0  0
    0.4045    3.4599    2.0005 H   0  0  0  0  0  0  0  0  0  0  0  0
    2.3012    4.8320    1.2003 H   0  0  0  0  0  0  0  0  0  0  0  0
    2.3854    3.8219   -0.2661 H   0  0  0  0  0  0  0  0  0  0  0  0
    4.5919    4.1249    1.8585 H   0  0  0  0  0  0  0  0  0  0  0  0
    4.5686    4.8700    0.2357 H   0  0  0  0  0  0  0  0  0  0  0  0
    4.5608    2.5543   -0.7884 H   0  0  0  0  0  0  0  0  0  0  0  0
    4.6754    1.8682    0.8651 H   0  0  0  0  0  0  0  0  0  0  0  0
   11.0646    3.5187   -0.8457 H   0  0  0  0  0  0  0  0  0  0  0  0
   13.0985    1.2075    2.2238 H   0  0  0  0  0  0  0  0  0  0  0  0
   15.4958    3.3887    0.3968 H   0  0  0  0  0  0  0  0  0  0  0  0
   17.9472    3.1218    0.6605 H   0  0  0  0  0  0  0  0  0  0  0  0
   17.2982   -0.1218    3.4441 H   0  0  0  0  0  0  0  0  0  0  0  0
   14.8607    0.1539    3.1844 H   0  0  0  0  0  0  0  0  0  0  0  0
   11.3347    1.7117    3.0674 H   0  0  0  0  0  0  0  0  0  0  0  0
    8.8507    1.5553    3.1669 H   0  0  0  0  0  0  0  0  0  0  0  0
  1  2  1  0
  1 29  1  0
  1 30  1  0
  1 31  1  0
  2  3  1  0
  3  4  1  0
  3 32  1  0
  3 33  1  0
  4  5  1  0
  4 34  1  0
  4 35  1  0
  5  6  1  0
  5 36  1  0
  5 37  1  0
  6  7  1  0
  6 27  1  0
  7  8  2  0
  7  9  1  0
  9 10  1  0
  9 11  1  0
 11 12  1  0
 11 26  2  0
 12 13  2  0
 12 38  1  0
 13 14  1  0
 13 24  1  0
 14 15  2  0
 14 16  1  0
 16 17  1  0
 16 39  1  0
 17 18  2  0
 17 23  1  0
 18 19  1  0
 18 40  1  0
 19 20  2  0
 19 41  1  0
 20 21  1  0
 20 22  1  0
 22 23  2  0
 22 42  1  0
 23 43  1  0
 24 25  2  0
 24 44  1  0
 25 26  1  0
 25 45  1  0
 26 27  1  0
 27 28  2  0
M  END

