
     RDKit          3D

 13 12  0  0  0  0  0  0  0  0999 V2000
    3.1480   -1.1640   -0.3376 O   0  0  0  0  0  0  0  0  0  0  0  0
    2.6077    0.0273    0.2591 S   0  0  1  0  0  0  0  0  0  0  0  0
    1.2192    0.3852    0.2809 O   0  0  0  0  0  0  0  0  0  0  0  0
    3.1297    0.0695    1.7729 F   0  0  0  0  0  0  0  0  0  0  0  0
    3.3914    1.3746   -0.2611 O   0  0  0  0  0  0  0  0  0  0  0  0
    4.7450    1.3579   -0.6894 C   0  0  1  0  0  0  0  0  0  0  0  0
    5.4872    0.7196    0.2326 F   0  0  0  0  0  0  0  0  0  0  0  0
    4.8255    0.6620   -1.8348 F   0  0  0  0  0  0  0  0  0  0  0  0
    5.1754    2.7685   -0.9144 C   0  0  0  0  0  0  0  0  0  0  0  0
    5.8046    3.5219   -0.0121 C   0  0  0  0  0  0  0  0  0  0  0  0
    6.1484    3.1501    1.1924 F   0  0  0  0  0  0  0  0  0  0  0  0
    6.1655    4.7593   -0.2394 F   0  0  0  0  0  0  0  0  0  0  0  0
    4.9274    3.2117   -1.8782 H   0  0  0  0  0  0  0  0  0  0  0  0
  1  2  2  0
  2  3  2  0
  2  4  1  1
  2  5  1  0
  5  6  1  0
  6  7  1  1
  6  8  1  0
  6  9  1  0
  9 10  2  0
  9 13  1  0
 10 11  1  0
 10 12  1  0
M  END

