
     RDKit          3D

 62 63  0  0  0  0  0  0  0  0999 V2000
   12.6886    0.4127   -8.7423 C   0  0  0  0  0  0  0  0  0  0  0  0
   11.2446    0.8824   -8.9241 C   0  0  0  0  0  0  0  0  0  0  0  0
   10.6074    1.3853   -7.6244 C   0  0  0  0  0  0  0  0  0  0  0  0
    9.1680    1.8408   -7.8240 C   0  0  0  0  0  0  0  0  0  0  0  0
    8.5572    2.2352   -6.5784 O   0  0  0  0  0  0  0  0  0  0  0  0
    8.7064    3.5113   -6.1534 C   0  0  0  0  0  0  0  0  0  0  0  0
    9.3211    4.3372   -6.7872 O   0  0  0  0  0  0  0  0  0  0  0  0
    8.0351    3.7933   -4.8434 C   0  0  0  0  0  0  0  0  0  0  0  0
    8.1420    5.1260   -4.4055 C   0  0  0  0  0  0  0  0  0  0  0  0
    7.5746    5.5535   -3.2106 C   0  0  0  0  0  0  0  0  0  0  0  0
    6.8801    4.6302   -2.4224 C   0  0  0  0  0  0  0  0  0  0  0  0
    6.7552    3.3023   -2.8222 C   0  0  0  0  0  0  0  0  0  0  0  0
    7.3256    2.8582   -4.0328 C   0  0  0  0  0  0  0  0  0  0  0  0
    7.2019    1.5222   -4.4301 N   0  0  0  0  0  0  0  0  0  0  0  0
    6.5874    0.4847   -3.8104 C   0  0  0  0  0  0  0  0  0  0  0  0
    5.9855    0.4843   -2.7448 O   0  0  0  0  0  0  0  0  0  0  0  0
    6.7269   -0.8131   -4.6458 C   0  0  0  0  0  0  0  0  0  0  0  0
    7.3022   -0.8292   -5.7280 O   0  0  0  0  0  0  0  0  0  0  0  0
    6.1469   -1.8625   -4.0390 N   0  0  0  0  0  0  0  0  0  0  0  0
    6.1421   -3.2103   -4.6056 C   0  0  1  0  0  0  0  0  0  0  0  0
    5.9982   -4.2866   -3.5226 C   0  0  0  0  0  0  0  0  0  0  0  0
    4.5649   -4.5057   -2.9785 C   0  0  2  0  0  0  0  0  0  0  0  0
    4.1612   -3.4398   -1.9255 C   0  0  0  0  0  0  0  0  0  0  0  0
    4.5264   -5.8758   -2.2742 C   0  0  0  0  0  0  0  0  0  0  0  0
    3.6522   -4.5989   -4.1253 N   0  0  0  0  0  0  0  0  0  0  0  0
    3.6384   -3.6137   -5.2197 C   0  0  2  0  0  0  0  0  0  0  0  0
    2.9737   -2.2582   -4.8658 C   0  0  0  0  0  0  0  0  0  0  0  0
    2.8158   -4.2487   -6.3570 C   0  0  0  0  0  0  0  0  0  0  0  0
    5.0899   -3.4235   -5.7112 C   0  0  0  0  0  0  0  0  0  0  0  0
   13.1199    0.0600   -9.6925 H   0  0  0  0  0  0  0  0  0  0  0  0
   12.7514   -0.4171   -8.0188 H   0  0  0  0  0  0  0  0  0  0  0  0
   13.3298    1.2274   -8.3668 H   0  0  0  0  0  0  0  0  0  0  0  0
   10.6369    0.0550   -9.3334 H   0  0  0  0  0  0  0  0  0  0  0  0
   11.2117    1.6860   -9.6819 H   0  0  0  0  0  0  0  0  0  0  0  0
   11.1959    2.2271   -7.2222 H   0  0  0  0  0  0  0  0  0  0  0  0
   10.6215    0.5850   -6.8641 H   0  0  0  0  0  0  0  0  0  0  0  0
    8.5385    1.0162   -8.1874 H   0  0  0  0  0  0  0  0  0  0  0  0
    9.1120    2.6860   -8.5252 H   0  0  0  0  0  0  0  0  0  0  0  0
    8.6922    5.8167   -5.0463 H   0  0  0  0  0  0  0  0  0  0  0  0
    7.6722    6.5946   -2.8956 H   0  0  0  0  0  0  0  0  0  0  0  0
    6.4261    4.9444   -1.4788 H   0  0  0  0  0  0  0  0  0  0  0  0
    6.2165    2.5831   -2.2095 H   0  0  0  0  0  0  0  0  0  0  0  0
    7.6335    1.2747   -5.3251 H   0  0  0  0  0  0  0  0  0  0  0  0
    5.7382   -1.6622   -3.1304 H   0  0  0  0  0  0  0  0  0  0  0  0
    7.1283   -3.3249   -5.0841 H   0  0  0  0  0  0  0  0  0  0  0  0
    6.6906   -4.0831   -2.6891 H   0  0  0  0  0  0  0  0  0  0  0  0
    6.3230   -5.2339   -3.9808 H   0  0  0  0  0  0  0  0  0  0  0  0
    4.8577   -3.4400   -1.0709 H   0  0  0  0  0  0  0  0  0  0  0  0
    3.1567   -3.6666   -1.5318 H   0  0  0  0  0  0  0  0  0  0  0  0
    4.1154   -2.4182   -2.3242 H   0  0  0  0  0  0  0  0  0  0  0  0
    5.2308   -5.9107   -1.4277 H   0  0  0  0  0  0  0  0  0  0  0  0
    4.7793   -6.6778   -2.9831 H   0  0  0  0  0  0  0  0  0  0  0  0
    3.5181   -6.0801   -1.8764 H   0  0  0  0  0  0  0  0  0  0  0  0
    2.7042   -4.8053   -3.8149 H   0  0  0  0  0  0  0  0  0  0  0  0
    1.9727   -2.4263   -4.4350 H   0  0  0  0  0  0  0  0  0  0  0  0
    2.8474   -1.6422   -5.7711 H   0  0  0  0  0  0  0  0  0  0  0  0
    3.5550   -1.6627   -4.1516 H   0  0  0  0  0  0  0  0  0  0  0  0
    1.7651   -4.3848   -6.0486 H   0  0  0  0  0  0  0  0  0  0  0  0
    3.2230   -5.2364   -6.6189 H   0  0  0  0  0  0  0  0  0  0  0  0
    2.8182   -3.6109   -7.2550 H   0  0  0  0  0  0  0  0  0  0  0  0
    5.1458   -2.5966   -6.4354 H   0  0  0  0  0  0  0  0  0  0  0  0
    5.3872   -4.3385   -6.2497 H   0  0  0  0  0  0  0  0  0  0  0  0
  1  2  1  0
  1 30  1  0
  1 31  1  0
  1 32  1  0
  2  3  1  0
  2 33  1  0
  2 34  1  0
  3  4  1  0
  3 35  1  0
  3 36  1  0
  4  5  1  0
  4 37  1  0
  4 38  1  0
  5  6  1  0
  6  7  2  0
  6  8  1  0
  8  9  2  0
  8 13  1  0
  9 10  1  0
  9 39  1  0
 10 11  2  0
 10 40  1  0
 11 12  1  0
 11 41  1  0
 12 13  2  0
 12 42  1  0
 13 14  1  0
 14 15  1  0
 14 43  1  0
 15 16  2  0
 15 17  1  0
 17 18  2  0
 17 19  1  0
 19 20  1  0
 19 44  1  0
 20 21  1  0
 20 29  1  0
 20 45  1  6
 21 22  1  0
 21 46  1  0
 21 47  1  0
 22 23  1  1
 22 24  1  0
 22 25  1  0
 23 48  1  0
 23 49  1  0
 23 50  1  0
 24 51  1  0
 24 52  1  0
 24 53  1  0
 25 26  1  0
 25 54  1  0
 26 27  1  1
 26 28  1  0
 26 29  1  0
 27 55  1  0
 27 56  1  0
 27 57  1  0
 28 58  1  0
 28 59  1  0
 28 60  1  0
 29 61  1  0
 29 62  1  0
M  END

