
     RDKit          3D

 43 44  0  0  0  0  0  0  0  0999 V2000
    1.1674    0.0379   -0.1415 C   0  0  0  0  0  0  0  0  0  0  0  0
    2.6842   -0.0631    0.0709 C   0  0  1  0  0  0  0  0  0  0  0  0
    3.2628   -1.4146   -0.3963 C   0  0  0  0  0  0  0  0  0  0  0  0
    3.3042   -1.5251   -1.9263 C   0  0  0  0  0  0  0  0  0  0  0  0
    4.0227   -0.3169   -2.5350 C   0  0  0  0  0  0  0  0  0  0  0  0
    3.4641    0.9572   -2.0756 N   0  0  0  0  0  0  0  0  0  0  0  0
    2.5448    1.5836   -2.9107 C   0  0  0  0  0  0  0  0  0  0  0  0
    2.0148    0.9911   -3.8482 O   0  0  0  0  0  0  0  0  0  0  0  0
    2.2815    2.9216   -2.6455 N   0  0  0  0  0  0  0  0  0  0  0  0
    3.2638    3.8221   -2.0626 C   0  0  0  0  0  0  0  0  0  0  0  0
    1.0993    3.5275   -3.2885 C   0  0  1  0  0  0  0  0  0  0  0  0
    0.2323    4.2533   -2.2552 C   0  0  0  0  0  0  0  0  0  0  0  0
    1.4842    4.3724   -4.5088 C   0  0  0  0  0  0  0  0  0  0  0  0
    1.3088    5.7620   -4.5690 C   0  0  0  0  0  0  0  0  0  0  0  0
    1.6881    6.4805   -5.7095 C   0  0  0  0  0  0  0  0  0  0  0  0
    2.2460    5.8285   -6.8084 C   0  0  0  0  0  0  0  0  0  0  0  0
    2.4166    4.4407   -6.7473 C   0  0  0  0  0  0  0  0  0  0  0  0
    3.1071    3.6030   -8.1228 Cl  0  0  0  0  0  0  0  0  0  0  0  0
    2.0433    3.7126   -5.6188 C   0  0  0  0  0  0  0  0  0  0  0  0
    3.4434    1.0938   -0.6178 C   0  0  0  0  0  0  0  0  0  0  0  0
    0.6432   -0.7772    0.3831 H   0  0  0  0  0  0  0  0  0  0  0  0
    0.8919   -0.0228   -1.2060 H   0  0  0  0  0  0  0  0  0  0  0  0
    0.7752    0.9914    0.2489 H   0  0  0  0  0  0  0  0  0  0  0  0
    2.8795    0.0358    1.1544 H   0  0  0  0  0  0  0  0  0  0  0  0
    2.6834   -2.2460    0.0397 H   0  0  0  0  0  0  0  0  0  0  0  0
    4.2912   -1.5139   -0.0025 H   0  0  0  0  0  0  0  0  0  0  0  0
    2.2860   -1.5759   -2.3445 H   0  0  0  0  0  0  0  0  0  0  0  0
    3.8195   -2.4520   -2.2299 H   0  0  0  0  0  0  0  0  0  0  0  0
    3.9672   -0.3399   -3.6299 H   0  0  0  0  0  0  0  0  0  0  0  0
    5.0900   -0.3361   -2.2428 H   0  0  0  0  0  0  0  0  0  0  0  0
    4.2435    3.3296   -2.0223 H   0  0  0  0  0  0  0  0  0  0  0  0
    3.0003    4.1559   -1.0429 H   0  0  0  0  0  0  0  0  0  0  0  0
    3.3651    4.7201   -2.6948 H   0  0  0  0  0  0  0  0  0  0  0  0
    0.5291    2.6721   -3.6741 H   0  0  0  0  0  0  0  0  0  0  0  0
    0.7480    5.1081   -1.7900 H   0  0  0  0  0  0  0  0  0  0  0  0
   -0.0499    3.5545   -1.4532 H   0  0  0  0  0  0  0  0  0  0  0  0
   -0.6911    4.6322   -2.7188 H   0  0  0  0  0  0  0  0  0  0  0  0
    0.8700    6.3008   -3.7278 H   0  0  0  0  0  0  0  0  0  0  0  0
    1.5457    7.5638   -5.7415 H   0  0  0  0  0  0  0  0  0  0  0  0
    2.5440    6.3771   -7.7033 H   0  0  0  0  0  0  0  0  0  0  0  0
    2.1755    2.6292   -5.5871 H   0  0  0  0  0  0  0  0  0  0  0  0
    2.9854    2.0499   -0.3389 H   0  0  0  0  0  0  0  0  0  0  0  0
    4.4869    1.1126   -0.2514 H   0  0  0  0  0  0  0  0  0  0  0  0
  1  2  1  0
  1 21  1  0
  1 22  1  0
  1 23  1  0
  2  3  1  0
  2 20  1  0
  2 24  1  1
  3  4  1  0
  3 25  1  0
  3 26  1  0
  4  5  1  0
  4 27  1  0
  4 28  1  0
  5  6  1  0
  5 29  1  0
  5 30  1  0
  6  7  1  0
  6 20  1  0
  7  8  2  0
  7  9  1  0
  9 10  1  0
  9 11  1  0
 10 31  1  0
 10 32  1  0
 10 33  1  0
 11 12  1  0
 11 13  1  0
 11 34  1  6
 12 35  1  0
 12 36  1  0
 12 37  1  0
 13 14  2  0
 13 19  1  0
 14 15  1  0
 14 38  1  0
 15 16  2  0
 15 39  1  0
 16 17  1  0
 16 40  1  0
 17 18  1  0
 17 19  2  0
 19 41  1  0
 20 42  1  0
 20 43  1  0
M  END

