
     RDKit          3D

 50 55  0  0  0  0  0  0  0  0999 V2000
    0.6283    0.3521    0.1558 N   0  0  0  0  0  0  0  0  0  0  0  0
    1.9828    0.3437    0.1590 C   0  0  0  0  0  0  0  0  0  0  0  0
    2.5979    1.5336    0.2038 N   0  0  0  0  0  0  0  0  0  0  0  0
    3.9360    1.5760    0.2502 C   0  0  0  0  0  0  0  0  0  0  0  0
    4.7847    0.5554    0.2858 N   0  0  0  0  0  0  0  0  0  0  0  0
    4.1636   -0.6323    0.2286 C   0  0  0  0  0  0  0  0  0  0  0  0
    2.7696   -0.8457    0.1189 C   0  0  0  0  0  0  0  0  0  0  0  0
    2.6288   -2.2779    0.0905 C   0  0  0  0  0  0  0  0  0  0  0  0
    1.4258   -3.1261   -0.0311 C   0  0  0  0  0  0  0  0  0  0  0  0
    1.3909   -4.3691    0.6229 C   0  0  0  0  0  0  0  0  0  0  0  0
    0.2744   -5.2056    0.5034 C   0  0  0  0  0  0  0  0  0  0  0  0
    0.2011   -6.4097    1.1187 O   0  0  0  0  0  0  0  0  0  0  0  0
   -0.8304   -4.8084   -0.2661 C   0  0  0  0  0  0  0  0  0  0  0  0
   -0.7707   -3.5807   -0.9115 C   0  0  0  0  0  0  0  0  0  0  0  0
   -1.8119   -3.1996   -1.6662 F   0  0  0  0  0  0  0  0  0  0  0  0
    0.3300   -2.7291   -0.8182 C   0  0  0  0  0  0  0  0  0  0  0  0
    3.8236   -2.8464    0.1947 N   0  0  0  0  0  0  0  0  0  0  0  0
    4.7487   -1.8652    0.2763 N   0  0  0  0  0  0  0  0  0  0  0  0
    6.1639   -2.2031    0.3649 C   0  0  1  0  0  0  0  0  0  0  0  0
    7.0313   -1.7141   -0.8221 C   0  0  0  0  0  0  0  0  0  0  0  0
    8.4140   -1.6719   -0.2124 C   0  0  0  0  0  0  0  0  0  0  0  0
    9.6546   -1.6403   -0.8513 C   0  0  0  0  0  0  0  0  0  0  0  0
   10.8103   -1.5723   -0.0664 C   0  0  0  0  0  0  0  0  0  0  0  0
   10.7241   -1.5331    1.3301 C   0  0  0  0  0  0  0  0  0  0  0  0
    9.4836   -1.5701    1.9892 C   0  0  0  0  0  0  0  0  0  0  0  0
    9.3494   -1.5249    3.4806 C   0  0  1  0  0  0  0  0  0  0  0  0
    9.3596   -2.7980    4.3103 C   0  0  0  0  0  0  0  0  0  0  0  0
   10.4890   -1.8095    4.4233 C   0  0  0  0  0  0  0  0  0  0  0  0
    8.3310   -1.6427    1.1886 C   0  0  0  0  0  0  0  0  0  0  0  0
    6.8859   -1.6798    1.6329 C   0  0  0  0  0  0  0  0  0  0  0  0
    0.1727    1.2486    0.2766 H   0  0  0  0  0  0  0  0  0  0  0  0
    0.0983   -0.4987    0.2849 H   0  0  0  0  0  0  0  0  0  0  0  0
    4.3788    2.5793    0.2746 H   0  0  0  0  0  0  0  0  0  0  0  0
    2.2517   -4.6762    1.2212 H   0  0  0  0  0  0  0  0  0  0  0  0
    1.0193   -6.5732    1.6065 H   0  0  0  0  0  0  0  0  0  0  0  0
   -1.7060   -5.4511   -0.3596 H   0  0  0  0  0  0  0  0  0  0  0  0
    0.3377   -1.8061   -1.3982 H   0  0  0  0  0  0  0  0  0  0  0  0
    6.1740   -3.3018    0.3804 H   0  0  0  0  0  0  0  0  0  0  0  0
    6.7157   -0.7012   -1.1254 H   0  0  0  0  0  0  0  0  0  0  0  0
    6.9481   -2.3718   -1.7015 H   0  0  0  0  0  0  0  0  0  0  0  0
    9.7246   -1.6674   -1.9421 H   0  0  0  0  0  0  0  0  0  0  0  0
   11.7927   -1.5445   -0.5453 H   0  0  0  0  0  0  0  0  0  0  0  0
   11.6423   -1.4621    1.9174 H   0  0  0  0  0  0  0  0  0  0  0  0
    8.6353   -0.7690    3.8285 H   0  0  0  0  0  0  0  0  0  0  0  0
    9.5589   -3.7360    3.7840 H   0  0  0  0  0  0  0  0  0  0  0  0
    8.6474   -2.8841    5.1361 H   0  0  0  0  0  0  0  0  0  0  0  0
   11.4564   -2.0972    4.0038 H   0  0  0  0  0  0  0  0  0  0  0  0
   10.5633   -1.2023    5.3297 H   0  0  0  0  0  0  0  0  0  0  0  0
    6.5291   -0.6650    1.8800 H   0  0  0  0  0  0  0  0  0  0  0  0
    6.7058   -2.3216    2.5090 H   0  0  0  0  0  0  0  0  0  0  0  0
  1  2  1  0
  1 31  1  0
  1 32  1  0
  2  3  2  0
  2  7  1  0
  3  4  1  0
  4  5  2  0
  4 33  1  0
  5  6  1  0
  6  7  2  0
  6 18  1  0
  7  8  1  0
  8  9  1  0
  8 17  2  0
  9 10  2  0
  9 16  1  0
 10 11  1  0
 10 34  1  0
 11 12  1  0
 11 13  2  0
 12 35  1  0
 13 14  1  0
 13 36  1  0
 14 15  1  0
 14 16  2  0
 16 37  1  0
 17 18  1  0
 18 19  1  0
 19 20  1  0
 19 30  1  0
 19 38  1  1
 20 21  1  0
 20 39  1  0
 20 40  1  0
 21 22  1  0
 21 29  2  0
 22 23  2  0
 22 41  1  0
 23 24  1  0
 23 42  1  0
 24 25  2  0
 24 43  1  0
 25 26  1  0
 25 29  1  0
 26 27  1  0
 26 28  1  0
 26 44  1  6
 27 28  1  0
 27 45  1  0
 27 46  1  0
 28 47  1  0
 28 48  1  0
 29 30  1  0
 30 49  1  0
 30 50  1  0
M  END

