
     RDKit          3D

 71 78  0  0  0  0  0  0  0  0999 V2000
   -0.6682    0.6945    1.8160 C   0  0  0  0  0  0  0  0  0  0  0  0
   -0.3605    1.5782    0.7770 C   0  0  0  0  0  0  0  0  0  0  0  0
   -0.3885    1.2231   -0.5097 N   0  0  0  0  0  0  0  0  0  0  0  0
   -0.7199   -0.0324   -0.8072 C   0  0  0  0  0  0  0  0  0  0  0  0
   -1.0384   -1.0186    0.1488 C   0  0  0  0  0  0  0  0  0  0  0  0
   -1.3921   -2.4025   -0.2562 C   0  0  0  0  0  0  0  0  0  0  0  0
   -0.7490   -3.0315   -1.3384 C   0  0  0  0  0  0  0  0  0  0  0  0
   -1.0837   -4.3318   -1.7192 C   0  0  0  0  0  0  0  0  0  0  0  0
   -2.0730   -5.0553   -1.0333 C   0  0  0  0  0  0  0  0  0  0  0  0
   -2.4312   -6.4511   -1.4427 C   0  0  0  0  0  0  0  0  0  0  0  0
   -1.7161   -7.5515   -0.9130 C   0  0  0  0  0  0  0  0  0  0  0  0
   -0.6430   -7.3745    0.0225 C   0  0  0  0  0  0  0  0  0  0  0  0
    0.0487   -8.4454    0.5302 C   0  0  0  0  0  0  0  0  0  0  0  0
   -0.2885   -9.7707    0.1336 C   0  0  0  0  0  0  0  0  0  0  0  0
   -1.3094   -9.9879   -0.7571 C   0  0  0  0  0  0  0  0  0  0  0  0
   -2.0626   -8.9001   -1.3131 C   0  0  0  0  0  0  0  0  0  0  0  0
   -3.1178   -9.1178   -2.2296 C   0  0  0  0  0  0  0  0  0  0  0  0
   -3.4790  -10.5128   -2.6388 C   0  0  0  0  0  0  0  0  0  0  0  0
   -4.4006  -11.2689   -1.8954 C   0  0  0  0  0  0  0  0  0  0  0  0
   -4.7363  -12.5690   -2.2751 C   0  0  0  0  0  0  0  0  0  0  0  0
   -4.1649  -13.1653   -3.4146 C   0  0  0  0  0  0  0  0  0  0  0  0
   -4.5205  -14.5495   -3.8166 C   0  0  0  0  0  0  0  0  0  0  0  0
   -5.8228  -15.0582   -3.6739 C   0  0  0  0  0  0  0  0  0  0  0  0
   -6.0975  -16.3664   -4.0697 C   0  0  0  0  0  0  0  0  0  0  0  0
   -5.0595  -17.1355   -4.6046 C   0  0  0  0  0  0  0  0  0  0  0  0
   -3.8136  -16.6763   -4.7433 N   0  0  0  0  0  0  0  0  0  0  0  0
   -3.5585  -15.4269   -4.3579 C   0  0  0  0  0  0  0  0  0  0  0  0
   -3.2435  -12.4046   -4.1582 C   0  0  0  0  0  0  0  0  0  0  0  0
   -2.9072  -11.1049   -3.7769 C   0  0  0  0  0  0  0  0  0  0  0  0
   -3.8342   -8.0169   -2.7567 C   0  0  0  0  0  0  0  0  0  0  0  0
   -4.9083   -8.1959   -3.6864 C   0  0  0  0  0  0  0  0  0  0  0  0
   -5.6177   -7.1365   -4.2170 C   0  0  0  0  0  0  0  0  0  0  0  0
   -6.7253   -7.3560   -5.1796 C   0  0  0  0  0  0  0  0  0  0  0  0
   -7.5794   -8.4699   -5.0963 C   0  0  0  0  0  0  0  0  0  0  0  0
   -8.5981   -8.6278   -6.0341 C   0  0  0  0  0  0  0  0  0  0  0  0
   -8.7439   -7.6606   -7.0337 C   0  0  0  0  0  0  0  0  0  0  0  0
   -7.9448   -6.5962   -7.1346 N   0  0  0  0  0  0  0  0  0  0  0  0
   -6.9707   -6.4549   -6.2365 C   0  0  0  0  0  0  0  0  0  0  0  0
   -5.2546   -5.8078   -3.8159 C   0  0  0  0  0  0  0  0  0  0  0  0
   -4.2353   -5.5893   -2.9277 C   0  0  0  0  0  0  0  0  0  0  0  0
   -3.4831   -6.6705   -2.3599 C   0  0  0  0  0  0  0  0  0  0  0  0
   -2.7162   -4.4306    0.0479 C   0  0  0  0  0  0  0  0  0  0  0  0
   -2.3829   -3.1302    0.4285 C   0  0  0  0  0  0  0  0  0  0  0  0
   -1.0086   -0.6189    1.4958 C   0  0  0  0  0  0  0  0  0  0  0  0
   -0.6301    1.0280    2.8557 H   0  0  0  0  0  0  0  0  0  0  0  0
   -0.0798    2.6155    0.9953 H   0  0  0  0  0  0  0  0  0  0  0  0
   -0.7588   -0.2822   -1.8741 H   0  0  0  0  0  0  0  0  0  0  0  0
    0.0424   -2.5056   -1.8773 H   0  0  0  0  0  0  0  0  0  0  0  0
   -0.5632   -4.7994   -2.5588 H   0  0  0  0  0  0  0  0  0  0  0  0
   -0.3797   -6.3617    0.3299 H   0  0  0  0  0  0  0  0  0  0  0  0
    0.8623   -8.2832    1.2417 H   0  0  0  0  0  0  0  0  0  0  0  0
    0.2698  -10.6171    0.5417 H   0  0  0  0  0  0  0  0  0  0  0  0
   -1.5621  -11.0056   -1.0568 H   0  0  0  0  0  0  0  0  0  0  0  0
   -4.8523  -10.8334   -1.0004 H   0  0  0  0  0  0  0  0  0  0  0  0
   -5.4364  -13.1395   -1.6599 H   0  0  0  0  0  0  0  0  0  0  0  0
   -6.6195  -14.4246   -3.2761 H   0  0  0  0  0  0  0  0  0  0  0  0
   -7.1034  -16.7826   -3.9764 H   0  0  0  0  0  0  0  0  0  0  0  0
   -5.2442  -18.1649   -4.9341 H   0  0  0  0  0  0  0  0  0  0  0  0
   -2.5197  -15.0917   -4.4615 H   0  0  0  0  0  0  0  0  0  0  0  0
   -2.7994  -12.8261   -5.0628 H   0  0  0  0  0  0  0  0  0  0  0  0
   -2.1939  -10.5339   -4.3767 H   0  0  0  0  0  0  0  0  0  0  0  0
   -5.1483   -9.2123   -3.9994 H   0  0  0  0  0  0  0  0  0  0  0  0
   -7.4570   -9.1946   -4.2876 H   0  0  0  0  0  0  0  0  0  0  0  0
   -9.2788   -9.4811   -5.9863 H   0  0  0  0  0  0  0  0  0  0  0  0
   -9.5412   -7.7505   -7.7811 H   0  0  0  0  0  0  0  0  0  0  0  0
   -6.3208   -5.5816   -6.3655 H   0  0  0  0  0  0  0  0  0  0  0  0
   -5.8174   -4.9575   -4.2062 H   0  0  0  0  0  0  0  0  0  0  0  0
   -3.9886   -4.5686   -2.6327 H   0  0  0  0  0  0  0  0  0  0  0  0
   -3.4949   -4.9704    0.5928 H   0  0  0  0  0  0  0  0  0  0  0  0
   -2.9197   -2.6641    1.2583 H   0  0  0  0  0  0  0  0  0  0  0  0
   -1.2287   -1.3395    2.2875 H   0  0  0  0  0  0  0  0  0  0  0  0
  1  2  2  0
  1 44  1  0
  1 45  1  0
  2  3  1  0
  2 46  1  0
  3  4  2  0
  4  5  1  0
  4 47  1  0
  5  6  1  0
  5 44  2  0
  6  7  2  0
  6 43  1  0
  7  8  1  0
  7 48  1  0
  8  9  2  0
  8 49  1  0
  9 10  1  0
  9 42  1  0
 10 11  1  0
 10 41  2  0
 11 12  2  0
 11 16  1  0
 12 13  1  0
 12 50  1  0
 13 14  2  0
 13 51  1  0
 14 15  1  0
 14 52  1  0
 15 16  2  0
 15 53  1  0
 16 17  1  0
 17 18  1  0
 17 30  2  0
 18 19  2  0
 18 29  1  0
 19 20  1  0
 19 54  1  0
 20 21  2  0
 20 55  1  0
 21 22  1  0
 21 28  1  0
 22 23  2  0
 22 27  1  0
 23 24  1  0
 23 56  1  0
 24 25  2  0
 24 57  1  0
 25 26  1  0
 25 58  1  0
 26 27  2  0
 27 59  1  0
 28 29  2  0
 28 60  1  0
 29 61  1  0
 30 31  1  0
 30 41  1  0
 31 32  2  0
 31 62  1  0
 32 33  1  0
 32 39  1  0
 33 34  2  0
 33 38  1  0
 34 35  1  0
 34 63  1  0
 35 36  2  0
 35 64  1  0
 36 37  1  0
 36 65  1  0
 37 38  2  0
 38 66  1  0
 39 40  2  0
 39 67  1  0
 40 41  1  0
 40 68  1  0
 42 43  2  0
 42 69  1  0
 43 70  1  0
 44 71  1  0
M  END

