
     RDKit          3D

 48 51  0  0  0  0  0  0  0  0999 V2000
    2.3509   -2.5239    3.0310 C   0  0  0  0  0  0  0  0  0  0  0  0
    3.0350   -1.4595    2.6038 C   0  0  0  0  0  0  0  0  0  0  0  0
    3.2539   -1.1024    1.1567 C   0  0  0  0  0  0  0  0  0  0  0  0
    4.6590   -0.8539    0.8241 N   0  0  0  0  0  0  0  0  0  0  0  0
    5.0682    0.4775    0.5769 C   0  0  0  0  0  0  0  0  0  0  0  0
    4.2771    1.4026    0.6166 O   0  0  0  0  0  0  0  0  0  0  0  0
    6.3913    0.6488    0.2581 N   0  0  0  0  0  0  0  0  0  0  0  0
    7.5054   -0.2905    0.4030 C   0  0  1  0  0  0  0  0  0  0  0  0
    8.1344   -0.2224   -0.5030 H   0  0  0  0  0  0  0  0  0  0  0  0
    8.4117    0.0228    1.6036 C   0  0  0  0  0  0  0  0  0  0  0  0
    7.9958    0.8551    2.6507 C   0  0  0  0  0  0  0  0  0  0  0  0
    8.8346    1.1147    3.7397 C   0  0  0  0  0  0  0  0  0  0  0  0
   10.0964    0.5295    3.7711 C   0  0  0  0  0  0  0  0  0  0  0  0
   10.9082    0.7748    4.8109 F   0  0  0  0  0  0  0  0  0  0  0  0
   10.5375   -0.3050    2.7449 C   0  0  0  0  0  0  0  0  0  0  0  0
    9.6923   -0.5530    1.6630 C   0  0  0  0  0  0  0  0  0  0  0  0
    6.8996   -1.6620    0.4627 C   0  0  0  0  0  0  0  0  0  0  0  0
    5.5838   -1.8649    0.6883 C   0  0  0  0  0  0  0  0  0  0  0  0
    5.2780   -3.3422    0.6985 C   0  0  0  0  0  0  0  0  0  0  0  0
    6.5713   -3.9242    0.4116 N   0  0  0  0  0  0  0  0  0  0  0  0
    6.8334   -5.3488    0.3880 C   0  0  0  0  0  0  0  0  0  0  0  0
    6.7996   -6.0084    1.7565 C   0  0  0  0  0  0  0  0  0  0  0  0
    5.8372   -6.9748    2.0775 C   0  0  0  0  0  0  0  0  0  0  0  0
    5.8072   -7.5763    3.3403 C   0  0  0  0  0  0  0  0  0  0  0  0
    6.7549   -7.1948    4.2850 C   0  0  0  0  0  0  0  0  0  0  0  0
    6.7350   -7.7629    5.4998 F   0  0  0  0  0  0  0  0  0  0  0  0
    7.7274   -6.2362    3.9989 C   0  0  0  0  0  0  0  0  0  0  0  0
    7.7444   -5.6491    2.7339 C   0  0  0  0  0  0  0  0  0  0  0  0
    7.5669   -2.9650    0.2827 C   0  0  0  0  0  0  0  0  0  0  0  0
    8.7467   -3.1992    0.0641 O   0  0  0  0  0  0  0  0  0  0  0  0
    2.1922   -2.7128    4.0960 H   0  0  0  0  0  0  0  0  0  0  0  0
    1.9099   -3.2423    2.3309 H   0  0  0  0  0  0  0  0  0  0  0  0
    3.4604   -0.7551    3.3290 H   0  0  0  0  0  0  0  0  0  0  0  0
    2.7328   -0.1624    0.9224 H   0  0  0  0  0  0  0  0  0  0  0  0
    2.8486   -1.8870    0.4964 H   0  0  0  0  0  0  0  0  0  0  0  0
    6.6202    1.6240    0.0977 H   0  0  0  0  0  0  0  0  0  0  0  0
    7.0075    1.3190    2.6228 H   0  0  0  0  0  0  0  0  0  0  0  0
    8.5230    1.7652    4.5594 H   0  0  0  0  0  0  0  0  0  0  0  0
   11.5337   -0.7478    2.8046 H   0  0  0  0  0  0  0  0  0  0  0  0
   10.0148   -1.2269    0.8658 H   0  0  0  0  0  0  0  0  0  0  0  0
    4.5269   -3.6067   -0.0711 H   0  0  0  0  0  0  0  0  0  0  0  0
    4.8770   -3.6695    1.6751 H   0  0  0  0  0  0  0  0  0  0  0  0
    7.8346   -5.4549   -0.0576 H   0  0  0  0  0  0  0  0  0  0  0  0
    6.1141   -5.8477   -0.2843 H   0  0  0  0  0  0  0  0  0  0  0  0
    5.0971   -7.2716    1.3285 H   0  0  0  0  0  0  0  0  0  0  0  0
    5.0630   -8.3315    3.6003 H   0  0  0  0  0  0  0  0  0  0  0  0
    8.4574   -5.9690    4.7656 H   0  0  0  0  0  0  0  0  0  0  0  0
    8.5074   -4.9037    2.4935 H   0  0  0  0  0  0  0  0  0  0  0  0
  1  2  2  0
  1 31  1  0
  1 32  1  0
  2  3  1  0
  2 33  1  0
  3  4  1  0
  3 34  1  0
  3 35  1  0
  4  5  1  0
  4 18  1  0
  5  6  2  0
  5  7  1  0
  7  8  1  0
  7 36  1  0
  8  9  1  6
  8 10  1  0
  8 17  1  0
 10 11  2  0
 10 16  1  0
 11 12  1  0
 11 37  1  0
 12 13  2  0
 12 38  1  0
 13 14  1  0
 13 15  1  0
 15 16  2  0
 15 39  1  0
 16 40  1  0
 17 18  2  0
 17 29  1  0
 18 19  1  0
 19 20  1  0
 19 41  1  0
 19 42  1  0
 20 21  1  0
 20 29  1  0
 21 22  1  0
 21 43  1  0
 21 44  1  0
 22 23  2  0
 22 28  1  0
 23 24  1  0
 23 45  1  0
 24 25  2  0
 24 46  1  0
 25 26  1  0
 25 27  1  0
 27 28  2  0
 27 47  1  0
 28 48  1  0
 29 30  2  0
M  END

