
     RDKit          3D

 51 55  0  0  0  0  0  0  0  0999 V2000
    1.1548   -0.2775    0.0049 C   0  0  0  0  0  0  0  0  0  0  0  0
    2.3633   -0.2603   -0.0617 C   0  0  0  0  0  0  0  0  0  0  0  0
    3.8239   -0.2267   -0.1605 C   0  0  0  0  0  0  0  0  0  0  0  0
    4.4883    0.1353    1.0993 N   0  0  0  0  0  0  0  0  0  0  0  0
    4.8139    1.4291    1.4428 C   0  0  0  0  0  0  0  0  0  0  0  0
    4.6370    2.5581    0.8506 N   0  0  0  0  0  0  0  0  0  0  0  0
    4.4854    2.8971   -0.4678 C   0  0  0  0  0  0  0  0  0  0  0  0
    4.8746    2.2443   -1.4259 O   0  0  0  0  0  0  0  0  0  0  0  0
    3.8141    4.2853   -0.6525 C   0  0  1  0  0  0  0  0  0  0  0  0
    4.0057    4.8078   -2.0569 C   0  0  0  0  0  0  0  0  0  0  0  0
    5.2040    5.4015   -2.4748 C   0  0  0  0  0  0  0  0  0  0  0  0
    5.3888    5.8115   -3.7956 C   0  0  0  0  0  0  0  0  0  0  0  0
    4.3603    5.6265   -4.7277 C   0  0  0  0  0  0  0  0  0  0  0  0
    3.1539    5.0514   -4.3326 C   0  0  0  0  0  0  0  0  0  0  0  0
    2.9837    4.6520   -3.0022 C   0  0  0  0  0  0  0  0  0  0  0  0
    1.7654    4.1163   -2.6695 O   0  0  0  0  0  0  0  0  0  0  0  0
    1.4013    4.0555   -1.3519 C   0  0  0  0  0  0  0  0  0  0  0  0
    0.0385    3.8790   -1.0828 C   0  0  0  0  0  0  0  0  0  0  0  0
   -0.4041    3.8403    0.2381 C   0  0  0  0  0  0  0  0  0  0  0  0
    0.5089    3.9908    1.2895 C   0  0  0  0  0  0  0  0  0  0  0  0
    1.8652    4.1605    1.0083 C   0  0  0  0  0  0  0  0  0  0  0  0
    2.3367    4.1848   -0.3128 C   0  0  0  0  0  0  0  0  0  0  0  0
    5.5556    1.4465    3.0671 S   0  0  0  0  0  0  0  0  0  0  0  0
    5.3581   -0.2907    3.2355 C   0  0  0  0  0  0  0  0  0  0  0  0
    5.7136   -1.1028    4.3118 C   0  0  0  0  0  0  0  0  0  0  0  0
    5.4570   -2.4815    4.2578 C   0  0  0  0  0  0  0  0  0  0  0  0
    5.7947   -3.3757    5.4321 C   0  0  0  0  0  0  0  0  0  0  0  0
    4.6481   -3.5088    6.4465 C   0  0  0  0  0  0  0  0  0  0  0  0
    4.8358   -3.0035    3.1087 C   0  0  0  0  0  0  0  0  0  0  0  0
    4.4764   -2.1974    2.0260 C   0  0  0  0  0  0  0  0  0  0  0  0
    4.7500   -0.8274    2.0861 C   0  0  0  0  0  0  0  0  0  0  0  0
    0.0825   -0.2760    0.0620 H   0  0  0  0  0  0  0  0  0  0  0  0
    4.1545    0.4889   -0.9302 H   0  0  0  0  0  0  0  0  0  0  0  0
    4.2093   -1.2123   -0.4643 H   0  0  0  0  0  0  0  0  0  0  0  0
    4.3042    4.9523    0.0745 H   0  0  0  0  0  0  0  0  0  0  0  0
    6.0106    5.5285   -1.7470 H   0  0  0  0  0  0  0  0  0  0  0  0
    6.3333    6.2680   -4.1003 H   0  0  0  0  0  0  0  0  0  0  0  0
    4.4953    5.9398   -5.7661 H   0  0  0  0  0  0  0  0  0  0  0  0
    2.3277    4.9090   -5.0317 H   0  0  0  0  0  0  0  0  0  0  0  0
   -0.6509    3.7877   -1.9245 H   0  0  0  0  0  0  0  0  0  0  0  0
   -1.4686    3.7071    0.4479 H   0  0  0  0  0  0  0  0  0  0  0  0
    0.1640    3.9741    2.3259 H   0  0  0  0  0  0  0  0  0  0  0  0
    2.5862    4.2622    1.8225 H   0  0  0  0  0  0  0  0  0  0  0  0
    6.1923   -0.6672    5.1926 H   0  0  0  0  0  0  0  0  0  0  0  0
    6.6895   -2.9832    5.9434 H   0  0  0  0  0  0  0  0  0  0  0  0
    6.0677   -4.3768    5.0583 H   0  0  0  0  0  0  0  0  0  0  0  0
    4.3728   -2.5284    6.8673 H   0  0  0  0  0  0  0  0  0  0  0  0
    4.9346   -4.1681    7.2816 H   0  0  0  0  0  0  0  0  0  0  0  0
    3.7463   -3.9310    5.9749 H   0  0  0  0  0  0  0  0  0  0  0  0
    4.6253   -4.0752    3.0575 H   0  0  0  0  0  0  0  0  0  0  0  0
    3.9822   -2.6377    1.1595 H   0  0  0  0  0  0  0  0  0  0  0  0
  1  2  3  0
  1 32  1  0
  2  3  1  0
  3  4  1  0
  3 33  1  0
  3 34  1  0
  4  5  1  0
  4 31  1  0
  5  6  2  0
  5 23  1  0
  6  7  1  0
  7  8  2  0
  7  9  1  0
  9 10  1  0
  9 22  1  0
  9 35  1  1
 10 11  2  0
 10 15  1  0
 11 12  1  0
 11 36  1  0
 12 13  2  0
 12 37  1  0
 13 14  1  0
 13 38  1  0
 14 15  2  0
 14 39  1  0
 15 16  1  0
 16 17  1  0
 17 18  2  0
 17 22  1  0
 18 19  1  0
 18 40  1  0
 19 20  2  0
 19 41  1  0
 20 21  1  0
 20 42  1  0
 21 22  2  0
 21 43  1  0
 23 24  1  0
 24 25  1  0
 24 31  2  0
 25 26  2  0
 25 44  1  0
 26 27  1  0
 26 29  1  0
 27 28  1  0
 27 45  1  0
 27 46  1  0
 28 47  1  0
 28 48  1  0
 28 49  1  0
 29 30  2  0
 29 50  1  0
 30 31  1  0
 30 51  1  0
M  END

