
     RDKit          3D

 44 45  0  0  0  0  0  0  0  0999 V2000
    2.6795    0.4471    2.1515 O   0  0  0  0  0  0  0  0  0  0  0  0
    2.2386   -0.2965    1.2853 C   0  0  0  0  0  0  0  0  0  0  0  0
    0.7736   -0.5017    1.0612 C   0  0  0  0  0  0  0  0  0  0  0  0
   -0.1199    0.1526    1.8253 C   0  0  0  0  0  0  0  0  0  0  0  0
   -1.5830    0.0591    1.7504 C   0  0  0  0  0  0  0  0  0  0  0  0
   -2.2219   -0.9802    1.0443 C   0  0  0  0  0  0  0  0  0  0  0  0
   -3.6079   -1.0719    0.9726 C   0  0  0  0  0  0  0  0  0  0  0  0
   -4.4071   -0.1233    1.6132 C   0  0  0  0  0  0  0  0  0  0  0  0
   -3.8068    0.9165    2.3271 C   0  0  0  0  0  0  0  0  0  0  0  0
   -4.8292    2.0834    3.1185 Cl  0  0  0  0  0  0  0  0  0  0  0  0
   -2.4050    1.0139    2.4008 C   0  0  0  0  0  0  0  0  0  0  0  0
   -1.6936    2.3326    3.2896 Cl  0  0  0  0  0  0  0  0  0  0  0  0
    3.0417   -1.0044    0.4346 N   0  0  0  0  0  0  0  0  0  0  0  0
    4.4896   -0.9717    0.5012 C   0  0  0  0  0  0  0  0  0  0  0  0
    5.1032   -2.1560    1.2655 C   0  0  0  0  0  0  0  0  0  0  0  0
    4.5422   -3.5273    0.8639 C   0  0  0  0  0  0  0  0  0  0  0  0
    4.4411   -3.7259   -0.5818 N   0  0  0  0  0  0  0  0  0  0  0  0
    5.7143   -3.7698   -1.3065 C   0  0  0  0  0  0  0  0  0  0  0  0
    6.4657   -5.1059   -1.1682 C   0  0  0  0  0  0  0  0  0  0  0  0
    5.5646   -6.2789   -1.5792 C   0  0  0  0  0  0  0  0  0  0  0  0
    4.2260   -6.2265   -0.8298 C   0  0  0  0  0  0  0  0  0  0  0  0
    3.5780   -4.8388   -0.9820 C   0  0  0  0  0  0  0  0  0  0  0  0
    0.4652   -1.1791    0.2582 H   0  0  0  0  0  0  0  0  0  0  0  0
    0.3003    0.8315    2.5716 H   0  0  0  0  0  0  0  0  0  0  0  0
   -1.6091   -1.7402    0.5569 H   0  0  0  0  0  0  0  0  0  0  0  0
   -4.0758   -1.8905    0.4212 H   0  0  0  0  0  0  0  0  0  0  0  0
   -5.4959   -0.1782    1.5725 H   0  0  0  0  0  0  0  0  0  0  0  0
    2.6295   -1.6402   -0.2381 H   0  0  0  0  0  0  0  0  0  0  0  0
    4.7711   -0.0299    0.9930 H   0  0  0  0  0  0  0  0  0  0  0  0
    4.8785   -0.9477   -0.5288 H   0  0  0  0  0  0  0  0  0  0  0  0
    4.9259   -2.0267    2.3462 H   0  0  0  0  0  0  0  0  0  0  0  0
    6.1984   -2.1213    1.1322 H   0  0  0  0  0  0  0  0  0  0  0  0
    3.5182   -3.6096    1.2640 H   0  0  0  0  0  0  0  0  0  0  0  0
    5.1319   -4.3134    1.3839 H   0  0  0  0  0  0  0  0  0  0  0  0
    6.3501   -2.9333   -0.9789 H   0  0  0  0  0  0  0  0  0  0  0  0
    5.4969   -3.5935   -2.3768 H   0  0  0  0  0  0  0  0  0  0  0  0
    6.7985   -5.2409   -0.1235 H   0  0  0  0  0  0  0  0  0  0  0  0
    7.3809   -5.0816   -1.7840 H   0  0  0  0  0  0  0  0  0  0  0  0
    6.0726   -7.2423   -1.4062 H   0  0  0  0  0  0  0  0  0  0  0  0
    5.3712   -6.2205   -2.6670 H   0  0  0  0  0  0  0  0  0  0  0  0
    4.3888   -6.4457    0.2405 H   0  0  0  0  0  0  0  0  0  0  0  0
    3.5367   -7.0022   -1.2052 H   0  0  0  0  0  0  0  0  0  0  0  0
    2.6394   -4.7838   -0.4057 H   0  0  0  0  0  0  0  0  0  0  0  0
    3.3072   -4.6912   -2.0450 H   0  0  0  0  0  0  0  0  0  0  0  0
  1  2  2  0
  2  3  1  0
  2 13  1  0
  3  4  2  0
  3 23  1  0
  4  5  1  0
  4 24  1  0
  5  6  2  0
  5 11  1  0
  6  7  1  0
  6 25  1  0
  7  8  2  0
  7 26  1  0
  8  9  1  0
  8 27  1  0
  9 10  1  0
  9 11  2  0
 11 12  1  0
 13 14  1  0
 13 28  1  0
 14 15  1  0
 14 29  1  0
 14 30  1  0
 15 16  1  0
 15 31  1  0
 15 32  1  0
 16 17  1  0
 16 33  1  0
 16 34  1  0
 17 18  1  0
 17 22  1  0
 18 19  1  0
 18 35  1  0
 18 36  1  0
 19 20  1  0
 19 37  1  0
 19 38  1  0
 20 21  1  0
 20 39  1  0
 20 40  1  0
 21 22  1  0
 21 41  1  0
 21 42  1  0
 22 43  1  0
 22 44  1  0
M  END

