
     RDKit          3D

 44 47  0  0  0  0  0  0  0  0999 V2000
    2.7980    0.4629   -0.9387 O   0  0  0  0  0  0  0  0  0  0  0  0
    2.7958    0.4222    0.2813 C   0  0  0  0  0  0  0  0  0  0  0  0
    2.3960    1.4879    1.0458 N   0  0  0  0  0  0  0  0  0  0  0  0
    2.0588    2.7558    0.4710 C   0  0  1  0  0  0  0  0  0  0  0  0
    0.7380    2.9283   -0.2307 C   0  0  0  0  0  0  0  0  0  0  0  0
    0.9635    3.5617    1.1185 C   0  0  0  0  0  0  0  0  0  0  0  0
    3.2138   -0.8200    1.0296 C   0  0  0  0  0  0  0  0  0  0  0  0
    3.5899   -0.8441    2.3823 C   0  0  0  0  0  0  0  0  0  0  0  0
    3.9765   -2.0369    2.9956 C   0  0  0  0  0  0  0  0  0  0  0  0
    3.9999   -3.2397    2.2744 C   0  0  0  0  0  0  0  0  0  0  0  0
    4.4572   -4.5358    2.9162 C   0  0  0  0  0  0  0  0  0  0  0  0
    4.0388   -4.6814    4.2957 N   0  0  0  0  0  0  0  0  0  0  0  0
    4.9127   -5.0376    5.2957 C   0  0  0  0  0  0  0  0  0  0  0  0
    6.0947   -5.2637    5.0701 O   0  0  0  0  0  0  0  0  0  0  0  0
    4.3272   -5.1222    6.6624 C   0  0  0  0  0  0  0  0  0  0  0  0
    2.8019   -4.3434    7.0438 S   0  0  0  0  0  0  0  0  0  0  0  0
    2.8565   -4.9132    8.6679 C   0  0  0  0  0  0  0  0  0  0  0  0
    3.9856   -5.6488    8.9107 C   0  0  0  0  0  0  0  0  0  0  0  0
    4.8507   -5.7766    7.7718 C   0  0  0  0  0  0  0  0  0  0  0  0
    6.1326   -6.5268    7.7880 C   0  0  1  0  0  0  0  0  0  0  0  0
    6.9912   -6.5631    9.0398 C   0  0  0  0  0  0  0  0  0  0  0  0
    6.2724   -7.8022    8.6009 C   0  0  0  0  0  0  0  0  0  0  0  0
    3.6294   -3.2122    0.9209 C   0  0  0  0  0  0  0  0  0  0  0  0
    3.2530   -2.0203    0.3044 C   0  0  0  0  0  0  0  0  0  0  0  0
    2.4118    1.4101    2.0543 H   0  0  0  0  0  0  0  0  0  0  0  0
    2.9079    3.3083    0.0493 H   0  0  0  0  0  0  0  0  0  0  0  0
    0.0871    2.0523   -0.2824 H   0  0  0  0  0  0  0  0  0  0  0  0
    0.7155    3.5660   -1.1181 H   0  0  0  0  0  0  0  0  0  0  0  0
    0.4503    3.1199    1.9785 H   0  0  0  0  0  0  0  0  0  0  0  0
    1.0951    4.6451    1.1827 H   0  0  0  0  0  0  0  0  0  0  0  0
    3.6162    0.0752    2.9736 H   0  0  0  0  0  0  0  0  0  0  0  0
    4.2669   -2.0358    4.0488 H   0  0  0  0  0  0  0  0  0  0  0  0
    5.5577   -4.5943    2.9290 H   0  0  0  0  0  0  0  0  0  0  0  0
    4.1067   -5.3883    2.3066 H   0  0  0  0  0  0  0  0  0  0  0  0
    3.0458   -4.6428    4.4959 H   0  0  0  0  0  0  0  0  0  0  0  0
    2.0596   -4.6589    9.3656 H   0  0  0  0  0  0  0  0  0  0  0  0
    4.2007   -6.0873    9.8862 H   0  0  0  0  0  0  0  0  0  0  0  0
    6.6683   -6.4855    6.8403 H   0  0  0  0  0  0  0  0  0  0  0  0
    6.6271   -6.0363    9.9268 H   0  0  0  0  0  0  0  0  0  0  0  0
    8.0746   -6.5054    8.9021 H   0  0  0  0  0  0  0  0  0  0  0  0
    5.4075   -8.1353    9.1824 H   0  0  0  0  0  0  0  0  0  0  0  0
    6.8509   -8.6172    8.1565 H   0  0  0  0  0  0  0  0  0  0  0  0
    3.6387   -4.1399    0.3411 H   0  0  0  0  0  0  0  0  0  0  0  0
    2.9776   -1.9909   -0.7514 H   0  0  0  0  0  0  0  0  0  0  0  0
  1  2  2  0
  2  3  1  0
  2  7  1  0
  3  4  1  0
  3 25  1  0
  4  5  1  0
  4  6  1  0
  4 26  1  6
  5  6  1  0
  5 27  1  0
  5 28  1  0
  6 29  1  0
  6 30  1  0
  7  8  2  0
  7 24  1  0
  8  9  1  0
  8 31  1  0
  9 10  2  0
  9 32  1  0
 10 11  1  0
 10 23  1  0
 11 12  1  0
 11 33  1  0
 11 34  1  0
 12 13  1  0
 12 35  1  0
 13 14  2  0
 13 15  1  0
 15 16  1  0
 15 19  2  0
 16 17  1  0
 17 18  2  0
 17 36  1  0
 18 19  1  0
 18 37  1  0
 19 20  1  0
 20 21  1  0
 20 22  1  0
 20 38  1  6
 21 22  1  0
 21 39  1  0
 21 40  1  0
 22 41  1  0
 22 42  1  0
 23 24  2  0
 23 43  1  0
 24 44  1  0
M  END

