
     RDKit          3D

 33 36  0  0  0  0  0  0  0  0999 V2000
    1.0930    0.2428    0.0945 C   0  0  0  0  0  0  0  0  0  0  0  0
    2.5747    0.0565    0.0396 C   0  0  0  0  0  0  0  0  0  0  0  0
    3.3974    1.0968    0.0847 N   0  0  0  0  0  0  0  0  0  0  0  0
    4.6484    0.5977    0.0160 N   0  0  0  0  0  0  0  0  0  0  0  0
    5.7898    1.4936    0.0407 C   0  0  0  0  0  0  0  0  0  0  0  0
    4.6577   -0.7485   -0.0737 C   0  0  0  0  0  0  0  0  0  0  0  0
    3.3257   -1.1627   -0.0621 C   0  0  0  0  0  0  0  0  0  0  0  0
    2.8287   -2.5197   -0.1357 C   0  0  0  0  0  0  0  0  0  0  0  0
    1.5672   -2.8397   -0.1165 N   0  0  0  0  0  0  0  0  0  0  0  0
    1.4357   -4.1866   -0.2015 N   0  0  0  0  0  0  0  0  0  0  0  0
    0.3944   -5.0950   -0.2281 C   0  0  0  0  0  0  0  0  0  0  0  0
   -1.0380   -4.7978   -0.1619 C   0  0  0  0  0  0  0  0  0  0  0  0
   -1.9465   -5.8747   -0.2031 C   0  0  0  0  0  0  0  0  0  0  0  0
   -3.3185   -5.6488   -0.1443 C   0  0  0  0  0  0  0  0  0  0  0  0
   -3.7852   -4.3376   -0.0436 C   0  0  0  0  0  0  0  0  0  0  0  0
   -5.1061   -4.1171    0.0130 F   0  0  0  0  0  0  0  0  0  0  0  0
   -2.9122   -3.2540   -0.0005 C   0  0  0  0  0  0  0  0  0  0  0  0
   -1.5367   -3.4864   -0.0598 C   0  0  0  0  0  0  0  0  0  0  0  0
    0.9221   -6.3058   -0.3245 N   0  0  0  0  0  0  0  0  0  0  0  0
    2.2914   -6.2257   -0.3634 N   0  0  0  0  0  0  0  0  0  0  0  0
    2.5752   -4.9549   -0.2888 C   0  0  0  0  0  0  0  0  0  0  0  0
    3.9701   -3.9034   -0.2637 S   0  0  0  0  0  0  0  0  0  0  0  0
    0.8614    1.3146    0.1582 H   0  0  0  0  0  0  0  0  0  0  0  0
    0.6590   -0.2713    0.9666 H   0  0  0  0  0  0  0  0  0  0  0  0
    0.6054   -0.1797   -0.7978 H   0  0  0  0  0  0  0  0  0  0  0  0
    5.3997    2.5143    0.1265 H   0  0  0  0  0  0  0  0  0  0  0  0
    6.3781    1.4056   -0.8857 H   0  0  0  0  0  0  0  0  0  0  0  0
    6.4389    1.2783    0.9034 H   0  0  0  0  0  0  0  0  0  0  0  0
    5.5853   -1.3151   -0.1376 H   0  0  0  0  0  0  0  0  0  0  0  0
   -1.5518   -6.8888   -0.2822 H   0  0  0  0  0  0  0  0  0  0  0  0
   -4.0350   -6.4719   -0.1751 H   0  0  0  0  0  0  0  0  0  0  0  0
   -3.3162   -2.2430    0.0787 H   0  0  0  0  0  0  0  0  0  0  0  0
   -0.8459   -2.6438   -0.0258 H   0  0  0  0  0  0  0  0  0  0  0  0
  1  2  1  0
  1 23  1  0
  1 24  1  0
  1 25  1  0
  2  3  2  0
  2  7  1  0
  3  4  1  0
  4  5  1  0
  4  6  1  0
  5 26  1  0
  5 27  1  0
  5 28  1  0
  6  7  2  0
  6 29  1  0
  7  8  1  0
  8  9  2  0
  8 22  1  0
  9 10  1  0
 10 11  1  0
 10 21  1  0
 11 12  1  0
 11 19  2  0
 12 13  2  0
 12 18  1  0
 13 14  1  0
 13 30  1  0
 14 15  2  0
 14 31  1  0
 15 16  1  0
 15 17  1  0
 17 18  2  0
 17 32  1  0
 18 33  1  0
 19 20  1  0
 20 21  2  0
 21 22  1  0
M  END

