
     RDKit          3D

 52 56  0  0  0  0  0  0  0  0999 V2000
   -0.6574   -0.6280    2.0500 O   0  0  0  0  0  0  0  0  0  0  0  0
    0.4633   -0.9903    1.3736 C   0  0  0  0  0  0  0  0  0  0  0  0
    0.9190   -2.3296    1.4458 C   0  0  0  0  0  0  0  0  0  0  0  0
    2.0544   -2.7121    0.7738 C   0  0  0  0  0  0  0  0  0  0  0  0
    2.7908   -1.7815   -0.0084 C   0  0  0  0  0  0  0  0  0  0  0  0
    3.9597   -2.1901   -0.7070 C   0  0  0  0  0  0  0  0  0  0  0  0
    4.6741   -1.2967   -1.4760 C   0  0  0  0  0  0  0  0  0  0  0  0
    4.2323    0.0427   -1.5717 C   0  0  0  0  0  0  0  0  0  0  0  0
    3.1016    0.4730   -0.9025 C   0  0  0  0  0  0  0  0  0  0  0  0
    2.3412   -0.4180   -0.0932 C   0  0  0  0  0  0  0  0  0  0  0  0
    1.1473   -0.0177    0.6234 C   0  0  0  0  0  0  0  0  0  0  0  0
    0.5630    1.3250    0.6244 C   0  0  0  0  0  0  0  0  0  0  0  0
    1.1016    2.3885    0.1400 N   0  0  0  0  0  0  0  0  0  0  0  0
    0.4002    3.5924    0.0863 C   0  0  0  0  0  0  0  0  0  0  0  0
   -0.9777    3.6348   -0.2200 C   0  0  0  0  0  0  0  0  0  0  0  0
   -1.6649    4.8392   -0.3447 C   0  0  0  0  0  0  0  0  0  0  0  0
   -0.9799    6.0496   -0.1842 C   0  0  0  0  0  0  0  0  0  0  0  0
    0.3850    6.0352    0.0865 C   0  0  0  0  0  0  0  0  0  0  0  0
    1.1003    4.8305    0.2369 C   0  0  0  0  0  0  0  0  0  0  0  0
    2.4697    4.9454    0.4754 N   0  0  0  0  0  0  0  0  0  0  0  0
    3.1767    4.1018    1.1642 C   0  0  0  0  0  0  0  0  0  0  0  0
    4.6072    4.2616    1.3271 C   0  0  0  0  0  0  0  0  0  0  0  0
    5.2482    5.3757    0.7292 C   0  0  0  0  0  0  0  0  0  0  0  0
    4.5873    6.2699    0.0100 O   0  0  0  0  0  0  0  0  0  0  0  0
    6.6492    5.5741    0.8960 C   0  0  0  0  0  0  0  0  0  0  0  0
    7.3927    4.6922    1.6349 C   0  0  0  0  0  0  0  0  0  0  0  0
    6.8017    3.5501    2.2553 C   0  0  0  0  0  0  0  0  0  0  0  0
    7.5874    2.6437    3.0142 C   0  0  0  0  0  0  0  0  0  0  0  0
    7.0216    1.5345    3.6098 C   0  0  0  0  0  0  0  0  0  0  0  0
    5.6376    1.2988    3.4549 C   0  0  0  0  0  0  0  0  0  0  0  0
    4.8475    2.1654    2.7216 C   0  0  0  0  0  0  0  0  0  0  0  0
    5.3935    3.3227    2.1002 C   0  0  0  0  0  0  0  0  0  0  0  0
   -1.0268   -1.3986    2.4999 H   0  0  0  0  0  0  0  0  0  0  0  0
    0.3567   -3.0516    2.0466 H   0  0  0  0  0  0  0  0  0  0  0  0
    2.4036   -3.7462    0.8349 H   0  0  0  0  0  0  0  0  0  0  0  0
    4.2802   -3.2322   -0.6229 H   0  0  0  0  0  0  0  0  0  0  0  0
    5.5720   -1.6186   -2.0090 H   0  0  0  0  0  0  0  0  0  0  0  0
    4.7933    0.7538   -2.1837 H   0  0  0  0  0  0  0  0  0  0  0  0
    2.7764    1.5077   -0.9795 H   0  0  0  0  0  0  0  0  0  0  0  0
   -0.4211    1.3826    1.1173 H   0  0  0  0  0  0  0  0  0  0  0  0
   -1.4998    2.6925   -0.4000 H   0  0  0  0  0  0  0  0  0  0  0  0
   -2.7304    4.8342   -0.5875 H   0  0  0  0  0  0  0  0  0  0  0  0
   -1.5053    7.0018   -0.2900 H   0  0  0  0  0  0  0  0  0  0  0  0
    0.9407    6.9690    0.1966 H   0  0  0  0  0  0  0  0  0  0  0  0
    2.6909    3.2578    1.6636 H   0  0  0  0  0  0  0  0  0  0  0  0
    3.6135    5.9798    0.0108 H   0  0  0  0  0  0  0  0  0  0  0  0
    7.0941    6.4489    0.4180 H   0  0  0  0  0  0  0  0  0  0  0  0
    8.4671    4.8551    1.7591 H   0  0  0  0  0  0  0  0  0  0  0  0
    8.6580    2.8423    3.1175 H   0  0  0  0  0  0  0  0  0  0  0  0
    7.6354    0.8426    4.1915 H   0  0  0  0  0  0  0  0  0  0  0  0
    5.1826    0.4181    3.9156 H   0  0  0  0  0  0  0  0  0  0  0  0
    3.7866    1.9372    2.6185 H   0  0  0  0  0  0  0  0  0  0  0  0
  1  2  1  0
  1 33  1  0
  2  3  2  0
  2 11  1  0
  3  4  1  0
  3 34  1  0
  4  5  2  0
  4 35  1  0
  5  6  1  0
  5 10  1  0
  6  7  2  0
  6 36  1  0
  7  8  1  0
  7 37  1  0
  8  9  2  0
  8 38  1  0
  9 10  1  0
  9 39  1  0
 10 11  2  0
 11 12  1  0
 12 13  2  0
 12 40  1  0
 13 14  1  0
 14 15  2  0
 14 19  1  0
 15 16  1  0
 15 41  1  0
 16 17  2  0
 16 42  1  0
 17 18  1  0
 17 43  1  0
 18 19  2  0
 18 44  1  0
 19 20  1  0
 20 21  2  0
 21 22  1  0
 21 45  1  0
 22 23  2  0
 22 32  1  0
 23 24  1  0
 23 25  1  0
 24 46  1  0
 25 26  2  0
 25 47  1  0
 26 27  1  0
 26 48  1  0
 27 28  1  0
 27 32  2  0
 28 29  2  0
 28 49  1  0
 29 30  1  0
 29 50  1  0
 30 31  2  0
 30 51  1  0
 31 32  1  0
 31 52  1  0
M  END

