
     RDKit          3D

 45 46  0  0  0  0  0  0  0  0999 V2000
    7.8685   -5.9466   -1.3784 C   0  0  0  0  0  0  0  0  0  0  0  0
    7.7115   -4.4380   -1.3716 C   0  0  0  0  0  0  0  0  0  0  0  0
    6.3785   -4.1279   -1.0023 O   0  0  0  0  0  0  0  0  0  0  0  0
    5.9905   -2.8135   -0.9050 C   0  0  0  0  0  0  0  0  0  0  0  0
    6.8016   -1.7122   -1.1838 C   0  0  0  0  0  0  0  0  0  0  0  0
    6.3028   -0.4133   -1.0547 C   0  0  0  0  0  0  0  0  0  0  0  0
    4.9817   -0.2102   -0.6395 C   0  0  0  0  0  0  0  0  0  0  0  0
    4.5722    1.0841   -0.5351 O   0  0  0  0  0  0  0  0  0  0  0  0
    3.2563    1.3543   -0.1105 C   0  0  0  0  0  0  0  0  0  0  0  0
    4.1551   -1.3077   -0.3517 C   0  0  0  0  0  0  0  0  0  0  0  0
    4.6532   -2.6110   -0.4841 C   0  0  0  0  0  0  0  0  0  0  0  0
    3.9130   -3.7756   -0.2332 N   0  0  0  0  0  0  0  0  0  0  0  0
    2.5990   -3.8799    0.1790 C   0  0  0  0  0  0  0  0  0  0  0  0
    1.9168   -2.9151    0.5015 O   0  0  0  0  0  0  0  0  0  0  0  0
    2.0913   -5.1739    0.2061 N   0  0  0  0  0  0  0  0  0  0  0  0
    0.8244   -5.3976    0.8900 C   0  0  0  0  0  0  0  0  0  0  0  0
   -0.1706   -6.1391   -0.0057 C   0  0  0  0  0  0  0  0  0  0  0  0
    0.4273   -7.4597   -0.5450 C   0  0  2  0  0  0  0  0  0  0  0  0
    0.5412   -8.5411    0.5372 C   0  0  0  0  0  0  0  0  0  0  0  0
    1.5637   -9.0872    0.8533 O   0  0  0  0  0  0  0  0  0  0  0  0
   -0.6204   -8.8822    1.1425 O   0  0  0  0  0  0  0  0  0  0  0  0
    1.7826   -7.1792   -1.2104 C   0  0  0  0  0  0  0  0  0  0  0  0
    2.7373   -6.3759   -0.3121 C   0  0  0  0  0  0  0  0  0  0  0  0
    8.8968   -6.2201   -1.6607 H   0  0  0  0  0  0  0  0  0  0  0  0
    7.1779   -6.4088   -2.1008 H   0  0  0  0  0  0  0  0  0  0  0  0
    7.6603   -6.3663   -0.3821 H   0  0  0  0  0  0  0  0  0  0  0  0
    7.9321   -4.0176   -2.3712 H   0  0  0  0  0  0  0  0  0  0  0  0
    8.4169   -3.9739   -0.6564 H   0  0  0  0  0  0  0  0  0  0  0  0
    7.8328   -1.8540   -1.5078 H   0  0  0  0  0  0  0  0  0  0  0  0
    6.9287    0.4542   -1.2700 H   0  0  0  0  0  0  0  0  0  0  0  0
    3.1505    2.4479   -0.0963 H   0  0  0  0  0  0  0  0  0  0  0  0
    3.0595    0.9622    0.9037 H   0  0  0  0  0  0  0  0  0  0  0  0
    2.5034    0.9310   -0.7999 H   0  0  0  0  0  0  0  0  0  0  0  0
    3.1300   -1.1913   -0.0146 H   0  0  0  0  0  0  0  0  0  0  0  0
    4.4711   -4.6158   -0.3149 H   0  0  0  0  0  0  0  0  0  0  0  0
    0.4304   -4.4170    1.1815 H   0  0  0  0  0  0  0  0  0  0  0  0
    1.0006   -5.9822    1.8157 H   0  0  0  0  0  0  0  0  0  0  0  0
   -0.4315   -5.4972   -0.8630 H   0  0  0  0  0  0  0  0  0  0  0  0
   -1.1067   -6.3106    0.5535 H   0  0  0  0  0  0  0  0  0  0  0  0
   -0.2627   -7.8717   -1.3052 H   0  0  0  0  0  0  0  0  0  0  0  0
   -1.3589   -8.3750    0.7765 H   0  0  0  0  0  0  0  0  0  0  0  0
    1.6003   -6.6071   -2.1352 H   0  0  0  0  0  0  0  0  0  0  0  0
    2.2678   -8.1259   -1.4903 H   0  0  0  0  0  0  0  0  0  0  0  0
    3.6123   -6.1045   -0.9162 H   0  0  0  0  0  0  0  0  0  0  0  0
    3.0851   -7.0180    0.5170 H   0  0  0  0  0  0  0  0  0  0  0  0
  1  2  1  0
  1 24  1  0
  1 25  1  0
  1 26  1  0
  2  3  1  0
  2 27  1  0
  2 28  1  0
  3  4  1  0
  4  5  2  0
  4 11  1  0
  5  6  1  0
  5 29  1  0
  6  7  2  0
  6 30  1  0
  7  8  1  0
  7 10  1  0
  8  9  1  0
  9 31  1  0
  9 32  1  0
  9 33  1  0
 10 11  2  0
 10 34  1  0
 11 12  1  0
 12 13  1  0
 12 35  1  0
 13 14  2  0
 13 15  1  0
 15 16  1  0
 15 23  1  0
 16 17  1  0
 16 36  1  0
 16 37  1  0
 17 18  1  0
 17 38  1  0
 17 39  1  0
 18 19  1  0
 18 22  1  0
 18 40  1  6
 19 20  2  0
 19 21  1  0
 21 41  1  0
 22 23  1  0
 22 42  1  0
 22 43  1  0
 23 44  1  0
 23 45  1  0
M  END

