
     RDKit          3D

 45 47  0  0  0  0  0  0  0  0999 V2000
    0.8835   -0.0921    0.3791 C   0  0  0  0  0  0  0  0  0  0  0  0
    2.4010   -0.0429    0.2107 C   0  0  1  0  0  0  0  0  0  0  0  0
    2.8167   -0.1049   -1.2573 C   0  0  0  0  0  0  0  0  0  0  0  0
    3.0462    1.1652    0.9679 C   0  0  0  0  0  0  0  0  0  0  0  0
    3.8840    0.4985    2.0313 C   0  0  0  0  0  0  0  0  0  0  0  0
    4.6934    1.0242    3.0420 C   0  0  0  0  0  0  0  0  0  0  0  0
    5.3625    0.1347    3.8859 C   0  0  0  0  0  0  0  0  0  0  0  0
    5.2281   -1.2543    3.7250 C   0  0  0  0  0  0  0  0  0  0  0  0
    4.4178   -1.7901    2.7122 C   0  0  0  0  0  0  0  0  0  0  0  0
    4.2180   -3.1099    2.4699 O   0  0  0  0  0  0  0  0  0  0  0  0
    4.8762   -4.0709    3.2732 C   0  0  0  0  0  0  0  0  0  0  0  0
    4.4876   -5.4534    2.7732 C   0  0  0  0  0  0  0  0  0  0  0  0
    5.1098   -6.6049    3.5981 C   0  0  1  0  0  0  0  0  0  0  0  0
    4.6000   -7.9853    3.1397 C   0  0  0  0  0  0  0  0  0  0  0  0
    5.2399   -8.4391    1.8195 C   0  0  0  0  0  0  0  0  0  0  0  0
    6.7698   -8.3730    1.9068 C   0  0  0  0  0  0  0  0  0  0  0  0
    7.2256   -6.9858    2.3658 C   0  0  0  0  0  0  0  0  0  0  0  0
    6.5759   -6.6456    3.6273 N   0  0  0  0  0  0  0  0  0  0  0  0
    3.7500   -0.8785    1.8709 C   0  0  0  0  0  0  0  0  0  0  0  0
    2.9370   -1.2456    0.8535 O   0  0  0  0  0  0  0  0  0  0  0  0
    0.4103    0.7772   -0.1051 H   0  0  0  0  0  0  0  0  0  0  0  0
    0.6145   -0.0842    1.4466 H   0  0  0  0  0  0  0  0  0  0  0  0
    0.4756   -1.0095   -0.0719 H   0  0  0  0  0  0  0  0  0  0  0  0
    2.4270    0.7659   -1.8086 H   0  0  0  0  0  0  0  0  0  0  0  0
    2.4283   -1.0202   -1.7295 H   0  0  0  0  0  0  0  0  0  0  0  0
    3.9138   -0.1104   -1.3466 H   0  0  0  0  0  0  0  0  0  0  0  0
    2.2765    1.8273    1.3986 H   0  0  0  0  0  0  0  0  0  0  0  0
    3.6568    1.7855    0.2901 H   0  0  0  0  0  0  0  0  0  0  0  0
    4.8012    2.1040    3.1705 H   0  0  0  0  0  0  0  0  0  0  0  0
    6.0017    0.5154    4.6861 H   0  0  0  0  0  0  0  0  0  0  0  0
    5.7632   -1.9208    4.4018 H   0  0  0  0  0  0  0  0  0  0  0  0
    4.5863   -3.9461    4.3358 H   0  0  0  0  0  0  0  0  0  0  0  0
    5.9721   -3.9233    3.2147 H   0  0  0  0  0  0  0  0  0  0  0  0
    4.7633   -5.5263    1.7090 H   0  0  0  0  0  0  0  0  0  0  0  0
    3.3885   -5.5347    2.8141 H   0  0  0  0  0  0  0  0  0  0  0  0
    4.7826   -6.4631    4.6447 H   0  0  0  0  0  0  0  0  0  0  0  0
    3.5010   -7.9689    3.0543 H   0  0  0  0  0  0  0  0  0  0  0  0
    4.8534   -8.7153    3.9267 H   0  0  0  0  0  0  0  0  0  0  0  0
    4.8916   -7.7983    0.9897 H   0  0  0  0  0  0  0  0  0  0  0  0
    4.9103   -9.4624    1.5735 H   0  0  0  0  0  0  0  0  0  0  0  0
    7.2294   -8.6195    0.9350 H   0  0  0  0  0  0  0  0  0  0  0  0
    7.1277   -9.1188    2.6380 H   0  0  0  0  0  0  0  0  0  0  0  0
    7.0267   -6.2543    1.5494 H   0  0  0  0  0  0  0  0  0  0  0  0
    8.3161   -6.9797    2.5280 H   0  0  0  0  0  0  0  0  0  0  0  0
    6.9689   -5.7996    4.0315 H   0  0  0  0  0  0  0  0  0  0  0  0
  2  1  1  6
  1 21  1  0
  1 22  1  0
  1 23  1  0
  2  3  1  0
  2  4  1  0
  2 20  1  0
  3 24  1  0
  3 25  1  0
  3 26  1  0
  4  5  1  0
  4 27  1  0
  4 28  1  0
  5  6  2  0
  5 19  1  0
  6  7  1  0
  6 29  1  0
  7  8  2  0
  7 30  1  0
  8  9  1  0
  8 31  1  0
  9 10  1  0
  9 19  2  0
 10 11  1  0
 11 12  1  0
 11 32  1  0
 11 33  1  0
 12 13  1  0
 12 34  1  0
 12 35  1  0
 13 14  1  0
 13 18  1  0
 13 36  1  1
 14 15  1  0
 14 37  1  0
 14 38  1  0
 15 16  1  0
 15 39  1  0
 15 40  1  0
 16 17  1  0
 16 41  1  0
 16 42  1  0
 17 18  1  0
 17 43  1  0
 17 44  1  0
 18 45  1  0
 19 20  1  0
M  END

