
     RDKit          3D

 63 67  0  0  0  0  0  0  0  0999 V2000
    4.9754    2.7417    4.8505 C   0  0  0  0  0  0  0  0  0  0  0  0
    3.8748    2.0022    4.0894 C   0  0  0  0  0  0  0  0  0  0  0  0
    3.6260    2.5264    2.6597 C   0  0  0  0  0  0  0  0  0  0  0  0
    4.7855    2.3306    1.7065 C   0  0  0  0  0  0  0  0  0  0  0  0
    5.0672    1.0686    1.1574 C   0  0  0  0  0  0  0  0  0  0  0  0
    6.1388    0.8540    0.2935 C   0  0  0  0  0  0  0  0  0  0  0  0
    6.9873    1.9240   -0.0602 C   0  0  0  0  0  0  0  0  0  0  0  0
    8.0862    1.7542   -0.9363 N   0  0  0  0  0  0  0  0  0  0  0  0
    8.8862    2.9003   -1.3703 C   0  0  0  0  0  0  0  0  0  0  0  0
    9.8104    2.3637   -2.4802 C   0  0  2  0  0  0  0  0  0  0  0  0
    9.2559    2.7151   -3.8756 C   0  0  0  0  0  0  0  0  0  0  0  0
    8.1388    3.1927   -4.0057 O   0  0  0  0  0  0  0  0  0  0  0  0
   10.0598    2.4498   -4.9586 N   0  0  0  0  0  0  0  0  0  0  0  0
   11.4462    1.9924   -4.9273 C   0  0  0  0  0  0  0  0  0  0  0  0
   11.6443    0.8312   -5.9198 C   0  0  0  0  0  0  0  0  0  0  0  0
   11.1870    1.1306   -7.2681 N   0  0  0  0  0  0  0  0  0  0  0  0
   12.0875    1.8962   -8.1085 C   0  0  0  0  0  0  0  0  0  0  0  0
   12.0257    1.5350   -9.5828 C   0  0  0  0  0  0  0  0  0  0  0  0
   11.4653    0.3608  -10.0329 C   0  0  0  0  0  0  0  0  0  0  0  0
   11.4436    0.0165  -11.4317 C   0  0  0  0  0  0  0  0  0  0  0  0
   10.9909   -0.9702  -11.9788 O   0  0  0  0  0  0  0  0  0  0  0  0
   12.0739    1.0422  -12.2358 N   0  0  0  0  0  0  0  0  0  0  0  0
   12.1923    0.9645  -13.6193 C   0  0  0  0  0  0  0  0  0  0  0  0
   12.8179    2.0340  -14.1557 C   0  0  0  0  0  0  0  0  0  0  0  0
   13.2919    3.2014  -12.9344 S   0  0  0  0  0  0  0  0  0  0  0  0
   12.6073    2.1791  -11.6728 C   0  0  0  0  0  0  0  0  0  0  0  0
   12.6045    2.4616  -10.4060 N   0  0  0  0  0  0  0  0  0  0  0  0
    9.7999    1.5976   -7.2550 C   0  0  0  0  0  0  0  0  0  0  0  0
    9.5727    2.7777   -6.3009 C   0  0  0  0  0  0  0  0  0  0  0  0
    9.8354    0.8436   -2.2245 C   0  0  0  0  0  0  0  0  0  0  0  0
    8.5776    0.5511   -1.4098 C   0  0  0  0  0  0  0  0  0  0  0  0
    8.1321   -0.5604   -1.2095 O   0  0  0  0  0  0  0  0  0  0  0  0
    6.7153    3.1941    0.4812 C   0  0  0  0  0  0  0  0  0  0  0  0
    5.6344    3.3841    1.3455 C   0  0  0  0  0  0  0  0  0  0  0  0
    5.1029    2.3312    5.8650 H   0  0  0  0  0  0  0  0  0  0  0  0
    4.7390    3.8147    4.9538 H   0  0  0  0  0  0  0  0  0  0  0  0
    5.9461    2.6648    4.3349 H   0  0  0  0  0  0  0  0  0  0  0  0
    2.9277    2.0720    4.6534 H   0  0  0  0  0  0  0  0  0  0  0  0
    4.1192    0.9263    4.0392 H   0  0  0  0  0  0  0  0  0  0  0  0
    3.3712    3.5992    2.7096 H   0  0  0  0  0  0  0  0  0  0  0  0
    2.7360    2.0164    2.2523 H   0  0  0  0  0  0  0  0  0  0  0  0
    4.4224    0.2196    1.4052 H   0  0  0  0  0  0  0  0  0  0  0  0
    6.3313   -0.1345   -0.1147 H   0  0  0  0  0  0  0  0  0  0  0  0
    9.4725    3.3035   -0.5251 H   0  0  0  0  0  0  0  0  0  0  0  0
    8.2350    3.6919   -1.7632 H   0  0  0  0  0  0  0  0  0  0  0  0
   10.8110    2.8075   -2.3745 H   0  0  0  0  0  0  0  0  0  0  0  0
   11.7265    1.6650   -3.9195 H   0  0  0  0  0  0  0  0  0  0  0  0
   12.1178    2.8323   -5.1959 H   0  0  0  0  0  0  0  0  0  0  0  0
   11.0769   -0.0411   -5.5472 H   0  0  0  0  0  0  0  0  0  0  0  0
   12.7066    0.5416   -5.9460 H   0  0  0  0  0  0  0  0  0  0  0  0
   13.1258    1.7118   -7.7807 H   0  0  0  0  0  0  0  0  0  0  0  0
   11.9572    2.9966   -8.0474 H   0  0  0  0  0  0  0  0  0  0  0  0
   11.0246   -0.3435   -9.3290 H   0  0  0  0  0  0  0  0  0  0  0  0
   11.7859    0.0842  -14.1131 H   0  0  0  0  0  0  0  0  0  0  0  0
   13.0328    2.2107  -15.2076 H   0  0  0  0  0  0  0  0  0  0  0  0
    9.1517    0.7595   -6.9434 H   0  0  0  0  0  0  0  0  0  0  0  0
    9.4987    1.8753   -8.2766 H   0  0  0  0  0  0  0  0  0  0  0  0
    8.5083    3.0291   -6.2187 H   0  0  0  0  0  0  0  0  0  0  0  0
   10.1016    3.6778   -6.6695 H   0  0  0  0  0  0  0  0  0  0  0  0
   10.7068    0.5356   -1.6221 H   0  0  0  0  0  0  0  0  0  0  0  0
    9.8296    0.2205   -3.1297 H   0  0  0  0  0  0  0  0  0  0  0  0
    7.3403    4.0517    0.2347 H   0  0  0  0  0  0  0  0  0  0  0  0
    5.4494    4.3862    1.7432 H   0  0  0  0  0  0  0  0  0  0  0  0
  1  2  1  0
  1 35  1  0
  1 36  1  0
  1 37  1  0
  2  3  1  0
  2 38  1  0
  2 39  1  0
  3  4  1  0
  3 40  1  0
  3 41  1  0
  4  5  2  0
  4 34  1  0
  5  6  1  0
  5 42  1  0
  6  7  2  0
  6 43  1  0
  7  8  1  0
  7 33  1  0
  8  9  1  0
  8 31  1  0
  9 10  1  0
  9 44  1  0
  9 45  1  0
 10 11  1  0
 10 30  1  0
 10 46  1  1
 11 12  2  0
 11 13  1  0
 13 14  1  0
 13 29  1  0
 14 15  1  0
 14 47  1  0
 14 48  1  0
 15 16  1  0
 15 49  1  0
 15 50  1  0
 16 17  1  0
 16 28  1  0
 17 18  1  0
 17 51  1  0
 17 52  1  0
 18 19  2  0
 18 27  1  0
 19 20  1  0
 19 53  1  0
 20 21  2  0
 20 22  1  0
 22 23  1  0
 22 26  1  0
 23 24  2  0
 23 54  1  0
 24 25  1  0
 24 55  1  0
 25 26  1  0
 26 27  2  0
 28 29  1  0
 28 56  1  0
 28 57  1  0
 29 58  1  0
 29 59  1  0
 30 31  1  0
 30 60  1  0
 30 61  1  0
 31 32  2  0
 33 34  2  0
 33 62  1  0
 34 63  1  0
M  END

