
     RDKit          3D

 43 44  0  0  0  0  0  0  0  0999 V2000
    0.6314    1.0508    0.0325 C   0  0  0  0  0  0  0  0  0  0  0  0
    1.7743    0.3307    0.7520 C   0  0  0  0  0  0  0  0  0  0  0  0
    2.7602   -0.4050   -0.1793 C   0  0  1  0  0  0  0  0  0  0  0  0
    4.0014   -0.9285    0.5698 C   0  0  0  0  0  0  0  0  0  0  0  0
    3.7078   -2.1578    1.4308 C   0  0  0  0  0  0  0  0  0  0  0  0
    3.0762   -3.2250    0.6352 N   0  0  0  0  0  0  0  0  0  0  0  0
    3.0956   -4.4962    1.1870 C   0  0  0  0  0  0  0  0  0  0  0  0
    1.6190   -5.4118    1.4671 S   0  0  0  0  0  0  0  0  0  0  0  0
    2.5233   -6.7316    2.2085 C   0  0  0  0  0  0  0  0  0  0  0  0
    1.8999   -7.9147    2.6469 C   0  0  0  0  0  0  0  0  0  0  0  0
    1.4117   -8.9029    3.0299 N   0  0  0  0  0  0  0  0  0  0  0  0
    3.8888   -6.4562    2.2442 C   0  0  0  0  0  0  0  0  0  0  0  0
    4.8738   -7.2850    2.7103 N   0  0  0  0  0  0  0  0  0  0  0  0
    4.2036   -5.1920    1.6479 C   0  0  0  0  0  0  0  0  0  0  0  0
    5.5018   -4.7577    1.6051 O   0  0  0  0  0  0  0  0  0  0  0  0
    6.1214   -4.6614    0.2951 C   0  0  1  0  0  0  0  0  0  0  0  0
    7.4298   -3.9156    0.5041 C   0  0  0  0  0  0  0  0  0  0  0  0
    6.3110   -6.0407   -0.3262 C   0  0  0  0  0  0  0  0  0  0  0  0
    1.8673   -2.8042   -0.0721 C   0  0  0  0  0  0  0  0  0  0  0  0
    2.1382   -1.5836   -0.9550 C   0  0  0  0  0  0  0  0  0  0  0  0
    0.0117    1.6180    0.7449 H   0  0  0  0  0  0  0  0  0  0  0  0
   -0.0382    0.3515   -0.4934 H   0  0  0  0  0  0  0  0  0  0  0  0
    1.0158    1.7653   -0.7149 H   0  0  0  0  0  0  0  0  0  0  0  0
    1.3530   -0.3658    1.4976 H   0  0  0  0  0  0  0  0  0  0  0  0
    2.3500    1.0712    1.3352 H   0  0  0  0  0  0  0  0  0  0  0  0
    3.1064    0.3363   -0.9221 H   0  0  0  0  0  0  0  0  0  0  0  0
    4.4274   -0.1382    1.2105 H   0  0  0  0  0  0  0  0  0  0  0  0
    4.7787   -1.1958   -0.1667 H   0  0  0  0  0  0  0  0  0  0  0  0
    3.0479   -1.8888    2.2818 H   0  0  0  0  0  0  0  0  0  0  0  0
    4.6379   -2.5519    1.8609 H   0  0  0  0  0  0  0  0  0  0  0  0
    4.6058   -8.0511    3.3164 H   0  0  0  0  0  0  0  0  0  0  0  0
    5.7586   -6.8374    2.9200 H   0  0  0  0  0  0  0  0  0  0  0  0
    5.4522   -4.0624   -0.3477 H   0  0  0  0  0  0  0  0  0  0  0  0
    8.0891   -4.4782    1.1844 H   0  0  0  0  0  0  0  0  0  0  0  0
    7.2520   -2.9223    0.9431 H   0  0  0  0  0  0  0  0  0  0  0  0
    7.9545   -3.7826   -0.4545 H   0  0  0  0  0  0  0  0  0  0  0  0
    6.9827   -6.6606    0.2890 H   0  0  0  0  0  0  0  0  0  0  0  0
    6.7512   -5.9464   -1.3317 H   0  0  0  0  0  0  0  0  0  0  0  0
    5.3512   -6.5689   -0.4268 H   0  0  0  0  0  0  0  0  0  0  0  0
    1.0498   -2.5855    0.6490 H   0  0  0  0  0  0  0  0  0  0  0  0
    1.5220   -3.6425   -0.6961 H   0  0  0  0  0  0  0  0  0  0  0  0
    1.1996   -1.2851   -1.4482 H   0  0  0  0  0  0  0  0  0  0  0  0
    2.8324   -1.8861   -1.7573 H   0  0  0  0  0  0  0  0  0  0  0  0
  1  2  1  0
  1 21  1  0
  1 22  1  0
  1 23  1  0
  2  3  1  0
  2 24  1  0
  2 25  1  0
  3  4  1  0
  3 20  1  0
  3 26  1  6
  4  5  1  0
  4 27  1  0
  4 28  1  0
  5  6  1  0
  5 29  1  0
  5 30  1  0
  6  7  1  0
  6 19  1  0
  7  8  1  0
  7 14  2  0
  8  9  1  0
  9 10  1  0
  9 12  2  0
 10 11  3  0
 12 13  1  0
 12 14  1  0
 13 31  1  0
 13 32  1  0
 14 15  1  0
 15 16  1  0
 16 17  1  0
 16 18  1  0
 16 33  1  6
 17 34  1  0
 17 35  1  0
 17 36  1  0
 18 37  1  0
 18 38  1  0
 18 39  1  0
 19 20  1  0
 19 40  1  0
 19 41  1  0
 20 42  1  0
 20 43  1  0
M  END

