
     RDKit          3D

 44 45  0  0  0  0  0  0  0  0999 V2000
    0.0998    0.7317   -0.1209 C   0  0  0  0  0  0  0  0  0  0  0  0
    1.5691    0.3112   -0.2105 C   0  0  0  0  0  0  0  0  0  0  0  0
    2.4506    0.8249    0.9503 C   0  0  1  0  0  0  0  0  0  0  0  0
    2.1669    0.1413    2.2866 C   0  0  0  0  0  0  0  0  0  0  0  0
    2.8400    0.6484    3.3685 N   0  0  0  0  0  0  0  0  0  0  0  0
    1.3176   -0.8266    2.3394 N   0  0  0  0  0  0  0  0  0  0  0  0
    1.2166   -1.3163    3.6593 O   0  0  0  0  0  0  0  0  0  0  0  0
    3.9037    0.8143    0.7461 N   0  0  0  0  0  0  0  0  0  0  0  0
    4.5741   -0.4717    0.5556 C   0  0  0  0  0  0  0  0  0  0  0  0
    4.8697   -0.7946   -0.9214 C   0  0  0  0  0  0  0  0  0  0  0  0
    5.5611    0.2951   -1.6162 N   0  0  0  0  0  0  0  0  0  0  0  0
    6.9974    0.3596   -1.3964 C   0  0  0  0  0  0  0  0  0  0  0  0
    7.7659   -0.7433   -2.1108 C   0  0  0  0  0  0  0  0  0  0  0  0
    8.9165   -1.3024   -1.5386 C   0  0  0  0  0  0  0  0  0  0  0  0
    9.6539   -2.2722   -2.2244 C   0  0  0  0  0  0  0  0  0  0  0  0
    9.2518   -2.7066   -3.4896 C   0  0  0  0  0  0  0  0  0  0  0  0
    8.0986   -2.1507   -4.0520 C   0  0  0  0  0  0  0  0  0  0  0  0
    7.5275   -2.7358   -5.7802 Br  0  0  0  0  0  0  0  0  0  0  0  0
    7.3563   -1.1798   -3.3800 C   0  0  0  0  0  0  0  0  0  0  0  0
    4.8304    1.5514   -1.4678 C   0  0  0  0  0  0  0  0  0  0  0  0
    4.5272    1.9029    0.0019 C   0  0  0  0  0  0  0  0  0  0  0  0
   -0.4576    0.3950   -1.0097 H   0  0  0  0  0  0  0  0  0  0  0  0
    0.0006    1.8297   -0.0674 H   0  0  0  0  0  0  0  0  0  0  0  0
   -0.3818    0.3005    0.7671 H   0  0  0  0  0  0  0  0  0  0  0  0
    1.9956    0.7078   -1.1452 H   0  0  0  0  0  0  0  0  0  0  0  0
    1.6385   -0.7867   -0.2661 H   0  0  0  0  0  0  0  0  0  0  0  0
    2.1927    1.8891    1.1072 H   0  0  0  0  0  0  0  0  0  0  0  0
    3.7312    1.0745    3.1354 H   0  0  0  0  0  0  0  0  0  0  0  0
    2.8173    0.0706    4.2017 H   0  0  0  0  0  0  0  0  0  0  0  0
    0.5761   -2.0315    3.5697 H   0  0  0  0  0  0  0  0  0  0  0  0
    3.9590   -1.2697    0.9999 H   0  0  0  0  0  0  0  0  0  0  0  0
    5.5286   -0.4623    1.1185 H   0  0  0  0  0  0  0  0  0  0  0  0
    3.9223   -0.9927   -1.4513 H   0  0  0  0  0  0  0  0  0  0  0  0
    5.4763   -1.7114   -0.9961 H   0  0  0  0  0  0  0  0  0  0  0  0
    7.2977    0.3532   -0.3263 H   0  0  0  0  0  0  0  0  0  0  0  0
    7.3456    1.3300   -1.7933 H   0  0  0  0  0  0  0  0  0  0  0  0
    9.2390   -0.9769   -0.5454 H   0  0  0  0  0  0  0  0  0  0  0  0
   10.5491   -2.7022   -1.7679 H   0  0  0  0  0  0  0  0  0  0  0  0
    9.8186   -3.4668   -4.0292 H   0  0  0  0  0  0  0  0  0  0  0  0
    6.4510   -0.7581   -3.8185 H   0  0  0  0  0  0  0  0  0  0  0  0
    3.8828    1.4621   -2.0282 H   0  0  0  0  0  0  0  0  0  0  0  0
    5.4075    2.3638   -1.9402 H   0  0  0  0  0  0  0  0  0  0  0  0
    3.8819    2.7947    0.0555 H   0  0  0  0  0  0  0  0  0  0  0  0
    5.4812    2.1748    0.4987 H   0  0  0  0  0  0  0  0  0  0  0  0
  1  2  1  0
  1 22  1  0
  1 23  1  0
  1 24  1  0
  2  3  1  0
  2 25  1  0
  2 26  1  0
  3  4  1  0
  3  8  1  0
  3 27  1  1
  4  5  1  0
  4  6  2  0
  5 28  1  0
  5 29  1  0
  6  7  1  0
  7 30  1  0
  8  9  1  0
  8 21  1  0
  9 10  1  0
  9 31  1  0
  9 32  1  0
 10 11  1  0
 10 33  1  0
 10 34  1  0
 11 12  1  0
 11 20  1  0
 12 13  1  0
 12 35  1  0
 12 36  1  0
 13 14  2  0
 13 19  1  0
 14 15  1  0
 14 37  1  0
 15 16  2  0
 15 38  1  0
 16 17  1  0
 16 39  1  0
 17 18  1  0
 17 19  2  0
 19 40  1  0
 20 21  1  0
 20 41  1  0
 20 42  1  0
 21 43  1  0
 21 44  1  0
M  END

