
     RDKit          3D

 63 66  0  0  0  0  0  0  0  0999 V2000
    2.4787    0.6018   -0.2854 C   0  0  0  0  0  0  0  0  0  0  0  0
    2.2480   -0.7058    0.4697 C   0  0  0  0  0  0  0  0  0  0  0  0
    3.2984   -1.6990    0.2538 N   0  0  0  0  0  0  0  0  0  0  0  0
    4.5486   -1.6994    0.8291 C   0  0  0  0  0  0  0  0  0  0  0  0
    4.8454   -0.6812    1.6375 O   0  0  0  0  0  0  0  0  0  0  0  0
    6.0174   -0.5294    2.3754 C   0  0  0  0  0  0  0  0  0  0  0  0
    6.0343    0.6057    3.1946 C   0  0  0  0  0  0  0  0  0  0  0  0
    7.1743    0.8316    3.9605 C   0  0  0  0  0  0  0  0  0  0  0  0
    8.2662   -0.0399    3.9227 C   0  0  0  0  0  0  0  0  0  0  0  0
    8.2512   -1.1775    3.0837 C   0  0  0  0  0  0  0  0  0  0  0  0
    9.3432   -2.0450    2.9870 N   0  0  0  0  0  0  0  0  0  0  0  0
    9.1110   -3.4759    2.7655 C   0  0  0  0  0  0  0  0  0  0  0  0
   10.3624   -4.1585    2.1978 C   0  0  0  0  0  0  0  0  0  0  0  0
   11.5659   -3.9285    2.9841 N   0  0  0  0  0  0  0  0  0  0  0  0
   11.6876   -4.7307    4.1872 C   0  0  0  0  0  0  0  0  0  0  0  0
   11.7643   -2.4997    3.1617 C   0  0  0  0  0  0  0  0  0  0  0  0
   10.5521   -1.7575    3.7504 C   0  0  0  0  0  0  0  0  0  0  0  0
    7.0894   -1.4112    2.3053 C   0  0  0  0  0  0  0  0  0  0  0  0
    5.2412   -2.7485    0.4696 N   0  0  0  0  0  0  0  0  0  0  0  0
    4.4336   -3.4786   -0.3682 N   0  0  0  0  0  0  0  0  0  0  0  0
    3.2907   -2.8577   -0.4915 C   0  0  0  0  0  0  0  0  0  0  0  0
    2.1605   -3.3633   -1.3549 C   0  0  1  0  0  0  0  0  0  0  0  0
    1.2203   -3.2889   -0.7824 H   0  0  0  0  0  0  0  0  0  0  0  0
    2.0162   -2.5722   -2.6656 C   0  0  0  0  0  0  0  0  0  0  0  0
    2.4150   -4.7819   -1.6233 N   0  0  0  0  0  0  0  0  0  0  0  0
    1.2950   -5.9504   -1.1790 S   0  0  1  0  0  0  0  0  0  0  0  0
    2.0698   -7.0903   -0.6889 O   0  0  0  0  0  0  0  0  0  0  0  0
    0.2376   -5.3168   -0.3796 O   0  0  0  0  0  0  0  0  0  0  0  0
    0.5399   -6.4480   -2.7324 C   0  0  0  0  0  0  0  0  0  0  0  0
    1.2278   -7.3298   -3.5723 C   0  0  0  0  0  0  0  0  0  0  0  0
    0.6473   -7.7229   -4.7772 C   0  0  0  0  0  0  0  0  0  0  0  0
   -0.6196   -7.2348   -5.1220 C   0  0  0  0  0  0  0  0  0  0  0  0
   -1.3464   -7.7273   -6.6299 Cl  0  0  0  0  0  0  0  0  0  0  0  0
   -1.3143   -6.3665   -4.2741 C   0  0  0  0  0  0  0  0  0  0  0  0
   -0.7296   -5.9730   -3.0681 C   0  0  0  0  0  0  0  0  0  0  0  0
    1.6573    1.3043   -0.0747 H   0  0  0  0  0  0  0  0  0  0  0  0
    2.5201    0.4389   -1.3732 H   0  0  0  0  0  0  0  0  0  0  0  0
    3.4211    1.0730    0.0298 H   0  0  0  0  0  0  0  0  0  0  0  0
    1.2951   -1.1703    0.1773 H   0  0  0  0  0  0  0  0  0  0  0  0
    2.1932   -0.5141    1.5522 H   0  0  0  0  0  0  0  0  0  0  0  0
    5.1713    1.2720    3.2239 H   0  0  0  0  0  0  0  0  0  0  0  0
    7.2137    1.7024    4.6202 H   0  0  0  0  0  0  0  0  0  0  0  0
    9.1205    0.1694    4.5637 H   0  0  0  0  0  0  0  0  0  0  0  0
    8.2852   -3.6214    2.0593 H   0  0  0  0  0  0  0  0  0  0  0  0
    8.8058   -3.9642    3.7160 H   0  0  0  0  0  0  0  0  0  0  0  0
   10.5366   -3.7704    1.1779 H   0  0  0  0  0  0  0  0  0  0  0  0
   10.1801   -5.2417    2.1104 H   0  0  0  0  0  0  0  0  0  0  0  0
   11.6292   -5.7995    3.9242 H   0  0  0  0  0  0  0  0  0  0  0  0
   10.9210   -4.5423    4.9709 H   0  0  0  0  0  0  0  0  0  0  0  0
   12.6743   -4.5571    4.6470 H   0  0  0  0  0  0  0  0  0  0  0  0
   11.9858   -2.0580    2.1731 H   0  0  0  0  0  0  0  0  0  0  0  0
   12.6435   -2.3254    3.8032 H   0  0  0  0  0  0  0  0  0  0  0  0
   10.7615   -0.6793    3.7030 H   0  0  0  0  0  0  0  0  0  0  0  0
   10.4226   -2.0142    4.8249 H   0  0  0  0  0  0  0  0  0  0  0  0
    7.0158   -2.2566    1.6288 H   0  0  0  0  0  0  0  0  0  0  0  0
    1.8028   -1.5089   -2.4749 H   0  0  0  0  0  0  0  0  0  0  0  0
    1.1893   -2.9858   -3.2620 H   0  0  0  0  0  0  0  0  0  0  0  0
    2.9411   -2.6439   -3.2573 H   0  0  0  0  0  0  0  0  0  0  0  0
    3.3606   -5.0747   -1.3549 H   0  0  0  0  0  0  0  0  0  0  0  0
    2.2057   -7.7140   -3.2763 H   0  0  0  0  0  0  0  0  0  0  0  0
    1.1650   -8.4101   -5.4482 H   0  0  0  0  0  0  0  0  0  0  0  0
   -2.3065   -6.0104   -4.5556 H   0  0  0  0  0  0  0  0  0  0  0  0
   -1.2580   -5.3120   -2.3791 H   0  0  0  0  0  0  0  0  0  0  0  0
  1  2  1  0
  1 36  1  0
  1 37  1  0
  1 38  1  0
  2  3  1  0
  2 39  1  0
  2 40  1  0
  3  4  1  0
  3 21  1  0
  4  5  1  0
  4 19  2  0
  5  6  1  0
  6  7  2  0
  6 18  1  0
  7  8  1  0
  7 41  1  0
  8  9  2  0
  8 42  1  0
  9 10  1  0
  9 43  1  0
 10 11  1  0
 10 18  2  0
 11 12  1  0
 11 17  1  0
 12 13  1  0
 12 44  1  0
 12 45  1  0
 13 14  1  0
 13 46  1  0
 13 47  1  0
 14 15  1  0
 14 16  1  0
 15 48  1  0
 15 49  1  0
 15 50  1  0
 16 17  1  0
 16 51  1  0
 16 52  1  0
 17 53  1  0
 17 54  1  0
 18 55  1  0
 19 20  1  0
 20 21  2  0
 21 22  1  0
 22 23  1  1
 22 24  1  0
 22 25  1  0
 24 56  1  0
 24 57  1  0
 24 58  1  0
 26 25  1  6
 25 59  1  0
 26 27  2  0
 26 28  2  0
 26 29  1  0
 29 30  2  0
 29 35  1  0
 30 31  1  0
 30 60  1  0
 31 32  2  0
 31 61  1  0
 32 33  1  0
 32 34  1  0
 34 35  2  0
 34 62  1  0
 35 63  1  0
M  END

