
     RDKit          3D

 37 38  0  0  0  0  0  0  0  0999 V2000
    1.1102   -0.0967   -0.2490 C   0  0  0  0  0  0  0  0  0  0  0  0
    2.6272   -0.0462   -0.0089 C   0  0  1  0  0  0  0  0  0  0  0  0
    3.2365    0.2017   -1.3127 N   0  0  0  0  0  0  0  0  0  0  0  0
    4.6678    0.3349   -1.4917 C   0  0  0  0  0  0  0  0  0  0  0  0
    4.9781    0.4103   -2.9968 C   0  0  1  0  0  0  0  0  0  0  0  0
    4.3707    1.5671   -3.5512 O   0  0  0  0  0  0  0  0  0  0  0  0
    6.4711    0.3162   -3.2881 C   0  0  0  0  0  0  0  0  0  0  0  0
    7.2113    1.4465   -3.6632 C   0  0  0  0  0  0  0  0  0  0  0  0
    8.5853    1.3805   -3.9058 C   0  0  0  0  0  0  0  0  0  0  0  0
    9.2533    0.1602   -3.7871 C   0  0  0  0  0  0  0  0  0  0  0  0
    8.5408   -0.9882   -3.4365 C   0  0  0  0  0  0  0  0  0  0  0  0
    7.1676   -0.9029   -3.1943 C   0  0  0  0  0  0  0  0  0  0  0  0
    6.3128   -2.3851   -2.7928 Cl  0  0  0  0  0  0  0  0  0  0  0  0
    2.9443    1.0330    1.0927 C   0  0  0  0  0  0  0  0  0  0  0  0
    4.3035    0.7624    1.7328 C   0  0  0  0  0  0  0  0  0  0  0  0
    4.4449   -1.0693    1.8027 S   0  0  2  0  0  0  0  0  0  0  0  0
    3.9693   -1.5256    3.1170 O   0  0  0  0  0  0  0  0  0  0  0  0
    5.7578   -1.4947    1.2935 O   0  0  0  0  0  0  0  0  0  0  0  0
    3.1200   -1.3972    0.5645 C   0  0  0  0  0  0  0  0  0  0  0  0
    0.7499    0.8789   -0.6170 H   0  0  0  0  0  0  0  0  0  0  0  0
    0.5628   -0.3305    0.6762 H   0  0  0  0  0  0  0  0  0  0  0  0
    0.8713   -0.8552   -1.0086 H   0  0  0  0  0  0  0  0  0  0  0  0
    2.7547    0.9508   -1.8057 H   0  0  0  0  0  0  0  0  0  0  0  0
    5.1910   -0.5190   -1.0378 H   0  0  0  0  0  0  0  0  0  0  0  0
    5.1109    1.2505   -1.0306 H   0  0  0  0  0  0  0  0  0  0  0  0
    4.4722   -0.4411   -3.4764 H   0  0  0  0  0  0  0  0  0  0  0  0
    4.7058    2.3409   -3.0766 H   0  0  0  0  0  0  0  0  0  0  0  0
    6.6911    2.3974   -3.7958 H   0  0  0  0  0  0  0  0  0  0  0  0
    9.1302    2.2819   -4.1962 H   0  0  0  0  0  0  0  0  0  0  0  0
   10.3275    0.0940   -3.9756 H   0  0  0  0  0  0  0  0  0  0  0  0
    9.0382   -1.9557   -3.3514 H   0  0  0  0  0  0  0  0  0  0  0  0
    2.1668    0.9859    1.8722 H   0  0  0  0  0  0  0  0  0  0  0  0
    2.8980    2.0398    0.6476 H   0  0  0  0  0  0  0  0  0  0  0  0
    4.3935    1.1104    2.7705 H   0  0  0  0  0  0  0  0  0  0  0  0
    5.1582    1.1188    1.1449 H   0  0  0  0  0  0  0  0  0  0  0  0
    2.3387   -1.9102    1.1399 H   0  0  0  0  0  0  0  0  0  0  0  0
    3.5252   -2.0656   -0.2056 H   0  0  0  0  0  0  0  0  0  0  0  0
  1  2  1  0
  1 20  1  0
  1 21  1  0
  1 22  1  0
  2  3  1  6
  2 14  1  0
  2 19  1  0
  3  4  1  0
  3 23  1  0
  4  5  1  0
  4 24  1  0
  4 25  1  0
  5  6  1  0
  5  7  1  0
  5 26  1  6
  6 27  1  0
  7  8  2  0
  7 12  1  0
  8  9  1  0
  8 28  1  0
  9 10  2  0
  9 29  1  0
 10 11  1  0
 10 30  1  0
 11 12  2  0
 11 31  1  0
 12 13  1  0
 14 15  1  0
 14 32  1  0
 14 33  1  0
 16 15  1  1
 15 34  1  0
 15 35  1  0
 16 17  2  0
 16 18  2  0
 16 19  1  0
 19 36  1  0
 19 37  1  0
M  END

