
     RDKit          3D

 46 46  0  0  0  0  0  0  0  0999 V2000
    1.2200    1.3092    1.4873 C   0  0  0  0  0  0  0  0  0  0  0  0
    2.5844    1.0928    0.8331 C   0  0  0  0  0  0  0  0  0  0  0  0
    2.5033    1.0623   -0.6988 C   0  0  0  0  0  0  0  0  0  0  0  0
    3.7789    0.8325   -1.3567 N   0  0  0  0  0  0  0  0  0  0  0  0
    4.6600    1.8118   -1.6736 C   0  0  0  0  0  0  0  0  0  0  0  0
    4.3009    3.0837   -1.4176 N   0  0  0  0  0  0  0  0  0  0  0  0
    5.1573    4.0550   -1.7276 C   0  0  0  0  0  0  0  0  0  0  0  0
    4.6982    5.4949   -1.4922 C   0  0  1  0  0  0  0  0  0  0  0  0
    5.7023    6.3096   -0.6780 C   0  0  0  0  0  0  0  0  0  0  0  0
    5.9161    5.7930    0.7440 C   0  0  0  0  0  0  0  0  0  0  0  0
    4.5210    6.1700   -2.7271 O   0  0  0  0  0  0  0  0  0  0  0  0
    3.4044    5.7649   -3.4771 C   0  0  0  0  0  0  0  0  0  0  0  0
    6.3676    3.8885   -2.2532 N   0  0  0  0  0  0  0  0  0  0  0  0
    6.7706    2.6354   -2.5454 C   0  0  0  0  0  0  0  0  0  0  0  0
    8.1309    2.5126   -3.1842 C   0  0  0  0  0  0  0  0  0  0  0  0
    8.1176    2.6518   -4.7302 C   0  0  1  0  0  0  0  0  0  0  0  0
    7.7635    4.0728   -5.1861 C   0  0  0  0  0  0  0  0  0  0  0  0
    9.4676    2.2083   -5.3073 C   0  0  0  0  0  0  0  0  0  0  0  0
    5.9263    1.5543   -2.2760 C   0  0  0  0  0  0  0  0  0  0  0  0
    6.4740   -0.4630   -2.7358 I   0  0  0  0  0  0  0  0  0  0  0  0
    1.3015    1.3312    2.5851 H   0  0  0  0  0  0  0  0  0  0  0  0
    0.5117    0.5055    1.2236 H   0  0  0  0  0  0  0  0  0  0  0  0
    0.7697    2.2641    1.1688 H   0  0  0  0  0  0  0  0  0  0  0  0
    3.0304    0.1474    1.1905 H   0  0  0  0  0  0  0  0  0  0  0  0
    3.2776    1.8982    1.1275 H   0  0  0  0  0  0  0  0  0  0  0  0
    2.1004    2.0179   -1.0648 H   0  0  0  0  0  0  0  0  0  0  0  0
    1.8125    0.2656   -1.0238 H   0  0  0  0  0  0  0  0  0  0  0  0
    4.0839   -0.1229   -1.5018 H   0  0  0  0  0  0  0  0  0  0  0  0
    3.7309    5.4349   -0.9553 H   0  0  0  0  0  0  0  0  0  0  0  0
    5.3326    7.3479   -0.6611 H   0  0  0  0  0  0  0  0  0  0  0  0
    6.6522    6.3130   -1.2354 H   0  0  0  0  0  0  0  0  0  0  0  0
    4.9739    5.7732    1.3173 H   0  0  0  0  0  0  0  0  0  0  0  0
    6.6230    6.4360    1.2914 H   0  0  0  0  0  0  0  0  0  0  0  0
    6.3309    4.7720    0.7496 H   0  0  0  0  0  0  0  0  0  0  0  0
    3.3566    6.4088   -4.3679 H   0  0  0  0  0  0  0  0  0  0  0  0
    2.4602    5.8788   -2.9069 H   0  0  0  0  0  0  0  0  0  0  0  0
    3.4707    4.7117   -3.8119 H   0  0  0  0  0  0  0  0  0  0  0  0
    8.5828    1.5460   -2.9178 H   0  0  0  0  0  0  0  0  0  0  0  0
    8.7629    3.3091   -2.7599 H   0  0  0  0  0  0  0  0  0  0  0  0
    7.3445    1.9614   -5.1155 H   0  0  0  0  0  0  0  0  0  0  0  0
    8.5536    4.7834   -4.8883 H   0  0  0  0  0  0  0  0  0  0  0  0
    6.8256    4.4330   -4.7399 H   0  0  0  0  0  0  0  0  0  0  0  0
    7.6700    4.1172   -6.2836 H   0  0  0  0  0  0  0  0  0  0  0  0
   10.2872    2.8379   -4.9203 H   0  0  0  0  0  0  0  0  0  0  0  0
    9.4753    2.2929   -6.4061 H   0  0  0  0  0  0  0  0  0  0  0  0
    9.6972    1.1619   -5.0483 H   0  0  0  0  0  0  0  0  0  0  0  0
  1  2  1  0
  1 21  1  0
  1 22  1  0
  1 23  1  0
  2  3  1  0
  2 24  1  0
  2 25  1  0
  3  4  1  0
  3 26  1  0
  3 27  1  0
  4  5  1  0
  4 28  1  0
  5  6  2  0
  5 19  1  0
  6  7  1  0
  7  8  1  0
  7 13  2  0
  8  9  1  0
  8 11  1  0
  8 29  1  1
  9 10  1  0
  9 30  1  0
  9 31  1  0
 10 32  1  0
 10 33  1  0
 10 34  1  0
 11 12  1  0
 12 35  1  0
 12 36  1  0
 12 37  1  0
 13 14  1  0
 14 15  1  0
 14 19  2  0
 15 16  1  0
 15 38  1  0
 15 39  1  0
 16 17  1  0
 16 18  1  0
 16 40  1  6
 17 41  1  0
 17 42  1  0
 17 43  1  0
 18 44  1  0
 18 45  1  0
 18 46  1  0
 19 20  1  0
M  END

