
     RDKit          3D

 65 67  0  0  0  0  0  0  0  0999 V2000
   -0.8492    3.1094   -3.5443 C   0  0  0  0  0  0  0  0  0  0  0  0
    0.1813    2.1008   -3.0645 C   0  0  0  0  0  0  0  0  0  0  0  0
    1.5237    2.5368   -3.3283 O   0  0  0  0  0  0  0  0  0  0  0  0
    2.0864    3.3636   -2.4117 C   0  0  0  0  0  0  0  0  0  0  0  0
    1.5222    3.7281   -1.3988 O   0  0  0  0  0  0  0  0  0  0  0  0
    3.3548    3.7325   -2.7717 N   0  0  0  0  0  0  0  0  0  0  0  0
    4.0573    3.2635   -3.9610 C   0  0  0  0  0  0  0  0  0  0  0  0
    4.6475    4.4534   -4.7254 C   0  0  0  0  0  0  0  0  0  0  0  0
    5.4454    5.3308   -3.8577 N   0  0  0  0  0  0  0  0  0  0  0  0
    7.0839    4.9767   -3.6856 S   0  0  1  0  0  0  0  0  0  0  0  0
    7.3602    4.2399   -2.4471 O   0  0  0  0  0  0  0  0  0  0  0  0
    7.4993    4.3994   -4.9705 O   0  0  0  0  0  0  0  0  0  0  0  0
    7.6885    6.5256   -3.4539 N   0  0  0  0  0  0  0  0  0  0  0  0
    8.8499    6.6768   -2.5611 C   0  0  0  0  0  0  0  0  0  0  0  0
   10.1759    6.5052   -3.3068 C   0  0  0  0  0  0  0  0  0  0  0  0
   10.2465    7.4296   -4.5283 C   0  0  0  0  0  0  0  0  0  0  0  0
    9.0229    7.2506   -5.4517 C   0  0  2  0  0  0  0  0  0  0  0  0
    9.0387    8.3033   -6.5605 C   0  0  0  0  0  0  0  0  0  0  0  0
    8.8909    9.4933   -6.3140 O   0  0  0  0  0  0  0  0  0  0  0  0
    9.2371    7.8249   -7.8176 N   0  0  0  0  0  0  0  0  0  0  0  0
    9.3196    8.6704   -8.9912 C   0  0  0  0  0  0  0  0  0  0  0  0
   10.3029    8.0719   -9.9981 C   0  0  0  0  0  0  0  0  0  0  0  0
    9.9922    6.6870  -10.3078 N   0  0  0  0  0  0  0  0  0  0  0  0
    8.8084    6.4598  -11.1348 C   0  0  0  0  0  0  0  0  0  0  0  0
    8.8874    4.9644  -11.4945 C   0  0  0  0  0  0  0  0  0  0  0  0
   10.3948    4.6112  -11.3591 C   0  0  0  0  0  0  0  0  0  0  0  0
   11.0617    5.9390  -10.9634 C   0  0  0  0  0  0  0  0  0  0  0  0
    7.7218    7.3956   -4.6371 C   0  0  0  0  0  0  0  0  0  0  0  0
    4.7338    5.7569   -2.6428 C   0  0  0  0  0  0  0  0  0  0  0  0
    4.1400    4.5732   -1.8733 C   0  0  0  0  0  0  0  0  0  0  0  0
   -1.8651    2.7086   -3.3965 H   0  0  0  0  0  0  0  0  0  0  0  0
   -0.7192    3.3285   -4.6160 H   0  0  0  0  0  0  0  0  0  0  0  0
   -0.7654    4.0471   -2.9755 H   0  0  0  0  0  0  0  0  0  0  0  0
    0.0875    1.1473   -3.6052 H   0  0  0  0  0  0  0  0  0  0  0  0
    0.0714    1.9140   -1.9862 H   0  0  0  0  0  0  0  0  0  0  0  0
    3.3600    2.7080   -4.5975 H   0  0  0  0  0  0  0  0  0  0  0  0
    4.8746    2.5777   -3.6664 H   0  0  0  0  0  0  0  0  0  0  0  0
    3.8293    5.0691   -5.1381 H   0  0  0  0  0  0  0  0  0  0  0  0
    5.2766    4.1128   -5.5570 H   0  0  0  0  0  0  0  0  0  0  0  0
    8.7492    5.9610   -1.7363 H   0  0  0  0  0  0  0  0  0  0  0  0
    8.7822    7.6936   -2.1353 H   0  0  0  0  0  0  0  0  0  0  0  0
   10.2765    5.4514   -3.6199 H   0  0  0  0  0  0  0  0  0  0  0  0
   11.0123    6.7151   -2.6190 H   0  0  0  0  0  0  0  0  0  0  0  0
   11.1725    7.2466   -5.0981 H   0  0  0  0  0  0  0  0  0  0  0  0
   10.2780    8.4840   -4.2029 H   0  0  0  0  0  0  0  0  0  0  0  0
    9.0391    6.2380   -5.8852 H   0  0  0  0  0  0  0  0  0  0  0  0
    9.3520    6.8293   -7.9833 H   0  0  0  0  0  0  0  0  0  0  0  0
    9.6447    9.6726   -8.6755 H   0  0  0  0  0  0  0  0  0  0  0  0
    8.3232    8.7983   -9.4554 H   0  0  0  0  0  0  0  0  0  0  0  0
   11.3148    8.1008   -9.5611 H   0  0  0  0  0  0  0  0  0  0  0  0
   10.3245    8.7103  -10.9113 H   0  0  0  0  0  0  0  0  0  0  0  0
    8.8424    7.0844  -12.0577 H   0  0  0  0  0  0  0  0  0  0  0  0
    7.8837    6.7239  -10.5984 H   0  0  0  0  0  0  0  0  0  0  0  0
    8.4959    4.7753  -12.5051 H   0  0  0  0  0  0  0  0  0  0  0  0
    8.2846    4.3650  -10.7962 H   0  0  0  0  0  0  0  0  0  0  0  0
   10.8225    4.2040  -12.2872 H   0  0  0  0  0  0  0  0  0  0  0  0
   10.5447    3.8568  -10.5724 H   0  0  0  0  0  0  0  0  0  0  0  0
   11.4283    6.4725  -11.8710 H   0  0  0  0  0  0  0  0  0  0  0  0
   11.9237    5.8136  -10.2884 H   0  0  0  0  0  0  0  0  0  0  0  0
    6.8385    7.1829   -5.2552 H   0  0  0  0  0  0  0  0  0  0  0  0
    7.6338    8.4384   -4.2914 H   0  0  0  0  0  0  0  0  0  0  0  0
    3.9279    6.4396   -2.9633 H   0  0  0  0  0  0  0  0  0  0  0  0
    5.4228    6.3318   -2.0092 H   0  0  0  0  0  0  0  0  0  0  0  0
    3.4806    4.9198   -1.0678 H   0  0  0  0  0  0  0  0  0  0  0  0
    4.9617    3.9836   -1.4300 H   0  0  0  0  0  0  0  0  0  0  0  0
  1  2  1  0
  1 31  1  0
  1 32  1  0
  1 33  1  0
  2  3  1  0
  2 34  1  0
  2 35  1  0
  3  4  1  0
  4  5  2  0
  4  6  1  0
  6  7  1  0
  6 30  1  0
  7  8  1  0
  7 36  1  0
  7 37  1  0
  8  9  1  0
  8 38  1  0
  8 39  1  0
 10  9  1  6
  9 29  1  0
 10 11  2  0
 10 12  2  0
 10 13  1  0
 13 14  1  0
 13 28  1  0
 14 15  1  0
 14 40  1  0
 14 41  1  0
 15 16  1  0
 15 42  1  0
 15 43  1  0
 16 17  1  0
 16 44  1  0
 16 45  1  0
 17 18  1  0
 17 28  1  0
 17 46  1  6
 18 19  2  0
 18 20  1  0
 20 21  1  0
 20 47  1  0
 21 22  1  0
 21 48  1  0
 21 49  1  0
 22 23  1  0
 22 50  1  0
 22 51  1  0
 23 24  1  0
 23 27  1  0
 24 25  1  0
 24 52  1  0
 24 53  1  0
 25 26  1  0
 25 54  1  0
 25 55  1  0
 26 27  1  0
 26 56  1  0
 26 57  1  0
 27 58  1  0
 27 59  1  0
 28 60  1  0
 28 61  1  0
 29 30  1  0
 29 62  1  0
 29 63  1  0
 30 64  1  0
 30 65  1  0
M  END

