
     RDKit          3D

 49 50  0  0  0  0  0  0  0  0999 V2000
    2.1646    2.1593    1.0118 C   0  0  0  0  0  0  0  0  0  0  0  0
    3.5317    1.4665    1.0830 C   0  0  1  0  0  0  0  0  0  0  0  0
    3.3887    0.0407    1.6330 C   0  0  0  0  0  0  0  0  0  0  0  0
    4.2324    1.5109   -0.2878 C   0  0  0  0  0  0  0  0  0  0  0  0
    5.6796    1.0092   -0.3017 C   0  0  0  0  0  0  0  0  0  0  0  0
    6.3750    1.1708   -1.6470 C   0  0  0  0  0  0  0  0  0  0  0  0
    6.4866    2.5429   -1.9658 O   0  0  0  0  0  0  0  0  0  0  0  0
    7.0870    2.8039   -3.2064 C   0  0  2  0  0  0  0  0  0  0  0  0
    8.6069    2.5578   -3.3680 C   0  0  0  0  0  0  0  0  0  0  0  0
    8.6876    3.8716   -4.1729 C   0  0  2  0  0  0  0  0  0  0  0  0
    9.8439    4.7100   -3.9132 N   0  0  0  0  0  0  0  0  0  0  0  0
    7.2931    4.3085   -3.5727 C   0  0  2  0  0  0  0  0  0  0  0  0
    7.4784    5.2116   -2.3403 C   0  0  0  0  0  0  0  0  0  0  0  0
    6.2207    5.7124   -1.6093 C   0  0  0  0  0  0  0  0  0  0  0  0
    5.3841    6.7327   -2.3978 C   0  0  0  0  0  0  0  0  0  0  0  0
    4.3748    6.1423   -3.3998 C   0  0  0  0  0  0  0  0  0  0  0  0
    4.8301    4.8780   -4.1494 C   0  0  0  0  0  0  0  0  0  0  0  0
    6.2987    4.8568   -4.6108 C   0  0  0  0  0  0  0  0  0  0  0  0
    1.6709    2.1796    1.9971 H   0  0  0  0  0  0  0  0  0  0  0  0
    1.4909    1.6321    0.3139 H   0  0  0  0  0  0  0  0  0  0  0  0
    2.2578    3.1997    0.6603 H   0  0  0  0  0  0  0  0  0  0  0  0
    4.1602    2.0390    1.7923 H   0  0  0  0  0  0  0  0  0  0  0  0
    2.7900   -0.5866    0.9492 H   0  0  0  0  0  0  0  0  0  0  0  0
    2.8799    0.0421    2.6108 H   0  0  0  0  0  0  0  0  0  0  0  0
    4.3630   -0.4532    1.7722 H   0  0  0  0  0  0  0  0  0  0  0  0
    4.2246    2.5503   -0.6553 H   0  0  0  0  0  0  0  0  0  0  0  0
    3.6365    0.9261   -1.0153 H   0  0  0  0  0  0  0  0  0  0  0  0
    5.7232   -0.0599   -0.0325 H   0  0  0  0  0  0  0  0  0  0  0  0
    6.2698    1.5491    0.4602 H   0  0  0  0  0  0  0  0  0  0  0  0
    5.8038    0.6423   -2.4408 H   0  0  0  0  0  0  0  0  0  0  0  0
    7.3792    0.7023   -1.6099 H   0  0  0  0  0  0  0  0  0  0  0  0
    6.5233    2.2840   -4.0085 H   0  0  0  0  0  0  0  0  0  0  0  0
    8.9384    1.6310   -3.8614 H   0  0  0  0  0  0  0  0  0  0  0  0
    9.1239    2.6648   -2.4023 H   0  0  0  0  0  0  0  0  0  0  0  0
    8.5417    3.6501   -5.2509 H   0  0  0  0  0  0  0  0  0  0  0  0
   10.6998    4.1829   -4.0927 H   0  0  0  0  0  0  0  0  0  0  0  0
    9.8644    5.5037   -4.5552 H   0  0  0  0  0  0  0  0  0  0  0  0
    8.0685    6.0882   -2.6589 H   0  0  0  0  0  0  0  0  0  0  0  0
    8.1204    4.6884   -1.6159 H   0  0  0  0  0  0  0  0  0  0  0  0
    6.5665    6.1959   -0.6793 H   0  0  0  0  0  0  0  0  0  0  0  0
    5.5999    4.8593   -1.2917 H   0  0  0  0  0  0  0  0  0  0  0  0
    6.0780    7.4113   -2.9260 H   0  0  0  0  0  0  0  0  0  0  0  0
    4.8297    7.3773   -1.6943 H   0  0  0  0  0  0  0  0  0  0  0  0
    4.1119    6.9273   -4.1312 H   0  0  0  0  0  0  0  0  0  0  0  0
    3.4339    5.9039   -2.8732 H   0  0  0  0  0  0  0  0  0  0  0  0
    4.1719    4.7449   -5.0248 H   0  0  0  0  0  0  0  0  0  0  0  0
    4.6563    3.9926   -3.5150 H   0  0  0  0  0  0  0  0  0  0  0  0
    6.6166    5.8653   -4.9360 H   0  0  0  0  0  0  0  0  0  0  0  0
    6.3749    4.2193   -5.5090 H   0  0  0  0  0  0  0  0  0  0  0  0
  1  2  1  0
  1 19  1  0
  1 20  1  0
  1 21  1  0
  2  3  1  0
  2  4  1  0
  2 22  1  1
  3 23  1  0
  3 24  1  0
  3 25  1  0
  4  5  1  0
  4 26  1  0
  4 27  1  0
  5  6  1  0
  5 28  1  0
  5 29  1  0
  6  7  1  0
  6 30  1  0
  6 31  1  0
  7  8  1  0
  8  9  1  0
  8 12  1  0
  8 32  1  6
  9 10  1  0
  9 33  1  0
  9 34  1  0
 10 11  1  0
 10 12  1  0
 10 35  1  6
 11 36  1  0
 11 37  1  0
 12 13  1  1
 12 18  1  0
 13 14  1  0
 13 38  1  0
 13 39  1  0
 14 15  1  0
 14 40  1  0
 14 41  1  0
 15 16  1  0
 15 42  1  0
 15 43  1  0
 16 17  1  0
 16 44  1  0
 16 45  1  0
 17 18  1  0
 17 46  1  0
 17 47  1  0
 18 48  1  0
 18 49  1  0
M  END

