
     RDKit          3D

 25 25  0  0  0  0  0  0  0  0999 V2000
    1.5252    0.2374    1.1966 C   0  0  0  0  0  0  0  0  0  0  0  0
    2.4308    0.0324   -0.0114 C   0  0  1  0  0  0  0  0  0  0  0  0
    3.6459    0.7652    0.0771 O   0  0  0  0  0  0  0  0  0  0  0  0
    2.6631   -1.4702   -0.2851 C   0  0  0  0  0  0  0  0  0  0  0  0
    1.7260   -2.2616   -0.2380 O   0  0  0  0  0  0  0  0  0  0  0  0
    3.9482   -1.7727   -0.5972 N   0  0  0  0  0  0  0  0  0  0  0  0
    4.5344   -2.9928   -1.0324 C   0  0  0  0  0  0  0  0  0  0  0  0
    5.5350   -2.9044   -2.0098 C   0  0  0  0  0  0  0  0  0  0  0  0
    6.2438   -4.0183   -2.4552 C   0  0  0  0  0  0  0  0  0  0  0  0
    5.9194   -5.2608   -1.9047 C   0  0  0  0  0  0  0  0  0  0  0  0
    6.7753   -6.6933   -2.4371 Cl  0  0  0  0  0  0  0  0  0  0  0  0
    4.9222   -5.3842   -0.9426 C   0  0  0  0  0  0  0  0  0  0  0  0
    4.2116   -4.2592   -0.4691 C   0  0  0  0  0  0  0  0  0  0  0  0
    3.2938   -4.3884    0.5526 N   0  0  0  0  0  0  0  0  0  0  0  0
    1.2735    1.3022    1.3106 H   0  0  0  0  0  0  0  0  0  0  0  0
    2.0219   -0.1110    2.1192 H   0  0  0  0  0  0  0  0  0  0  0  0
    0.6018   -0.3448    1.0763 H   0  0  0  0  0  0  0  0  0  0  0  0
    1.9198    0.4145   -0.9131 H   0  0  0  0  0  0  0  0  0  0  0  0
    3.9518    0.7303    0.9948 H   0  0  0  0  0  0  0  0  0  0  0  0
    4.5415   -0.9468   -0.6504 H   0  0  0  0  0  0  0  0  0  0  0  0
    5.7654   -1.9214   -2.4306 H   0  0  0  0  0  0  0  0  0  0  0  0
    7.0218   -3.9292   -3.2133 H   0  0  0  0  0  0  0  0  0  0  0  0
    4.6907   -6.3691   -0.5322 H   0  0  0  0  0  0  0  0  0  0  0  0
    3.0523   -5.3465    0.7814 H   0  0  0  0  0  0  0  0  0  0  0  0
    2.4793   -3.7715    0.4653 H   0  0  0  0  0  0  0  0  0  0  0  0
  1  2  1  0
  1 15  1  0
  1 16  1  0
  1 17  1  0
  2  3  1  0
  2  4  1  0
  2 18  1  6
  3 19  1  0
  4  5  2  0
  4  6  1  0
  6  7  1  0
  6 20  1  0
  7  8  2  0
  7 13  1  0
  8  9  1  0
  8 21  1  0
  9 10  2  0
  9 22  1  0
 10 11  1  0
 10 12  1  0
 12 13  2  0
 12 23  1  0
 13 14  1  0
 14 24  1  0
 14 25  1  0
M  END

