
     RDKit          3D

 42 44  0  0  0  0  0  0  0  0999 V2000
    1.3326   -1.6638    0.8978 O   0  0  0  0  0  0  0  0  0  0  0  0
    2.4089   -0.8517    0.3139 S   0  0  1  0  0  0  0  0  0  0  0  0
    3.4388   -1.4483   -0.5402 O   0  0  0  0  0  0  0  0  0  0  0  0
    1.6171    0.4971   -0.6419 C   0  0  0  0  0  0  0  0  0  0  0  0
    0.9067   -0.0327   -1.8549 C   0  0  0  0  0  0  0  0  0  0  0  0
   -0.4163   -0.4926   -1.7621 C   0  0  0  0  0  0  0  0  0  0  0  0
   -1.0655   -1.0111   -2.8843 C   0  0  0  0  0  0  0  0  0  0  0  0
   -0.3973   -1.0830   -4.1106 C   0  0  0  0  0  0  0  0  0  0  0  0
    0.9248   -0.6386   -4.2085 C   0  0  0  0  0  0  0  0  0  0  0  0
    1.5744   -0.1202   -3.0863 C   0  0  0  0  0  0  0  0  0  0  0  0
    3.1925   -0.0894    1.5869 N   0  0  0  0  0  0  0  0  0  0  0  0
    2.4945    0.1447    2.8520 C   0  0  0  0  0  0  0  0  0  0  0  0
    2.9695   -0.7537    3.9781 C   0  0  0  0  0  0  0  0  0  0  0  0
    2.8907   -2.1511    3.8786 C   0  0  0  0  0  0  0  0  0  0  0  0
    3.3306   -2.9271    4.9495 C   0  0  0  0  0  0  0  0  0  0  0  0
    3.8375   -2.2808    6.0839 C   0  0  0  0  0  0  0  0  0  0  0  0
    3.9223   -0.9542    6.1923 N   0  0  0  0  0  0  0  0  0  0  0  0
    3.4975   -0.2190    5.1612 C   0  0  0  0  0  0  0  0  0  0  0  0
    4.5983    0.3008    1.4604 C   0  0  0  0  0  0  0  0  0  0  0  0
    4.8216    1.7785    1.4168 C   0  0  0  0  0  0  0  0  0  0  0  0
    5.4448    2.6581    2.2598 C   0  0  0  0  0  0  0  0  0  0  0  0
    5.3354    3.9547    1.6529 C   0  0  0  0  0  0  0  0  0  0  0  0
    4.6483    3.7669    0.4897 C   0  0  0  0  0  0  0  0  0  0  0  0
    4.3335    2.4536    0.3349 O   0  0  0  0  0  0  0  0  0  0  0  0
    2.4378    1.1844   -0.8877 H   0  0  0  0  0  0  0  0  0  0  0  0
    0.9345    0.9879    0.0666 H   0  0  0  0  0  0  0  0  0  0  0  0
   -0.9352   -0.4517   -0.8013 H   0  0  0  0  0  0  0  0  0  0  0  0
   -2.0969   -1.3627   -2.8004 H   0  0  0  0  0  0  0  0  0  0  0  0
   -0.9060   -1.4879   -4.9892 H   0  0  0  0  0  0  0  0  0  0  0  0
    1.4541   -0.6980   -5.1628 H   0  0  0  0  0  0  0  0  0  0  0  0
    2.6121    0.2142   -3.1617 H   0  0  0  0  0  0  0  0  0  0  0  0
    1.4224   -0.0252    2.6793 H   0  0  0  0  0  0  0  0  0  0  0  0
    2.6192    1.2024    3.1421 H   0  0  0  0  0  0  0  0  0  0  0  0
    2.4838   -2.6074    2.9720 H   0  0  0  0  0  0  0  0  0  0  0  0
    3.2817   -4.0180    4.9116 H   0  0  0  0  0  0  0  0  0  0  0  0
    4.1920   -2.8667    6.9407 H   0  0  0  0  0  0  0  0  0  0  0  0
    3.5770    0.8707    5.2746 H   0  0  0  0  0  0  0  0  0  0  0  0
    4.9914   -0.1801    0.5530 H   0  0  0  0  0  0  0  0  0  0  0  0
    5.1651   -0.1089    2.3126 H   0  0  0  0  0  0  0  0  0  0  0  0
    5.9303    2.4079    3.2012 H   0  0  0  0  0  0  0  0  0  0  0  0
    5.7173    4.8990    2.0353 H   0  0  0  0  0  0  0  0  0  0  0  0
    4.3207    4.4355   -0.3021 H   0  0  0  0  0  0  0  0  0  0  0  0
  1  2  2  0
  2  3  2  0
  2  4  1  0
  2 11  1  1
  4  5  1  0
  4 25  1  0
  4 26  1  0
  5  6  2  0
  5 10  1  0
  6  7  1  0
  6 27  1  0
  7  8  2  0
  7 28  1  0
  8  9  1  0
  8 29  1  0
  9 10  2  0
  9 30  1  0
 10 31  1  0
 11 12  1  0
 11 19  1  0
 12 13  1  0
 12 32  1  0
 12 33  1  0
 13 14  2  0
 13 18  1  0
 14 15  1  0
 14 34  1  0
 15 16  2  0
 15 35  1  0
 16 17  1  0
 16 36  1  0
 17 18  2  0
 18 37  1  0
 19 20  1  0
 19 38  1  0
 19 39  1  0
 20 21  2  0
 20 24  1  0
 21 22  1  0
 21 40  1  0
 22 23  2  0
 22 41  1  0
 23 24  1  0
 23 42  1  0
M  END

