
     RDKit          3D

 37 37  0  0  0  0  0  0  0  0999 V2000
    3.4117   -0.3808    5.9821 C   0  0  0  0  0  0  0  0  0  0  0  0
    3.5435    0.0114    4.6142 O   0  0  0  0  0  0  0  0  0  0  0  0
    4.7911    0.1589    4.1448 C   0  0  0  0  0  0  0  0  0  0  0  0
    5.7835   -0.0326    4.8046 O   0  0  0  0  0  0  0  0  0  0  0  0
    4.7474    0.5898    2.6799 C   0  0  0  0  0  0  0  0  0  0  0  0
    6.0416    0.6810    2.0569 N   0  0  0  0  0  0  0  0  0  0  0  0
    6.7529   -0.5439    1.7197 C   0  0  0  0  0  0  0  0  0  0  0  0
    6.5734    2.1807    1.5060 S   0  0  1  0  0  0  0  0  0  0  0  0
    7.7266    1.9155    0.6449 O   0  0  0  0  0  0  0  0  0  0  0  0
    5.4128    2.9261    1.0043 O   0  0  0  0  0  0  0  0  0  0  0  0
    7.1267    3.0365    2.9887 C   0  0  0  0  0  0  0  0  0  0  0  0
    6.8412    4.3962    3.1250 C   0  0  0  0  0  0  0  0  0  0  0  0
    7.3070    5.0547    4.2661 C   0  0  0  0  0  0  0  0  0  0  0  0
    8.0063    4.3550    5.2531 C   0  0  0  0  0  0  0  0  0  0  0  0
    8.2746    2.9807    5.1223 C   0  0  0  0  0  0  0  0  0  0  0  0
    8.9943    2.1905    6.2175 C   0  0  1  0  0  0  0  0  0  0  0  0
    8.4357    2.5038    7.6203 C   0  0  0  0  0  0  0  0  0  0  0  0
    8.9836    0.7657    5.8993 N   0  0  0  0  0  0  0  0  0  0  0  0
    7.8491    2.3352    3.9550 C   0  0  0  0  0  0  0  0  0  0  0  0
    2.3350   -0.4588    6.1754 H   0  0  0  0  0  0  0  0  0  0  0  0
    3.8646    0.3692    6.6480 H   0  0  0  0  0  0  0  0  0  0  0  0
    3.9029   -1.3495    6.1593 H   0  0  0  0  0  0  0  0  0  0  0  0
    4.2339    1.5619    2.6206 H   0  0  0  0  0  0  0  0  0  0  0  0
    4.0910   -0.1197    2.1411 H   0  0  0  0  0  0  0  0  0  0  0  0
    6.9611   -1.1294    2.6295 H   0  0  0  0  0  0  0  0  0  0  0  0
    7.7017   -0.2861    1.2353 H   0  0  0  0  0  0  0  0  0  0  0  0
    6.1625   -1.1619    1.0182 H   0  0  0  0  0  0  0  0  0  0  0  0
    6.2607    4.9134    2.3597 H   0  0  0  0  0  0  0  0  0  0  0  0
    7.1085    6.1217    4.3946 H   0  0  0  0  0  0  0  0  0  0  0  0
    8.3407    4.8937    6.1427 H   0  0  0  0  0  0  0  0  0  0  0  0
   10.0542    2.5098    6.2022 H   0  0  0  0  0  0  0  0  0  0  0  0
    7.3689    2.2310    7.6804 H   0  0  0  0  0  0  0  0  0  0  0  0
    8.5309    3.5663    7.8939 H   0  0  0  0  0  0  0  0  0  0  0  0
    8.9818    1.9199    8.3790 H   0  0  0  0  0  0  0  0  0  0  0  0
    8.0302    0.3960    5.9335 H   0  0  0  0  0  0  0  0  0  0  0  0
    9.5338    0.2467    6.5816 H   0  0  0  0  0  0  0  0  0  0  0  0
    8.0640    1.2756    3.8329 H   0  0  0  0  0  0  0  0  0  0  0  0
  1  2  1  0
  1 20  1  0
  1 21  1  0
  1 22  1  0
  2  3  1  0
  3  4  2  0
  3  5  1  0
  5  6  1  0
  5 23  1  0
  5 24  1  0
  6  7  1  0
  8  6  1  1
  7 25  1  0
  7 26  1  0
  7 27  1  0
  8  9  2  0
  8 10  2  0
  8 11  1  0
 11 12  2  0
 11 19  1  0
 12 13  1  0
 12 28  1  0
 13 14  2  0
 13 29  1  0
 14 15  1  0
 14 30  1  0
 15 16  1  0
 15 19  2  0
 16 17  1  0
 16 18  1  0
 16 31  1  1
 17 32  1  0
 17 33  1  0
 17 34  1  0
 18 35  1  0
 18 36  1  0
 19 37  1  0
M  END

