
     RDKit          3D

 55 57  0  0  0  0  0  0  0  0999 V2000
    3.1871    0.5187    5.1468 C   0  0  0  0  0  0  0  0  0  0  0  0
    4.4317    0.4314    4.2801 C   0  0  0  0  0  0  0  0  0  0  0  0
    4.1966    0.9566    2.9581 O   0  0  0  0  0  0  0  0  0  0  0  0
    4.3483    2.2812    2.7728 C   0  0  0  0  0  0  0  0  0  0  0  0
    4.6836    3.0418    3.6499 O   0  0  0  0  0  0  0  0  0  0  0  0
    4.0041    2.6917    1.3405 C   0  0  1  0  0  0  0  0  0  0  0  0
    4.3788    4.1589    1.0739 C   0  0  0  0  0  0  0  0  0  0  0  0
    5.8929    4.3268    0.8981 C   0  0  0  0  0  0  0  0  0  0  0  0
    6.4361    3.4084   -0.1021 N   0  0  0  0  0  0  0  0  0  0  0  0
    7.2231    3.8263   -1.1815 C   0  0  0  0  0  0  0  0  0  0  0  0
    8.2890    3.2534   -1.6272 N   0  0  0  0  0  0  0  0  0  0  0  0
    9.0300    2.3181   -0.8144 C   0  0  0  0  0  0  0  0  0  0  0  0
    6.7615    4.9818   -1.7853 N   0  0  0  0  0  0  0  0  0  0  0  0
    7.5421    5.7990   -2.7008 C   0  0  0  0  0  0  0  0  0  0  0  0
    7.8528    5.1835   -4.0757 C   0  0  0  0  0  0  0  0  0  0  0  0
    6.6230    4.5981   -4.7892 C   0  0  0  0  0  0  0  0  0  0  0  0
    6.9436    3.8043   -6.0111 C   0  0  0  0  0  0  0  0  0  0  0  0
    6.6322    4.1171   -7.2542 N   0  0  0  0  0  0  0  0  0  0  0  0
    7.0764    3.1504   -8.0960 N   0  0  0  0  0  0  0  0  0  0  0  0
    7.6709    2.2275   -7.3564 C   0  0  0  0  0  0  0  0  0  0  0  0
    8.3039    1.0021   -7.7010 C   0  0  0  0  0  0  0  0  0  0  0  0
    8.8365    0.2269   -6.7018 C   0  0  0  0  0  0  0  0  0  0  0  0
    8.7600    0.6471   -5.3337 C   0  0  0  0  0  0  0  0  0  0  0  0
    8.1545    1.8253   -4.9970 C   0  0  0  0  0  0  0  0  0  0  0  0
    7.6161    2.5986   -6.0052 N   0  0  0  0  0  0  0  0  0  0  0  0
    6.1451    2.0012    0.1368 C   0  0  0  0  0  0  0  0  0  0  0  0
    4.6337    1.7716    0.2743 C   0  0  0  0  0  0  0  0  0  0  0  0
    3.3752    0.0383    6.1204 H   0  0  0  0  0  0  0  0  0  0  0  0
    2.3372    0.0065    4.6696 H   0  0  0  0  0  0  0  0  0  0  0  0
    2.9120    1.5675    5.3322 H   0  0  0  0  0  0  0  0  0  0  0  0
    4.7317   -0.6134    4.1148 H   0  0  0  0  0  0  0  0  0  0  0  0
    5.2691    0.9795    4.7361 H   0  0  0  0  0  0  0  0  0  0  0  0
    2.9062    2.5784    1.2813 H   0  0  0  0  0  0  0  0  0  0  0  0
    4.0321    4.7944    1.9020 H   0  0  0  0  0  0  0  0  0  0  0  0
    3.8612    4.4899    0.1571 H   0  0  0  0  0  0  0  0  0  0  0  0
    6.3844    4.1402    1.8722 H   0  0  0  0  0  0  0  0  0  0  0  0
    6.1408    5.3547    0.6038 H   0  0  0  0  0  0  0  0  0  0  0  0
   10.1104    2.4700   -0.9807 H   0  0  0  0  0  0  0  0  0  0  0  0
    8.8258    1.2640   -1.0855 H   0  0  0  0  0  0  0  0  0  0  0  0
    8.8446    2.4177    0.2724 H   0  0  0  0  0  0  0  0  0  0  0  0
    5.7619    5.1369   -1.7561 H   0  0  0  0  0  0  0  0  0  0  0  0
    8.4984    6.0522   -2.2137 H   0  0  0  0  0  0  0  0  0  0  0  0
    6.9852    6.7425   -2.8283 H   0  0  0  0  0  0  0  0  0  0  0  0
    8.6069    4.4000   -3.9233 H   0  0  0  0  0  0  0  0  0  0  0  0
    8.3131    5.9596   -4.7104 H   0  0  0  0  0  0  0  0  0  0  0  0
    5.9339    5.3961   -5.1060 H   0  0  0  0  0  0  0  0  0  0  0  0
    6.0705    3.9573   -4.0786 H   0  0  0  0  0  0  0  0  0  0  0  0
    8.3429    0.7196   -8.7536 H   0  0  0  0  0  0  0  0  0  0  0  0
    9.3278   -0.7183   -6.9434 H   0  0  0  0  0  0  0  0  0  0  0  0
    9.1924    0.0320   -4.5431 H   0  0  0  0  0  0  0  0  0  0  0  0
    8.0847    2.2102   -3.9755 H   0  0  0  0  0  0  0  0  0  0  0  0
    6.6584    1.6383    1.0506 H   0  0  0  0  0  0  0  0  0  0  0  0
    6.5324    1.4101   -0.7026 H   0  0  0  0  0  0  0  0  0  0  0  0
    4.4354    0.7175    0.5167 H   0  0  0  0  0  0  0  0  0  0  0  0
    4.1524    1.9849   -0.6950 H   0  0  0  0  0  0  0  0  0  0  0  0
  1  2  1  0
  1 28  1  0
  1 29  1  0
  1 30  1  0
  2  3  1  0
  2 31  1  0
  2 32  1  0
  3  4  1  0
  4  5  2  0
  4  6  1  0
  6  7  1  0
  6 27  1  0
  6 33  1  1
  7  8  1  0
  7 34  1  0
  7 35  1  0
  8  9  1  0
  8 36  1  0
  8 37  1  0
  9 10  1  0
  9 26  1  0
 10 11  2  0
 10 13  1  0
 11 12  1  0
 12 38  1  0
 12 39  1  0
 12 40  1  0
 13 14  1  0
 13 41  1  0
 14 15  1  0
 14 42  1  0
 14 43  1  0
 15 16  1  0
 15 44  1  0
 15 45  1  0
 16 17  1  0
 16 46  1  0
 16 47  1  0
 17 18  2  0
 17 25  1  0
 18 19  1  0
 19 20  2  0
 20 21  1  0
 20 25  1  0
 21 22  2  0
 21 48  1  0
 22 23  1  0
 22 49  1  0
 23 24  2  0
 23 50  1  0
 24 25  1  0
 24 51  1  0
 26 27  1  0
 26 52  1  0
 26 53  1  0
 27 54  1  0
 27 55  1  0
M  END

