
     RDKit          3D

 38 39  0  0  0  0  0  0  0  0999 V2000
    1.5541   -0.7240    0.4644 C   0  0  0  0  0  0  0  0  0  0  0  0
    2.7352   -0.0653   -0.2682 C   0  0  0  0  0  0  0  0  0  0  0  0
    3.2136    1.2106    0.3876 C   0  0  0  0  0  0  0  0  0  0  0  0
    2.5482    2.4165    0.1092 C   0  0  0  0  0  0  0  0  0  0  0  0
    2.9017    3.6579    0.6493 C   0  0  0  0  0  0  0  0  0  0  0  0
    2.1527    4.9306    0.2965 C   0  0  0  0  0  0  0  0  0  0  0  0
    1.0298    4.7991   -0.7295 C   0  0  0  0  0  0  0  0  0  0  0  0
    4.0025    3.6496    1.5393 C   0  0  0  0  0  0  0  0  0  0  0  0
    4.5119    5.2475    2.2282 S   0  0  1  0  0  0  0  0  0  0  0  0
    5.1196    6.0464    1.1718 O   0  0  0  0  0  0  0  0  0  0  0  0
    3.4416    5.7846    3.0560 O   0  0  0  0  0  0  0  0  0  0  0  0
    6.1050    4.7379    3.5744 Cl  0  0  0  0  0  0  0  0  0  0  0  0
    4.6805    2.4809    1.8646 C   0  0  0  0  0  0  0  0  0  0  0  0
    4.2944    1.2636    1.2878 C   0  0  0  0  0  0  0  0  0  0  0  0
    5.0308    0.0967    1.6378 N   0  0  0  0  0  0  0  0  0  0  0  0
    4.4214   -1.0221    2.1368 N   0  0  0  0  0  0  0  0  0  0  0  0
    5.4410   -1.8149    2.3735 C   0  0  0  0  0  0  0  0  0  0  0  0
    5.2604   -3.2001    2.9382 C   0  0  1  0  0  0  0  0  0  0  0  0
    3.9695   -3.4727    3.1540 F   0  0  0  0  0  0  0  0  0  0  0  0
    5.7439   -4.1271    2.0955 F   0  0  0  0  0  0  0  0  0  0  0  0
    5.9144   -3.3349    4.1012 F   0  0  0  0  0  0  0  0  0  0  0  0
    6.6679   -1.3185    2.0700 N   0  0  0  0  0  0  0  0  0  0  0  0
    6.3881   -0.1128    1.6114 C   0  0  0  0  0  0  0  0  0  0  0  0
    7.3011    0.8201    1.2136 N   0  0  0  0  0  0  0  0  0  0  0  0
    1.2154   -1.6158   -0.0858 H   0  0  0  0  0  0  0  0  0  0  0  0
    0.6996   -0.0334    0.5486 H   0  0  0  0  0  0  0  0  0  0  0  0
    1.8563   -1.0361    1.4737 H   0  0  0  0  0  0  0  0  0  0  0  0
    2.4359    0.1767   -1.3017 H   0  0  0  0  0  0  0  0  0  0  0  0
    3.5634   -0.7853   -0.3359 H   0  0  0  0  0  0  0  0  0  0  0  0
    1.7107    2.3760   -0.5890 H   0  0  0  0  0  0  0  0  0  0  0  0
    2.8890    5.6707   -0.0589 H   0  0  0  0  0  0  0  0  0  0  0  0
    1.7513    5.3560    1.2312 H   0  0  0  0  0  0  0  0  0  0  0  0
    1.3952    4.4249   -1.6990 H   0  0  0  0  0  0  0  0  0  0  0  0
    0.5752    5.7851   -0.9077 H   0  0  0  0  0  0  0  0  0  0  0  0
    0.2284    4.1270   -0.3840 H   0  0  0  0  0  0  0  0  0  0  0  0
    5.5132    2.5025    2.5660 H   0  0  0  0  0  0  0  0  0  0  0  0
    8.2406    0.4610    1.0868 H   0  0  0  0  0  0  0  0  0  0  0  0
    7.0110    1.5280    0.5489 H   0  0  0  0  0  0  0  0  0  0  0  0
  1  2  1  0
  1 25  1  0
  1 26  1  0
  1 27  1  0
  2  3  1  0
  2 28  1  0
  2 29  1  0
  3  4  2  0
  3 14  1  0
  4  5  1  0
  4 30  1  0
  5  6  1  0
  5  8  2  0
  6  7  1  0
  6 31  1  0
  6 32  1  0
  7 33  1  0
  7 34  1  0
  7 35  1  0
  8  9  1  0
  8 13  1  0
  9 10  2  0
  9 11  2  0
  9 12  1  1
 13 14  2  0
 13 36  1  0
 14 15  1  0
 15 16  1  0
 15 23  1  0
 16 17  2  0
 17 18  1  0
 17 22  1  0
 18 19  1  1
 18 20  1  0
 18 21  1  0
 22 23  2  0
 23 24  1  0
 24 37  1  0
 24 38  1  0
M  END

