
     RDKit          3D

 26 26  0  0  0  0  0  0  0  0999 V2000
    1.5111    0.9534   -0.1162 C   0  0  0  0  0  0  0  0  0  0  0  0
    2.3744   -0.2247   -0.0882 N   0  0  0  0  0  0  0  0  0  0  0  0
    3.1998   -0.4353   -1.2674 C   0  0  0  0  0  0  0  0  0  0  0  0
    4.3262    0.5709   -1.4804 C   0  0  1  0  0  0  0  0  0  0  0  0
    5.1265    0.1260   -2.4924 F   0  0  0  0  0  0  0  0  0  0  0  0
    3.8239    1.7799   -1.8605 F   0  0  0  0  0  0  0  0  0  0  0  0
    3.0107   -0.4993    1.1558 C   0  0  0  0  0  0  0  0  0  0  0  0
    3.3273    0.5321    1.9456 N   0  0  0  0  0  0  0  0  0  0  0  0
    3.9254    0.2751    3.1102 C   0  0  0  0  0  0  0  0  0  0  0  0
    4.2392   -1.0078    3.5524 C   0  0  0  0  0  0  0  0  0  0  0  0
    3.8738   -2.1060    2.7543 C   0  0  0  0  0  0  0  0  0  0  0  0
    4.1072   -3.4187    3.1141 N   0  0  0  0  0  0  0  0  0  0  0  0
    3.2392   -1.8441    1.5168 C   0  0  0  0  0  0  0  0  0  0  0  0
    2.7752   -2.9358    0.7536 N   0  0  0  0  0  0  0  0  0  0  0  0
    0.9549    0.9604   -1.0669 H   0  0  0  0  0  0  0  0  0  0  0  0
    2.0540    1.9079   -0.0185 H   0  0  0  0  0  0  0  0  0  0  0  0
    0.7883    0.8900    0.7100 H   0  0  0  0  0  0  0  0  0  0  0  0
    2.5717   -0.4147   -2.1749 H   0  0  0  0  0  0  0  0  0  0  0  0
    3.6700   -1.4300   -1.2174 H   0  0  0  0  0  0  0  0  0  0  0  0
    4.9481    0.7270   -0.5824 H   0  0  0  0  0  0  0  0  0  0  0  0
    4.1778    1.1417    3.7329 H   0  0  0  0  0  0  0  0  0  0  0  0
    4.7299   -1.1603    4.5171 H   0  0  0  0  0  0  0  0  0  0  0  0
    4.2929   -3.5882    4.0963 H   0  0  0  0  0  0  0  0  0  0  0  0
    3.4504   -4.0781    2.7019 H   0  0  0  0  0  0  0  0  0  0  0  0
    3.5173   -3.5202    0.3673 H   0  0  0  0  0  0  0  0  0  0  0  0
    2.1479   -2.6300    0.0134 H   0  0  0  0  0  0  0  0  0  0  0  0
  1  2  1  0
  1 15  1  0
  1 16  1  0
  1 17  1  0
  2  3  1  0
  2  7  1  0
  3  4  1  0
  3 18  1  0
  3 19  1  0
  4  5  1  0
  4  6  1  0
  4 20  1  1
  7  8  2  0
  7 13  1  0
  8  9  1  0
  9 10  2  0
  9 21  1  0
 10 11  1  0
 10 22  1  0
 11 12  1  0
 11 13  2  0
 12 23  1  0
 12 24  1  0
 13 14  1  0
 14 25  1  0
 14 26  1  0
M  END

