
     RDKit          3D

 45 49  0  0  0  0  0  0  0  0999 V2000
    1.1163   -0.2622   -0.1751 C   0  0  0  0  0  0  0  0  0  0  0  0
    2.6055   -0.0444   -0.2770 C   0  0  0  0  0  0  0  0  0  0  0  0
    3.3726   -1.1586   -0.4733 C   0  0  0  0  0  0  0  0  0  0  0  0
    4.8155   -1.1497   -0.5960 C   0  0  0  0  0  0  0  0  0  0  0  0
    5.5427   -2.0925   -0.7684 O   0  0  0  0  0  0  0  0  0  0  0  0
    5.3844    0.1140   -0.4976 O   0  0  0  0  0  0  0  0  0  0  0  0
    4.6695    1.2448   -0.3038 C   0  0  0  0  0  0  0  0  0  0  0  0
    5.4699    2.4122   -0.2365 C   0  0  0  0  0  0  0  0  0  0  0  0
    4.8781    3.6301   -0.0430 C   0  0  0  0  0  0  0  0  0  0  0  0
    3.4662    3.7388    0.0919 C   0  0  0  0  0  0  0  0  0  0  0  0
    2.8725    5.0134    0.2927 C   0  0  0  0  0  0  0  0  0  0  0  0
    1.5120    5.1623    0.4281 C   0  0  0  0  0  0  0  0  0  0  0  0
    0.6744    4.0198    0.3666 C   0  0  0  0  0  0  0  0  0  0  0  0
   -0.7832    4.1348    0.5073 C   0  0  0  0  0  0  0  0  0  0  0  0
   -1.5885    5.2505    0.6954 C   0  0  0  0  0  0  0  0  0  0  0  0
   -2.8503    4.7540    0.7441 N   0  0  0  0  0  0  0  0  0  0  0  0
   -4.1105    5.4543    0.9666 C   0  0  0  0  0  0  0  0  0  0  0  0
   -4.3042    5.9165    2.3982 C   0  0  0  0  0  0  0  0  0  0  0  0
   -4.5824    7.2597    2.6824 C   0  0  0  0  0  0  0  0  0  0  0  0
   -4.7843    7.6807    4.0014 C   0  0  0  0  0  0  0  0  0  0  0  0
   -4.7032    6.7601    5.0485 C   0  0  0  0  0  0  0  0  0  0  0  0
   -4.4225    5.4167    4.7724 C   0  0  0  0  0  0  0  0  0  0  0  0
   -4.2262    4.9964    3.4561 C   0  0  0  0  0  0  0  0  0  0  0  0
   -2.8380    3.4163    0.6038 N   0  0  0  0  0  0  0  0  0  0  0  0
   -1.6081    3.0432    0.4609 N   0  0  0  0  0  0  0  0  0  0  0  0
    1.2406    2.7640    0.1705 C   0  0  0  0  0  0  0  0  0  0  0  0
    2.6382    2.5623    0.0258 C   0  0  0  0  0  0  0  0  0  0  0  0
    3.2683    1.2631   -0.1808 C   0  0  0  0  0  0  0  0  0  0  0  0
    0.8898   -1.3314   -0.2820 H   0  0  0  0  0  0  0  0  0  0  0  0
    0.5652    0.2781   -0.9594 H   0  0  0  0  0  0  0  0  0  0  0  0
    0.7154    0.0710    0.7939 H   0  0  0  0  0  0  0  0  0  0  0  0
    2.9144   -2.1455   -0.5496 H   0  0  0  0  0  0  0  0  0  0  0  0
    6.5490    2.2933   -0.3436 H   0  0  0  0  0  0  0  0  0  0  0  0
    5.4854    4.5371    0.0106 H   0  0  0  0  0  0  0  0  0  0  0  0
    3.5276    5.8873    0.3389 H   0  0  0  0  0  0  0  0  0  0  0  0
    1.0848    6.1555    0.5830 H   0  0  0  0  0  0  0  0  0  0  0  0
   -1.3758    6.3104    0.7982 H   0  0  0  0  0  0  0  0  0  0  0  0
   -4.8899    4.7348    0.6750 H   0  0  0  0  0  0  0  0  0  0  0  0
   -4.1649    6.3083    0.2750 H   0  0  0  0  0  0  0  0  0  0  0  0
   -4.6455    7.9853    1.8660 H   0  0  0  0  0  0  0  0  0  0  0  0
   -5.0017    8.7314    4.2091 H   0  0  0  0  0  0  0  0  0  0  0  0
   -4.8578    7.0871    6.0797 H   0  0  0  0  0  0  0  0  0  0  0  0
   -4.3589    4.6922    5.5882 H   0  0  0  0  0  0  0  0  0  0  0  0
   -4.0074    3.9466    3.2419 H   0  0  0  0  0  0  0  0  0  0  0  0
    0.5461    1.9364    0.1338 H   0  0  0  0  0  0  0  0  0  0  0  0
  1  2  1  0
  1 29  1  0
  1 30  1  0
  1 31  1  0
  2  3  2  0
  2 28  1  0
  3  4  1  0
  3 32  1  0
  4  5  2  0
  4  6  1  0
  6  7  1  0
  7  8  1  0
  7 28  2  0
  8  9  2  0
  8 33  1  0
  9 10  1  0
  9 34  1  0
 10 11  1  0
 10 27  2  0
 11 12  2  0
 11 35  1  0
 12 13  1  0
 12 36  1  0
 13 14  1  0
 13 26  2  0
 14 15  2  0
 14 25  1  0
 15 16  1  0
 15 37  1  0
 16 17  1  0
 16 24  1  0
 17 18  1  0
 17 38  1  0
 17 39  1  0
 18 19  2  0
 18 23  1  0
 19 20  1  0
 19 40  1  0
 20 21  2  0
 20 41  1  0
 21 22  1  0
 21 42  1  0
 22 23  2  0
 22 43  1  0
 23 44  1  0
 24 25  2  0
 26 27  1  0
 26 45  1  0
 27 28  1  0
M  END

