
     RDKit          3D

 33 33  0  0  0  0  0  0  0  0999 V2000
    0.9202   -1.1265    0.2084 C   0  0  0  0  0  0  0  0  0  0  0  0
    2.4351   -1.1515    0.0775 C   0  0  0  0  0  0  0  0  0  0  0  0
    2.9861   -1.3206   -0.9954 O   0  0  0  0  0  0  0  0  0  0  0  0
    3.1281   -0.9656    1.2484 N   0  0  0  0  0  0  0  0  0  0  0  0
    4.5707   -0.9361    1.3126 C   0  0  1  0  0  0  0  0  0  0  0  0
    5.1686    0.2985    2.0068 C   0  0  0  0  0  0  0  0  0  0  0  0
    6.6005   -0.1381    2.3182 C   0  0  0  0  0  0  0  0  0  0  0  0
    6.4811   -1.5845    2.5400 N   0  0  0  0  0  0  0  0  0  0  0  0
    7.5476   -2.2719    3.0722 C   0  0  0  0  0  0  0  0  0  0  0  0
    8.5884   -1.6689    3.3264 O   0  0  0  0  0  0  0  0  0  0  0  0
    7.3299   -3.7259    3.3144 C   0  0  0  0  0  0  0  0  0  0  0  0
    8.2634   -4.6356    3.6768 C   0  0  0  0  0  0  0  0  0  0  0  0
    9.7219   -4.3420    3.8992 C   0  0  0  0  0  0  0  0  0  0  0  0
    7.8665   -6.0747    3.8865 C   0  0  0  0  0  0  0  0  0  0  0  0
    5.1947   -2.1123    2.0970 C   0  0  0  0  0  0  0  0  0  0  0  0
    0.5170   -2.0620   -0.2074 H   0  0  0  0  0  0  0  0  0  0  0  0
    0.5283   -0.3045   -0.4100 H   0  0  0  0  0  0  0  0  0  0  0  0
    0.5593   -1.0038    1.2403 H   0  0  0  0  0  0  0  0  0  0  0  0
    2.6079   -0.8282    2.1072 H   0  0  0  0  0  0  0  0  0  0  0  0
    4.9130   -0.9791    0.2680 H   0  0  0  0  0  0  0  0  0  0  0  0
    4.6174    0.5016    2.9425 H   0  0  0  0  0  0  0  0  0  0  0  0
    5.1163    1.2027    1.3832 H   0  0  0  0  0  0  0  0  0  0  0  0
    7.0358    0.3496    3.2025 H   0  0  0  0  0  0  0  0  0  0  0  0
    7.2855    0.0684    1.4755 H   0  0  0  0  0  0  0  0  0  0  0  0
    6.3087   -4.0930    3.1875 H   0  0  0  0  0  0  0  0  0  0  0  0
    9.9688   -3.2984    3.6815 H   0  0  0  0  0  0  0  0  0  0  0  0
   10.3398   -5.0178    3.2820 H   0  0  0  0  0  0  0  0  0  0  0  0
    9.9867   -4.5586    4.9500 H   0  0  0  0  0  0  0  0  0  0  0  0
    6.7906   -6.2440    3.7340 H   0  0  0  0  0  0  0  0  0  0  0  0
    8.1301   -6.4046    4.9069 H   0  0  0  0  0  0  0  0  0  0  0  0
    8.4232   -6.7343    3.1973 H   0  0  0  0  0  0  0  0  0  0  0  0
    4.5422   -2.3865    2.9500 H   0  0  0  0  0  0  0  0  0  0  0  0
    5.3024   -3.0047    1.4615 H   0  0  0  0  0  0  0  0  0  0  0  0
  1  2  1  0
  1 16  1  0
  1 17  1  0
  1 18  1  0
  2  3  2  0
  2  4  1  0
  4  5  1  0
  4 19  1  0
  5  6  1  0
  5 15  1  0
  5 20  1  6
  6  7  1  0
  6 21  1  0
  6 22  1  0
  7  8  1  0
  7 23  1  0
  7 24  1  0
  8  9  1  0
  8 15  1  0
  9 10  2  0
  9 11  1  0
 11 12  2  0
 11 25  1  0
 12 13  1  0
 12 14  1  0
 13 26  1  0
 13 27  1  0
 13 28  1  0
 14 29  1  0
 14 30  1  0
 14 31  1  0
 15 32  1  0
 15 33  1  0
M  END

