
     RDKit          3D

 52 56  0  0  0  0  0  0  0  0999 V2000
    2.3715    1.5052    2.6326 C   0  0  0  0  0  0  0  0  0  0  0  0
    3.6569    1.2610    1.8807 C   0  0  0  0  0  0  0  0  0  0  0  0
    4.5685    0.2753    2.2880 C   0  0  0  0  0  0  0  0  0  0  0  0
    5.7687    0.0643    1.6053 C   0  0  0  0  0  0  0  0  0  0  0  0
    6.0712    0.8262    0.4698 C   0  0  0  0  0  0  0  0  0  0  0  0
    7.6268    0.6755   -0.4086 S   0  0  0  0  0  0  0  0  0  0  0  0
    7.9357   -1.0845   -0.4664 C   0  0  0  0  0  0  0  0  0  0  0  0
    9.1616   -1.5073    0.0672 C   0  0  0  0  0  0  0  0  0  0  0  0
    9.5538   -2.8365   -0.0219 C   0  0  0  0  0  0  0  0  0  0  0  0
    8.6848   -3.7859   -0.5680 C   0  0  0  0  0  0  0  0  0  0  0  0
    7.4134   -3.4020   -1.0686 C   0  0  0  0  0  0  0  0  0  0  0  0
    7.0720   -2.0182   -1.1038 C   0  0  0  0  0  0  0  0  0  0  0  0
    5.6235   -1.3432   -1.8974 S   0  0  0  0  0  0  0  0  0  0  0  0
    5.5839   -2.1417   -3.4959 C   0  0  0  0  0  0  0  0  0  0  0  0
    4.3655   -2.6469   -3.9656 C   0  0  0  0  0  0  0  0  0  0  0  0
    4.2745   -3.1623   -5.2611 C   0  0  0  0  0  0  0  0  0  0  0  0
    5.3920   -3.2131   -6.1071 C   0  0  0  0  0  0  0  0  0  0  0  0
    5.3036   -3.8068   -7.4918 C   0  0  0  0  0  0  0  0  0  0  0  0
    6.6095   -2.7083   -5.6172 C   0  0  0  0  0  0  0  0  0  0  0  0
    6.7075   -2.1663   -4.3361 C   0  0  0  0  0  0  0  0  0  0  0  0
    6.4350   -4.4833   -1.4285 C   0  0  0  0  0  0  0  0  0  0  0  0
    5.2548   -4.2610   -1.6332 O   0  0  0  0  0  0  0  0  0  0  0  0
    6.9358   -5.8957   -1.4888 C   0  0  0  0  0  0  0  0  0  0  0  0
    6.0620   -6.8955   -1.9423 C   0  0  0  0  0  0  0  0  0  0  0  0
    6.4898   -8.2203   -2.0150 C   0  0  0  0  0  0  0  0  0  0  0  0
    7.7931   -8.5643   -1.6275 C   0  0  0  0  0  0  0  0  0  0  0  0
    8.6648   -7.5794   -1.1675 C   0  0  0  0  0  0  0  0  0  0  0  0
    8.2409   -6.2439   -1.0987 C   0  0  0  0  0  0  0  0  0  0  0  0
    9.1717   -5.2042   -0.5894 C   0  0  0  0  0  0  0  0  0  0  0  0
   10.2952   -5.4874   -0.2055 O   0  0  0  0  0  0  0  0  0  0  0  0
    5.1652    1.8077    0.0407 C   0  0  0  0  0  0  0  0  0  0  0  0
    3.9827    2.0248    0.7473 C   0  0  0  0  0  0  0  0  0  0  0  0
    2.1981    0.7355    3.3990 H   0  0  0  0  0  0  0  0  0  0  0  0
    1.5031    1.5088    1.9537 H   0  0  0  0  0  0  0  0  0  0  0  0
    2.3859    2.4848    3.1408 H   0  0  0  0  0  0  0  0  0  0  0  0
    4.3422   -0.3368    3.1658 H   0  0  0  0  0  0  0  0  0  0  0  0
    6.4679   -0.6969    1.9581 H   0  0  0  0  0  0  0  0  0  0  0  0
    9.8094   -0.7673    0.5421 H   0  0  0  0  0  0  0  0  0  0  0  0
   10.5207   -3.1752    0.3528 H   0  0  0  0  0  0  0  0  0  0  0  0
    3.4931   -2.6457   -3.3097 H   0  0  0  0  0  0  0  0  0  0  0  0
    3.3136   -3.5470   -5.6150 H   0  0  0  0  0  0  0  0  0  0  0  0
    4.2608   -3.8834   -7.8341 H   0  0  0  0  0  0  0  0  0  0  0  0
    5.7349   -4.8230   -7.5174 H   0  0  0  0  0  0  0  0  0  0  0  0
    5.8603   -3.2032   -8.2262 H   0  0  0  0  0  0  0  0  0  0  0  0
    7.4953   -2.7215   -6.2594 H   0  0  0  0  0  0  0  0  0  0  0  0
    7.6568   -1.7515   -3.9900 H   0  0  0  0  0  0  0  0  0  0  0  0
    5.0514   -6.6046   -2.2335 H   0  0  0  0  0  0  0  0  0  0  0  0
    5.8058   -8.9936   -2.3742 H   0  0  0  0  0  0  0  0  0  0  0  0
    8.1237   -9.6045   -1.6835 H   0  0  0  0  0  0  0  0  0  0  0  0
    9.6823   -7.8153   -0.8503 H   0  0  0  0  0  0  0  0  0  0  0  0
    5.3847    2.3915   -0.8563 H   0  0  0  0  0  0  0  0  0  0  0  0
    3.2881    2.7949    0.3986 H   0  0  0  0  0  0  0  0  0  0  0  0
  1  2  1  0
  1 33  1  0
  1 34  1  0
  1 35  1  0
  2  3  2  0
  2 32  1  0
  3  4  1  0
  3 36  1  0
  4  5  2  0
  4 37  1  0
  5  6  1  0
  5 31  1  0
  6  7  2  0
  7  8  1  0
  7 12  1  0
  8  9  2  0
  8 38  1  0
  9 10  1  0
  9 39  1  0
 10 11  2  0
 10 29  1  0
 11 12  1  0
 11 21  1  0
 12 13  2  0
 13 14  1  0
 14 15  2  0
 14 20  1  0
 15 16  1  0
 15 40  1  0
 16 17  2  0
 16 41  1  0
 17 18  1  0
 17 19  1  0
 18 42  1  0
 18 43  1  0
 18 44  1  0
 19 20  2  0
 19 45  1  0
 20 46  1  0
 21 22  1  0
 21 23  2  0
 23 24  1  0
 23 28  1  0
 24 25  2  0
 24 47  1  0
 25 26  1  0
 25 48  1  0
 26 27  2  0
 26 49  1  0
 27 28  1  0
 27 50  1  0
 28 29  2  0
 29 30  1  0
 31 32  2  0
 31 51  1  0
 32 52  1  0
M  CHG  4   6   1  13   1  22  -1  30  -1
M  END

