
     RDKit          3D

 67 71  0  0  0  0  0  0  0  0999 V2000
    3.7320    0.8153   -0.7264 C   0  0  0  0  0  0  0  0  0  0  0  0
    2.4607    0.1401   -0.1612 C   0  0  1  0  0  0  0  0  0  0  0  0
    1.4070    1.2235    0.1670 C   0  0  0  0  0  0  0  0  0  0  0  0
    1.8803   -0.7762   -1.2534 C   0  0  0  0  0  0  0  0  0  0  0  0
    2.8157   -0.6380    1.1221 C   0  0  0  0  0  0  0  0  0  0  0  0
    3.3692    0.0548    2.2276 C   0  0  0  0  0  0  0  0  0  0  0  0
    3.7120   -0.5727    3.4235 C   0  0  0  0  0  0  0  0  0  0  0  0
    3.4901   -1.9507    3.5317 C   0  0  0  0  0  0  0  0  0  0  0  0
    2.9571   -2.6792    2.4408 C   0  0  0  0  0  0  0  0  0  0  0  0
    2.6214   -2.0178    1.2496 C   0  0  0  0  0  0  0  0  0  0  0  0
    2.8994   -4.0695    2.8521 C   0  0  0  0  0  0  0  0  0  0  0  0
    2.4504   -5.2384    2.2186 C   0  0  0  0  0  0  0  0  0  0  0  0
    2.4895   -6.4687    2.8838 C   0  0  0  0  0  0  0  0  0  0  0  0
    2.0148   -7.7847    2.2346 C   0  0  1  0  0  0  0  0  0  0  0  0
    3.1891   -8.7899    2.1879 C   0  0  0  0  0  0  0  0  0  0  0  0
    0.8580   -8.3853    3.0669 C   0  0  0  0  0  0  0  0  0  0  0  0
    1.5092   -7.5729    0.7963 C   0  0  0  0  0  0  0  0  0  0  0  0
    2.9846   -6.4849    4.2116 C   0  0  0  0  0  0  0  0  0  0  0  0
    3.4383   -5.3425    4.8675 C   0  0  0  0  0  0  0  0  0  0  0  0
    3.4059   -4.1274    4.1731 C   0  0  0  0  0  0  0  0  0  0  0  0
    3.7642   -2.8351    4.5864 N   0  0  0  0  0  0  0  0  0  0  0  0
    4.3039   -2.4874    5.8432 C   0  0  0  0  0  0  0  0  0  0  0  0
    5.4074   -3.1900    6.3639 C   0  0  0  0  0  0  0  0  0  0  0  0
    5.9358   -2.8452    7.6023 C   0  0  0  0  0  0  0  0  0  0  0  0
    5.3775   -1.8019    8.3644 C   0  0  0  0  0  0  0  0  0  0  0  0
    6.0410   -1.4534    9.6615 C   0  0  0  0  0  0  0  0  0  0  0  0
    7.1964   -1.7784    9.8732 O   0  0  0  0  0  0  0  0  0  0  0  0
    5.2886   -0.6944   10.7281 C   0  0  0  0  0  0  0  0  0  0  0  0
    6.0095    0.1683   11.5670 C   0  0  0  0  0  0  0  0  0  0  0  0
    5.3359    0.8290   12.5955 C   0  0  0  0  0  0  0  0  0  0  0  0
    4.0327    0.6664   12.8471 N   0  0  0  0  0  0  0  0  0  0  0  0
    3.3525   -0.1753   12.0674 C   0  0  0  0  0  0  0  0  0  0  0  0
    3.9238   -0.8718   10.9960 C   0  0  0  0  0  0  0  0  0  0  0  0
    4.2856   -1.0939    7.8323 C   0  0  0  0  0  0  0  0  0  0  0  0
    3.7527   -1.4318    6.5888 C   0  0  0  0  0  0  0  0  0  0  0  0
    3.4948    1.3782   -1.6445 H   0  0  0  0  0  0  0  0  0  0  0  0
    4.4993    0.0651   -0.9754 H   0  0  0  0  0  0  0  0  0  0  0  0
    4.1766    1.5224   -0.0096 H   0  0  0  0  0  0  0  0  0  0  0  0
    1.1425    1.7929   -0.7395 H   0  0  0  0  0  0  0  0  0  0  0  0
    1.7754    1.9423    0.9149 H   0  0  0  0  0  0  0  0  0  0  0  0
    0.4855    0.7695    0.5652 H   0  0  0  0  0  0  0  0  0  0  0  0
    1.6393   -0.1828   -2.1495 H   0  0  0  0  0  0  0  0  0  0  0  0
    0.9522   -1.2700   -0.9255 H   0  0  0  0  0  0  0  0  0  0  0  0
    2.5950   -1.5569   -1.5575 H   0  0  0  0  0  0  0  0  0  0  0  0
    3.5440    1.1303    2.1517 H   0  0  0  0  0  0  0  0  0  0  0  0
    4.1486    0.0035    4.2402 H   0  0  0  0  0  0  0  0  0  0  0  0
    2.2124   -2.6020    0.4252 H   0  0  0  0  0  0  0  0  0  0  0  0
    2.0663   -5.1664    1.2010 H   0  0  0  0  0  0  0  0  0  0  0  0
    3.5737   -9.0204    3.1932 H   0  0  0  0  0  0  0  0  0  0  0  0
    4.0262   -8.3908    1.5931 H   0  0  0  0  0  0  0  0  0  0  0  0
    2.8670   -9.7395    1.7292 H   0  0  0  0  0  0  0  0  0  0  0  0
    1.1648   -8.6038    4.1011 H   0  0  0  0  0  0  0  0  0  0  0  0
    0.5085   -9.3296    2.6175 H   0  0  0  0  0  0  0  0  0  0  0  0
    0.0029   -7.6921    3.1114 H   0  0  0  0  0  0  0  0  0  0  0  0
    2.2962   -7.1707    0.1392 H   0  0  0  0  0  0  0  0  0  0  0  0
    0.6484   -6.8870    0.7596 H   0  0  0  0  0  0  0  0  0  0  0  0
    1.1828   -8.5345    0.3698 H   0  0  0  0  0  0  0  0  0  0  0  0
    3.0154   -7.4294    4.7594 H   0  0  0  0  0  0  0  0  0  0  0  0
    3.7987   -5.4060    5.8951 H   0  0  0  0  0  0  0  0  0  0  0  0
    5.8599   -3.9904    5.7763 H   0  0  0  0  0  0  0  0  0  0  0  0
    6.8077   -3.3678    8.0002 H   0  0  0  0  0  0  0  0  0  0  0  0
    7.0806    0.3076   11.4094 H   0  0  0  0  0  0  0  0  0  0  0  0
    5.8779    1.5198   13.2519 H   0  0  0  0  0  0  0  0  0  0  0  0
    2.2896   -0.3101   12.3011 H   0  0  0  0  0  0  0  0  0  0  0  0
    3.3133   -1.5570   10.4051 H   0  0  0  0  0  0  0  0  0  0  0  0
    3.8484   -0.2605    8.3845 H   0  0  0  0  0  0  0  0  0  0  0  0
    2.8936   -0.8862    6.1956 H   0  0  0  0  0  0  0  0  0  0  0  0
  2  1  1  6
  1 36  1  0
  1 37  1  0
  1 38  1  0
  2  3  1  0
  2  4  1  0
  2  5  1  0
  3 39  1  0
  3 40  1  0
  3 41  1  0
  4 42  1  0
  4 43  1  0
  4 44  1  0
  5  6  2  0
  5 10  1  0
  6  7  1  0
  6 45  1  0
  7  8  2  0
  7 46  1  0
  8  9  1  0
  8 21  1  0
  9 10  2  0
  9 11  1  0
 10 47  1  0
 11 12  2  0
 11 20  1  0
 12 13  1  0
 12 48  1  0
 13 14  1  0
 13 18  2  0
 14 15  1  6
 14 16  1  0
 14 17  1  0
 15 49  1  0
 15 50  1  0
 15 51  1  0
 16 52  1  0
 16 53  1  0
 16 54  1  0
 17 55  1  0
 17 56  1  0
 17 57  1  0
 18 19  1  0
 18 58  1  0
 19 20  2  0
 19 59  1  0
 20 21  1  0
 21 22  1  0
 22 23  2  0
 22 35  1  0
 23 24  1  0
 23 60  1  0
 24 25  2  0
 24 61  1  0
 25 26  1  0
 25 34  1  0
 26 27  2  0
 26 28  1  0
 28 29  2  0
 28 33  1  0
 29 30  1  0
 29 62  1  0
 30 31  2  0
 30 63  1  0
 31 32  1  0
 32 33  2  0
 32 64  1  0
 33 65  1  0
 34 35  2  0
 34 66  1  0
 35 67  1  0
M  END

