
     RDKit          3D

 51 55  0  0  0  0  0  0  0  0999 V2000
    1.6697    0.6504    0.7923 C   0  0  0  0  0  0  0  0  0  0  0  0
    3.1476    0.4038    0.5340 C   0  0  1  0  0  0  0  0  0  0  0  0
    4.0175    0.6327    1.7628 C   0  0  0  0  0  0  0  0  0  0  0  0
    3.2647   -0.9644    0.1244 O   0  0  0  0  0  0  0  0  0  0  0  0
    4.0379   -1.4218   -0.8801 C   0  0  0  0  0  0  0  0  0  0  0  0
    4.0581   -2.5902   -1.1401 O   0  0  0  0  0  0  0  0  0  0  0  0
    4.8676   -0.3936   -1.6809 C   0  0  1  0  0  0  0  0  0  0  0  0
    4.4848    1.0781   -1.4297 C   0  0  0  0  0  0  0  0  0  0  0  0
    4.9725    1.9810   -2.0439 O   0  0  0  0  0  0  0  0  0  0  0  0
    3.5357    1.3191   -0.4968 O   0  0  0  0  0  0  0  0  0  0  0  0
    6.4347   -0.5601   -1.4445 C   0  0  1  0  0  0  0  0  0  0  0  0
    6.8866   -1.1530   -0.1384 C   0  0  0  0  0  0  0  0  0  0  0  0
    6.8035   -2.4480    0.3191 C   0  0  0  0  0  0  0  0  0  0  0  0
    7.3952   -2.6292    1.6057 C   0  0  0  0  0  0  0  0  0  0  0  0
    7.9316   -1.4740    2.1144 C   0  0  0  0  0  0  0  0  0  0  0  0
    7.7214   -0.1473    1.0264 S   0  0  0  0  0  0  0  0  0  0  0  0
    6.8382   -1.3024   -2.7252 C   0  0  0  0  0  0  0  0  0  0  0  0
    8.1682   -1.8484   -3.0309 C   0  0  0  0  0  0  0  0  0  0  0  0
    8.3281   -2.7171   -4.1315 C   0  0  0  0  0  0  0  0  0  0  0  0
    9.5829   -3.2209   -4.4638 C   0  0  0  0  0  0  0  0  0  0  0  0
   10.7090   -2.8725   -3.7072 C   0  0  0  0  0  0  0  0  0  0  0  0
   10.5640   -2.0140   -2.6153 C   0  0  0  0  0  0  0  0  0  0  0  0
    9.3067   -1.5075   -2.2763 C   0  0  0  0  0  0  0  0  0  0  0  0
    5.8893   -1.3114   -3.5926 N   0  0  0  0  0  0  0  0  0  0  0  0
    4.7690   -0.7276   -3.1113 N   0  0  0  0  0  0  0  0  0  0  0  0
    3.5909   -0.7465   -3.8748 C   0  0  0  0  0  0  0  0  0  0  0  0
    3.6107   -1.2770   -5.1812 C   0  0  0  0  0  0  0  0  0  0  0  0
    2.4502   -1.2867   -5.9508 C   0  0  0  0  0  0  0  0  0  0  0  0
    1.2465   -0.7756   -5.4512 C   0  0  0  0  0  0  0  0  0  0  0  0
    1.2264   -0.2484   -4.1600 C   0  0  0  0  0  0  0  0  0  0  0  0
    2.3825   -0.2284   -3.3745 C   0  0  0  0  0  0  0  0  0  0  0  0
    1.3167   -0.0156    1.5916 H   0  0  0  0  0  0  0  0  0  0  0  0
    1.0895    0.4475   -0.1187 H   0  0  0  0  0  0  0  0  0  0  0  0
    1.5128    1.6956    1.0928 H   0  0  0  0  0  0  0  0  0  0  0  0
    3.7192   -0.0603    2.5621 H   0  0  0  0  0  0  0  0  0  0  0  0
    3.8965    1.6667    2.1159 H   0  0  0  0  0  0  0  0  0  0  0  0
    5.0777    0.4618    1.5311 H   0  0  0  0  0  0  0  0  0  0  0  0
    6.8549    0.4564   -1.5309 H   0  0  0  0  0  0  0  0  0  0  0  0
    6.3292   -3.2460   -0.2521 H   0  0  0  0  0  0  0  0  0  0  0  0
    7.4246   -3.5856    2.1299 H   0  0  0  0  0  0  0  0  0  0  0  0
    8.4426   -1.3274    3.0651 H   0  0  0  0  0  0  0  0  0  0  0  0
    7.4489   -2.9908   -4.7167 H   0  0  0  0  0  0  0  0  0  0  0  0
    9.6852   -3.8949   -5.3183 H   0  0  0  0  0  0  0  0  0  0  0  0
   11.6927   -3.2711   -3.9680 H   0  0  0  0  0  0  0  0  0  0  0  0
   11.4356   -1.7329   -2.0187 H   0  0  0  0  0  0  0  0  0  0  0  0
    9.2197   -0.8378   -1.4203 H   0  0  0  0  0  0  0  0  0  0  0  0
    4.5443   -1.6758   -5.5733 H   0  0  0  0  0  0  0  0  0  0  0  0
    2.4892   -1.7036   -6.9607 H   0  0  0  0  0  0  0  0  0  0  0  0
    0.3407   -0.7873   -6.0613 H   0  0  0  0  0  0  0  0  0  0  0  0
    0.3006    0.1612   -3.7476 H   0  0  0  0  0  0  0  0  0  0  0  0
    2.3226    0.2052   -2.3781 H   0  0  0  0  0  0  0  0  0  0  0  0
  2  1  1  1
  1 32  1  0
  1 33  1  0
  1 34  1  0
  2  3  1  0
  2  4  1  0
  2 10  1  0
  3 35  1  0
  3 36  1  0
  3 37  1  0
  4  5  1  0
  5  6  2  0
  7  5  1  1
  7  8  1  0
  7 11  1  0
  7 25  1  0
  8  9  2  0
  8 10  1  0
 11 12  1  0
 11 17  1  0
 11 38  1  6
 12 13  2  0
 12 16  1  0
 13 14  1  0
 13 39  1  0
 14 15  2  0
 14 40  1  0
 15 16  1  0
 15 41  1  0
 17 18  1  0
 17 24  2  0
 18 19  2  0
 18 23  1  0
 19 20  1  0
 19 42  1  0
 20 21  2  0
 20 43  1  0
 21 22  1  0
 21 44  1  0
 22 23  2  0
 22 45  1  0
 23 46  1  0
 24 25  1  0
 25 26  1  0
 26 27  2  0
 26 31  1  0
 27 28  1  0
 27 47  1  0
 28 29  2  0
 28 48  1  0
 29 30  1  0
 29 49  1  0
 30 31  2  0
 30 50  1  0
 31 51  1  0
M  END

