
     RDKit          3D

 37 38  0  0  0  0  0  0  0  0999 V2000
    1.0848   -0.2659    0.5159 O   0  0  0  0  0  0  0  0  0  0  0  0
    1.9576    0.0308   -0.2847 C   0  0  0  0  0  0  0  0  0  0  0  0
    2.3648   -0.8078   -1.2905 N   0  0  0  0  0  0  0  0  0  0  0  0
    1.8424   -2.1592   -1.4118 C   0  0  0  0  0  0  0  0  0  0  0  0
    2.6473   -3.2039   -0.6267 C   0  0  0  0  0  0  0  0  0  0  0  0
    2.0888   -4.6314   -0.7156 C   0  0  0  0  0  0  0  0  0  0  0  0
    2.1515   -5.2578   -2.0971 C   0  0  1  0  0  0  0  0  0  0  0  0
    1.3166   -6.4690   -2.4251 C   0  0  0  0  0  0  0  0  0  0  0  0
    1.0021   -5.1433   -3.0716 C   0  0  0  0  0  0  0  0  0  0  0  0
    2.6369    1.2517   -0.2976 N   0  0  0  0  0  0  0  0  0  0  0  0
    2.4977    2.3193    0.5695 C   0  0  0  0  0  0  0  0  0  0  0  0
    1.6509    2.2773    1.7023 C   0  0  0  0  0  0  0  0  0  0  0  0
    1.5700    3.3512    2.5785 C   0  0  0  0  0  0  0  0  0  0  0  0
    2.3332    4.5052    2.3580 C   0  0  0  0  0  0  0  0  0  0  0  0
    2.2545    5.9589    3.5884 Br  0  0  0  0  0  0  0  0  0  0  0  0
    3.1545    4.5820    1.2423 C   0  0  0  0  0  0  0  0  0  0  0  0
    3.2365    3.5187    0.3203 C   0  0  0  0  0  0  0  0  0  0  0  0
    4.0987    3.6475   -0.8919 C   0  0  0  0  0  0  0  0  0  0  0  0
    4.4418    2.7096   -1.5868 O   0  0  0  0  0  0  0  0  0  0  0  0
    4.5066    4.8817   -1.2367 O   0  0  0  0  0  0  0  0  0  0  0  0
    3.1603   -0.5486   -1.8621 H   0  0  0  0  0  0  0  0  0  0  0  0
    1.8075   -2.4182   -2.4814 H   0  0  0  0  0  0  0  0  0  0  0  0
    0.8061   -2.1394   -1.0433 H   0  0  0  0  0  0  0  0  0  0  0  0
    2.6728   -2.8900    0.4301 H   0  0  0  0  0  0  0  0  0  0  0  0
    3.6949   -3.1961   -0.9808 H   0  0  0  0  0  0  0  0  0  0  0  0
    1.0427   -4.6411   -0.3585 H   0  0  0  0  0  0  0  0  0  0  0  0
    2.6523   -5.2686   -0.0110 H   0  0  0  0  0  0  0  0  0  0  0  0
    3.1535   -5.2427   -2.5446 H   0  0  0  0  0  0  0  0  0  0  0  0
    0.6316   -6.8373   -1.6547 H   0  0  0  0  0  0  0  0  0  0  0  0
    1.7583   -7.2576   -3.0410 H   0  0  0  0  0  0  0  0  0  0  0  0
    0.1018   -4.6162   -2.7403 H   0  0  0  0  0  0  0  0  0  0  0  0
    1.2255   -5.0158   -4.1351 H   0  0  0  0  0  0  0  0  0  0  0  0
    3.3469    1.4187   -1.0164 H   0  0  0  0  0  0  0  0  0  0  0  0
    1.0670    1.3756    1.8724 H   0  0  0  0  0  0  0  0  0  0  0  0
    0.9151    3.2881    3.4496 H   0  0  0  0  0  0  0  0  0  0  0  0
    3.7653    5.4783    1.1128 H   0  0  0  0  0  0  0  0  0  0  0  0
    4.0545    5.5544   -0.7091 H   0  0  0  0  0  0  0  0  0  0  0  0
  1  2  2  0
  2  3  1  0
  2 10  1  0
  3  4  1  0
  3 21  1  0
  4  5  1  0
  4 22  1  0
  4 23  1  0
  5  6  1  0
  5 24  1  0
  5 25  1  0
  6  7  1  0
  6 26  1  0
  6 27  1  0
  7  8  1  0
  7  9  1  0
  7 28  1  6
  8  9  1  0
  8 29  1  0
  8 30  1  0
  9 31  1  0
  9 32  1  0
 10 11  1  0
 10 33  1  0
 11 12  2  0
 11 17  1  0
 12 13  1  0
 12 34  1  0
 13 14  2  0
 13 35  1  0
 14 15  1  0
 14 16  1  0
 16 17  2  0
 16 36  1  0
 17 18  1  0
 18 19  2  0
 18 20  1  0
 20 37  1  0
M  END

