
     RDKit          3D

 40 42  0  0  0  0  0  0  0  0999 V2000
    1.0538   -0.1127   -0.0308 O   0  0  0  0  0  0  0  0  0  0  0  0
    2.1105    0.1537    0.4752 C   0  0  0  0  0  0  0  0  0  0  0  0
    2.4190    1.4437    0.7490 O   0  0  0  0  0  0  0  0  0  0  0  0
    3.1795   -0.8742    0.8679 C   0  0  1  0  0  0  0  0  0  0  0  0
    2.7149   -2.3123    0.5810 C   0  0  0  0  0  0  0  0  0  0  0  0
    2.7320   -2.6538   -0.9176 C   0  0  0  0  0  0  0  0  0  0  0  0
    4.0848   -2.3672   -1.5912 C   0  0  2  0  0  0  0  0  0  0  0  0
    5.0840   -3.3224   -1.1353 N   0  0  0  0  0  0  0  0  0  0  0  0
    6.2173   -3.6792   -1.8287 C   0  0  0  0  0  0  0  0  0  0  0  0
    6.6533   -3.0893   -3.0320 C   0  0  0  0  0  0  0  0  0  0  0  0
    7.8222   -3.5152   -3.6657 C   0  0  0  0  0  0  0  0  0  0  0  0
    8.6153   -4.5470   -3.1361 C   0  0  0  0  0  0  0  0  0  0  0  0
    9.8383   -4.9881   -3.7970 C   0  0  0  0  0  0  0  0  0  0  0  0
   10.7824   -5.9468   -3.5039 C   0  0  0  0  0  0  0  0  0  0  0  0
   11.7564   -5.8967   -4.5517 C   0  0  0  0  0  0  0  0  0  0  0  0
   11.3410   -4.9163   -5.4066 C   0  0  0  0  0  0  0  0  0  0  0  0
   10.1854   -4.3623   -4.9590 O   0  0  0  0  0  0  0  0  0  0  0  0
    8.1874   -5.1496   -1.9328 C   0  0  0  0  0  0  0  0  0  0  0  0
    7.0320   -4.7168   -1.3184 C   0  0  0  0  0  0  0  0  0  0  0  0
    6.6227   -5.3047   -0.1679 F   0  0  0  0  0  0  0  0  0  0  0  0
    4.5086   -0.9052   -1.3169 C   0  0  0  0  0  0  0  0  0  0  0  0
    4.5401   -0.5965    0.1837 C   0  0  0  0  0  0  0  0  0  0  0  0
    3.2895    1.5043    1.1675 H   0  0  0  0  0  0  0  0  0  0  0  0
    3.3136   -0.7568    1.9599 H   0  0  0  0  0  0  0  0  0  0  0  0
    1.6992   -2.4593    0.9768 H   0  0  0  0  0  0  0  0  0  0  0  0
    3.3728   -2.9997    1.1411 H   0  0  0  0  0  0  0  0  0  0  0  0
    1.9601   -2.0534   -1.4207 H   0  0  0  0  0  0  0  0  0  0  0  0
    2.4619   -3.7123   -1.0691 H   0  0  0  0  0  0  0  0  0  0  0  0
    3.9547   -2.4912   -2.6819 H   0  0  0  0  0  0  0  0  0  0  0  0
    4.8418   -3.9320   -0.3651 H   0  0  0  0  0  0  0  0  0  0  0  0
    6.0719   -2.2841   -3.4821 H   0  0  0  0  0  0  0  0  0  0  0  0
    8.1291   -3.0348   -4.5958 H   0  0  0  0  0  0  0  0  0  0  0  0
   10.7839   -6.6105   -2.6426 H   0  0  0  0  0  0  0  0  0  0  0  0
   12.6485   -6.5112   -4.6539 H   0  0  0  0  0  0  0  0  0  0  0  0
   11.7386   -4.5119   -6.3336 H   0  0  0  0  0  0  0  0  0  0  0  0
    8.7470   -5.9605   -1.4638 H   0  0  0  0  0  0  0  0  0  0  0  0
    3.8002   -0.2321   -1.8315 H   0  0  0  0  0  0  0  0  0  0  0  0
    5.5001   -0.7124   -1.7554 H   0  0  0  0  0  0  0  0  0  0  0  0
    4.8700    0.4439    0.3483 H   0  0  0  0  0  0  0  0  0  0  0  0
    5.3016   -1.2327    0.6640 H   0  0  0  0  0  0  0  0  0  0  0  0
  1  2  2  0
  2  3  1  0
  2  4  1  0
  3 23  1  0
  4  5  1  0
  4 22  1  0
  4 24  1  1
  5  6  1  0
  5 25  1  0
  5 26  1  0
  6  7  1  0
  6 27  1  0
  6 28  1  0
  7  8  1  0
  7 21  1  0
  7 29  1  6
  8  9  1  0
  8 30  1  0
  9 10  2  0
  9 19  1  0
 10 11  1  0
 10 31  1  0
 11 12  2  0
 11 32  1  0
 12 13  1  0
 12 18  1  0
 13 14  2  0
 13 17  1  0
 14 15  1  0
 14 33  1  0
 15 16  2  0
 15 34  1  0
 16 17  1  0
 16 35  1  0
 18 19  2  0
 18 36  1  0
 19 20  1  0
 21 22  1  0
 21 37  1  0
 21 38  1  0
 22 39  1  0
 22 40  1  0
M  END

