
     RDKit          3D

 36 36  0  0  0  0  0  0  0  0999 V2000
   10.7025   -4.0549   -0.1759 C   0  0  0  0  0  0  0  0  0  0  0  0
   10.5464   -4.0041    1.2268 O   0  0  0  0  0  0  0  0  0  0  0  0
    9.3110   -3.8520    1.7548 C   0  0  0  0  0  0  0  0  0  0  0  0
    9.2312   -3.8142    3.1570 C   0  0  0  0  0  0  0  0  0  0  0  0
    8.0009   -3.6631    3.7923 C   0  0  0  0  0  0  0  0  0  0  0  0
    6.8072   -3.5470    3.0588 C   0  0  0  0  0  0  0  0  0  0  0  0
    5.4281   -3.4225    3.7029 C   0  0  2  0  0  0  0  0  0  0  0  0
    4.8816   -2.6581    3.1255 H   0  0  0  0  0  0  0  0  0  0  0  0
    5.4449   -2.9579    5.1648 C   0  0  0  0  0  0  0  0  0  0  0  0
    4.6596   -4.6817    3.4847 N   0  0  0  0  0  0  0  0  0  0  0  0
    5.1430   -5.8594    4.2060 C   0  0  0  0  0  0  0  0  0  0  0  0
    5.1434   -7.1142    3.3263 C   0  0  0  0  0  0  0  0  0  0  0  0
    4.7116   -8.1773    3.6751 O   0  0  0  0  0  0  0  0  0  0  0  0
    5.6978   -6.9410    2.1077 O   0  0  0  0  0  0  0  0  0  0  0  0
    3.2089   -4.5091    3.5132 C   0  0  0  0  0  0  0  0  0  0  0  0
    2.6599   -3.9451    2.1942 C   0  0  0  0  0  0  0  0  0  0  0  0
    1.6241   -3.3469    2.1083 O   0  0  0  0  0  0  0  0  0  0  0  0
    3.4370   -4.2270    1.1348 O   0  0  0  0  0  0  0  0  0  0  0  0
    6.9050   -3.5726    1.6577 C   0  0  0  0  0  0  0  0  0  0  0  0
    8.1307   -3.7251    1.0027 C   0  0  0  0  0  0  0  0  0  0  0  0
   11.7754   -4.1908   -0.3650 H   0  0  0  0  0  0  0  0  0  0  0  0
   10.3696   -3.1193   -0.6596 H   0  0  0  0  0  0  0  0  0  0  0  0
   10.1506   -4.9029   -0.6190 H   0  0  0  0  0  0  0  0  0  0  0  0
   10.1558   -3.9052    3.7305 H   0  0  0  0  0  0  0  0  0  0  0  0
    7.9827   -3.6310    4.8834 H   0  0  0  0  0  0  0  0  0  0  0  0
    4.4207   -2.8168    5.5417 H   0  0  0  0  0  0  0  0  0  0  0  0
    5.9681   -1.9944    5.2582 H   0  0  0  0  0  0  0  0  0  0  0  0
    5.9462   -3.6784    5.8291 H   0  0  0  0  0  0  0  0  0  0  0  0
    4.5692   -6.0908    5.1188 H   0  0  0  0  0  0  0  0  0  0  0  0
    6.1894   -5.6922    4.5096 H   0  0  0  0  0  0  0  0  0  0  0  0
    6.0325   -6.0311    2.0261 H   0  0  0  0  0  0  0  0  0  0  0  0
    2.8412   -3.8667    4.3331 H   0  0  0  0  0  0  0  0  0  0  0  0
    2.7314   -5.4940    3.6486 H   0  0  0  0  0  0  0  0  0  0  0  0
    4.2107   -4.7025    1.5018 H   0  0  0  0  0  0  0  0  0  0  0  0
    6.0023   -3.4462    1.0523 H   0  0  0  0  0  0  0  0  0  0  0  0
    8.1539   -3.7299   -0.0871 H   0  0  0  0  0  0  0  0  0  0  0  0
  1  2  1  0
  1 21  1  0
  1 22  1  0
  1 23  1  0
  2  3  1  0
  3  4  2  0
  3 20  1  0
  4  5  1  0
  4 24  1  0
  5  6  2  0
  5 25  1  0
  6  7  1  0
  6 19  1  0
  7  8  1  6
  7  9  1  0
  7 10  1  0
  9 26  1  0
  9 27  1  0
  9 28  1  0
 10 11  1  0
 10 15  1  0
 11 12  1  0
 11 29  1  0
 11 30  1  0
 12 13  2  0
 12 14  1  0
 14 31  1  0
 15 16  1  0
 15 32  1  0
 15 33  1  0
 16 17  2  0
 16 18  1  0
 18 34  1  0
 19 20  2  0
 19 35  1  0
 20 36  1  0
M  END

