
     RDKit          3D

 38 39  0  0  0  0  0  0  0  0999 V2000
    1.2153    0.1393   -0.1019 C   0  0  0  0  0  0  0  0  0  0  0  0
    2.6548    0.2741    0.0739 N   0  0  0  0  0  0  0  0  0  0  0  0
    3.3626   -0.9138    0.5112 C   0  0  0  0  0  0  0  0  0  0  0  0
    3.2450   -1.2379    1.9948 C   0  0  0  0  0  0  0  0  0  0  0  0
    2.9302   -0.2696    2.9544 C   0  0  0  0  0  0  0  0  0  0  0  0
    2.8823   -0.6399    4.3033 C   0  0  0  0  0  0  0  0  0  0  0  0
    3.1225   -1.8771    4.7409 N   0  0  0  0  0  0  0  0  0  0  0  0
    3.4210   -2.8025    3.8248 C   0  0  0  0  0  0  0  0  0  0  0  0
    3.4913   -2.5387    2.4549 C   0  0  0  0  0  0  0  0  0  0  0  0
    3.2508    1.4884   -0.2022 C   0  0  0  0  0  0  0  0  0  0  0  0
    2.6062    2.4503   -0.5872 O   0  0  0  0  0  0  0  0  0  0  0  0
    4.7665    1.5898   -0.0040 C   0  0  0  0  0  0  0  0  0  0  0  0
    5.2541    3.0200   -0.2124 C   0  0  0  0  0  0  0  0  0  0  0  0
    7.0872    3.0435   -0.0216 S   0  0  0  0  0  0  0  0  0  0  0  0
    7.4483    4.7825   -0.2213 C   0  0  0  0  0  0  0  0  0  0  0  0
    8.1369    5.1992   -1.3735 C   0  0  0  0  0  0  0  0  0  0  0  0
    8.5110    6.5318   -1.5555 C   0  0  0  0  0  0  0  0  0  0  0  0
    8.1898    7.4809   -0.5817 C   0  0  0  0  0  0  0  0  0  0  0  0
    7.5059    7.0936    0.5723 C   0  0  0  0  0  0  0  0  0  0  0  0
    7.1477    5.7541    0.7555 C   0  0  0  0  0  0  0  0  0  0  0  0
    6.3219    5.3213    2.2349 Cl  0  0  0  0  0  0  0  0  0  0  0  0
    0.9854   -0.5995   -0.8899 H   0  0  0  0  0  0  0  0  0  0  0  0
    0.8084    1.1140   -0.3936 H   0  0  0  0  0  0  0  0  0  0  0  0
    0.7347   -0.1928    0.8334 H   0  0  0  0  0  0  0  0  0  0  0  0
    4.4287   -0.8275    0.2575 H   0  0  0  0  0  0  0  0  0  0  0  0
    2.9926   -1.7786   -0.0679 H   0  0  0  0  0  0  0  0  0  0  0  0
    2.7153    0.7603    2.6609 H   0  0  0  0  0  0  0  0  0  0  0  0
    2.6352    0.1096    5.0648 H   0  0  0  0  0  0  0  0  0  0  0  0
    3.6124   -3.8162    4.1970 H   0  0  0  0  0  0  0  0  0  0  0  0
    3.7349   -3.3440    1.7556 H   0  0  0  0  0  0  0  0  0  0  0  0
    5.2728    0.9128   -0.7154 H   0  0  0  0  0  0  0  0  0  0  0  0
    5.0444    1.2400    1.0042 H   0  0  0  0  0  0  0  0  0  0  0  0
    4.8007    3.6932    0.5273 H   0  0  0  0  0  0  0  0  0  0  0  0
    4.9828    3.3798   -1.2138 H   0  0  0  0  0  0  0  0  0  0  0  0
    8.3724    4.4497   -2.1319 H   0  0  0  0  0  0  0  0  0  0  0  0
    9.0464    6.8280   -2.4606 H   0  0  0  0  0  0  0  0  0  0  0  0
    8.4711    8.5283   -0.7151 H   0  0  0  0  0  0  0  0  0  0  0  0
    7.2515    7.8215    1.3446 H   0  0  0  0  0  0  0  0  0  0  0  0
  1  2  1  0
  1 22  1  0
  1 23  1  0
  1 24  1  0
  2  3  1  0
  2 10  1  0
  3  4  1  0
  3 25  1  0
  3 26  1  0
  4  5  2  0
  4  9  1  0
  5  6  1  0
  5 27  1  0
  6  7  2  0
  6 28  1  0
  7  8  1  0
  8  9  2  0
  8 29  1  0
  9 30  1  0
 10 11  2  0
 10 12  1  0
 12 13  1  0
 12 31  1  0
 12 32  1  0
 13 14  1  0
 13 33  1  0
 13 34  1  0
 14 15  1  0
 15 16  2  0
 15 20  1  0
 16 17  1  0
 16 35  1  0
 17 18  2  0
 17 36  1  0
 18 19  1  0
 18 37  1  0
 19 20  2  0
 19 38  1  0
 20 21  1  0
M  END

