
     RDKit          3D

 38 39  0  0  0  0  0  0  0  0999 V2000
    0.9329    0.4505    0.8057 C   0  0  0  0  0  0  0  0  0  0  0  0
    2.3504    0.1139    0.3197 C   0  0  1  0  0  0  0  0  0  0  0  0
    2.2889   -0.0460   -0.7749 H   0  0  0  0  0  0  0  0  0  0  0  0
    3.2474    1.2138    0.6823 N   0  0  0  0  0  0  0  0  0  0  0  0
    2.8471   -1.1935    0.9250 C   0  0  0  0  0  0  0  0  0  0  0  0
    3.6619   -1.2072    2.0598 C   0  0  0  0  0  0  0  0  0  0  0  0
    4.1226   -2.3975    2.6344 C   0  0  0  0  0  0  0  0  0  0  0  0
    3.7497   -3.6018    2.0451 C   0  0  0  0  0  0  0  0  0  0  0  0
    4.3577   -5.2529    2.7930 Br  0  0  0  0  0  0  0  0  0  0  0  0
    2.9320   -3.6386    0.9115 C   0  0  0  0  0  0  0  0  0  0  0  0
    2.4762   -2.4348    0.3535 C   0  0  0  0  0  0  0  0  0  0  0  0
    1.6784   -2.3693   -0.7495 O   0  0  0  0  0  0  0  0  0  0  0  0
    1.3339   -3.5329   -1.4921 C   0  0  0  0  0  0  0  0  0  0  0  0
    0.0936   -4.2571   -0.9441 C   0  0  1  0  0  0  0  0  0  0  0  0
   -1.1649   -3.3637   -0.9302 C   0  0  0  0  0  0  0  0  0  0  0  0
   -1.7826   -3.2148   -2.3219 C   0  0  0  0  0  0  0  0  0  0  0  0
   -2.0533   -4.4703   -2.9159 O   0  0  0  0  0  0  0  0  0  0  0  0
   -0.8895   -5.2532   -3.0816 C   0  0  0  0  0  0  0  0  0  0  0  0
   -0.2056   -5.5448   -1.7420 C   0  0  0  0  0  0  0  0  0  0  0  0
    0.5650    1.3714    0.3214 H   0  0  0  0  0  0  0  0  0  0  0  0
    0.9301    0.6084    1.8953 H   0  0  0  0  0  0  0  0  0  0  0  0
    0.2314   -0.3603    0.5632 H   0  0  0  0  0  0  0  0  0  0  0  0
    2.8750    2.0946    0.3279 H   0  0  0  0  0  0  0  0  0  0  0  0
    4.1604    1.0871    0.2434 H   0  0  0  0  0  0  0  0  0  0  0  0
    3.9457   -0.2445    2.4893 H   0  0  0  0  0  0  0  0  0  0  0  0
    4.7587   -2.3830    3.5201 H   0  0  0  0  0  0  0  0  0  0  0  0
    2.6572   -4.6011    0.4851 H   0  0  0  0  0  0  0  0  0  0  0  0
    2.1922   -4.2251   -1.5416 H   0  0  0  0  0  0  0  0  0  0  0  0
    1.1582   -3.1680   -2.5152 H   0  0  0  0  0  0  0  0  0  0  0  0
    0.3212   -4.5429    0.0961 H   0  0  0  0  0  0  0  0  0  0  0  0
   -0.9273   -2.3717   -0.5139 H   0  0  0  0  0  0  0  0  0  0  0  0
   -1.9161   -3.8226   -0.2658 H   0  0  0  0  0  0  0  0  0  0  0  0
   -1.1187   -2.6181   -2.9837 H   0  0  0  0  0  0  0  0  0  0  0  0
   -2.7438   -2.6812   -2.2643 H   0  0  0  0  0  0  0  0  0  0  0  0
   -0.1868   -4.7484   -3.7793 H   0  0  0  0  0  0  0  0  0  0  0  0
   -1.2059   -6.1902   -3.5653 H   0  0  0  0  0  0  0  0  0  0  0  0
    0.7148   -6.1309   -1.9111 H   0  0  0  0  0  0  0  0  0  0  0  0
   -0.8808   -6.1793   -1.1440 H   0  0  0  0  0  0  0  0  0  0  0  0
  1  2  1  0
  1 20  1  0
  1 21  1  0
  1 22  1  0
  2  3  1  6
  2  4  1  0
  2  5  1  0
  4 23  1  0
  4 24  1  0
  5  6  2  0
  5 11  1  0
  6  7  1  0
  6 25  1  0
  7  8  2  0
  7 26  1  0
  8  9  1  0
  8 10  1  0
 10 11  2  0
 10 27  1  0
 11 12  1  0
 12 13  1  0
 13 14  1  0
 13 28  1  0
 13 29  1  0
 14 15  1  0
 14 19  1  0
 14 30  1  1
 15 16  1  0
 15 31  1  0
 15 32  1  0
 16 17  1  0
 16 33  1  0
 16 34  1  0
 17 18  1  0
 18 19  1  0
 18 35  1  0
 18 36  1  0
 19 37  1  0
 19 38  1  0
M  END

