
     RDKit          3D

 29 29  0  0  0  0  0  0  0  0999 V2000
    0.9666    0.2575    0.5445 C   0  0  0  0  0  0  0  0  0  0  0  0
    2.4824    0.1157    0.3967 C   0  0  0  0  0  0  0  0  0  0  0  0
    3.0528    0.9104   -0.7864 C   0  0  0  0  0  0  0  0  0  0  0  0
    4.5915    0.7769   -0.9816 C   0  0  1  0  0  0  0  0  0  0  0  0
    5.0218   -0.6132   -1.5091 C   0  0  0  0  0  0  0  0  0  0  0  0
    4.7901   -0.8005   -3.0157 C   0  0  0  0  0  0  0  0  0  0  0  0
    5.5565    0.2302   -3.8535 C   0  0  0  0  0  0  0  0  0  0  0  0
    5.1886    1.6779   -3.4792 C   0  0  0  0  0  0  0  0  0  0  0  0
    5.0525    1.9655   -1.9326 B   0  0  0  0  0  0  0  0  0  0  0  0
    5.3142    3.4064   -1.3534 C   0  0  0  0  0  0  0  0  0  0  0  0
    0.5887   -0.3135    1.4080 H   0  0  0  0  0  0  0  0  0  0  0  0
    0.4395   -0.1097   -0.3523 H   0  0  0  0  0  0  0  0  0  0  0  0
    0.6732    1.3111    0.6887 H   0  0  0  0  0  0  0  0  0  0  0  0
    2.7394   -0.9523    0.2889 H   0  0  0  0  0  0  0  0  0  0  0  0
    2.9786    0.4527    1.3248 H   0  0  0  0  0  0  0  0  0  0  0  0
    2.7877    1.9740   -0.6411 H   0  0  0  0  0  0  0  0  0  0  0  0
    2.5318    0.6034   -1.7117 H   0  0  0  0  0  0  0  0  0  0  0  0
    5.0400    0.9323    0.0188 H   0  0  0  0  0  0  0  0  0  0  0  0
    4.5168   -1.4205   -0.9502 H   0  0  0  0  0  0  0  0  0  0  0  0
    6.1005   -0.7493   -1.3080 H   0  0  0  0  0  0  0  0  0  0  0  0
    3.7100   -0.7283   -3.2431 H   0  0  0  0  0  0  0  0  0  0  0  0
    5.0903   -1.8204   -3.3115 H   0  0  0  0  0  0  0  0  0  0  0  0
    5.3869    0.0459   -4.9287 H   0  0  0  0  0  0  0  0  0  0  0  0
    6.6403    0.0803   -3.6916 H   0  0  0  0  0  0  0  0  0  0  0  0
    4.1625    1.8997   -3.8534 H   0  0  0  0  0  0  0  0  0  0  0  0
    5.8320    2.4105   -3.9976 H   0  0  0  0  0  0  0  0  0  0  0  0
    5.1064    4.2246   -2.0629 H   0  0  0  0  0  0  0  0  0  0  0  0
    6.4064    3.4500   -1.1575 H   0  0  0  0  0  0  0  0  0  0  0  0
    4.8198    3.6194   -0.3918 H   0  0  0  0  0  0  0  0  0  0  0  0
  1  2  1  0
  1 11  1  0
  1 12  1  0
  1 13  1  0
  2  3  1  0
  2 14  1  0
  2 15  1  0
  3  4  1  0
  3 16  1  0
  3 17  1  0
  4  5  1  0
  4  9  1  0
  4 18  1  1
  5  6  1  0
  5 19  1  0
  5 20  1  0
  6  7  1  0
  6 21  1  0
  6 22  1  0
  7  8  1  0
  7 23  1  0
  7 24  1  0
  8  9  1  0
  8 25  1  0
  8 26  1  0
  9 10  1  0
 10 27  1  0
 10 28  1  0
 10 29  1  0
M  END

