
     RDKit          3D

 39 40  0  0  0  0  0  0  0  0999 V2000
    1.8753    0.2685    0.7745 C   0  0  0  0  0  0  0  0  0  0  0  0
    3.3896    0.2677    0.9054 C   0  0  0  0  0  0  0  0  0  0  0  0
    3.9540    1.5519    0.5859 O   0  0  0  0  0  0  0  0  0  0  0  0
    4.2158    1.8116   -0.7109 C   0  0  0  0  0  0  0  0  0  0  0  0
    4.0030    1.0247   -1.6063 O   0  0  0  0  0  0  0  0  0  0  0  0
    4.7980    3.1695   -0.9120 C   0  0  0  0  0  0  0  0  0  0  0  0
    5.0216    4.0647    0.1451 C   0  0  0  0  0  0  0  0  0  0  0  0
    5.5611    5.3262   -0.0929 C   0  0  0  0  0  0  0  0  0  0  0  0
    5.9137    5.7118   -1.3970 C   0  0  0  0  0  0  0  0  0  0  0  0
    6.4328    6.9834   -1.7104 N   0  0  0  0  0  0  0  0  0  0  0  0
    7.2388    7.8762   -1.0382 C   0  0  0  0  0  0  0  0  0  0  0  0
    7.4127    8.9993   -1.4707 O   0  0  0  0  0  0  0  0  0  0  0  0
    7.9397    7.4512    0.2515 C   0  0  0  0  0  0  0  0  0  0  0  0
    8.4735    6.1532    0.1151 O   0  0  0  0  0  0  0  0  0  0  0  0
    9.1659    5.6020    1.1403 C   0  0  0  0  0  0  0  0  0  0  0  0
    9.4033    6.2429    2.3651 C   0  0  0  0  0  0  0  0  0  0  0  0
   10.1259    5.6087    3.3806 C   0  0  0  0  0  0  0  0  0  0  0  0
   10.6203    4.3223    3.1748 C   0  0  0  0  0  0  0  0  0  0  0  0
   11.6070    3.4473    4.5509 Br  0  0  0  0  0  0  0  0  0  0  0  0
   10.4009    3.6632    1.9605 C   0  0  0  0  0  0  0  0  0  0  0  0
    9.6796    4.3001    0.9524 C   0  0  0  0  0  0  0  0  0  0  0  0
    9.3912    3.4013   -0.6950 Br  0  0  0  0  0  0  0  0  0  0  0  0
    5.6802    4.8172   -2.4577 C   0  0  0  0  0  0  0  0  0  0  0  0
    5.1259    3.5653   -2.2179 C   0  0  0  0  0  0  0  0  0  0  0  0
    1.4709   -0.7030    1.1012 H   0  0  0  0  0  0  0  0  0  0  0  0
    1.5742    0.4295   -0.2711 H   0  0  0  0  0  0  0  0  0  0  0  0
    1.4255    1.0559    1.3993 H   0  0  0  0  0  0  0  0  0  0  0  0
    3.8397   -0.4920    0.2496 H   0  0  0  0  0  0  0  0  0  0  0  0
    3.7003    0.0770    1.9430 H   0  0  0  0  0  0  0  0  0  0  0  0
    4.7527    3.7709    1.1602 H   0  0  0  0  0  0  0  0  0  0  0  0
    5.6837    6.0180    0.7400 H   0  0  0  0  0  0  0  0  0  0  0  0
    6.1727    7.3516   -2.6225 H   0  0  0  0  0  0  0  0  0  0  0  0
    7.2339    7.5109    1.1023 H   0  0  0  0  0  0  0  0  0  0  0  0
    8.7303    8.2008    0.4157 H   0  0  0  0  0  0  0  0  0  0  0  0
    9.0288    7.2514    2.5406 H   0  0  0  0  0  0  0  0  0  0  0  0
   10.3012    6.1233    4.3264 H   0  0  0  0  0  0  0  0  0  0  0  0
   10.7885    2.6579    1.7952 H   0  0  0  0  0  0  0  0  0  0  0  0
    5.9511    5.1113   -3.4749 H   0  0  0  0  0  0  0  0  0  0  0  0
    4.9460    2.8663   -3.0367 H   0  0  0  0  0  0  0  0  0  0  0  0
  1  2  1  0
  1 25  1  0
  1 26  1  0
  1 27  1  0
  2  3  1  0
  2 28  1  0
  2 29  1  0
  3  4  1  0
  4  5  2  0
  4  6  1  0
  6  7  2  0
  6 24  1  0
  7  8  1  0
  7 30  1  0
  8  9  2  0
  8 31  1  0
  9 10  1  0
  9 23  1  0
 10 11  1  0
 10 32  1  0
 11 12  2  0
 11 13  1  0
 13 14  1  0
 13 33  1  0
 13 34  1  0
 14 15  1  0
 15 16  2  0
 15 21  1  0
 16 17  1  0
 16 35  1  0
 17 18  2  0
 17 36  1  0
 18 19  1  0
 18 20  1  0
 20 21  2  0
 20 37  1  0
 21 22  1  0
 23 24  2  0
 23 38  1  0
 24 39  1  0
M  END

