
     RDKit          3D

 53 54  0  0  0  0  0  0  0  0999 V2000
    0.1001   -0.0801    5.6247 C   0  0  0  0  0  0  0  0  0  0  0  0
    1.6027   -0.2561    5.8800 C   0  0  1  0  0  0  0  0  0  0  0  0
    1.9759   -1.7442    5.9184 C   0  0  0  0  0  0  0  0  0  0  0  0
    2.4231    0.5359    4.8439 C   0  0  0  0  0  0  0  0  0  0  0  0
    3.9327    0.5877    5.0974 C   0  0  0  0  0  0  0  0  0  0  0  0
    4.6702    1.4611    4.0754 C   0  0  0  0  0  0  0  0  0  0  0  0
    6.1045    1.5348    4.3006 N   0  0  0  0  0  0  0  0  0  0  0  0
    7.0117    0.8367    3.5573 C   0  0  0  0  0  0  0  0  0  0  0  0
    6.6794    0.1235    2.6167 O   0  0  0  0  0  0  0  0  0  0  0  0
    8.4746    1.0188    3.9680 C   0  0  1  0  0  0  0  0  0  0  0  0
    9.1280   -0.3322    4.3463 C   0  0  0  0  0  0  0  0  0  0  0  0
    9.4333   -1.2075    3.1243 C   0  0  0  0  0  0  0  0  0  0  0  0
   10.2075   -0.4762    2.1082 N   0  0  0  0  0  0  0  0  0  0  0  0
   11.8812   -0.5478    2.2133 S   0  0  1  0  0  0  0  0  0  0  0  0
   12.4112    0.5818    1.4443 O   0  0  0  0  0  0  0  0  0  0  0  0
   12.3028   -0.7846    3.6010 O   0  0  0  0  0  0  0  0  0  0  0  0
   12.2788   -2.0537    1.3015 C   0  0  0  0  0  0  0  0  0  0  0  0
   12.1421   -2.0642   -0.0912 C   0  0  0  0  0  0  0  0  0  0  0  0
   12.4668   -3.2175   -0.7986 C   0  0  0  0  0  0  0  0  0  0  0  0
   12.9350   -4.3567   -0.1121 C   0  0  0  0  0  0  0  0  0  0  0  0
   13.2684   -5.5482   -0.8432 C   0  0  0  0  0  0  0  0  0  0  0  0
   13.5360   -6.5111   -1.4340 N   0  0  0  0  0  0  0  0  0  0  0  0
   13.0806   -4.3254    1.2862 C   0  0  0  0  0  0  0  0  0  0  0  0
   12.7549   -3.1681    1.9946 C   0  0  0  0  0  0  0  0  0  0  0  0
    9.5820    0.7805    1.6644 C   0  0  0  0  0  0  0  0  0  0  0  0
    9.2856    1.7117    2.8454 C   0  0  0  0  0  0  0  0  0  0  0  0
   -0.5007   -0.6046    6.3852 H   0  0  0  0  0  0  0  0  0  0  0  0
   -0.1831   -0.4879    4.6389 H   0  0  0  0  0  0  0  0  0  0  0  0
   -0.1918    0.9828    5.6406 H   0  0  0  0  0  0  0  0  0  0  0  0
    1.8259    0.1735    6.8759 H   0  0  0  0  0  0  0  0  0  0  0  0
    1.7980   -2.2200    4.9383 H   0  0  0  0  0  0  0  0  0  0  0  0
    1.3695   -2.2839    6.6637 H   0  0  0  0  0  0  0  0  0  0  0  0
    3.0337   -1.9035    6.1793 H   0  0  0  0  0  0  0  0  0  0  0  0
    2.0343    1.5704    4.8088 H   0  0  0  0  0  0  0  0  0  0  0  0
    2.2365    0.1121    3.8388 H   0  0  0  0  0  0  0  0  0  0  0  0
    4.3680   -0.4244    5.0624 H   0  0  0  0  0  0  0  0  0  0  0  0
    4.1232    0.9751    6.1160 H   0  0  0  0  0  0  0  0  0  0  0  0
    4.2536    2.4839    4.0796 H   0  0  0  0  0  0  0  0  0  0  0  0
    4.5350    1.0526    3.0634 H   0  0  0  0  0  0  0  0  0  0  0  0
    6.4408    2.0711    5.0911 H   0  0  0  0  0  0  0  0  0  0  0  0
    8.5067    1.6696    4.8580 H   0  0  0  0  0  0  0  0  0  0  0  0
    8.4795   -0.8873    5.0449 H   0  0  0  0  0  0  0  0  0  0  0  0
   10.0755   -0.1286    4.8700 H   0  0  0  0  0  0  0  0  0  0  0  0
    8.4985   -1.5329    2.6449 H   0  0  0  0  0  0  0  0  0  0  0  0
    9.9910   -2.1048    3.4274 H   0  0  0  0  0  0  0  0  0  0  0  0
   11.7914   -1.1727   -0.6139 H   0  0  0  0  0  0  0  0  0  0  0  0
   12.3658   -3.2454   -1.8850 H   0  0  0  0  0  0  0  0  0  0  0  0
   13.4529   -5.2066    1.8117 H   0  0  0  0  0  0  0  0  0  0  0  0
   12.8754   -3.1146    3.0777 H   0  0  0  0  0  0  0  0  0  0  0  0
    8.6479    0.5080    1.1513 H   0  0  0  0  0  0  0  0  0  0  0  0
   10.2501    1.2709    0.9459 H   0  0  0  0  0  0  0  0  0  0  0  0
    8.7512    2.6072    2.4858 H   0  0  0  0  0  0  0  0  0  0  0  0
   10.2437    2.0587    3.2685 H   0  0  0  0  0  0  0  0  0  0  0  0
  1  2  1  0
  1 27  1  0
  1 28  1  0
  1 29  1  0
  2  3  1  0
  2  4  1  0
  2 30  1  1
  3 31  1  0
  3 32  1  0
  3 33  1  0
  4  5  1  0
  4 34  1  0
  4 35  1  0
  5  6  1  0
  5 36  1  0
  5 37  1  0
  6  7  1  0
  6 38  1  0
  6 39  1  0
  7  8  1  0
  7 40  1  0
  8  9  2  0
  8 10  1  0
 10 11  1  0
 10 26  1  0
 10 41  1  1
 11 12  1  0
 11 42  1  0
 11 43  1  0
 12 13  1  0
 12 44  1  0
 12 45  1  0
 13 14  1  0
 13 25  1  0
 14 15  2  0
 14 16  2  0
 14 17  1  6
 17 18  2  0
 17 24  1  0
 18 19  1  0
 18 46  1  0
 19 20  2  0
 19 47  1  0
 20 21  1  0
 20 23  1  0
 21 22  3  0
 23 24  2  0
 23 48  1  0
 24 49  1  0
 25 26  1  0
 25 50  1  0
 25 51  1  0
 26 52  1  0
 26 53  1  0
M  END

