
     RDKit          3D

 32 33  0  0  0  0  0  0  0  0999 V2000
    0.8842   -0.1018    0.3736 C   0  0  0  0  0  0  0  0  0  0  0  0
    2.3127    0.0686   -0.1885 C   0  0  1  0  0  0  0  0  0  0  0  0
    3.3134    0.0424    1.0495 C   0  0  1  0  0  0  0  0  0  0  0  0
    3.4667   -1.3258    1.7678 C   0  0  0  0  0  0  0  0  0  0  0  0
    4.5758   -2.2390    1.2266 C   0  0  0  0  0  0  0  0  0  0  0  0
    5.9188   -1.5085    1.1686 C   0  0  0  0  0  0  0  0  0  0  0  0
    5.8096   -0.2418    0.3053 C   0  0  0  0  0  0  0  0  0  0  0  0
    4.6858    0.6739    0.7607 C   0  0  0  0  0  0  0  0  0  0  0  0
    4.8628    1.8639    0.9275 O   0  0  0  0  0  0  0  0  0  0  0  0
    2.5826   -1.0533   -1.1804 C   0  0  0  0  0  0  0  0  0  0  0  0
    3.2430   -0.8652   -2.3387 C   0  0  0  0  0  0  0  0  0  0  0  0
    3.7631    0.4532   -2.7123 C   0  0  0  0  0  0  0  0  0  0  0  0
    3.3898    1.5442   -2.0204 C   0  0  0  0  0  0  0  0  0  0  0  0
    2.3805    1.4495   -0.9054 C   0  0  0  0  0  0  0  0  0  0  0  0
    0.7703   -1.0358    0.9446 H   0  0  0  0  0  0  0  0  0  0  0  0
    0.1497   -0.1250   -0.4463 H   0  0  0  0  0  0  0  0  0  0  0  0
    0.6257    0.7370    1.0400 H   0  0  0  0  0  0  0  0  0  0  0  0
    2.8584    0.7484    1.7625 H   0  0  0  0  0  0  0  0  0  0  0  0
    2.5044   -1.8615    1.7758 H   0  0  0  0  0  0  0  0  0  0  0  0
    3.6931   -1.1146    2.8280 H   0  0  0  0  0  0  0  0  0  0  0  0
    4.3177   -2.6018    0.2184 H   0  0  0  0  0  0  0  0  0  0  0  0
    4.6542   -3.1318    1.8696 H   0  0  0  0  0  0  0  0  0  0  0  0
    6.7058   -2.1679    0.7674 H   0  0  0  0  0  0  0  0  0  0  0  0
    6.2359   -1.2315    2.1904 H   0  0  0  0  0  0  0  0  0  0  0  0
    5.5867   -0.5339   -0.7357 H   0  0  0  0  0  0  0  0  0  0  0  0
    6.7389    0.3465    0.2983 H   0  0  0  0  0  0  0  0  0  0  0  0
    2.2167   -2.0513   -0.9185 H   0  0  0  0  0  0  0  0  0  0  0  0
    3.4181   -1.7093   -3.0127 H   0  0  0  0  0  0  0  0  0  0  0  0
    4.4495    0.5318   -3.5600 H   0  0  0  0  0  0  0  0  0  0  0  0
    3.7664    2.5347   -2.2921 H   0  0  0  0  0  0  0  0  0  0  0  0
    1.3870    1.6677   -1.3457 H   0  0  0  0  0  0  0  0  0  0  0  0
    2.5612    2.2412   -0.1624 H   0  0  0  0  0  0  0  0  0  0  0  0
  2  1  1  1
  1 15  1  0
  1 16  1  0
  1 17  1  0
  2  3  1  0
  2 10  1  0
  2 14  1  0
  3  4  1  0
  3  8  1  0
  3 18  1  1
  4  5  1  0
  4 19  1  0
  4 20  1  0
  5  6  1  0
  5 21  1  0
  5 22  1  0
  6  7  1  0
  6 23  1  0
  6 24  1  0
  7  8  1  0
  7 25  1  0
  7 26  1  0
  8  9  2  0
 10 11  2  0
 10 27  1  0
 11 12  1  0
 11 28  1  0
 12 13  2  0
 12 29  1  0
 13 14  1  0
 13 30  1  0
 14 31  1  0
 14 32  1  0
M  END

