
     RDKit          3D

 36 37  0  0  0  0  0  0  0  0999 V2000
    6.7630   -3.6500   -2.2618 C   0  0  0  0  0  0  0  0  0  0  0  0
    6.1129   -2.4265   -2.0011 O   0  0  0  0  0  0  0  0  0  0  0  0
    4.9057   -2.4287   -1.3847 C   0  0  0  0  0  0  0  0  0  0  0  0
    4.3223   -1.1688   -1.1560 C   0  0  0  0  0  0  0  0  0  0  0  0
    3.0839   -1.0902   -0.5288 C   0  0  0  0  0  0  0  0  0  0  0  0
    2.3941   -2.2360   -0.1141 C   0  0  0  0  0  0  0  0  0  0  0  0
    2.9799   -3.4878   -0.3440 C   0  0  0  0  0  0  0  0  0  0  0  0
    2.3646   -4.6960    0.0361 N   0  0  0  0  0  0  0  0  0  0  0  0
    1.1792   -4.9025    0.6521 C   0  0  0  0  0  0  0  0  0  0  0  0
    0.3616   -4.0728    1.0235 O   0  0  0  0  0  0  0  0  0  0  0  0
    0.9267   -6.4147    0.8637 C   0  0  0  0  0  0  0  0  0  0  0  0
    1.7289   -7.2603    0.5012 O   0  0  0  0  0  0  0  0  0  0  0  0
   -0.2663   -6.6184    1.4831 N   0  0  0  0  0  0  0  0  0  0  0  0
   -0.8616   -7.8235    1.8543 C   0  0  0  0  0  0  0  0  0  0  0  0
   -0.2612   -9.0704    1.6144 C   0  0  0  0  0  0  0  0  0  0  0  0
   -0.9195  -10.2292    2.0154 C   0  0  0  0  0  0  0  0  0  0  0  0
   -0.2680  -11.5330    1.7526 N   0  0  0  0  0  0  0  0  0  0  0  0
    0.8161  -11.5208    1.1958 O   0  0  0  0  0  0  0  0  0  0  0  0
   -0.8617  -12.5368    2.1122 O   0  0  0  0  0  0  0  0  0  0  0  0
   -2.1601  -10.2149    2.6509 C   0  0  0  0  0  0  0  0  0  0  0  0
   -2.7597   -8.9803    2.8909 C   0  0  0  0  0  0  0  0  0  0  0  0
   -2.1220   -7.8018    2.4995 C   0  0  0  0  0  0  0  0  0  0  0  0
   -2.9011   -6.2711    2.8154 Cl  0  0  0  0  0  0  0  0  0  0  0  0
    4.2344   -3.5875   -0.9784 C   0  0  0  0  0  0  0  0  0  0  0  0
    7.7105   -3.4015   -2.7581 H   0  0  0  0  0  0  0  0  0  0  0  0
    6.1688   -4.2974   -2.9321 H   0  0  0  0  0  0  0  0  0  0  0  0
    6.9821   -4.2060   -1.3321 H   0  0  0  0  0  0  0  0  0  0  0  0
    4.8626   -0.2779   -1.4803 H   0  0  0  0  0  0  0  0  0  0  0  0
    2.6346   -0.1094   -0.3532 H   0  0  0  0  0  0  0  0  0  0  0  0
    1.4259   -2.1705    0.3761 H   0  0  0  0  0  0  0  0  0  0  0  0
    2.8595   -5.5637   -0.1683 H   0  0  0  0  0  0  0  0  0  0  0  0
   -0.7685   -5.7526    1.6922 H   0  0  0  0  0  0  0  0  0  0  0  0
    0.7060   -9.1297    1.1217 H   0  0  0  0  0  0  0  0  0  0  0  0
   -2.6317  -11.1516    2.9440 H   0  0  0  0  0  0  0  0  0  0  0  0
   -3.7301   -8.9185    3.3853 H   0  0  0  0  0  0  0  0  0  0  0  0
    4.6672   -4.5746   -1.1444 H   0  0  0  0  0  0  0  0  0  0  0  0
  1  2  1  0
  1 25  1  0
  1 26  1  0
  1 27  1  0
  2  3  1  0
  3  4  2  0
  3 24  1  0
  4  5  1  0
  4 28  1  0
  5  6  2  0
  5 29  1  0
  6  7  1  0
  6 30  1  0
  7  8  1  0
  7 24  2  0
  8  9  1  0
  8 31  1  0
  9 10  2  0
  9 11  1  0
 11 12  2  0
 11 13  1  0
 13 14  1  0
 13 32  1  0
 14 15  2  0
 14 22  1  0
 15 16  1  0
 15 33  1  0
 16 17  1  0
 16 20  2  0
 17 18  2  0
 17 19  1  0
 20 21  1  0
 20 34  1  0
 21 22  2  0
 21 35  1  0
 22 23  1  0
 24 36  1  0
M  CHG  2  17   1  19  -1
M  END

