
     RDKit          3D

 33 34  0  0  0  0  0  0  0  0999 V2000
    5.0001   -3.5861   -1.1169 C   0  0  0  0  0  0  0  0  0  0  0  0
    5.3992   -2.3688   -0.4441 N   0  0  0  0  0  0  0  0  0  0  0  0
    4.7982   -1.1616   -0.7039 C   0  0  0  0  0  0  0  0  0  0  0  0
    3.8605   -1.0716   -1.4922 O   0  0  0  0  0  0  0  0  0  0  0  0
    5.3496    0.0040    0.0428 C   0  0  0  0  0  0  0  0  0  0  0  0
    5.9614   -0.0736    1.3579 C   0  0  0  0  0  0  0  0  0  0  0  0
    6.2522   -1.2782    2.0078 N   0  0  0  0  0  0  0  0  0  0  0  0
    6.2737    1.0466    1.9623 N   0  0  0  0  0  0  0  0  0  0  0  0
    5.9045    2.3407    0.9596 S   0  0  0  0  0  0  0  0  0  0  0  0
    5.2145    1.3530   -0.3332 C   0  0  0  0  0  0  0  0  0  0  0  0
    4.7323    1.9519   -1.4575 N   0  0  0  0  0  0  0  0  0  0  0  0
    4.4975    3.3980   -1.4880 C   0  0  0  0  0  0  0  0  0  0  0  0
    5.5200    4.0981   -2.3837 C   0  0  0  0  0  0  0  0  0  0  0  0
    5.5207    3.5275   -3.6751 O   0  0  0  0  0  0  0  0  0  0  0  0
    5.8177    2.1451   -3.6338 C   0  0  0  0  0  0  0  0  0  0  0  0
    4.7893    1.3480   -2.8107 C   0  0  2  0  0  0  0  0  0  0  0  0
    3.4116    1.2853   -3.4721 C   0  0  0  0  0  0  0  0  0  0  0  0
    5.0036   -4.4375   -0.4173 H   0  0  0  0  0  0  0  0  0  0  0  0
    5.6649   -3.8333   -1.9649 H   0  0  0  0  0  0  0  0  0  0  0  0
    3.9857   -3.4459   -1.5120 H   0  0  0  0  0  0  0  0  0  0  0  0
    6.2538   -2.3655    0.1045 H   0  0  0  0  0  0  0  0  0  0  0  0
    5.4775   -1.9389    2.0102 H   0  0  0  0  0  0  0  0  0  0  0  0
    6.5848   -1.1003    2.9534 H   0  0  0  0  0  0  0  0  0  0  0  0
    4.5155    3.8053   -0.4671 H   0  0  0  0  0  0  0  0  0  0  0  0
    3.4850    3.5826   -1.8853 H   0  0  0  0  0  0  0  0  0  0  0  0
    6.5283    4.0242   -1.9260 H   0  0  0  0  0  0  0  0  0  0  0  0
    5.2690    5.1642   -2.4971 H   0  0  0  0  0  0  0  0  0  0  0  0
    6.8294    1.9868   -3.2060 H   0  0  0  0  0  0  0  0  0  0  0  0
    5.8253    1.7895   -4.6756 H   0  0  0  0  0  0  0  0  0  0  0  0
    5.1612    0.3253   -2.7041 H   0  0  0  0  0  0  0  0  0  0  0  0
    3.0167    2.2868   -3.6998 H   0  0  0  0  0  0  0  0  0  0  0  0
    2.7164    0.7432   -2.8188 H   0  0  0  0  0  0  0  0  0  0  0  0
    3.4856    0.7376   -4.4247 H   0  0  0  0  0  0  0  0  0  0  0  0
  1  2  1  0
  1 18  1  0
  1 19  1  0
  1 20  1  0
  2  3  1  0
  2 21  1  0
  3  4  2  0
  3  5  1  0
  5  6  1  0
  5 10  2  0
  6  7  1  0
  6  8  2  0
  7 22  1  0
  7 23  1  0
  8  9  1  0
  9 10  1  0
 10 11  1  0
 11 12  1  0
 11 16  1  0
 12 13  1  0
 12 24  1  0
 12 25  1  0
 13 14  1  0
 13 26  1  0
 13 27  1  0
 14 15  1  0
 15 16  1  0
 15 28  1  0
 15 29  1  0
 16 17  1  0
 16 30  1  1
 17 31  1  0
 17 32  1  0
 17 33  1  0
M  END

