
     RDKit          3D

 37 39  0  0  0  0  0  0  0  0999 V2000
    0.7644    0.1976   -0.0148 C   0  0  0  0  0  0  0  0  0  0  0  0
    2.2804   -0.0039   -0.0413 C   0  0  0  0  0  0  0  0  0  0  0  0
    2.9199   -0.2820    1.3360 C   0  0  1  0  0  0  0  0  0  0  0  0
    2.5294   -1.6642    1.9089 C   0  0  0  0  0  0  0  0  0  0  0  0
    2.9022   -1.8707    3.3614 C   0  0  0  0  0  0  0  0  0  0  0  0
    1.9898   -1.5483    4.3795 C   0  0  0  0  0  0  0  0  0  0  0  0
    2.3259   -1.7053    5.7268 C   0  0  0  0  0  0  0  0  0  0  0  0
    3.5877   -2.1907    6.0822 C   0  0  0  0  0  0  0  0  0  0  0  0
    4.5065   -2.5165    5.0805 C   0  0  0  0  0  0  0  0  0  0  0  0
    4.1656   -2.3580    3.7342 C   0  0  0  0  0  0  0  0  0  0  0  0
    4.3761   -0.2046    1.2660 N   0  0  0  0  0  0  0  0  0  0  0  0
    5.2120    0.8495    1.4797 C   0  0  0  0  0  0  0  0  0  0  0  0
    6.6032    0.7070    1.4028 C   0  0  0  0  0  0  0  0  0  0  0  0
    7.2581   -0.8836    1.0167 Cl  0  0  0  0  0  0  0  0  0  0  0  0
    7.5290    1.7616    1.6243 C   0  0  0  0  0  0  0  0  0  0  0  0
    7.1262    3.0367    1.9393 C   0  0  0  0  0  0  0  0  0  0  0  0
    5.7257    3.2724    2.0292 C   0  0  0  0  0  0  0  0  0  0  0  0
    5.1367    4.4395    2.3072 N   0  0  0  0  0  0  0  0  0  0  0  0
    3.5175    4.1910    2.2727 S   0  0  0  0  0  0  0  0  0  0  0  0
    3.4972    2.5913    1.9046 N   0  0  0  0  0  0  0  0  0  0  0  0
    4.7663    2.1928    1.7995 C   0  0  0  0  0  0  0  0  0  0  0  0
    0.3875    0.4591   -1.0161 H   0  0  0  0  0  0  0  0  0  0  0  0
    0.4883    1.0181    0.6679 H   0  0  0  0  0  0  0  0  0  0  0  0
    0.2223   -0.7054    0.3089 H   0  0  0  0  0  0  0  0  0  0  0  0
    2.7545    0.9065   -0.4417 H   0  0  0  0  0  0  0  0  0  0  0  0
    2.5476   -0.8235   -0.7339 H   0  0  0  0  0  0  0  0  0  0  0  0
    2.5776    0.4954    2.0310 H   0  0  0  0  0  0  0  0  0  0  0  0
    2.9928   -2.4472    1.2810 H   0  0  0  0  0  0  0  0  0  0  0  0
    1.4420   -1.7867    1.7961 H   0  0  0  0  0  0  0  0  0  0  0  0
    0.9978   -1.1718    4.1116 H   0  0  0  0  0  0  0  0  0  0  0  0
    1.5977   -1.4511    6.5016 H   0  0  0  0  0  0  0  0  0  0  0  0
    3.8529   -2.3171    7.1350 H   0  0  0  0  0  0  0  0  0  0  0  0
    5.4956   -2.8980    5.3471 H   0  0  0  0  0  0  0  0  0  0  0  0
    4.8985   -2.6120    2.9642 H   0  0  0  0  0  0  0  0  0  0  0  0
    4.8499   -1.0445    0.9497 H   0  0  0  0  0  0  0  0  0  0  0  0
    8.5907    1.5224    1.5390 H   0  0  0  0  0  0  0  0  0  0  0  0
    7.8330    3.8474    2.1128 H   0  0  0  0  0  0  0  0  0  0  0  0
  1  2  1  0
  1 22  1  0
  1 23  1  0
  1 24  1  0
  2  3  1  0
  2 25  1  0
  2 26  1  0
  3  4  1  0
  3 11  1  0
  3 27  1  1
  4  5  1  0
  4 28  1  0
  4 29  1  0
  5  6  2  0
  5 10  1  0
  6  7  1  0
  6 30  1  0
  7  8  2  0
  7 31  1  0
  8  9  1  0
  8 32  1  0
  9 10  2  0
  9 33  1  0
 10 34  1  0
 11 12  1  0
 11 35  1  0
 12 13  2  0
 12 21  1  0
 13 14  1  0
 13 15  1  0
 15 16  2  0
 15 36  1  0
 16 17  1  0
 16 37  1  0
 17 18  2  0
 17 21  1  0
 18 19  1  0
 19 20  1  0
 20 21  2  0
M  END

