
     RDKit          3D

 40 41  0  0  0  0  0  0  0  0999 V2000
    3.6242   -1.6471    2.2568 N   0  0  0  0  0  0  0  0  0  0  0  0
    2.7554   -1.1363    1.3408 C   0  0  0  0  0  0  0  0  0  0  0  0
    1.5967   -0.8734    1.5997 O   0  0  0  0  0  0  0  0  0  0  0  0
    3.3095   -0.9486   -0.0859 C   0  0  0  0  0  0  0  0  0  0  0  0
    4.8094   -0.9058   -0.2468 C   0  0  0  0  0  0  0  0  0  0  0  0
    5.5484   -2.0623   -0.5443 C   0  0  0  0  0  0  0  0  0  0  0  0
    6.9398   -2.0445   -0.6626 C   0  0  0  0  0  0  0  0  0  0  0  0
    7.6345   -0.8358   -0.4831 C   0  0  0  0  0  0  0  0  0  0  0  0
    9.0301   -0.7352   -0.5899 N   0  0  0  0  0  0  0  0  0  0  0  0
    9.9469   -1.6991   -0.8534 C   0  0  0  0  0  0  0  0  0  0  0  0
    9.7481   -2.8870   -1.0575 O   0  0  0  0  0  0  0  0  0  0  0  0
   11.3731   -1.0988   -0.8686 C   0  0  0  0  0  0  0  0  0  0  0  0
   11.5670    0.0909   -0.6492 O   0  0  0  0  0  0  0  0  0  0  0  0
   12.3068   -2.0233   -1.1541 N   0  0  0  0  0  0  0  0  0  0  0  0
   13.7309   -1.7366   -1.1850 C   0  0  0  0  0  0  0  0  0  0  0  0
   14.4897   -2.3231   -0.0113 C   0  0  0  0  0  0  0  0  0  0  0  0
   15.1500   -1.5312    0.9370 C   0  0  0  0  0  0  0  0  0  0  0  0
   15.8480   -2.1112    2.0017 C   0  0  0  0  0  0  0  0  0  0  0  0
   15.8907   -3.5019    2.1344 C   0  0  0  0  0  0  0  0  0  0  0  0
   15.2364   -4.3162    1.2042 C   0  0  0  0  0  0  0  0  0  0  0  0
   14.5533   -3.7108    0.1562 C   0  0  0  0  0  0  0  0  0  0  0  0
   13.9140   -4.4861   -0.7462 F   0  0  0  0  0  0  0  0  0  0  0  0
    6.9087    0.3325   -0.1876 C   0  0  0  0  0  0  0  0  0  0  0  0
    5.5219    0.2931   -0.0717 C   0  0  0  0  0  0  0  0  0  0  0  0
    3.2913   -1.7884    3.2031 H   0  0  0  0  0  0  0  0  0  0  0  0
    4.5989   -1.8107    2.0415 H   0  0  0  0  0  0  0  0  0  0  0  0
    2.8385   -0.0273   -0.4595 H   0  0  0  0  0  0  0  0  0  0  0  0
    2.8815   -1.7727   -0.6813 H   0  0  0  0  0  0  0  0  0  0  0  0
    5.0222   -3.0094   -0.6966 H   0  0  0  0  0  0  0  0  0  0  0  0
    7.4948   -2.9505   -0.8982 H   0  0  0  0  0  0  0  0  0  0  0  0
    9.4592    0.1809   -0.4542 H   0  0  0  0  0  0  0  0  0  0  0  0
   11.9713   -2.9765   -1.2768 H   0  0  0  0  0  0  0  0  0  0  0  0
   13.8369   -0.6438   -1.1892 H   0  0  0  0  0  0  0  0  0  0  0  0
   14.1490   -2.1237   -2.1296 H   0  0  0  0  0  0  0  0  0  0  0  0
   15.1118   -0.4433    0.8356 H   0  0  0  0  0  0  0  0  0  0  0  0
   16.3563   -1.4750    2.7297 H   0  0  0  0  0  0  0  0  0  0  0  0
   16.4327   -3.9599    2.9652 H   0  0  0  0  0  0  0  0  0  0  0  0
   15.2469   -5.4053    1.2779 H   0  0  0  0  0  0  0  0  0  0  0  0
    7.4405    1.2786   -0.0520 H   0  0  0  0  0  0  0  0  0  0  0  0
    4.9798    1.2151    0.1566 H   0  0  0  0  0  0  0  0  0  0  0  0
  1  2  1  0
  1 25  1  0
  1 26  1  0
  2  3  2  0
  2  4  1  0
  4  5  1  0
  4 27  1  0
  4 28  1  0
  5  6  2  0
  5 24  1  0
  6  7  1  0
  6 29  1  0
  7  8  2  0
  7 30  1  0
  8  9  1  0
  8 23  1  0
  9 10  1  0
  9 31  1  0
 10 11  2  0
 10 12  1  0
 12 13  2  0
 12 14  1  0
 14 15  1  0
 14 32  1  0
 15 16  1  0
 15 33  1  0
 15 34  1  0
 16 17  2  0
 16 21  1  0
 17 18  1  0
 17 35  1  0
 18 19  2  0
 18 36  1  0
 19 20  1  0
 19 37  1  0
 20 21  2  0
 20 38  1  0
 21 22  1  0
 23 24  2  0
 23 39  1  0
 24 40  1  0
M  END

