
     RDKit          3D

 66 70  0  0  0  0  0  0  0  0999 V2000
    0.4933   -0.8916   -1.6559 C   0  0  0  0  0  0  0  0  0  0  0  0
    2.0495   -0.0537   -1.3385 S   0  0  1  0  0  0  0  0  0  0  0  0
    2.1433    1.0998   -2.2425 O   0  0  0  0  0  0  0  0  0  0  0  0
    2.1734    0.1621    0.1186 O   0  0  0  0  0  0  0  0  0  0  0  0
    3.3431   -1.2405   -1.8585 C   0  0  0  0  0  0  0  0  0  0  0  0
    3.8868   -0.9652   -3.1175 C   0  0  0  0  0  0  0  0  0  0  0  0
    4.9101   -1.7718   -3.6349 C   0  0  0  0  0  0  0  0  0  0  0  0
    5.4685   -1.4956   -4.9294 C   0  0  0  0  0  0  0  0  0  0  0  0
    5.9227   -1.2809   -5.9759 N   0  0  0  0  0  0  0  0  0  0  0  0
    5.3860   -2.8514   -2.8683 C   0  0  0  0  0  0  0  0  0  0  0  0
    4.8381   -3.1033   -1.6165 C   0  0  0  0  0  0  0  0  0  0  0  0
    3.8065   -2.3167   -1.0754 C   0  0  0  0  0  0  0  0  0  0  0  0
    3.3010   -2.6824    0.3371 C   0  0  1  0  0  0  0  0  0  0  0  0
    2.8050   -4.0912    0.4111 C   0  0  0  0  0  0  0  0  0  0  0  0
    3.4197   -5.0545    1.1469 C   0  0  0  0  0  0  0  0  0  0  0  0
    2.6981   -6.3799    1.0999 C   0  0  0  0  0  0  0  0  0  0  0  0
    1.4770   -6.0931    0.2034 C   0  0  0  0  0  0  0  0  0  0  0  0
    1.5822   -4.6111   -0.1822 C   0  0  0  0  0  0  0  0  0  0  0  0
    0.7684   -3.9984   -0.8553 O   0  0  0  0  0  0  0  0  0  0  0  0
    4.5441   -4.8022    1.8905 N   0  0  0  0  0  0  0  0  0  0  0  0
    5.1879   -5.8318    2.6598 C   0  0  0  0  0  0  0  0  0  0  0  0
    5.9185   -6.8309    2.0102 C   0  0  0  0  0  0  0  0  0  0  0  0
    6.5283   -7.8461    2.7539 C   0  0  0  0  0  0  0  0  0  0  0  0
    6.4226   -7.8552    4.1439 C   0  0  0  0  0  0  0  0  0  0  0  0
    5.6988   -6.8447    4.7919 C   0  0  0  0  0  0  0  0  0  0  0  0
    5.5506   -6.8897    6.2949 C   0  0  1  0  0  0  0  0  0  0  0  0
    6.6960   -7.2638    6.8914 F   0  0  0  0  0  0  0  0  0  0  0  0
    5.1929   -5.7021    6.8038 F   0  0  0  0  0  0  0  0  0  0  0  0
    4.6097   -7.7814    6.6643 F   0  0  0  0  0  0  0  0  0  0  0  0
    5.0820   -5.8322    4.0555 C   0  0  0  0  0  0  0  0  0  0  0  0
    4.9869   -3.4540    2.0846 C   0  0  0  0  0  0  0  0  0  0  0  0
    5.8687   -3.2213    2.8851 O   0  0  0  0  0  0  0  0  0  0  0  0
    4.3798   -2.4862    1.3227 N   0  0  0  0  0  0  0  0  0  0  0  0
    4.5890   -1.1166    1.7565 C   0  0  0  0  0  0  0  0  0  0  0  0
    3.5447   -0.7381    2.8256 C   0  0  0  0  0  0  0  0  0  0  0  0
    2.8478   -1.5924    3.3542 O   0  0  0  0  0  0  0  0  0  0  0  0
    3.4621    0.5786    3.1448 N   0  0  0  0  0  0  0  0  0  0  0  0
    2.4378    1.0507    4.0899 C   0  0  0  0  0  0  0  0  0  0  0  0
    2.3271    2.5455    3.7783 C   0  0  0  0  0  0  0  0  0  0  0  0
    3.7279    2.9023    3.2874 C   0  0  2  0  0  0  0  0  0  0  0  0
    3.7504    4.0493    2.5239 F   0  0  0  0  0  0  0  0  0  0  0  0
    4.1422    1.6781    2.4618 C   0  0  0  0  0  0  0  0  0  0  0  0
   -0.2701   -0.2529   -1.1892 H   0  0  0  0  0  0  0  0  0  0  0  0
    0.5093   -1.9014   -1.2182 H   0  0  0  0  0  0  0  0  0  0  0  0
    0.3540   -0.9334   -2.7438 H   0  0  0  0  0  0  0  0  0  0  0  0
    3.5160   -0.1072   -3.6798 H   0  0  0  0  0  0  0  0  0  0  0  0
    6.1860   -3.4829   -3.2592 H   0  0  0  0  0  0  0  0  0  0  0  0
    5.2231   -3.9387   -1.0278 H   0  0  0  0  0  0  0  0  0  0  0  0
    2.4807   -2.0056    0.6076 H   0  0  0  0  0  0  0  0  0  0  0  0
    2.4209   -6.6977    2.1185 H   0  0  0  0  0  0  0  0  0  0  0  0
    3.3479   -7.1737    0.6989 H   0  0  0  0  0  0  0  0  0  0  0  0
    0.5186   -6.2632    0.7180 H   0  0  0  0  0  0  0  0  0  0  0  0
    1.4572   -6.7073   -0.7107 H   0  0  0  0  0  0  0  0  0  0  0  0
    6.0195   -6.8054    0.9229 H   0  0  0  0  0  0  0  0  0  0  0  0
    7.1001   -8.6246    2.2441 H   0  0  0  0  0  0  0  0  0  0  0  0
    6.9090   -8.6373    4.7299 H   0  0  0  0  0  0  0  0  0  0  0  0
    4.5321   -5.0366    4.5579 H   0  0  0  0  0  0  0  0  0  0  0  0
    4.5130   -0.4450    0.8917 H   0  0  0  0  0  0  0  0  0  0  0  0
    5.5975   -1.0275    2.1840 H   0  0  0  0  0  0  0  0  0  0  0  0
    2.7609    0.8651    5.1298 H   0  0  0  0  0  0  0  0  0  0  0  0
    1.5017    0.4946    3.9394 H   0  0  0  0  0  0  0  0  0  0  0  0
    2.0018    3.1482    4.6381 H   0  0  0  0  0  0  0  0  0  0  0  0
    1.6260    2.7194    2.9459 H   0  0  0  0  0  0  0  0  0  0  0  0
    4.4184    3.0549    4.1361 H   0  0  0  0  0  0  0  0  0  0  0  0
    5.2345    1.5409    2.4359 H   0  0  0  0  0  0  0  0  0  0  0  0
    3.7735    1.8065    1.4284 H   0  0  0  0  0  0  0  0  0  0  0  0
  2  1  1  1
  1 43  1  0
  1 44  1  0
  1 45  1  0
  2  3  2  0
  2  4  2  0
  2  5  1  0
  5  6  2  0
  5 12  1  0
  6  7  1  0
  6 46  1  0
  7  8  1  0
  7 10  2  0
  8  9  3  0
 10 11  1  0
 10 47  1  0
 11 12  2  0
 11 48  1  0
 12 13  1  0
 13 14  1  0
 13 33  1  0
 13 49  1  1
 14 15  2  0
 14 18  1  0
 15 16  1  0
 15 20  1  0
 16 17  1  0
 16 50  1  0
 16 51  1  0
 17 18  1  0
 17 52  1  0
 17 53  1  0
 18 19  2  0
 20 21  1  0
 20 31  1  0
 21 22  2  0
 21 30  1  0
 22 23  1  0
 22 54  1  0
 23 24  2  0
 23 55  1  0
 24 25  1  0
 24 56  1  0
 25 26  1  0
 25 30  2  0
 26 27  1  1
 26 28  1  0
 26 29  1  0
 30 57  1  0
 31 32  2  0
 31 33  1  0
 33 34  1  0
 34 35  1  0
 34 58  1  0
 34 59  1  0
 35 36  2  0
 35 37  1  0
 37 38  1  0
 37 42  1  0
 38 39  1  0
 38 60  1  0
 38 61  1  0
 39 40  1  0
 39 62  1  0
 39 63  1  0
 40 41  1  0
 40 42  1  0
 40 64  1  1
 42 65  1  0
 42 66  1  0
M  END

