
     RDKit          3D

 50 51  0  0  0  0  0  0  0  0999 V2000
    0.5707    0.1267    0.1250 C   0  0  0  0  0  0  0  0  0  0  0  0
    1.4548   -0.6820    1.0442 C   0  0  0  0  0  0  0  0  0  0  0  0
    1.5180   -0.4222    2.4151 C   0  0  0  0  0  0  0  0  0  0  0  0
    2.3515   -1.1859    3.2434 C   0  0  0  0  0  0  0  0  0  0  0  0
    3.1405   -2.2224    2.7443 C   0  0  0  0  0  0  0  0  0  0  0  0
    4.0399   -3.0499    3.6237 C   0  0  0  0  0  0  0  0  0  0  0  0
    3.0730   -2.4842    1.3542 C   0  0  0  0  0  0  0  0  0  0  0  0
    3.8610   -3.5048    0.9133 O   0  0  0  0  0  0  0  0  0  0  0  0
    3.8868   -3.8403   -0.4646 C   0  0  0  0  0  0  0  0  0  0  0  0
    4.8479   -5.0017   -0.6668 C   0  0  0  0  0  0  0  0  0  0  0  0
    4.3984   -6.3045    0.0083 C   0  0  0  0  0  0  0  0  0  0  0  0
    5.3640   -7.3898   -0.1707 N   0  0  0  0  0  0  0  0  0  0  0  0
    6.3979   -7.4144    0.8544 C   0  0  0  0  0  0  0  0  0  0  0  0
    6.0109   -7.9715    2.2366 C   0  0  0  0  0  0  0  0  0  0  0  0
    7.0564   -7.8014    3.1729 O   0  0  0  0  0  0  0  0  0  0  0  0
    4.8144   -8.6786   -0.5828 C   0  0  1  0  0  0  0  0  0  0  0  0
    4.0660   -8.6298   -1.9332 C   0  0  0  0  0  0  0  0  0  0  0  0
    4.0151  -10.0936   -2.4314 C   0  0  0  0  0  0  0  0  0  0  0  0
    5.1107  -10.8480   -1.6274 C   0  0  0  0  0  0  0  0  0  0  0  0
    5.8767   -9.7571   -0.8606 C   0  0  0  0  0  0  0  0  0  0  0  0
    2.2439   -1.7242    0.5222 C   0  0  0  0  0  0  0  0  0  0  0  0
   -0.0099    0.8771    0.6815 H   0  0  0  0  0  0  0  0  0  0  0  0
   -0.1430   -0.5166   -0.4170 H   0  0  0  0  0  0  0  0  0  0  0  0
    1.1640    0.6600   -0.6374 H   0  0  0  0  0  0  0  0  0  0  0  0
    0.9149    0.3817    2.8454 H   0  0  0  0  0  0  0  0  0  0  0  0
    2.3892   -0.9671    4.3146 H   0  0  0  0  0  0  0  0  0  0  0  0
    4.0041   -2.7003    4.6657 H   0  0  0  0  0  0  0  0  0  0  0  0
    5.0862   -3.0105    3.2789 H   0  0  0  0  0  0  0  0  0  0  0  0
    3.7511   -4.1143    3.6076 H   0  0  0  0  0  0  0  0  0  0  0  0
    4.2101   -2.9659   -1.0599 H   0  0  0  0  0  0  0  0  0  0  0  0
    2.8688   -4.1129   -0.8060 H   0  0  0  0  0  0  0  0  0  0  0  0
    5.8411   -4.7058   -0.2895 H   0  0  0  0  0  0  0  0  0  0  0  0
    4.9623   -5.1778   -1.7492 H   0  0  0  0  0  0  0  0  0  0  0  0
    3.4305   -6.6048   -0.4208 H   0  0  0  0  0  0  0  0  0  0  0  0
    4.1984   -6.1000    1.0775 H   0  0  0  0  0  0  0  0  0  0  0  0
    6.7606   -6.3851    1.0113 H   0  0  0  0  0  0  0  0  0  0  0  0
    7.2710   -7.9815    0.4836 H   0  0  0  0  0  0  0  0  0  0  0  0
    5.7049   -9.0343    2.1570 H   0  0  0  0  0  0  0  0  0  0  0  0
    5.1454   -7.4228    2.6406 H   0  0  0  0  0  0  0  0  0  0  0  0
    7.8277   -8.2880    2.8532 H   0  0  0  0  0  0  0  0  0  0  0  0
    4.1102   -9.0922    0.1790 H   0  0  0  0  0  0  0  0  0  0  0  0
    4.6624   -8.0033   -2.6175 H   0  0  0  0  0  0  0  0  0  0  0  0
    3.0653   -8.1781   -1.8640 H   0  0  0  0  0  0  0  0  0  0  0  0
    4.1912  -10.1461   -3.5168 H   0  0  0  0  0  0  0  0  0  0  0  0
    3.0243  -10.5419   -2.2577 H   0  0  0  0  0  0  0  0  0  0  0  0
    5.7751  -11.4477   -2.2682 H   0  0  0  0  0  0  0  0  0  0  0  0
    4.6460  -11.5491   -0.9152 H   0  0  0  0  0  0  0  0  0  0  0  0
    6.6620   -9.3101   -1.4951 H   0  0  0  0  0  0  0  0  0  0  0  0
    6.3640  -10.1465    0.0463 H   0  0  0  0  0  0  0  0  0  0  0  0
    2.1983   -1.9314   -0.5479 H   0  0  0  0  0  0  0  0  0  0  0  0
  1  2  1  0
  1 22  1  0
  1 23  1  0
  1 24  1  0
  2  3  2  0
  2 21  1  0
  3  4  1  0
  3 25  1  0
  4  5  2  0
  4 26  1  0
  5  6  1  0
  5  7  1  0
  6 27  1  0
  6 28  1  0
  6 29  1  0
  7  8  1  0
  7 21  2  0
  8  9  1  0
  9 10  1  0
  9 30  1  0
  9 31  1  0
 10 11  1  0
 10 32  1  0
 10 33  1  0
 11 12  1  0
 11 34  1  0
 11 35  1  0
 12 13  1  0
 12 16  1  0
 13 14  1  0
 13 36  1  0
 13 37  1  0
 14 15  1  0
 14 38  1  0
 14 39  1  0
 15 40  1  0
 16 17  1  0
 16 20  1  0
 16 41  1  1
 17 18  1  0
 17 42  1  0
 17 43  1  0
 18 19  1  0
 18 44  1  0
 18 45  1  0
 19 20  1  0
 19 46  1  0
 19 47  1  0
 20 48  1  0
 20 49  1  0
 21 50  1  0
M  END

