
     RDKit          3D

 39 42  0  0  0  0  0  0  0  0999 V2000
    1.5980   -0.4234    1.2780 N   0  0  0  0  0  0  0  0  0  0  0  0
    2.8147   -0.2377    0.7027 C   0  0  0  0  0  0  0  0  0  0  0  0
    3.2022    1.0341    0.4903 N   0  0  0  0  0  0  0  0  0  0  0  0
    4.3663    1.1718   -0.1323 C   0  0  0  0  0  0  0  0  0  0  0  0
    5.1720    0.1027   -0.5274 C   0  0  0  0  0  0  0  0  0  0  0  0
    6.6026    0.4689   -1.4749 Cl  0  0  0  0  0  0  0  0  0  0  0  0
    4.7106   -1.2041   -0.2003 C   0  0  0  0  0  0  0  0  0  0  0  0
    5.4114   -2.3681   -0.4524 N   0  0  0  0  0  0  0  0  0  0  0  0
    6.8811   -2.4649   -0.5594 C   0  0  0  0  0  0  0  0  0  0  0  0
    7.2367   -3.9106   -0.1013 C   0  0  2  0  0  0  0  0  0  0  0  0
    7.5842   -3.9576    1.4142 C   0  0  0  0  0  0  0  0  0  0  0  0
    8.8991   -3.2757    1.7993 C   0  0  0  0  0  0  0  0  0  0  0  0
   10.3590   -3.9939    0.9601 S   0  0  0  0  0  0  0  0  0  0  0  0
    9.7369   -3.8445   -0.7553 C   0  0  0  0  0  0  0  0  0  0  0  0
    8.3759   -4.5162   -0.9503 C   0  0  0  0  0  0  0  0  0  0  0  0
    5.9067   -4.6155   -0.3237 C   0  0  0  0  0  0  0  0  0  0  0  0
    5.6203   -5.9766   -0.3546 C   0  0  0  0  0  0  0  0  0  0  0  0
    4.2987   -6.4101   -0.5242 C   0  0  0  0  0  0  0  0  0  0  0  0
    3.2876   -5.4542   -0.6552 C   0  0  0  0  0  0  0  0  0  0  0  0
    1.4827   -6.0397   -0.8884 Br  0  0  0  0  0  0  0  0  0  0  0  0
    3.5437   -4.0797   -0.6232 C   0  0  0  0  0  0  0  0  0  0  0  0
    4.8728   -3.6720   -0.4549 C   0  0  0  0  0  0  0  0  0  0  0  0
    3.5215   -1.3321    0.3970 N   0  0  0  0  0  0  0  0  0  0  0  0
    1.0912    0.3856    1.6087 H   0  0  0  0  0  0  0  0  0  0  0  0
    1.3206   -1.3523    1.5620 H   0  0  0  0  0  0  0  0  0  0  0  0
    4.7003    2.1913   -0.3575 H   0  0  0  0  0  0  0  0  0  0  0  0
    7.3558   -1.6898    0.0528 H   0  0  0  0  0  0  0  0  0  0  0  0
    7.1978   -2.3041   -1.6027 H   0  0  0  0  0  0  0  0  0  0  0  0
    7.6235   -5.0139    1.7268 H   0  0  0  0  0  0  0  0  0  0  0  0
    6.7575   -3.4915    1.9788 H   0  0  0  0  0  0  0  0  0  0  0  0
    9.0886   -3.3930    2.8772 H   0  0  0  0  0  0  0  0  0  0  0  0
    8.8660   -2.1914    1.5981 H   0  0  0  0  0  0  0  0  0  0  0  0
   10.4981   -4.3254   -1.3884 H   0  0  0  0  0  0  0  0  0  0  0  0
    9.7065   -2.7793   -1.0426 H   0  0  0  0  0  0  0  0  0  0  0  0
    8.4788   -5.5850   -0.7009 H   0  0  0  0  0  0  0  0  0  0  0  0
    8.0906   -4.4624   -2.0155 H   0  0  0  0  0  0  0  0  0  0  0  0
    6.4178   -6.7161   -0.2458 H   0  0  0  0  0  0  0  0  0  0  0  0
    4.0591   -7.4737   -0.5518 H   0  0  0  0  0  0  0  0  0  0  0  0
    2.7389   -3.3572   -0.7165 H   0  0  0  0  0  0  0  0  0  0  0  0
  1  2  1  0
  1 24  1  0
  1 25  1  0
  2  3  2  0
  2 23  1  0
  3  4  1  0
  4  5  2  0
  4 26  1  0
  5  6  1  0
  5  7  1  0
  7  8  1  0
  7 23  2  0
  8  9  1  0
  8 22  1  0
 10  9  1  6
  9 27  1  0
  9 28  1  0
 10 11  1  0
 10 15  1  0
 10 16  1  0
 11 12  1  0
 11 29  1  0
 11 30  1  0
 12 13  1  0
 12 31  1  0
 12 32  1  0
 13 14  1  0
 14 15  1  0
 14 33  1  0
 14 34  1  0
 15 35  1  0
 15 36  1  0
 16 17  1  0
 16 22  2  0
 17 18  2  0
 17 37  1  0
 18 19  1  0
 18 38  1  0
 19 20  1  0
 19 21  2  0
 21 22  1  0
 21 39  1  0
M  END

