
     RDKit          3D

 59 64  0  0  0  0  0  0  0  0999 V2000
   -0.1297    2.2232   -0.7375 C   0  0  0  0  0  0  0  0  0  0  0  0
    0.8136    1.3494   -0.3434 C   0  0  0  0  0  0  0  0  0  0  0  0
    0.5455   -0.1257   -0.1991 C   0  0  0  0  0  0  0  0  0  0  0  0
   -0.9545   -0.5754   -0.3086 C   0  0  1  0  0  0  0  0  0  0  0  0
   -1.4841   -1.2946    0.8622 N   0  0  0  0  0  0  0  0  0  0  0  0
   -1.3491   -2.7023    0.9084 C   0  0  0  0  0  0  0  0  0  0  0  0
   -0.3241   -3.3918    0.2371 C   0  0  0  0  0  0  0  0  0  0  0  0
   -0.2318   -4.7855    0.2553 C   0  0  0  0  0  0  0  0  0  0  0  0
   -1.1372   -5.5545    1.0056 C   0  0  0  0  0  0  0  0  0  0  0  0
   -1.1181   -6.9527    1.0482 N   0  0  0  0  0  0  0  0  0  0  0  0
   -0.0537   -7.8393    0.8895 C   0  0  0  0  0  0  0  0  0  0  0  0
    1.2949   -7.4700    1.0703 C   0  0  0  0  0  0  0  0  0  0  0  0
    2.3104   -8.4176    0.9250 C   0  0  0  0  0  0  0  0  0  0  0  0
    2.0189   -9.7482    0.6119 C   0  0  0  0  0  0  0  0  0  0  0  0
    0.6813  -10.1240    0.4476 C   0  0  0  0  0  0  0  0  0  0  0  0
   -0.3407   -9.1855    0.5769 C   0  0  0  0  0  0  0  0  0  0  0  0
   -2.1456   -4.8708    1.7121 C   0  0  0  0  0  0  0  0  0  0  0  0
   -2.2696   -3.4838    1.6400 C   0  0  0  0  0  0  0  0  0  0  0  0
   -3.6603   -2.6926    2.4167 S   0  0  0  0  0  0  0  0  0  0  0  0
   -2.8723   -1.1625    2.8788 C   0  0  0  0  0  0  0  0  0  0  0  0
   -3.2959   -0.5154    4.0416 C   0  0  0  0  0  0  0  0  0  0  0  0
   -2.7815    0.7470    4.3896 C   0  0  0  0  0  0  0  0  0  0  0  0
   -3.2135    1.4677    5.5084 N   0  0  0  0  0  0  0  0  0  0  0  0
   -3.7206    1.0164    6.7262 C   0  0  0  0  0  0  0  0  0  0  0  0
   -3.5169   -0.2909    7.2138 C   0  0  0  0  0  0  0  0  0  0  0  0
   -4.0290   -0.6666    8.4574 C   0  0  0  0  0  0  0  0  0  0  0  0
   -4.7394    0.2385    9.2510 C   0  0  0  0  0  0  0  0  0  0  0  0
   -4.9305    1.5418    8.7796 C   0  0  0  0  0  0  0  0  0  0  0  0
   -4.4362    1.9258    7.5346 C   0  0  0  0  0  0  0  0  0  0  0  0
   -1.8266    1.3198    3.5320 C   0  0  0  0  0  0  0  0  0  0  0  0
   -1.3929    0.6604    2.3825 C   0  0  0  0  0  0  0  0  0  0  0  0
   -1.9041   -0.5977    2.0223 C   0  0  0  0  0  0  0  0  0  0  0  0
   -1.9015    0.5262   -0.7368 C   0  0  0  0  0  0  0  0  0  0  0  0
   -1.5090    1.7901   -0.9709 C   0  0  0  0  0  0  0  0  0  0  0  0
    0.1141    3.2819   -0.8602 H   0  0  0  0  0  0  0  0  0  0  0  0
    1.8312    1.6925   -0.1301 H   0  0  0  0  0  0  0  0  0  0  0  0
    0.9651   -0.4851    0.7558 H   0  0  0  0  0  0  0  0  0  0  0  0
    1.1322   -0.6495   -0.9769 H   0  0  0  0  0  0  0  0  0  0  0  0
   -1.0081   -1.3250   -1.1129 H   0  0  0  0  0  0  0  0  0  0  0  0
    0.4233   -2.8389   -0.3325 H   0  0  0  0  0  0  0  0  0  0  0  0
    0.5509   -5.2711   -0.3271 H   0  0  0  0  0  0  0  0  0  0  0  0
   -2.0131   -7.3881    1.2337 H   0  0  0  0  0  0  0  0  0  0  0  0
    1.5479   -6.4474    1.3503 H   0  0  0  0  0  0  0  0  0  0  0  0
    3.3483   -8.1069    1.0735 H   0  0  0  0  0  0  0  0  0  0  0  0
    2.8202  -10.4821    0.5016 H   0  0  0  0  0  0  0  0  0  0  0  0
    0.4279  -11.1599    0.2067 H   0  0  0  0  0  0  0  0  0  0  0  0
   -1.3818   -9.4890    0.4316 H   0  0  0  0  0  0  0  0  0  0  0  0
   -2.8585   -5.4348    2.3194 H   0  0  0  0  0  0  0  0  0  0  0  0
   -4.0609   -0.9892    4.6567 H   0  0  0  0  0  0  0  0  0  0  0  0
   -3.1248    2.4729    5.4287 H   0  0  0  0  0  0  0  0  0  0  0  0
   -2.9368   -1.0073    6.6321 H   0  0  0  0  0  0  0  0  0  0  0  0
   -3.8553   -1.6856    8.8139 H   0  0  0  0  0  0  0  0  0  0  0  0
   -5.1349   -0.0649   10.2229 H   0  0  0  0  0  0  0  0  0  0  0  0
   -5.4795    2.2691    9.3839 H   0  0  0  0  0  0  0  0  0  0  0  0
   -4.6053    2.9438    7.1707 H   0  0  0  0  0  0  0  0  0  0  0  0
   -1.4003    2.2964    3.7773 H   0  0  0  0  0  0  0  0  0  0  0  0
   -0.6417    1.1485    1.7636 H   0  0  0  0  0  0  0  0  0  0  0  0
   -2.9440    0.2249   -0.8725 H   0  0  0  0  0  0  0  0  0  0  0  0
   -2.2375    2.5312   -1.3115 H   0  0  0  0  0  0  0  0  0  0  0  0
  1  2  2  0
  1 34  1  0
  1 35  1  0
  2  3  1  0
  2 36  1  0
  3  4  1  0
  3 37  1  0
  3 38  1  0
  4  5  1  0
  4 33  1  0
  4 39  1  6
  5  6  1  0
  5 32  1  0
  6  7  2  0
  6 18  1  0
  7  8  1  0
  7 40  1  0
  8  9  2  0
  8 41  1  0
  9 10  1  0
  9 17  1  0
 10 11  1  0
 10 42  1  0
 11 12  2  0
 11 16  1  0
 12 13  1  0
 12 43  1  0
 13 14  2  0
 13 44  1  0
 14 15  1  0
 14 45  1  0
 15 16  2  0
 15 46  1  0
 16 47  1  0
 17 18  2  0
 17 48  1  0
 18 19  1  0
 19 20  1  0
 20 21  2  0
 20 32  1  0
 21 22  1  0
 21 49  1  0
 22 23  1  0
 22 30  2  0
 23 24  1  0
 23 50  1  0
 24 25  2  0
 24 29  1  0
 25 26  1  0
 25 51  1  0
 26 27  2  0
 26 52  1  0
 27 28  1  0
 27 53  1  0
 28 29  2  0
 28 54  1  0
 29 55  1  0
 30 31  1  0
 30 56  1  0
 31 32  2  0
 31 57  1  0
 33 34  2  0
 33 58  1  0
 34 59  1  0
M  END

