
     RDKit          3D

 43 45  0  0  0  0  0  0  0  0999 V2000
    1.0219   -0.4007    0.5041 C   0  0  0  0  0  0  0  0  0  0  0  0
    2.1729    0.1987   -0.0798 O   0  0  0  0  0  0  0  0  0  0  0  0
    2.7809   -0.3334   -1.1670 C   0  0  0  0  0  0  0  0  0  0  0  0
    3.4405    0.5261   -2.0031 C   0  0  0  0  0  0  0  0  0  0  0  0
    4.1796    0.0771   -3.1545 C   0  0  0  0  0  0  0  0  0  0  0  0
    4.8651    0.9299   -4.0209 C   0  0  0  0  0  0  0  0  0  0  0  0
    4.9793    2.3332   -3.9387 C   0  0  0  0  0  0  0  0  0  0  0  0
    5.6746    3.1530   -4.8262 C   0  0  0  0  0  0  0  0  0  0  0  0
    5.7231    4.5872   -4.6352 C   0  0  0  0  0  0  0  0  0  0  0  0
    6.3964    5.4093   -5.4841 C   0  0  0  0  0  0  0  0  0  0  0  0
    7.0740    4.9243   -6.5859 N   0  0  0  0  0  0  0  0  0  0  0  0
    7.7808    5.8432   -7.4762 C   0  0  0  0  0  0  0  0  0  0  0  0
    8.9792    6.5321   -6.8459 C   0  0  0  0  0  0  0  0  0  0  0  0
    9.8847    5.8256   -6.0398 C   0  0  0  0  0  0  0  0  0  0  0  0
   11.0065    6.4551   -5.4982 C   0  0  0  0  0  0  0  0  0  0  0  0
   11.2306    7.8095   -5.7664 C   0  0  0  0  0  0  0  0  0  0  0  0
   12.7589    8.6755   -5.0308 Br  0  0  0  0  0  0  0  0  0  0  0  0
   10.3415    8.5340   -6.5635 C   0  0  0  0  0  0  0  0  0  0  0  0
    9.2202    7.8900   -7.0939 C   0  0  0  0  0  0  0  0  0  0  0  0
    7.0548    3.5656   -6.8137 C   0  0  0  0  0  0  0  0  0  0  0  0
    6.3995    2.6971   -5.9954 C   0  0  0  0  0  0  0  0  0  0  0  0
    4.1885   -1.3428   -3.4143 C   0  0  0  0  0  0  0  0  0  0  0  0
    3.5424   -2.2231   -2.6025 C   0  0  0  0  0  0  0  0  0  0  0  0
    2.8120   -1.8030   -1.4039 C   0  0  0  0  0  0  0  0  0  0  0  0
    2.2750   -2.6136   -0.6438 O   0  0  0  0  0  0  0  0  0  0  0  0
    0.5945    0.3663    1.1675 H   0  0  0  0  0  0  0  0  0  0  0  0
    1.2726   -1.3034    1.0754 H   0  0  0  0  0  0  0  0  0  0  0  0
    0.2734   -0.6698   -0.2600 H   0  0  0  0  0  0  0  0  0  0  0  0
    3.3919    1.5887   -1.7579 H   0  0  0  0  0  0  0  0  0  0  0  0
    5.3684    0.4328   -4.8571 H   0  0  0  0  0  0  0  0  0  0  0  0
    4.4831    2.8395   -3.1065 H   0  0  0  0  0  0  0  0  0  0  0  0
    5.2038    5.0307   -3.7832 H   0  0  0  0  0  0  0  0  0  0  0  0
    6.4419    6.4896   -5.3382 H   0  0  0  0  0  0  0  0  0  0  0  0
    7.0739    6.6030   -7.8495 H   0  0  0  0  0  0  0  0  0  0  0  0
    8.0999    5.2587   -8.3537 H   0  0  0  0  0  0  0  0  0  0  0  0
    9.7133    4.7685   -5.8206 H   0  0  0  0  0  0  0  0  0  0  0  0
   11.7034    5.8975   -4.8703 H   0  0  0  0  0  0  0  0  0  0  0  0
   10.5181    9.5921   -6.7630 H   0  0  0  0  0  0  0  0  0  0  0  0
    8.5230    8.4626   -7.7127 H   0  0  0  0  0  0  0  0  0  0  0  0
    7.5981    3.2274   -7.6979 H   0  0  0  0  0  0  0  0  0  0  0  0
    6.4333    1.6378   -6.2492 H   0  0  0  0  0  0  0  0  0  0  0  0
    4.7374   -1.7038   -4.2901 H   0  0  0  0  0  0  0  0  0  0  0  0
    3.5550   -3.2995   -2.7900 H   0  0  0  0  0  0  0  0  0  0  0  0
  1  2  1  0
  1 26  1  0
  1 27  1  0
  1 28  1  0
  2  3  1  0
  3  4  2  0
  3 24  1  0
  4  5  1  0
  4 29  1  0
  5  6  2  0
  5 22  1  0
  6  7  1  0
  6 30  1  0
  7  8  2  0
  7 31  1  0
  8  9  1  0
  8 21  1  0
  9 10  2  0
  9 32  1  0
 10 11  1  0
 10 33  1  0
 11 12  1  0
 11 20  1  0
 12 13  1  0
 12 34  1  0
 12 35  1  0
 13 14  2  0
 13 19  1  0
 14 15  1  0
 14 36  1  0
 15 16  2  0
 15 37  1  0
 16 17  1  0
 16 18  1  0
 18 19  2  0
 18 38  1  0
 19 39  1  0
 20 21  2  0
 20 40  1  0
 21 41  1  0
 22 23  2  0
 22 42  1  0
 23 24  1  0
 23 43  1  0
 24 25  2  0
M  END

