
     RDKit          3D

 59 62  0  0  0  0  0  0  0  0999 V2000
    3.2031    0.0564    2.6851 O   0  0  0  0  0  0  0  0  0  0  0  0
    2.7828    0.5769    1.6638 C   0  0  0  0  0  0  0  0  0  0  0  0
    1.6348    0.1844    1.0402 N   0  0  0  0  0  0  0  0  0  0  0  0
    0.7652   -0.8541    1.5671 C   0  0  0  0  0  0  0  0  0  0  0  0
   -0.5127   -0.3080    2.2139 C   0  0  0  0  0  0  0  0  0  0  0  0
   -1.4201   -1.4222    2.7637 C   0  0  0  0  0  0  0  0  0  0  0  0
   -2.6854   -0.8985    3.4080 C   0  0  0  0  0  0  0  0  0  0  0  0
   -3.8611   -0.7312    2.6588 C   0  0  0  0  0  0  0  0  0  0  0  0
   -5.0199   -0.2121    3.2433 C   0  0  0  0  0  0  0  0  0  0  0  0
   -5.0228    0.1503    4.5934 C   0  0  0  0  0  0  0  0  0  0  0  0
   -3.8600   -0.0125    5.3526 C   0  0  0  0  0  0  0  0  0  0  0  0
   -2.7040   -0.5319    4.7636 C   0  0  0  0  0  0  0  0  0  0  0  0
    3.5233    1.7417    1.0043 C   0  0  1  0  0  0  0  0  0  0  0  0
    3.5382    3.0056    1.8891 C   0  0  0  0  0  0  0  0  0  0  0  0
    4.7316    3.8036    1.3573 C   0  0  0  0  0  0  0  0  0  0  0  0
    5.6450    2.7758    0.8682 N   0  0  0  0  0  0  0  0  0  0  0  0
    6.9184    3.0534    0.4675 C   0  0  0  0  0  0  0  0  0  0  0  0
    7.8081    1.9803    0.0746 C   0  0  0  0  0  0  0  0  0  0  0  0
    9.0324    2.1819   -0.3160 N   0  0  0  0  0  0  0  0  0  0  0  0
    9.5148    3.4147   -0.3641 N   0  0  0  0  0  0  0  0  0  0  0  0
   10.8983    3.5520   -0.8447 C   0  0  0  0  0  0  0  0  0  0  0  0
   11.0018    3.6557   -2.3536 C   0  0  0  0  0  0  0  0  0  0  0  0
   10.7953    4.8859   -2.9999 C   0  0  0  0  0  0  0  0  0  0  0  0
   10.8768    4.9747   -4.3918 C   0  0  0  0  0  0  0  0  0  0  0  0
   11.1638    3.8383   -5.1557 C   0  0  0  0  0  0  0  0  0  0  0  0
   11.3668    2.6099   -4.5203 C   0  0  0  0  0  0  0  0  0  0  0  0
   11.2842    2.5205   -3.1274 C   0  0  0  0  0  0  0  0  0  0  0  0
    8.7864    4.5902   -0.0281 C   0  0  0  0  0  0  0  0  0  0  0  0
    9.3183    5.6910   -0.1337 O   0  0  0  0  0  0  0  0  0  0  0  0
    7.4408    4.3364    0.4163 C   0  0  0  0  0  0  0  0  0  0  0  0
    5.0233    1.4519    0.8201 C   0  0  0  0  0  0  0  0  0  0  0  0
    1.3365    0.6913    0.2154 H   0  0  0  0  0  0  0  0  0  0  0  0
    1.3585   -1.4088    2.3084 H   0  0  0  0  0  0  0  0  0  0  0  0
    0.5083   -1.5567    0.7545 H   0  0  0  0  0  0  0  0  0  0  0  0
   -1.0772    0.2925    1.4779 H   0  0  0  0  0  0  0  0  0  0  0  0
   -0.2357    0.3810    3.0295 H   0  0  0  0  0  0  0  0  0  0  0  0
   -0.8501   -2.0168    3.4981 H   0  0  0  0  0  0  0  0  0  0  0  0
   -1.6836   -2.1123    1.9433 H   0  0  0  0  0  0  0  0  0  0  0  0
   -3.8709   -1.0184    1.6028 H   0  0  0  0  0  0  0  0  0  0  0  0
   -5.9258   -0.0948    2.6426 H   0  0  0  0  0  0  0  0  0  0  0  0
   -5.9288    0.5532    5.0534 H   0  0  0  0  0  0  0  0  0  0  0  0
   -3.8538    0.2622    6.4107 H   0  0  0  0  0  0  0  0  0  0  0  0
   -1.8007   -0.6610    5.3676 H   0  0  0  0  0  0  0  0  0  0  0  0
    3.0755    1.9848    0.0255 H   0  0  0  0  0  0  0  0  0  0  0  0
    3.7135    2.6989    2.9321 H   0  0  0  0  0  0  0  0  0  0  0  0
    2.5952    3.5702    1.8499 H   0  0  0  0  0  0  0  0  0  0  0  0
    5.2082    4.4156    2.1415 H   0  0  0  0  0  0  0  0  0  0  0  0
    4.4384    4.4931    0.5412 H   0  0  0  0  0  0  0  0  0  0  0  0
    7.4924    0.9359    0.1056 H   0  0  0  0  0  0  0  0  0  0  0  0
   11.4414    2.6702   -0.4805 H   0  0  0  0  0  0  0  0  0  0  0  0
   11.3005    4.4560   -0.3709 H   0  0  0  0  0  0  0  0  0  0  0  0
   10.5585    5.7659   -2.3971 H   0  0  0  0  0  0  0  0  0  0  0  0
   10.7171    5.9381   -4.8837 H   0  0  0  0  0  0  0  0  0  0  0  0
   11.2307    3.9107   -6.2445 H   0  0  0  0  0  0  0  0  0  0  0  0
   11.5923    1.7176   -5.1105 H   0  0  0  0  0  0  0  0  0  0  0  0
   11.4403    1.5578   -2.6328 H   0  0  0  0  0  0  0  0  0  0  0  0
    6.8629    5.2199    0.6826 H   0  0  0  0  0  0  0  0  0  0  0  0
    5.3749    0.7993    1.6390 H   0  0  0  0  0  0  0  0  0  0  0  0
    5.2264    0.9457   -0.1374 H   0  0  0  0  0  0  0  0  0  0  0  0
  1  2  2  0
  2  3  1  0
  2 13  1  0
  3  4  1  0
  3 32  1  0
  4  5  1  0
  4 33  1  0
  4 34  1  0
  5  6  1  0
  5 35  1  0
  5 36  1  0
  6  7  1  0
  6 37  1  0
  6 38  1  0
  7  8  2  0
  7 12  1  0
  8  9  1  0
  8 39  1  0
  9 10  2  0
  9 40  1  0
 10 11  1  0
 10 41  1  0
 11 12  2  0
 11 42  1  0
 12 43  1  0
 13 14  1  0
 13 31  1  0
 13 44  1  6
 14 15  1  0
 14 45  1  0
 14 46  1  0
 15 16  1  0
 15 47  1  0
 15 48  1  0
 16 17  1  0
 16 31  1  0
 17 18  1  0
 17 30  2  0
 18 19  2  0
 18 49  1  0
 19 20  1  0
 20 21  1  0
 20 28  1  0
 21 22  1  0
 21 50  1  0
 21 51  1  0
 22 23  2  0
 22 27  1  0
 23 24  1  0
 23 52  1  0
 24 25  2  0
 24 53  1  0
 25 26  1  0
 25 54  1  0
 26 27  2  0
 26 55  1  0
 27 56  1  0
 28 29  2  0
 28 30  1  0
 30 57  1  0
 31 58  1  0
 31 59  1  0
M  END

