
     RDKit          3D

 21 21  0  0  0  0  0  0  0  0999 V2000
    0.9262    0.0573    0.2288 C   0  0  0  0  0  0  0  0  0  0  0  0
    2.4329    0.0907    0.1389 C   0  0  0  0  0  0  0  0  0  0  0  0
    3.1219    1.3021   -0.0201 C   0  0  0  0  0  0  0  0  0  0  0  0
    4.5154    1.3284   -0.1049 C   0  0  0  0  0  0  0  0  0  0  0  0
    5.4460    2.9674   -0.3136 Br  0  0  0  0  0  0  0  0  0  0  0  0
    5.2348    0.1334   -0.0331 C   0  0  0  0  0  0  0  0  0  0  0  0
    6.5699    0.1545   -0.1164 F   0  0  0  0  0  0  0  0  0  0  0  0
    4.5745   -1.0912    0.1273 C   0  0  0  0  0  0  0  0  0  0  0  0
    5.3890   -2.3603    0.1745 C   0  0  1  0  0  0  0  0  0  0  0  0
    4.9508   -3.3983    1.5890 Cl  0  0  0  0  0  0  0  0  0  0  0  0
    5.2693   -3.1949   -1.1093 C   0  0  1  0  0  0  0  0  0  0  0  0
    5.6416   -2.4410   -2.1561 F   0  0  0  0  0  0  0  0  0  0  0  0
    6.0678   -4.2659   -1.0671 F   0  0  0  0  0  0  0  0  0  0  0  0
    4.0195   -3.6178   -1.3332 F   0  0  0  0  0  0  0  0  0  0  0  0
    3.1775   -1.0938    0.2116 C   0  0  0  0  0  0  0  0  0  0  0  0
    0.4962    1.0688    0.1977 H   0  0  0  0  0  0  0  0  0  0  0  0
    0.5929   -0.4241    1.1629 H   0  0  0  0  0  0  0  0  0  0  0  0
    0.4904   -0.5198   -0.6039 H   0  0  0  0  0  0  0  0  0  0  0  0
    2.5726    2.2440   -0.0775 H   0  0  0  0  0  0  0  0  0  0  0  0
    6.4534   -2.1211    0.2805 H   0  0  0  0  0  0  0  0  0  0  0  0
    2.6669   -2.0488    0.3505 H   0  0  0  0  0  0  0  0  0  0  0  0
  1  2  1  0
  1 16  1  0
  1 17  1  0
  1 18  1  0
  2  3  2  0
  2 15  1  0
  3  4  1  0
  3 19  1  0
  4  5  1  0
  4  6  2  0
  6  7  1  0
  6  8  1  0
  8  9  1  0
  8 15  2  0
  9 10  1  0
  9 11  1  0
  9 20  1  1
 11 12  1  6
 11 13  1  0
 11 14  1  0
 15 21  1  0
M  END

