
     RDKit          3D

 41 44  0  0  0  0  0  0  0  0999 V2000
    5.7723    0.0325   -1.8744 O   0  0  0  0  0  0  0  0  0  0  0  0
    4.6166    0.1419   -1.5359 C   0  0  0  0  0  0  0  0  0  0  0  0
    3.7950    1.3352   -1.4602 C   0  0  0  0  0  0  0  0  0  0  0  0
    2.4876    1.2910   -1.0528 C   0  0  0  0  0  0  0  0  0  0  0  0
    1.8303    0.1514   -0.6829 N   0  0  0  0  0  0  0  0  0  0  0  0
    2.5334   -0.9331   -0.7381 C   0  0  0  0  0  0  0  0  0  0  0  0
    1.9609   -2.5534   -0.3228 S   0  0  0  0  0  0  0  0  0  0  0  0
    3.5865   -3.1413   -0.7344 C   0  0  0  0  0  0  0  0  0  0  0  0
    3.7817   -4.4380   -0.6023 O   0  0  0  0  0  0  0  0  0  0  0  0
    4.9695   -5.1373   -0.8572 C   0  0  0  0  0  0  0  0  0  0  0  0
    6.1622   -4.5751   -1.3094 C   0  0  0  0  0  0  0  0  0  0  0  0
    7.2702   -5.4076   -1.5221 C   0  0  0  0  0  0  0  0  0  0  0  0
    7.1930   -6.7876   -1.2837 C   0  0  0  0  0  0  0  0  0  0  0  0
    8.2091   -7.6700   -1.4395 O   0  0  0  0  0  0  0  0  0  0  0  0
    9.4990   -7.2600   -1.9211 C   0  0  1  0  0  0  0  0  0  0  0  0
   10.4966   -8.3201   -1.4443 C   0  0  0  0  0  0  0  0  0  0  0  0
   10.2855   -9.6750   -2.1328 C   0  0  0  0  0  0  0  0  0  0  0  0
   10.3076   -9.5372   -3.6609 C   0  0  0  0  0  0  0  0  0  0  0  0
    9.2913   -8.4928   -4.1419 C   0  0  0  0  0  0  0  0  0  0  0  0
    9.5016   -7.1372   -3.4529 C   0  0  0  0  0  0  0  0  0  0  0  0
    5.9748   -7.3308   -0.8291 C   0  0  0  0  0  0  0  0  0  0  0  0
    4.8734   -6.5137   -0.6173 C   0  0  0  0  0  0  0  0  0  0  0  0
    4.4295   -2.2509   -1.1247 N   0  0  0  0  0  0  0  0  0  0  0  0
    3.8505   -1.0180   -1.1295 N   0  0  0  0  0  0  0  0  0  0  0  0
    4.2722    2.2735   -1.7450 H   0  0  0  0  0  0  0  0  0  0  0  0
    1.8951    2.2105   -1.0069 H   0  0  0  0  0  0  0  0  0  0  0  0
    6.2400   -3.5071   -1.4990 H   0  0  0  0  0  0  0  0  0  0  0  0
    8.1912   -4.9489   -1.8803 H   0  0  0  0  0  0  0  0  0  0  0  0
    9.7593   -6.2912   -1.4608 H   0  0  0  0  0  0  0  0  0  0  0  0
   10.4183   -8.4179   -0.3496 H   0  0  0  0  0  0  0  0  0  0  0  0
   11.5121   -7.9444   -1.6618 H   0  0  0  0  0  0  0  0  0  0  0  0
    9.3131  -10.0886   -1.8158 H   0  0  0  0  0  0  0  0  0  0  0  0
   11.0563  -10.3884   -1.7973 H   0  0  0  0  0  0  0  0  0  0  0  0
   10.1070  -10.5120   -4.1361 H   0  0  0  0  0  0  0  0  0  0  0  0
   11.3214   -9.2364   -3.9862 H   0  0  0  0  0  0  0  0  0  0  0  0
    8.2701   -8.8510   -3.9255 H   0  0  0  0  0  0  0  0  0  0  0  0
    9.3535   -8.3674   -5.2356 H   0  0  0  0  0  0  0  0  0  0  0  0
    8.7348   -6.4153   -3.7762 H   0  0  0  0  0  0  0  0  0  0  0  0
   10.4765   -6.7117   -3.7517 H   0  0  0  0  0  0  0  0  0  0  0  0
    5.9210   -8.4052   -0.6443 H   0  0  0  0  0  0  0  0  0  0  0  0
    3.9267   -6.9266   -0.2636 H   0  0  0  0  0  0  0  0  0  0  0  0
  1  2  2  0
  2  3  1  0
  2 24  1  0
  3  4  2  0
  3 25  1  0
  4  5  1  0
  4 26  1  0
  5  6  2  0
  6  7  1  0
  6 24  1  0
  7  8  1  0
  8  9  1  0
  8 23  2  0
  9 10  1  0
 10 11  2  0
 10 22  1  0
 11 12  1  0
 11 27  1  0
 12 13  2  0
 12 28  1  0
 13 14  1  0
 13 21  1  0
 14 15  1  0
 15 16  1  0
 15 20  1  0
 15 29  1  1
 16 17  1  0
 16 30  1  0
 16 31  1  0
 17 18  1  0
 17 32  1  0
 17 33  1  0
 18 19  1  0
 18 34  1  0
 18 35  1  0
 19 20  1  0
 19 36  1  0
 19 37  1  0
 20 38  1  0
 20 39  1  0
 21 22  2  0
 21 40  1  0
 22 41  1  0
 23 24  1  0
M  END

