
     RDKit          3D

 53 56  0  0  0  0  0  0  0  0999 V2000
    1.9651    1.3056   -0.5178 O   0  0  0  0  0  0  0  0  0  0  0  0
    3.0547    0.7556   -0.5379 C   0  0  0  0  0  0  0  0  0  0  0  0
    3.6542    0.2014   -1.8516 C   0  0  1  0  0  0  0  0  0  0  0  0
    3.6393   -1.3602   -1.9371 C   0  0  0  0  0  0  0  0  0  0  0  0
    2.7777   -1.6778   -3.1753 C   0  0  0  0  0  0  0  0  0  0  0  0
    2.8975   -0.4045   -4.0095 C   0  0  0  0  0  0  0  0  0  0  0  0
    2.8769    0.6341   -2.9973 N   0  0  0  0  0  0  0  0  0  0  0  0
    3.0399    2.0030   -3.4395 C   0  0  0  0  0  0  0  0  0  0  0  0
    1.8354    2.5172   -4.2070 C   0  0  0  0  0  0  0  0  0  0  0  0
    0.5556    2.4067   -3.6367 C   0  0  0  0  0  0  0  0  0  0  0  0
   -0.5629    2.8949   -4.3140 C   0  0  0  0  0  0  0  0  0  0  0  0
   -0.4215    3.4999   -5.5694 C   0  0  0  0  0  0  0  0  0  0  0  0
    0.8469    3.6123   -6.1428 C   0  0  0  0  0  0  0  0  0  0  0  0
    1.9681    3.1206   -5.4636 C   0  0  0  0  0  0  0  0  0  0  0  0
    3.8020    0.6001    0.6098 N   0  0  0  0  0  0  0  0  0  0  0  0
    3.2913    1.1405    1.8690 C   0  0  0  0  0  0  0  0  0  0  0  0
    3.3697    0.0768    2.9713 C   0  0  0  0  0  0  0  0  0  0  0  0
    4.7021   -0.5060    3.1293 N   0  0  0  0  0  0  0  0  0  0  0  0
    5.6652    0.3100    3.8696 C   0  0  0  0  0  0  0  0  0  0  0  0
    6.7485   -0.5369    4.4714 C   0  0  0  0  0  0  0  0  0  0  0  0
    8.0065   -0.1953    4.6563 N   0  0  0  0  0  0  0  0  0  0  0  0
    8.5926   -1.2659    5.2872 C   0  0  0  0  0  0  0  0  0  0  0  0
    7.6741   -2.2753    5.4794 C   0  0  0  0  0  0  0  0  0  0  0  0
    6.4972   -1.7898    4.9542 N   0  0  0  0  0  0  0  0  0  0  0  0
    5.6018   -2.2580    4.8739 H   0  0  0  0  0  0  0  0  0  0  0  0
    5.1951   -1.0111    1.8482 C   0  0  0  0  0  0  0  0  0  0  0  0
    5.1413    0.0285    0.7137 C   0  0  0  0  0  0  0  0  0  0  0  0
    4.7068    0.5573   -1.9184 H   0  0  0  0  0  0  0  0  0  0  0  0
    3.2388   -1.8234   -1.0232 H   0  0  0  0  0  0  0  0  0  0  0  0
    4.6651   -1.7385   -2.0701 H   0  0  0  0  0  0  0  0  0  0  0  0
    1.7270   -1.8258   -2.8826 H   0  0  0  0  0  0  0  0  0  0  0  0
    3.1150   -2.5798   -3.7076 H   0  0  0  0  0  0  0  0  0  0  0  0
    2.0712   -0.2705   -4.7255 H   0  0  0  0  0  0  0  0  0  0  0  0
    3.8464   -0.4079   -4.6000 H   0  0  0  0  0  0  0  0  0  0  0  0
    3.9587    2.1350   -4.0572 H   0  0  0  0  0  0  0  0  0  0  0  0
    3.1690    2.6293   -2.5420 H   0  0  0  0  0  0  0  0  0  0  0  0
    0.4644    1.9341   -2.6555 H   0  0  0  0  0  0  0  0  0  0  0  0
   -1.5538    2.8068   -3.8597 H   0  0  0  0  0  0  0  0  0  0  0  0
   -1.2993    3.8810   -6.0982 H   0  0  0  0  0  0  0  0  0  0  0  0
    0.9665    4.0797   -7.1240 H   0  0  0  0  0  0  0  0  0  0  0  0
    2.9597    3.2063   -5.9188 H   0  0  0  0  0  0  0  0  0  0  0  0
    2.2581    1.4671    1.6972 H   0  0  0  0  0  0  0  0  0  0  0  0
    3.8841    2.0314    2.1548 H   0  0  0  0  0  0  0  0  0  0  0  0
    2.6669   -0.7380    2.7212 H   0  0  0  0  0  0  0  0  0  0  0  0
    3.0453    0.5058    3.9329 H   0  0  0  0  0  0  0  0  0  0  0  0
    5.1119    0.8226    4.6766 H   0  0  0  0  0  0  0  0  0  0  0  0
    6.1621    1.1084    3.2842 H   0  0  0  0  0  0  0  0  0  0  0  0
    9.6461   -1.2619    5.5653 H   0  0  0  0  0  0  0  0  0  0  0  0
    7.7539   -3.2660    5.9198 H   0  0  0  0  0  0  0  0  0  0  0  0
    4.5754   -1.8777    1.5556 H   0  0  0  0  0  0  0  0  0  0  0  0
    6.2287   -1.3707    1.9717 H   0  0  0  0  0  0  0  0  0  0  0  0
    5.4367   -0.4490   -0.2268 H   0  0  0  0  0  0  0  0  0  0  0  0
    5.8737    0.8362    0.9084 H   0  0  0  0  0  0  0  0  0  0  0  0
  1  2  2  0
  2  3  1  0
  2 15  1  0
  3  4  1  0
  3  7  1  0
  3 28  1  6
  4  5  1  0
  4 29  1  0
  4 30  1  0
  5  6  1  0
  5 31  1  0
  5 32  1  0
  6  7  1  0
  6 33  1  0
  6 34  1  0
  7  8  1  0
  8  9  1  0
  8 35  1  0
  8 36  1  0
  9 10  2  0
  9 14  1  0
 10 11  1  0
 10 37  1  0
 11 12  2  0
 11 38  1  0
 12 13  1  0
 12 39  1  0
 13 14  2  0
 13 40  1  0
 14 41  1  0
 15 16  1  0
 15 27  1  0
 16 17  1  0
 16 42  1  0
 16 43  1  0
 17 18  1  0
 17 44  1  0
 17 45  1  0
 18 19  1  0
 18 26  1  0
 19 20  1  0
 19 46  1  0
 19 47  1  0
 20 21  2  0
 20 24  1  0
 21 22  1  0
 22 23  2  0
 22 48  1  0
 23 24  1  0
 23 49  1  0
 24 25  1  0
 26 27  1  0
 26 50  1  0
 26 51  1  0
 27 52  1  0
 27 53  1  0
M  END

