
     RDKit          3D

 32 33  0  0  0  0  0  0  0  0999 V2000
    1.2254   -0.2306   -0.4093 C   0  0  0  0  0  0  0  0  0  0  0  0
    2.6510   -0.1532   -0.1275 N   0  0  0  0  0  0  0  0  0  0  0  0
    3.0382    0.6158    1.0424 C   0  0  1  0  0  0  0  0  0  0  0  0
    2.3647    0.0950    2.3509 C   0  0  0  0  0  0  0  0  0  0  0  0
    2.5080   -1.3669    2.6435 C   0  0  0  0  0  0  0  0  0  0  0  0
    1.7156   -2.3222    2.1761 N   0  0  0  0  0  0  0  0  0  0  0  0
    2.2241   -3.4522    2.7264 C   0  0  0  0  0  0  0  0  0  0  0  0
    3.2722   -3.2628    3.5099 N   0  0  0  0  0  0  0  0  0  0  0  0
    3.4527   -1.9249    3.4508 N   0  0  0  0  0  0  0  0  0  0  0  0
    4.4882   -1.2954    4.2494 C   0  0  0  0  0  0  0  0  0  0  0  0
    4.5551    0.6393    1.1669 C   0  0  0  0  0  0  0  0  0  0  0  0
    5.3623   -0.3762    0.6350 C   0  0  0  0  0  0  0  0  0  0  0  0
    6.7519   -0.3297    0.7832 C   0  0  0  0  0  0  0  0  0  0  0  0
    7.7327   -1.6099    0.1064 Cl  0  0  0  0  0  0  0  0  0  0  0  0
    7.3697    0.7246    1.4619 C   0  0  0  0  0  0  0  0  0  0  0  0
    6.5781    1.7430    1.9985 C   0  0  0  0  0  0  0  0  0  0  0  0
    5.1967    1.6838    1.8457 C   0  0  0  0  0  0  0  0  0  0  0  0
    4.4454    2.6659    2.3820 F   0  0  0  0  0  0  0  0  0  0  0  0
    1.0856   -0.6616   -1.4122 H   0  0  0  0  0  0  0  0  0  0  0  0
    0.7050    0.7530   -0.3879 H   0  0  0  0  0  0  0  0  0  0  0  0
    0.7346   -0.9072    0.3056 H   0  0  0  0  0  0  0  0  0  0  0  0
    3.1467    0.2170   -0.9367 H   0  0  0  0  0  0  0  0  0  0  0  0
    2.7060    1.6758    0.9759 H   0  0  0  0  0  0  0  0  0  0  0  0
    1.2871    0.3056    2.2911 H   0  0  0  0  0  0  0  0  0  0  0  0
    2.7545    0.6991    3.1836 H   0  0  0  0  0  0  0  0  0  0  0  0
    1.8121   -4.4460    2.5511 H   0  0  0  0  0  0  0  0  0  0  0  0
    5.0674   -2.1005    4.7161 H   0  0  0  0  0  0  0  0  0  0  0  0
    4.0500   -0.6642    5.0391 H   0  0  0  0  0  0  0  0  0  0  0  0
    5.1537   -0.6844    3.6247 H   0  0  0  0  0  0  0  0  0  0  0  0
    4.8858   -1.2006    0.1039 H   0  0  0  0  0  0  0  0  0  0  0  0
    8.4554    0.7486    1.5660 H   0  0  0  0  0  0  0  0  0  0  0  0
    7.0202    2.5858    2.5335 H   0  0  0  0  0  0  0  0  0  0  0  0
  1  2  1  0
  1 19  1  0
  1 20  1  0
  1 21  1  0
  2  3  1  0
  2 22  1  0
  3  4  1  0
  3 11  1  0
  3 23  1  6
  4  5  1  0
  4 24  1  0
  4 25  1  0
  5  6  2  0
  5  9  1  0
  6  7  1  0
  7  8  2  0
  7 26  1  0
  8  9  1  0
  9 10  1  0
 10 27  1  0
 10 28  1  0
 10 29  1  0
 11 12  2  0
 11 17  1  0
 12 13  1  0
 12 30  1  0
 13 14  1  0
 13 15  2  0
 15 16  1  0
 15 31  1  0
 16 17  2  0
 16 32  1  0
 17 18  1  0
M  END

