
     RDKit          3D

 31 31  0  0  0  0  0  0  0  0999 V2000
    2.5770   -0.4064    2.4440 C   0  0  0  0  0  0  0  0  0  0  0  0
    3.1806   -0.1726    1.0754 C   0  0  0  0  0  0  0  0  0  0  0  0
    3.7763    1.0899    0.8557 C   0  0  0  0  0  0  0  0  0  0  0  0
    3.8179    2.0377    1.8208 O   0  0  0  0  0  0  0  0  0  0  0  0
    4.3432    1.3888   -0.3922 C   0  0  0  0  0  0  0  0  0  0  0  0
    5.1392    3.0889   -0.6890 Br  0  0  0  0  0  0  0  0  0  0  0  0
    4.3243    0.4451   -1.4143 C   0  0  0  0  0  0  0  0  0  0  0  0
    3.7420   -0.8015   -1.1857 C   0  0  0  0  0  0  0  0  0  0  0  0
    3.7579   -2.0314   -2.6607 Br  0  0  0  0  0  0  0  0  0  0  0  0
    3.1699   -1.1511    0.0529 C   0  0  0  0  0  0  0  0  0  0  0  0
    2.5411   -2.5117    0.2724 C   0  0  0  0  0  0  0  0  0  0  0  0
    1.0414   -2.5551   -0.0792 C   0  0  0  0  0  0  0  0  0  0  0  0
    0.3890   -3.9464    0.0264 C   0  0  1  0  0  0  0  0  0  0  0  0
    0.4003   -4.5027    1.4568 C   0  0  0  0  0  0  0  0  0  0  0  0
   -1.0402   -3.9103   -0.5303 C   0  0  0  0  0  0  0  0  0  0  0  0
    3.3512   -0.4346    3.2330 H   0  0  0  0  0  0  0  0  0  0  0  0
    2.0198   -1.3468    2.5089 H   0  0  0  0  0  0  0  0  0  0  0  0
    1.8633    0.3954    2.7072 H   0  0  0  0  0  0  0  0  0  0  0  0
    3.4046    1.7037    2.6267 H   0  0  0  0  0  0  0  0  0  0  0  0
    4.7637    0.6825   -2.3827 H   0  0  0  0  0  0  0  0  0  0  0  0
    2.6964   -2.8252    1.3145 H   0  0  0  0  0  0  0  0  0  0  0  0
    3.0695   -3.2506   -0.3482 H   0  0  0  0  0  0  0  0  0  0  0  0
    0.9199   -2.1845   -1.1107 H   0  0  0  0  0  0  0  0  0  0  0  0
    0.4886   -1.8447    0.5638 H   0  0  0  0  0  0  0  0  0  0  0  0
    0.9792   -4.6349   -0.6083 H   0  0  0  0  0  0  0  0  0  0  0  0
   -0.1551   -3.8385    2.1424 H   0  0  0  0  0  0  0  0  0  0  0  0
    1.4209   -4.6186    1.8542 H   0  0  0  0  0  0  0  0  0  0  0  0
   -0.0792   -5.4940    1.4991 H   0  0  0  0  0  0  0  0  0  0  0  0
   -1.6780   -3.2311    0.0618 H   0  0  0  0  0  0  0  0  0  0  0  0
   -1.5062   -4.9087   -0.5047 H   0  0  0  0  0  0  0  0  0  0  0  0
   -1.0582   -3.5574   -1.5741 H   0  0  0  0  0  0  0  0  0  0  0  0
  1  2  1  0
  1 16  1  0
  1 17  1  0
  1 18  1  0
  2  3  2  0
  2 10  1  0
  3  4  1  0
  3  5  1  0
  4 19  1  0
  5  6  1  0
  5  7  2  0
  7  8  1  0
  7 20  1  0
  8  9  1  0
  8 10  2  0
 10 11  1  0
 11 12  1  0
 11 21  1  0
 11 22  1  0
 12 13  1  0
 12 23  1  0
 12 24  1  0
 13 14  1  0
 13 15  1  0
 13 25  1  6
 14 26  1  0
 14 27  1  0
 14 28  1  0
 15 29  1  0
 15 30  1  0
 15 31  1  0
M  END

