
     RDKit          3D

 33 33  0  0  0  0  0  0  0  0999 V2000
    3.9734    0.7542   -4.9327 C   0  0  0  0  0  0  0  0  0  0  0  0
    3.8897    0.7520   -3.7235 C   0  0  0  0  0  0  0  0  0  0  0  0
    3.7538    0.7429   -2.2597 C   0  0  1  0  0  0  0  0  0  0  0  0
    2.2857    0.9830   -1.8530 C   0  0  0  0  0  0  0  0  0  0  0  0
    4.2812   -0.5621   -1.6263 C   0  0  0  0  0  0  0  0  0  0  0  0
    5.7735   -0.8261   -1.6934 C   0  0  0  0  0  0  0  0  0  0  0  0
    6.6845    0.0518   -2.2924 C   0  0  0  0  0  0  0  0  0  0  0  0
    8.0531   -0.2308   -2.2781 C   0  0  0  0  0  0  0  0  0  0  0  0
    9.1685    0.8794   -3.0430 Cl  0  0  0  0  0  0  0  0  0  0  0  0
    8.5489   -1.3764   -1.6592 C   0  0  0  0  0  0  0  0  0  0  0  0
    7.6419   -2.2517   -1.0575 C   0  0  0  0  0  0  0  0  0  0  0  0
    8.2575   -3.6663   -0.2341 Cl  0  0  0  0  0  0  0  0  0  0  0  0
    6.2591   -2.0006   -1.0744 C   0  0  0  0  0  0  0  0  0  0  0  0
    5.3766   -2.8275   -0.4444 O   0  0  0  0  0  0  0  0  0  0  0  0
    5.0045   -4.0373   -1.1220 C   0  0  0  0  0  0  0  0  0  0  0  0
    4.0865   -4.8369   -0.2121 C   0  0  0  0  0  0  0  0  0  0  0  0
    4.7467   -5.2833    1.0929 C   0  0  0  0  0  0  0  0  0  0  0  0
    4.0564    0.7576   -6.0031 H   0  0  0  0  0  0  0  0  0  0  0  0
    4.3499    1.5849   -1.8625 H   0  0  0  0  0  0  0  0  0  0  0  0
    1.6447    0.1569   -2.1989 H   0  0  0  0  0  0  0  0  0  0  0  0
    1.9033    1.9155   -2.2932 H   0  0  0  0  0  0  0  0  0  0  0  0
    2.1970    1.0534   -0.7576 H   0  0  0  0  0  0  0  0  0  0  0  0
    3.7415   -1.4118   -2.0774 H   0  0  0  0  0  0  0  0  0  0  0  0
    3.9883   -0.5705   -0.5629 H   0  0  0  0  0  0  0  0  0  0  0  0
    6.3431    0.9564   -2.7932 H   0  0  0  0  0  0  0  0  0  0  0  0
    9.6174   -1.5875   -1.6356 H   0  0  0  0  0  0  0  0  0  0  0  0
    5.9105   -4.6171   -1.3698 H   0  0  0  0  0  0  0  0  0  0  0  0
    4.4947   -3.7836   -2.0700 H   0  0  0  0  0  0  0  0  0  0  0  0
    3.7356   -5.7135   -0.7846 H   0  0  0  0  0  0  0  0  0  0  0  0
    3.1911   -4.2285    0.0045 H   0  0  0  0  0  0  0  0  0  0  0  0
    5.6149   -5.9345    0.8991 H   0  0  0  0  0  0  0  0  0  0  0  0
    4.0394   -5.8432    1.7247 H   0  0  0  0  0  0  0  0  0  0  0  0
    5.1055   -4.4149    1.6651 H   0  0  0  0  0  0  0  0  0  0  0  0
  1  2  3  0
  1 18  1  0
  2  3  1  0
  3  4  1  0
  3  5  1  0
  3 19  1  1
  4 20  1  0
  4 21  1  0
  4 22  1  0
  5  6  1  0
  5 23  1  0
  5 24  1  0
  6  7  2  0
  6 13  1  0
  7  8  1  0
  7 25  1  0
  8  9  1  0
  8 10  2  0
 10 11  1  0
 10 26  1  0
 11 12  1  0
 11 13  2  0
 13 14  1  0
 14 15  1  0
 15 16  1  0
 15 27  1  0
 15 28  1  0
 16 17  1  0
 16 29  1  0
 16 30  1  0
 17 31  1  0
 17 32  1  0
 17 33  1  0
M  END

