
     RDKit          3D

 32 34  0  0  0  0  0  0  0  0999 V2000
    3.7497    0.7076    2.3315 O   0  0  0  0  0  0  0  0  0  0  0  0
    3.5561    0.3688    1.1817 C   0  0  0  0  0  0  0  0  0  0  0  0
    2.9544    1.0380    0.1358 N   0  0  0  0  0  0  0  0  0  0  0  0
    2.4014    2.3694    0.2184 C   0  0  0  0  0  0  0  0  0  0  0  0
    0.8800    2.3579    0.0892 C   0  0  0  0  0  0  0  0  0  0  0  0
    0.4599    3.7066    0.1202 O   0  0  0  0  0  0  0  0  0  0  0  0
   -0.8608    3.9934    0.0191 C   0  0  0  0  0  0  0  0  0  0  0  0
   -1.8915    3.0586   -0.1366 C   0  0  0  0  0  0  0  0  0  0  0  0
   -3.2285    3.4705   -0.2319 C   0  0  0  0  0  0  0  0  0  0  0  0
   -3.5280    4.8245   -0.1706 C   0  0  0  0  0  0  0  0  0  0  0  0
   -4.8037    5.2299   -0.2607 F   0  0  0  0  0  0  0  0  0  0  0  0
   -2.5258    5.7849   -0.0162 C   0  0  0  0  0  0  0  0  0  0  0  0
   -1.2088    5.3594    0.0765 C   0  0  0  0  0  0  0  0  0  0  0  0
   -0.2337    6.2604    0.2243 F   0  0  0  0  0  0  0  0  0  0  0  0
    2.9079    0.3296   -1.0436 N   0  0  0  0  0  0  0  0  0  0  0  0
    3.4893   -0.8103   -0.7652 C   0  0  0  0  0  0  0  0  0  0  0  0
    3.7473   -1.9564   -1.5820 C   0  0  0  0  0  0  0  0  0  0  0  0
    4.3864   -3.0288   -1.0225 C   0  0  0  0  0  0  0  0  0  0  0  0
    4.7990   -3.0226    0.3589 C   0  0  0  0  0  0  0  0  0  0  0  0
    4.5519   -1.9301    1.1336 C   0  0  0  0  0  0  0  0  0  0  0  0
    3.9093   -0.8548    0.5687 N   0  0  0  0  0  0  0  0  0  0  0  0
    2.8305    2.9969   -0.5784 H   0  0  0  0  0  0  0  0  0  0  0  0
    2.7000    2.7835    1.1916 H   0  0  0  0  0  0  0  0  0  0  0  0
    0.4294    1.7850    0.9213 H   0  0  0  0  0  0  0  0  0  0  0  0
    0.5913    1.8724   -0.8605 H   0  0  0  0  0  0  0  0  0  0  0  0
   -1.6623    1.9942   -0.1866 H   0  0  0  0  0  0  0  0  0  0  0  0
   -4.0341    2.7447   -0.3531 H   0  0  0  0  0  0  0  0  0  0  0  0
   -2.7648    6.8479    0.0317 H   0  0  0  0  0  0  0  0  0  0  0  0
    3.4268   -1.9371   -2.6241 H   0  0  0  0  0  0  0  0  0  0  0  0
    4.5927   -3.9128   -1.6303 H   0  0  0  0  0  0  0  0  0  0  0  0
    5.3080   -3.8863    0.7877 H   0  0  0  0  0  0  0  0  0  0  0  0
    4.8187   -1.8162    2.1857 H   0  0  0  0  0  0  0  0  0  0  0  0
  1  2  2  0
  2  3  1  0
  2 21  1  0
  3  4  1  0
  3 15  1  0
  4  5  1  0
  4 22  1  0
  4 23  1  0
  5  6  1  0
  5 24  1  0
  5 25  1  0
  6  7  1  0
  7  8  2  0
  7 13  1  0
  8  9  1  0
  8 26  1  0
  9 10  2  0
  9 27  1  0
 10 11  1  0
 10 12  1  0
 12 13  2  0
 12 28  1  0
 13 14  1  0
 15 16  2  0
 16 17  1  0
 16 21  1  0
 17 18  2  0
 17 29  1  0
 18 19  1  0
 18 30  1  0
 19 20  2  0
 19 31  1  0
 20 21  1  0
 20 32  1  0
M  END

