
     RDKit          3D

 76 81  0  0  0  0  0  0  0  0999 V2000
    1.6117    0.3668   -1.2697 C   0  0  0  0  0  0  0  0  0  0  0  0
    2.3924    0.6264    0.0259 C   0  0  0  0  0  0  0  0  0  0  0  0
    2.7819   -0.6786    0.9499 B   0  0  1  0  0  0  0  0  0  0  0  0
    3.7699   -0.2695    2.2031 C   0  0  0  0  0  0  0  0  0  0  0  0
    4.3139   -1.3980    3.0877 C   0  0  0  0  0  0  0  0  0  0  0  0
    1.4220   -1.3587    1.5372 C   0  0  0  0  0  0  0  0  0  0  0  0
    0.3915   -0.5733    2.0296 C   0  0  0  0  0  0  0  0  0  0  0  0
   -0.7241   -1.1194    2.7141 C   0  0  0  0  0  0  0  0  0  0  0  0
   -0.8046   -2.4669    2.9627 C   0  0  0  0  0  0  0  0  0  0  0  0
    0.2365   -3.3474    2.5277 C   0  0  0  0  0  0  0  0  0  0  0  0
    0.2347   -4.7334    2.8339 C   0  0  0  0  0  0  0  0  0  0  0  0
    1.3649   -5.5283    2.5100 C   0  0  0  0  0  0  0  0  0  0  0  0
    1.4997   -6.8877    2.9957 C   0  0  0  0  0  0  0  0  0  0  0  0
    2.5688   -7.6557    2.5688 C   0  0  0  0  0  0  0  0  0  0  0  0
    3.5977   -7.1091    1.7609 C   0  0  0  0  0  0  0  0  0  0  0  0
    3.5200   -5.8088    1.3310 C   0  0  0  0  0  0  0  0  0  0  0  0
    2.3938   -4.9793    1.6423 C   0  0  0  0  0  0  0  0  0  0  0  0
    2.2832   -3.6336    1.1839 C   0  0  0  0  0  0  0  0  0  0  0  0
    1.3169   -2.7729    1.7567 C   0  0  0  0  0  0  0  0  0  0  0  0
    3.0903   -3.1468    0.0478 C   0  0  0  0  0  0  0  0  0  0  0  0
    3.3510   -4.0309   -1.0189 C   0  0  0  0  0  0  0  0  0  0  0  0
    4.1891   -3.6576   -2.0555 C   0  0  0  0  0  0  0  0  0  0  0  0
    4.7980   -2.4087   -1.9880 C   0  0  0  0  0  0  0  0  0  0  0  0
    4.4538   -1.5160   -0.9695 C   0  0  0  0  0  0  0  0  0  0  0  0
    5.1600   -0.1856   -0.9626 C   0  0  0  0  0  0  0  0  0  0  0  0
    3.5354   -1.8508   -0.0156 N   0  0  0  0  0  0  0  0  0  0  0  0
    0.6861   -7.5261    4.1799 B   0  0  0  0  0  0  0  0  0  0  0  0
    0.9453   -6.9859    5.6569 C   0  0  0  0  0  0  0  0  0  0  0  0
    2.2294   -7.6052    6.2553 C   0  0  0  0  0  0  0  0  0  0  0  0
   -1.0159   -5.3499    3.4227 C   0  0  0  0  0  0  0  0  0  0  0  0
   -2.0969   -5.6323    2.3672 C   0  0  0  0  0  0  0  0  0  0  0  0
   -0.5051   -9.1252    2.6487 N   0  0  0  0  0  0  0  0  0  0  0  0
   -1.2134  -10.2208    2.3640 C   0  0  0  0  0  0  0  0  0  0  0  0
   -1.5922  -10.4299    0.9188 C   0  0  0  0  0  0  0  0  0  0  0  0
   -1.5972  -11.1345    3.3648 C   0  0  0  0  0  0  0  0  0  0  0  0
   -1.2493  -10.8742    4.6882 C   0  0  0  0  0  0  0  0  0  0  0  0
   -0.5300   -9.7129    4.9757 C   0  0  0  0  0  0  0  0  0  0  0  0
   -0.1530   -8.8503    3.9278 C   0  0  0  0  0  0  0  0  0  0  0  0
    1.3048    1.2996   -1.7743 H   0  0  0  0  0  0  0  0  0  0  0  0
    0.6951   -0.2144   -1.0748 H   0  0  0  0  0  0  0  0  0  0  0  0
    2.1987   -0.2115   -2.0056 H   0  0  0  0  0  0  0  0  0  0  0  0
    1.7677    1.2586    0.6812 H   0  0  0  0  0  0  0  0  0  0  0  0
    3.2568    1.2745   -0.1862 H   0  0  0  0  0  0  0  0  0  0  0  0
    3.1779    0.4211    2.8329 H   0  0  0  0  0  0  0  0  0  0  0  0
    4.6212    0.3453    1.8542 H   0  0  0  0  0  0  0  0  0  0  0  0
    3.5017   -1.9833    3.5484 H   0  0  0  0  0  0  0  0  0  0  0  0
    4.9469   -1.0191    3.9090 H   0  0  0  0  0  0  0  0  0  0  0  0
    4.9316   -2.1097    2.5120 H   0  0  0  0  0  0  0  0  0  0  0  0
    0.4349    0.5120    1.9147 H   0  0  0  0  0  0  0  0  0  0  0  0
   -1.5150   -0.4531    3.0702 H   0  0  0  0  0  0  0  0  0  0  0  0
   -1.6529   -2.8580    3.5236 H   0  0  0  0  0  0  0  0  0  0  0  0
    2.6641   -8.6910    2.9093 H   0  0  0  0  0  0  0  0  0  0  0  0
    4.4723   -7.7156    1.5109 H   0  0  0  0  0  0  0  0  0  0  0  0
    4.3538   -5.3888    0.7695 H   0  0  0  0  0  0  0  0  0  0  0  0
    2.8773   -5.0102   -1.0135 H   0  0  0  0  0  0  0  0  0  0  0  0
    4.3853   -4.3371   -2.8884 H   0  0  0  0  0  0  0  0  0  0  0  0
    5.5293   -2.0955   -2.7345 H   0  0  0  0  0  0  0  0  0  0  0  0
    6.1620   -0.3201   -1.3950 H   0  0  0  0  0  0  0  0  0  0  0  0
    5.2627    0.2269    0.0445 H   0  0  0  0  0  0  0  0  0  0  0  0
    4.6300    0.5536   -1.5808 H   0  0  0  0  0  0  0  0  0  0  0  0
    0.0955   -7.2011    6.3284 H   0  0  0  0  0  0  0  0  0  0  0  0
    1.0675   -5.8898    5.6435 H   0  0  0  0  0  0  0  0  0  0  0  0
    2.1610   -8.7028    6.3346 H   0  0  0  0  0  0  0  0  0  0  0  0
    2.4269   -7.2146    7.2669 H   0  0  0  0  0  0  0  0  0  0  0  0
    3.1106   -7.3776    5.6349 H   0  0  0  0  0  0  0  0  0  0  0  0
   -1.4228   -4.7177    4.2266 H   0  0  0  0  0  0  0  0  0  0  0  0
   -0.7936   -6.3064    3.9229 H   0  0  0  0  0  0  0  0  0  0  0  0
   -2.3801   -4.7142    1.8301 H   0  0  0  0  0  0  0  0  0  0  0  0
   -3.0021   -6.0476    2.8389 H   0  0  0  0  0  0  0  0  0  0  0  0
   -1.7307   -6.3641    1.6312 H   0  0  0  0  0  0  0  0  0  0  0  0
   -0.7281  -10.2246    0.2695 H   0  0  0  0  0  0  0  0  0  0  0  0
   -2.3867   -9.7224    0.6268 H   0  0  0  0  0  0  0  0  0  0  0  0
   -1.9560  -11.4502    0.7285 H   0  0  0  0  0  0  0  0  0  0  0  0
   -2.1624  -12.0320    3.1008 H   0  0  0  0  0  0  0  0  0  0  0  0
   -1.5378  -11.5657    5.4846 H   0  0  0  0  0  0  0  0  0  0  0  0
   -0.2556   -9.4783    6.0062 H   0  0  0  0  0  0  0  0  0  0  0  0
  1  2  1  0
  1 39  1  0
  1 40  1  0
  1 41  1  0
  3  2  1  6
  2 42  1  0
  2 43  1  0
  3  4  1  0
  3  6  1  0
  3 26  1  0
  4  5  1  0
  4 44  1  0
  4 45  1  0
  5 46  1  0
  5 47  1  0
  5 48  1  0
  6  7  1  0
  6 19  2  0
  7  8  2  0
  7 49  1  0
  8  9  1  0
  8 50  1  0
  9 10  2  0
  9 51  1  0
 10 11  1  0
 10 19  1  0
 11 12  2  0
 11 30  1  0
 12 13  1  0
 12 17  1  0
 13 14  2  0
 13 27  1  0
 14 15  1  0
 14 52  1  0
 15 16  2  0
 15 53  1  0
 16 17  1  0
 16 54  1  0
 17 18  2  0
 18 19  1  0
 18 20  1  0
 20 21  1  0
 20 26  2  0
 21 22  2  0
 21 55  1  0
 22 23  1  0
 22 56  1  0
 23 24  2  0
 23 57  1  0
 24 25  1  0
 24 26  1  0
 25 58  1  0
 25 59  1  0
 25 60  1  0
 27 28  1  0
 27 38  1  0
 28 29  1  0
 28 61  1  0
 28 62  1  0
 29 63  1  0
 29 64  1  0
 29 65  1  0
 30 31  1  0
 30 66  1  0
 30 67  1  0
 31 68  1  0
 31 69  1  0
 31 70  1  0
 32 33  2  0
 32 38  1  0
 33 34  1  0
 33 35  1  0
 34 71  1  0
 34 72  1  0
 34 73  1  0
 35 36  2  0
 35 74  1  0
 36 37  1  0
 36 75  1  0
 37 38  2  0
 37 76  1  0
M  CHG  2   3  -1  26   1
M  END

