
     RDKit          3D

 31 33  0  0  0  0  0  0  0  0999 V2000
    5.8698    0.5583   -0.3865 O   0  0  0  0  0  0  0  0  0  0  0  0
    5.1548    0.1541   -1.2817 C   0  0  0  0  0  0  0  0  0  0  0  0
    4.1747   -0.7795   -1.1443 N   0  0  0  0  0  0  0  0  0  0  0  0
    3.9034   -1.4552    0.1213 C   0  0  0  0  0  0  0  0  0  0  0  0
    4.5902   -2.7994    0.2638 C   0  0  0  0  0  0  0  0  0  0  0  0
    5.9821   -2.8732    0.4381 C   0  0  0  0  0  0  0  0  0  0  0  0
    6.6308   -4.0999    0.5547 C   0  0  0  0  0  0  0  0  0  0  0  0
    5.8902   -5.2970    0.5009 C   0  0  0  0  0  0  0  0  0  0  0  0
    6.5547   -6.5282    0.6278 N   0  0  0  0  0  0  0  0  0  0  0  0
    7.9598   -6.5522    0.9796 N   0  0  0  0  0  0  0  0  0  0  0  0
    8.4296   -7.8595    0.6505 N   0  0  0  0  0  0  0  0  0  0  0  0
    7.2731   -8.6628    0.4923 C   0  0  0  0  0  0  0  0  0  0  0  0
    7.0606  -10.0117    0.3234 C   0  0  0  0  0  0  0  0  0  0  0  0
    5.8030  -10.4793    0.1311 N   0  0  0  0  0  0  0  0  0  0  0  0
    4.8276   -9.6003    0.1033 C   0  0  0  0  0  0  0  0  0  0  0  0
    3.2159  -10.2219   -0.1585 Cl  0  0  0  0  0  0  0  0  0  0  0  0
    4.9031   -8.2680    0.2498 N   0  0  0  0  0  0  0  0  0  0  0  0
    6.1306   -7.8215    0.4583 C   0  0  0  0  0  0  0  0  0  0  0  0
    4.4945   -5.2413    0.3342 C   0  0  0  0  0  0  0  0  0  0  0  0
    3.8689   -3.9993    0.2141 C   0  0  0  0  0  0  0  0  0  0  0  0
    5.2292    0.5320   -2.3312 H   0  0  0  0  0  0  0  0  0  0  0  0
    3.7192   -1.1176   -1.9849 H   0  0  0  0  0  0  0  0  0  0  0  0
    2.8139   -1.5759    0.2292 H   0  0  0  0  0  0  0  0  0  0  0  0
    4.2458   -0.7700    0.9103 H   0  0  0  0  0  0  0  0  0  0  0  0
    6.5646   -1.9490    0.4818 H   0  0  0  0  0  0  0  0  0  0  0  0
    7.7122   -4.1432    0.6815 H   0  0  0  0  0  0  0  0  0  0  0  0
    7.9844   -6.4895    2.0041 H   0  0  0  0  0  0  0  0  0  0  0  0
    8.9980   -7.8090   -0.1973 H   0  0  0  0  0  0  0  0  0  0  0  0
    7.8760  -10.7418    0.3182 H   0  0  0  0  0  0  0  0  0  0  0  0
    3.9170   -6.1634    0.2953 H   0  0  0  0  0  0  0  0  0  0  0  0
    2.7824   -3.9722    0.0861 H   0  0  0  0  0  0  0  0  0  0  0  0
  1  2  2  0
  2  3  1  0
  2 21  1  0
  3  4  1  0
  3 22  1  0
  4  5  1  0
  4 23  1  0
  4 24  1  0
  5  6  2  0
  5 20  1  0
  6  7  1  0
  6 25  1  0
  7  8  2  0
  7 26  1  0
  8  9  1  0
  8 19  1  0
  9 10  1  0
  9 18  1  0
 10 11  1  0
 10 27  1  0
 11 12  1  0
 11 28  1  0
 12 13  1  0
 12 18  2  0
 13 14  2  0
 13 29  1  0
 14 15  1  0
 15 16  1  0
 15 17  2  0
 17 18  1  0
 19 20  2  0
 19 30  1  0
 20 31  1  0
M  END

