
     RDKit          3D

 31 32  0  0  0  0  0  0  0  0999 V2000
    1.5897   -0.2039   -0.3823 C   0  0  0  0  0  0  0  0  0  0  0  0
    3.0436    0.1621   -0.1106 C   0  0  1  0  0  0  0  0  0  0  0  0
    3.9654    0.6095   -1.6627 S   0  0  0  0  0  0  0  0  0  0  0  0
    4.7461   -1.0257   -2.0642 C   0  0  0  0  0  0  0  0  0  0  0  0
    5.3606   -0.9990   -3.4136 C   0  0  0  0  0  0  0  0  0  0  0  0
    6.6383   -0.7713   -3.8554 C   0  0  0  0  0  0  0  0  0  0  0  0
    6.5940   -0.8515   -5.2857 C   0  0  0  0  0  0  0  0  0  0  0  0
    5.2927   -1.1176   -5.6044 C   0  0  0  0  0  0  0  0  0  0  0  0
    4.5395   -1.2067   -4.4814 O   0  0  0  0  0  0  0  0  0  0  0  0
    3.1752    1.3735    0.8155 C   0  0  0  0  0  0  0  0  0  0  0  0
    2.2259    2.1152    0.9772 O   0  0  0  0  0  0  0  0  0  0  0  0
    4.4795    1.6887    1.5074 C   0  0  0  0  0  0  0  0  0  0  0  0
    4.5483    2.9266    2.1790 C   0  0  0  0  0  0  0  0  0  0  0  0
    5.6817    3.3433    2.8674 C   0  0  0  0  0  0  0  0  0  0  0  0
    6.7883    2.4939    2.8970 C   0  0  0  0  0  0  0  0  0  0  0  0
    7.8885    2.8700    3.5521 F   0  0  0  0  0  0  0  0  0  0  0  0
    6.7761    1.2560    2.2615 C   0  0  0  0  0  0  0  0  0  0  0  0
    5.6235    0.8766    1.5791 C   0  0  0  0  0  0  0  0  0  0  0  0
    5.6516   -0.3340    0.9937 F   0  0  0  0  0  0  0  0  0  0  0  0
    1.5315   -1.0482   -1.0851 H   0  0  0  0  0  0  0  0  0  0  0  0
    1.0481    0.6494   -0.8118 H   0  0  0  0  0  0  0  0  0  0  0  0
    1.0804   -0.4916    0.5525 H   0  0  0  0  0  0  0  0  0  0  0  0
    3.5928   -0.6804    0.3292 H   0  0  0  0  0  0  0  0  0  0  0  0
    3.9644   -1.7993   -2.0219 H   0  0  0  0  0  0  0  0  0  0  0  0
    5.5116   -1.2431   -1.3077 H   0  0  0  0  0  0  0  0  0  0  0  0
    7.5058   -0.5690   -3.2305 H   0  0  0  0  0  0  0  0  0  0  0  0
    7.4211   -0.7294   -5.9820 H   0  0  0  0  0  0  0  0  0  0  0  0
    4.7700   -1.2689   -6.5453 H   0  0  0  0  0  0  0  0  0  0  0  0
    3.6589    3.5577    2.1358 H   0  0  0  0  0  0  0  0  0  0  0  0
    5.7253    4.3061    3.3789 H   0  0  0  0  0  0  0  0  0  0  0  0
    7.6422    0.5946    2.2951 H   0  0  0  0  0  0  0  0  0  0  0  0
  1  2  1  0
  1 20  1  0
  1 21  1  0
  1 22  1  0
  2  3  1  0
  2 10  1  0
  2 23  1  1
  3  4  1  0
  4  5  1  0
  4 24  1  0
  4 25  1  0
  5  6  2  0
  5  9  1  0
  6  7  1  0
  6 26  1  0
  7  8  2  0
  7 27  1  0
  8  9  1  0
  8 28  1  0
 10 11  2  0
 10 12  1  0
 12 13  2  0
 12 18  1  0
 13 14  1  0
 13 29  1  0
 14 15  2  0
 14 30  1  0
 15 16  1  0
 15 17  1  0
 17 18  2  0
 17 31  1  0
 18 19  1  0
M  END

