
     RDKit          3D

 55 58  0  0  0  0  0  0  0  0999 V2000
    1.0358    0.9581   -0.2241 C   0  0  0  0  0  0  0  0  0  0  0  0
    1.7728   -0.1301    0.3004 O   0  0  0  0  0  0  0  0  0  0  0  0
    2.3021   -0.0678    1.5599 C   0  0  0  0  0  0  0  0  0  0  0  0
    2.1404    1.0638    2.3733 C   0  0  0  0  0  0  0  0  0  0  0  0
    2.6930    1.0977    3.6557 C   0  0  0  0  0  0  0  0  0  0  0  0
    3.4120    0.0050    4.1408 C   0  0  0  0  0  0  0  0  0  0  0  0
    3.5704   -1.1172    3.3301 C   0  0  0  0  0  0  0  0  0  0  0  0
    3.0305   -1.1894    2.0361 C   0  0  0  0  0  0  0  0  0  0  0  0
    3.3054   -2.4895    1.3040 C   0  0  0  0  0  0  0  0  0  0  0  0
    3.9512   -3.3761    1.8494 O   0  0  0  0  0  0  0  0  0  0  0  0
    2.8021   -2.6027    0.0362 N   0  0  0  0  0  0  0  0  0  0  0  0
    2.9186   -3.6888   -0.8446 C   0  0  0  0  0  0  0  0  0  0  0  0
    3.5905   -4.8941   -0.5688 C   0  0  0  0  0  0  0  0  0  0  0  0
    3.6275   -5.8922   -1.5357 C   0  0  0  0  0  0  0  0  0  0  0  0
    3.0054   -5.6831   -2.7903 C   0  0  0  0  0  0  0  0  0  0  0  0
    3.0481   -6.6132   -3.8275 N   0  0  0  0  0  0  0  0  0  0  0  0
    2.0552   -6.5334   -4.8968 C   0  0  0  0  0  0  0  0  0  0  0  0
    2.5968   -7.1048   -6.2023 C   0  0  0  0  0  0  0  0  0  0  0  0
    3.0991   -8.4589   -5.9873 N   0  0  0  0  0  0  0  0  0  0  0  0
    2.8791   -9.4120   -6.9611 C   0  0  0  0  0  0  0  0  0  0  0  0
    2.3277   -9.1401   -8.0175 O   0  0  0  0  0  0  0  0  0  0  0  0
    3.2956  -10.8343   -6.6775 C   0  0  0  0  0  0  0  0  0  0  0  0
    2.9946  -11.4861   -5.4707 C   0  0  0  0  0  0  0  0  0  0  0  0
    3.3088  -12.8373   -5.2990 C   0  0  0  0  0  0  0  0  0  0  0  0
    3.9347  -13.5476   -6.3276 C   0  0  0  0  0  0  0  0  0  0  0  0
    4.2262  -12.9076   -7.5372 C   0  0  0  0  0  0  0  0  0  0  0  0
    3.8947  -11.5637   -7.7164 C   0  0  0  0  0  0  0  0  0  0  0  0
    4.1265   -8.5112   -4.9563 C   0  0  0  0  0  0  0  0  0  0  0  0
    3.6159   -7.9345   -3.6329 C   0  0  0  0  0  0  0  0  0  0  0  0
    2.3496   -4.5383   -3.0329 N   0  0  0  0  0  0  0  0  0  0  0  0
    2.3105   -3.5902   -2.1068 C   0  0  0  0  0  0  0  0  0  0  0  0
    0.7240    0.6619   -1.2343 H   0  0  0  0  0  0  0  0  0  0  0  0
    1.6523    1.8706   -0.2908 H   0  0  0  0  0  0  0  0  0  0  0  0
    0.1384    1.1693    0.3821 H   0  0  0  0  0  0  0  0  0  0  0  0
    1.5821    1.9266    2.0119 H   0  0  0  0  0  0  0  0  0  0  0  0
    2.5550    1.9894    4.2727 H   0  0  0  0  0  0  0  0  0  0  0  0
    3.8463    0.0258    5.1426 H   0  0  0  0  0  0  0  0  0  0  0  0
    4.1256   -1.9916    3.6737 H   0  0  0  0  0  0  0  0  0  0  0  0
    2.2824   -1.7976   -0.3035 H   0  0  0  0  0  0  0  0  0  0  0  0
    4.0637   -5.0333    0.4007 H   0  0  0  0  0  0  0  0  0  0  0  0
    4.1334   -6.8265   -1.2965 H   0  0  0  0  0  0  0  0  0  0  0  0
    1.7768   -5.4814   -5.0237 H   0  0  0  0  0  0  0  0  0  0  0  0
    1.1390   -7.0921   -4.6108 H   0  0  0  0  0  0  0  0  0  0  0  0
    3.4109   -6.4589   -6.5845 H   0  0  0  0  0  0  0  0  0  0  0  0
    1.8141   -7.1464   -6.9693 H   0  0  0  0  0  0  0  0  0  0  0  0
    2.4870  -10.9415   -4.6708 H   0  0  0  0  0  0  0  0  0  0  0  0
    3.0577  -13.3383   -4.3605 H   0  0  0  0  0  0  0  0  0  0  0  0
    4.1857  -14.6026   -6.1907 H   0  0  0  0  0  0  0  0  0  0  0  0
    4.7045  -13.4624   -8.3484 H   0  0  0  0  0  0  0  0  0  0  0  0
    4.0874  -11.0632   -8.6675 H   0  0  0  0  0  0  0  0  0  0  0  0
    4.9982   -7.9109   -5.2844 H   0  0  0  0  0  0  0  0  0  0  0  0
    4.4711   -9.5405   -4.8069 H   0  0  0  0  0  0  0  0  0  0  0  0
    4.4701   -7.8771   -2.9455 H   0  0  0  0  0  0  0  0  0  0  0  0
    2.8743   -8.6316   -3.1849 H   0  0  0  0  0  0  0  0  0  0  0  0
    1.7569   -2.6773   -2.3691 H   0  0  0  0  0  0  0  0  0  0  0  0
  1  2  1  0
  1 32  1  0
  1 33  1  0
  1 34  1  0
  2  3  1  0
  3  4  2  0
  3  8  1  0
  4  5  1  0
  4 35  1  0
  5  6  2  0
  5 36  1  0
  6  7  1  0
  6 37  1  0
  7  8  2  0
  7 38  1  0
  8  9  1  0
  9 10  2  0
  9 11  1  0
 11 12  1  0
 11 39  1  0
 12 13  2  0
 12 31  1  0
 13 14  1  0
 13 40  1  0
 14 15  2  0
 14 41  1  0
 15 16  1  0
 15 30  1  0
 16 17  1  0
 16 29  1  0
 17 18  1  0
 17 42  1  0
 17 43  1  0
 18 19  1  0
 18 44  1  0
 18 45  1  0
 19 20  1  0
 19 28  1  0
 20 21  2  0
 20 22  1  0
 22 23  2  0
 22 27  1  0
 23 24  1  0
 23 46  1  0
 24 25  2  0
 24 47  1  0
 25 26  1  0
 25 48  1  0
 26 27  2  0
 26 49  1  0
 27 50  1  0
 28 29  1  0
 28 51  1  0
 28 52  1  0
 29 53  1  0
 29 54  1  0
 30 31  2  0
 31 55  1  0
M  END

