
     RDKit          3D

106115  0  0  0  0  0  0  0  0999 V2000
    1.3715    0.2456   -0.5052 C   0  0  0  0  0  0  0  0  0  0  0  0
    2.8769    0.0022   -0.3910 C   0  0  0  0  0  0  0  0  0  0  0  0
    3.4081   -0.9967   -1.4231 C   0  0  0  0  0  0  0  0  0  0  0  0
    4.9115   -1.2559   -1.2701 C   0  0  0  0  0  0  0  0  0  0  0  0
    5.4538   -2.2119   -2.2308 N   0  0  0  0  0  0  0  0  0  0  0  0
    5.3064   -3.6101   -1.9497 C   0  0  0  0  0  0  0  0  0  0  0  0
    4.6306   -4.0213   -1.0206 O   0  0  0  0  0  0  0  0  0  0  0  0
    6.0959   -4.2653   -2.9833 C   0  0  0  0  0  0  0  0  0  0  0  0
    6.5168   -5.5159   -3.4277 C   0  0  0  0  0  0  0  0  0  0  0  0
    6.2052   -6.8171   -2.8291 C   0  0  0  0  0  0  0  0  0  0  0  0
    5.0152   -6.9608   -2.0772 C   0  0  0  0  0  0  0  0  0  0  0  0
    4.6808   -8.1692   -1.4803 C   0  0  0  0  0  0  0  0  0  0  0  0
    5.5231   -9.2972   -1.5820 C   0  0  0  0  0  0  0  0  0  0  0  0
    5.2626  -10.5764   -0.9071 C   0  0  0  0  0  0  0  0  0  0  0  0
    4.1066  -11.2533   -0.6448 C   0  0  0  0  0  0  0  0  0  0  0  0
    2.7684  -10.8983   -1.1764 C   0  0  0  0  0  0  0  0  0  0  0  0
    2.5913  -10.3036   -2.4413 C   0  0  0  0  0  0  0  0  0  0  0  0
    1.3217   -9.9651   -2.9033 C   0  0  0  0  0  0  0  0  0  0  0  0
    0.1890  -10.2056   -2.1122 C   0  0  0  0  0  0  0  0  0  0  0  0
    0.3391  -10.8295   -0.8784 C   0  0  0  0  0  0  0  0  0  0  0  0
    1.6128  -11.2018   -0.4187 C   0  0  0  0  0  0  0  0  0  0  0  0
    1.7068  -11.9933    0.8404 C   0  0  0  0  0  0  0  0  0  0  0  0
    0.7521  -12.1297    1.5904 O   0  0  0  0  0  0  0  0  0  0  0  0
    2.9962  -12.7054    1.0682 C   0  0  0  0  0  0  0  0  0  0  0  0
    3.0348  -13.7123    2.0472 C   0  0  0  0  0  0  0  0  0  0  0  0
    4.1910  -14.4562    2.2525 C   0  0  0  0  0  0  0  0  0  0  0  0
    5.3235  -14.1927    1.4687 C   0  0  0  0  0  0  0  0  0  0  0  0
    5.3024  -13.1789    0.5140 C   0  0  0  0  0  0  0  0  0  0  0  0
    4.1462  -12.4017    0.3014 C   0  0  0  0  0  0  0  0  0  0  0  0
    6.7409   -9.1312   -2.2741 C   0  0  0  0  0  0  0  0  0  0  0  0
    7.0690   -7.9313   -2.8965 C   0  0  0  0  0  0  0  0  0  0  0  0
    7.3395   -5.3055   -4.5365 N   0  0  0  0  0  0  0  0  0  0  0  0
    7.8465   -6.2597   -5.5175 C   0  0  0  0  0  0  0  0  0  0  0  0
    6.7562   -6.9553   -6.3400 C   0  0  0  0  0  0  0  0  0  0  0  0
    7.3366   -7.8969   -7.3996 C   0  0  0  0  0  0  0  0  0  0  0  0
    6.2670   -8.5877   -8.2465 C   0  0  0  0  0  0  0  0  0  0  0  0
    7.4820   -3.9010   -4.8194 C   0  0  0  0  0  0  0  0  0  0  0  0
    8.1674   -3.4790   -5.7363 O   0  0  0  0  0  0  0  0  0  0  0  0
    6.6806   -3.2495   -3.7957 C   0  0  0  0  0  0  0  0  0  0  0  0
    6.2715   -1.9972   -3.3406 C   0  0  0  0  0  0  0  0  0  0  0  0
    6.6053   -0.6888   -3.9082 C   0  0  0  0  0  0  0  0  0  0  0  0
    5.7686    0.4461   -3.7982 C   0  0  0  0  0  0  0  0  0  0  0  0
    6.1229    1.6642   -4.3656 C   0  0  0  0  0  0  0  0  0  0  0  0
    7.3316    1.8161   -5.0768 C   0  0  0  0  0  0  0  0  0  0  0  0
    7.7219    3.0592   -5.7570 C   0  0  0  0  0  0  0  0  0  0  0  0
    7.5526    4.3712   -5.4219 C   0  0  0  0  0  0  0  0  0  0  0  0
    7.0535    4.8599   -4.1135 C   0  0  0  0  0  0  0  0  0  0  0  0
    7.3082    4.1797   -2.9059 C   0  0  0  0  0  0  0  0  0  0  0  0
    6.8112    4.6575   -1.6956 C   0  0  0  0  0  0  0  0  0  0  0  0
    6.0380    5.8270   -1.6553 C   0  0  0  0  0  0  0  0  0  0  0  0
    5.8101    6.5343   -2.8308 C   0  0  0  0  0  0  0  0  0  0  0  0
    6.3343    6.0764   -4.0508 C   0  0  0  0  0  0  0  0  0  0  0  0
    6.1855    6.9426   -5.2546 C   0  0  0  0  0  0  0  0  0  0  0  0
    5.4367    7.9079   -5.2664 O   0  0  0  0  0  0  0  0  0  0  0  0
    7.0904    6.6317   -6.3971 C   0  0  0  0  0  0  0  0  0  0  0  0
    7.2329    7.5923   -7.4124 C   0  0  0  0  0  0  0  0  0  0  0  0
    8.1165    7.3838   -8.4651 C   0  0  0  0  0  0  0  0  0  0  0  0
    8.8690    6.2012   -8.5044 C   0  0  0  0  0  0  0  0  0  0  0  0
    8.7150    5.2317   -7.5163 C   0  0  0  0  0  0  0  0  0  0  0  0
    7.8131    5.4160   -6.4494 C   0  0  0  0  0  0  0  0  0  0  0  0
    8.1350    0.6672   -5.2369 C   0  0  0  0  0  0  0  0  0  0  0  0
    7.7911   -0.5516   -4.6644 C   0  0  0  0  0  0  0  0  0  0  0  0
    1.0205    0.9643    0.2521 H   0  0  0  0  0  0  0  0  0  0  0  0
    0.8048   -0.6899   -0.3659 H   0  0  0  0  0  0  0  0  0  0  0  0
    1.1038    0.6489   -1.4962 H   0  0  0  0  0  0  0  0  0  0  0  0
    3.1148   -0.3654    0.6236 H   0  0  0  0  0  0  0  0  0  0  0  0
    3.4153    0.9624   -0.4967 H   0  0  0  0  0  0  0  0  0  0  0  0
    3.1872   -0.6340   -2.4432 H   0  0  0  0  0  0  0  0  0  0  0  0
    2.8831   -1.9598   -1.3167 H   0  0  0  0  0  0  0  0  0  0  0  0
    5.0899   -1.6833   -0.2708 H   0  0  0  0  0  0  0  0  0  0  0  0
    5.4892   -0.3237   -1.3354 H   0  0  0  0  0  0  0  0  0  0  0  0
    4.3597   -6.1017   -1.9358 H   0  0  0  0  0  0  0  0  0  0  0  0
    3.7593   -8.2339   -0.9004 H   0  0  0  0  0  0  0  0  0  0  0  0
    6.1746  -11.0196   -0.4958 H   0  0  0  0  0  0  0  0  0  0  0  0
    3.4585  -10.1173   -3.0746 H   0  0  0  0  0  0  0  0  0  0  0  0
    1.2122   -9.5125   -3.8921 H   0  0  0  0  0  0  0  0  0  0  0  0
   -0.8040   -9.9267   -2.4730 H   0  0  0  0  0  0  0  0  0  0  0  0
   -0.5187  -11.0677   -0.2463 H   0  0  0  0  0  0  0  0  0  0  0  0
    2.1262  -13.8910    2.6256 H   0  0  0  0  0  0  0  0  0  0  0  0
    4.2141  -15.2466    3.0065 H   0  0  0  0  0  0  0  0  0  0  0  0
    6.2306  -14.7882    1.6004 H   0  0  0  0  0  0  0  0  0  0  0  0
    6.1939  -13.0056   -0.0913 H   0  0  0  0  0  0  0  0  0  0  0  0
    7.4440   -9.9670   -2.3267 H   0  0  0  0  0  0  0  0  0  0  0  0
    8.0297   -7.8560   -3.4020 H   0  0  0  0  0  0  0  0  0  0  0  0
    8.5066   -6.9991   -5.0409 H   0  0  0  0  0  0  0  0  0  0  0  0
    8.4826   -5.6564   -6.1816 H   0  0  0  0  0  0  0  0  0  0  0  0
    6.1362   -6.1822   -6.8268 H   0  0  0  0  0  0  0  0  0  0  0  0
    6.0832   -7.5210   -5.6728 H   0  0  0  0  0  0  0  0  0  0  0  0
    7.9637   -8.6609   -6.9042 H   0  0  0  0  0  0  0  0  0  0  0  0
    8.0192   -7.3285   -8.0568 H   0  0  0  0  0  0  0  0  0  0  0  0
    5.5901   -9.1938   -7.6215 H   0  0  0  0  0  0  0  0  0  0  0  0
    6.7169   -9.2577   -8.9962 H   0  0  0  0  0  0  0  0  0  0  0  0
    5.6473   -7.8524   -8.7862 H   0  0  0  0  0  0  0  0  0  0  0  0
    4.8020    0.3711   -3.3041 H   0  0  0  0  0  0  0  0  0  0  0  0
    5.4371    2.5083   -4.2808 H   0  0  0  0  0  0  0  0  0  0  0  0
    8.1753    2.8719   -6.7351 H   0  0  0  0  0  0  0  0  0  0  0  0
    7.9162    3.2751   -2.9157 H   0  0  0  0  0  0  0  0  0  0  0  0
    7.0336    4.1169   -0.7719 H   0  0  0  0  0  0  0  0  0  0  0  0
    5.6405    6.1919   -0.7051 H   0  0  0  0  0  0  0  0  0  0  0  0
    5.2449    7.4685   -2.8395 H   0  0  0  0  0  0  0  0  0  0  0  0
    6.6360    8.5033   -7.3353 H   0  0  0  0  0  0  0  0  0  0  0  0
    8.2340    8.1381   -9.2468 H   0  0  0  0  0  0  0  0  0  0  0  0
    9.5872    6.0362   -9.3117 H   0  0  0  0  0  0  0  0  0  0  0  0
    9.3238    4.3272   -7.5646 H   0  0  0  0  0  0  0  0  0  0  0  0
    9.0563    0.7362   -5.8213 H   0  0  0  0  0  0  0  0  0  0  0  0
    8.4321   -1.4175   -4.8284 H   0  0  0  0  0  0  0  0  0  0  0  0
  1  2  1  0
  1 63  1  0
  1 64  1  0
  1 65  1  0
  2  3  1  0
  2 66  1  0
  2 67  1  0
  3  4  1  0
  3 68  1  0
  3 69  1  0
  4  5  1  0
  4 70  1  0
  4 71  1  0
  5  6  1  0
  5 40  1  0
  6  7  2  0
  6  8  1  0
  8  9  2  0
  8 39  1  0
  9 10  1  0
  9 32  1  0
 10 11  2  0
 10 31  1  0
 11 12  1  0
 11 72  1  0
 12 13  2  0
 12 73  1  0
 13 14  1  0
 13 30  1  0
 14 15  2  0
 14 74  1  0
 15 16  1  0
 15 29  1  0
 16 17  2  0
 16 21  1  0
 17 18  1  0
 17 75  1  0
 18 19  2  0
 18 76  1  0
 19 20  1  0
 19 77  1  0
 20 21  2  0
 20 78  1  0
 21 22  1  0
 22 23  2  0
 22 24  1  0
 24 25  2  0
 24 29  1  0
 25 26  1  0
 25 79  1  0
 26 27  2  0
 26 80  1  0
 27 28  1  0
 27 81  1  0
 28 29  2  0
 28 82  1  0
 30 31  2  0
 30 83  1  0
 31 84  1  0
 32 33  1  0
 32 37  1  0
 33 34  1  0
 33 85  1  0
 33 86  1  0
 34 35  1  0
 34 87  1  0
 34 88  1  0
 35 36  1  0
 35 89  1  0
 35 90  1  0
 36 91  1  0
 36 92  1  0
 36 93  1  0
 37 38  2  0
 37 39  1  0
 39 40  2  0
 40 41  1  0
 41 42  2  0
 41 62  1  0
 42 43  1  0
 42 94  1  0
 43 44  2  0
 43 95  1  0
 44 45  1  0
 44 61  1  0
 45 46  2  0
 45 96  1  0
 46 47  1  0
 46 60  1  0
 47 48  2  0
 47 52  1  0
 48 49  1  0
 48 97  1  0
 49 50  2  0
 49 98  1  0
 50 51  1  0
 50 99  1  0
 51 52  2  0
 51100  1  0
 52 53  1  0
 53 54  2  0
 53 55  1  0
 55 56  2  0
 55 60  1  0
 56 57  1  0
 56101  1  0
 57 58  2  0
 57102  1  0
 58 59  1  0
 58103  1  0
 59 60  2  0
 59104  1  0
 61 62  2  0
 61105  1  0
 62106  1  0
M  END

