
     RDKit          3D

 57 58  0  0  0  0  0  0  0  0999 V2000
    0.8754    0.0842    0.5482 C   0  0  0  0  0  0  0  0  0  0  0  0
    2.2436    0.3919    0.4664 O   0  0  0  0  0  0  0  0  0  0  0  0
    2.6646    1.3933    1.3572 C   0  0  0  0  0  0  0  0  0  0  0  0
    4.1984    1.4324    1.3728 C   0  0  1  0  0  0  0  0  0  0  0  0
    4.8448    1.5273   -0.0516 C   0  0  0  0  0  0  0  0  0  0  0  0
    5.5621    0.6152   -0.4316 O   0  0  0  0  0  0  0  0  0  0  0  0
    4.6771    2.6514   -0.8441 N   0  0  0  0  0  0  0  0  0  0  0  0
    5.5028    2.7418   -2.0538 C   0  0  0  0  0  0  0  0  0  0  0  0
    4.6736    2.8919   -3.3227 C   0  0  0  0  0  0  0  0  0  0  0  0
    3.6539    4.4116   -3.3014 S   0  0  0  0  0  0  0  0  0  0  0  0
    2.8143    4.1695   -1.6572 C   0  0  2  0  0  0  0  0  0  0  0  0
    1.7439    3.0762   -1.7589 C   0  0  0  0  0  0  0  0  0  0  0  0
    2.1726    5.5212   -1.3202 C   0  0  0  0  0  0  0  0  0  0  0  0
    3.8780    3.8407   -0.5769 C   0  0  0  0  0  0  0  0  0  0  0  0
    4.7742    2.5197    2.3238 C   0  0  0  0  0  0  0  0  0  0  0  0
    6.1627    1.9933    2.7036 C   0  0  0  0  0  0  0  0  0  0  0  0
    5.9962    0.5466    2.6515 N   0  0  0  0  0  0  0  0  0  0  0  0
    7.0482   -0.2710    2.9390 C   0  0  0  0  0  0  0  0  0  0  0  0
    8.1307    0.1409    3.3168 O   0  0  0  0  0  0  0  0  0  0  0  0
    6.7098   -1.5684    2.7647 O   0  0  0  0  0  0  0  0  0  0  0  0
    7.6782   -2.6477    2.9502 C   0  0  1  0  0  0  0  0  0  0  0  0
    8.1504   -2.6858    4.4082 C   0  0  0  0  0  0  0  0  0  0  0  0
    6.8644   -3.8991    2.6128 C   0  0  0  0  0  0  0  0  0  0  0  0
    8.8460   -2.4824    1.9711 C   0  0  0  0  0  0  0  0  0  0  0  0
    4.7344    0.1403    2.0409 C   0  0  0  0  0  0  0  0  0  0  0  0
    0.6656   -0.7046   -0.1882 H   0  0  0  0  0  0  0  0  0  0  0  0
    0.2359    0.9598    0.3191 H   0  0  0  0  0  0  0  0  0  0  0  0
    0.5988   -0.2874    1.5551 H   0  0  0  0  0  0  0  0  0  0  0  0
    2.3171    1.1702    2.3876 H   0  0  0  0  0  0  0  0  0  0  0  0
    2.2163    2.3679    1.0872 H   0  0  0  0  0  0  0  0  0  0  0  0
    6.1076    1.8285   -2.0993 H   0  0  0  0  0  0  0  0  0  0  0  0
    6.1778    3.6122   -1.9577 H   0  0  0  0  0  0  0  0  0  0  0  0
    4.0402    2.0055   -3.4846 H   0  0  0  0  0  0  0  0  0  0  0  0
    5.3358    2.9945   -4.1961 H   0  0  0  0  0  0  0  0  0  0  0  0
    1.0655    3.2810   -2.5998 H   0  0  0  0  0  0  0  0  0  0  0  0
    1.1410    3.0440   -0.8353 H   0  0  0  0  0  0  0  0  0  0  0  0
    2.1832    2.0781   -1.8970 H   0  0  0  0  0  0  0  0  0  0  0  0
    1.4348    5.8066   -2.0861 H   0  0  0  0  0  0  0  0  0  0  0  0
    2.9261    6.3214   -1.2580 H   0  0  0  0  0  0  0  0  0  0  0  0
    1.6461    5.4638   -0.3523 H   0  0  0  0  0  0  0  0  0  0  0  0
    3.3614    3.7382    0.3826 H   0  0  0  0  0  0  0  0  0  0  0  0
    4.5526    4.7131   -0.4912 H   0  0  0  0  0  0  0  0  0  0  0  0
    4.1327    2.5800    3.2197 H   0  0  0  0  0  0  0  0  0  0  0  0
    4.8260    3.5269    1.8907 H   0  0  0  0  0  0  0  0  0  0  0  0
    6.4894    2.3273    3.7009 H   0  0  0  0  0  0  0  0  0  0  0  0
    6.9364    2.3231    1.9865 H   0  0  0  0  0  0  0  0  0  0  0  0
    7.2872   -2.7708    5.0873 H   0  0  0  0  0  0  0  0  0  0  0  0
    8.7116   -1.7776    4.6612 H   0  0  0  0  0  0  0  0  0  0  0  0
    8.7981   -3.5623    4.5681 H   0  0  0  0  0  0  0  0  0  0  0  0
    5.9972   -3.9889    3.2847 H   0  0  0  0  0  0  0  0  0  0  0  0
    7.4864   -4.8006    2.7225 H   0  0  0  0  0  0  0  0  0  0  0  0
    6.4948   -3.8526    1.5773 H   0  0  0  0  0  0  0  0  0  0  0  0
    9.4248   -1.5786    2.1995 H   0  0  0  0  0  0  0  0  0  0  0  0
    8.4702   -2.4107    0.9385 H   0  0  0  0  0  0  0  0  0  0  0  0
    9.5122   -3.3573    2.0346 H   0  0  0  0  0  0  0  0  0  0  0  0
    4.0169   -0.2055    2.8077 H   0  0  0  0  0  0  0  0  0  0  0  0
    4.8868   -0.6639    1.3163 H   0  0  0  0  0  0  0  0  0  0  0  0
  1  2  1  0
  1 26  1  0
  1 27  1  0
  1 28  1  0
  2  3  1  0
  3  4  1  0
  3 29  1  0
  3 30  1  0
  4  5  1  6
  4 15  1  0
  4 25  1  0
  5  6  2  0
  5  7  1  0
  7  8  1  0
  7 14  1  0
  8  9  1  0
  8 31  1  0
  8 32  1  0
  9 10  1  0
  9 33  1  0
  9 34  1  0
 10 11  1  0
 11 12  1  6
 11 13  1  0
 11 14  1  0
 12 35  1  0
 12 36  1  0
 12 37  1  0
 13 38  1  0
 13 39  1  0
 13 40  1  0
 14 41  1  0
 14 42  1  0
 15 16  1  0
 15 43  1  0
 15 44  1  0
 16 17  1  0
 16 45  1  0
 16 46  1  0
 17 18  1  0
 17 25  1  0
 18 19  2  0
 18 20  1  0
 21 20  1  1
 21 22  1  0
 21 23  1  0
 21 24  1  0
 22 47  1  0
 22 48  1  0
 22 49  1  0
 23 50  1  0
 23 51  1  0
 23 52  1  0
 24 53  1  0
 24 54  1  0
 24 55  1  0
 25 56  1  0
 25 57  1  0
M  END

