
     RDKit          3D

 64 66  0  0  0  0  0  0  0  0999 V2000
    1.0379   -4.0482    0.4087 C   0  0  0  0  0  0  0  0  0  0  0  0
    2.2693   -3.3411    0.5415 O   0  0  0  0  0  0  0  0  0  0  0  0
    2.7868   -3.2767    1.7850 C   0  0  0  0  0  0  0  0  0  0  0  0
    2.2556   -3.7863    2.7451 O   0  0  0  0  0  0  0  0  0  0  0  0
    4.0710   -2.5175    1.8331 C   0  0  0  0  0  0  0  0  0  0  0  0
    4.6628   -1.9622    0.6903 C   0  0  0  0  0  0  0  0  0  0  0  0
    5.8719   -1.2699    0.7955 C   0  0  0  0  0  0  0  0  0  0  0  0
    6.5045   -1.1117    2.0362 C   0  0  0  0  0  0  0  0  0  0  0  0
    7.8320   -0.3613    2.1379 C   0  0  1  0  0  0  0  0  0  0  0  0
    7.8665    0.7736    3.1308 C   0  0  0  0  0  0  0  0  0  0  0  0
    7.0281    1.9568    3.0464 C   0  0  0  0  0  0  0  0  0  0  0  0
    6.8252    2.7021    4.0045 O   0  0  0  0  0  0  0  0  0  0  0  0
    6.3558    2.2662    1.7318 C   0  0  0  0  0  0  0  0  0  0  0  0
    4.9924    2.5875    1.6256 C   0  0  0  0  0  0  0  0  0  0  0  0
    3.9320    2.6215    2.6781 C   0  0  0  0  0  0  0  0  0  0  0  0
    4.7342    2.8591    0.3219 N   0  0  0  0  0  0  0  0  0  0  0  0
    3.8374    3.1193   -0.0695 H   0  0  0  0  0  0  0  0  0  0  0  0
    5.8885    2.7575   -0.4328 C   0  0  0  0  0  0  0  0  0  0  0  0
    5.9207    3.0436   -1.8560 C   0  0  0  0  0  0  0  0  0  0  0  0
    6.8941    2.9728   -2.5785 O   0  0  0  0  0  0  0  0  0  0  0  0
    4.6888    3.4104   -2.3179 O   0  0  0  0  0  0  0  0  0  0  0  0
    4.6101    3.7192   -3.7049 C   0  0  0  0  0  0  0  0  0  0  0  0
    6.9295    2.3934    0.4300 C   0  0  0  0  0  0  0  0  0  0  0  0
    8.3745    2.2758    0.0390 C   0  0  0  0  0  0  0  0  0  0  0  0
    8.7927    0.4963    4.1803 C   0  0  0  0  0  0  0  0  0  0  0  0
    9.1606    1.0634    5.2004 O   0  0  0  0  0  0  0  0  0  0  0  0
    9.4315   -0.8222    3.7493 C   0  0  0  0  0  0  0  0  0  0  0  0
   10.3753   -1.3843    4.4172 O   0  0  0  0  0  0  0  0  0  0  0  0
    8.9028   -1.2832    2.6244 N   0  0  0  0  0  0  0  0  0  0  0  0
    9.1298   -2.5817    1.9904 C   0  0  0  0  0  0  0  0  0  0  0  0
   10.5955   -2.9143    1.7003 C   0  0  0  0  0  0  0  0  0  0  0  0
   11.3773   -3.2408    2.9104 N   0  0  0  0  0  0  0  0  0  0  0  0
   10.8075   -2.1870    3.9073 H   0  0  0  0  0  0  0  0  0  0  0  0
   11.1178   -4.5979    3.4050 C   0  0  0  0  0  0  0  0  0  0  0  0
   12.8141   -3.0057    2.7207 C   0  0  0  0  0  0  0  0  0  0  0  0
    5.8965   -1.6555    3.1810 C   0  0  0  0  0  0  0  0  0  0  0  0
    4.6994   -2.3575    3.0810 C   0  0  0  0  0  0  0  0  0  0  0  0
    0.7717   -4.0034   -0.6547 H   0  0  0  0  0  0  0  0  0  0  0  0
    0.2499   -3.5813    1.0192 H   0  0  0  0  0  0  0  0  0  0  0  0
    1.1492   -5.0947    0.7311 H   0  0  0  0  0  0  0  0  0  0  0  0
    4.1733   -2.0748   -0.2778 H   0  0  0  0  0  0  0  0  0  0  0  0
    6.3220   -0.8305   -0.0988 H   0  0  0  0  0  0  0  0  0  0  0  0
    8.1261   -0.0592    1.1190 H   0  0  0  0  0  0  0  0  0  0  0  0
    4.3941    2.8450    3.6482 H   0  0  0  0  0  0  0  0  0  0  0  0
    3.4056    1.6540    2.7603 H   0  0  0  0  0  0  0  0  0  0  0  0
    3.1779    3.3947    2.4591 H   0  0  0  0  0  0  0  0  0  0  0  0
    3.5649    3.9902   -3.9027 H   0  0  0  0  0  0  0  0  0  0  0  0
    4.9001    2.8538   -4.3211 H   0  0  0  0  0  0  0  0  0  0  0  0
    5.2738    4.5594   -3.9617 H   0  0  0  0  0  0  0  0  0  0  0  0
    8.7027    3.1683   -0.5146 H   0  0  0  0  0  0  0  0  0  0  0  0
    8.5482    1.4273   -0.6450 H   0  0  0  0  0  0  0  0  0  0  0  0
    9.0149    2.1564    0.9242 H   0  0  0  0  0  0  0  0  0  0  0  0
    8.5841   -2.5670    1.0372 H   0  0  0  0  0  0  0  0  0  0  0  0
    8.6586   -3.3771    2.5947 H   0  0  0  0  0  0  0  0  0  0  0  0
   11.0650   -2.0482    1.2095 H   0  0  0  0  0  0  0  0  0  0  0  0
   10.6308   -3.7543    0.9791 H   0  0  0  0  0  0  0  0  0  0  0  0
   10.0440   -4.7446    3.5866 H   0  0  0  0  0  0  0  0  0  0  0  0
   11.6438   -4.7494    4.3585 H   0  0  0  0  0  0  0  0  0  0  0  0
   11.4598   -5.3679    2.6862 H   0  0  0  0  0  0  0  0  0  0  0  0
   12.9894   -1.9528    2.4561 H   0  0  0  0  0  0  0  0  0  0  0  0
   13.2375   -3.6479    1.9245 H   0  0  0  0  0  0  0  0  0  0  0  0
   13.3478   -3.2174    3.6584 H   0  0  0  0  0  0  0  0  0  0  0  0
    6.3606   -1.5069    4.1595 H   0  0  0  0  0  0  0  0  0  0  0  0
    4.2216   -2.7866    3.9639 H   0  0  0  0  0  0  0  0  0  0  0  0
  1  2  1  0
  1 38  1  0
  1 39  1  0
  1 40  1  0
  2  3  1  0
  3  4  2  0
  3  5  1  0
  5  6  2  0
  5 37  1  0
  6  7  1  0
  6 41  1  0
  7  8  2  0
  7 42  1  0
  8  9  1  0
  8 36  1  0
  9 10  1  0
  9 29  1  0
  9 43  1  6
 10 11  1  0
 10 25  2  0
 11 12  2  0
 11 13  1  0
 13 14  2  0
 13 23  1  0
 14 15  1  0
 14 16  1  0
 15 44  1  0
 15 45  1  0
 15 46  1  0
 16 17  1  0
 16 18  1  0
 18 19  1  0
 18 23  2  0
 19 20  2  0
 19 21  1  0
 21 22  1  0
 22 47  1  0
 22 48  1  0
 22 49  1  0
 23 24  1  0
 24 50  1  0
 24 51  1  0
 24 52  1  0
 25 26  1  0
 25 27  1  0
 27 28  1  0
 27 29  2  0
 28 33  1  0
 29 30  1  0
 30 31  1  0
 30 53  1  0
 30 54  1  0
 31 32  1  0
 31 55  1  0
 31 56  1  0
 32 34  1  0
 32 35  1  0
 34 57  1  0
 34 58  1  0
 34 59  1  0
 35 60  1  0
 35 61  1  0
 35 62  1  0
 36 37  2  0
 36 63  1  0
 37 64  1  0
M  CHG  2  26  -1  29   1
M  END

