
     RDKit          3D

 59 62  0  0  0  0  0  0  0  0999 V2000
    4.2770   -6.4334   -6.6009 C   0  0  0  0  0  0  0  0  0  0  0  0
    3.0591   -5.7989   -5.9725 C   0  0  0  0  0  0  0  0  0  0  0  0
    2.0099   -5.3010   -6.7627 C   0  0  0  0  0  0  0  0  0  0  0  0
    0.8765   -4.7404   -6.1696 C   0  0  0  0  0  0  0  0  0  0  0  0
    0.7744   -4.6643   -4.7769 C   0  0  0  0  0  0  0  0  0  0  0  0
    1.8068   -5.1564   -3.9647 C   0  0  0  0  0  0  0  0  0  0  0  0
    1.6941   -5.1133   -2.4506 C   0  0  0  0  0  0  0  0  0  0  0  0
    2.9032   -4.6243   -1.7905 N   0  0  0  0  0  0  0  0  0  0  0  0
    3.2927   -3.2660   -2.1511 C   0  0  0  0  0  0  0  0  0  0  0  0
    2.2435   -2.1965   -1.7987 C   0  0  0  0  0  0  0  0  0  0  0  0
    2.0020   -1.8973   -0.6401 O   0  0  0  0  0  0  0  0  0  0  0  0
    1.5932   -1.6592   -2.8865 N   0  0  0  0  0  0  0  0  0  0  0  0
    0.5770   -0.6845   -2.9251 C   0  0  0  0  0  0  0  0  0  0  0  0
    0.1363   -0.2477   -4.1876 C   0  0  0  0  0  0  0  0  0  0  0  0
   -0.8826    0.6989   -4.2895 C   0  0  0  0  0  0  0  0  0  0  0  0
   -1.4756    1.2258   -3.1415 C   0  0  0  0  0  0  0  0  0  0  0  0
   -1.0237    0.8176   -1.8785 C   0  0  0  0  0  0  0  0  0  0  0  0
   -1.7671    1.3319   -0.6675 C   0  0  0  0  0  0  0  0  0  0  0  0
   -2.9899    1.3692   -0.6910 O   0  0  0  0  0  0  0  0  0  0  0  0
   -1.0465    1.7034    0.4500 N   0  0  0  0  0  0  0  0  0  0  0  0
    0.3585    2.1047    0.4554 C   0  0  0  0  0  0  0  0  0  0  0  0
    0.5296    3.6200    0.6150 C   0  0  0  0  0  0  0  0  0  0  0  0
   -0.2064    4.2684    2.1609 S   0  0  0  0  0  0  0  0  0  0  0  0
   -1.8672    3.5218    1.9450 C   0  0  0  0  0  0  0  0  0  0  0  0
   -1.7940    2.0202    1.6673 C   0  0  0  0  0  0  0  0  0  0  0  0
   -0.0081   -0.1431   -1.7669 C   0  0  0  0  0  0  0  0  0  0  0  0
    2.9538   -4.9096   -0.3792 C   0  0  1  0  0  0  0  0  0  0  0  0
    3.3282   -6.3054    0.0448 C   0  0  0  0  0  0  0  0  0  0  0  0
    4.3005   -5.1677    0.2404 C   0  0  0  0  0  0  0  0  0  0  0  0
    2.9385   -5.7144   -4.5775 C   0  0  0  0  0  0  0  0  0  0  0  0
    4.3739   -6.1627   -7.6629 H   0  0  0  0  0  0  0  0  0  0  0  0
    4.2228   -7.5347   -6.5453 H   0  0  0  0  0  0  0  0  0  0  0  0
    5.2020   -6.1313   -6.0848 H   0  0  0  0  0  0  0  0  0  0  0  0
    2.0837   -5.3525   -7.8528 H   0  0  0  0  0  0  0  0  0  0  0  0
    0.0671   -4.3569   -6.7966 H   0  0  0  0  0  0  0  0  0  0  0  0
   -0.1150   -4.2242   -4.3166 H   0  0  0  0  0  0  0  0  0  0  0  0
    1.5228   -6.1367   -2.0768 H   0  0  0  0  0  0  0  0  0  0  0  0
    0.7889   -4.5334   -2.1698 H   0  0  0  0  0  0  0  0  0  0  0  0
    3.5385   -3.2337   -3.2254 H   0  0  0  0  0  0  0  0  0  0  0  0
    4.2034   -3.0109   -1.5894 H   0  0  0  0  0  0  0  0  0  0  0  0
    1.8710   -2.0247   -3.7909 H   0  0  0  0  0  0  0  0  0  0  0  0
    0.5909   -0.6618   -5.0925 H   0  0  0  0  0  0  0  0  0  0  0  0
   -1.2209    1.0205   -5.2777 H   0  0  0  0  0  0  0  0  0  0  0  0
   -2.2964    1.9417   -3.2090 H   0  0  0  0  0  0  0  0  0  0  0  0
    0.8308    1.7921   -0.4831 H   0  0  0  0  0  0  0  0  0  0  0  0
    0.8801    1.5873    1.2797 H   0  0  0  0  0  0  0  0  0  0  0  0
    0.0905    4.1439   -0.2509 H   0  0  0  0  0  0  0  0  0  0  0  0
    1.5997    3.8750    0.6578 H   0  0  0  0  0  0  0  0  0  0  0  0
   -2.4059    4.0349    1.1318 H   0  0  0  0  0  0  0  0  0  0  0  0
   -2.4089    3.7120    2.8841 H   0  0  0  0  0  0  0  0  0  0  0  0
   -2.8071    1.6168    1.5414 H   0  0  0  0  0  0  0  0  0  0  0  0
   -1.3051    1.5142    2.5180 H   0  0  0  0  0  0  0  0  0  0  0  0
    0.3295   -0.4977   -0.7962 H   0  0  0  0  0  0  0  0  0  0  0  0
    2.2243   -4.3816    0.2527 H   0  0  0  0  0  0  0  0  0  0  0  0
    3.5561   -7.0240   -0.7476 H   0  0  0  0  0  0  0  0  0  0  0  0
    2.8294   -6.7308    0.9201 H   0  0  0  0  0  0  0  0  0  0  0  0
    5.1677   -5.1370   -0.4250 H   0  0  0  0  0  0  0  0  0  0  0  0
    4.4830   -4.7942    1.2516 H   0  0  0  0  0  0  0  0  0  0  0  0
    3.7483   -6.0798   -3.9392 H   0  0  0  0  0  0  0  0  0  0  0  0
  1  2  1  0
  1 31  1  0
  1 32  1  0
  1 33  1  0
  2  3  2  0
  2 30  1  0
  3  4  1  0
  3 34  1  0
  4  5  2  0
  4 35  1  0
  5  6  1  0
  5 36  1  0
  6  7  1  0
  6 30  2  0
  7  8  1  0
  7 37  1  0
  7 38  1  0
  8  9  1  0
  8 27  1  0
  9 10  1  0
  9 39  1  0
  9 40  1  0
 10 11  2  0
 10 12  1  0
 12 13  1  0
 12 41  1  0
 13 14  2  0
 13 26  1  0
 14 15  1  0
 14 42  1  0
 15 16  2  0
 15 43  1  0
 16 17  1  0
 16 44  1  0
 17 18  1  0
 17 26  2  0
 18 19  2  0
 18 20  1  0
 20 21  1  0
 20 25  1  0
 21 22  1  0
 21 45  1  0
 21 46  1  0
 22 23  1  0
 22 47  1  0
 22 48  1  0
 23 24  1  0
 24 25  1  0
 24 49  1  0
 24 50  1  0
 25 51  1  0
 25 52  1  0
 26 53  1  0
 27 28  1  0
 27 29  1  0
 27 54  1  1
 28 29  1  0
 28 55  1  0
 28 56  1  0
 29 57  1  0
 29 58  1  0
 30 59  1  0
M  END

