
     RDKit          3D

 52 56  0  0  0  0  0  0  0  0999 V2000
    2.3222    0.4530    0.6796 C   0  0  0  0  0  0  0  0  0  0  0  0
    3.6301   -0.3424    0.5339 C   0  0  0  0  0  0  0  0  0  0  0  0
    3.7039   -1.1747   -0.7179 C   0  0  0  0  0  0  0  0  0  0  0  0
    4.2385   -0.8103   -1.9568 C   0  0  0  0  0  0  0  0  0  0  0  0
    4.8854    0.5035   -2.2764 C   0  0  0  0  0  0  0  0  0  0  0  0
    4.0430   -1.9319   -2.8384 C   0  0  0  0  0  0  0  0  0  0  0  0
    3.3977   -2.9344   -2.1124 N   0  0  0  0  0  0  0  0  0  0  0  0
    3.1910   -2.4990   -0.8583 C   0  0  0  0  0  0  0  0  0  0  0  0
    2.5207   -3.3418    0.1757 C   0  0  0  0  0  0  0  0  0  0  0  0
    2.9947   -4.3480   -2.6472 B   0  0  2  0  0  0  0  0  0  0  0  0
    1.6189   -4.5249   -2.4953 F   0  0  0  0  0  0  0  0  0  0  0  0
    3.6895   -5.3329   -1.9589 F   0  0  0  0  0  0  0  0  0  0  0  0
    3.3764   -4.3709   -4.1593 N   0  0  0  0  0  0  0  0  0  0  0  0
    3.1923   -5.4135   -5.0207 C   0  0  0  0  0  0  0  0  0  0  0  0
    2.4413   -6.5850   -4.6295 C   0  0  0  0  0  0  0  0  0  0  0  0
    2.4521   -7.8587   -5.1257 C   0  0  0  0  0  0  0  0  0  0  0  0
    1.4347   -8.8373   -4.7150 C   0  0  0  0  0  0  0  0  0  0  0  0
    1.6151  -10.0083   -5.3784 C   0  0  0  0  0  0  0  0  0  0  0  0
    2.8009   -9.8921   -6.2303 C   0  0  0  0  0  0  0  0  0  0  0  0
    3.4278  -10.8304   -7.0498 C   0  0  0  0  0  0  0  0  0  0  0  0
    4.6136  -10.4727   -7.7075 C   0  0  0  0  0  0  0  0  0  0  0  0
    5.1675   -9.2014   -7.5275 C   0  0  0  0  0  0  0  0  0  0  0  0
    4.5359   -8.2507   -6.7093 C   0  0  0  0  0  0  0  0  0  0  0  0
    3.3358   -8.5790   -6.0765 C   0  0  0  0  0  0  0  0  0  0  0  0
    3.7250   -5.0472   -6.2885 C   0  0  0  0  0  0  0  0  0  0  0  0
    4.2414   -3.7670   -6.1673 C   0  0  0  0  0  0  0  0  0  0  0  0
    4.0289   -3.3490   -4.8239 C   0  0  0  0  0  0  0  0  0  0  0  0
    4.3704   -2.1302   -4.1867 C   0  0  0  0  0  0  0  0  0  0  0  0
    5.0769   -1.0647   -4.9815 C   0  0  0  0  0  0  0  0  0  0  0  0
    2.3164    1.0391    1.6129 H   0  0  0  0  0  0  0  0  0  0  0  0
    1.4471   -0.2161    0.6952 H   0  0  0  0  0  0  0  0  0  0  0  0
    2.1856    1.1516   -0.1613 H   0  0  0  0  0  0  0  0  0  0  0  0
    3.7568   -0.9944    1.4143 H   0  0  0  0  0  0  0  0  0  0  0  0
    4.4835    0.3546    0.5628 H   0  0  0  0  0  0  0  0  0  0  0  0
    4.9047    1.1545   -1.3918 H   0  0  0  0  0  0  0  0  0  0  0  0
    4.3486    1.0482   -3.0703 H   0  0  0  0  0  0  0  0  0  0  0  0
    5.9258    0.3837   -2.6190 H   0  0  0  0  0  0  0  0  0  0  0  0
    1.4739   -3.5369   -0.1062 H   0  0  0  0  0  0  0  0  0  0  0  0
    2.5406   -2.8570    1.1599 H   0  0  0  0  0  0  0  0  0  0  0  0
    3.0120   -4.3245    0.2442 H   0  0  0  0  0  0  0  0  0  0  0  0
    1.7268   -6.3936   -3.8240 H   0  0  0  0  0  0  0  0  0  0  0  0
    0.6411   -8.6059   -4.0038 H   0  0  0  0  0  0  0  0  0  0  0  0
    0.9959  -10.9026   -5.2957 H   0  0  0  0  0  0  0  0  0  0  0  0
    3.0099  -11.8340   -7.1664 H   0  0  0  0  0  0  0  0  0  0  0  0
    5.1168  -11.1980   -8.3525 H   0  0  0  0  0  0  0  0  0  0  0  0
    6.1062   -8.9428   -8.0240 H   0  0  0  0  0  0  0  0  0  0  0  0
    5.0019   -7.2762   -6.5642 H   0  0  0  0  0  0  0  0  0  0  0  0
    3.6704   -5.6495   -7.1904 H   0  0  0  0  0  0  0  0  0  0  0  0
    4.7062   -3.1823   -6.9574 H   0  0  0  0  0  0  0  0  0  0  0  0
    5.2574   -1.3781   -6.0153 H   0  0  0  0  0  0  0  0  0  0  0  0
    6.0501   -0.8151   -4.5321 H   0  0  0  0  0  0  0  0  0  0  0  0
    4.4888   -0.1347   -5.0099 H   0  0  0  0  0  0  0  0  0  0  0  0
  1  2  1  0
  1 30  1  0
  1 31  1  0
  1 32  1  0
  2  3  1  0
  2 33  1  0
  2 34  1  0
  3  4  1  0
  3  8  2  0
  4  5  1  0
  4  6  2  0
  5 35  1  0
  5 36  1  0
  5 37  1  0
  6  7  1  0
  6 28  1  0
  7  8  1  0
  7 10  1  0
  8  9  1  0
  9 38  1  0
  9 39  1  0
  9 40  1  0
 10 11  1  6
 10 12  1  0
 10 13  1  0
 13 14  2  0
 13 27  1  0
 14 15  1  0
 14 25  1  0
 15 16  2  0
 15 41  1  0
 16 17  1  0
 16 24  1  0
 17 18  2  0
 17 42  1  0
 18 19  1  0
 18 43  1  0
 19 20  1  0
 19 24  2  0
 20 21  2  0
 20 44  1  0
 21 22  1  0
 21 45  1  0
 22 23  2  0
 22 46  1  0
 23 24  1  0
 23 47  1  0
 25 26  2  0
 25 48  1  0
 26 27  1  0
 26 49  1  0
 27 28  2  0
 28 29  1  0
 29 50  1  0
 29 51  1  0
 29 52  1  0
M  CHG  2  10  -1  13   1
M  END

