
     RDKit          3D

 27 28  0  0  0  0  0  0  0  0999 V2000
    1.8434    3.0187    0.1229 C   0  0  0  0  0  0  0  0  0  0  0  0
    3.2421    2.7442    0.1063 O   0  0  0  0  0  0  0  0  0  0  0  0
    3.5890    1.4509    0.1369 C   0  0  0  0  0  0  0  0  0  0  0  0
    2.7917    0.5363    0.1737 O   0  0  0  0  0  0  0  0  0  0  0  0
    5.0503    1.2491    0.1181 C   0  0  0  0  0  0  0  0  0  0  0  0
    6.0040    2.2475    0.0737 N   0  0  0  0  0  0  0  0  0  0  0  0
    7.1442    1.6285    0.0746 C   0  0  0  0  0  0  0  0  0  0  0  0
    8.4916    2.1962    0.0378 C   0  0  0  0  0  0  0  0  0  0  0  0
    8.6435    3.5946   -0.0041 C   0  0  0  0  0  0  0  0  0  0  0  0
    9.9180    4.1579   -0.0388 C   0  0  0  0  0  0  0  0  0  0  0  0
   11.0531    3.3384   -0.0323 C   0  0  0  0  0  0  0  0  0  0  0  0
   10.9062    1.9484    0.0089 C   0  0  0  0  0  0  0  0  0  0  0  0
    9.6337    1.3759    0.0438 C   0  0  0  0  0  0  0  0  0  0  0  0
    7.0086    0.2649    0.1137 O   0  0  0  0  0  0  0  0  0  0  0  0
    5.6734    0.0213    0.1420 C   0  0  0  0  0  0  0  0  0  0  0  0
    5.2020   -1.3866    0.1883 C   0  0  0  0  0  0  0  0  0  0  0  0
    1.7464    4.1112    0.1199 H   0  0  0  0  0  0  0  0  0  0  0  0
    1.3695    2.5936    1.0210 H   0  0  0  0  0  0  0  0  0  0  0  0
    1.3484    2.5892   -0.7620 H   0  0  0  0  0  0  0  0  0  0  0  0
    7.7485    4.2192   -0.0089 H   0  0  0  0  0  0  0  0  0  0  0  0
   10.0283    5.2448   -0.0712 H   0  0  0  0  0  0  0  0  0  0  0  0
   12.0509    3.7832   -0.0594 H   0  0  0  0  0  0  0  0  0  0  0  0
   11.7894    1.3046    0.0138 H   0  0  0  0  0  0  0  0  0  0  0  0
    9.5174    0.2912    0.0757 H   0  0  0  0  0  0  0  0  0  0  0  0
    6.0596   -2.0730    0.2029 H   0  0  0  0  0  0  0  0  0  0  0  0
    4.5665   -1.6141   -0.6815 H   0  0  0  0  0  0  0  0  0  0  0  0
    4.5790   -1.5598    1.0792 H   0  0  0  0  0  0  0  0  0  0  0  0
  1  2  1  0
  1 17  1  0
  1 18  1  0
  1 19  1  0
  2  3  1  0
  3  4  2  0
  3  5  1  0
  5  6  1  0
  5 15  2  0
  6  7  2  0
  7  8  1  0
  7 14  1  0
  8  9  2  0
  8 13  1  0
  9 10  1  0
  9 20  1  0
 10 11  2  0
 10 21  1  0
 11 12  1  0
 11 22  1  0
 12 13  2  0
 12 23  1  0
 13 24  1  0
 14 15  1  0
 15 16  1  0
 16 25  1  0
 16 26  1  0
 16 27  1  0
M  END

