
     RDKit          3D

 42 43  0  0  0  0  0  0  0  0999 V2000
    1.0514    0.3813   -0.4296 C   0  0  0  0  0  0  0  0  0  0  0  0
    2.5266    0.1914   -0.1941 C   0  0  0  0  0  0  0  0  0  0  0  0
    3.3968    1.2877   -0.2676 C   0  0  0  0  0  0  0  0  0  0  0  0
    4.7706    1.1338   -0.0904 C   0  0  0  0  0  0  0  0  0  0  0  0
    5.2985   -0.1302    0.1724 C   0  0  0  0  0  0  0  0  0  0  0  0
    4.4686   -1.2552    0.2756 C   0  0  0  0  0  0  0  0  0  0  0  0
    5.0514   -2.6380    0.5592 C   0  0  1  0  0  0  0  0  0  0  0  0
    5.3776   -3.3838   -0.7511 C   0  0  0  0  0  0  0  0  0  0  0  0
    6.2765   -2.6169    1.4846 C   0  0  0  0  0  0  0  0  0  0  0  0
    3.0754   -1.0816    0.0865 C   0  0  0  0  0  0  0  0  0  0  0  0
    2.2235   -2.2209    0.1380 N   0  0  0  0  0  0  0  0  0  0  0  0
    1.2050   -2.4111    1.0560 C   0  0  0  0  0  0  0  0  0  0  0  0
    0.9757   -1.5616    1.9204 O   0  0  0  0  0  0  0  0  0  0  0  0
    0.4406   -3.6770    0.9353 C   0  0  0  0  0  0  0  0  0  0  0  0
    0.4669   -4.4668   -0.2329 C   0  0  0  0  0  0  0  0  0  0  0  0
   -0.2236   -5.6603   -0.3562 C   0  0  0  0  0  0  0  0  0  0  0  0
   -1.0031   -6.1271    0.7312 C   0  0  0  0  0  0  0  0  0  0  0  0
   -1.6581   -7.3390    0.6463 N   0  0  0  0  0  0  0  0  0  0  0  0
   -1.0695   -5.3525    1.8949 C   0  0  0  0  0  0  0  0  0  0  0  0
   -0.3781   -4.1287    2.0247 C   0  0  0  0  0  0  0  0  0  0  0  0
   -0.4751   -3.4086    3.1746 N   0  0  0  0  0  0  0  0  0  0  0  0
    0.8506    1.3542   -0.9012 H   0  0  0  0  0  0  0  0  0  0  0  0
    0.4962    0.3250    0.5199 H   0  0  0  0  0  0  0  0  0  0  0  0
    0.6458   -0.4112   -1.0786 H   0  0  0  0  0  0  0  0  0  0  0  0
    2.9826    2.2764   -0.4837 H   0  0  0  0  0  0  0  0  0  0  0  0
    5.4336    2.0001   -0.1600 H   0  0  0  0  0  0  0  0  0  0  0  0
    6.3756   -0.2393    0.3119 H   0  0  0  0  0  0  0  0  0  0  0  0
    4.2707   -3.2136    1.0835 H   0  0  0  0  0  0  0  0  0  0  0  0
    6.1631   -2.8539   -1.3143 H   0  0  0  0  0  0  0  0  0  0  0  0
    4.5023   -3.4607   -1.4175 H   0  0  0  0  0  0  0  0  0  0  0  0
    5.7351   -4.4066   -0.5471 H   0  0  0  0  0  0  0  0  0  0  0  0
    7.1545   -2.1585    1.0013 H   0  0  0  0  0  0  0  0  0  0  0  0
    6.5607   -3.6452    1.7601 H   0  0  0  0  0  0  0  0  0  0  0  0
    6.0713   -2.0606    2.4121 H   0  0  0  0  0  0  0  0  0  0  0  0
    2.5402   -3.0452   -0.3552 H   0  0  0  0  0  0  0  0  0  0  0  0
    1.0272   -4.1127   -1.1020 H   0  0  0  0  0  0  0  0  0  0  0  0
   -0.1790   -6.2343   -1.2848 H   0  0  0  0  0  0  0  0  0  0  0  0
   -1.8214   -7.7163   -0.2788 H   0  0  0  0  0  0  0  0  0  0  0  0
   -2.4052   -7.5175    1.3060 H   0  0  0  0  0  0  0  0  0  0  0  0
   -1.6798   -5.6983    2.7349 H   0  0  0  0  0  0  0  0  0  0  0  0
   -1.1360   -3.6898    3.8840 H   0  0  0  0  0  0  0  0  0  0  0  0
   -0.0929   -2.4643    3.1582 H   0  0  0  0  0  0  0  0  0  0  0  0
  1  2  1  0
  1 22  1  0
  1 23  1  0
  1 24  1  0
  2  3  2  0
  2 10  1  0
  3  4  1  0
  3 25  1  0
  4  5  2  0
  4 26  1  0
  5  6  1  0
  5 27  1  0
  6  7  1  0
  6 10  2  0
  7  8  1  0
  7  9  1  0
  7 28  1  1
  8 29  1  0
  8 30  1  0
  8 31  1  0
  9 32  1  0
  9 33  1  0
  9 34  1  0
 10 11  1  0
 11 12  1  0
 11 35  1  0
 12 13  2  0
 12 14  1  0
 14 15  2  0
 14 20  1  0
 15 16  1  0
 15 36  1  0
 16 17  2  0
 16 37  1  0
 17 18  1  0
 17 19  1  0
 18 38  1  0
 18 39  1  0
 19 20  2  0
 19 40  1  0
 20 21  1  0
 21 41  1  0
 21 42  1  0
M  END

