
     RDKit          3D

 43 45  0  0  0  0  0  0  0  0999 V2000
    2.6153    0.5469   -0.7868 O   0  0  0  0  0  0  0  0  0  0  0  0
    2.0669    0.8558    0.2638 C   0  0  0  0  0  0  0  0  0  0  0  0
    0.7212    1.1439    0.3384 N   0  0  0  0  0  0  0  0  0  0  0  0
   -0.1522    0.9685   -0.8145 C   0  0  1  0  0  0  0  0  0  0  0  0
   -0.5211   -0.5075   -1.0779 C   0  0  0  0  0  0  0  0  0  0  0  0
   -1.4305   -1.0494    0.0338 C   0  0  0  0  0  0  0  0  0  0  0  0
   -2.5991   -0.0950    0.2897 C   0  0  0  0  0  0  0  0  0  0  0  0
   -2.1530    1.2318    0.5317 O   0  0  0  0  0  0  0  0  0  0  0  0
   -1.4345    1.7673   -0.5667 C   0  0  0  0  0  0  0  0  0  0  0  0
    2.7395    0.9446    1.4676 N   0  0  0  0  0  0  0  0  0  0  0  0
    4.1867    0.8151    1.5409 C   0  0  2  0  0  0  0  0  0  0  0  0
    4.6053    0.0806    2.8324 C   0  0  0  0  0  0  0  0  0  0  0  0
    6.1315   -0.0526    2.9927 C   0  0  0  0  0  0  0  0  0  0  0  0
    6.8793    1.2875    2.8508 C   0  0  0  0  0  0  0  0  0  0  0  0
    6.4504    1.9249    1.5423 C   0  0  2  0  0  0  0  0  0  0  0  0
    7.0014    3.2038    1.2973 O   0  0  0  0  0  0  0  0  0  0  0  0
    6.1534    3.8792    0.3616 C   0  0  0  0  0  0  0  0  0  0  0  0
    4.8367    3.0640    0.2585 C   0  0  0  0  0  0  0  0  0  0  0  0
    4.9381    2.1487    1.4832 C   0  0  1  0  0  0  0  0  0  0  0  0
    0.2619    1.1705    1.2426 H   0  0  0  0  0  0  0  0  0  0  0  0
    0.3787    1.3700   -1.6911 H   0  0  0  0  0  0  0  0  0  0  0  0
    0.4004   -1.1004   -1.1775 H   0  0  0  0  0  0  0  0  0  0  0  0
   -1.0457   -0.5653   -2.0488 H   0  0  0  0  0  0  0  0  0  0  0  0
   -0.8517   -1.1661    0.9664 H   0  0  0  0  0  0  0  0  0  0  0  0
   -1.8160   -2.0501   -0.2242 H   0  0  0  0  0  0  0  0  0  0  0  0
   -3.1793   -0.3952    1.1758 H   0  0  0  0  0  0  0  0  0  0  0  0
   -3.2890   -0.1007   -0.5809 H   0  0  0  0  0  0  0  0  0  0  0  0
   -1.2027    2.8133   -0.3154 H   0  0  0  0  0  0  0  0  0  0  0  0
   -2.0609    1.7580   -1.4816 H   0  0  0  0  0  0  0  0  0  0  0  0
    2.2808    1.4183    2.2384 H   0  0  0  0  0  0  0  0  0  0  0  0
    4.4697    0.2133    0.6631 H   0  0  0  0  0  0  0  0  0  0  0  0
    4.1320   -0.9144    2.8535 H   0  0  0  0  0  0  0  0  0  0  0  0
    4.1986    0.6393    3.6971 H   0  0  0  0  0  0  0  0  0  0  0  0
    6.5098   -0.7538    2.2274 H   0  0  0  0  0  0  0  0  0  0  0  0
    6.3601   -0.5133    3.9673 H   0  0  0  0  0  0  0  0  0  0  0  0
    7.9695    1.1288    2.8750 H   0  0  0  0  0  0  0  0  0  0  0  0
    6.6303    1.9682    3.6836 H   0  0  0  0  0  0  0  0  0  0  0  0
    6.7299    1.2319    0.7154 H   0  0  0  0  0  0  0  0  0  0  0  0
    6.6578    3.9603   -0.6187 H   0  0  0  0  0  0  0  0  0  0  0  0
    5.9839    4.9037    0.7346 H   0  0  0  0  0  0  0  0  0  0  0  0
    4.8006    2.4622   -0.6626 H   0  0  0  0  0  0  0  0  0  0  0  0
    3.9441    3.7070    0.2652 H   0  0  0  0  0  0  0  0  0  0  0  0
    4.6675    2.7332    2.3849 H   0  0  0  0  0  0  0  0  0  0  0  0
  1  2  2  0
  2  3  1  0
  2 10  1  0
  3  4  1  0
  3 20  1  0
  4  5  1  0
  4  9  1  0
  4 21  1  6
  5  6  1  0
  5 22  1  0
  5 23  1  0
  6  7  1  0
  6 24  1  0
  6 25  1  0
  7  8  1  0
  7 26  1  0
  7 27  1  0
  8  9  1  0
  9 28  1  0
  9 29  1  0
 10 11  1  0
 10 30  1  0
 11 12  1  0
 11 19  1  0
 11 31  1  6
 12 13  1  0
 12 32  1  0
 12 33  1  0
 13 14  1  0
 13 34  1  0
 13 35  1  0
 14 15  1  0
 14 36  1  0
 14 37  1  0
 15 16  1  0
 15 19  1  0
 15 38  1  6
 16 17  1  0
 17 18  1  0
 17 39  1  0
 17 40  1  0
 18 19  1  0
 18 41  1  0
 18 42  1  0
 19 43  1  1
M  END

