
     RDKit          3D

 45 47  0  0  0  0  0  0  0  0999 V2000
    2.1724   -2.0061   -0.3257 C   0  0  0  0  0  0  0  0  0  0  0  0
    3.5401   -1.3660   -0.5447 C   0  0  0  0  0  0  0  0  0  0  0  0
    3.4478   -0.0779   -1.3689 C   0  0  0  0  0  0  0  0  0  0  0  0
    2.3601    0.3802   -1.6842 O   0  0  0  0  0  0  0  0  0  0  0  0
    4.6322    0.5215   -1.7513 N   0  0  0  0  0  0  0  0  0  0  0  0
    5.9314    0.2061   -1.1661 C   0  0  0  0  0  0  0  0  0  0  0  0
    7.0574    0.3532   -2.1900 C   0  0  0  0  0  0  0  0  0  0  0  0
    7.0273    1.7123   -2.9030 C   0  0  1  0  0  0  0  0  0  0  0  0
    7.0736    2.5013   -2.1276 H   0  0  0  0  0  0  0  0  0  0  0  0
    8.2612    1.8934   -3.7907 C   0  0  0  0  0  0  0  0  0  0  0  0
    5.6350    1.9061   -3.5822 C   0  0  1  0  0  0  0  0  0  0  0  0
    5.5699    2.9502   -3.9478 H   0  0  0  0  0  0  0  0  0  0  0  0
    5.4653    0.9890   -4.7323 N   0  0  0  0  0  0  0  0  0  0  0  0
    5.9333    1.5267   -6.0123 C   0  0  0  0  0  0  0  0  0  0  0  0
    4.2945    0.2203   -4.9138 C   0  0  0  0  0  0  0  0  0  0  0  0
    3.0929    0.7642   -4.7341 N   0  0  0  0  0  0  0  0  0  0  0  0
    1.9858    0.0313   -4.9391 C   0  0  0  0  0  0  0  0  0  0  0  0
    1.9290   -1.2221   -5.3742 N   0  0  0  0  0  0  0  0  0  0  0  0
    3.1280   -1.7623   -5.5853 C   0  0  0  0  0  0  0  0  0  0  0  0
    3.3688   -3.0389   -6.0162 N   0  0  0  0  0  0  0  0  0  0  0  0
    2.6443   -3.7135   -6.2287 H   0  0  0  0  0  0  0  0  0  0  0  0
    4.7331   -3.2466   -6.0870 C   0  0  0  0  0  0  0  0  0  0  0  0
    5.3814   -2.0964   -5.6990 C   0  0  0  0  0  0  0  0  0  0  0  0
    7.1059   -1.9227   -5.6383 Cl  0  0  0  0  0  0  0  0  0  0  0  0
    4.3794   -1.1179   -5.3742 C   0  0  0  0  0  0  0  0  0  0  0  0
    4.5740    1.7938   -2.4693 C   0  0  0  0  0  0  0  0  0  0  0  0
    2.2644   -2.9183    0.2842 H   0  0  0  0  0  0  0  0  0  0  0  0
    1.7032   -2.2722   -1.2845 H   0  0  0  0  0  0  0  0  0  0  0  0
    1.4896   -1.3101    0.1823 H   0  0  0  0  0  0  0  0  0  0  0  0
    4.2224   -2.0731   -1.0469 H   0  0  0  0  0  0  0  0  0  0  0  0
    4.0129   -1.1334    0.4265 H   0  0  0  0  0  0  0  0  0  0  0  0
    5.9264   -0.8150   -0.7675 H   0  0  0  0  0  0  0  0  0  0  0  0
    6.1251    0.8861   -0.3096 H   0  0  0  0  0  0  0  0  0  0  0  0
    6.9789   -0.4447   -2.9463 H   0  0  0  0  0  0  0  0  0  0  0  0
    8.0229    0.2187   -1.6735 H   0  0  0  0  0  0  0  0  0  0  0  0
    8.3466    1.0901   -4.5378 H   0  0  0  0  0  0  0  0  0  0  0  0
    9.1742    1.8632   -3.1734 H   0  0  0  0  0  0  0  0  0  0  0  0
    8.2539    2.8622   -4.3162 H   0  0  0  0  0  0  0  0  0  0  0  0
    5.9925    0.7229   -6.7601 H   0  0  0  0  0  0  0  0  0  0  0  0
    6.9355    1.9572   -5.9159 H   0  0  0  0  0  0  0  0  0  0  0  0
    5.2528    2.3128   -6.4008 H   0  0  0  0  0  0  0  0  0  0  0  0
    1.0321    0.5290   -4.7335 H   0  0  0  0  0  0  0  0  0  0  0  0
    5.1534   -4.1971   -6.4054 H   0  0  0  0  0  0  0  0  0  0  0  0
    3.5618    1.9136   -2.8602 H   0  0  0  0  0  0  0  0  0  0  0  0
    4.7720    2.6237   -1.7626 H   0  0  0  0  0  0  0  0  0  0  0  0
  1  2  1  0
  1 27  1  0
  1 28  1  0
  1 29  1  0
  2  3  1  0
  2 30  1  0
  2 31  1  0
  3  4  2  0
  3  5  1  0
  5  6  1  0
  5 26  1  0
  6  7  1  0
  6 32  1  0
  6 33  1  0
  7  8  1  0
  7 34  1  0
  7 35  1  0
  8  9  1  1
  8 10  1  0
  8 11  1  0
 10 36  1  0
 10 37  1  0
 10 38  1  0
 11 12  1  6
 11 13  1  0
 11 26  1  0
 13 14  1  0
 13 15  1  0
 14 39  1  0
 14 40  1  0
 14 41  1  0
 15 16  2  0
 15 25  1  0
 16 17  1  0
 17 18  2  0
 17 42  1  0
 18 19  1  0
 19 20  1  0
 19 25  2  0
 20 21  1  0
 20 22  1  0
 22 23  2  0
 22 43  1  0
 23 24  1  0
 23 25  1  0
 26 44  1  0
 26 45  1  0
M  END

