
     RDKit          3D

 39 40  0  0  0  0  0  0  0  0999 V2000
    2.4421    2.2726   -0.5887 C   0  0  0  0  0  0  0  0  0  0  0  0
    3.4926    1.2868   -0.5202 N   0  0  0  0  0  0  0  0  0  0  0  0
    4.3458    1.1229    0.6488 C   0  0  0  0  0  0  0  0  0  0  0  0
    5.4482    0.1699    0.1549 C   0  0  0  0  0  0  0  0  0  0  0  0
    4.7349   -0.6532   -0.9310 C   0  0  2  0  0  0  0  0  0  0  0  0
    5.5543   -1.2411   -1.9684 N   0  0  0  0  0  0  0  0  0  0  0  0
    6.1074   -0.3868   -3.0046 C   0  0  0  0  0  0  0  0  0  0  0  0
    5.5951   -2.6277   -2.0354 C   0  0  0  0  0  0  0  0  0  0  0  0
    5.1452   -3.3372   -1.1417 O   0  0  0  0  0  0  0  0  0  0  0  0
    6.1949   -3.1534   -3.1577 N   0  0  0  0  0  0  0  0  0  0  0  0
    6.3507   -4.5849   -3.3441 C   0  0  0  0  0  0  0  0  0  0  0  0
    5.2592   -5.2632   -4.1913 C   0  0  1  0  0  0  0  0  0  0  0  0
    5.1372   -4.6493   -5.5818 C   0  0  0  0  0  0  0  0  0  0  0  0
    5.3675   -6.8090   -4.1408 C   0  0  0  0  0  0  0  0  0  0  0  0
    4.1788   -6.9228   -3.3542 O   0  0  0  0  0  0  0  0  0  0  0  0
    3.9257   -5.5076   -3.4323 C   0  0  0  0  0  0  0  0  0  0  0  0
    3.6608    0.3101   -1.4656 C   0  0  0  0  0  0  0  0  0  0  0  0
    3.0627    0.2142   -2.5203 O   0  0  0  0  0  0  0  0  0  0  0  0
    2.8482    3.2947   -0.4924 H   0  0  0  0  0  0  0  0  0  0  0  0
    1.6928    2.1238    0.2102 H   0  0  0  0  0  0  0  0  0  0  0  0
    1.9468    2.1715   -1.5643 H   0  0  0  0  0  0  0  0  0  0  0  0
    3.7793    0.6879    1.4961 H   0  0  0  0  0  0  0  0  0  0  0  0
    4.7378    2.0977    0.9854 H   0  0  0  0  0  0  0  0  0  0  0  0
    5.8678   -0.4543    0.9558 H   0  0  0  0  0  0  0  0  0  0  0  0
    6.2731    0.7498   -0.2907 H   0  0  0  0  0  0  0  0  0  0  0  0
    4.2038   -1.4953   -0.4588 H   0  0  0  0  0  0  0  0  0  0  0  0
    6.1670    0.6458   -2.6337 H   0  0  0  0  0  0  0  0  0  0  0  0
    5.4876   -0.3673   -3.9187 H   0  0  0  0  0  0  0  0  0  0  0  0
    7.1352   -0.6926   -3.2596 H   0  0  0  0  0  0  0  0  0  0  0  0
    6.4223   -2.5469   -3.9327 H   0  0  0  0  0  0  0  0  0  0  0  0
    6.3692   -5.0404   -2.3443 H   0  0  0  0  0  0  0  0  0  0  0  0
    7.3327   -4.7721   -3.8159 H   0  0  0  0  0  0  0  0  0  0  0  0
    6.0947   -4.7026   -6.1293 H   0  0  0  0  0  0  0  0  0  0  0  0
    4.8358   -3.5902   -5.5250 H   0  0  0  0  0  0  0  0  0  0  0  0
    4.3786   -5.1740   -6.1834 H   0  0  0  0  0  0  0  0  0  0  0  0
    6.2584   -7.2138   -3.6234 H   0  0  0  0  0  0  0  0  0  0  0  0
    5.2777   -7.3115   -5.1235 H   0  0  0  0  0  0  0  0  0  0  0  0
    3.8480   -5.0365   -2.4396 H   0  0  0  0  0  0  0  0  0  0  0  0
    3.0166   -5.2817   -4.0210 H   0  0  0  0  0  0  0  0  0  0  0  0
  1  2  1  0
  1 19  1  0
  1 20  1  0
  1 21  1  0
  2  3  1  0
  2 17  1  0
  3  4  1  0
  3 22  1  0
  3 23  1  0
  4  5  1  0
  4 24  1  0
  4 25  1  0
  5  6  1  0
  5 17  1  0
  5 26  1  1
  6  7  1  0
  6  8  1  0
  7 27  1  0
  7 28  1  0
  7 29  1  0
  8  9  2  0
  8 10  1  0
 10 11  1  0
 10 30  1  0
 12 11  1  1
 11 31  1  0
 11 32  1  0
 12 13  1  0
 12 14  1  0
 12 16  1  0
 13 33  1  0
 13 34  1  0
 13 35  1  0
 14 15  1  0
 14 36  1  0
 14 37  1  0
 15 16  1  0
 16 38  1  0
 16 39  1  0
 17 18  2  0
M  END

