
     RDKit          3D

 24 25  0  0  0  0  0  0  0  0999 V2000
    1.0591   -0.3166    0.1403 C   0  0  0  0  0  0  0  0  0  0  0  0
    2.5246    0.1285    0.0181 C   0  0  0  0  0  0  0  0  0  0  0  0
    3.1269    0.5940    1.3123 C   0  0  0  0  0  0  0  0  0  0  0  0
    3.4306    1.9061    1.7344 C   0  0  0  0  0  0  0  0  0  0  0  0
    3.9494    1.9769    2.9679 N   0  0  0  0  0  0  0  0  0  0  0  0
    3.9908    0.7041    3.3773 N   0  0  0  0  0  0  0  0  0  0  0  0
    4.4467    0.2572    4.5749 C   0  0  0  0  0  0  0  0  0  0  0  0
    4.4325   -1.0965    4.8422 C   0  0  0  0  0  0  0  0  0  0  0  0
    4.9738   -1.6763    6.2091 B   0  0  0  0  0  0  0  0  0  0  0  0
    4.9097   -0.9731    7.3743 O   0  0  0  0  0  0  0  0  0  0  0  0
    5.5366   -2.9136    6.2893 O   0  0  0  0  0  0  0  0  0  0  0  0
    3.9184   -1.9439    3.7979 C   0  0  0  0  0  0  0  0  0  0  0  0
    3.4694   -1.5227    2.6391 N   0  0  0  0  0  0  0  0  0  0  0  0
    3.4992   -0.1958    2.4052 C   0  0  0  0  0  0  0  0  0  0  0  0
    0.6669   -0.6507   -0.8338 H   0  0  0  0  0  0  0  0  0  0  0  0
    0.4206    0.5062    0.5000 H   0  0  0  0  0  0  0  0  0  0  0  0
    0.9643   -1.1533    0.8497 H   0  0  0  0  0  0  0  0  0  0  0  0
    2.6066    0.9406   -0.7232 H   0  0  0  0  0  0  0  0  0  0  0  0
    3.1222   -0.7112   -0.3760 H   0  0  0  0  0  0  0  0  0  0  0  0
    3.2904    2.8274    1.1670 H   0  0  0  0  0  0  0  0  0  0  0  0
    4.8179    1.0341    5.2484 H   0  0  0  0  0  0  0  0  0  0  0  0
    4.3898   -0.1645    7.3165 H   0  0  0  0  0  0  0  0  0  0  0  0
    5.6656   -3.3415    5.4358 H   0  0  0  0  0  0  0  0  0  0  0  0
    3.8742   -3.0281    3.9665 H   0  0  0  0  0  0  0  0  0  0  0  0
  1  2  1  0
  1 15  1  0
  1 16  1  0
  1 17  1  0
  2  3  1  0
  2 18  1  0
  2 19  1  0
  3  4  1  0
  3 14  2  0
  4  5  2  0
  4 20  1  0
  5  6  1  0
  6  7  1  0
  6 14  1  0
  7  8  2  0
  7 21  1  0
  8  9  1  0
  8 12  1  0
  9 10  1  0
  9 11  1  0
 10 22  1  0
 11 23  1  0
 12 13  2  0
 12 24  1  0
 13 14  1  0
M  END

