
     RDKit          3D

 41 41  0  0  0  0  0  0  0  0999 V2000
    2.4118    6.9640   -0.3520 C   0  0  0  0  0  0  0  0  0  0  0  0
    3.2071    5.6585   -0.3170 C   0  0  0  0  0  0  0  0  0  0  0  0
    4.4330    5.6707   -1.2349 C   0  0  0  0  0  0  0  0  0  0  0  0
    5.2241    4.3659   -1.1913 C   0  0  0  0  0  0  0  0  0  0  0  0
    6.3777    4.4235   -2.0814 N   0  0  0  0  0  0  0  0  0  0  0  0
    7.0610    3.2982   -2.4190 C   0  0  0  0  0  0  0  0  0  0  0  0
    6.6890    2.0858   -2.1106 N   0  0  0  0  0  0  0  0  0  0  0  0
    7.5077    1.1308   -2.6364 N   0  0  0  0  0  0  0  0  0  0  0  0
    8.5129    1.5933   -3.3143 C   0  0  0  0  0  0  0  0  0  0  0  0
    9.7785    0.6593   -4.1008 S   0  0  0  0  0  0  0  0  0  0  0  0
    9.5373   -0.9925   -3.3264 C   0  0  0  0  0  0  0  0  0  0  0  0
    8.5292   -1.8975   -4.0506 C   0  0  0  0  0  0  0  0  0  0  0  0
    8.9181   -2.8110   -4.7617 O   0  0  0  0  0  0  0  0  0  0  0  0
    7.2283   -1.5995   -3.8058 N   0  0  0  0  0  0  0  0  0  0  0  0
    6.1189   -2.2952   -4.4489 C   0  0  1  0  0  0  0  0  0  0  0  0
    5.1396   -2.8126   -3.3896 C   0  0  0  0  0  0  0  0  0  0  0  0
    5.4582   -1.3858   -5.5045 C   0  0  0  0  0  0  0  0  0  0  0  0
    4.3868   -2.0666   -6.3582 C   0  0  0  0  0  0  0  0  0  0  0  0
    8.5421    3.3606   -3.3968 S   0  0  0  0  0  0  0  0  0  0  0  0
    1.5380    6.9200    0.3169 H   0  0  0  0  0  0  0  0  0  0  0  0
    2.0427    7.1821   -1.3679 H   0  0  0  0  0  0  0  0  0  0  0  0
    3.0305    7.8202   -0.0347 H   0  0  0  0  0  0  0  0  0  0  0  0
    2.5505    4.8174   -0.6032 H   0  0  0  0  0  0  0  0  0  0  0  0
    3.5296    5.4493    0.7188 H   0  0  0  0  0  0  0  0  0  0  0  0
    5.0940    6.5105   -0.9459 H   0  0  0  0  0  0  0  0  0  0  0  0
    4.1213    5.8672   -2.2760 H   0  0  0  0  0  0  0  0  0  0  0  0
    4.5996    3.5183   -1.5122 H   0  0  0  0  0  0  0  0  0  0  0  0
    5.5381    4.1390   -0.1534 H   0  0  0  0  0  0  0  0  0  0  0  0
    6.8789    5.3025   -2.1305 H   0  0  0  0  0  0  0  0  0  0  0  0
    9.2739   -0.8333   -2.2707 H   0  0  0  0  0  0  0  0  0  0  0  0
   10.5203   -1.4745   -3.4016 H   0  0  0  0  0  0  0  0  0  0  0  0
    7.0352   -0.7646   -3.2450 H   0  0  0  0  0  0  0  0  0  0  0  0
    6.5757   -3.1526   -4.9678 H   0  0  0  0  0  0  0  0  0  0  0  0
    4.6792   -1.9774   -2.8338 H   0  0  0  0  0  0  0  0  0  0  0  0
    5.6603   -3.4568   -2.6648 H   0  0  0  0  0  0  0  0  0  0  0  0
    4.3287   -3.4014   -3.8446 H   0  0  0  0  0  0  0  0  0  0  0  0
    6.2589   -1.0040   -6.1599 H   0  0  0  0  0  0  0  0  0  0  0  0
    5.0293   -0.5020   -4.9962 H   0  0  0  0  0  0  0  0  0  0  0  0
    4.7855   -2.9670   -6.8551 H   0  0  0  0  0  0  0  0  0  0  0  0
    4.0228   -1.3883   -7.1462 H   0  0  0  0  0  0  0  0  0  0  0  0
    3.5120   -2.3746   -5.7637 H   0  0  0  0  0  0  0  0  0  0  0  0
  1  2  1  0
  1 20  1  0
  1 21  1  0
  1 22  1  0
  2  3  1  0
  2 23  1  0
  2 24  1  0
  3  4  1  0
  3 25  1  0
  3 26  1  0
  4  5  1  0
  4 27  1  0
  4 28  1  0
  5  6  1  0
  5 29  1  0
  6  7  2  0
  6 19  1  0
  7  8  1  0
  8  9  2  0
  9 10  1  0
  9 19  1  0
 10 11  1  0
 11 12  1  0
 11 30  1  0
 11 31  1  0
 12 13  2  0
 12 14  1  0
 14 15  1  0
 14 32  1  0
 15 16  1  0
 15 17  1  0
 15 33  1  6
 16 34  1  0
 16 35  1  0
 16 36  1  0
 17 18  1  0
 17 37  1  0
 17 38  1  0
 18 39  1  0
 18 40  1  0
 18 41  1  0
M  END

