
     RDKit          3D

 34 35  0  0  0  0  0  0  0  0999 V2000
    1.2621   -0.2877    0.6642 C   0  0  0  0  0  0  0  0  0  0  0  0
    2.7457   -0.0452    0.4525 C   0  0  0  0  0  0  0  0  0  0  0  0
    3.2353   -0.9803   -0.4844 O   0  0  0  0  0  0  0  0  0  0  0  0
    4.6094   -0.8371   -0.8296 C   0  0  2  0  0  0  0  0  0  0  0  0
    4.8664   -1.6286   -2.1173 C   0  0  0  0  0  0  0  0  0  0  0  0
    5.0630   -3.0946   -1.6714 C   0  0  2  0  0  0  0  0  0  0  0  0
    5.8395   -3.5801   -2.2807 H   0  0  0  0  0  0  0  0  0  0  0  0
    3.7887   -3.9680   -1.6744 C   0  0  0  0  0  0  0  0  0  0  0  0
    3.8934   -4.8483   -0.4114 C   0  0  1  0  0  0  0  0  0  0  0  0
    2.5767   -5.4961    0.0199 C   0  0  0  0  0  0  0  0  0  0  0  0
    4.9396   -5.9090   -0.5977 N   0  0  0  0  0  0  0  0  0  0  0  0
    4.7783   -6.7239   -1.4966 N   0  0  0  0  0  0  0  0  0  0  0  0
    4.7323   -7.5316   -2.3005 N   0  0  0  0  0  0  0  0  0  0  0  0
    4.4765   -3.8636    0.6132 C   0  0  0  0  0  0  0  0  0  0  0  0
    5.5126   -3.0210   -0.1641 C   0  0  2  0  0  0  0  0  0  0  0  0
    6.5079   -3.4710   -0.0383 H   0  0  0  0  0  0  0  0  0  0  0  0
    5.5480   -1.5164    0.1873 C   0  0  0  0  0  0  0  0  0  0  0  0
    0.8473    0.4482    1.3708 H   0  0  0  0  0  0  0  0  0  0  0  0
    1.0833   -1.2955    1.0708 H   0  0  0  0  0  0  0  0  0  0  0  0
    0.7175   -0.2025   -0.2889 H   0  0  0  0  0  0  0  0  0  0  0  0
    3.2873   -0.1262    1.4171 H   0  0  0  0  0  0  0  0  0  0  0  0
    2.9185    0.9864    0.0796 H   0  0  0  0  0  0  0  0  0  0  0  0
    4.8377    0.2402   -0.9505 H   0  0  0  0  0  0  0  0  0  0  0  0
    5.7891   -1.2457   -2.5827 H   0  0  0  0  0  0  0  0  0  0  0  0
    4.0489   -1.4916   -2.8415 H   0  0  0  0  0  0  0  0  0  0  0  0
    3.6687   -4.5624   -2.5952 H   0  0  0  0  0  0  0  0  0  0  0  0
    2.8960   -3.3322   -1.5719 H   0  0  0  0  0  0  0  0  0  0  0  0
    2.1974   -6.1836   -0.7539 H   0  0  0  0  0  0  0  0  0  0  0  0
    1.8081   -4.7271    0.1929 H   0  0  0  0  0  0  0  0  0  0  0  0
    2.7114   -6.0696    0.9501 H   0  0  0  0  0  0  0  0  0  0  0  0
    4.9068   -4.3894    1.4788 H   0  0  0  0  0  0  0  0  0  0  0  0
    3.6565   -3.2228    0.9710 H   0  0  0  0  0  0  0  0  0  0  0  0
    6.5647   -1.1128    0.0468 H   0  0  0  0  0  0  0  0  0  0  0  0
    5.2668   -1.3070    1.2318 H   0  0  0  0  0  0  0  0  0  0  0  0
  1  2  1  0
  1 18  1  0
  1 19  1  0
  1 20  1  0
  2  3  1  0
  2 21  1  0
  2 22  1  0
  3  4  1  0
  4  5  1  0
  4 17  1  0
  4 23  1  6
  5  6  1  0
  5 24  1  0
  5 25  1  0
  6  7  1  6
  6  8  1  0
  6 15  1  0
  8  9  1  0
  8 26  1  0
  8 27  1  0
  9 10  1  0
  9 11  1  6
  9 14  1  0
 10 28  1  0
 10 29  1  0
 10 30  1  0
 11 12  1  0
 12 13  3  0
 14 15  1  0
 14 31  1  0
 14 32  1  0
 15 16  1  6
 15 17  1  0
 17 33  1  0
 17 34  1  0
M  CHG  2  11  -1  12   1
M  END

