
     RDKit          3D

 54 57  0  0  0  0  0  0  0  0999 V2000
    2.3143   -1.6418    1.5794 C   0  0  0  0  0  0  0  0  0  0  0  0
    3.3208   -0.9154    0.7474 C   0  0  0  0  0  0  0  0  0  0  0  0
    4.4615   -0.3541    1.3135 N   0  0  0  0  0  0  0  0  0  0  0  0
    5.1039    0.1962    0.3311 C   0  0  0  0  0  0  0  0  0  0  0  0
    6.4292    0.9154    0.3572 C   0  0  0  0  0  0  0  0  0  0  0  0
    7.6394    0.1474    0.1245 N   0  0  0  0  0  0  0  0  0  0  0  0
    8.0926   -0.7605    1.1704 C   0  0  0  0  0  0  0  0  0  0  0  0
    7.5921   -2.2070    1.0084 C   0  0  0  0  0  0  0  0  0  0  0  0
    7.8828   -2.7761   -0.3959 C   0  0  2  0  0  0  0  0  0  0  0  0
    9.3642   -3.1622   -0.6107 C   0  0  0  0  0  0  0  0  0  0  0  0
    9.8515   -4.1742    0.3074 N   0  0  0  0  0  0  0  0  0  0  0  0
    9.7427   -5.5007    0.0590 C   0  0  0  0  0  0  0  0  0  0  0  0
    9.2511   -5.9874   -0.9495 O   0  0  0  0  0  0  0  0  0  0  0  0
   10.3044   -6.3816    1.1622 C   0  0  0  0  0  0  0  0  0  0  0  0
   10.2662   -7.7695    1.0148 C   0  0  0  0  0  0  0  0  0  0  0  0
   10.8006   -8.5088    2.0703 C   0  0  0  0  0  0  0  0  0  0  0  0
   11.3183   -7.9380    3.1586 N   0  0  0  0  0  0  0  0  0  0  0  0
   11.3111   -6.5971    3.2121 C   0  0  0  0  0  0  0  0  0  0  0  0
   11.8893   -5.9698    4.4277 C   0  0  1  0  0  0  0  0  0  0  0  0
   12.6395   -4.6534    4.3241 C   0  0  0  0  0  0  0  0  0  0  0  0
   11.2973   -4.6844    4.9787 C   0  0  0  0  0  0  0  0  0  0  0  0
   10.8208   -5.8013    2.2487 N   0  0  0  0  0  0  0  0  0  0  0  0
    7.4007   -1.7814   -1.4734 C   0  0  0  0  0  0  0  0  0  0  0  0
    7.9033   -0.3472   -1.2195 C   0  0  0  0  0  0  0  0  0  0  0  0
    4.4759    0.0495   -0.8653 O   0  0  0  0  0  0  0  0  0  0  0  0
    3.3329   -0.6652   -0.5977 C   0  0  0  0  0  0  0  0  0  0  0  0
    2.4286   -0.9692   -1.7373 C   0  0  0  0  0  0  0  0  0  0  0  0
    2.7757   -2.5034    2.0892 H   0  0  0  0  0  0  0  0  0  0  0  0
    1.4745   -2.0112    0.9736 H   0  0  0  0  0  0  0  0  0  0  0  0
    1.9094   -0.9829    2.3649 H   0  0  0  0  0  0  0  0  0  0  0  0
    6.5056    1.3877    1.3490 H   0  0  0  0  0  0  0  0  0  0  0  0
    6.3854    1.7249   -0.3908 H   0  0  0  0  0  0  0  0  0  0  0  0
    7.7802   -0.3613    2.1479 H   0  0  0  0  0  0  0  0  0  0  0  0
    9.2015   -0.7527    1.1732 H   0  0  0  0  0  0  0  0  0  0  0  0
    6.5056   -2.2276    1.1887 H   0  0  0  0  0  0  0  0  0  0  0  0
    8.0460   -2.8506    1.7819 H   0  0  0  0  0  0  0  0  0  0  0  0
    7.3133   -3.7128   -0.5157 H   0  0  0  0  0  0  0  0  0  0  0  0
   10.0246   -2.2845   -0.5297 H   0  0  0  0  0  0  0  0  0  0  0  0
    9.4739   -3.5653   -1.6290 H   0  0  0  0  0  0  0  0  0  0  0  0
   10.2750   -3.9241    1.1959 H   0  0  0  0  0  0  0  0  0  0  0  0
    9.8385   -8.2171    0.1179 H   0  0  0  0  0  0  0  0  0  0  0  0
   10.8123   -9.6050    2.0383 H   0  0  0  0  0  0  0  0  0  0  0  0
   12.2557   -6.7078    5.1436 H   0  0  0  0  0  0  0  0  0  0  0  0
   12.7114   -4.2118    3.3267 H   0  0  0  0  0  0  0  0  0  0  0  0
   13.5304   -4.5373    4.9475 H   0  0  0  0  0  0  0  0  0  0  0  0
   10.4511   -4.2640    4.4290 H   0  0  0  0  0  0  0  0  0  0  0  0
   11.2362   -4.5902    6.0664 H   0  0  0  0  0  0  0  0  0  0  0  0
    6.2990   -1.7774   -1.4868 H   0  0  0  0  0  0  0  0  0  0  0  0
    7.7239   -2.1162   -2.4749 H   0  0  0  0  0  0  0  0  0  0  0  0
    7.4547    0.3453   -1.9494 H   0  0  0  0  0  0  0  0  0  0  0  0
    8.9971   -0.3085   -1.3925 H   0  0  0  0  0  0  0  0  0  0  0  0
    2.9358   -1.5745   -2.5074 H   0  0  0  0  0  0  0  0  0  0  0  0
    2.0723   -0.0466   -2.2261 H   0  0  0  0  0  0  0  0  0  0  0  0
    1.5514   -1.5302   -1.3870 H   0  0  0  0  0  0  0  0  0  0  0  0
  1  2  1  0
  1 28  1  0
  1 29  1  0
  1 30  1  0
  2  3  1  0
  2 26  2  0
  3  4  2  0
  4  5  1  0
  4 25  1  0
  5  6  1  0
  5 31  1  0
  5 32  1  0
  6  7  1  0
  6 24  1  0
  7  8  1  0
  7 33  1  0
  7 34  1  0
  8  9  1  0
  8 35  1  0
  8 36  1  0
  9 10  1  0
  9 23  1  0
  9 37  1  6
 10 11  1  0
 10 38  1  0
 10 39  1  0
 11 12  1  0
 11 40  1  0
 12 13  2  0
 12 14  1  0
 14 15  2  0
 14 22  1  0
 15 16  1  0
 15 41  1  0
 16 17  2  0
 16 42  1  0
 17 18  1  0
 18 19  1  0
 18 22  2  0
 19 20  1  0
 19 21  1  0
 19 43  1  1
 20 21  1  0
 20 44  1  0
 20 45  1  0
 21 46  1  0
 21 47  1  0
 23 24  1  0
 23 48  1  0
 23 49  1  0
 24 50  1  0
 24 51  1  0
 25 26  1  0
 26 27  1  0
 27 52  1  0
 27 53  1  0
 27 54  1  0
M  END

