
     RDKit          3D

 41 42  0  0  0  0  0  0  0  0999 V2000
    3.1177    2.8056    0.9476 C   0  0  0  0  0  0  0  0  0  0  0  0
    3.3701    1.3942    0.4288 C   0  0  0  0  0  0  0  0  0  0  0  0
    3.9099    0.5423    1.4801 N   0  0  0  0  0  0  0  0  0  0  0  0
    4.0602   -0.8759    1.1513 C   0  0  1  0  0  0  0  0  0  0  0  0
    5.1274   -1.0830    0.0607 C   0  0  0  0  0  0  0  0  0  0  0  0
    4.4296   -1.6537    2.4053 C   0  0  0  0  0  0  0  0  0  0  0  0
    5.2530   -1.0902    3.3877 C   0  0  0  0  0  0  0  0  0  0  0  0
    5.6303   -1.7398    4.4908 N   0  0  0  0  0  0  0  0  0  0  0  0
    5.1877   -2.9936    4.6235 C   0  0  0  0  0  0  0  0  0  0  0  0
    5.6706   -3.7676    5.8495 C   0  0  1  0  0  0  0  0  0  0  0  0
    4.6898   -4.6131    6.4024 O   0  0  0  0  0  0  0  0  0  0  0  0
    3.5791   -3.9553    6.9525 C   0  0  0  0  0  0  0  0  0  0  0  0
    6.8613   -4.6301    5.4822 C   0  0  1  0  0  0  0  0  0  0  0  0
    8.2397   -4.0256    5.4112 C   0  0  0  0  0  0  0  0  0  0  0  0
    7.8873   -4.9770    6.5270 C   0  0  0  0  0  0  0  0  0  0  0  0
    4.4011   -3.6299    3.7532 N   0  0  0  0  0  0  0  0  0  0  0  0
    4.0136   -2.9823    2.6478 C   0  0  0  0  0  0  0  0  0  0  0  0
    3.1209   -3.7465    1.7021 C   0  0  0  0  0  0  0  0  0  0  0  0
    2.7457    3.4604    0.1445 H   0  0  0  0  0  0  0  0  0  0  0  0
    4.0443    3.2410    1.3530 H   0  0  0  0  0  0  0  0  0  0  0  0
    2.3631    2.8074    1.7529 H   0  0  0  0  0  0  0  0  0  0  0  0
    4.0938    1.4411   -0.4017 H   0  0  0  0  0  0  0  0  0  0  0  0
    2.4299    0.9836   -0.0086 H   0  0  0  0  0  0  0  0  0  0  0  0
    3.3186    0.6247    2.3076 H   0  0  0  0  0  0  0  0  0  0  0  0
    3.1079   -1.2935    0.7563 H   0  0  0  0  0  0  0  0  0  0  0  0
    6.0848   -0.6421    0.3793 H   0  0  0  0  0  0  0  0  0  0  0  0
    4.8296   -0.6180   -0.8914 H   0  0  0  0  0  0  0  0  0  0  0  0
    5.2860   -2.1550   -0.1301 H   0  0  0  0  0  0  0  0  0  0  0  0
    5.6047   -0.0601    3.2673 H   0  0  0  0  0  0  0  0  0  0  0  0
    5.9913   -3.0045    6.5875 H   0  0  0  0  0  0  0  0  0  0  0  0
    2.9394   -4.7204    7.4171 H   0  0  0  0  0  0  0  0  0  0  0  0
    2.9805   -3.4215    6.1894 H   0  0  0  0  0  0  0  0  0  0  0  0
    3.8748   -3.2237    7.7325 H   0  0  0  0  0  0  0  0  0  0  0  0
    6.6080   -5.4024    4.7481 H   0  0  0  0  0  0  0  0  0  0  0  0
    8.3396   -2.9624    5.6481 H   0  0  0  0  0  0  0  0  0  0  0  0
    8.9122   -4.3716    4.6214 H   0  0  0  0  0  0  0  0  0  0  0  0
    7.7472   -4.5653    7.5311 H   0  0  0  0  0  0  0  0  0  0  0  0
    8.3157   -5.9832    6.5128 H   0  0  0  0  0  0  0  0  0  0  0  0
    2.9544   -4.7529    2.1062 H   0  0  0  0  0  0  0  0  0  0  0  0
    3.5680   -3.8347    0.6989 H   0  0  0  0  0  0  0  0  0  0  0  0
    2.1455   -3.2477    1.5763 H   0  0  0  0  0  0  0  0  0  0  0  0
  1  2  1  0
  1 19  1  0
  1 20  1  0
  1 21  1  0
  2  3  1  0
  2 22  1  0
  2 23  1  0
  3  4  1  0
  3 24  1  0
  4  5  1  0
  4  6  1  0
  4 25  1  6
  5 26  1  0
  5 27  1  0
  5 28  1  0
  6  7  2  0
  6 17  1  0
  7  8  1  0
  7 29  1  0
  8  9  2  0
  9 10  1  0
  9 16  1  0
 10 11  1  0
 10 13  1  0
 10 30  1  1
 11 12  1  0
 12 31  1  0
 12 32  1  0
 12 33  1  0
 13 14  1  0
 13 15  1  0
 13 34  1  6
 14 15  1  0
 14 35  1  0
 14 36  1  0
 15 37  1  0
 15 38  1  0
 16 17  2  0
 17 18  1  0
 18 39  1  0
 18 40  1  0
 18 41  1  0
M  END

