
     RDKit          3D

 41 42  0  0  0  0  0  0  0  0999 V2000
    2.6482    2.6476  -14.0356 C   0  0  0  0  0  0  0  0  0  0  0  0
    4.1350    2.7778  -14.3798 C   0  0  1  0  0  0  0  0  0  0  0  0
    4.7444    1.4487  -14.8354 C   0  0  0  0  0  0  0  0  0  0  0  0
    4.3567    3.8670  -15.4302 C   0  0  0  0  0  0  0  0  0  0  0  0
    4.8773    3.2912  -13.2170 O   0  0  0  0  0  0  0  0  0  0  0  0
    4.9157    2.6241  -12.0524 C   0  0  0  0  0  0  0  0  0  0  0  0
    4.4080    1.5520  -11.8250 O   0  0  0  0  0  0  0  0  0  0  0  0
    5.6665    3.3329  -11.1060 N   0  0  0  0  0  0  0  0  0  0  0  0
    5.9152    4.7707  -11.2069 C   0  0  0  0  0  0  0  0  0  0  0  0
    5.1440    5.4783  -10.1134 C   0  0  0  0  0  0  0  0  0  0  0  0
    4.5324    7.2423  -10.4686 Br  0  0  0  0  0  0  0  0  0  0  0  0
    4.9556    4.8690   -8.9294 C   0  0  0  0  0  0  0  0  0  0  0  0
    5.5100    3.5244   -8.7269 C   0  0  0  0  0  0  0  0  0  0  0  0
    5.8081    3.1051   -7.4693 O   0  0  0  0  0  0  0  0  0  0  0  0
    4.7237    2.9035   -6.5424 C   0  0  2  0  0  0  0  0  0  0  0  0
    4.1352    3.8337   -6.4649 H   0  0  0  0  0  0  0  0  0  0  0  0
    5.3592    2.4969   -5.2106 C   0  0  0  0  0  0  0  0  0  0  0  0
    5.4176    0.9636   -5.3347 C   0  0  0  0  0  0  0  0  0  0  0  0
    4.1588    0.5898   -5.9843 N   0  0  0  0  0  0  0  0  0  0  0  0
    3.8464    1.6727   -6.9300 C   0  0  0  0  0  0  0  0  0  0  0  0
    5.8335    2.7814   -9.8182 C   0  0  0  0  0  0  0  0  0  0  0  0
    6.5831    1.2216   -9.6738 Cl  0  0  0  0  0  0  0  0  0  0  0  0
    2.0839    2.3750  -14.9410 H   0  0  0  0  0  0  0  0  0  0  0  0
    2.2539    3.6069  -13.6650 H   0  0  0  0  0  0  0  0  0  0  0  0
    2.4823    1.8766  -13.2728 H   0  0  0  0  0  0  0  0  0  0  0  0
    4.2595    1.1218  -15.7685 H   0  0  0  0  0  0  0  0  0  0  0  0
    4.6087    0.6694  -14.0751 H   0  0  0  0  0  0  0  0  0  0  0  0
    5.8209    1.5684  -15.0341 H   0  0  0  0  0  0  0  0  0  0  0  0
    3.8527    3.5951  -16.3698 H   0  0  0  0  0  0  0  0  0  0  0  0
    5.4302    3.9956  -15.6356 H   0  0  0  0  0  0  0  0  0  0  0  0
    3.9513    4.8305  -15.0852 H   0  0  0  0  0  0  0  0  0  0  0  0
    5.6095    5.1044  -12.2020 H   0  0  0  0  0  0  0  0  0  0  0  0
    6.9969    4.9827  -11.0946 H   0  0  0  0  0  0  0  0  0  0  0  0
    4.4508    5.3702   -8.1020 H   0  0  0  0  0  0  0  0  0  0  0  0
    4.6923    2.7839   -4.3798 H   0  0  0  0  0  0  0  0  0  0  0  0
    6.3301    2.9934   -5.0654 H   0  0  0  0  0  0  0  0  0  0  0  0
    5.5371    0.4398   -4.3743 H   0  0  0  0  0  0  0  0  0  0  0  0
    6.2653    0.6784   -5.9813 H   0  0  0  0  0  0  0  0  0  0  0  0
    3.4262    0.5375   -5.2787 H   0  0  0  0  0  0  0  0  0  0  0  0
    2.7711    1.9105   -6.9088 H   0  0  0  0  0  0  0  0  0  0  0  0
    4.0909    1.3752   -7.9629 H   0  0  0  0  0  0  0  0  0  0  0  0
  1  2  1  0
  1 23  1  0
  1 24  1  0
  1 25  1  0
  2  3  1  0
  2  4  1  0
  2  5  1  1
  3 26  1  0
  3 27  1  0
  3 28  1  0
  4 29  1  0
  4 30  1  0
  4 31  1  0
  5  6  1  0
  6  7  2  0
  6  8  1  0
  8  9  1  0
  8 21  1  0
  9 10  1  0
  9 32  1  0
  9 33  1  0
 10 11  1  0
 10 12  2  0
 12 13  1  0
 12 34  1  0
 13 14  1  0
 13 21  2  0
 14 15  1  0
 15 16  1  1
 15 17  1  0
 15 20  1  0
 17 18  1  0
 17 35  1  0
 17 36  1  0
 18 19  1  0
 18 37  1  0
 18 38  1  0
 19 20  1  0
 19 39  1  0
 20 40  1  0
 20 41  1  0
 21 22  1  0
M  END

