
     RDKit          3D

 44 45  0  0  0  0  0  0  0  0999 V2000
    3.3573    5.5791   -2.0123 C   0  0  0  0  0  0  0  0  0  0  0  0
    3.3729    4.9099   -0.7792 O   0  0  0  0  0  0  0  0  0  0  0  0
    4.4669    4.0242   -0.4746 C   0  0  1  0  0  0  0  0  0  0  0  0
    4.3513    2.7523   -1.3301 C   0  0  0  0  0  0  0  0  0  0  0  0
    5.8194    4.7144   -0.7011 C   0  0  0  0  0  0  0  0  0  0  0  0
    4.2236    3.7277    1.0234 C   0  0  0  0  0  0  0  0  0  0  0  0
    4.9681    2.5558    1.6834 C   0  0  0  0  0  0  0  0  0  0  0  0
    6.4124    2.6718    1.7853 N   0  0  0  0  0  0  0  0  0  0  0  0
    7.0741    3.2956    2.8358 C   0  0  0  0  0  0  0  0  0  0  0  0
    8.4849    3.1256    2.9428 C   0  0  0  0  0  0  0  0  0  0  0  0
    9.2386    3.7189    3.9546 C   0  0  0  0  0  0  0  0  0  0  0  0
    8.5403    4.4982    4.8693 C   0  0  0  0  0  0  0  0  0  0  0  0
    8.9959    5.2014    5.9553 O   0  0  0  0  0  0  0  0  0  0  0  0
    7.8713    5.7811    6.4833 C   0  0  0  0  0  0  0  0  0  0  0  0
    8.0643    6.6246    7.7089 C   0  0  1  0  0  0  0  0  0  0  0  0
    6.7561    7.3037    8.1214 C   0  0  0  0  0  0  0  0  0  0  0  0
    8.6810    5.7977    8.8534 C   0  0  0  0  0  0  0  0  0  0  0  0
    6.7729    5.5180    5.8499 N   0  0  0  0  0  0  0  0  0  0  0  0
    7.1546    4.6905    4.7959 C   0  0  0  0  0  0  0  0  0  0  0  0
    6.3985    4.0935    3.7801 C   0  0  0  0  0  0  0  0  0  0  0  0
    2.3957    6.1113   -2.0717 H   0  0  0  0  0  0  0  0  0  0  0  0
    3.4182    4.8967   -2.8826 H   0  0  0  0  0  0  0  0  0  0  0  0
    4.1657    6.3286   -2.1104 H   0  0  0  0  0  0  0  0  0  0  0  0
    4.3942    2.9918   -2.4037 H   0  0  0  0  0  0  0  0  0  0  0  0
    3.3979    2.2370   -1.1338 H   0  0  0  0  0  0  0  0  0  0  0  0
    5.1767    2.0525   -1.1272 H   0  0  0  0  0  0  0  0  0  0  0  0
    6.0170    4.8897   -1.7704 H   0  0  0  0  0  0  0  0  0  0  0  0
    6.6315    4.0945   -0.2986 H   0  0  0  0  0  0  0  0  0  0  0  0
    5.8453    5.6838   -0.1792 H   0  0  0  0  0  0  0  0  0  0  0  0
    3.1440    3.5248    1.1215 H   0  0  0  0  0  0  0  0  0  0  0  0
    4.4070    4.6594    1.5819 H   0  0  0  0  0  0  0  0  0  0  0  0
    4.7520    1.6276    1.1321 H   0  0  0  0  0  0  0  0  0  0  0  0
    4.5341    2.4085    2.6906 H   0  0  0  0  0  0  0  0  0  0  0  0
    6.9485    1.9584    1.3103 H   0  0  0  0  0  0  0  0  0  0  0  0
    8.9924    2.5046    2.1990 H   0  0  0  0  0  0  0  0  0  0  0  0
   10.3183    3.5737    4.0193 H   0  0  0  0  0  0  0  0  0  0  0  0
    8.7993    7.4043    7.4329 H   0  0  0  0  0  0  0  0  0  0  0  0
    5.9938    6.5550    8.3863 H   0  0  0  0  0  0  0  0  0  0  0  0
    6.3448    7.9129    7.3036 H   0  0  0  0  0  0  0  0  0  0  0  0
    6.9242    7.9539    8.9939 H   0  0  0  0  0  0  0  0  0  0  0  0
    7.9893    5.0033    9.1778 H   0  0  0  0  0  0  0  0  0  0  0  0
    8.8889    6.4432    9.7212 H   0  0  0  0  0  0  0  0  0  0  0  0
    9.6243    5.3249    8.5426 H   0  0  0  0  0  0  0  0  0  0  0  0
    5.3240    4.2639    3.7365 H   0  0  0  0  0  0  0  0  0  0  0  0
  1  2  1  0
  1 21  1  0
  1 22  1  0
  1 23  1  0
  3  2  1  6
  3  4  1  0
  3  5  1  0
  3  6  1  0
  4 24  1  0
  4 25  1  0
  4 26  1  0
  5 27  1  0
  5 28  1  0
  5 29  1  0
  6  7  1  0
  6 30  1  0
  6 31  1  0
  7  8  1  0
  7 32  1  0
  7 33  1  0
  8  9  1  0
  8 34  1  0
  9 10  2  0
  9 20  1  0
 10 11  1  0
 10 35  1  0
 11 12  2  0
 11 36  1  0
 12 13  1  0
 12 19  1  0
 13 14  1  0
 14 15  1  0
 14 18  2  0
 15 16  1  0
 15 17  1  0
 15 37  1  6
 16 38  1  0
 16 39  1  0
 16 40  1  0
 17 41  1  0
 17 42  1  0
 17 43  1  0
 18 19  1  0
 19 20  2  0
 20 44  1  0
M  END

