
     RDKit          3D

 47 48  0  0  0  0  0  0  0  0999 V2000
    0.8685    0.8683    2.2661 C   0  0  0  0  0  0  0  0  0  0  0  0
    2.2311    0.5176    1.6595 C   0  0  0  0  0  0  0  0  0  0  0  0
    3.0131    1.6733    0.9738 C   0  0  1  0  0  0  0  0  0  0  0  0
    4.4469    1.2645    0.6549 C   0  0  0  0  0  0  0  0  0  0  0  0
    5.4675    2.1097    0.7013 N   0  0  0  0  0  0  0  0  0  0  0  0
    6.5641    1.4453    0.2975 N   0  0  0  0  0  0  0  0  0  0  0  0
    6.2769    0.2303    0.0077 N   0  0  0  0  0  0  0  0  0  0  0  0
    4.9476    0.0715    0.2144 N   0  0  0  0  0  0  0  0  0  0  0  0
    4.3813   -1.2462   -0.0602 C   0  0  0  0  0  0  0  0  0  0  0  0
    3.8363   -1.3975   -1.4913 C   0  0  1  0  0  0  0  0  0  0  0  0
    4.9073   -1.2713   -2.6015 C   0  0  0  0  0  0  0  0  0  0  0  0
    6.1271   -2.2141   -2.5560 C   0  0  1  0  0  0  0  0  0  0  0  0
    5.7649   -3.7053   -2.5624 C   0  0  0  0  0  0  0  0  0  0  0  0
    7.0743   -1.8737   -3.7146 C   0  0  0  0  0  0  0  0  0  0  0  0
    2.9542   -2.6541   -1.5519 C   0  0  0  0  0  0  0  0  0  0  0  0
    2.6154   -3.2783   -0.5813 O   0  0  0  0  0  0  0  0  0  0  0  0
    2.5017   -2.9992   -2.7734 O   0  0  0  0  0  0  0  0  0  0  0  0
    2.3374    2.1420   -0.3563 C   0  0  0  0  0  0  0  0  0  0  0  0
    2.8179    3.5812   -0.5590 C   0  0  0  0  0  0  0  0  0  0  0  0
    2.7752    4.1750    0.8596 C   0  0  0  0  0  0  0  0  0  0  0  0
    3.0594    2.9932    1.8238 C   0  0  0  0  0  0  0  0  0  0  0  0
    0.3589   -0.0533    2.5875 H   0  0  0  0  0  0  0  0  0  0  0  0
    0.2049    1.3704    1.5443 H   0  0  0  0  0  0  0  0  0  0  0  0
    0.9520    1.5168    3.1506 H   0  0  0  0  0  0  0  0  0  0  0  0
    2.0602   -0.2783    0.9182 H   0  0  0  0  0  0  0  0  0  0  0  0
    2.8638    0.0739    2.4479 H   0  0  0  0  0  0  0  0  0  0  0  0
    3.5919   -1.4672    0.6607 H   0  0  0  0  0  0  0  0  0  0  0  0
    5.1892   -1.9657    0.1227 H   0  0  0  0  0  0  0  0  0  0  0  0
    3.1187   -0.5721   -1.6604 H   0  0  0  0  0  0  0  0  0  0  0  0
    5.2802   -0.2348   -2.5788 H   0  0  0  0  0  0  0  0  0  0  0  0
    4.4190   -1.3624   -3.5930 H   0  0  0  0  0  0  0  0  0  0  0  0
    6.6703   -1.9934   -1.6214 H   0  0  0  0  0  0  0  0  0  0  0  0
    5.1752   -3.9776   -3.4542 H   0  0  0  0  0  0  0  0  0  0  0  0
    5.1848   -4.0064   -1.6763 H   0  0  0  0  0  0  0  0  0  0  0  0
    6.6780   -4.3214   -2.5715 H   0  0  0  0  0  0  0  0  0  0  0  0
    6.5965   -2.0657   -4.6914 H   0  0  0  0  0  0  0  0  0  0  0  0
    7.9896   -2.4845   -3.6682 H   0  0  0  0  0  0  0  0  0  0  0  0
    7.3780   -0.8151   -3.6898 H   0  0  0  0  0  0  0  0  0  0  0  0
    2.8847   -2.4262   -3.4536 H   0  0  0  0  0  0  0  0  0  0  0  0
    1.2431    2.1266   -0.2206 H   0  0  0  0  0  0  0  0  0  0  0  0
    2.5637    1.4782   -1.2063 H   0  0  0  0  0  0  0  0  0  0  0  0
    2.1992    4.1375   -1.2808 H   0  0  0  0  0  0  0  0  0  0  0  0
    3.8517    3.5838   -0.9380 H   0  0  0  0  0  0  0  0  0  0  0  0
    1.7747    4.5939    1.0587 H   0  0  0  0  0  0  0  0  0  0  0  0
    3.4977    4.9947    0.9863 H   0  0  0  0  0  0  0  0  0  0  0  0
    2.3042    2.9557    2.6187 H   0  0  0  0  0  0  0  0  0  0  0  0
    4.0364    3.0992    2.3089 H   0  0  0  0  0  0  0  0  0  0  0  0
  1  2  1  0
  1 22  1  0
  1 23  1  0
  1 24  1  0
  3  2  1  1
  2 25  1  0
  2 26  1  0
  3  4  1  0
  3 18  1  0
  3 21  1  0
  4  5  2  0
  4  8  1  0
  5  6  1  0
  6  7  2  0
  7  8  1  0
  8  9  1  0
  9 10  1  0
  9 27  1  0
  9 28  1  0
 10 11  1  0
 10 15  1  0
 10 29  1  6
 11 12  1  0
 11 30  1  0
 11 31  1  0
 12 13  1  0
 12 14  1  0
 12 32  1  1
 13 33  1  0
 13 34  1  0
 13 35  1  0
 14 36  1  0
 14 37  1  0
 14 38  1  0
 15 16  2  0
 15 17  1  0
 17 39  1  0
 18 19  1  0
 18 40  1  0
 18 41  1  0
 19 20  1  0
 19 42  1  0
 19 43  1  0
 20 21  1  0
 20 44  1  0
 20 45  1  0
 21 46  1  0
 21 47  1  0
M  END

