
     RDKit          3D

 42 43  0  0  0  0  0  0  0  0999 V2000
    2.6227   -1.3060    0.4937 O   0  0  0  0  0  0  0  0  0  0  0  0
    2.1096   -0.1930    0.4513 C   0  0  0  0  0  0  0  0  0  0  0  0
    0.6522    0.0358    0.2317 C   0  0  0  0  0  0  0  0  0  0  0  0
   -0.1788   -1.0106    0.0690 C   0  0  0  0  0  0  0  0  0  0  0  0
   -1.6275   -0.9917   -0.1562 C   0  0  0  0  0  0  0  0  0  0  0  0
   -2.3839    0.1969   -0.2322 C   0  0  0  0  0  0  0  0  0  0  0  0
   -3.7595    0.1561   -0.4489 C   0  0  0  0  0  0  0  0  0  0  0  0
   -4.4169   -1.0723   -0.5956 C   0  0  0  0  0  0  0  0  0  0  0  0
   -3.6842   -2.2598   -0.5231 C   0  0  0  0  0  0  0  0  0  0  0  0
   -2.3057   -2.2179   -0.3058 C   0  0  0  0  0  0  0  0  0  0  0  0
    2.8467    0.9444    0.6039 N   0  0  0  0  0  0  0  0  0  0  0  0
    4.2641    0.9042    0.8231 C   0  0  0  0  0  0  0  0  0  0  0  0
    4.7898    2.3430    0.9034 C   0  0  0  0  0  0  0  0  0  0  0  0
    4.0474    3.3016    0.8310 O   0  0  0  0  0  0  0  0  0  0  0  0
    6.1491    2.4128    1.0647 N   0  0  0  0  0  0  0  0  0  0  0  0
    6.8112    3.6248    1.1749 N   0  0  0  0  0  0  0  0  0  0  0  0
    7.4318    3.8416    2.4855 C   0  0  0  0  0  0  0  0  0  0  0  0
    8.7436    3.0616    2.6727 C   0  0  0  0  0  0  0  0  0  0  0  0
    9.7186    3.3546    1.5220 C   0  0  0  0  0  0  0  0  0  0  0  0
    9.0494    3.1227    0.1585 C   0  0  0  0  0  0  0  0  0  0  0  0
    7.7264    3.9003    0.0630 C   0  0  0  0  0  0  0  0  0  0  0  0
    0.2931    1.0694    0.2087 H   0  0  0  0  0  0  0  0  0  0  0  0
    0.2939   -1.9986    0.1111 H   0  0  0  0  0  0  0  0  0  0  0  0
   -1.8893    1.1642   -0.1200 H   0  0  0  0  0  0  0  0  0  0  0  0
   -4.3268    1.0888   -0.5043 H   0  0  0  0  0  0  0  0  0  0  0  0
   -5.4962   -1.1005   -0.7655 H   0  0  0  0  0  0  0  0  0  0  0  0
   -4.1878   -3.2233   -0.6361 H   0  0  0  0  0  0  0  0  0  0  0  0
   -1.7348   -3.1487   -0.2495 H   0  0  0  0  0  0  0  0  0  0  0  0
    2.4392    1.8760    0.5739 H   0  0  0  0  0  0  0  0  0  0  0  0
    4.7785    0.3535    0.0136 H   0  0  0  0  0  0  0  0  0  0  0  0
    4.5140    0.3630    1.7558 H   0  0  0  0  0  0  0  0  0  0  0  0
    6.6751    1.5386    1.1106 H   0  0  0  0  0  0  0  0  0  0  0  0
    6.6927    3.5909    3.2608 H   0  0  0  0  0  0  0  0  0  0  0  0
    7.6340    4.9240    2.5716 H   0  0  0  0  0  0  0  0  0  0  0  0
    8.5298    1.9767    2.7129 H   0  0  0  0  0  0  0  0  0  0  0  0
    9.1954    3.3179    3.6457 H   0  0  0  0  0  0  0  0  0  0  0  0
   10.6295    2.7409    1.6178 H   0  0  0  0  0  0  0  0  0  0  0  0
   10.0459    4.4091    1.5876 H   0  0  0  0  0  0  0  0  0  0  0  0
    8.8580    2.0423    0.0162 H   0  0  0  0  0  0  0  0  0  0  0  0
    9.7197    3.4230   -0.6644 H   0  0  0  0  0  0  0  0  0  0  0  0
    7.1959    3.6908   -0.8777 H   0  0  0  0  0  0  0  0  0  0  0  0
    7.9369    4.9845    0.0797 H   0  0  0  0  0  0  0  0  0  0  0  0
  1  2  2  0
  2  3  1  0
  2 11  1  0
  3  4  2  0
  3 22  1  0
  4  5  1  0
  4 23  1  0
  5  6  2  0
  5 10  1  0
  6  7  1  0
  6 24  1  0
  7  8  2  0
  7 25  1  0
  8  9  1  0
  8 26  1  0
  9 10  2  0
  9 27  1  0
 10 28  1  0
 11 12  1  0
 11 29  1  0
 12 13  1  0
 12 30  1  0
 12 31  1  0
 13 14  2  0
 13 15  1  0
 15 16  1  0
 15 32  1  0
 16 17  1  0
 16 21  1  0
 17 18  1  0
 17 33  1  0
 17 34  1  0
 18 19  1  0
 18 35  1  0
 18 36  1  0
 19 20  1  0
 19 37  1  0
 19 38  1  0
 20 21  1  0
 20 39  1  0
 20 40  1  0
 21 41  1  0
 21 42  1  0
M  END

