
     RDKit          3D

 43 44  0  0  0  0  0  0  0  0999 V2000
    0.5836    0.2662    0.1843 N   0  0  0  0  0  0  0  0  0  0  0  0
    2.0057    0.3732    0.4936 C   0  0  0  0  0  0  0  0  0  0  0  0
    2.7678    0.9984   -0.6737 C   0  0  0  0  0  0  0  0  0  0  0  0
    4.2502    1.1938   -0.3920 C   0  0  0  0  0  0  0  0  0  0  0  0
    4.8608    1.7529   -1.5325 O   0  0  0  0  0  0  0  0  0  0  0  0
    6.2371    2.0910   -1.4050 C   0  0  1  0  0  0  0  0  0  0  0  0
    7.1476    0.8577   -1.5540 C   0  0  0  0  0  0  0  0  0  0  0  0
    7.0793    0.2897   -2.9843 C   0  0  0  0  0  0  0  0  0  0  0  0
    7.3724    1.2776   -4.0224 N   0  0  0  0  0  0  0  0  0  0  0  0
    8.7881    1.5564   -4.2339 C   0  0  0  0  0  0  0  0  0  0  0  0
    9.4832    0.5002   -5.1063 C   0  0  1  0  0  0  0  0  0  0  0  0
    8.9195    0.3949   -6.5298 C   0  0  0  0  0  0  0  0  0  0  0  0
    9.8314   -0.5554   -7.3061 C   0  0  0  0  0  0  0  0  0  0  0  0
   11.5561   -0.2080   -6.7259 S   0  0  0  0  0  0  0  0  0  0  0  0
   10.9877    0.7682   -5.2640 C   0  0  0  0  0  0  0  0  0  0  0  0
    6.5010    2.4446   -3.8950 C   0  0  0  0  0  0  0  0  0  0  0  0
    6.5528    3.1083   -2.5074 C   0  0  0  0  0  0  0  0  0  0  0  0
    0.0731   -0.1178    0.9794 H   0  0  0  0  0  0  0  0  0  0  0  0
    0.4404   -0.3892   -0.5857 H   0  0  0  0  0  0  0  0  0  0  0  0
    2.4876   -0.5944    0.7623 H   0  0  0  0  0  0  0  0  0  0  0  0
    2.1117    1.0199    1.3833 H   0  0  0  0  0  0  0  0  0  0  0  0
    2.3112    1.9688   -0.9269 H   0  0  0  0  0  0  0  0  0  0  0  0
    2.6654    0.3609   -1.5705 H   0  0  0  0  0  0  0  0  0  0  0  0
    4.7155    0.2235   -0.1207 H   0  0  0  0  0  0  0  0  0  0  0  0
    4.3887    1.8650    0.4827 H   0  0  0  0  0  0  0  0  0  0  0  0
    6.4011    2.5551   -0.4111 H   0  0  0  0  0  0  0  0  0  0  0  0
    6.8695    0.0790   -0.8243 H   0  0  0  0  0  0  0  0  0  0  0  0
    8.1813    1.1549   -1.3059 H   0  0  0  0  0  0  0  0  0  0  0  0
    6.0616   -0.0996   -3.1584 H   0  0  0  0  0  0  0  0  0  0  0  0
    7.7649   -0.5658   -3.0888 H   0  0  0  0  0  0  0  0  0  0  0  0
    9.3599    1.6655   -3.2853 H   0  0  0  0  0  0  0  0  0  0  0  0
    8.8699    2.5300   -4.7468 H   0  0  0  0  0  0  0  0  0  0  0  0
    9.3707   -0.4885   -4.6250 H   0  0  0  0  0  0  0  0  0  0  0  0
    8.9345    1.3949   -6.9993 H   0  0  0  0  0  0  0  0  0  0  0  0
    7.8739    0.0522   -6.5226 H   0  0  0  0  0  0  0  0  0  0  0  0
    9.7812   -0.4022   -8.3941 H   0  0  0  0  0  0  0  0  0  0  0  0
    9.5870   -1.6089   -7.0967 H   0  0  0  0  0  0  0  0  0  0  0  0
   11.1804    1.8392   -5.4449 H   0  0  0  0  0  0  0  0  0  0  0  0
   11.5655    0.4634   -4.3786 H   0  0  0  0  0  0  0  0  0  0  0  0
    5.4637    2.1205   -4.0844 H   0  0  0  0  0  0  0  0  0  0  0  0
    6.7582    3.1716   -4.6818 H   0  0  0  0  0  0  0  0  0  0  0  0
    5.8294    3.9378   -2.4506 H   0  0  0  0  0  0  0  0  0  0  0  0
    7.5556    3.5318   -2.3247 H   0  0  0  0  0  0  0  0  0  0  0  0
  1  2  1  0
  1 18  1  0
  1 19  1  0
  2  3  1  0
  2 20  1  0
  2 21  1  0
  3  4  1  0
  3 22  1  0
  3 23  1  0
  4  5  1  0
  4 24  1  0
  4 25  1  0
  5  6  1  0
  6  7  1  0
  6 17  1  0
  6 26  1  1
  7  8  1  0
  7 27  1  0
  7 28  1  0
  8  9  1  0
  8 29  1  0
  8 30  1  0
  9 10  1  0
  9 16  1  0
 10 11  1  0
 10 31  1  0
 10 32  1  0
 11 12  1  0
 11 15  1  0
 11 33  1  1
 12 13  1  0
 12 34  1  0
 12 35  1  0
 13 14  1  0
 13 36  1  0
 13 37  1  0
 14 15  1  0
 15 38  1  0
 15 39  1  0
 16 17  1  0
 16 40  1  0
 16 41  1  0
 17 42  1  0
 17 43  1  0
M  END

