
     RDKit          3D

 69 75  0  0  0  0  0  0  0  0999 V2000
    1.3127   -2.0303   -0.7570 O   0  0  0  0  0  0  0  0  0  0  0  0
    2.4759   -1.8170   -0.9639 C   0  0  0  0  0  0  0  0  0  0  0  0
    3.1903   -2.5245   -1.8423 O   0  0  0  0  0  0  0  0  0  0  0  0
    3.2201   -0.6586   -0.2673 C   0  0  0  0  0  0  0  0  0  0  0  0
    4.4313   -1.0376    0.4545 N   0  0  0  0  0  0  0  0  0  0  0  0
    5.5924   -1.4728   -0.1552 C   0  0  0  0  0  0  0  0  0  0  0  0
    5.7011   -1.6600   -1.3565 O   0  0  0  0  0  0  0  0  0  0  0  0
    6.6608   -1.6799    0.9011 C   0  0  1  0  0  0  0  0  0  0  0  0
    7.8476   -0.6936    0.7919 C   0  0  1  0  0  0  0  0  0  0  0  0
    7.2449    0.5861    1.4139 C   0  0  0  0  0  0  0  0  0  0  0  0
    6.8494   -0.0957    2.7441 C   0  0  1  0  0  0  0  0  0  0  0  0
    5.9806   -1.2791    2.2342 C   0  0  1  0  0  0  0  0  0  0  0  0
    4.5708   -0.8556    1.8489 C   0  0  0  0  0  0  0  0  0  0  0  0
    3.7062   -0.4204    2.5640 O   0  0  0  0  0  0  0  0  0  0  0  0
    8.2438   -0.5864    3.2193 C   0  0  1  0  0  0  0  0  0  0  0  0
    8.3615   -1.5652    4.4297 C   0  0  1  0  0  0  0  0  0  0  0  0
    7.6905   -1.0033    5.6759 C   0  0  0  0  0  0  0  0  0  0  0  0
    6.3094   -1.0891    5.9000 C   0  0  0  0  0  0  0  0  0  0  0  0
    5.7123   -0.5610    7.0488 C   0  0  0  0  0  0  0  0  0  0  0  0
    6.5031    0.0782    8.0011 C   0  0  0  0  0  0  0  0  0  0  0  0
    7.8815    0.1990    7.8025 C   0  0  0  0  0  0  0  0  0  0  0  0
    8.4691   -0.3320    6.6477 C   0  0  0  0  0  0  0  0  0  0  0  0
    9.8157   -0.2173    6.3776 O   0  0  0  0  0  0  0  0  0  0  0  0
   10.7065    0.1975    7.3937 C   0  0  0  0  0  0  0  0  0  0  0  0
   10.8141    1.7201    7.5745 C   0  0  0  0  0  0  0  0  0  0  0  0
   11.2831    2.1829    8.5952 O   0  0  0  0  0  0  0  0  0  0  0  0
   10.3851    2.4275    6.4787 N   0  0  0  0  0  0  0  0  0  0  0  0
   10.3436    3.8175    6.2855 C   0  0  0  0  0  0  0  0  0  0  0  0
   10.9094    4.7107    7.2130 C   0  0  0  0  0  0  0  0  0  0  0  0
   10.8601    6.0862    6.9859 C   0  0  0  0  0  0  0  0  0  0  0  0
   10.2547    6.6068    5.8405 C   0  0  0  0  0  0  0  0  0  0  0  0
    9.6864    5.7311    4.9165 C   0  0  0  0  0  0  0  0  0  0  0  0
    9.7211    4.3481    5.1255 C   0  0  0  0  0  0  0  0  0  0  0  0
    9.0635    3.4406    4.1211 C   0  0  1  0  0  0  0  0  0  0  0  0
    9.9395    2.5206    3.6213 F   0  0  0  0  0  0  0  0  0  0  0  0
    8.0586    2.7171    4.6662 F   0  0  0  0  0  0  0  0  0  0  0  0
    8.5565    4.0938    3.0715 F   0  0  0  0  0  0  0  0  0  0  0  0
    8.0005   -2.9825    4.0521 C   0  0  0  0  0  0  0  0  0  0  0  0
    6.9894   -4.1285    4.9486 S   0  0  0  0  0  0  0  0  0  0  0  0
    7.3132   -5.4463    3.7318 C   0  0  0  0  0  0  0  0  0  0  0  0
    6.8872   -6.5712    3.7719 O   0  0  0  0  0  0  0  0  0  0  0  0
    8.1265   -4.8953    2.7582 N   0  0  0  0  0  0  0  0  0  0  0  0
    8.4154   -5.4624    1.9672 H   0  0  0  0  0  0  0  0  0  0  0  0
    8.5089   -3.5702    2.9429 C   0  0  0  0  0  0  0  0  0  0  0  0
    9.5959   -2.7678    1.8086 S   0  0  0  0  0  0  0  0  0  0  0  0
    8.9113   -1.0481    1.8669 C   0  0  1  0  0  0  0  0  0  0  0  0
    4.1194   -2.1999   -1.8956 H   0  0  0  0  0  0  0  0  0  0  0  0
    2.5368   -0.2134    0.4650 H   0  0  0  0  0  0  0  0  0  0  0  0
    3.4834    0.0954   -1.0294 H   0  0  0  0  0  0  0  0  0  0  0  0
    6.9956   -2.7249    0.8407 H   0  0  0  0  0  0  0  0  0  0  0  0
    8.2582   -0.6173   -0.2238 H   0  0  0  0  0  0  0  0  0  0  0  0
    6.3938    0.9945    0.8467 H   0  0  0  0  0  0  0  0  0  0  0  0
    7.9773    1.3956    1.5489 H   0  0  0  0  0  0  0  0  0  0  0  0
    6.3365    0.5361    3.4796 H   0  0  0  0  0  0  0  0  0  0  0  0
    5.9007   -2.0998    2.9580 H   0  0  0  0  0  0  0  0  0  0  0  0
    8.7791    0.3175    3.5384 H   0  0  0  0  0  0  0  0  0  0  0  0
    9.4414   -1.5869    4.6482 H   0  0  0  0  0  0  0  0  0  0  0  0
    5.6728   -1.5799    5.1628 H   0  0  0  0  0  0  0  0  0  0  0  0
    4.6333   -0.6497    7.1899 H   0  0  0  0  0  0  0  0  0  0  0  0
    6.0536    0.4976    8.9044 H   0  0  0  0  0  0  0  0  0  0  0  0
    8.4831    0.7176    8.5495 H   0  0  0  0  0  0  0  0  0  0  0  0
   11.7020   -0.1714    7.0980 H   0  0  0  0  0  0  0  0  0  0  0  0
   10.4648   -0.2427    8.3733 H   0  0  0  0  0  0  0  0  0  0  0  0
   10.0435    1.8381    5.7265 H   0  0  0  0  0  0  0  0  0  0  0  0
   11.3792    4.3064    8.1063 H   0  0  0  0  0  0  0  0  0  0  0  0
   11.3078    6.7586    7.7220 H   0  0  0  0  0  0  0  0  0  0  0  0
   10.2211    7.6842    5.6667 H   0  0  0  0  0  0  0  0  0  0  0  0
    9.2031    6.1175    4.0186 H   0  0  0  0  0  0  0  0  0  0  0  0
    9.8114   -0.4467    1.6775 H   0  0  0  0  0  0  0  0  0  0  0  0
  1  2  2  0
  2  3  1  0
  2  4  1  0
  3 47  1  0
  4  5  1  0
  4 48  1  0
  4 49  1  0
  5  6  1  0
  5 13  1  0
  6  7  2  0
  6  8  1  0
  8  9  1  0
  8 12  1  0
  8 50  1  1
  9 10  1  0
  9 46  1  0
  9 51  1  6
 10 11  1  0
 10 52  1  0
 10 53  1  0
 11 12  1  0
 11 15  1  0
 11 54  1  1
 12 13  1  0
 12 55  1  1
 13 14  2  0
 15 16  1  0
 15 46  1  0
 15 56  1  1
 16 17  1  0
 16 38  1  0
 16 57  1  1
 17 18  2  0
 17 22  1  0
 18 19  1  0
 18 58  1  0
 19 20  2  0
 19 59  1  0
 20 21  1  0
 20 60  1  0
 21 22  2  0
 21 61  1  0
 22 23  1  0
 23 24  1  0
 24 25  1  0
 24 62  1  0
 24 63  1  0
 25 26  2  0
 25 27  1  0
 27 28  1  0
 27 64  1  0
 28 29  2  0
 28 33  1  0
 29 30  1  0
 29 65  1  0
 30 31  2  0
 30 66  1  0
 31 32  1  0
 31 67  1  0
 32 33  2  0
 32 68  1  0
 33 34  1  0
 34 35  1  6
 34 36  1  0
 34 37  1  0
 38 39  1  0
 38 44  2  0
 39 40  2  0
 40 41  1  0
 40 42  1  0
 42 43  1  0
 42 44  1  0
 44 45  1  0
 45 46  1  0
 46 69  1  6
M  CHG  2  39   1  41  -1
M  END

