
     RDKit          3D

 63 65  0  0  0  0  0  0  0  0999 V2000
    2.4681    2.5867   -1.2442 C   0  0  0  0  0  0  0  0  0  0  0  0
    3.5022    1.6790   -0.5709 C   0  0  1  0  0  0  0  0  0  0  0  0
    4.6098    2.4936    0.1037 C   0  0  0  0  0  0  0  0  0  0  0  0
    2.8744    0.7630    0.3672 O   0  0  0  0  0  0  0  0  0  0  0  0
    2.1873    1.2281    1.4624 C   0  0  0  0  0  0  0  0  0  0  0  0
    2.8441    1.3939    2.6897 C   0  0  0  0  0  0  0  0  0  0  0  0
    2.1339    1.7929    3.8237 C   0  0  0  0  0  0  0  0  0  0  0  0
    0.7580    2.0221    3.7306 C   0  0  0  0  0  0  0  0  0  0  0  0
   -0.1355    2.5210    5.1487 Cl  0  0  0  0  0  0  0  0  0  0  0  0
    0.0883    1.8458    2.5161 C   0  0  0  0  0  0  0  0  0  0  0  0
    0.8047    1.4468    1.3861 C   0  0  0  0  0  0  0  0  0  0  0  0
    4.1500    0.7959   -1.6658 C   0  0  0  0  0  0  0  0  0  0  0  0
    4.7745    1.3151   -2.5800 O   0  0  0  0  0  0  0  0  0  0  0  0
    3.9682   -0.5405   -1.5419 N   0  0  0  0  0  0  0  0  0  0  0  0
    4.5275   -1.4762   -2.4972 C   0  0  0  0  0  0  0  0  0  0  0  0
    6.0163   -1.7960   -2.2381 C   0  0  0  0  0  0  0  0  0  0  0  0
    6.5997   -2.7127   -3.2871 C   0  0  0  0  0  0  0  0  0  0  0  0
    6.9897   -2.2004   -4.5385 C   0  0  0  0  0  0  0  0  0  0  0  0
    7.4925   -3.0358   -5.5345 C   0  0  0  0  0  0  0  0  0  0  0  0
    7.6170   -4.4063   -5.2787 C   0  0  0  0  0  0  0  0  0  0  0  0
    8.2877   -5.4870   -6.5504 S   0  0  1  0  0  0  0  0  0  0  0  0
    7.9188   -6.8558   -6.1697 O   0  0  0  0  0  0  0  0  0  0  0  0
    7.9159   -4.9204   -7.8508 O   0  0  0  0  0  0  0  0  0  0  0  0
    9.9465   -5.3407   -6.4178 N   0  0  0  0  0  0  0  0  0  0  0  0
   10.7256   -4.6700   -7.4626 C   0  0  0  0  0  0  0  0  0  0  0  0
   11.2526   -5.5980   -8.5614 C   0  0  0  0  0  0  0  0  0  0  0  0
   12.0336   -6.8294   -8.0762 C   0  0  0  0  0  0  0  0  0  0  0  0
   11.1814   -7.8570   -7.3068 C   0  0  0  0  0  0  0  0  0  0  0  0
   10.9696   -7.5978   -5.8057 C   0  0  0  0  0  0  0  0  0  0  0  0
   10.6591   -6.1372   -5.4189 C   0  0  0  0  0  0  0  0  0  0  0  0
    7.2217   -4.9445   -4.0519 C   0  0  0  0  0  0  0  0  0  0  0  0
    6.7183   -4.0930   -3.0647 C   0  0  0  0  0  0  0  0  0  0  0  0
    2.0222    3.2858   -0.5211 H   0  0  0  0  0  0  0  0  0  0  0  0
    1.6661    1.9882   -1.7026 H   0  0  0  0  0  0  0  0  0  0  0  0
    2.9630    3.1637   -2.0373 H   0  0  0  0  0  0  0  0  0  0  0  0
    4.1938    3.1931    0.8439 H   0  0  0  0  0  0  0  0  0  0  0  0
    5.1489    3.0664   -0.6632 H   0  0  0  0  0  0  0  0  0  0  0  0
    5.3287    1.8288    0.6067 H   0  0  0  0  0  0  0  0  0  0  0  0
    3.9149    1.1938    2.7534 H   0  0  0  0  0  0  0  0  0  0  0  0
    2.6419    1.9209    4.7810 H   0  0  0  0  0  0  0  0  0  0  0  0
   -0.9883    2.0149    2.4604 H   0  0  0  0  0  0  0  0  0  0  0  0
    0.2910    1.2879    0.4366 H   0  0  0  0  0  0  0  0  0  0  0  0
    3.4611   -0.8613   -0.7247 H   0  0  0  0  0  0  0  0  0  0  0  0
    4.4266   -1.0400   -3.5027 H   0  0  0  0  0  0  0  0  0  0  0  0
    3.9305   -2.4011   -2.4734 H   0  0  0  0  0  0  0  0  0  0  0  0
    6.1204   -2.2471   -1.2378 H   0  0  0  0  0  0  0  0  0  0  0  0
    6.5643   -0.8409   -2.2288 H   0  0  0  0  0  0  0  0  0  0  0  0
    6.8929   -1.1283   -4.7329 H   0  0  0  0  0  0  0  0  0  0  0  0
    7.7734   -2.6358   -6.5104 H   0  0  0  0  0  0  0  0  0  0  0  0
   11.5667   -4.1648   -6.9539 H   0  0  0  0  0  0  0  0  0  0  0  0
   10.1023   -3.8869   -7.9149 H   0  0  0  0  0  0  0  0  0  0  0  0
   11.8900   -4.9936   -9.2314 H   0  0  0  0  0  0  0  0  0  0  0  0
   10.3935   -5.9345   -9.1666 H   0  0  0  0  0  0  0  0  0  0  0  0
   12.9040   -6.5173   -7.4676 H   0  0  0  0  0  0  0  0  0  0  0  0
   12.4591   -7.3244   -8.9653 H   0  0  0  0  0  0  0  0  0  0  0  0
   11.6349   -8.8570   -7.4102 H   0  0  0  0  0  0  0  0  0  0  0  0
   10.1934   -7.9259   -7.7930 H   0  0  0  0  0  0  0  0  0  0  0  0
   11.8687   -7.9011   -5.2397 H   0  0  0  0  0  0  0  0  0  0  0  0
   10.1474   -8.2441   -5.4628 H   0  0  0  0  0  0  0  0  0  0  0  0
   11.5969   -5.5910   -5.2251 H   0  0  0  0  0  0  0  0  0  0  0  0
   10.0992   -6.1133   -4.4698 H   0  0  0  0  0  0  0  0  0  0  0  0
    7.2933   -6.0209   -3.8876 H   0  0  0  0  0  0  0  0  0  0  0  0
    6.4106   -4.5128   -2.1026 H   0  0  0  0  0  0  0  0  0  0  0  0
  1  2  1  0
  1 33  1  0
  1 34  1  0
  1 35  1  0
  2  3  1  0
  2  4  1  1
  2 12  1  0
  3 36  1  0
  3 37  1  0
  3 38  1  0
  4  5  1  0
  5  6  2  0
  5 11  1  0
  6  7  1  0
  6 39  1  0
  7  8  2  0
  7 40  1  0
  8  9  1  0
  8 10  1  0
 10 11  2  0
 10 41  1  0
 11 42  1  0
 12 13  2  0
 12 14  1  0
 14 15  1  0
 14 43  1  0
 15 16  1  0
 15 44  1  0
 15 45  1  0
 16 17  1  0
 16 46  1  0
 16 47  1  0
 17 18  2  0
 17 32  1  0
 18 19  1  0
 18 48  1  0
 19 20  2  0
 19 49  1  0
 21 20  1  1
 20 31  1  0
 21 22  2  0
 21 23  2  0
 21 24  1  0
 24 25  1  0
 24 30  1  0
 25 26  1  0
 25 50  1  0
 25 51  1  0
 26 27  1  0
 26 52  1  0
 26 53  1  0
 27 28  1  0
 27 54  1  0
 27 55  1  0
 28 29  1  0
 28 56  1  0
 28 57  1  0
 29 30  1  0
 29 58  1  0
 29 59  1  0
 30 60  1  0
 30 61  1  0
 31 32  2  0
 31 62  1  0
 32 63  1  0
M  END

