
     RDKit          3D

 30 32  0  0  0  0  0  0  0  0999 V2000
    1.2674    0.5112    0.5417 N   0  0  0  0  0  0  0  0  0  0  0  0
    2.4033    0.3421    0.3651 C   0  0  0  0  0  0  0  0  0  0  0  0
    3.8066    0.1386    0.1472 C   0  0  0  0  0  0  0  0  0  0  0  0
    4.6976    1.2286    0.1795 C   0  0  0  0  0  0  0  0  0  0  0  0
    6.0546    1.0214   -0.0332 C   0  0  0  0  0  0  0  0  0  0  0  0
    6.5783   -0.2681   -0.2846 C   0  0  0  0  0  0  0  0  0  0  0  0
    8.0143   -0.3948   -0.4978 C   0  0  0  0  0  0  0  0  0  0  0  0
    8.7642   -1.4935   -0.7557 C   0  0  0  0  0  0  0  0  0  0  0  0
    8.2265   -2.7594   -0.8611 O   0  0  0  0  0  0  0  0  0  0  0  0
    9.2203   -3.7023   -1.1317 C   0  0  0  0  0  0  0  0  0  0  0  0
    8.9705   -4.8643   -1.2621 O   0  0  0  0  0  0  0  0  0  0  0  0
   10.4927   -2.9519   -1.1975 C   0  0  0  0  0  0  0  0  0  0  0  0
   11.7756   -3.4251   -1.4415 C   0  0  0  0  0  0  0  0  0  0  0  0
   12.8371   -2.4960   -1.4572 C   0  0  0  0  0  0  0  0  0  0  0  0
   14.1363   -2.9062   -1.6516 N   0  0  0  0  0  0  0  0  0  0  0  0
   12.5456   -1.1232   -1.2245 C   0  0  0  0  0  0  0  0  0  0  0  0
   11.2532   -0.6701   -0.9824 C   0  0  0  0  0  0  0  0  0  0  0  0
   10.2050   -1.6005   -0.9677 C   0  0  0  0  0  0  0  0  0  0  0  0
    5.6709   -1.3539   -0.3137 C   0  0  0  0  0  0  0  0  0  0  0  0
    4.3121   -1.1531   -0.1018 C   0  0  0  0  0  0  0  0  0  0  0  0
    4.3163    2.2333    0.3717 H   0  0  0  0  0  0  0  0  0  0  0  0
    6.7351    1.8764   -0.0055 H   0  0  0  0  0  0  0  0  0  0  0  0
    8.5817    0.5378   -0.4426 H   0  0  0  0  0  0  0  0  0  0  0  0
   11.9491   -4.4901   -1.6138 H   0  0  0  0  0  0  0  0  0  0  0  0
   14.2964   -3.8290   -2.0352 H   0  0  0  0  0  0  0  0  0  0  0  0
   14.8295   -2.2132   -1.9025 H   0  0  0  0  0  0  0  0  0  0  0  0
   13.3704   -0.4052   -1.2346 H   0  0  0  0  0  0  0  0  0  0  0  0
   11.0764    0.3940   -0.8100 H   0  0  0  0  0  0  0  0  0  0  0  0
    6.0416   -2.3596   -0.5046 H   0  0  0  0  0  0  0  0  0  0  0  0
    3.6263   -2.0022   -0.1279 H   0  0  0  0  0  0  0  0  0  0  0  0
  1  2  3  0
  2  3  1  0
  3  4  2  0
  3 20  1  0
  4  5  1  0
  4 21  1  0
  5  6  2  0
  5 22  1  0
  6  7  1  0
  6 19  1  0
  7  8  2  0
  7 23  1  0
  8  9  1  0
  8 18  1  0
  9 10  1  0
 10 11  2  0
 10 12  1  0
 12 13  1  0
 12 18  2  0
 13 14  2  0
 13 24  1  0
 14 15  1  0
 14 16  1  0
 15 25  1  0
 15 26  1  0
 16 17  2  0
 16 27  1  0
 17 18  1  0
 17 28  1  0
 19 20  2  0
 19 29  1  0
 20 30  1  0
M  END

