
     RDKit          3D

150159  0  0  0  0  0  0  0  0999 V2000
    4.6688    6.5886   -7.4130 C   0  0  0  0  0  0  0  0  0  0  0  0
    4.2062    5.3922   -6.5802 C   0  0  0  0  0  0  0  0  0  0  0  0
    5.3500    4.4747   -6.1354 C   0  0  0  0  0  0  0  0  0  0  0  0
    4.8873    3.2778   -5.2977 C   0  0  0  0  0  0  0  0  0  0  0  0
    5.9975    2.2864   -4.9125 C   0  0  0  0  0  0  0  0  0  0  0  0
    7.1395    2.8383   -4.0444 C   0  0  0  0  0  0  0  0  0  0  0  0
    6.6935    3.3072   -2.6546 C   0  0  0  0  0  0  0  0  0  0  0  0
    7.8174    3.7600   -1.7059 C   0  0  0  0  0  0  0  0  0  0  0  0
    8.4771    5.0194   -2.0464 N   0  0  0  0  0  0  0  0  0  0  0  0
    9.6493    4.9812   -2.8777 C   0  0  0  0  0  0  0  0  0  0  0  0
   10.0430    3.9592   -3.4145 O   0  0  0  0  0  0  0  0  0  0  0  0
   10.1344    6.3514   -2.8697 C   0  0  0  0  0  0  0  0  0  0  0  0
   11.1638    7.1556   -3.3452 C   0  0  0  0  0  0  0  0  0  0  0  0
   12.2945    6.7457   -4.1847 C   0  0  0  0  0  0  0  0  0  0  0  0
   12.1289    5.6727   -5.0877 C   0  0  0  0  0  0  0  0  0  0  0  0
   13.1842    5.2350   -5.8810 C   0  0  0  0  0  0  0  0  0  0  0  0
   14.4524    5.8461   -5.8221 C   0  0  0  0  0  0  0  0  0  0  0  0
   15.5804    5.3569   -6.6685 C   0  0  0  0  0  0  0  0  0  0  0  0
   16.4003    6.2062   -7.3647 C   0  0  0  0  0  0  0  0  0  0  0  0
   17.6743    5.7549   -8.0043 C   0  0  0  0  0  0  0  0  0  0  0  0
   17.9792    6.1230   -9.3293 C   0  0  0  0  0  0  0  0  0  0  0  0
   19.1745    5.7223   -9.9296 C   0  0  0  0  0  0  0  0  0  0  0  0
   20.1032    4.9634   -9.2104 C   0  0  0  0  0  0  0  0  0  0  0  0
   19.8250    4.6094   -7.8865 C   0  0  0  0  0  0  0  0  0  0  0  0
   18.6236    4.9987   -7.2912 C   0  0  0  0  0  0  0  0  0  0  0  0
   16.0838    7.6563   -7.5497 C   0  0  0  0  0  0  0  0  0  0  0  0
   17.0626    8.6401   -7.3090 C   0  0  0  0  0  0  0  0  0  0  0  0
   16.7801    9.9949   -7.4939 C   0  0  0  0  0  0  0  0  0  0  0  0
   15.5192   10.3958   -7.9473 C   0  0  0  0  0  0  0  0  0  0  0  0
   14.5447    9.4291   -8.2147 C   0  0  0  0  0  0  0  0  0  0  0  0
   14.8234    8.0751   -8.0163 C   0  0  0  0  0  0  0  0  0  0  0  0
   15.7431    3.8699   -6.7017 C   0  0  0  0  0  0  0  0  0  0  0  0
   15.7340    3.1221   -5.5084 C   0  0  0  0  0  0  0  0  0  0  0  0
   15.8667    1.7323   -5.5307 C   0  0  0  0  0  0  0  0  0  0  0  0
   15.9901    1.0568   -6.7489 C   0  0  0  0  0  0  0  0  0  0  0  0
   15.9787    1.7837   -7.9434 C   0  0  0  0  0  0  0  0  0  0  0  0
   15.8580    3.1745   -7.9199 C   0  0  0  0  0  0  0  0  0  0  0  0
   14.6270    6.8872   -4.8902 C   0  0  0  0  0  0  0  0  0  0  0  0
   13.5774    7.3264   -4.0899 C   0  0  0  0  0  0  0  0  0  0  0  0
   10.9563    8.4383   -2.8341 N   0  0  0  0  0  0  0  0  0  0  0  0
   11.6037    9.6979   -3.1969 C   0  0  0  0  0  0  0  0  0  0  0  0
   11.4161   10.1237   -4.6609 C   0  0  0  0  0  0  0  0  0  0  0  0
    9.9616   10.3176   -5.1170 C   0  0  0  0  0  0  0  0  0  0  0  0
    9.1570   11.4147   -4.4012 C   0  0  0  0  0  0  0  0  0  0  0  0
    9.7139   12.8343   -4.5581 C   0  0  0  0  0  0  0  0  0  0  0  0
    8.8263   13.9106   -3.9254 C   0  0  0  0  0  0  0  0  0  0  0  0
    9.3777   15.3332   -4.0624 C   0  0  0  0  0  0  0  0  0  0  0  0
    8.4830   16.4007   -3.4304 C   0  0  0  0  0  0  0  0  0  0  0  0
    9.7976    8.4768   -1.9835 C   0  0  0  0  0  0  0  0  0  0  0  0
    9.4339    9.4930   -1.4104 O   0  0  0  0  0  0  0  0  0  0  0  0
    9.2861    7.1151   -2.0140 C   0  0  0  0  0  0  0  0  0  0  0  0
    8.2761    6.2959   -1.5103 C   0  0  0  0  0  0  0  0  0  0  0  0
    7.2127    6.6753   -0.5733 C   0  0  0  0  0  0  0  0  0  0  0  0
    5.9642    6.0208   -0.4830 C   0  0  0  0  0  0  0  0  0  0  0  0
    4.9881    6.4478    0.4129 C   0  0  0  0  0  0  0  0  0  0  0  0
    5.2135    7.5290    1.2861 C   0  0  0  0  0  0  0  0  0  0  0  0
    4.1506    7.9846    2.2294 C   0  0  0  0  0  0  0  0  0  0  0  0
    4.4042    8.2746    3.5446 C   0  0  0  0  0  0  0  0  0  0  0  0
    3.4109    8.9644    4.4239 C   0  0  0  0  0  0  0  0  0  0  0  0
    3.1331    8.4703    5.7134 C   0  0  0  0  0  0  0  0  0  0  0  0
    2.2209    9.1170    6.5494 C   0  0  0  0  0  0  0  0  0  0  0  0
    1.5829   10.2865    6.1239 C   0  0  0  0  0  0  0  0  0  0  0  0
    1.8658   10.8022    4.8553 C   0  0  0  0  0  0  0  0  0  0  0  0
    2.7675   10.1475    4.0141 C   0  0  0  0  0  0  0  0  0  0  0  0
    5.6935    7.9174    4.2124 C   0  0  0  0  0  0  0  0  0  0  0  0
    6.3861    8.8684    4.9867 C   0  0  0  0  0  0  0  0  0  0  0  0
    7.5833    8.5397    5.6251 C   0  0  0  0  0  0  0  0  0  0  0  0
    8.1030    7.2451    5.5237 C   0  0  0  0  0  0  0  0  0  0  0  0
    7.4141    6.2833    4.7786 C   0  0  0  0  0  0  0  0  0  0  0  0
    6.2238    6.6163    4.1289 C   0  0  0  0  0  0  0  0  0  0  0  0
    2.7849    8.0980    1.6278 C   0  0  0  0  0  0  0  0  0  0  0  0
    2.5947    8.7744    0.4072 C   0  0  0  0  0  0  0  0  0  0  0  0
    1.3273    8.8700   -0.1709 C   0  0  0  0  0  0  0  0  0  0  0  0
    0.2246    8.2725    0.4480 C   0  0  0  0  0  0  0  0  0  0  0  0
    0.4015    7.5794    1.6494 C   0  0  0  0  0  0  0  0  0  0  0  0
    1.6670    7.4945    2.2334 C   0  0  0  0  0  0  0  0  0  0  0  0
    6.4486    8.1974    1.1788 C   0  0  0  0  0  0  0  0  0  0  0  0
    7.4185    7.7924    0.2695 C   0  0  0  0  0  0  0  0  0  0  0  0
    3.8214    7.2249   -7.7151 H   0  0  0  0  0  0  0  0  0  0  0  0
    5.1837    6.2620   -8.3323 H   0  0  0  0  0  0  0  0  0  0  0  0
    5.3748    7.2209   -6.8487 H   0  0  0  0  0  0  0  0  0  0  0  0
    3.4713    4.8020   -7.1581 H   0  0  0  0  0  0  0  0  0  0  0  0
    3.6629    5.7528   -5.6875 H   0  0  0  0  0  0  0  0  0  0  0  0
    6.0861    5.0717   -5.5675 H   0  0  0  0  0  0  0  0  0  0  0  0
    5.8902    4.1065   -7.0282 H   0  0  0  0  0  0  0  0  0  0  0  0
    4.1138    2.7273   -5.8631 H   0  0  0  0  0  0  0  0  0  0  0  0
    4.3750    3.6466   -4.3901 H   0  0  0  0  0  0  0  0  0  0  0  0
    6.4365    1.8741   -5.8388 H   0  0  0  0  0  0  0  0  0  0  0  0
    5.5365    1.4267   -4.3924 H   0  0  0  0  0  0  0  0  0  0  0  0
    7.6507    3.6603   -4.5699 H   0  0  0  0  0  0  0  0  0  0  0  0
    7.9080    2.0567   -3.9271 H   0  0  0  0  0  0  0  0  0  0  0  0
    6.1658    2.4769   -2.1494 H   0  0  0  0  0  0  0  0  0  0  0  0
    5.9522    4.1169   -2.7586 H   0  0  0  0  0  0  0  0  0  0  0  0
    8.6086    2.9944   -1.7032 H   0  0  0  0  0  0  0  0  0  0  0  0
    7.4362    3.8426   -0.6790 H   0  0  0  0  0  0  0  0  0  0  0  0
   11.1667    5.1654   -5.1519 H   0  0  0  0  0  0  0  0  0  0  0  0
   13.0216    4.4012   -6.5675 H   0  0  0  0  0  0  0  0  0  0  0  0
   17.2643    6.7246   -9.8957 H   0  0  0  0  0  0  0  0  0  0  0  0
   19.3836    6.0082  -10.9638 H   0  0  0  0  0  0  0  0  0  0  0  0
   21.0425    4.6556   -9.6771 H   0  0  0  0  0  0  0  0  0  0  0  0
   20.5497    4.0276   -7.3109 H   0  0  0  0  0  0  0  0  0  0  0  0
   18.4166    4.7196   -6.2563 H   0  0  0  0  0  0  0  0  0  0  0  0
   18.0541    8.3354   -6.9654 H   0  0  0  0  0  0  0  0  0  0  0  0
   17.5511   10.7420   -7.2874 H   0  0  0  0  0  0  0  0  0  0  0  0
   15.3003   11.4557   -8.1004 H   0  0  0  0  0  0  0  0  0  0  0  0
   13.5614    9.7301   -8.5857 H   0  0  0  0  0  0  0  0  0  0  0  0
   14.0583    7.3268   -8.2324 H   0  0  0  0  0  0  0  0  0  0  0  0
   15.6269    3.6394   -4.5520 H   0  0  0  0  0  0  0  0  0  0  0  0
   15.8677    1.1735   -4.5912 H   0  0  0  0  0  0  0  0  0  0  0  0
   16.0861   -0.0318   -6.7676 H   0  0  0  0  0  0  0  0  0  0  0  0
   16.0607    1.2644   -8.9018 H   0  0  0  0  0  0  0  0  0  0  0  0
   15.8464    3.7334   -8.8576 H   0  0  0  0  0  0  0  0  0  0  0  0
   15.6092    7.3504   -4.7824 H   0  0  0  0  0  0  0  0  0  0  0  0
   13.7753    8.1070   -3.3569 H   0  0  0  0  0  0  0  0  0  0  0  0
   12.6749    9.6631   -2.9526 H   0  0  0  0  0  0  0  0  0  0  0  0
   11.1564   10.4377   -2.5182 H   0  0  0  0  0  0  0  0  0  0  0  0
   11.9032    9.3870   -5.3204 H   0  0  0  0  0  0  0  0  0  0  0  0
   11.9848   11.0601   -4.7961 H   0  0  0  0  0  0  0  0  0  0  0  0
    9.4231    9.3590   -5.0141 H   0  0  0  0  0  0  0  0  0  0  0  0
    9.9751   10.5325   -6.2009 H   0  0  0  0  0  0  0  0  0  0  0  0
    9.0600   11.1719   -3.3289 H   0  0  0  0  0  0  0  0  0  0  0  0
    8.1272   11.3946   -4.8014 H   0  0  0  0  0  0  0  0  0  0  0  0
    9.8506   13.0598   -5.6331 H   0  0  0  0  0  0  0  0  0  0  0  0
   10.7218   12.8981   -4.1090 H   0  0  0  0  0  0  0  0  0  0  0  0
    8.6803   13.6771   -2.8543 H   0  0  0  0  0  0  0  0  0  0  0  0
    7.8187   13.8656   -4.3798 H   0  0  0  0  0  0  0  0  0  0  0  0
    9.5263   15.5636   -5.1334 H   0  0  0  0  0  0  0  0  0  0  0  0
   10.3834   15.3779   -3.6054 H   0  0  0  0  0  0  0  0  0  0  0  0
    7.4811   16.4085   -3.8919 H   0  0  0  0  0  0  0  0  0  0  0  0
    8.9100   17.4098   -3.5465 H   0  0  0  0  0  0  0  0  0  0  0  0
    8.3450   16.2199   -2.3511 H   0  0  0  0  0  0  0  0  0  0  0  0
    5.7240    5.1920   -1.1435 H   0  0  0  0  0  0  0  0  0  0  0  0
    4.0273    5.9290    0.4377 H   0  0  0  0  0  0  0  0  0  0  0  0
    3.6351    7.5634    6.0586 H   0  0  0  0  0  0  0  0  0  0  0  0
    2.0107    8.7077    7.5411 H   0  0  0  0  0  0  0  0  0  0  0  0
    0.8745   10.7977    6.7809 H   0  0  0  0  0  0  0  0  0  0  0  0
    1.3833   11.7232    4.5180 H   0  0  0  0  0  0  0  0  0  0  0  0
    2.9846   10.5598    3.0269 H   0  0  0  0  0  0  0  0  0  0  0  0
    5.9826    9.8796    5.0793 H   0  0  0  0  0  0  0  0  0  0  0  0
    8.1121    9.2982    6.2083 H   0  0  0  0  0  0  0  0  0  0  0  0
    9.0368    6.9855    6.0289 H   0  0  0  0  0  0  0  0  0  0  0  0
    7.8043    5.2648    4.7045 H   0  0  0  0  0  0  0  0  0  0  0  0
    5.6896    5.8579    3.5531 H   0  0  0  0  0  0  0  0  0  0  0  0
    3.4517    9.2374   -0.0880 H   0  0  0  0  0  0  0  0  0  0  0  0
    1.2009    9.4115   -1.1122 H   0  0  0  0  0  0  0  0  0  0  0  0
   -0.7667    8.3413   -0.0074 H   0  0  0  0  0  0  0  0  0  0  0  0
   -0.4515    7.0984    2.1354 H   0  0  0  0  0  0  0  0  0  0  0  0
    1.7963    6.9497    3.1707 H   0  0  0  0  0  0  0  0  0  0  0  0
    6.6464    9.0635    1.8125 H   0  0  0  0  0  0  0  0  0  0  0  0
    8.3417    8.3655    0.1928 H   0  0  0  0  0  0  0  0  0  0  0  0
  1  2  1  0
  1 79  1  0
  1 80  1  0
  1 81  1  0
  2  3  1  0
  2 82  1  0
  2 83  1  0
  3  4  1  0
  3 84  1  0
  3 85  1  0
  4  5  1  0
  4 86  1  0
  4 87  1  0
  5  6  1  0
  5 88  1  0
  5 89  1  0
  6  7  1  0
  6 90  1  0
  6 91  1  0
  7  8  1  0
  7 92  1  0
  7 93  1  0
  8  9  1  0
  8 94  1  0
  8 95  1  0
  9 10  1  0
  9 52  1  0
 10 11  2  0
 10 12  1  0
 12 13  2  0
 12 51  1  0
 13 14  1  0
 13 40  1  0
 14 15  2  0
 14 39  1  0
 15 16  1  0
 15 96  1  0
 16 17  2  0
 16 97  1  0
 17 18  1  0
 17 38  1  0
 18 19  2  0
 18 32  1  0
 19 20  1  0
 19 26  1  0
 20 21  2  0
 20 25  1  0
 21 22  1  0
 21 98  1  0
 22 23  2  0
 22 99  1  0
 23 24  1  0
 23100  1  0
 24 25  2  0
 24101  1  0
 25102  1  0
 26 27  2  0
 26 31  1  0
 27 28  1  0
 27103  1  0
 28 29  2  0
 28104  1  0
 29 30  1  0
 29105  1  0
 30 31  2  0
 30106  1  0
 31107  1  0
 32 33  2  0
 32 37  1  0
 33 34  1  0
 33108  1  0
 34 35  2  0
 34109  1  0
 35 36  1  0
 35110  1  0
 36 37  2  0
 36111  1  0
 37112  1  0
 38 39  2  0
 38113  1  0
 39114  1  0
 40 41  1  0
 40 49  1  0
 41 42  1  0
 41115  1  0
 41116  1  0
 42 43  1  0
 42117  1  0
 42118  1  0
 43 44  1  0
 43119  1  0
 43120  1  0
 44 45  1  0
 44121  1  0
 44122  1  0
 45 46  1  0
 45123  1  0
 45124  1  0
 46 47  1  0
 46125  1  0
 46126  1  0
 47 48  1  0
 47127  1  0
 47128  1  0
 48129  1  0
 48130  1  0
 48131  1  0
 49 50  2  0
 49 51  1  0
 51 52  2  0
 52 53  1  0
 53 54  2  0
 53 78  1  0
 54 55  1  0
 54132  1  0
 55 56  2  0
 55133  1  0
 56 57  1  0
 56 77  1  0
 57 58  2  0
 57 71  1  0
 58 59  1  0
 58 65  1  0
 59 60  2  0
 59 64  1  0
 60 61  1  0
 60134  1  0
 61 62  2  0
 61135  1  0
 62 63  1  0
 62136  1  0
 63 64  2  0
 63137  1  0
 64138  1  0
 65 66  2  0
 65 70  1  0
 66 67  1  0
 66139  1  0
 67 68  2  0
 67140  1  0
 68 69  1  0
 68141  1  0
 69 70  2  0
 69142  1  0
 70143  1  0
 71 72  2  0
 71 76  1  0
 72 73  1  0
 72144  1  0
 73 74  2  0
 73145  1  0
 74 75  1  0
 74146  1  0
 75 76  2  0
 75147  1  0
 76148  1  0
 77 78  2  0
 77149  1  0
 78150  1  0
M  END

