
     RDKit          3D

 31 33  0  0  0  0  0  0  0  0999 V2000
    1.0732    0.0553   -0.1991 C   0  0  0  0  0  0  0  0  0  0  0  0
    0.1693    1.0474   -0.3677 C   0  0  0  0  0  0  0  0  0  0  0  0
   -1.2767    0.8408   -0.2658 C   0  0  0  0  0  0  0  0  0  0  0  0
   -2.1781    1.9066   -0.4501 C   0  0  0  0  0  0  0  0  0  0  0  0
   -3.5373    1.6239   -0.3358 C   0  0  0  0  0  0  0  0  0  0  0  0
   -3.9956    0.3989   -0.0629 N   0  0  0  0  0  0  0  0  0  0  0  0
   -3.0613   -0.5458    0.0947 C   0  0  0  0  0  0  0  0  0  0  0  0
   -1.7453   -0.3938    0.0096 N   0  0  0  0  0  0  0  0  0  0  0  0
    2.5274    0.1494   -0.2793 C   0  0  0  0  0  0  0  0  0  0  0  0
    3.2203    1.3494   -0.5582 C   0  0  0  0  0  0  0  0  0  0  0  0
    4.6056    1.3824   -0.6230 C   0  0  0  0  0  0  0  0  0  0  0  0
    5.3731    0.2155   -0.4123 C   0  0  0  0  0  0  0  0  0  0  0  0
    6.8274    0.2551   -0.4831 C   0  0  0  0  0  0  0  0  0  0  0  0
    7.7381    1.2582   -0.7359 C   0  0  0  0  0  0  0  0  0  0  0  0
    9.0350    0.6623   -0.6661 C   0  0  0  0  0  0  0  0  0  0  0  0
    8.8270   -0.6574   -0.3756 C   0  0  0  0  0  0  0  0  0  0  0  0
    7.5018   -0.9120   -0.2653 O   0  0  0  0  0  0  0  0  0  0  0  0
    4.6906   -0.9844   -0.1335 C   0  0  0  0  0  0  0  0  0  0  0  0
    3.3010   -1.0111   -0.0700 C   0  0  0  0  0  0  0  0  0  0  0  0
    0.6644   -0.9356    0.0242 H   0  0  0  0  0  0  0  0  0  0  0  0
    0.4875    2.0696   -0.5921 H   0  0  0  0  0  0  0  0  0  0  0  0
   -1.8250    2.9155   -0.6742 H   0  0  0  0  0  0  0  0  0  0  0  0
   -4.2856    2.4147   -0.4690 H   0  0  0  0  0  0  0  0  0  0  0  0
   -3.4237   -1.5570    0.3195 H   0  0  0  0  0  0  0  0  0  0  0  0
    2.6634    2.2732   -0.7280 H   0  0  0  0  0  0  0  0  0  0  0  0
    5.1060    2.3283   -0.8410 H   0  0  0  0  0  0  0  0  0  0  0  0
    7.5100    2.2998   -0.9482 H   0  0  0  0  0  0  0  0  0  0  0  0
    9.9956    1.1514   -0.8120 H   0  0  0  0  0  0  0  0  0  0  0  0
    9.4923   -1.5034   -0.2244 H   0  0  0  0  0  0  0  0  0  0  0  0
    5.2631   -1.8979    0.0333 H   0  0  0  0  0  0  0  0  0  0  0  0
    2.7917   -1.9537    0.1476 H   0  0  0  0  0  0  0  0  0  0  0  0
  1  2  2  0
  1  9  1  0
  1 20  1  0
  2  3  1  0
  2 21  1  0
  3  4  2  0
  3  8  1  0
  4  5  1  0
  4 22  1  0
  5  6  2  0
  5 23  1  0
  6  7  1  0
  7  8  2  0
  7 24  1  0
  9 10  2  0
  9 19  1  0
 10 11  1  0
 10 25  1  0
 11 12  2  0
 11 26  1  0
 12 13  1  0
 12 18  1  0
 13 14  2  0
 13 17  1  0
 14 15  1  0
 14 27  1  0
 15 16  2  0
 15 28  1  0
 16 17  1  0
 16 29  1  0
 18 19  2  0
 18 30  1  0
 19 31  1  0
M  END

