
     RDKit          3D

 47 49  0  0  0  0  0  0  0  0999 V2000
    1.2058    0.2982    0.1191 C   0  0  0  0  0  0  0  0  0  0  0  0
    2.6614   -0.0949   -0.1281 C   0  0  1  0  0  0  0  0  0  0  0  0
    2.9432   -0.1763   -1.6406 C   0  0  0  0  0  0  0  0  0  0  0  0
    2.4389    0.6044   -2.4204 O   0  0  0  0  0  0  0  0  0  0  0  0
    3.8606   -1.1372   -2.0039 N   0  0  0  0  0  0  0  0  0  0  0  0
    4.3368   -1.5113   -3.6164 S   0  0  1  0  0  0  0  0  0  0  0  0
    5.3005   -2.5914   -3.4204 O   0  0  0  0  0  0  0  0  0  0  0  0
    3.1442   -1.6655   -4.4352 O   0  0  0  0  0  0  0  0  0  0  0  0
    5.2120   -0.0383   -4.1460 C   0  0  0  0  0  0  0  0  0  0  0  0
    4.5061    0.9848   -4.7796 C   0  0  0  0  0  0  0  0  0  0  0  0
    5.2220    2.1085   -5.2021 C   0  0  0  0  0  0  0  0  0  0  0  0
    6.5975    2.1952   -4.9876 C   0  0  0  0  0  0  0  0  0  0  0  0
    7.2792    1.1489   -4.3543 C   0  0  0  0  0  0  0  0  0  0  0  0
    8.6443    1.3344   -4.2200 O   0  0  0  0  0  0  0  0  0  0  0  0
    9.3885    0.6169   -3.3301 C   0  0  1  0  0  0  0  0  0  0  0  0
    8.8712    0.6861   -2.0832 F   0  0  0  0  0  0  0  0  0  0  0  0
    9.4439   -0.6952   -3.6605 F   0  0  0  0  0  0  0  0  0  0  0  0
    6.5930    0.0073   -3.9312 C   0  0  0  0  0  0  0  0  0  0  0  0
    3.6956    0.8193    0.6187 C   0  0  0  0  0  0  0  0  0  0  0  0
    4.0196   -0.3805    1.5402 C   0  0  0  0  0  0  0  0  0  0  0  0
    3.1757   -1.2261    0.6886 N   0  0  0  0  0  0  0  0  0  0  0  0
    2.6608   -2.4404    1.0810 C   0  0  0  0  0  0  0  0  0  0  0  0
    3.0229   -2.9558    2.1235 O   0  0  0  0  0  0  0  0  0  0  0  0
    1.6979   -3.1428    0.1223 C   0  0  0  0  0  0  0  0  0  0  0  0
    2.3325   -4.3690   -0.4908 C   0  0  0  0  0  0  0  0  0  0  0  0
    3.0218   -5.3831    0.1336 C   0  0  0  0  0  0  0  0  0  0  0  0
    3.4697   -6.3920   -0.7724 C   0  0  0  0  0  0  0  0  0  0  0  0
    3.1175   -6.1341   -2.0731 C   0  0  0  0  0  0  0  0  0  0  0  0
    2.2347   -4.6540   -2.2072 S   0  0  0  0  0  0  0  0  0  0  0  0
    0.9996    1.2455   -0.3979 H   0  0  0  0  0  0  0  0  0  0  0  0
    1.0232    0.4256    1.1967 H   0  0  0  0  0  0  0  0  0  0  0  0
    0.5021   -0.4520   -0.2707 H   0  0  0  0  0  0  0  0  0  0  0  0
    4.2238   -1.7832   -1.3039 H   0  0  0  0  0  0  0  0  0  0  0  0
    3.4295    0.8985   -4.9219 H   0  0  0  0  0  0  0  0  0  0  0  0
    4.7006    2.9285   -5.7011 H   0  0  0  0  0  0  0  0  0  0  0  0
    7.1682    3.0688   -5.3080 H   0  0  0  0  0  0  0  0  0  0  0  0
   10.4068    1.0349   -3.3366 H   0  0  0  0  0  0  0  0  0  0  0  0
    7.0993   -0.8386   -3.4702 H   0  0  0  0  0  0  0  0  0  0  0  0
    3.2470    1.6964    1.1034 H   0  0  0  0  0  0  0  0  0  0  0  0
    4.5356    1.1436   -0.0103 H   0  0  0  0  0  0  0  0  0  0  0  0
    3.6389   -0.3038    2.5716 H   0  0  0  0  0  0  0  0  0  0  0  0
    5.0727   -0.6998    1.5827 H   0  0  0  0  0  0  0  0  0  0  0  0
    1.3440   -2.4698   -0.6701 H   0  0  0  0  0  0  0  0  0  0  0  0
    0.8179   -3.4317    0.7224 H   0  0  0  0  0  0  0  0  0  0  0  0
    3.2031   -5.3861    1.2088 H   0  0  0  0  0  0  0  0  0  0  0  0
    4.0357   -7.2743   -0.4688 H   0  0  0  0  0  0  0  0  0  0  0  0
    3.3324   -6.7237   -2.9630 H   0  0  0  0  0  0  0  0  0  0  0  0
  1  2  1  0
  1 30  1  0
  1 31  1  0
  1 32  1  0
  2  3  1  6
  2 19  1  0
  2 21  1  0
  3  4  2  0
  3  5  1  0
  6  5  1  1
  5 33  1  0
  6  7  2  0
  6  8  2  0
  6  9  1  0
  9 10  2  0
  9 18  1  0
 10 11  1  0
 10 34  1  0
 11 12  2  0
 11 35  1  0
 12 13  1  0
 12 36  1  0
 13 14  1  0
 13 18  2  0
 14 15  1  0
 15 16  1  0
 15 17  1  0
 15 37  1  1
 18 38  1  0
 19 20  1  0
 19 39  1  0
 19 40  1  0
 20 21  1  0
 20 41  1  0
 20 42  1  0
 21 22  1  0
 22 23  2  0
 22 24  1  0
 24 25  1  0
 24 43  1  0
 24 44  1  0
 25 26  2  0
 25 29  1  0
 26 27  1  0
 26 45  1  0
 27 28  2  0
 27 46  1  0
 28 29  1  0
 28 47  1  0
M  END

