
     RDKit          3D

 38 39  0  0  0  0  0  0  0  0999 V2000
    1.4788    1.4150    1.3843 C   0  0  0  0  0  0  0  0  0  0  0  0
    2.5627    0.6575    0.6827 C   0  0  0  0  0  0  0  0  0  0  0  0
    2.7337    0.4473   -0.6621 C   0  0  0  0  0  0  0  0  0  0  0  0
    3.8321   -0.2824   -1.0366 N   0  0  0  0  0  0  0  0  0  0  0  0
    4.5480   -0.6517   -0.0160 C   0  0  0  0  0  0  0  0  0  0  0  0
    5.7721   -1.5678   -0.1021 C   0  0  1  0  0  0  0  0  0  0  0  0
    6.5588   -1.2329   -1.3799 C   0  0  0  0  0  0  0  0  0  0  0  0
    6.6842   -1.3862    1.1207 C   0  0  0  0  0  0  0  0  0  0  0  0
    5.3630   -2.9899   -0.1100 N   0  0  0  0  0  0  0  0  0  0  0  0
    4.5257   -3.4767   -1.1997 C   0  0  0  0  0  0  0  0  0  0  0  0
    4.3040   -4.9747   -1.1036 C   0  0  0  0  0  0  0  0  0  0  0  0
    3.0969   -5.5490   -1.5266 C   0  0  0  0  0  0  0  0  0  0  0  0
    2.9132   -6.9356   -1.4993 C   0  0  0  0  0  0  0  0  0  0  0  0
    3.9302   -7.7697   -1.0383 C   0  0  0  0  0  0  0  0  0  0  0  0
    5.1370   -7.2137   -0.5861 C   0  0  0  0  0  0  0  0  0  0  0  0
    6.2008   -8.1598   -0.0977 C   0  0  0  0  0  0  0  0  0  0  0  0
    6.1691   -9.3461   -0.2966 O   0  0  0  0  0  0  0  0  0  0  0  0
    7.2216   -7.6137    0.6014 O   0  0  0  0  0  0  0  0  0  0  0  0
    5.3156   -5.8233   -0.6323 C   0  0  0  0  0  0  0  0  0  0  0  0
    3.8804   -0.1088    1.5296 S   0  0  0  0  0  0  0  0  0  0  0  0
    0.7651    1.8119    0.6469 H   0  0  0  0  0  0  0  0  0  0  0  0
    1.8779    2.2666    1.9600 H   0  0  0  0  0  0  0  0  0  0  0  0
    0.9183    0.7769    2.0874 H   0  0  0  0  0  0  0  0  0  0  0  0
    2.0530    0.8273   -1.4277 H   0  0  0  0  0  0  0  0  0  0  0  0
    7.0064   -0.2317   -1.2944 H   0  0  0  0  0  0  0  0  0  0  0  0
    5.9107   -1.2245   -2.2655 H   0  0  0  0  0  0  0  0  0  0  0  0
    7.3638   -1.9703   -1.5199 H   0  0  0  0  0  0  0  0  0  0  0  0
    7.0242   -0.3442    1.2138 H   0  0  0  0  0  0  0  0  0  0  0  0
    7.5628   -2.0397    1.0217 H   0  0  0  0  0  0  0  0  0  0  0  0
    6.1680   -1.6598    2.0563 H   0  0  0  0  0  0  0  0  0  0  0  0
    4.9142   -3.2086    0.7802 H   0  0  0  0  0  0  0  0  0  0  0  0
    5.0399   -3.2625   -2.1518 H   0  0  0  0  0  0  0  0  0  0  0  0
    3.5446   -2.9676   -1.2732 H   0  0  0  0  0  0  0  0  0  0  0  0
    2.2916   -4.9014   -1.8853 H   0  0  0  0  0  0  0  0  0  0  0  0
    1.9669   -7.3649   -1.8378 H   0  0  0  0  0  0  0  0  0  0  0  0
    3.8139   -8.8545   -1.0118 H   0  0  0  0  0  0  0  0  0  0  0  0
    7.0557   -6.6743    0.7613 H   0  0  0  0  0  0  0  0  0  0  0  0
    6.2496   -5.3488   -0.3175 H   0  0  0  0  0  0  0  0  0  0  0  0
  1  2  1  0
  1 21  1  0
  1 22  1  0
  1 23  1  0
  2  3  2  0
  2 20  1  0
  3  4  1  0
  3 24  1  0
  4  5  2  0
  5  6  1  0
  5 20  1  0
  6  7  1  0
  6  8  1  0
  6  9  1  6
  7 25  1  0
  7 26  1  0
  7 27  1  0
  8 28  1  0
  8 29  1  0
  8 30  1  0
  9 10  1  0
  9 31  1  0
 10 11  1  0
 10 32  1  0
 10 33  1  0
 11 12  2  0
 11 19  1  0
 12 13  1  0
 12 34  1  0
 13 14  2  0
 13 35  1  0
 14 15  1  0
 14 36  1  0
 15 16  1  0
 15 19  2  0
 16 17  2  0
 16 18  1  0
 18 37  1  0
 19 38  1  0
M  END

