
     RDKit          3D

 31 33  0  0  0  0  0  0  0  0999 V2000
    2.8984    1.7419   -1.7700 O   0  0  0  0  0  0  0  0  0  0  0  0
    2.5645    0.5922   -1.9203 C   0  0  0  0  0  0  0  0  0  0  0  0
    1.2495    0.2363   -2.1744 N   0  0  0  0  0  0  0  0  0  0  0  0
    0.6404   -1.0088   -2.2964 C   0  0  0  0  0  0  0  0  0  0  0  0
    1.1380   -2.1620   -1.9808 N   0  0  0  0  0  0  0  0  0  0  0  0
    0.2410   -3.1692   -2.2380 C   0  0  0  0  0  0  0  0  0  0  0  0
   -0.9681   -2.7905   -2.7488 C   0  0  0  0  0  0  0  0  0  0  0  0
   -1.0027   -1.0642   -2.9503 S   0  0  0  0  0  0  0  0  0  0  0  0
    3.3684   -0.4848   -1.8900 O   0  0  0  0  0  0  0  0  0  0  0  0
    4.7123   -0.4410   -1.5953 C   0  0  0  0  0  0  0  0  0  0  0  0
    5.2926   -1.6761   -1.2817 C   0  0  0  0  0  0  0  0  0  0  0  0
    6.5822   -1.7960   -1.0064 N   0  0  0  0  0  0  0  0  0  0  0  0
    7.3327   -0.6791   -1.0369 C   0  0  0  0  0  0  0  0  0  0  0  0
    8.7805   -0.8059   -0.7285 C   0  0  0  0  0  0  0  0  0  0  0  0
    9.3361   -2.0596   -0.4169 C   0  0  0  0  0  0  0  0  0  0  0  0
   10.6959   -2.1764   -0.1272 C   0  0  0  0  0  0  0  0  0  0  0  0
   11.5190   -1.0451   -0.1448 C   0  0  0  0  0  0  0  0  0  0  0  0
   10.9736    0.2057   -0.4541 C   0  0  0  0  0  0  0  0  0  0  0  0
    9.6142    0.3265   -0.7440 C   0  0  0  0  0  0  0  0  0  0  0  0
    6.8549    0.5386   -1.3299 N   0  0  0  0  0  0  0  0  0  0  0  0
    5.5598    0.6744   -1.6089 C   0  0  0  0  0  0  0  0  0  0  0  0
    0.6518    1.0517   -2.2558 H   0  0  0  0  0  0  0  0  0  0  0  0
    0.5210   -4.2012   -2.0193 H   0  0  0  0  0  0  0  0  0  0  0  0
   -1.8268   -3.4058   -3.0095 H   0  0  0  0  0  0  0  0  0  0  0  0
    4.6620   -2.5727   -1.2648 H   0  0  0  0  0  0  0  0  0  0  0  0
    8.6829   -2.9332   -0.4070 H   0  0  0  0  0  0  0  0  0  0  0  0
   11.1173   -3.1558    0.1139 H   0  0  0  0  0  0  0  0  0  0  0  0
   12.5843   -1.1381    0.0823 H   0  0  0  0  0  0  0  0  0  0  0  0
   11.6124    1.0926   -0.4689 H   0  0  0  0  0  0  0  0  0  0  0  0
    9.1752    1.2952   -0.9862 H   0  0  0  0  0  0  0  0  0  0  0  0
    5.1848    1.6723   -1.8400 H   0  0  0  0  0  0  0  0  0  0  0  0
  1  2  2  0
  2  3  1  0
  2  9  1  0
  3  4  1  0
  3 22  1  0
  4  5  2  0
  4  8  1  0
  5  6  1  0
  6  7  2  0
  6 23  1  0
  7  8  1  0
  7 24  1  0
  9 10  1  0
 10 11  2  0
 10 21  1  0
 11 12  1  0
 11 25  1  0
 12 13  2  0
 13 14  1  0
 13 20  1  0
 14 15  2  0
 14 19  1  0
 15 16  1  0
 15 26  1  0
 16 17  2  0
 16 27  1  0
 17 18  1  0
 17 28  1  0
 18 19  2  0
 18 29  1  0
 19 30  1  0
 20 21  2  0
 21 31  1  0
M  END

