
     RDKit          3D

 52 55  0  0  0  0  0  0  0  0999 V2000
    4.9989    6.5211    3.9932 C   0  0  0  0  0  0  0  0  0  0  0  0
    4.2176    6.3899    2.6741 C   0  0  1  0  0  0  0  0  0  0  0  0
    2.9167    7.2212    2.7598 C   0  0  0  0  0  0  0  0  0  0  0  0
    5.0912    6.8995    1.5046 C   0  0  0  0  0  0  0  0  0  0  0  0
    3.8771    4.9306    2.4571 C   0  0  0  0  0  0  0  0  0  0  0  0
    4.2063    3.9302    3.2658 N   0  0  0  0  0  0  0  0  0  0  0  0
    3.7442    2.7615    2.7688 N   0  0  0  0  0  0  0  0  0  0  0  0
    3.1204    3.0437    1.6364 C   0  0  0  0  0  0  0  0  0  0  0  0
    2.4393    2.2376    0.6863 C   0  0  0  0  0  0  0  0  0  0  0  0
    1.8852    2.8534   -0.3975 C   0  0  0  0  0  0  0  0  0  0  0  0
    2.0162    4.2917   -0.5393 C   0  0  0  0  0  0  0  0  0  0  0  0
    1.4444    4.9109   -1.6088 N   0  0  0  0  0  0  0  0  0  0  0  0
    1.0185    4.3950   -2.9084 C   0  0  0  0  0  0  0  0  0  0  0  0
    1.0398    5.8560   -3.4439 C   0  0  2  0  0  0  0  0  0  0  0  0
    1.8998    6.1118   -4.6784 C   0  0  0  0  0  0  0  0  0  0  0  0
    2.0322    7.5197   -5.0076 N   0  0  0  0  0  0  0  0  0  0  0  0
    1.0524    8.1908   -5.6918 C   0  0  0  0  0  0  0  0  0  0  0  0
    0.0235    7.6383   -6.0470 O   0  0  0  0  0  0  0  0  0  0  0  0
    1.3344    9.6679   -5.9823 C   0  0  1  0  0  0  0  0  0  0  0  0
    1.5465   10.4969   -4.6754 C   0  0  0  0  0  0  0  0  0  0  0  0
    3.0390   10.7261   -4.6305 C   0  0  0  0  0  0  0  0  0  0  0  0
    3.6347   10.3888   -5.7821 C   0  0  0  0  0  0  0  0  0  0  0  0
    2.6468    9.8739   -6.8024 C   0  0  0  0  0  0  0  0  0  0  0  0
    1.6194    6.2851   -2.0652 C   0  0  0  0  0  0  0  0  0  0  0  0
    2.6559    5.0586    0.3248 N   0  0  0  0  0  0  0  0  0  0  0  0
    3.1779    4.4132    1.3949 N   0  0  0  0  0  0  0  0  0  0  0  0
    5.2549    7.5787    4.1658 H   0  0  0  0  0  0  0  0  0  0  0  0
    5.9275    5.9330    3.9684 H   0  0  0  0  0  0  0  0  0  0  0  0
    4.4074    6.1580    4.8459 H   0  0  0  0  0  0  0  0  0  0  0  0
    3.1603    8.2842    2.9198 H   0  0  0  0  0  0  0  0  0  0  0  0
    2.2927    6.8861    3.6034 H   0  0  0  0  0  0  0  0  0  0  0  0
    2.3260    7.1376    1.8363 H   0  0  0  0  0  0  0  0  0  0  0  0
    5.3423    7.9616    1.6585 H   0  0  0  0  0  0  0  0  0  0  0  0
    4.5667    6.8046    0.5429 H   0  0  0  0  0  0  0  0  0  0  0  0
    6.0343    6.3335    1.4444 H   0  0  0  0  0  0  0  0  0  0  0  0
    2.3769    1.1613    0.8527 H   0  0  0  0  0  0  0  0  0  0  0  0
    1.3402    2.2886   -1.1545 H   0  0  0  0  0  0  0  0  0  0  0  0
    0.0359    3.8931   -2.9072 H   0  0  0  0  0  0  0  0  0  0  0  0
    1.7561    3.7239   -3.3899 H   0  0  0  0  0  0  0  0  0  0  0  0
    0.0310    6.2519   -3.6254 H   0  0  0  0  0  0  0  0  0  0  0  0
    1.4451    5.5970   -5.5402 H   0  0  0  0  0  0  0  0  0  0  0  0
    2.9099    5.6946   -4.5305 H   0  0  0  0  0  0  0  0  0  0  0  0
    2.8626    8.0243   -4.7173 H   0  0  0  0  0  0  0  0  0  0  0  0
    0.4522   10.0094   -6.5376 H   0  0  0  0  0  0  0  0  0  0  0  0
    1.1587    9.9822   -3.7798 H   0  0  0  0  0  0  0  0  0  0  0  0
    1.0085   11.4616   -4.7245 H   0  0  0  0  0  0  0  0  0  0  0  0
    3.5462   11.1650   -3.7670 H   0  0  0  0  0  0  0  0  0  0  0  0
    4.6997   10.5121   -5.9965 H   0  0  0  0  0  0  0  0  0  0  0  0
    2.9816    8.9499   -7.3040 H   0  0  0  0  0  0  0  0  0  0  0  0
    2.5000   10.6176   -7.6073 H   0  0  0  0  0  0  0  0  0  0  0  0
    1.0422    7.0292   -1.4919 H   0  0  0  0  0  0  0  0  0  0  0  0
    2.6777    6.6075   -2.0827 H   0  0  0  0  0  0  0  0  0  0  0  0
  2  1  1  1
  1 27  1  0
  1 28  1  0
  1 29  1  0
  2  3  1  0
  2  4  1  0
  2  5  1  0
  3 30  1  0
  3 31  1  0
  3 32  1  0
  4 33  1  0
  4 34  1  0
  4 35  1  0
  5  6  2  0
  5 26  1  0
  6  7  1  0
  7  8  2  0
  8  9  1  0
  8 26  1  0
  9 10  2  0
  9 36  1  0
 10 11  1  0
 10 37  1  0
 11 12  1  0
 11 25  2  0
 12 13  1  0
 12 24  1  0
 13 14  1  0
 13 38  1  0
 13 39  1  0
 14 15  1  0
 14 24  1  0
 14 40  1  6
 15 16  1  0
 15 41  1  0
 15 42  1  0
 16 17  1  0
 16 43  1  0
 17 18  2  0
 17 19  1  0
 19 20  1  0
 19 23  1  0
 19 44  1  6
 20 21  1  0
 20 45  1  0
 20 46  1  0
 21 22  2  0
 21 47  1  0
 22 23  1  0
 22 48  1  0
 23 49  1  0
 23 50  1  0
 24 51  1  0
 24 52  1  0
 25 26  1  0
M  END

