
     RDKit          3D

 29 30  0  0  0  0  0  0  0  0999 V2000
    4.2758    0.9007    1.6676 C   0  0  0  0  0  0  0  0  0  0  0  0
    3.2809    1.1108    0.5331 C   0  0  1  0  0  0  0  0  0  0  0  0
    2.1948    2.1264    0.8505 C   0  0  0  0  0  0  0  0  0  0  0  0
    3.9761    1.6122   -0.6391 O   0  0  0  0  0  0  0  0  0  0  0  0
    4.5669    0.7092   -1.4460 C   0  0  0  0  0  0  0  0  0  0  0  0
    4.5557   -0.4913   -1.2598 O   0  0  0  0  0  0  0  0  0  0  0  0
    5.1864    1.3160   -2.5142 N   0  0  0  0  0  0  0  0  0  0  0  0
    5.9332    0.5015   -3.4587 C   0  0  0  0  0  0  0  0  0  0  0  0
    5.3633    0.6646   -4.8693 C   0  0  0  0  0  0  0  0  0  0  0  0
    5.2080    2.0880   -5.1446 N   0  0  0  0  0  0  0  0  0  0  0  0
    5.0648    2.7644   -6.3285 C   0  0  0  0  0  0  0  0  0  0  0  0
    4.9014    4.0442   -6.1076 N   0  0  0  0  0  0  0  0  0  0  0  0
    4.9270    4.2373   -4.7491 N   0  0  0  0  0  0  0  0  0  0  0  0
    5.1047    3.0655   -4.1895 C   0  0  0  0  0  0  0  0  0  0  0  0
    5.2324    2.7595   -2.7249 C   0  0  0  0  0  0  0  0  0  0  0  0
    3.7549    0.5340    2.5661 H   0  0  0  0  0  0  0  0  0  0  0  0
    4.7821    1.8456    1.9228 H   0  0  0  0  0  0  0  0  0  0  0  0
    5.0315    0.1539    1.3843 H   0  0  0  0  0  0  0  0  0  0  0  0
    2.8352    0.1427    0.2582 H   0  0  0  0  0  0  0  0  0  0  0  0
    2.6327    3.1082    1.0914 H   0  0  0  0  0  0  0  0  0  0  0  0
    1.6044    1.7906    1.7169 H   0  0  0  0  0  0  0  0  0  0  0  0
    1.5134    2.2521   -0.0044 H   0  0  0  0  0  0  0  0  0  0  0  0
    5.8667   -0.5441   -3.1355 H   0  0  0  0  0  0  0  0  0  0  0  0
    6.9981    0.8025   -3.4518 H   0  0  0  0  0  0  0  0  0  0  0  0
    4.3844    0.1618   -4.9442 H   0  0  0  0  0  0  0  0  0  0  0  0
    6.0379    0.2180   -5.6161 H   0  0  0  0  0  0  0  0  0  0  0  0
    5.0888    2.2797   -7.3038 H   0  0  0  0  0  0  0  0  0  0  0  0
    4.4180    3.2415   -2.1728 H   0  0  0  0  0  0  0  0  0  0  0  0
    6.1805    3.1857   -2.3409 H   0  0  0  0  0  0  0  0  0  0  0  0
  1  2  1  0
  1 16  1  0
  1 17  1  0
  1 18  1  0
  2  3  1  0
  2  4  1  0
  2 19  1  6
  3 20  1  0
  3 21  1  0
  3 22  1  0
  4  5  1  0
  5  6  2  0
  5  7  1  0
  7  8  1  0
  7 15  1  0
  8  9  1  0
  8 23  1  0
  8 24  1  0
  9 10  1  0
  9 25  1  0
  9 26  1  0
 10 11  1  0
 10 14  1  0
 11 12  2  0
 11 27  1  0
 12 13  1  0
 13 14  2  0
 14 15  1  0
 15 28  1  0
 15 29  1  0
M  END

