
     RDKit          3D

 32 31  0  0  0  0  0  0  0  0999 V2000
    1.1132   -0.2550   -0.5184 C   0  0  0  0  0  0  0  0  0  0  0  0
    2.5908   -0.0379   -0.1613 C   0  0  1  0  0  0  0  0  0  0  0  0
    2.7909    0.0890    1.3539 C   0  0  0  0  0  0  0  0  0  0  0  0
    3.4265   -1.1666   -0.7841 C   0  0  0  0  0  0  0  0  0  0  0  0
    5.2185   -0.8914   -0.6427 S   0  0  1  0  0  0  0  0  0  0  0  0
    5.4907    0.4753   -1.0950 O   0  0  0  0  0  0  0  0  0  0  0  0
    5.6727   -1.3637    0.6700 O   0  0  0  0  0  0  0  0  0  0  0  0
    5.8573   -1.9959   -1.7858 N   0  0  0  0  0  0  0  0  0  0  0  0
    5.8775   -1.5704   -3.1954 C   0  0  0  0  0  0  0  0  0  0  0  0
    5.2012   -2.5927   -4.1084 C   0  0  0  0  0  0  0  0  0  0  0  0
    3.8720   -2.8680   -3.7218 O   0  0  0  0  0  0  0  0  0  0  0  0
    6.7960   -2.9905   -1.3058 C   0  0  0  0  0  0  0  0  0  0  0  0
    8.2644   -2.5662   -1.2964 C   0  0  1  0  0  0  0  0  0  0  0  0
    8.4538   -1.4006   -0.6757 F   0  0  0  0  0  0  0  0  0  0  0  0
    8.9976   -3.5034   -0.6735 F   0  0  0  0  0  0  0  0  0  0  0  0
    8.7595   -2.4434   -2.5483 F   0  0  0  0  0  0  0  0  0  0  0  0
    0.4968    0.5679   -0.1237 H   0  0  0  0  0  0  0  0  0  0  0  0
    0.7308   -1.1944   -0.0837 H   0  0  0  0  0  0  0  0  0  0  0  0
    0.9580   -0.2992   -1.6084 H   0  0  0  0  0  0  0  0  0  0  0  0
    2.9262    0.8997   -0.6366 H   0  0  0  0  0  0  0  0  0  0  0  0
    2.4863   -0.8364    1.8721 H   0  0  0  0  0  0  0  0  0  0  0  0
    2.1788    0.9134    1.7522 H   0  0  0  0  0  0  0  0  0  0  0  0
    3.8399    0.2861    1.6168 H   0  0  0  0  0  0  0  0  0  0  0  0
    3.2237   -1.2717   -1.8604 H   0  0  0  0  0  0  0  0  0  0  0  0
    3.2494   -2.1380   -0.2948 H   0  0  0  0  0  0  0  0  0  0  0  0
    6.9074   -1.3754   -3.5351 H   0  0  0  0  0  0  0  0  0  0  0  0
    5.3435   -0.6124   -3.2571 H   0  0  0  0  0  0  0  0  0  0  0  0
    5.8055   -3.5210   -4.1664 H   0  0  0  0  0  0  0  0  0  0  0  0
    5.1636   -2.1798   -5.1290 H   0  0  0  0  0  0  0  0  0  0  0  0
    3.9089   -3.2741   -2.8451 H   0  0  0  0  0  0  0  0  0  0  0  0
    6.7321   -3.9027   -1.9216 H   0  0  0  0  0  0  0  0  0  0  0  0
    6.5388   -3.2565   -0.2726 H   0  0  0  0  0  0  0  0  0  0  0  0
  1  2  1  0
  1 17  1  0
  1 18  1  0
  1 19  1  0
  2  3  1  0
  2  4  1  0
  2 20  1  6
  3 21  1  0
  3 22  1  0
  3 23  1  0
  4  5  1  0
  4 24  1  0
  4 25  1  0
  5  6  2  0
  5  7  2  0
  5  8  1  6
  8  9  1  0
  8 12  1  0
  9 10  1  0
  9 26  1  0
  9 27  1  0
 10 11  1  0
 10 28  1  0
 10 29  1  0
 11 30  1  0
 12 13  1  0
 12 31  1  0
 12 32  1  0
 13 14  1  1
 13 15  1  0
 13 16  1  0
M  END

