
     RDKit          3D

 40 40  0  0  0  0  0  0  0  0999 V2000
    3.3081    6.1480   -0.6704 C   0  0  0  0  0  0  0  0  0  0  0  0
    3.7453    4.8943   -0.5236 C   0  0  0  0  0  0  0  0  0  0  0  0
    4.0502    3.9515   -1.6575 C   0  0  0  0  0  0  0  0  0  0  0  0
    5.4176    3.4635   -1.6243 N   0  0  0  0  0  0  0  0  0  0  0  0
    5.7293    2.1402   -1.4239 C   0  0  0  0  0  0  0  0  0  0  0  0
    4.8387    1.2859   -1.3043 O   0  0  0  0  0  0  0  0  0  0  0  0
    7.1438    1.7828   -1.3624 C   0  0  0  0  0  0  0  0  0  0  0  0
    8.4662    2.9342   -1.5322 S   0  0  0  0  0  0  0  0  0  0  0  0
    9.6634    1.7271   -1.0562 C   0  0  0  0  0  0  0  0  0  0  0  0
   10.9838    2.0594   -1.1246 N   0  0  0  0  0  0  0  0  0  0  0  0
   12.0258    1.0551   -1.2784 C   0  0  0  0  0  0  0  0  0  0  0  0
   11.4007    3.4504   -0.9537 C   0  0  0  0  0  0  0  0  0  0  0  0
   11.4858    3.8998    0.5063 C   0  0  0  0  0  0  0  0  0  0  0  0
    9.0588    0.4906   -0.7945 C   0  0  0  0  0  0  0  0  0  0  0  0
    9.7729   -0.6617   -0.1673 C   0  0  0  0  0  0  0  0  0  0  0  0
   10.6614   -0.5250    0.6660 O   0  0  0  0  0  0  0  0  0  0  0  0
    9.3354   -1.9060   -0.5603 N   0  0  0  0  0  0  0  0  0  0  0  0
    9.9260   -3.1284   -0.0573 C   0  0  0  0  0  0  0  0  0  0  0  0
    7.6251    0.5250   -1.0008 C   0  0  0  0  0  0  0  0  0  0  0  0
    6.7965   -0.5594   -0.8454 N   0  0  0  0  0  0  0  0  0  0  0  0
    3.0914    6.7858    0.1910 H   0  0  0  0  0  0  0  0  0  0  0  0
    3.1399    6.5821   -1.6624 H   0  0  0  0  0  0  0  0  0  0  0  0
    3.9095    4.4876    0.4823 H   0  0  0  0  0  0  0  0  0  0  0  0
    3.8363    4.4429   -2.6241 H   0  0  0  0  0  0  0  0  0  0  0  0
    3.4154    3.0540   -1.5914 H   0  0  0  0  0  0  0  0  0  0  0  0
    6.1622    4.1508   -1.6295 H   0  0  0  0  0  0  0  0  0  0  0  0
   12.3647    0.6330   -0.3198 H   0  0  0  0  0  0  0  0  0  0  0  0
   12.8749    1.5127   -1.8090 H   0  0  0  0  0  0  0  0  0  0  0  0
   11.6487    0.2233   -1.8917 H   0  0  0  0  0  0  0  0  0  0  0  0
   10.7100    4.1048   -1.5134 H   0  0  0  0  0  0  0  0  0  0  0  0
   12.3810    3.5605   -1.4429 H   0  0  0  0  0  0  0  0  0  0  0  0
   10.5014    3.8324    0.9943 H   0  0  0  0  0  0  0  0  0  0  0  0
   11.8273    4.9458    0.5669 H   0  0  0  0  0  0  0  0  0  0  0  0
   12.1914    3.2734    1.0738 H   0  0  0  0  0  0  0  0  0  0  0  0
    8.7028   -1.9577   -1.3515 H   0  0  0  0  0  0  0  0  0  0  0  0
   10.4617   -2.8914    0.8710 H   0  0  0  0  0  0  0  0  0  0  0  0
   10.6506   -3.5664   -0.7677 H   0  0  0  0  0  0  0  0  0  0  0  0
    9.1500   -3.8821    0.1526 H   0  0  0  0  0  0  0  0  0  0  0  0
    7.0687   -1.2411   -0.1459 H   0  0  0  0  0  0  0  0  0  0  0  0
    5.8066   -0.2976   -0.8813 H   0  0  0  0  0  0  0  0  0  0  0  0
  1  2  2  0
  1 21  1  0
  1 22  1  0
  2  3  1  0
  2 23  1  0
  3  4  1  0
  3 24  1  0
  3 25  1  0
  4  5  1  0
  4 26  1  0
  5  6  2  0
  5  7  1  0
  7  8  1  0
  7 19  2  0
  8  9  2  0
  9 10  1  0
  9 14  1  0
 10 11  1  0
 10 12  1  0
 11 27  1  0
 11 28  1  0
 11 29  1  0
 12 13  1  0
 12 30  1  0
 12 31  1  0
 13 32  1  0
 13 33  1  0
 13 34  1  0
 14 15  2  0
 14 19  1  0
 15 16  1  0
 15 17  1  0
 17 18  1  0
 17 35  1  0
 18 36  1  0
 18 37  1  0
 18 38  1  0
 19 20  1  0
 20 39  1  0
 20 40  1  0
M  CHG  2   8   1  16  -1
M  END

