
     RDKit          3D

 32 33  0  0  0  0  0  0  0  0999 V2000
    1.0678    1.5133   -0.2756 C   0  0  0  0  0  0  0  0  0  0  0  0
    2.3984    2.0891    0.1711 C   0  0  0  0  0  0  0  0  0  0  0  0
    3.2874    1.0113    0.4190 O   0  0  0  0  0  0  0  0  0  0  0  0
    4.5817    1.2508    0.7680 C   0  0  0  0  0  0  0  0  0  0  0  0
    5.0700    2.5473    0.9969 C   0  0  0  0  0  0  0  0  0  0  0  0
    6.4103    2.7545    1.3324 C   0  0  0  0  0  0  0  0  0  0  0  0
    7.2795    1.6684    1.4354 C   0  0  0  0  0  0  0  0  0  0  0  0
    6.7941    0.3812    1.2069 C   0  0  0  0  0  0  0  0  0  0  0  0
    5.4493    0.1305    0.8814 C   0  0  0  0  0  0  0  0  0  0  0  0
    5.0341   -1.2803    0.6460 C   0  0  0  0  0  0  0  0  0  0  0  0
    3.7166   -1.7701    0.7800 C   0  0  0  0  0  0  0  0  0  0  0  0
    3.3981   -3.0458    0.5860 N   0  0  0  0  0  0  0  0  0  0  0  0
    4.3773   -3.8973    0.2451 C   0  0  0  0  0  0  0  0  0  0  0  0
    4.0198   -5.1958    0.0249 N   0  0  0  0  0  0  0  0  0  0  0  0
    4.9340   -6.2630   -0.2917 C   0  0  0  0  0  0  0  0  0  0  0  0
    5.7120   -3.4262    0.1348 C   0  0  0  0  0  0  0  0  0  0  0  0
    6.0098   -2.1544    0.3337 N   0  0  0  0  0  0  0  0  0  0  0  0
    0.3583    2.3263   -0.4948 H   0  0  0  0  0  0  0  0  0  0  0  0
    0.6311    0.8762    0.5089 H   0  0  0  0  0  0  0  0  0  0  0  0
    1.1925    0.9044   -1.1840 H   0  0  0  0  0  0  0  0  0  0  0  0
    2.2723    2.6963    1.0874 H   0  0  0  0  0  0  0  0  0  0  0  0
    2.8196    2.7514   -0.6082 H   0  0  0  0  0  0  0  0  0  0  0  0
    4.4053    3.4061    0.9118 H   0  0  0  0  0  0  0  0  0  0  0  0
    6.7676    3.7722    1.5100 H   0  0  0  0  0  0  0  0  0  0  0  0
    8.3303    1.8197    1.6932 H   0  0  0  0  0  0  0  0  0  0  0  0
    7.4592   -0.4809    1.2702 H   0  0  0  0  0  0  0  0  0  0  0  0
    2.9052   -1.1002    1.0644 H   0  0  0  0  0  0  0  0  0  0  0  0
    3.0407   -5.3980    0.1861 H   0  0  0  0  0  0  0  0  0  0  0  0
    5.4843   -6.0738   -1.2315 H   0  0  0  0  0  0  0  0  0  0  0  0
    4.3670   -7.1950   -0.4219 H   0  0  0  0  0  0  0  0  0  0  0  0
    5.6833   -6.4333    0.5049 H   0  0  0  0  0  0  0  0  0  0  0  0
    6.5365   -4.1018   -0.1164 H   0  0  0  0  0  0  0  0  0  0  0  0
  1  2  1  0
  1 18  1  0
  1 19  1  0
  1 20  1  0
  2  3  1  0
  2 21  1  0
  2 22  1  0
  3  4  1  0
  4  5  2  0
  4  9  1  0
  5  6  1  0
  5 23  1  0
  6  7  2  0
  6 24  1  0
  7  8  1  0
  7 25  1  0
  8  9  2  0
  8 26  1  0
  9 10  1  0
 10 11  2  0
 10 17  1  0
 11 12  1  0
 11 27  1  0
 12 13  2  0
 13 14  1  0
 13 16  1  0
 14 15  1  0
 14 28  1  0
 15 29  1  0
 15 30  1  0
 15 31  1  0
 16 17  2  0
 16 32  1  0
M  END

