
     RDKit          3D

 63 66  0  0  0  0  0  0  0  0999 V2000
    7.6823    2.6232   -6.1008 C   0  0  0  0  0  0  0  0  0  0  0  0
    7.5241    1.8173   -4.8357 C   0  0  0  0  0  0  0  0  0  0  0  0
    7.1360    0.4656   -4.8975 C   0  0  0  0  0  0  0  0  0  0  0  0
    6.9818   -0.3010   -3.7445 C   0  0  0  0  0  0  0  0  0  0  0  0
    7.2269    0.2976   -2.5026 C   0  0  0  0  0  0  0  0  0  0  0  0
    6.9476   -0.6189   -0.9869 S   0  0  1  0  0  0  0  0  0  0  0  0
    7.4862    0.1857    0.1152 O   0  0  0  0  0  0  0  0  0  0  0  0
    5.5518   -1.0750   -0.9200 O   0  0  0  0  0  0  0  0  0  0  0  0
    7.8374   -2.0490   -1.1807 N   0  0  0  0  0  0  0  0  0  0  0  0
    7.1334   -3.2985   -0.9366 C   0  0  0  0  0  0  0  0  0  0  0  0
    6.1876   -3.7283   -2.0749 C   0  0  0  0  0  0  0  0  0  0  0  0
    6.4774   -3.5129   -3.2463 O   0  0  0  0  0  0  0  0  0  0  0  0
    5.1001   -4.4136   -1.6446 N   0  0  0  0  0  0  0  0  0  0  0  0
    4.0095   -5.0214   -2.4092 C   0  0  2  0  0  0  0  0  0  0  0  0
    4.3503   -5.5707   -3.8346 C   0  0  0  0  0  0  0  0  0  0  0  0
    3.2317   -4.9623   -4.7103 C   0  0  2  0  0  0  0  0  0  0  0  0
    3.5046   -3.4492   -4.8844 C   0  0  0  0  0  0  0  0  0  0  0  0
    3.1790   -2.8657   -3.4731 C   0  0  0  0  0  0  0  0  0  0  0  0
    2.7714   -4.1148   -2.6648 C   0  0  1  0  0  0  0  0  0  0  0  0
    2.0371   -4.9534   -3.7310 C   0  0  0  0  0  0  0  0  0  0  0  0
    9.2277   -2.0209   -1.5075 C   0  0  0  0  0  0  0  0  0  0  0  0
   10.1333   -1.2355   -0.7804 C   0  0  0  0  0  0  0  0  0  0  0  0
   11.4880   -1.2401   -1.1237 C   0  0  0  0  0  0  0  0  0  0  0  0
   11.9837   -2.0335   -2.1682 C   0  0  0  0  0  0  0  0  0  0  0  0
   13.4674   -2.0347   -2.5134 C   0  0  1  0  0  0  0  0  0  0  0  0
   14.1049   -3.4206   -2.3130 C   0  0  0  0  0  0  0  0  0  0  0  0
   13.7293   -1.5003   -3.9323 C   0  0  0  0  0  0  0  0  0  0  0  0
   11.0613   -2.8204   -2.8803 C   0  0  0  0  0  0  0  0  0  0  0  0
    9.7018   -2.8066   -2.5717 C   0  0  0  0  0  0  0  0  0  0  0  0
    7.6175    1.6337   -2.4055 C   0  0  0  0  0  0  0  0  0  0  0  0
    7.7621    2.3844   -3.5751 C   0  0  0  0  0  0  0  0  0  0  0  0
    6.7422    2.6472   -6.6766 H   0  0  0  0  0  0  0  0  0  0  0  0
    8.4496    2.1822   -6.7589 H   0  0  0  0  0  0  0  0  0  0  0  0
    7.9757    3.6614   -5.8880 H   0  0  0  0  0  0  0  0  0  0  0  0
    6.9525    0.0027   -5.8713 H   0  0  0  0  0  0  0  0  0  0  0  0
    6.6972   -1.3543   -3.8044 H   0  0  0  0  0  0  0  0  0  0  0  0
    6.5929   -3.2552    0.0227 H   0  0  0  0  0  0  0  0  0  0  0  0
    7.9021   -4.0806   -0.8375 H   0  0  0  0  0  0  0  0  0  0  0  0
    4.9438   -4.3867   -0.6436 H   0  0  0  0  0  0  0  0  0  0  0  0
    3.6717   -5.8636   -1.7834 H   0  0  0  0  0  0  0  0  0  0  0  0
    4.3010   -6.6709   -3.8363 H   0  0  0  0  0  0  0  0  0  0  0  0
    5.3495   -5.2708   -4.1681 H   0  0  0  0  0  0  0  0  0  0  0  0
    3.0773   -5.5001   -5.6574 H   0  0  0  0  0  0  0  0  0  0  0  0
    2.8435   -3.0229   -5.6560 H   0  0  0  0  0  0  0  0  0  0  0  0
    4.5434   -3.2542   -5.1858 H   0  0  0  0  0  0  0  0  0  0  0  0
    2.3321   -2.1626   -3.5160 H   0  0  0  0  0  0  0  0  0  0  0  0
    4.0173   -2.3235   -3.0155 H   0  0  0  0  0  0  0  0  0  0  0  0
    2.2097   -3.8901   -1.7450 H   0  0  0  0  0  0  0  0  0  0  0  0
    1.1433   -4.4489   -4.1313 H   0  0  0  0  0  0  0  0  0  0  0  0
    1.7464   -5.9587   -3.3830 H   0  0  0  0  0  0  0  0  0  0  0  0
    9.7708   -0.6262    0.0478 H   0  0  0  0  0  0  0  0  0  0  0  0
   12.1807   -0.6186   -0.5483 H   0  0  0  0  0  0  0  0  0  0  0  0
   13.9574   -1.3426   -1.8066 H   0  0  0  0  0  0  0  0  0  0  0  0
   13.6723   -4.1656   -3.0010 H   0  0  0  0  0  0  0  0  0  0  0  0
   13.9524   -3.7868   -1.2856 H   0  0  0  0  0  0  0  0  0  0  0  0
   15.1900   -3.3834   -2.5045 H   0  0  0  0  0  0  0  0  0  0  0  0
   13.2786   -2.1534   -4.6978 H   0  0  0  0  0  0  0  0  0  0  0  0
   14.8113   -1.4476   -4.1367 H   0  0  0  0  0  0  0  0  0  0  0  0
   13.3074   -0.4917   -4.0642 H   0  0  0  0  0  0  0  0  0  0  0  0
   11.4034   -3.4462   -3.7092 H   0  0  0  0  0  0  0  0  0  0  0  0
    8.9854   -3.3881   -3.1559 H   0  0  0  0  0  0  0  0  0  0  0  0
    7.8056    2.0707   -1.4239 H   0  0  0  0  0  0  0  0  0  0  0  0
    8.0679    3.4317   -3.5035 H   0  0  0  0  0  0  0  0  0  0  0  0
  1  2  1  0
  1 32  1  0
  1 33  1  0
  1 34  1  0
  2  3  2  0
  2 31  1  0
  3  4  1  0
  3 35  1  0
  4  5  2  0
  4 36  1  0
  5  6  1  0
  5 30  1  0
  6  7  2  0
  6  8  2  0
  6  9  1  6
  9 10  1  0
  9 21  1  0
 10 11  1  0
 10 37  1  0
 10 38  1  0
 11 12  2  0
 11 13  1  0
 13 14  1  0
 13 39  1  0
 14 15  1  0
 14 19  1  0
 14 40  1  1
 15 16  1  0
 15 41  1  0
 15 42  1  0
 16 17  1  0
 16 20  1  0
 16 43  1  6
 17 18  1  0
 17 44  1  0
 17 45  1  0
 18 19  1  0
 18 46  1  0
 18 47  1  0
 19 20  1  0
 19 48  1  1
 20 49  1  0
 20 50  1  0
 21 22  2  0
 21 29  1  0
 22 23  1  0
 22 51  1  0
 23 24  2  0
 23 52  1  0
 24 25  1  0
 24 28  1  0
 25 26  1  0
 25 27  1  0
 25 53  1  1
 26 54  1  0
 26 55  1  0
 26 56  1  0
 27 57  1  0
 27 58  1  0
 27 59  1  0
 28 29  2  0
 28 60  1  0
 29 61  1  0
 30 31  2  0
 30 62  1  0
 31 63  1  0
M  END

