
     RDKit          3D

 53 54  0  0  0  0  0  0  0  0999 V2000
    1.1565   -0.0541   -1.2114 C   0  0  0  0  0  0  0  0  0  0  0  0
    2.6413   -0.0647   -0.9382 C   0  0  0  0  0  0  0  0  0  0  0  0
    3.4223    1.0728   -1.1636 C   0  0  0  0  0  0  0  0  0  0  0  0
    4.7977    1.1145   -0.9283 C   0  0  0  0  0  0  0  0  0  0  0  0
    5.4306   -0.0386   -0.4414 C   0  0  0  0  0  0  0  0  0  0  0  0
    6.8087   -0.1200   -0.1651 N   0  0  0  0  0  0  0  0  0  0  0  0
    7.7745    0.8606   -0.3061 C   0  0  0  0  0  0  0  0  0  0  0  0
    7.5602    1.9873   -0.7209 O   0  0  0  0  0  0  0  0  0  0  0  0
    9.0405    0.4348    0.0622 N   0  0  0  0  0  0  0  0  0  0  0  0
   10.1707    1.3358    0.0511 C   0  0  0  0  0  0  0  0  0  0  0  0
   11.3774    0.8064   -0.7015 C   0  0  0  0  0  0  0  0  0  0  0  0
   11.2337    0.0215   -1.8574 C   0  0  0  0  0  0  0  0  0  0  0  0
   12.3496   -0.4214   -2.5631 C   0  0  0  0  0  0  0  0  0  0  0  0
   13.6452   -0.1067   -2.1230 C   0  0  0  0  0  0  0  0  0  0  0  0
   14.8047   -0.6132   -2.9345 C   0  0  0  0  0  0  0  0  0  0  0  0
   14.6942   -1.0129   -4.0635 O   0  0  0  0  0  0  0  0  0  0  0  0
   16.0154   -0.6093   -2.3284 O   0  0  0  0  0  0  0  0  0  0  0  0
   13.7926    0.6870   -0.9749 C   0  0  0  0  0  0  0  0  0  0  0  0
   12.6720    1.1324   -0.2722 C   0  0  0  0  0  0  0  0  0  0  0  0
    4.6763   -1.1997   -0.2028 C   0  0  0  0  0  0  0  0  0  0  0  0
    3.2976   -1.2212   -0.4463 C   0  0  0  0  0  0  0  0  0  0  0  0
    2.5163   -2.3738   -0.2172 N   0  0  0  0  0  0  0  0  0  0  0  0
    2.8929   -3.6117    0.2548 C   0  0  0  0  0  0  0  0  0  0  0  0
    4.0389   -3.8936    0.5618 O   0  0  0  0  0  0  0  0  0  0  0  0
    1.7348   -4.6405    0.3696 C   0  0  1  0  0  0  0  0  0  0  0  0
    1.1143   -4.8882   -1.0231 C   0  0  0  0  0  0  0  0  0  0  0  0
    2.3165   -5.9547    0.9111 C   0  0  0  0  0  0  0  0  0  0  0  0
    0.6586   -4.1144    1.3444 C   0  0  0  0  0  0  0  0  0  0  0  0
    0.8365    0.9291   -1.5841 H   0  0  0  0  0  0  0  0  0  0  0  0
    0.5600   -0.2635   -0.3045 H   0  0  0  0  0  0  0  0  0  0  0  0
    0.8637   -0.7976   -1.9754 H   0  0  0  0  0  0  0  0  0  0  0  0
    2.9323    1.9739   -1.5437 H   0  0  0  0  0  0  0  0  0  0  0  0
    5.3772    2.0144   -1.1161 H   0  0  0  0  0  0  0  0  0  0  0  0
    7.1134   -1.0297    0.1599 H   0  0  0  0  0  0  0  0  0  0  0  0
    9.1626   -0.4715    0.4983 H   0  0  0  0  0  0  0  0  0  0  0  0
   10.4750    1.6106    1.0781 H   0  0  0  0  0  0  0  0  0  0  0  0
    9.8062    2.2614   -0.4244 H   0  0  0  0  0  0  0  0  0  0  0  0
   10.2312   -0.2408   -2.2029 H   0  0  0  0  0  0  0  0  0  0  0  0
   12.2426   -1.0197   -3.4700 H   0  0  0  0  0  0  0  0  0  0  0  0
   15.9237   -0.3930   -1.3904 H   0  0  0  0  0  0  0  0  0  0  0  0
   14.7835    0.9916   -0.6238 H   0  0  0  0  0  0  0  0  0  0  0  0
   12.8065    1.7494    0.6208 H   0  0  0  0  0  0  0  0  0  0  0  0
    5.1488   -2.1042    0.1758 H   0  0  0  0  0  0  0  0  0  0  0  0
    1.5347   -2.2686   -0.4353 H   0  0  0  0  0  0  0  0  0  0  0  0
    1.8743   -5.2317   -1.7423 H   0  0  0  0  0  0  0  0  0  0  0  0
    0.6372   -3.9876   -1.4426 H   0  0  0  0  0  0  0  0  0  0  0  0
    0.3366   -5.6661   -0.9565 H   0  0  0  0  0  0  0  0  0  0  0  0
    3.0965   -6.3483    0.2438 H   0  0  0  0  0  0  0  0  0  0  0  0
    1.5194   -6.7092    1.0039 H   0  0  0  0  0  0  0  0  0  0  0  0
    2.7773   -5.8078    1.8984 H   0  0  0  0  0  0  0  0  0  0  0  0
    0.1683   -3.1961    0.9825 H   0  0  0  0  0  0  0  0  0  0  0  0
    1.0896   -3.8973    2.3345 H   0  0  0  0  0  0  0  0  0  0  0  0
   -0.1307   -4.8716    1.4788 H   0  0  0  0  0  0  0  0  0  0  0  0
  1  2  1  0
  1 29  1  0
  1 30  1  0
  1 31  1  0
  2  3  2  0
  2 21  1  0
  3  4  1  0
  3 32  1  0
  4  5  2  0
  4 33  1  0
  5  6  1  0
  5 20  1  0
  6  7  1  0
  6 34  1  0
  7  8  2  0
  7  9  1  0
  9 10  1  0
  9 35  1  0
 10 11  1  0
 10 36  1  0
 10 37  1  0
 11 12  2  0
 11 19  1  0
 12 13  1  0
 12 38  1  0
 13 14  2  0
 13 39  1  0
 14 15  1  0
 14 18  1  0
 15 16  2  0
 15 17  1  0
 17 40  1  0
 18 19  2  0
 18 41  1  0
 19 42  1  0
 20 21  2  0
 20 43  1  0
 21 22  1  0
 22 23  1  0
 22 44  1  0
 23 24  2  0
 25 23  1  6
 25 26  1  0
 25 27  1  0
 25 28  1  0
 26 45  1  0
 26 46  1  0
 26 47  1  0
 27 48  1  0
 27 49  1  0
 27 50  1  0
 28 51  1  0
 28 52  1  0
 28 53  1  0
M  END

