
     RDKit          3D

 75 79  0  0  0  0  0  0  0  0999 V2000
    1.7442    0.9256   -2.5753 C   0  0  0  0  0  0  0  0  0  0  0  0
    1.5838   -0.4281   -1.8858 C   0  0  0  0  0  0  0  0  0  0  0  0
    2.3422   -0.5534   -0.5599 C   0  0  1  0  0  0  0  0  0  0  0  0
    1.8094    0.6502    0.7456 S   0  0  0  0  0  0  0  0  0  0  0  0
    0.2567   -0.0661    1.2355 C   0  0  0  0  0  0  0  0  0  0  0  0
   -0.1652   -1.1656    0.7246 N   0  0  0  0  0  0  0  0  0  0  0  0
   -1.3769   -1.7141    1.1304 C   0  0  0  0  0  0  0  0  0  0  0  0
   -1.7933   -2.9319    0.5599 C   0  0  0  0  0  0  0  0  0  0  0  0
   -3.0038   -3.5027    0.9405 C   0  0  0  0  0  0  0  0  0  0  0  0
   -3.8239   -2.8764    1.8952 C   0  0  0  0  0  0  0  0  0  0  0  0
   -3.4251   -1.6746    2.4726 C   0  0  0  0  0  0  0  0  0  0  0  0
   -2.2062   -1.0894    2.0967 C   0  0  0  0  0  0  0  0  0  0  0  0
   -1.7317    0.1592    2.6758 C   0  0  0  0  0  0  0  0  0  0  0  0
   -2.2820    0.9115    3.5564 N   0  0  0  0  0  0  0  0  0  0  0  0
   -1.3783    2.0250    3.8129 C   0  0  2  0  0  0  0  0  0  0  0  0
   -2.0403    3.4048    3.6632 C   0  0  0  0  0  0  0  0  0  0  0  0
   -3.2187    3.6072    4.6153 C   0  0  0  0  0  0  0  0  0  0  0  0
   -2.8107    3.7303    6.0837 C   0  0  0  0  0  0  0  0  0  0  0  0
   -1.6697    3.5244    6.4733 O   0  0  0  0  0  0  0  0  0  0  0  0
   -3.8287    4.0673    6.9301 N   0  0  0  0  0  0  0  0  0  0  0  0
   -3.6469    4.2340    8.3595 C   0  0  0  0  0  0  0  0  0  0  0  0
   -3.6634    5.7062    8.8219 C   0  0  0  0  0  0  0  0  0  0  0  0
   -4.9641    6.4198    8.5250 C   0  0  0  0  0  0  0  0  0  0  0  0
   -6.0605    6.3115    9.3977 C   0  0  0  0  0  0  0  0  0  0  0  0
   -7.2789    6.9293    9.1044 C   0  0  0  0  0  0  0  0  0  0  0  0
   -7.4259    7.6697    7.9269 C   0  0  0  0  0  0  0  0  0  0  0  0
   -6.3445    7.7888    7.0497 C   0  0  0  0  0  0  0  0  0  0  0  0
   -5.1263    7.1693    7.3477 C   0  0  0  0  0  0  0  0  0  0  0  0
   -0.1847    1.8365    2.8774 C   0  0  0  0  0  0  0  0  0  0  0  0
    0.7898    2.5231    2.7060 O   0  0  0  0  0  0  0  0  0  0  0  0
   -0.4671    0.6194    2.2099 N   0  0  0  0  0  0  0  0  0  0  0  0
    2.4796   -2.0250   -0.0894 C   0  0  0  0  0  0  0  0  0  0  0  0
    2.2981   -2.9402   -0.8719 O   0  0  0  0  0  0  0  0  0  0  0  0
    2.9201   -2.1768    1.1956 N   0  0  0  0  0  0  0  0  0  0  0  0
    3.1983   -3.3637    1.8912 C   0  0  0  0  0  0  0  0  0  0  0  0
    3.1501   -4.6479    1.3356 C   0  0  0  0  0  0  0  0  0  0  0  0
    3.4553   -5.7659    2.1224 C   0  0  0  0  0  0  0  0  0  0  0  0
    3.8093   -5.6145    3.4608 C   0  0  0  0  0  0  0  0  0  0  0  0
    3.8617   -4.3351    4.0322 C   0  0  0  0  0  0  0  0  0  0  0  0
    3.5581   -3.2149    3.2575 C   0  0  0  0  0  0  0  0  0  0  0  0
    3.5745   -1.9263    3.7089 O   0  0  0  0  0  0  0  0  0  0  0  0
    3.9183   -1.6610    5.0506 C   0  0  0  0  0  0  0  0  0  0  0  0
    1.1952    0.9403   -3.5299 H   0  0  0  0  0  0  0  0  0  0  0  0
    2.8024    1.1444   -2.7994 H   0  0  0  0  0  0  0  0  0  0  0  0
    1.3589    1.7507   -1.9555 H   0  0  0  0  0  0  0  0  0  0  0  0
    1.9621   -1.2348   -2.5324 H   0  0  0  0  0  0  0  0  0  0  0  0
    0.5226   -0.6584   -1.7109 H   0  0  0  0  0  0  0  0  0  0  0  0
    3.3788   -0.1980   -0.7152 H   0  0  0  0  0  0  0  0  0  0  0  0
   -1.1380   -3.4045   -0.1741 H   0  0  0  0  0  0  0  0  0  0  0  0
   -3.3180   -4.4491    0.4931 H   0  0  0  0  0  0  0  0  0  0  0  0
   -4.7719   -3.3349    2.1863 H   0  0  0  0  0  0  0  0  0  0  0  0
   -4.0385   -1.1690    3.2212 H   0  0  0  0  0  0  0  0  0  0  0  0
   -1.0012    1.9667    4.8513 H   0  0  0  0  0  0  0  0  0  0  0  0
   -2.3936    3.5205    2.6255 H   0  0  0  0  0  0  0  0  0  0  0  0
   -1.2662    4.1674    3.8382 H   0  0  0  0  0  0  0  0  0  0  0  0
   -3.9174    2.7586    4.5195 H   0  0  0  0  0  0  0  0  0  0  0  0
   -3.7817    4.5120    4.3282 H   0  0  0  0  0  0  0  0  0  0  0  0
   -4.7391    4.2743    6.5356 H   0  0  0  0  0  0  0  0  0  0  0  0
   -2.6763    3.7816    8.6059 H   0  0  0  0  0  0  0  0  0  0  0  0
   -4.4312    3.6698    8.8933 H   0  0  0  0  0  0  0  0  0  0  0  0
   -2.8239    6.2323    8.3397 H   0  0  0  0  0  0  0  0  0  0  0  0
   -3.4699    5.7187    9.9076 H   0  0  0  0  0  0  0  0  0  0  0  0
   -5.9547    5.7403   10.3252 H   0  0  0  0  0  0  0  0  0  0  0  0
   -8.1164    6.8369    9.8010 H   0  0  0  0  0  0  0  0  0  0  0  0
   -8.3771    8.1568    7.6980 H   0  0  0  0  0  0  0  0  0  0  0  0
   -6.4463    8.3729    6.1311 H   0  0  0  0  0  0  0  0  0  0  0  0
   -4.2812    7.2786    6.6619 H   0  0  0  0  0  0  0  0  0  0  0  0
    2.9984   -1.3349    1.7605 H   0  0  0  0  0  0  0  0  0  0  0  0
    2.8708   -4.7508    0.2897 H   0  0  0  0  0  0  0  0  0  0  0  0
    3.4130   -6.7612    1.6737 H   0  0  0  0  0  0  0  0  0  0  0  0
    4.0478   -6.4865    4.0744 H   0  0  0  0  0  0  0  0  0  0  0  0
    4.1384   -4.2213    5.0806 H   0  0  0  0  0  0  0  0  0  0  0  0
    3.8610   -0.5720    5.1796 H   0  0  0  0  0  0  0  0  0  0  0  0
    4.9445   -1.9979    5.2828 H   0  0  0  0  0  0  0  0  0  0  0  0
    3.2171   -2.1442    5.7543 H   0  0  0  0  0  0  0  0  0  0  0  0
  1  2  1  0
  1 43  1  0
  1 44  1  0
  1 45  1  0
  2  3  1  0
  2 46  1  0
  2 47  1  0
  3  4  1  0
  3 32  1  0
  3 48  1  6
  4  5  1  0
  5  6  2  0
  5 31  1  0
  6  7  1  0
  7  8  2  0
  7 12  1  0
  8  9  1  0
  8 49  1  0
  9 10  2  0
  9 50  1  0
 10 11  1  0
 10 51  1  0
 11 12  2  0
 11 52  1  0
 12 13  1  0
 13 14  2  0
 13 31  1  0
 14 15  1  0
 15 16  1  0
 15 29  1  0
 15 53  1  1
 16 17  1  0
 16 54  1  0
 16 55  1  0
 17 18  1  0
 17 56  1  0
 17 57  1  0
 18 19  2  0
 18 20  1  0
 20 21  1  0
 20 58  1  0
 21 22  1  0
 21 59  1  0
 21 60  1  0
 22 23  1  0
 22 61  1  0
 22 62  1  0
 23 24  2  0
 23 28  1  0
 24 25  1  0
 24 63  1  0
 25 26  2  0
 25 64  1  0
 26 27  1  0
 26 65  1  0
 27 28  2  0
 27 66  1  0
 28 67  1  0
 29 30  2  0
 29 31  1  0
 32 33  2  0
 32 34  1  0
 34 35  1  0
 34 68  1  0
 35 36  2  0
 35 40  1  0
 36 37  1  0
 36 69  1  0
 37 38  2  0
 37 70  1  0
 38 39  1  0
 38 71  1  0
 39 40  2  0
 39 72  1  0
 40 41  1  0
 41 42  1  0
 42 73  1  0
 42 74  1  0
 42 75  1  0
M  END

