
     RDKit          3D

 43 43  0  0  0  0  0  0  0  0999 V2000
    4.1828    0.0171   -1.9035 C   0  0  0  0  0  0  0  0  0  0  0  0
    4.0196    0.6972   -0.5432 C   0  0  0  0  0  0  0  0  0  0  0  0
    4.8739    0.0479    0.5506 C   0  0  0  0  0  0  0  0  0  0  0  0
    4.7416    0.6950    1.9504 C   0  0  2  0  0  0  0  0  0  0  0  0
    5.3324    0.0849    2.6515 H   0  0  0  0  0  0  0  0  0  0  0  0
    3.3570    0.6572    2.4017 N   0  0  0  0  0  0  0  0  0  0  0  0
    5.2894    2.1450    1.9379 C   0  0  0  0  0  0  0  0  0  0  0  0
    4.5005    3.0774    1.8344 O   0  0  0  0  0  0  0  0  0  0  0  0
    6.6465    2.3568    2.0041 N   0  0  0  0  0  0  0  0  0  0  0  0
    7.6808    1.3417    2.1965 C   0  0  0  0  0  0  0  0  0  0  0  0
    8.7732    1.4540    1.1287 C   0  0  0  0  0  0  0  0  0  0  0  0
    9.3712    2.8731    1.0618 C   0  0  2  0  0  0  0  0  0  0  0  0
   10.1973    3.1779    2.2304 N   0  0  0  0  0  0  0  0  0  0  0  0
   11.4679    2.6896    2.3683 C   0  0  0  0  0  0  0  0  0  0  0  0
   11.9736    1.9551    1.5345 O   0  0  0  0  0  0  0  0  0  0  0  0
   12.1902    3.0968    3.6533 C   0  0  0  0  0  0  0  0  0  0  0  0
   13.7087    3.0741    3.5030 C   0  0  0  0  0  0  0  0  0  0  0  0
    8.2427    3.9048    0.9191 C   0  0  0  0  0  0  0  0  0  0  0  0
    7.1484    3.7293    1.9793 C   0  0  0  0  0  0  0  0  0  0  0  0
    3.5495    0.4924   -2.6695 H   0  0  0  0  0  0  0  0  0  0  0  0
    3.9033   -1.0488   -1.8560 H   0  0  0  0  0  0  0  0  0  0  0  0
    5.2264    0.0671   -2.2584 H   0  0  0  0  0  0  0  0  0  0  0  0
    2.9612    0.6527   -0.2365 H   0  0  0  0  0  0  0  0  0  0  0  0
    4.2682    1.7690   -0.6300 H   0  0  0  0  0  0  0  0  0  0  0  0
    5.9335    0.0520    0.2381 H   0  0  0  0  0  0  0  0  0  0  0  0
    4.5791   -1.0100    0.6571 H   0  0  0  0  0  0  0  0  0  0  0  0
    2.8815    1.4734    2.0092 H   0  0  0  0  0  0  0  0  0  0  0  0
    3.3264    0.8069    3.4106 H   0  0  0  0  0  0  0  0  0  0  0  0
    7.2398    0.3397    2.1790 H   0  0  0  0  0  0  0  0  0  0  0  0
    8.1347    1.4739    3.1985 H   0  0  0  0  0  0  0  0  0  0  0  0
    8.3438    1.2081    0.1425 H   0  0  0  0  0  0  0  0  0  0  0  0
    9.5789    0.7307    1.3240 H   0  0  0  0  0  0  0  0  0  0  0  0
   10.0373    2.9200    0.1860 H   0  0  0  0  0  0  0  0  0  0  0  0
    9.8408    3.8104    2.9361 H   0  0  0  0  0  0  0  0  0  0  0  0
   11.8773    2.3800    4.4349 H   0  0  0  0  0  0  0  0  0  0  0  0
   11.8362    4.0869    3.9893 H   0  0  0  0  0  0  0  0  0  0  0  0
   14.0364    2.0983    3.1171 H   0  0  0  0  0  0  0  0  0  0  0  0
   14.2038    3.2594    4.4683 H   0  0  0  0  0  0  0  0  0  0  0  0
   14.0504    3.8406    2.7897 H   0  0  0  0  0  0  0  0  0  0  0  0
    7.7899    3.7862   -0.0784 H   0  0  0  0  0  0  0  0  0  0  0  0
    8.6518    4.9281    0.9669 H   0  0  0  0  0  0  0  0  0  0  0  0
    6.2939    4.3884    1.7849 H   0  0  0  0  0  0  0  0  0  0  0  0
    7.5350    3.9904    2.9858 H   0  0  0  0  0  0  0  0  0  0  0  0
  1  2  1  0
  1 20  1  0
  1 21  1  0
  1 22  1  0
  2  3  1  0
  2 23  1  0
  2 24  1  0
  3  4  1  0
  3 25  1  0
  3 26  1  0
  4  5  1  1
  4  6  1  0
  4  7  1  0
  6 27  1  0
  6 28  1  0
  7  8  2  0
  7  9  1  0
  9 10  1  0
  9 19  1  0
 10 11  1  0
 10 29  1  0
 10 30  1  0
 11 12  1  0
 11 31  1  0
 11 32  1  0
 12 13  1  0
 12 18  1  0
 12 33  1  6
 13 14  1  0
 13 34  1  0
 14 15  2  0
 14 16  1  0
 16 17  1  0
 16 35  1  0
 16 36  1  0
 17 37  1  0
 17 38  1  0
 17 39  1  0
 18 19  1  0
 18 40  1  0
 18 41  1  0
 19 42  1  0
 19 43  1  0
M  END

