
     RDKit          3D

 50 53  0  0  0  0  0  0  0  0999 V2000
    9.1827   -0.7620    1.4716 N   0  0  0  0  0  0  0  0  0  0  0  0
    8.3679    0.1543    0.8810 C   0  0  0  0  0  0  0  0  0  0  0  0
    8.3419    1.3343    1.1361 O   0  0  0  0  0  0  0  0  0  0  0  0
    7.6023   -0.4915   -0.0478 O   0  0  0  0  0  0  0  0  0  0  0  0
    6.6455    0.0940   -0.8433 C   0  0  0  0  0  0  0  0  0  0  0  0
    6.1792    1.4064   -0.7608 C   0  0  0  0  0  0  0  0  0  0  0  0
    5.1700    1.8601   -1.6395 C   0  0  0  0  0  0  0  0  0  0  0  0
    4.5950    1.0450   -2.6104 C   0  0  0  0  0  0  0  0  0  0  0  0
    5.0735   -0.2696   -2.6765 C   0  0  0  0  0  0  0  0  0  0  0  0
    4.7614   -1.3454   -3.4814 N   0  0  0  0  0  0  0  0  0  0  0  0
    4.1237   -1.3420   -4.2668 H   0  0  0  0  0  0  0  0  0  0  0  0
    5.5776   -2.4010   -3.1021 C   0  0  0  0  0  0  0  0  0  0  0  0
    5.4589   -3.7140   -3.7549 C   0  0  0  0  0  0  0  0  0  0  0  0
    4.2051   -4.1878   -4.1727 C   0  0  0  0  0  0  0  0  0  0  0  0
    3.9857   -5.3576   -4.7744 N   0  0  0  0  0  0  0  0  0  0  0  0
    5.0484   -6.1357   -4.9806 C   0  0  0  0  0  0  0  0  0  0  0  0
    6.3517   -5.7934   -4.6119 C   0  0  0  0  0  0  0  0  0  0  0  0
    6.5796   -4.5545   -3.9928 C   0  0  0  0  0  0  0  0  0  0  0  0
    7.7851   -4.1026   -3.6332 O   0  0  0  0  0  0  0  0  0  0  0  0
    8.9478   -4.9050   -3.7913 C   0  0  0  0  0  0  0  0  0  0  0  0
   10.1301   -4.1014   -3.2532 C   0  0  0  0  0  0  0  0  0  0  0  0
   11.3504   -4.8933   -3.3102 N   0  0  0  0  0  0  0  0  0  0  0  0
   12.5468   -4.2318   -3.8257 C   0  0  0  0  0  0  0  0  0  0  0  0
   13.2733   -3.3937   -2.7661 C   0  0  0  0  0  0  0  0  0  0  0  0
   13.5785   -4.2467   -1.6227 N   0  0  0  0  0  0  0  0  0  0  0  0
   12.3791   -4.8327   -1.0364 C   0  0  0  0  0  0  0  0  0  0  0  0
   11.6553   -5.6638   -2.1050 C   0  0  0  0  0  0  0  0  0  0  0  0
    6.3763   -2.0780   -2.1096 N   0  0  0  0  0  0  0  0  0  0  0  0
    6.0893   -0.7631   -1.8200 C   0  0  0  0  0  0  0  0  0  0  0  0
    9.7669   -0.4547    2.2363 H   0  0  0  0  0  0  0  0  0  0  0  0
    9.0976   -1.7453    1.2526 H   0  0  0  0  0  0  0  0  0  0  0  0
    6.6019    2.0778   -0.0190 H   0  0  0  0  0  0  0  0  0  0  0  0
    4.8329    2.8953   -1.5441 H   0  0  0  0  0  0  0  0  0  0  0  0
    3.8147    1.4150   -3.2785 H   0  0  0  0  0  0  0  0  0  0  0  0
    3.3168   -3.5741   -3.9773 H   0  0  0  0  0  0  0  0  0  0  0  0
    4.8652   -7.0986   -5.4725 H   0  0  0  0  0  0  0  0  0  0  0  0
    7.1705   -6.4812   -4.8210 H   0  0  0  0  0  0  0  0  0  0  0  0
    9.1131   -5.1569   -4.8538 H   0  0  0  0  0  0  0  0  0  0  0  0
    8.8342   -5.8518   -3.2330 H   0  0  0  0  0  0  0  0  0  0  0  0
    9.8709   -3.7424   -2.2381 H   0  0  0  0  0  0  0  0  0  0  0  0
   10.2397   -3.1965   -3.8711 H   0  0  0  0  0  0  0  0  0  0  0  0
   12.2755   -3.6106   -4.6937 H   0  0  0  0  0  0  0  0  0  0  0  0
   13.2449   -5.0107   -4.1820 H   0  0  0  0  0  0  0  0  0  0  0  0
   12.6380   -2.5173   -2.4964 H   0  0  0  0  0  0  0  0  0  0  0  0
   14.2131   -2.9965   -3.1848 H   0  0  0  0  0  0  0  0  0  0  0  0
   14.1123   -3.7369   -0.9222 H   0  0  0  0  0  0  0  0  0  0  0  0
   11.6759   -4.0655   -0.6339 H   0  0  0  0  0  0  0  0  0  0  0  0
   12.6652   -5.4823   -0.1923 H   0  0  0  0  0  0  0  0  0  0  0  0
   10.7260   -6.0906   -1.6948 H   0  0  0  0  0  0  0  0  0  0  0  0
   12.3081   -6.5096   -2.3855 H   0  0  0  0  0  0  0  0  0  0  0  0
  1  2  1  0
  1 30  1  0
  1 31  1  0
  2  3  2  0
  2  4  1  0
  4  5  1  0
  5  6  2  0
  5 29  1  0
  6  7  1  0
  6 32  1  0
  7  8  2  0
  7 33  1  0
  8  9  1  0
  8 34  1  0
  9 10  1  0
  9 29  2  0
 10 11  1  0
 10 12  1  0
 12 13  1  0
 12 28  2  0
 13 14  2  0
 13 18  1  0
 14 15  1  0
 14 35  1  0
 15 16  2  0
 16 17  1  0
 16 36  1  0
 17 18  2  0
 17 37  1  0
 18 19  1  0
 19 20  1  0
 20 21  1  0
 20 38  1  0
 20 39  1  0
 21 22  1  0
 21 40  1  0
 21 41  1  0
 22 23  1  0
 22 27  1  0
 23 24  1  0
 23 42  1  0
 23 43  1  0
 24 25  1  0
 24 44  1  0
 24 45  1  0
 25 26  1  0
 25 46  1  0
 26 27  1  0
 26 47  1  0
 26 48  1  0
 27 49  1  0
 27 50  1  0
 28 29  1  0
M  END

