
     RDKit          3D

 36 38  0  0  0  0  0  0  0  0999 V2000
    0.9513    0.0281   -0.0809 C   0  0  0  0  0  0  0  0  0  0  0  0
    2.4540   -0.0378   -0.0734 C   0  0  0  0  0  0  0  0  0  0  0  0
    3.1269   -1.2213   -0.0683 C   0  0  0  0  0  0  0  0  0  0  0  0
    4.5830   -1.3166   -0.0603 C   0  0  0  0  0  0  0  0  0  0  0  0
    5.2655   -0.0187   -0.0572 C   0  0  0  0  0  0  0  0  0  0  0  0
    6.7182   -0.0179   -0.0484 C   0  0  0  0  0  0  0  0  0  0  0  0
    7.4285   -1.1724   -0.0435 C   0  0  0  0  0  0  0  0  0  0  0  0
    6.7718   -2.4688   -0.0467 C   0  0  0  0  0  0  0  0  0  0  0  0
    7.4837   -3.6332   -0.0415 C   0  0  0  0  0  0  0  0  0  0  0  0
    6.8897   -4.8994   -0.0442 N   0  0  0  0  0  0  0  0  0  0  0  0
    7.7372   -6.0751   -0.0381 C   0  0  0  0  0  0  0  0  0  0  0  0
    5.4913   -4.9726   -0.0530 C   0  0  0  0  0  0  0  0  0  0  0  0
    4.8265   -6.3335   -0.0568 C   0  0  0  0  0  0  0  0  0  0  0  0
    4.7402   -3.8365   -0.0583 C   0  0  0  0  0  0  0  0  0  0  0  0
    5.3067   -2.4927   -0.0554 C   0  0  0  0  0  0  0  0  0  0  0  0
    4.5480    1.1424   -0.0627 C   0  0  0  0  0  0  0  0  0  0  0  0
    3.1514    1.1785   -0.0711 N   0  0  0  0  0  0  0  0  0  0  0  0
    2.4648    2.4541   -0.0792 C   0  0  0  0  0  0  0  0  0  0  0  0
    0.5328   -0.9870   -0.0827 H   0  0  0  0  0  0  0  0  0  0  0  0
    0.5614    0.5548   -0.9689 H   0  0  0  0  0  0  0  0  0  0  0  0
    0.5529    0.5552    0.8032 H   0  0  0  0  0  0  0  0  0  0  0  0
    2.5277   -2.1321   -0.0700 H   0  0  0  0  0  0  0  0  0  0  0  0
    7.2377    0.9454   -0.0459 H   0  0  0  0  0  0  0  0  0  0  0  0
    8.5226   -1.1435   -0.0370 H   0  0  0  0  0  0  0  0  0  0  0  0
    8.5748   -3.6302   -0.0349 H   0  0  0  0  0  0  0  0  0  0  0  0
    8.7858   -5.7507   -0.0311 H   0  0  0  0  0  0  0  0  0  0  0  0
    7.5924   -6.7066   -0.9328 H   0  0  0  0  0  0  0  0  0  0  0  0
    7.5804   -6.7058    0.8552 H   0  0  0  0  0  0  0  0  0  0  0  0
    5.5347   -7.1702   -0.0511 H   0  0  0  0  0  0  0  0  0  0  0  0
    4.1893   -6.4518   -0.9477 H   0  0  0  0  0  0  0  0  0  0  0  0
    4.1767   -6.4505    0.8251 H   0  0  0  0  0  0  0  0  0  0  0  0
    3.6564   -3.9624   -0.0653 H   0  0  0  0  0  0  0  0  0  0  0  0
    5.0413    2.1159   -0.0605 H   0  0  0  0  0  0  0  0  0  0  0  0
    3.2117    3.2587   -0.0748 H   0  0  0  0  0  0  0  0  0  0  0  0
    1.8216    2.5927    0.8077 H   0  0  0  0  0  0  0  0  0  0  0  0
    1.8361    2.5892   -0.9770 H   0  0  0  0  0  0  0  0  0  0  0  0
  1  2  1  0
  1 19  1  0
  1 20  1  0
  1 21  1  0
  2  3  2  0
  2 17  1  0
  3  4  1  0
  3 22  1  0
  4  5  1  0
  4 15  2  0
  5  6  1  0
  5 16  2  0
  6  7  2  0
  6 23  1  0
  7  8  1  0
  7 24  1  0
  8  9  2  0
  8 15  1  0
  9 10  1  0
  9 25  1  0
 10 11  1  0
 10 12  1  0
 11 26  1  0
 11 27  1  0
 11 28  1  0
 12 13  1  0
 12 14  2  0
 13 29  1  0
 13 30  1  0
 13 31  1  0
 14 15  1  0
 14 32  1  0
 16 17  1  0
 16 33  1  0
 17 18  1  0
 18 34  1  0
 18 35  1  0
 18 36  1  0
M  END

