
     RDKit          3D

 38 39  0  0  0  0  0  0  0  0999 V2000
    0.7884   -0.6448    2.9144 C   0  0  0  0  0  0  0  0  0  0  0  0
    2.2939   -0.3990    2.8175 C   0  0  0  0  0  0  0  0  0  0  0  0
    2.7350   -0.0485    1.3914 C   0  0  0  0  0  0  0  0  0  0  0  0
    4.1633    0.1848    1.2590 N   0  0  0  0  0  0  0  0  0  0  0  0
    4.7188    1.4592    1.2994 C   0  0  0  0  0  0  0  0  0  0  0  0
    4.1388    2.5190    1.4276 O   0  0  0  0  0  0  0  0  0  0  0  0
    6.1055    1.2787    1.1551 N   0  0  0  0  0  0  0  0  0  0  0  0
    7.0394    2.3653    1.2981 C   0  0  0  0  0  0  0  0  0  0  0  0
    7.8808    2.7026    0.0616 C   0  0  0  0  0  0  0  0  0  0  0  0
    8.9168    3.3237    0.1601 O   0  0  0  0  0  0  0  0  0  0  0  0
    7.3451    2.3027   -1.1458 N   0  0  0  0  0  0  0  0  0  0  0  0
    8.2264    2.2177   -2.6277 S   0  0  1  0  0  0  0  0  0  0  0  0
    8.6030    3.9387   -2.9488 C   0  0  0  0  0  0  0  0  0  0  0  0
    9.4748    1.5034   -2.3995 O   0  0  0  0  0  0  0  0  0  0  0  0
    7.2289    1.7318   -3.5768 O   0  0  0  0  0  0  0  0  0  0  0  0
    6.4006   -0.0851    1.0754 C   0  0  0  0  0  0  0  0  0  0  0  0
    7.6071   -0.7642    0.9387 C   0  0  0  0  0  0  0  0  0  0  0  0
    7.5579   -2.1654    0.8673 C   0  0  0  0  0  0  0  0  0  0  0  0
    6.3387   -2.8503    0.9272 C   0  0  0  0  0  0  0  0  0  0  0  0
    5.1220   -2.1632    1.0614 C   0  0  0  0  0  0  0  0  0  0  0  0
    5.1679   -0.7734    1.1361 C   0  0  0  0  0  0  0  0  0  0  0  0
    0.4904   -0.8858    3.9463 H   0  0  0  0  0  0  0  0  0  0  0  0
    0.4730   -1.4852    2.2732 H   0  0  0  0  0  0  0  0  0  0  0  0
    0.2152    0.2437    2.6017 H   0  0  0  0  0  0  0  0  0  0  0  0
    2.8459   -1.2902    3.1629 H   0  0  0  0  0  0  0  0  0  0  0  0
    2.5867    0.4285    3.4855 H   0  0  0  0  0  0  0  0  0  0  0  0
    2.2356    0.8748    1.0610 H   0  0  0  0  0  0  0  0  0  0  0  0
    2.4493   -0.8496    0.6887 H   0  0  0  0  0  0  0  0  0  0  0  0
    7.7543    2.1849    2.1172 H   0  0  0  0  0  0  0  0  0  0  0  0
    6.4495    3.2603    1.5557 H   0  0  0  0  0  0  0  0  0  0  0  0
    6.4825    1.7619   -1.1729 H   0  0  0  0  0  0  0  0  0  0  0  0
    9.1751    4.3122   -2.0898 H   0  0  0  0  0  0  0  0  0  0  0  0
    7.6606    4.4818   -3.0918 H   0  0  0  0  0  0  0  0  0  0  0  0
    9.2068    3.9441   -3.8666 H   0  0  0  0  0  0  0  0  0  0  0  0
    8.5586   -0.2328    0.8738 H   0  0  0  0  0  0  0  0  0  0  0  0
    8.4888   -2.7259    0.7577 H   0  0  0  0  0  0  0  0  0  0  0  0
    6.3298   -3.9410    0.8668 H   0  0  0  0  0  0  0  0  0  0  0  0
    4.1752   -2.7039    1.1087 H   0  0  0  0  0  0  0  0  0  0  0  0
  1  2  1  0
  1 22  1  0
  1 23  1  0
  1 24  1  0
  2  3  1  0
  2 25  1  0
  2 26  1  0
  3  4  1  0
  3 27  1  0
  3 28  1  0
  4  5  1  0
  4 21  1  0
  5  6  2  0
  5  7  1  0
  7  8  1  0
  7 16  1  0
  8  9  1  0
  8 29  1  0
  8 30  1  0
  9 10  2  0
  9 11  1  0
 12 11  1  1
 11 31  1  0
 12 13  1  0
 12 14  2  0
 12 15  2  0
 13 32  1  0
 13 33  1  0
 13 34  1  0
 16 17  1  0
 16 21  2  0
 17 18  2  0
 17 35  1  0
 18 19  1  0
 18 36  1  0
 19 20  2  0
 19 37  1  0
 20 21  1  0
 20 38  1  0
M  END

