
     RDKit          3D

109116  0  0  0  0  0  0  0  0999 V2000
    8.2025   -3.8377   -0.1866 C   0  0  0  0  0  0  0  0  0  0  0  0
    7.0743   -2.9244    0.2948 C   0  0  0  0  0  0  0  0  0  0  0  0
    7.5779   -1.6936    1.0556 C   0  0  0  0  0  0  0  0  0  0  0  0
    6.4478   -0.7972    1.5291 C   0  0  0  0  0  0  0  0  0  0  0  0
    7.0225    0.3264    2.2195 O   0  0  0  0  0  0  0  0  0  0  0  0
    6.1650    1.2080    2.7603 C   0  0  0  0  0  0  0  0  0  0  0  0
    4.9635    1.1172    2.6535 O   0  0  0  0  0  0  0  0  0  0  0  0
    6.8535    2.2435    3.5908 C   0  0  0  0  0  0  0  0  0  0  0  0
    8.0793    1.9454    4.1492 C   0  0  0  0  0  0  0  0  0  0  0  0
    8.6133    2.7333    5.1847 C   0  0  0  0  0  0  0  0  0  0  0  0
   10.3217    2.5419    5.4695 Cl  0  0  0  0  0  0  0  0  0  0  0  0
    7.8128    3.6736    5.8558 C   0  0  0  0  0  0  0  0  0  0  0  0
    8.1404    4.2533    7.1623 C   0  0  0  0  0  0  0  0  0  0  0  0
    8.9035    3.6054    8.1611 C   0  0  0  0  0  0  0  0  0  0  0  0
    9.1600    1.8786    8.1975 Cl  0  0  0  0  0  0  0  0  0  0  0  0
    9.3779    4.2894    9.2934 C   0  0  0  0  0  0  0  0  0  0  0  0
    8.9425    5.5716    9.5665 C   0  0  0  0  0  0  0  0  0  0  0  0
    7.9340    6.1418    8.7554 C   0  0  0  0  0  0  0  0  0  0  0  0
    7.2624    7.3007    9.2110 C   0  0  0  0  0  0  0  0  0  0  0  0
    6.0854    7.6776    8.5953 C   0  0  0  0  0  0  0  0  0  0  0  0
    5.6216    6.9842    7.4638 C   0  0  0  0  0  0  0  0  0  0  0  0
    3.9442    7.2674    7.0732 Cl  0  0  0  0  0  0  0  0  0  0  0  0
    6.4166    6.0235    6.7984 C   0  0  0  0  0  0  0  0  0  0  0  0
    6.1009    5.4406    5.4907 C   0  0  0  0  0  0  0  0  0  0  0  0
    5.3683    6.1216    4.4987 C   0  0  0  0  0  0  0  0  0  0  0  0
    5.0733    7.4504    4.5356 O   0  0  0  0  0  0  0  0  0  0  0  0
    6.0609    8.4176    4.6223 C   0  0  0  0  0  0  0  0  0  0  0  0
    7.3798    8.2067    4.1975 C   0  0  0  0  0  0  0  0  0  0  0  0
    8.3015    9.2475    4.2687 C   0  0  0  0  0  0  0  0  0  0  0  0
    7.9257   10.5116    4.7547 C   0  0  0  0  0  0  0  0  0  0  0  0
    8.9003   11.4571    4.7854 O   0  0  0  0  0  0  0  0  0  0  0  0
    8.5943   12.7446    5.2700 C   0  0  0  0  0  0  0  0  0  0  0  0
    6.5997   10.7173    5.1648 C   0  0  0  0  0  0  0  0  0  0  0  0
    5.6749    9.6700    5.0984 C   0  0  0  0  0  0  0  0  0  0  0  0
    4.9149    5.4544    3.3503 C   0  0  0  0  0  0  0  0  0  0  0  0
    5.3153    4.1680    3.0489 C   0  0  0  0  0  0  0  0  0  0  0  0
    4.8712    3.7059    1.6863 C   0  0  0  0  0  0  0  0  0  0  0  0
    3.7589    3.8791    1.2558 O   0  0  0  0  0  0  0  0  0  0  0  0
    5.8933    3.2156    0.9589 O   0  0  0  0  0  0  0  0  0  0  0  0
    5.5978    2.7765   -0.3810 C   0  0  0  0  0  0  0  0  0  0  0  0
    5.6718    3.9196   -1.3854 C   0  0  0  0  0  0  0  0  0  0  0  0
    5.4662    3.4441   -2.8274 C   0  0  0  0  0  0  0  0  0  0  0  0
    5.5360    4.5785   -3.8506 C   0  0  0  0  0  0  0  0  0  0  0  0
    6.2450    3.5047    3.9096 C   0  0  0  0  0  0  0  0  0  0  0  0
    6.6757    4.1724    5.1101 C   0  0  0  0  0  0  0  0  0  0  0  0
    7.5348    5.5037    7.5422 C   0  0  0  0  0  0  0  0  0  0  0  0
    7.7299    8.0418   10.4110 C   0  0  0  0  0  0  0  0  0  0  0  0
    7.2362    9.0967   10.7572 O   0  0  0  0  0  0  0  0  0  0  0  0
    8.7820    7.4551   11.1431 N   0  0  0  0  0  0  0  0  0  0  0  0
    9.2809    8.1874   12.2949 C   0  0  0  0  0  0  0  0  0  0  0  0
    8.7726    7.9201   13.5858 C   0  0  0  0  0  0  0  0  0  0  0  0
    7.7473    6.8432   13.9622 C   0  0  1  0  0  0  0  0  0  0  0  0
    6.5041    6.7137   13.0668 C   0  0  0  0  0  0  0  0  0  0  0  0
    8.4231    5.4771   14.1944 C   0  0  0  0  0  0  0  0  0  0  0  0
    9.2912    8.6797   14.6473 C   0  0  0  0  0  0  0  0  0  0  0  0
   10.2665    9.6536   14.4489 C   0  0  0  0  0  0  0  0  0  0  0  0
   10.7501    9.8941   13.1662 C   0  0  0  0  0  0  0  0  0  0  0  0
   10.2682    9.1707   12.0667 C   0  0  0  0  0  0  0  0  0  0  0  0
   10.8234    9.4741   10.6778 C   0  0  1  0  0  0  0  0  0  0  0  0
   10.4830   10.9089   10.2365 C   0  0  0  0  0  0  0  0  0  0  0  0
   12.3339    9.1899   10.5976 C   0  0  0  0  0  0  0  0  0  0  0  0
    9.4493    6.2730   10.7765 C   0  0  0  0  0  0  0  0  0  0  0  0
   10.3872    5.8507   11.4249 O   0  0  0  0  0  0  0  0  0  0  0  0
    7.8084   -4.7115   -0.7288 H   0  0  0  0  0  0  0  0  0  0  0  0
    8.8027   -4.2129    0.6590 H   0  0  0  0  0  0  0  0  0  0  0  0
    8.8877   -3.3044   -0.8663 H   0  0  0  0  0  0  0  0  0  0  0  0
    6.3863   -3.4980    0.9419 H   0  0  0  0  0  0  0  0  0  0  0  0
    6.4698   -2.5976   -0.5707 H   0  0  0  0  0  0  0  0  0  0  0  0
    8.2569   -1.1050    0.4138 H   0  0  0  0  0  0  0  0  0  0  0  0
    8.1739   -2.0099    1.9296 H   0  0  0  0  0  0  0  0  0  0  0  0
    5.7614   -1.3245    2.2119 H   0  0  0  0  0  0  0  0  0  0  0  0
    5.8392   -0.4263    0.6879 H   0  0  0  0  0  0  0  0  0  0  0  0
    8.6380    1.0773    3.8012 H   0  0  0  0  0  0  0  0  0  0  0  0
   10.0498    3.7913    9.9930 H   0  0  0  0  0  0  0  0  0  0  0  0
    5.4912    8.4849    9.0243 H   0  0  0  0  0  0  0  0  0  0  0  0
    7.6874    7.2359    3.8057 H   0  0  0  0  0  0  0  0  0  0  0  0
    9.3332    9.1037    3.9415 H   0  0  0  0  0  0  0  0  0  0  0  0
    9.5206   13.3315    5.2079 H   0  0  0  0  0  0  0  0  0  0  0  0
    8.2575   12.7196    6.3224 H   0  0  0  0  0  0  0  0  0  0  0  0
    7.8168   13.2407    4.6607 H   0  0  0  0  0  0  0  0  0  0  0  0
    6.2712   11.6854    5.5429 H   0  0  0  0  0  0  0  0  0  0  0  0
    4.6429    9.8169    5.4201 H   0  0  0  0  0  0  0  0  0  0  0  0
    4.2957    6.0143    2.6487 H   0  0  0  0  0  0  0  0  0  0  0  0
    4.6035    2.3059   -0.3901 H   0  0  0  0  0  0  0  0  0  0  0  0
    6.3607    2.0135   -0.5976 H   0  0  0  0  0  0  0  0  0  0  0  0
    6.6532    4.4163   -1.2878 H   0  0  0  0  0  0  0  0  0  0  0  0
    4.9042    4.6679   -1.1276 H   0  0  0  0  0  0  0  0  0  0  0  0
    4.4881    2.9362   -2.9075 H   0  0  0  0  0  0  0  0  0  0  0  0
    6.2251    2.6787   -3.0736 H   0  0  0  0  0  0  0  0  0  0  0  0
    4.7660    5.3424   -3.6528 H   0  0  0  0  0  0  0  0  0  0  0  0
    5.3812    4.2065   -4.8757 H   0  0  0  0  0  0  0  0  0  0  0  0
    6.5162    5.0832   -3.8231 H   0  0  0  0  0  0  0  0  0  0  0  0
    7.3680    7.1681   14.9457 H   0  0  0  0  0  0  0  0  0  0  0  0
    6.7095    6.1672   12.1347 H   0  0  0  0  0  0  0  0  0  0  0  0
    6.0859    7.6963   12.8046 H   0  0  0  0  0  0  0  0  0  0  0  0
    5.7276    6.1441   13.6025 H   0  0  0  0  0  0  0  0  0  0  0  0
    8.8786    5.0829   13.2747 H   0  0  0  0  0  0  0  0  0  0  0  0
    7.6855    4.7431   14.5594 H   0  0  0  0  0  0  0  0  0  0  0  0
    9.2252    5.5556   14.9446 H   0  0  0  0  0  0  0  0  0  0  0  0
    8.9122    8.4953   15.6563 H   0  0  0  0  0  0  0  0  0  0  0  0
   10.6472   10.2282   15.2972 H   0  0  0  0  0  0  0  0  0  0  0  0
   11.5138   10.6601   13.0128 H   0  0  0  0  0  0  0  0  0  0  0  0
   10.3377    8.7985    9.9594 H   0  0  0  0  0  0  0  0  0  0  0  0
   10.9673   11.6576   10.8846 H   0  0  0  0  0  0  0  0  0  0  0  0
    9.3966   11.0821   10.2717 H   0  0  0  0  0  0  0  0  0  0  0  0
   10.8297   11.0881    9.2053 H   0  0  0  0  0  0  0  0  0  0  0  0
   12.9089    9.8550   11.2623 H   0  0  0  0  0  0  0  0  0  0  0  0
   12.7025    9.3488    9.5708 H   0  0  0  0  0  0  0  0  0  0  0  0
   12.5548    8.1508   10.8860 H   0  0  0  0  0  0  0  0  0  0  0  0
  1  2  1  0
  1 64  1  0
  1 65  1  0
  1 66  1  0
  2  3  1  0
  2 67  1  0
  2 68  1  0
  3  4  1  0
  3 69  1  0
  3 70  1  0
  4  5  1  0
  4 71  1  0
  4 72  1  0
  5  6  1  0
  6  7  2  0
  6  8  1  0
  8  9  2  0
  8 44  1  0
  9 10  1  0
  9 73  1  0
 10 11  1  0
 10 12  2  0
 12 13  1  0
 12 45  1  0
 13 14  2  0
 13 46  1  0
 14 15  1  0
 14 16  1  0
 16 17  2  0
 16 74  1  0
 17 18  1  0
 17 62  1  0
 18 19  1  0
 18 46  2  0
 19 20  2  0
 19 47  1  0
 20 21  1  0
 20 75  1  0
 21 22  1  0
 21 23  2  0
 23 24  1  0
 23 46  1  0
 24 25  1  0
 24 45  2  0
 25 26  1  0
 25 35  2  0
 26 27  1  0
 27 28  2  0
 27 34  1  0
 28 29  1  0
 28 76  1  0
 29 30  2  0
 29 77  1  0
 30 31  1  0
 30 33  1  0
 31 32  1  0
 32 78  1  0
 32 79  1  0
 32 80  1  0
 33 34  2  0
 33 81  1  0
 34 82  1  0
 35 36  1  0
 35 83  1  0
 36 37  1  0
 36 44  2  0
 37 38  2  0
 37 39  1  0
 39 40  1  0
 40 41  1  0
 40 84  1  0
 40 85  1  0
 41 42  1  0
 41 86  1  0
 41 87  1  0
 42 43  1  0
 42 88  1  0
 42 89  1  0
 43 90  1  0
 43 91  1  0
 43 92  1  0
 44 45  1  0
 47 48  2  0
 47 49  1  0
 49 50  1  0
 49 62  1  0
 50 51  2  0
 50 58  1  0
 51 52  1  0
 51 55  1  0
 52 53  1  0
 52 54  1  0
 52 93  1  1
 53 94  1  0
 53 95  1  0
 53 96  1  0
 54 97  1  0
 54 98  1  0
 54 99  1  0
 55 56  2  0
 55100  1  0
 56 57  1  0
 56101  1  0
 57 58  2  0
 57102  1  0
 58 59  1  0
 59 60  1  0
 59 61  1  0
 59103  1  6
 60104  1  0
 60105  1  0
 60106  1  0
 61107  1  0
 61108  1  0
 61109  1  0
 62 63  2  0
M  END

