
     RDKit          3D

 31 32  0  0  0  0  0  0  0  0999 V2000
    2.1911    1.0507    0.7686 C   0  0  0  0  0  0  0  0  0  0  0  0
    2.2616   -0.1003   -0.0411 O   0  0  0  0  0  0  0  0  0  0  0  0
    2.9658   -0.0550   -1.1997 C   0  0  0  0  0  0  0  0  0  0  0  0
    3.6569    1.0739   -1.6656 C   0  0  0  0  0  0  0  0  0  0  0  0
    4.3595    0.9932   -2.8722 C   0  0  0  0  0  0  0  0  0  0  0  0
    4.3940   -0.1735   -3.6439 C   0  0  0  0  0  0  0  0  0  0  0  0
    5.2351   -0.3034   -4.9023 C   0  0  1  0  0  0  0  0  0  0  0  0
    4.1787   -0.7218   -6.4043 S   0  0  0  0  0  0  0  0  0  0  0  0
    6.2025    0.8390   -5.1581 C   0  0  0  0  0  0  0  0  0  0  0  0
    7.5101    0.7423   -4.6565 C   0  0  0  0  0  0  0  0  0  0  0  0
    8.4256    1.7832   -4.8327 C   0  0  0  0  0  0  0  0  0  0  0  0
    8.0460    2.9421   -5.5155 C   0  0  0  0  0  0  0  0  0  0  0  0
    6.7472    3.0484   -6.0221 C   0  0  0  0  0  0  0  0  0  0  0  0
    5.8350    2.0045   -5.8464 C   0  0  0  0  0  0  0  0  0  0  0  0
    3.6654   -1.2983   -3.1674 C   0  0  0  0  0  0  0  0  0  0  0  0
    3.6348   -2.4695   -3.8490 O   0  0  0  0  0  0  0  0  0  0  0  0
    2.9701   -1.2331   -1.9607 C   0  0  0  0  0  0  0  0  0  0  0  0
    1.5711    0.7862    1.6359 H   0  0  0  0  0  0  0  0  0  0  0  0
    1.7212    1.8994    0.2392 H   0  0  0  0  0  0  0  0  0  0  0  0
    3.1883    1.3656    1.1259 H   0  0  0  0  0  0  0  0  0  0  0  0
    3.6710    2.0059   -1.1018 H   0  0  0  0  0  0  0  0  0  0  0  0
    4.9165    1.8686   -3.2099 H   0  0  0  0  0  0  0  0  0  0  0  0
    5.8291   -1.2277   -4.8084 H   0  0  0  0  0  0  0  0  0  0  0  0
    3.1312    0.0765   -6.0930 H   0  0  0  0  0  0  0  0  0  0  0  0
    7.8142   -0.1607   -4.1191 H   0  0  0  0  0  0  0  0  0  0  0  0
    9.4404    1.6855   -4.4387 H   0  0  0  0  0  0  0  0  0  0  0  0
    8.7612    3.7561   -5.6584 H   0  0  0  0  0  0  0  0  0  0  0  0
    6.4426    3.9473   -6.5644 H   0  0  0  0  0  0  0  0  0  0  0  0
    4.8300    2.0899   -6.2652 H   0  0  0  0  0  0  0  0  0  0  0  0
    3.7401   -2.2845   -4.8037 H   0  0  0  0  0  0  0  0  0  0  0  0
    2.4174   -2.1061   -1.6120 H   0  0  0  0  0  0  0  0  0  0  0  0
  1  2  1  0
  1 18  1  0
  1 19  1  0
  1 20  1  0
  2  3  1  0
  3  4  2  0
  3 17  1  0
  4  5  1  0
  4 21  1  0
  5  6  2  0
  5 22  1  0
  6  7  1  0
  6 15  1  0
  7  8  1  0
  7  9  1  0
  7 23  1  1
  8 24  1  0
  9 10  2  0
  9 14  1  0
 10 11  1  0
 10 25  1  0
 11 12  2  0
 11 26  1  0
 12 13  1  0
 12 27  1  0
 13 14  2  0
 13 28  1  0
 14 29  1  0
 15 16  1  0
 15 17  2  0
 16 30  1  0
 17 31  1  0
M  END

