
     RDKit          3D

 36 38  0  0  0  0  0  0  0  0999 V2000
    2.7388   -1.7913    2.0512 O   0  0  0  0  0  0  0  0  0  0  0  0
    2.2965   -1.0402    1.2005 C   0  0  0  0  0  0  0  0  0  0  0  0
    0.8282   -0.5836    1.2840 C   0  0  0  0  0  0  0  0  0  0  0  0
    0.3604    0.2940    0.2336 N   0  0  0  0  0  0  0  0  0  0  0  0
   -0.1452   -0.1142   -0.9833 C   0  0  0  0  0  0  0  0  0  0  0  0
   -0.3679    1.0064   -1.7600 C   0  0  0  0  0  0  0  0  0  0  0  0
    0.0200    2.1403   -0.9862 C   0  0  0  0  0  0  0  0  0  0  0  0
    0.4650    1.6698    0.2341 C   0  0  0  0  0  0  0  0  0  0  0  0
    3.0134   -0.5559    0.1494 N   0  0  0  0  0  0  0  0  0  0  0  0
    4.4125   -0.8826   -0.0702 C   0  0  2  0  0  0  0  0  0  0  0  0
    5.3170    0.3563   -0.0112 C   0  0  0  0  0  0  0  0  0  0  0  0
    6.7900   -0.0542   -0.0822 C   0  0  0  0  0  0  0  0  0  0  0  0
    7.0859   -1.0027   -1.2248 C   0  0  0  0  0  0  0  0  0  0  0  0
    8.3297   -1.0949   -1.6146 N   0  0  0  0  0  0  0  0  0  0  0  0
    8.6259   -1.9718   -2.5692 N   0  0  0  0  0  0  0  0  0  0  0  0
    9.6057   -2.0082   -2.8448 H   0  0  0  0  0  0  0  0  0  0  0  0
    7.7672   -2.8629   -3.2311 C   0  0  0  0  0  0  0  0  0  0  0  0
    8.1910   -3.6296   -4.0797 O   0  0  0  0  0  0  0  0  0  0  0  0
    6.3904   -2.7199   -2.7795 C   0  0  0  0  0  0  0  0  0  0  0  0
    6.0412   -1.8149   -1.8176 C   0  0  0  0  0  0  0  0  0  0  0  0
    4.5953   -1.6102   -1.4126 C   0  0  0  0  0  0  0  0  0  0  0  0
    0.7016   -0.0947    2.2618 H   0  0  0  0  0  0  0  0  0  0  0  0
    0.2133   -1.4958    1.3098 H   0  0  0  0  0  0  0  0  0  0  0  0
   -0.3104   -1.1698   -1.1906 H   0  0  0  0  0  0  0  0  0  0  0  0
   -0.7799    1.0119   -2.7675 H   0  0  0  0  0  0  0  0  0  0  0  0
   -0.0363    3.1858   -1.2841 H   0  0  0  0  0  0  0  0  0  0  0  0
    0.8411    2.1982    1.1081 H   0  0  0  0  0  0  0  0  0  0  0  0
    2.5526    0.0721   -0.5021 H   0  0  0  0  0  0  0  0  0  0  0  0
    4.6832   -1.5597    0.7553 H   0  0  0  0  0  0  0  0  0  0  0  0
    5.1236    0.9116    0.9194 H   0  0  0  0  0  0  0  0  0  0  0  0
    5.0653    1.0339   -0.8483 H   0  0  0  0  0  0  0  0  0  0  0  0
    7.0637   -0.5578    0.8634 H   0  0  0  0  0  0  0  0  0  0  0  0
    7.4523    0.8204   -0.1636 H   0  0  0  0  0  0  0  0  0  0  0  0
    5.6535   -3.3660   -3.2627 H   0  0  0  0  0  0  0  0  0  0  0  0
    4.0673   -2.5765   -1.3980 H   0  0  0  0  0  0  0  0  0  0  0  0
    4.1069   -1.0067   -2.2015 H   0  0  0  0  0  0  0  0  0  0  0  0
  1  2  2  0
  2  3  1  0
  2  9  1  0
  3  4  1  0
  3 22  1  0
  3 23  1  0
  4  5  1  0
  4  8  1  0
  5  6  2  0
  5 24  1  0
  6  7  1  0
  6 25  1  0
  7  8  2  0
  7 26  1  0
  8 27  1  0
  9 10  1  0
  9 28  1  0
 10 11  1  0
 10 21  1  0
 10 29  1  1
 11 12  1  0
 11 30  1  0
 11 31  1  0
 12 13  1  0
 12 32  1  0
 12 33  1  0
 13 14  2  0
 13 20  1  0
 14 15  1  0
 15 16  1  0
 15 17  1  0
 17 18  2  0
 17 19  1  0
 19 20  2  0
 19 34  1  0
 20 21  1  0
 21 35  1  0
 21 36  1  0
M  END

