
     RDKit          3D

 55 57  0  0  0  0  0  0  0  0999 V2000
   10.2696    9.4360   -5.6532 C   0  0  0  0  0  0  0  0  0  0  0  0
   10.4417    8.2486   -6.3927 O   0  0  0  0  0  0  0  0  0  0  0  0
    9.5130    7.2694   -6.2951 C   0  0  0  0  0  0  0  0  0  0  0  0
    8.3599    7.3298   -5.5002 C   0  0  0  0  0  0  0  0  0  0  0  0
    7.4432    6.2751   -5.4506 C   0  0  0  0  0  0  0  0  0  0  0  0
    7.6655    5.1163   -6.2084 C   0  0  0  0  0  0  0  0  0  0  0  0
    6.7927    4.0141   -6.2115 N   0  0  0  0  0  0  0  0  0  0  0  0
    5.6269    3.8344   -5.5252 C   0  0  0  0  0  0  0  0  0  0  0  0
    5.1131    4.6285   -4.7562 O   0  0  0  0  0  0  0  0  0  0  0  0
    4.9362    2.4955   -5.8481 C   0  0  0  0  0  0  0  0  0  0  0  0
    5.8164    1.5019   -6.4491 N   0  0  0  0  0  0  0  0  0  0  0  0
    6.6027    0.7248   -5.4813 C   0  0  0  0  0  0  0  0  0  0  0  0
    5.8048   -0.4137   -4.8348 C   0  0  0  0  0  0  0  0  0  0  0  0
    5.1919   -1.2553   -5.8609 N   0  0  0  0  0  0  0  0  0  0  0  0
    5.3402   -2.6188   -5.7854 C   0  0  0  0  0  0  0  0  0  0  0  0
    6.0067   -3.1528   -4.9099 O   0  0  0  0  0  0  0  0  0  0  0  0
    4.6379   -3.4843   -6.8435 C   0  0  0  0  0  0  0  0  0  0  0  0
    5.1661   -3.2790   -8.1887 N   0  0  0  0  0  0  0  0  0  0  0  0
    6.5811   -3.6363   -8.3582 C   0  0  0  0  0  0  0  0  0  0  0  0
    6.7880   -5.1397   -8.5662 C   0  0  0  0  0  0  0  0  0  0  0  0
    6.0010   -5.6170   -9.6439 O   0  0  0  0  0  0  0  0  0  0  0  0
    4.6228   -5.3697   -9.4442 C   0  0  0  0  0  0  0  0  0  0  0  0
    4.3643   -3.8707   -9.2638 C   0  0  0  0  0  0  0  0  0  0  0  0
    4.3900   -0.5321   -6.8422 C   0  0  0  0  0  0  0  0  0  0  0  0
    5.2129    0.6177   -7.4459 C   0  0  0  0  0  0  0  0  0  0  0  0
    8.8189    5.0427   -7.0105 C   0  0  0  0  0  0  0  0  0  0  0  0
    9.7239    6.0974   -7.0535 C   0  0  0  0  0  0  0  0  0  0  0  0
   11.1439    5.9720   -8.0603 Cl  0  0  0  0  0  0  0  0  0  0  0  0
   11.1314   10.0752   -5.8868 H   0  0  0  0  0  0  0  0  0  0  0  0
   10.2508    9.2442   -4.5649 H   0  0  0  0  0  0  0  0  0  0  0  0
    9.3427    9.9669   -5.9363 H   0  0  0  0  0  0  0  0  0  0  0  0
    8.1597    8.2174   -4.8995 H   0  0  0  0  0  0  0  0  0  0  0  0
    6.5540    6.3414   -4.8277 H   0  0  0  0  0  0  0  0  0  0  0  0
    7.0307    3.2112   -6.7945 H   0  0  0  0  0  0  0  0  0  0  0  0
    4.1239    2.7359   -6.5544 H   0  0  0  0  0  0  0  0  0  0  0  0
    4.4403    2.1781   -4.9117 H   0  0  0  0  0  0  0  0  0  0  0  0
    6.9949    1.4011   -4.7056 H   0  0  0  0  0  0  0  0  0  0  0  0
    7.4717    0.2951   -6.0093 H   0  0  0  0  0  0  0  0  0  0  0  0
    5.0142   -0.0030   -4.1777 H   0  0  0  0  0  0  0  0  0  0  0  0
    6.4494   -1.0530   -4.2187 H   0  0  0  0  0  0  0  0  0  0  0  0
    3.5608   -3.2453   -6.8595 H   0  0  0  0  0  0  0  0  0  0  0  0
    4.7349   -4.5171   -6.4591 H   0  0  0  0  0  0  0  0  0  0  0  0
    7.1603   -3.2915   -7.4879 H   0  0  0  0  0  0  0  0  0  0  0  0
    6.9626   -3.1038   -9.2477 H   0  0  0  0  0  0  0  0  0  0  0  0
    6.5439   -5.6955   -7.6374 H   0  0  0  0  0  0  0  0  0  0  0  0
    7.8385   -5.3550   -8.8164 H   0  0  0  0  0  0  0  0  0  0  0  0
    4.2534   -5.9361   -8.5631 H   0  0  0  0  0  0  0  0  0  0  0  0
    4.0943   -5.7520  -10.3319 H   0  0  0  0  0  0  0  0  0  0  0  0
    3.2947   -3.6806   -9.0734 H   0  0  0  0  0  0  0  0  0  0  0  0
    4.6296   -3.3607  -10.2075 H   0  0  0  0  0  0  0  0  0  0  0  0
    3.4771   -0.1316   -6.3581 H   0  0  0  0  0  0  0  0  0  0  0  0
    4.0939   -1.2104   -7.6491 H   0  0  0  0  0  0  0  0  0  0  0  0
    4.5848    1.2126   -8.1275 H   0  0  0  0  0  0  0  0  0  0  0  0
    6.0244    0.1732   -8.0482 H   0  0  0  0  0  0  0  0  0  0  0  0
    9.0217    4.1547   -7.6130 H   0  0  0  0  0  0  0  0  0  0  0  0
  1  2  1  0
  1 29  1  0
  1 30  1  0
  1 31  1  0
  2  3  1  0
  3  4  2  0
  3 27  1  0
  4  5  1  0
  4 32  1  0
  5  6  2  0
  5 33  1  0
  6  7  1  0
  6 26  1  0
  7  8  1  0
  7 34  1  0
  8  9  2  0
  8 10  1  0
 10 11  1  0
 10 35  1  0
 10 36  1  0
 11 12  1  0
 11 25  1  0
 12 13  1  0
 12 37  1  0
 12 38  1  0
 13 14  1  0
 13 39  1  0
 13 40  1  0
 14 15  1  0
 14 24  1  0
 15 16  2  0
 15 17  1  0
 17 18  1  0
 17 41  1  0
 17 42  1  0
 18 19  1  0
 18 23  1  0
 19 20  1  0
 19 43  1  0
 19 44  1  0
 20 21  1  0
 20 45  1  0
 20 46  1  0
 21 22  1  0
 22 23  1  0
 22 47  1  0
 22 48  1  0
 23 49  1  0
 23 50  1  0
 24 25  1  0
 24 51  1  0
 24 52  1  0
 25 53  1  0
 25 54  1  0
 26 27  2  0
 26 55  1  0
 27 28  1  0
M  END

