
     RDKit          3D

 51 51  0  0  0  0  0  0  0  0999 V2000
    1.2694   -1.3293    1.2727 C   0  0  0  0  0  0  0  0  0  0  0  0
    2.5526   -0.7082    0.7189 C   0  0  0  0  0  0  0  0  0  0  0  0
    3.0917   -1.4191   -0.5265 C   0  0  0  0  0  0  0  0  0  0  0  0
    4.3765   -0.8035   -1.0882 C   0  0  0  0  0  0  0  0  0  0  0  0
    4.9135   -1.5150   -2.3335 C   0  0  0  0  0  0  0  0  0  0  0  0
    6.2177   -0.9074   -2.8657 C   0  0  0  0  0  0  0  0  0  0  0  0
    6.7762   -1.5806   -4.1427 C   0  0  1  0  0  0  0  0  0  0  0  0
    6.4570   -0.7999   -5.3390 N   0  0  0  0  0  0  0  0  0  0  0  0
    5.0446   -0.5888   -5.6079 C   0  0  0  0  0  0  0  0  0  0  0  0
    8.3115   -1.8767   -4.0306 C   0  0  1  0  0  0  0  0  0  0  0  0
    8.3116   -2.7847   -2.9063 O   0  0  0  0  0  0  0  0  0  0  0  0
    9.5044   -3.1266   -2.2533 C   0  0  0  0  0  0  0  0  0  0  0  0
    8.8681   -2.6539   -5.2548 C   0  0  0  0  0  0  0  0  0  0  0  0
    9.3311   -1.8223   -6.4647 C   0  0  0  0  0  0  0  0  0  0  0  0
   10.1970   -0.6285   -6.0517 C   0  0  0  0  0  0  0  0  0  0  0  0
    9.5061    0.2363   -4.9873 C   0  0  2  0  0  0  0  0  0  0  0  0
   10.3588    1.4461   -4.5955 C   0  0  0  0  0  0  0  0  0  0  0  0
    9.1755   -0.6254   -3.7540 C   0  0  0  0  0  0  0  0  0  0  0  0
    0.9112   -0.7934    2.1665 H   0  0  0  0  0  0  0  0  0  0  0  0
    1.4247   -2.3837    1.5572 H   0  0  0  0  0  0  0  0  0  0  0  0
    0.4585   -1.3078    0.5251 H   0  0  0  0  0  0  0  0  0  0  0  0
    3.3318   -0.7106    1.5031 H   0  0  0  0  0  0  0  0  0  0  0  0
    2.3739    0.3562    0.4799 H   0  0  0  0  0  0  0  0  0  0  0  0
    2.3124   -1.4176   -1.3118 H   0  0  0  0  0  0  0  0  0  0  0  0
    3.2718   -2.4843   -0.2884 H   0  0  0  0  0  0  0  0  0  0  0  0
    5.1557   -0.8057   -0.3032 H   0  0  0  0  0  0  0  0  0  0  0  0
    4.1965    0.2622   -1.3248 H   0  0  0  0  0  0  0  0  0  0  0  0
    4.1349   -1.5108   -3.1164 H   0  0  0  0  0  0  0  0  0  0  0  0
    5.0945   -2.5788   -2.0965 H   0  0  0  0  0  0  0  0  0  0  0  0
    6.9660   -0.9922   -2.0649 H   0  0  0  0  0  0  0  0  0  0  0  0
    6.0859    0.1714   -3.0601 H   0  0  0  0  0  0  0  0  0  0  0  0
    6.3230   -2.5962   -4.1987 H   0  0  0  0  0  0  0  0  0  0  0  0
    6.8651   -1.2565   -6.1496 H   0  0  0  0  0  0  0  0  0  0  0  0
    4.5966    0.0880   -4.8641 H   0  0  0  0  0  0  0  0  0  0  0  0
    4.4346   -1.5200   -5.6165 H   0  0  0  0  0  0  0  0  0  0  0  0
    4.9322   -0.1036   -6.5904 H   0  0  0  0  0  0  0  0  0  0  0  0
    9.2716   -3.9823   -1.6006 H   0  0  0  0  0  0  0  0  0  0  0  0
    9.9005   -2.3127   -1.6167 H   0  0  0  0  0  0  0  0  0  0  0  0
   10.3112   -3.4424   -2.9428 H   0  0  0  0  0  0  0  0  0  0  0  0
    8.1317   -3.4182   -5.5564 H   0  0  0  0  0  0  0  0  0  0  0  0
    9.7465   -3.2148   -4.8945 H   0  0  0  0  0  0  0  0  0  0  0  0
    8.4737   -1.4517   -7.0516 H   0  0  0  0  0  0  0  0  0  0  0  0
    9.8898   -2.4788   -7.1532 H   0  0  0  0  0  0  0  0  0  0  0  0
   10.4455   -0.0185   -6.9372 H   0  0  0  0  0  0  0  0  0  0  0  0
   11.1611   -0.9932   -5.6471 H   0  0  0  0  0  0  0  0  0  0  0  0
    8.5533    0.5990   -5.4071 H   0  0  0  0  0  0  0  0  0  0  0  0
   11.3239    1.1317   -4.1605 H   0  0  0  0  0  0  0  0  0  0  0  0
    9.8467    2.0739   -3.8480 H   0  0  0  0  0  0  0  0  0  0  0  0
   10.5799    2.0803   -5.4697 H   0  0  0  0  0  0  0  0  0  0  0  0
    8.6970   -0.0067   -2.9789 H   0  0  0  0  0  0  0  0  0  0  0  0
   10.1374   -0.9579   -3.3265 H   0  0  0  0  0  0  0  0  0  0  0  0
  1  2  1  0
  1 19  1  0
  1 20  1  0
  1 21  1  0
  2  3  1  0
  2 22  1  0
  2 23  1  0
  3  4  1  0
  3 24  1  0
  3 25  1  0
  4  5  1  0
  4 26  1  0
  4 27  1  0
  5  6  1  0
  5 28  1  0
  5 29  1  0
  6  7  1  0
  6 30  1  0
  6 31  1  0
  7  8  1  0
  7 10  1  0
  7 32  1  6
  8  9  1  0
  8 33  1  0
  9 34  1  0
  9 35  1  0
  9 36  1  0
 10 11  1  1
 10 13  1  0
 10 18  1  0
 11 12  1  0
 12 37  1  0
 12 38  1  0
 12 39  1  0
 13 14  1  0
 13 40  1  0
 13 41  1  0
 14 15  1  0
 14 42  1  0
 14 43  1  0
 15 16  1  0
 15 44  1  0
 15 45  1  0
 16 17  1  0
 16 18  1  0
 16 46  1  6
 17 47  1  0
 17 48  1  0
 17 49  1  0
 18 50  1  0
 18 51  1  0
M  END

