
     RDKit          3D

 59 65  0  0  0  0  0  0  0  0999 V2000
    1.2315    0.7129    0.1642 F   0  0  0  0  0  0  0  0  0  0  0  0
    2.8402    0.3455    0.0663 Si  0  0  1  0  0  4  0  0  0  0  0  0
    3.6362    2.0538    0.1276 C   0  0  0  0  0  0  0  0  0  0  0  0
    3.0265    3.0727    0.8874 C   0  0  0  0  0  0  0  0  0  0  0  0
    3.5586    4.3641    0.9169 C   0  0  0  0  0  0  0  0  0  0  0  0
    4.7104    4.6643    0.1822 C   0  0  0  0  0  0  0  0  0  0  0  0
    5.3214    3.6704   -0.5880 C   0  0  0  0  0  0  0  0  0  0  0  0
    4.7850    2.3795   -0.6186 C   0  0  0  0  0  0  0  0  0  0  0  0
    3.0430   -0.8438    1.5499 C   0  0  0  0  0  0  0  0  0  0  0  0
    2.1739   -1.9776    1.5788 C   0  0  0  0  0  0  0  0  0  0  0  0
    1.2342   -2.2828    0.5347 C   0  0  0  0  0  0  0  0  0  0  0  0
    0.4174   -3.3849    0.5891 C   0  0  0  0  0  0  0  0  0  0  0  0
    0.4653   -4.2792    1.6960 C   0  0  0  0  0  0  0  0  0  0  0  0
    1.3408   -4.0359    2.7213 C   0  0  0  0  0  0  0  0  0  0  0  0
    2.2112   -2.8984    2.6979 C   0  0  0  0  0  0  0  0  0  0  0  0
    3.1026   -2.6642    3.7488 C   0  0  0  0  0  0  0  0  0  0  0  0
    3.9736   -1.5710    3.7459 C   0  0  0  0  0  0  0  0  0  0  0  0
    4.8875   -1.3680    4.8302 C   0  0  0  0  0  0  0  0  0  0  0  0
    5.7652   -0.3158    4.8332 C   0  0  0  0  0  0  0  0  0  0  0  0
    5.7694    0.5927    3.7373 C   0  0  0  0  0  0  0  0  0  0  0  0
    4.9000    0.4355    2.6852 C   0  0  0  0  0  0  0  0  0  0  0  0
    3.9530   -0.6439    2.6297 C   0  0  0  0  0  0  0  0  0  0  0  0
    3.2234   -0.4673   -1.6195 C   0  0  0  0  0  0  0  0  0  0  0  0
    2.3658   -0.3117   -2.7513 C   0  0  0  0  0  0  0  0  0  0  0  0
    1.1803    0.5030   -2.7494 C   0  0  0  0  0  0  0  0  0  0  0  0
    0.3853    0.6298   -3.8628 C   0  0  0  0  0  0  0  0  0  0  0  0
    0.6991   -0.0511   -5.0729 C   0  0  0  0  0  0  0  0  0  0  0  0
    1.8192   -0.8377   -5.1315 C   0  0  0  0  0  0  0  0  0  0  0  0
    2.6815   -0.9862   -3.9974 C   0  0  0  0  0  0  0  0  0  0  0  0
    3.8350   -1.7719   -4.0850 C   0  0  0  0  0  0  0  0  0  0  0  0
    4.7198   -1.9019   -3.0109 C   0  0  0  0  0  0  0  0  0  0  0  0
    5.9189   -2.6752   -3.1381 C   0  0  0  0  0  0  0  0  0  0  0  0
    6.8101   -2.7793   -2.1022 C   0  0  0  0  0  0  0  0  0  0  0  0
    6.5430   -2.1045   -0.8771 C   0  0  0  0  0  0  0  0  0  0  0  0
    5.3962   -1.3661   -0.7164 C   0  0  0  0  0  0  0  0  0  0  0  0
    4.4195   -1.2314   -1.7615 C   0  0  0  0  0  0  0  0  0  0  0  0
    2.1198    2.8558    1.4587 H   0  0  0  0  0  0  0  0  0  0  0  0
    3.0706    5.1405    1.5121 H   0  0  0  0  0  0  0  0  0  0  0  0
    5.1271    5.6748    0.2045 H   0  0  0  0  0  0  0  0  0  0  0  0
    6.2145    3.9025   -1.1742 H   0  0  0  0  0  0  0  0  0  0  0  0
    5.2690    1.6188   -1.2370 H   0  0  0  0  0  0  0  0  0  0  0  0
    1.1484   -1.6267   -0.3288 H   0  0  0  0  0  0  0  0  0  0  0  0
   -0.2806   -3.5770   -0.2297 H   0  0  0  0  0  0  0  0  0  0  0  0
   -0.1939   -5.1503    1.7222 H   0  0  0  0  0  0  0  0  0  0  0  0
    1.3943   -4.7088    3.5816 H   0  0  0  0  0  0  0  0  0  0  0  0
    3.1239   -3.3592    4.5935 H   0  0  0  0  0  0  0  0  0  0  0  0
    4.8703   -2.0818    5.6585 H   0  0  0  0  0  0  0  0  0  0  0  0
    6.4598   -0.1725    5.6646 H   0  0  0  0  0  0  0  0  0  0  0  0
    6.4719    1.4302    3.7328 H   0  0  0  0  0  0  0  0  0  0  0  0
    4.9342    1.1571    1.8731 H   0  0  0  0  0  0  0  0  0  0  0  0
    0.8975    1.0330   -1.8437 H   0  0  0  0  0  0  0  0  0  0  0  0
   -0.5034    1.2647   -3.8174 H   0  0  0  0  0  0  0  0  0  0  0  0
    0.0508    0.0594   -5.9457 H   0  0  0  0  0  0  0  0  0  0  0  0
    2.0835   -1.3649   -6.0524 H   0  0  0  0  0  0  0  0  0  0  0  0
    4.0600   -2.2835   -5.0254 H   0  0  0  0  0  0  0  0  0  0  0  0
    6.1109   -3.1761   -4.0910 H   0  0  0  0  0  0  0  0  0  0  0  0
    7.7239   -3.3685   -2.2118 H   0  0  0  0  0  0  0  0  0  0  0  0
    7.2578   -2.1746   -0.0534 H   0  0  0  0  0  0  0  0  0  0  0  0
    5.2392   -0.8699    0.2396 H   0  0  0  0  0  0  0  0  0  0  0  0
  2  1  1  6
  2  3  1  0
  2  9  1  0
  2 23  1  0
  3  4  2  0
  3  8  1  0
  4  5  1  0
  4 37  1  0
  5  6  2  0
  5 38  1  0
  6  7  1  0
  6 39  1  0
  7  8  2  0
  7 40  1  0
  8 41  1  0
  9 10  1  0
  9 22  2  0
 10 11  2  0
 10 15  1  0
 11 12  1  0
 11 42  1  0
 12 13  2  0
 12 43  1  0
 13 14  1  0
 13 44  1  0
 14 15  2  0
 14 45  1  0
 15 16  1  0
 16 17  2  0
 16 46  1  0
 17 18  1  0
 17 22  1  0
 18 19  2  0
 18 47  1  0
 19 20  1  0
 19 48  1  0
 20 21  2  0
 20 49  1  0
 21 22  1  0
 21 50  1  0
 23 24  1  0
 23 36  2  0
 24 25  2  0
 24 29  1  0
 25 26  1  0
 25 51  1  0
 26 27  2  0
 26 52  1  0
 27 28  1  0
 27 53  1  0
 28 29  2  0
 28 54  1  0
 29 30  1  0
 30 31  2  0
 30 55  1  0
 31 32  1  0
 31 36  1  0
 32 33  2  0
 32 56  1  0
 33 34  1  0
 33 57  1  0
 34 35  2  0
 34 58  1  0
 35 36  1  0
 35 59  1  0
M  END

