
     RDKit          3D

 51 54  0  0  0  0  0  0  0  0999 V2000
    3.6081  -10.8330   -1.8074 C   0  0  0  0  0  0  0  0  0  0  0  0
    4.6568  -10.9818   -0.7479 C   0  0  0  0  0  0  0  0  0  0  0  0
    5.3118  -12.1669   -0.3137 C   0  0  0  0  0  0  0  0  0  0  0  0
    6.1807  -11.7502    0.6776 C   0  0  0  0  0  0  0  0  0  0  0  0
    6.0119  -10.4063    0.8033 N   0  0  0  0  0  0  0  0  0  0  0  0
    6.7702   -9.4935    1.6359 C   0  0  0  0  0  0  0  0  0  0  0  0
    8.0370   -8.9964    0.9171 C   0  0  0  0  0  0  0  0  0  0  0  0
    9.0706   -9.6438    0.9291 O   0  0  0  0  0  0  0  0  0  0  0  0
    7.9231   -7.8120    0.2657 N   0  0  0  0  0  0  0  0  0  0  0  0
    6.7857   -6.9877   -0.1596 C   0  0  0  0  0  0  0  0  0  0  0  0
    7.7553   -6.2484   -1.1456 C   0  0  2  0  0  0  0  0  0  0  0  0
    7.3848   -6.2932   -2.5846 C   0  0  0  0  0  0  0  0  0  0  0  0
    7.5727   -7.2453   -3.4473 N   0  0  0  0  0  0  0  0  0  0  0  0
    6.9830   -6.7426   -4.5877 C   0  0  0  0  0  0  0  0  0  0  0  0
    6.9402   -7.4911   -5.8807 C   0  0  0  0  0  0  0  0  0  0  0  0
    6.1928   -6.7571   -7.0007 C   0  0  0  0  0  0  0  0  0  0  0  0
    6.2382   -7.4796   -8.2702 N   0  0  0  0  0  0  0  0  0  0  0  0
    7.2809   -7.1073   -9.2116 C   0  0  0  0  0  0  0  0  0  0  0  0
    5.2900   -8.4550   -8.4724 C   0  0  0  0  0  0  0  0  0  0  0  0
    4.5146   -8.7718   -7.5758 O   0  0  0  0  0  0  0  0  0  0  0  0
    5.2121   -9.1197   -9.8185 C   0  0  1  0  0  0  0  0  0  0  0  0
    4.9522  -10.6186   -9.8280 C   0  0  0  0  0  0  0  0  0  0  0  0
    3.8580   -9.6807  -10.2122 C   0  0  0  0  0  0  0  0  0  0  0  0
    6.4675   -5.5482   -4.4337 N   0  0  0  0  0  0  0  0  0  0  0  0
    6.7319   -5.2427   -3.1017 O   0  0  0  0  0  0  0  0  0  0  0  0
    8.8677   -7.2370   -0.6903 C   0  0  0  0  0  0  0  0  0  0  0  0
    5.0986   -9.9256   -0.0647 N   0  0  0  0  0  0  0  0  0  0  0  0
    2.7359  -11.4754   -1.6037 H   0  0  0  0  0  0  0  0  0  0  0  0
    3.9964  -11.1147   -2.8002 H   0  0  0  0  0  0  0  0  0  0  0  0
    3.2661   -9.7899   -1.8563 H   0  0  0  0  0  0  0  0  0  0  0  0
    5.1606  -13.1825   -0.6725 H   0  0  0  0  0  0  0  0  0  0  0  0
    6.8978  -12.2912    1.2913 H   0  0  0  0  0  0  0  0  0  0  0  0
    7.1039  -10.0283    2.5351 H   0  0  0  0  0  0  0  0  0  0  0  0
    6.1011   -8.6733    1.9309 H   0  0  0  0  0  0  0  0  0  0  0  0
    6.3678   -6.3431    0.6316 H   0  0  0  0  0  0  0  0  0  0  0  0
    5.9746   -7.5653   -0.6286 H   0  0  0  0  0  0  0  0  0  0  0  0
    7.9328   -5.2050   -0.8525 H   0  0  0  0  0  0  0  0  0  0  0  0
    6.4542   -8.4635   -5.7023 H   0  0  0  0  0  0  0  0  0  0  0  0
    7.9797   -7.7140   -6.1795 H   0  0  0  0  0  0  0  0  0  0  0  0
    6.6172   -5.7535   -7.1541 H   0  0  0  0  0  0  0  0  0  0  0  0
    5.1425   -6.6294   -6.7073 H   0  0  0  0  0  0  0  0  0  0  0  0
    8.1955   -6.8383   -8.6602 H   0  0  0  0  0  0  0  0  0  0  0  0
    6.9992   -6.2396   -9.8375 H   0  0  0  0  0  0  0  0  0  0  0  0
    7.5435   -7.9426   -9.8721 H   0  0  0  0  0  0  0  0  0  0  0  0
    5.8229   -8.7231  -10.6296 H   0  0  0  0  0  0  0  0  0  0  0  0
    4.8800  -11.0961   -8.8474 H   0  0  0  0  0  0  0  0  0  0  0  0
    5.4465  -11.2097  -10.6040 H   0  0  0  0  0  0  0  0  0  0  0  0
    3.0550   -9.5259   -9.4878 H   0  0  0  0  0  0  0  0  0  0  0  0
    3.5739   -9.6014  -11.2651 H   0  0  0  0  0  0  0  0  0  0  0  0
    9.7548   -6.7740   -0.2296 H   0  0  0  0  0  0  0  0  0  0  0  0
    9.1854   -7.9489   -1.4674 H   0  0  0  0  0  0  0  0  0  0  0  0
  1  2  1  0
  1 28  1  0
  1 29  1  0
  1 30  1  0
  2  3  1  0
  2 27  2  0
  3  4  2  0
  3 31  1  0
  4  5  1  0
  4 32  1  0
  5  6  1  0
  5 27  1  0
  6  7  1  0
  6 33  1  0
  6 34  1  0
  7  8  2  0
  7  9  1  0
  9 10  1  0
  9 26  1  0
 10 11  1  0
 10 35  1  0
 10 36  1  0
 11 12  1  0
 11 26  1  0
 11 37  1  1
 12 13  2  0
 12 25  1  0
 13 14  1  0
 14 15  1  0
 14 24  2  0
 15 16  1  0
 15 38  1  0
 15 39  1  0
 16 17  1  0
 16 40  1  0
 16 41  1  0
 17 18  1  0
 17 19  1  0
 18 42  1  0
 18 43  1  0
 18 44  1  0
 19 20  2  0
 19 21  1  0
 21 22  1  0
 21 23  1  0
 21 45  1  6
 22 23  1  0
 22 46  1  0
 22 47  1  0
 23 48  1  0
 23 49  1  0
 24 25  1  0
 26 50  1  0
 26 51  1  0
M  END

