
     RDKit          3D

 52 53  0  0  0  0  0  0  0  0999 V2000
    1.4902   -0.8347    1.4350 C   0  0  0  0  0  0  0  0  0  0  0  0
    2.9714   -0.4869    1.5493 C   0  0  0  0  0  0  0  0  0  0  0  0
    3.2781    0.9219    1.2798 N   0  0  0  0  0  0  0  0  0  0  0  0
    2.5403    1.8885    2.0886 C   0  0  0  0  0  0  0  0  0  0  0  0
    2.8120    1.7637    3.5964 C   0  0  0  0  0  0  0  0  0  0  0  0
    2.1606    1.0736    4.3343 O   0  0  0  0  0  0  0  0  0  0  0  0
    3.9070    2.4147    4.0606 O   0  0  0  0  0  0  0  0  0  0  0  0
    4.7063    1.1707    1.2140 C   0  0  1  0  0  0  0  0  0  0  0  0
    5.4845    0.5387    0.0310 C   0  0  0  0  0  0  0  0  0  0  0  0
    6.2833    1.8580   -0.1161 C   0  0  2  0  0  0  0  0  0  0  0  0
    7.5593    1.7838    0.5749 N   0  0  0  0  0  0  0  0  0  0  0  0
    8.3248    2.9244    0.7334 C   0  0  0  0  0  0  0  0  0  0  0  0
    7.9035    4.0320    0.4399 O   0  0  0  0  0  0  0  0  0  0  0  0
    9.5750    2.6676    1.2735 N   0  0  0  0  0  0  0  0  0  0  0  0
   10.6055    3.5647    1.5660 C   0  0  0  0  0  0  0  0  0  0  0  0
   10.5482    4.9363    1.2489 C   0  0  0  0  0  0  0  0  0  0  0  0
   11.6199    5.7731    1.5582 C   0  0  0  0  0  0  0  0  0  0  0  0
   12.7706    5.2766    2.1783 C   0  0  0  0  0  0  0  0  0  0  0  0
   12.8382    3.9189    2.4906 C   0  0  0  0  0  0  0  0  0  0  0  0
   11.7687    3.0580    2.2086 C   0  0  0  0  0  0  0  0  0  0  0  0
   11.9089    1.3136    2.6074 S   0  0  0  0  0  0  0  0  0  0  0  0
   11.5363    1.2878    4.4375 C   0  0  1  0  0  0  0  0  0  0  0  0
   10.1138    1.7316    4.7616 C   0  0  0  0  0  0  0  0  0  0  0  0
   11.8441   -0.1265    4.9290 C   0  0  0  0  0  0  0  0  0  0  0  0
    5.1740    2.5607    0.7109 C   0  0  0  0  0  0  0  0  0  0  0  0
    1.3616   -1.9276    1.4713 H   0  0  0  0  0  0  0  0  0  0  0  0
    1.0728   -0.4710    0.4822 H   0  0  0  0  0  0  0  0  0  0  0  0
    0.9083   -0.4103    2.2663 H   0  0  0  0  0  0  0  0  0  0  0  0
    3.5371   -1.0771    0.8098 H   0  0  0  0  0  0  0  0  0  0  0  0
    3.3438   -0.8033    2.5486 H   0  0  0  0  0  0  0  0  0  0  0  0
    1.4619    1.7425    1.9444 H   0  0  0  0  0  0  0  0  0  0  0  0
    2.7843    2.9042    1.7354 H   0  0  0  0  0  0  0  0  0  0  0  0
    4.3121    2.9429    3.3576 H   0  0  0  0  0  0  0  0  0  0  0  0
    5.2225    0.9199    2.1661 H   0  0  0  0  0  0  0  0  0  0  0  0
    4.8186    0.3847   -0.8304 H   0  0  0  0  0  0  0  0  0  0  0  0
    6.0572   -0.3842    0.2165 H   0  0  0  0  0  0  0  0  0  0  0  0
    6.4107    2.2449   -1.1409 H   0  0  0  0  0  0  0  0  0  0  0  0
    8.0268    0.8836    0.5705 H   0  0  0  0  0  0  0  0  0  0  0  0
    9.7940    1.7145    1.5618 H   0  0  0  0  0  0  0  0  0  0  0  0
    9.6521    5.3216    0.7678 H   0  0  0  0  0  0  0  0  0  0  0  0
   11.5516    6.8338    1.3024 H   0  0  0  0  0  0  0  0  0  0  0  0
   13.6101    5.9366    2.4083 H   0  0  0  0  0  0  0  0  0  0  0  0
   13.7331    3.5024    2.9592 H   0  0  0  0  0  0  0  0  0  0  0  0
   12.2531    1.9936    4.8875 H   0  0  0  0  0  0  0  0  0  0  0  0
    9.3727    1.0414    4.3265 H   0  0  0  0  0  0  0  0  0  0  0  0
    9.9072    2.7448    4.3859 H   0  0  0  0  0  0  0  0  0  0  0  0
    9.9626    1.7439    5.8547 H   0  0  0  0  0  0  0  0  0  0  0  0
   11.1763   -0.8660    4.4568 H   0  0  0  0  0  0  0  0  0  0  0  0
   11.6927   -0.1869    6.0190 H   0  0  0  0  0  0  0  0  0  0  0  0
   12.8836   -0.4149    4.7106 H   0  0  0  0  0  0  0  0  0  0  0  0
    4.4244    3.0082    0.0417 H   0  0  0  0  0  0  0  0  0  0  0  0
    5.5173    3.3173    1.4316 H   0  0  0  0  0  0  0  0  0  0  0  0
  1  2  1  0
  1 26  1  0
  1 27  1  0
  1 28  1  0
  2  3  1  0
  2 29  1  0
  2 30  1  0
  3  4  1  0
  3  8  1  0
  4  5  1  0
  4 31  1  0
  4 32  1  0
  5  6  2  0
  5  7  1  0
  7 33  1  0
  8  9  1  0
  8 25  1  0
  8 34  1  1
  9 10  1  0
  9 35  1  0
  9 36  1  0
 10 11  1  0
 10 25  1  0
 10 37  1  6
 11 12  1  0
 11 38  1  0
 12 13  2  0
 12 14  1  0
 14 15  1  0
 14 39  1  0
 15 16  2  0
 15 20  1  0
 16 17  1  0
 16 40  1  0
 17 18  2  0
 17 41  1  0
 18 19  1  0
 18 42  1  0
 19 20  2  0
 19 43  1  0
 20 21  1  0
 21 22  1  0
 22 23  1  0
 22 24  1  0
 22 44  1  1
 23 45  1  0
 23 46  1  0
 23 47  1  0
 24 48  1  0
 24 49  1  0
 24 50  1  0
 25 51  1  0
 25 52  1  0
M  END

