
     RDKit          3D

 33 33  0  0  0  0  0  0  0  0999 V2000
    1.0361    0.1793    0.2344 C   0  0  0  0  0  0  0  0  0  0  0  0
    2.5552    0.0583    0.0412 C   0  0  1  0  0  0  0  0  0  0  0  0
    3.0044   -1.3797   -0.2906 C   0  0  0  0  0  0  0  0  0  0  0  0
    2.6433   -1.7978   -1.7214 C   0  0  0  0  0  0  0  0  0  0  0  0
    3.1939   -0.8090   -2.7583 C   0  0  0  0  0  0  0  0  0  0  0  0
    2.7449    0.6333   -2.4653 C   0  0  2  0  0  0  0  0  0  0  0  0
    3.2367    1.6709   -3.4863 C   0  0  1  0  0  0  0  0  0  0  0  0
    5.0670    1.8313   -3.4642 Cl  0  0  0  0  0  0  0  0  0  0  0  0
    2.8297    1.4374   -4.9467 C   0  0  0  0  0  0  0  0  0  0  0  0
    1.3115    1.3025   -5.1788 C   0  0  0  0  0  0  0  0  0  0  0  0
    0.4944    2.4549   -4.6092 C   0  0  0  0  0  0  0  0  0  0  0  0
   -0.3179    2.3400   -3.7330 O   0  0  0  0  0  0  0  0  0  0  0  0
    0.7575    3.6756   -5.1379 O   0  0  0  0  0  0  0  0  0  0  0  0
    3.1037    1.0339   -1.0209 C   0  0  0  0  0  0  0  0  0  0  0  0
    0.6873   -0.4947    1.0340 H   0  0  0  0  0  0  0  0  0  0  0  0
    0.4667   -0.0696   -0.6751 H   0  0  0  0  0  0  0  0  0  0  0  0
    0.7565    1.2067    0.5186 H   0  0  0  0  0  0  0  0  0  0  0  0
    3.0214    0.3359    1.0033 H   0  0  0  0  0  0  0  0  0  0  0  0
    2.5716   -2.0884    0.4361 H   0  0  0  0  0  0  0  0  0  0  0  0
    4.1012   -1.4432   -0.1706 H   0  0  0  0  0  0  0  0  0  0  0  0
    1.5460   -1.8667   -1.8271 H   0  0  0  0  0  0  0  0  0  0  0  0
    3.0321   -2.8091   -1.9277 H   0  0  0  0  0  0  0  0  0  0  0  0
    2.8776   -1.1194   -3.7685 H   0  0  0  0  0  0  0  0  0  0  0  0
    4.2974   -0.8418   -2.7536 H   0  0  0  0  0  0  0  0  0  0  0  0
    1.6432    0.6755   -2.5488 H   0  0  0  0  0  0  0  0  0  0  0  0
    2.8868    2.6636   -3.1652 H   0  0  0  0  0  0  0  0  0  0  0  0
    3.3271    0.5331   -5.3292 H   0  0  0  0  0  0  0  0  0  0  0  0
    3.2369    2.2708   -5.5442 H   0  0  0  0  0  0  0  0  0  0  0  0
    0.9188    0.3815   -4.7290 H   0  0  0  0  0  0  0  0  0  0  0  0
    1.1265    1.2360   -6.2656 H   0  0  0  0  0  0  0  0  0  0  0  0
    1.4248    3.6109   -5.8361 H   0  0  0  0  0  0  0  0  0  0  0  0
    2.7338    2.0543   -0.8184 H   0  0  0  0  0  0  0  0  0  0  0  0
    4.2022    1.0782   -0.9361 H   0  0  0  0  0  0  0  0  0  0  0  0
  1  2  1  0
  1 15  1  0
  1 16  1  0
  1 17  1  0
  2  3  1  0
  2 14  1  0
  2 18  1  1
  3  4  1  0
  3 19  1  0
  3 20  1  0
  4  5  1  0
  4 21  1  0
  4 22  1  0
  5  6  1  0
  5 23  1  0
  5 24  1  0
  6  7  1  0
  6 14  1  0
  6 25  1  1
  7  8  1  0
  7  9  1  0
  7 26  1  1
  9 10  1  0
  9 27  1  0
  9 28  1  0
 10 11  1  0
 10 29  1  0
 10 30  1  0
 11 12  2  0
 11 13  1  0
 13 31  1  0
 14 32  1  0
 14 33  1  0
M  END

