
     RDKit          3D

 47 49  0  0  0  0  0  0  0  0999 V2000
    0.1936   -3.1556    2.4044 C   0  0  0  0  0  0  0  0  0  0  0  0
    1.4376   -3.6268    1.9578 O   0  0  0  0  0  0  0  0  0  0  0  0
    2.5205   -2.8162    2.3246 C   0  0  0  0  0  0  0  0  0  0  0  0
    3.7791   -3.4586    1.7665 C   0  0  0  0  0  0  0  0  0  0  0  0
    4.8719   -2.6381    2.1402 O   0  0  0  0  0  0  0  0  0  0  0  0
    6.1283   -2.9771    1.7762 C   0  0  0  0  0  0  0  0  0  0  0  0
    6.4567   -4.1178    1.0264 C   0  0  0  0  0  0  0  0  0  0  0  0
    7.7927   -4.3833    0.7130 C   0  0  0  0  0  0  0  0  0  0  0  0
    8.8213   -3.5240    1.1280 C   0  0  0  0  0  0  0  0  0  0  0  0
   10.2649   -3.6810    0.7583 C   0  0  0  0  0  0  0  0  0  0  0  0
   10.9562   -2.7064    0.5211 O   0  0  0  0  0  0  0  0  0  0  0  0
   10.8229   -4.9758    0.6656 N   0  0  0  0  0  0  0  0  0  0  0  0
   12.2570   -4.9733    0.3431 C   0  0  0  0  0  0  0  0  0  0  0  0
   12.8164   -6.3594    0.1045 C   0  0  0  0  0  0  0  0  0  0  0  0
   14.0995   -6.4838   -0.4536 C   0  0  0  0  0  0  0  0  0  0  0  0
   14.6684   -7.7369   -0.6723 C   0  0  0  0  0  0  0  0  0  0  0  0
   13.9547   -8.8937   -0.3364 C   0  0  0  0  0  0  0  0  0  0  0  0
   12.6813   -8.7819    0.2177 C   0  0  0  0  0  0  0  0  0  0  0  0
   12.1066   -7.5215    0.4503 C   0  0  0  0  0  0  0  0  0  0  0  0
   10.7067   -7.4177    1.0389 C   0  0  2  0  0  0  0  0  0  0  0  0
    9.6738   -7.8064   -0.0339 C   0  0  0  0  0  0  0  0  0  0  0  0
    9.1334   -8.8782   -0.0708 O   0  0  0  0  0  0  0  0  0  0  0  0
    9.4335   -6.8625   -0.9660 O   0  0  0  0  0  0  0  0  0  0  0  0
   10.4681   -6.0240    1.6375 C   0  0  0  0  0  0  0  0  0  0  0  0
    8.4716   -2.3653    1.8514 C   0  0  0  0  0  0  0  0  0  0  0  0
    7.1521   -2.1005    2.1847 C   0  0  0  0  0  0  0  0  0  0  0  0
   -0.5757   -3.8629    2.0624 H   0  0  0  0  0  0  0  0  0  0  0  0
   -0.0412   -2.1524    1.9946 H   0  0  0  0  0  0  0  0  0  0  0  0
    0.1475   -3.0908    3.5105 H   0  0  0  0  0  0  0  0  0  0  0  0
    2.6090   -2.7241    3.4272 H   0  0  0  0  0  0  0  0  0  0  0  0
    2.4187   -1.7877    1.9200 H   0  0  0  0  0  0  0  0  0  0  0  0
    3.7003   -3.5393    0.6675 H   0  0  0  0  0  0  0  0  0  0  0  0
    3.8901   -4.4789    2.1755 H   0  0  0  0  0  0  0  0  0  0  0  0
    5.6846   -4.8005    0.6725 H   0  0  0  0  0  0  0  0  0  0  0  0
    8.0116   -5.2612    0.1034 H   0  0  0  0  0  0  0  0  0  0  0  0
   12.8178   -4.4768    1.1598 H   0  0  0  0  0  0  0  0  0  0  0  0
   12.4089   -4.3376   -0.5398 H   0  0  0  0  0  0  0  0  0  0  0  0
   14.6551   -5.5801   -0.7216 H   0  0  0  0  0  0  0  0  0  0  0  0
   15.6669   -7.8137   -1.1096 H   0  0  0  0  0  0  0  0  0  0  0  0
   14.3911   -9.8805   -0.5089 H   0  0  0  0  0  0  0  0  0  0  0  0
   12.1121   -9.6798    0.4728 H   0  0  0  0  0  0  0  0  0  0  0  0
   10.5873   -8.1679    1.8334 H   0  0  0  0  0  0  0  0  0  0  0  0
    9.9456   -6.0545   -0.7456 H   0  0  0  0  0  0  0  0  0  0  0  0
   11.0946   -5.9159    2.5437 H   0  0  0  0  0  0  0  0  0  0  0  0
    9.4246   -5.9025    1.9489 H   0  0  0  0  0  0  0  0  0  0  0  0
    9.2621   -1.6717    2.1439 H   0  0  0  0  0  0  0  0  0  0  0  0
    6.8770   -1.2120    2.7563 H   0  0  0  0  0  0  0  0  0  0  0  0
  1  2  1  0
  1 27  1  0
  1 28  1  0
  1 29  1  0
  2  3  1  0
  3  4  1  0
  3 30  1  0
  3 31  1  0
  4  5  1  0
  4 32  1  0
  4 33  1  0
  5  6  1  0
  6  7  2  0
  6 26  1  0
  7  8  1  0
  7 34  1  0
  8  9  2  0
  8 35  1  0
  9 10  1  0
  9 25  1  0
 10 11  2  0
 10 12  1  0
 12 13  1  0
 12 24  1  0
 13 14  1  0
 13 36  1  0
 13 37  1  0
 14 15  2  0
 14 19  1  0
 15 16  1  0
 15 38  1  0
 16 17  2  0
 16 39  1  0
 17 18  1  0
 17 40  1  0
 18 19  2  0
 18 41  1  0
 19 20  1  0
 20 21  1  0
 20 24  1  0
 20 42  1  1
 21 22  2  0
 21 23  1  0
 23 43  1  0
 24 44  1  0
 24 45  1  0
 25 26  2  0
 25 46  1  0
 26 47  1  0
M  END

