
     RDKit          3D

 35 35  0  0  0  0  0  0  0  0999 V2000
    7.2502    2.2517    0.9391 C   0  0  0  0  0  0  0  0  0  0  0  0
    7.0146    2.0848   -0.5625 C   0  0  0  0  0  0  0  0  0  0  0  0
    7.4415    0.7927   -1.0724 N   0  0  0  0  0  0  0  0  0  0  0  0
    6.5669   -0.1922   -1.4349 C   0  0  0  0  0  0  0  0  0  0  0  0
    5.3531   -0.0576   -1.3877 O   0  0  0  0  0  0  0  0  0  0  0  0
    7.2080   -1.4855   -1.9279 C   0  0  0  0  0  0  0  0  0  0  0  0
    6.5322   -2.7115   -1.2959 C   0  0  0  0  0  0  0  0  0  0  0  0
    6.9679   -3.9843   -1.8447 N   0  0  0  0  0  0  0  0  0  0  0  0
    8.2184   -4.4778   -1.5330 C   0  0  0  0  0  0  0  0  0  0  0  0
    8.9738   -3.8824   -0.7732 O   0  0  0  0  0  0  0  0  0  0  0  0
    8.5579   -5.6968   -2.1015 N   0  0  0  0  0  0  0  0  0  0  0  0
    9.9482   -6.1343   -2.0390 C   0  0  0  0  0  0  0  0  0  0  0  0
   10.0190   -7.6225   -1.7190 C   0  0  0  0  0  0  0  0  0  0  0  0
    9.2398   -8.3778   -2.6304 O   0  0  0  0  0  0  0  0  0  0  0  0
    7.8841   -7.9986   -2.5855 C   0  0  0  0  0  0  0  0  0  0  0  0
    7.6921   -6.5177   -2.9335 C   0  0  0  0  0  0  0  0  0  0  0  0
    6.9212    3.2489    1.2736 H   0  0  0  0  0  0  0  0  0  0  0  0
    8.3181    2.1490    1.1954 H   0  0  0  0  0  0  0  0  0  0  0  0
    6.6890    1.4956    1.5099 H   0  0  0  0  0  0  0  0  0  0  0  0
    7.5347    2.8838   -1.1202 H   0  0  0  0  0  0  0  0  0  0  0  0
    5.9428    2.1648   -0.7929 H   0  0  0  0  0  0  0  0  0  0  0  0
    8.4321    0.5809   -1.0877 H   0  0  0  0  0  0  0  0  0  0  0  0
    8.2890   -1.5196   -1.7270 H   0  0  0  0  0  0  0  0  0  0  0  0
    7.0674   -1.5179   -3.0233 H   0  0  0  0  0  0  0  0  0  0  0  0
    5.4440   -2.6252   -1.4259 H   0  0  0  0  0  0  0  0  0  0  0  0
    6.7378   -2.7191   -0.2153 H   0  0  0  0  0  0  0  0  0  0  0  0
    6.5138   -4.2971   -2.6929 H   0  0  0  0  0  0  0  0  0  0  0  0
   10.4555   -5.5355   -1.2719 H   0  0  0  0  0  0  0  0  0  0  0  0
   10.4463   -5.9520   -3.0126 H   0  0  0  0  0  0  0  0  0  0  0  0
    9.6688   -7.7985   -0.6812 H   0  0  0  0  0  0  0  0  0  0  0  0
   11.0540   -7.9870   -1.8035 H   0  0  0  0  0  0  0  0  0  0  0  0
    7.4646   -8.1859   -1.5749 H   0  0  0  0  0  0  0  0  0  0  0  0
    7.3441   -8.6303   -3.3077 H   0  0  0  0  0  0  0  0  0  0  0  0
    6.6391   -6.2590   -2.7541 H   0  0  0  0  0  0  0  0  0  0  0  0
    7.9111   -6.3645   -4.0104 H   0  0  0  0  0  0  0  0  0  0  0  0
  1  2  1  0
  1 17  1  0
  1 18  1  0
  1 19  1  0
  2  3  1  0
  2 20  1  0
  2 21  1  0
  3  4  1  0
  3 22  1  0
  4  5  2  0
  4  6  1  0
  6  7  1  0
  6 23  1  0
  6 24  1  0
  7  8  1  0
  7 25  1  0
  7 26  1  0
  8  9  1  0
  8 27  1  0
  9 10  2  0
  9 11  1  0
 11 12  1  0
 11 16  1  0
 12 13  1  0
 12 28  1  0
 12 29  1  0
 13 14  1  0
 13 30  1  0
 13 31  1  0
 14 15  1  0
 15 16  1  0
 15 32  1  0
 15 33  1  0
 16 34  1  0
 16 35  1  0
M  END

