
     RDKit          3D

 65 68  0  0  0  0  0  0  0  0999 V2000
    0.5188   -3.4653   -2.6301 N   0  0  0  0  0  0  0  0  0  0  0  0
    1.9477   -3.7082   -2.7947 C   0  0  0  0  0  0  0  0  0  0  0  0
    2.7355   -3.1634   -1.6032 C   0  0  0  0  0  0  0  0  0  0  0  0
    4.2433   -3.4227   -1.6902 C   0  0  0  0  0  0  0  0  0  0  0  0
    4.9765   -2.9495   -0.4234 C   0  0  0  0  0  0  0  0  0  0  0  0
    6.5374   -2.8057   -0.4457 C   0  0  1  0  0  0  0  0  0  0  0  0
    7.0669   -4.1844   -0.8485 C   0  0  0  0  0  0  0  0  0  0  0  0
    7.3994   -5.0588    0.0385 N   0  0  0  0  0  0  0  0  0  0  0  0
    7.7638   -6.2180   -0.6088 N   0  0  0  0  0  0  0  0  0  0  0  0
    7.6912   -6.1635   -1.9862 C   0  0  0  0  0  0  0  0  0  0  0  0
    7.9636   -7.0471   -2.7659 O   0  0  0  0  0  0  0  0  0  0  0  0
    7.1838   -4.7417   -2.2515 C   0  0  0  0  0  0  0  0  0  0  0  0
    6.9948   -1.7076   -1.4413 C   0  0  0  0  0  0  0  0  0  0  0  0
    6.0924   -0.7719   -1.9679 C   0  0  0  0  0  0  0  0  0  0  0  0
    6.4977    0.2352   -2.8492 C   0  0  0  0  0  0  0  0  0  0  0  0
    7.8340    0.3448   -3.2371 C   0  0  0  0  0  0  0  0  0  0  0  0
    8.2985    1.4136   -4.2079 C   0  0  0  0  0  0  0  0  0  0  0  0
    8.7284    0.8955   -5.5021 N   0  0  0  0  0  0  0  0  0  0  0  0
   10.0338    0.6455   -5.7954 C   0  0  0  0  0  0  0  0  0  0  0  0
   10.9712    0.8510   -5.0509 O   0  0  0  0  0  0  0  0  0  0  0  0
    8.7498   -0.5673   -2.6928 C   0  0  0  0  0  0  0  0  0  0  0  0
    8.3604   -1.5765   -1.8038 C   0  0  0  0  0  0  0  0  0  0  0  0
    9.4262   -2.4411   -1.1753 C   0  0  0  0  0  0  0  0  0  0  0  0
    9.6138   -2.1680    0.3192 C   0  0  0  0  0  0  0  0  0  0  0  0
    8.4193   -2.1509    1.2703 C   0  0  0  0  0  0  0  0  0  0  0  0
    8.7764   -1.8000    2.5868 C   0  0  0  0  0  0  0  0  0  0  0  0
    7.8669   -1.7025    3.6377 C   0  0  0  0  0  0  0  0  0  0  0  0
    8.3218   -1.3497    5.0388 C   0  0  0  0  0  0  0  0  0  0  0  0
    7.5584   -0.2637    5.6328 N   0  0  0  0  0  0  0  0  0  0  0  0
    6.9539   -0.3524    6.8510 C   0  0  0  0  0  0  0  0  0  0  0  0
    6.9773   -1.3205    7.5813 O   0  0  0  0  0  0  0  0  0  0  0  0
    6.5237   -1.9567    3.3439 C   0  0  0  0  0  0  0  0  0  0  0  0
    6.1453   -2.3023    2.0506 C   0  0  0  0  0  0  0  0  0  0  0  0
    7.0576   -2.4193    0.9807 C   0  0  0  0  0  0  0  0  0  0  0  0
   -0.0089   -3.8992   -3.3872 H   0  0  0  0  0  0  0  0  0  0  0  0
    0.3210   -2.4649   -2.6858 H   0  0  0  0  0  0  0  0  0  0  0  0
    2.3791   -3.2881   -3.7318 H   0  0  0  0  0  0  0  0  0  0  0  0
    2.1025   -4.8002   -2.8559 H   0  0  0  0  0  0  0  0  0  0  0  0
    2.3214   -3.6079   -0.6818 H   0  0  0  0  0  0  0  0  0  0  0  0
    2.5544   -2.0743   -1.5199 H   0  0  0  0  0  0  0  0  0  0  0  0
    4.6453   -2.9372   -2.5947 H   0  0  0  0  0  0  0  0  0  0  0  0
    4.3977   -4.5058   -1.8257 H   0  0  0  0  0  0  0  0  0  0  0  0
    4.7341   -3.6675    0.3721 H   0  0  0  0  0  0  0  0  0  0  0  0
    4.5458   -1.9879   -0.1048 H   0  0  0  0  0  0  0  0  0  0  0  0
    8.0717   -7.0158   -0.0652 H   0  0  0  0  0  0  0  0  0  0  0  0
    6.2288   -4.7813   -2.7939 H   0  0  0  0  0  0  0  0  0  0  0  0
    7.8820   -4.1888   -2.8978 H   0  0  0  0  0  0  0  0  0  0  0  0
    5.0399   -0.8069   -1.6908 H   0  0  0  0  0  0  0  0  0  0  0  0
    5.7554    0.9419   -3.2325 H   0  0  0  0  0  0  0  0  0  0  0  0
    9.1649    1.9481   -3.7916 H   0  0  0  0  0  0  0  0  0  0  0  0
    7.4946    2.1490   -4.3700 H   0  0  0  0  0  0  0  0  0  0  0  0
    8.0243    0.5865   -6.1631 H   0  0  0  0  0  0  0  0  0  0  0  0
   10.1599    0.2306   -6.8257 H   0  0  0  0  0  0  0  0  0  0  0  0
    9.8060   -0.4758   -2.9624 H   0  0  0  0  0  0  0  0  0  0  0  0
   10.3872   -2.2458   -1.6752 H   0  0  0  0  0  0  0  0  0  0  0  0
    9.2279   -3.5090   -1.3289 H   0  0  0  0  0  0  0  0  0  0  0  0
   10.1078   -1.1861    0.4203 H   0  0  0  0  0  0  0  0  0  0  0  0
   10.3403   -2.9013    0.7110 H   0  0  0  0  0  0  0  0  0  0  0  0
    9.8324   -1.5921    2.7901 H   0  0  0  0  0  0  0  0  0  0  0  0
    9.3984   -1.1038    5.0263 H   0  0  0  0  0  0  0  0  0  0  0  0
    8.1964   -2.2062    5.7198 H   0  0  0  0  0  0  0  0  0  0  0  0
    7.4618    0.6017    5.1128 H   0  0  0  0  0  0  0  0  0  0  0  0
    6.4150    0.5915    7.1151 H   0  0  0  0  0  0  0  0  0  0  0  0
    5.7649   -1.8874    4.1275 H   0  0  0  0  0  0  0  0  0  0  0  0
    5.0881   -2.4926    1.8893 H   0  0  0  0  0  0  0  0  0  0  0  0
  1  2  1  0
  1 35  1  0
  1 36  1  0
  2  3  1  0
  2 37  1  0
  2 38  1  0
  3  4  1  0
  3 39  1  0
  3 40  1  0
  4  5  1  0
  4 41  1  0
  4 42  1  0
  6  5  1  1
  5 43  1  0
  5 44  1  0
  6  7  1  0
  6 13  1  0
  6 34  1  0
  7  8  2  0
  7 12  1  0
  8  9  1  0
  9 10  1  0
  9 45  1  0
 10 11  2  0
 10 12  1  0
 12 46  1  0
 12 47  1  0
 13 14  2  0
 13 22  1  0
 14 15  1  0
 14 48  1  0
 15 16  2  0
 15 49  1  0
 16 17  1  0
 16 21  1  0
 17 18  1  0
 17 50  1  0
 17 51  1  0
 18 19  1  0
 18 52  1  0
 19 20  2  0
 19 53  1  0
 21 22  2  0
 21 54  1  0
 22 23  1  0
 23 24  1  0
 23 55  1  0
 23 56  1  0
 24 25  1  0
 24 57  1  0
 24 58  1  0
 25 26  1  0
 25 34  2  0
 26 27  2  0
 26 59  1  0
 27 28  1  0
 27 32  1  0
 28 29  1  0
 28 60  1  0
 28 61  1  0
 29 30  1  0
 29 62  1  0
 30 31  2  0
 30 63  1  0
 32 33  2  0
 32 64  1  0
 33 34  1  0
 33 65  1  0
M  END

