
     RDKit          3D

 51 52  0  0  0  0  0  0  0  0999 V2000
   -1.1905    1.4434    7.5819 C   0  0  0  0  0  0  0  0  0  0  0  0
    0.0214    1.0631    8.4358 C   0  0  1  0  0  0  0  0  0  0  0  0
   -0.3639    0.1207    9.5927 C   0  0  0  0  0  0  0  0  0  0  0  0
    1.0836    0.3759    7.5669 C   0  0  0  0  0  0  0  0  0  0  0  0
    0.8229   -0.3607    6.6512 O   0  0  0  0  0  0  0  0  0  0  0  0
    2.3987    0.6596    7.9827 N   0  0  0  0  0  0  0  0  0  0  0  0
    3.5761    0.1569    7.4685 C   0  0  0  0  0  0  0  0  0  0  0  0
    3.6935   -0.6469    6.4482 N   0  0  0  0  0  0  0  0  0  0  0  0
    4.9852   -0.9615    6.1852 N   0  0  0  0  0  0  0  0  0  0  0  0
    5.8353   -0.4172    6.9924 C   0  0  0  0  0  0  0  0  0  0  0  0
    7.6316   -0.5740    6.8192 S   0  0  1  0  0  0  0  0  0  0  0  0
    8.0423    0.4482    5.8649 O   0  0  0  0  0  0  0  0  0  0  0  0
    8.1305   -0.6150    8.1907 O   0  0  0  0  0  0  0  0  0  0  0  0
    7.8985   -2.0289    6.1064 N   0  0  0  0  0  0  0  0  0  0  0  0
    7.7766   -3.3072    6.8064 C   0  0  0  0  0  0  0  0  0  0  0  0
    6.5847   -4.1526    6.3517 C   0  0  0  0  0  0  0  0  0  0  0  0
    6.4541   -5.4442    7.1480 C   0  0  0  0  0  0  0  0  0  0  0  0
    6.2520   -5.1209    8.5045 O   0  0  0  0  0  0  0  0  0  0  0  0
    6.2730   -6.2088    9.4256 C   0  0  1  0  0  0  0  0  0  0  0  0
    6.4592   -5.6085   10.8230 C   0  0  0  0  0  0  0  0  0  0  0  0
    5.2331   -4.8020   11.2725 C   0  0  0  0  0  0  0  0  0  0  0  0
    3.9496   -5.6403   11.1978 C   0  0  0  0  0  0  0  0  0  0  0  0
    3.7543   -6.2447    9.8004 C   0  0  0  0  0  0  0  0  0  0  0  0
    4.9848   -7.0487    9.3596 C   0  0  0  0  0  0  0  0  0  0  0  0
    5.1157    0.5909    8.2278 S   0  0  0  0  0  0  0  0  0  0  0  0
   -1.9772    1.8928    8.2073 H   0  0  0  0  0  0  0  0  0  0  0  0
   -1.5996    0.5506    7.0864 H   0  0  0  0  0  0  0  0  0  0  0  0
   -0.9200    2.1657    6.7964 H   0  0  0  0  0  0  0  0  0  0  0  0
    0.4592    1.9820    8.8674 H   0  0  0  0  0  0  0  0  0  0  0  0
   -0.7892   -0.8152    9.1976 H   0  0  0  0  0  0  0  0  0  0  0  0
   -1.1181    0.5950   10.2398 H   0  0  0  0  0  0  0  0  0  0  0  0
    0.5045   -0.1401   10.2187 H   0  0  0  0  0  0  0  0  0  0  0  0
    2.4933    1.3050    8.7577 H   0  0  0  0  0  0  0  0  0  0  0  0
    7.7546   -1.9995    5.0992 H   0  0  0  0  0  0  0  0  0  0  0  0
    7.7006   -3.0917    7.8810 H   0  0  0  0  0  0  0  0  0  0  0  0
    8.7170   -3.8702    6.6680 H   0  0  0  0  0  0  0  0  0  0  0  0
    6.6916   -4.4122    5.2833 H   0  0  0  0  0  0  0  0  0  0  0  0
    5.6573   -3.5663    6.4430 H   0  0  0  0  0  0  0  0  0  0  0  0
    7.3714   -6.0624    7.0366 H   0  0  0  0  0  0  0  0  0  0  0  0
    5.6149   -6.0414    6.7413 H   0  0  0  0  0  0  0  0  0  0  0  0
    7.1418   -6.8562    9.1866 H   0  0  0  0  0  0  0  0  0  0  0  0
    7.3633   -4.9783   10.8238 H   0  0  0  0  0  0  0  0  0  0  0  0
    6.6420   -6.4370   11.5302 H   0  0  0  0  0  0  0  0  0  0  0  0
    5.1322   -3.9184   10.6198 H   0  0  0  0  0  0  0  0  0  0  0  0
    5.3877   -4.4234   12.2968 H   0  0  0  0  0  0  0  0  0  0  0  0
    3.0750   -5.0273   11.4743 H   0  0  0  0  0  0  0  0  0  0  0  0
    4.0031   -6.4569   11.9427 H   0  0  0  0  0  0  0  0  0  0  0  0
    3.5790   -5.4324    9.0742 H   0  0  0  0  0  0  0  0  0  0  0  0
    2.8571   -6.8856    9.7786 H   0  0  0  0  0  0  0  0  0  0  0  0
    4.8424   -7.4543    8.3443 H   0  0  0  0  0  0  0  0  0  0  0  0
    5.1185   -7.9243   10.0201 H   0  0  0  0  0  0  0  0  0  0  0  0
  1  2  1  0
  1 26  1  0
  1 27  1  0
  1 28  1  0
  2  3  1  0
  2  4  1  0
  2 29  1  1
  3 30  1  0
  3 31  1  0
  3 32  1  0
  4  5  2  0
  4  6  1  0
  6  7  1  0
  6 33  1  0
  7  8  2  0
  7 25  1  0
  8  9  1  0
  9 10  2  0
 10 11  1  0
 10 25  1  0
 11 12  2  0
 11 13  2  0
 11 14  1  6
 14 15  1  0
 14 34  1  0
 15 16  1  0
 15 35  1  0
 15 36  1  0
 16 17  1  0
 16 37  1  0
 16 38  1  0
 17 18  1  0
 17 39  1  0
 17 40  1  0
 18 19  1  0
 19 20  1  0
 19 24  1  0
 19 41  1  6
 20 21  1  0
 20 42  1  0
 20 43  1  0
 21 22  1  0
 21 44  1  0
 21 45  1  0
 22 23  1  0
 22 46  1  0
 22 47  1  0
 23 24  1  0
 23 48  1  0
 23 49  1  0
 24 50  1  0
 24 51  1  0
M  END

