
     RDKit          3D

 31 34  0  0  0  0  0  0  0  0999 V2000
    3.1277   -1.0105    0.6108 N   0  0  0  0  0  0  0  0  0  0  0  0
    2.2426    0.0092    0.0604 C   0  0  0  0  0  0  0  0  0  0  0  0
    2.7928    1.4189    0.2151 C   0  0  0  0  0  0  0  0  0  0  0  0
    4.1231    1.6108    0.6059 C   0  0  0  0  0  0  0  0  0  0  0  0
    4.6650    2.8864    0.7570 C   0  0  0  0  0  0  0  0  0  0  0  0
    3.8923    4.0326    0.5139 C   0  0  0  0  0  0  0  0  0  0  0  0
    4.4205    5.3629    0.6631 C   0  0  0  0  0  0  0  0  0  0  0  0
    3.6544    6.4632    0.4153 C   0  0  0  0  0  0  0  0  0  0  0  0
    2.2848    6.3360   -0.0087 C   0  0  0  0  0  0  0  0  0  0  0  0
    1.4758    7.4558   -0.2739 C   0  0  0  0  0  0  0  0  0  0  0  0
    0.1508    7.3014   -0.6870 C   0  0  0  0  0  0  0  0  0  0  0  0
   -0.3965    6.0281   -0.8454 C   0  0  0  0  0  0  0  0  0  0  0  0
    0.3741    4.8779   -0.5908 C   0  0  0  0  0  0  0  0  0  0  0  0
   -0.1518    3.5500   -0.7433 C   0  0  0  0  0  0  0  0  0  0  0  0
    0.6106    2.4467   -0.4881 C   0  0  0  0  0  0  0  0  0  0  0  0
    1.9809    2.5530   -0.0529 C   0  0  0  0  0  0  0  0  0  0  0  0
    2.5326    3.8673    0.0988 C   0  0  0  0  0  0  0  0  0  0  0  0
    1.7319    5.0241   -0.1657 C   0  0  0  0  0  0  0  0  0  0  0  0
    2.8044   -1.9390    0.3441 H   0  0  0  0  0  0  0  0  0  0  0  0
    3.1138   -0.9803    1.6312 H   0  0  0  0  0  0  0  0  0  0  0  0
    1.2186   -0.0210    0.4872 H   0  0  0  0  0  0  0  0  0  0  0  0
    2.1166   -0.2020   -1.0178 H   0  0  0  0  0  0  0  0  0  0  0  0
    4.7358    0.7261    0.7853 H   0  0  0  0  0  0  0  0  0  0  0  0
    5.7075    3.0016    1.0669 H   0  0  0  0  0  0  0  0  0  0  0  0
    5.4605    5.4736    0.9822 H   0  0  0  0  0  0  0  0  0  0  0  0
    4.0714    7.4670    0.5335 H   0  0  0  0  0  0  0  0  0  0  0  0
    1.8989    8.4567   -0.1530 H   0  0  0  0  0  0  0  0  0  0  0  0
   -0.4610    8.1845   -0.8884 H   0  0  0  0  0  0  0  0  0  0  0  0
   -1.4339    5.9120   -1.1706 H   0  0  0  0  0  0  0  0  0  0  0  0
   -1.1883    3.4358   -1.0727 H   0  0  0  0  0  0  0  0  0  0  0  0
    0.1681    1.4586   -0.6214 H   0  0  0  0  0  0  0  0  0  0  0  0
  1  2  1  0
  1 19  1  0
  1 20  1  0
  2  3  1  0
  2 21  1  0
  2 22  1  0
  3  4  2  0
  3 16  1  0
  4  5  1  0
  4 23  1  0
  5  6  2  0
  5 24  1  0
  6  7  1  0
  6 17  1  0
  7  8  2  0
  7 25  1  0
  8  9  1  0
  8 26  1  0
  9 10  2  0
  9 18  1  0
 10 11  1  0
 10 27  1  0
 11 12  2  0
 11 28  1  0
 12 13  1  0
 12 29  1  0
 13 14  2  0
 13 18  1  0
 14 15  1  0
 14 30  1  0
 15 16  2  0
 15 31  1  0
 16 17  1  0
 17 18  2  0
M  END

