
     RDKit          3D

 41 42  0  0  0  0  0  0  0  0999 V2000
    3.1188    9.8109   -0.3933 C   0  0  0  0  0  0  0  0  0  0  0  0
    2.1969    8.8218    0.3486 C   0  0  1  0  0  0  0  0  0  0  0  0
    0.7453    8.9351   -0.1396 C   0  0  0  0  0  0  0  0  0  0  0  0
    2.7110    7.4097    0.1935 C   0  0  0  0  0  0  0  0  0  0  0  0
    2.5396    6.6650   -0.8599 N   0  0  0  0  0  0  0  0  0  0  0  0
    3.1795    5.4481   -0.7662 C   0  0  0  0  0  0  0  0  0  0  0  0
    3.0853    4.4738   -1.9077 C   0  0  0  0  0  0  0  0  0  0  0  0
    3.6298    4.9583   -3.2638 C   0  0  0  0  0  0  0  0  0  0  0  0
    4.2634    4.2124   -3.9963 O   0  0  0  0  0  0  0  0  0  0  0  0
    3.3151    6.2336   -3.6012 N   0  0  0  0  0  0  0  0  0  0  0  0
    3.7681    6.8081   -4.8375 C   0  0  0  0  0  0  0  0  0  0  0  0
    3.5177    8.3155   -4.8292 C   0  0  0  0  0  0  0  0  0  0  0  0
    3.0006    8.8778   -3.8700 O   0  0  0  0  0  0  0  0  0  0  0  0
    3.8924    8.9908   -5.9468 N   0  0  0  0  0  0  0  0  0  0  0  0
    3.6593   10.4359   -6.0635 C   0  0  0  0  0  0  0  0  0  0  0  0
    3.8724   10.7101   -7.5566 C   0  0  0  0  0  0  0  0  0  0  0  0
    4.9132    9.6559   -7.9624 C   0  0  0  0  0  0  0  0  0  0  0  0
    4.4942    8.4183   -7.1562 C   0  0  0  0  0  0  0  0  0  0  0  0
    3.8620    5.2543    0.4085 C   0  0  0  0  0  0  0  0  0  0  0  0
    3.6907    6.6420    1.4308 S   0  0  0  0  0  0  0  0  0  0  0  0
    2.7688   10.8443   -0.2374 H   0  0  0  0  0  0  0  0  0  0  0  0
    3.1223    9.6029   -1.4745 H   0  0  0  0  0  0  0  0  0  0  0  0
    4.1540    9.7433   -0.0230 H   0  0  0  0  0  0  0  0  0  0  0  0
    2.2272    9.0638    1.4253 H   0  0  0  0  0  0  0  0  0  0  0  0
    0.6821    8.6902   -1.2102 H   0  0  0  0  0  0  0  0  0  0  0  0
    0.3751    9.9627    0.0031 H   0  0  0  0  0  0  0  0  0  0  0  0
    0.0801    8.2498    0.4084 H   0  0  0  0  0  0  0  0  0  0  0  0
    2.0241    4.2085   -2.0663 H   0  0  0  0  0  0  0  0  0  0  0  0
    3.6224    3.5456   -1.6763 H   0  0  0  0  0  0  0  0  0  0  0  0
    2.8421    6.8471   -2.9323 H   0  0  0  0  0  0  0  0  0  0  0  0
    3.2592    6.3540   -5.7100 H   0  0  0  0  0  0  0  0  0  0  0  0
    4.8420    6.5972   -4.9932 H   0  0  0  0  0  0  0  0  0  0  0  0
    4.3792   10.9922   -5.4358 H   0  0  0  0  0  0  0  0  0  0  0  0
    2.6535   10.6905   -5.6988 H   0  0  0  0  0  0  0  0  0  0  0  0
    4.1981   11.7417   -7.7551 H   0  0  0  0  0  0  0  0  0  0  0  0
    2.9321   10.5457   -8.1093 H   0  0  0  0  0  0  0  0  0  0  0  0
    5.9209    9.9801   -7.6531 H   0  0  0  0  0  0  0  0  0  0  0  0
    4.9445    9.4605   -9.0444 H   0  0  0  0  0  0  0  0  0  0  0  0
    5.3468    7.7641   -6.9155 H   0  0  0  0  0  0  0  0  0  0  0  0
    3.7589    7.8081   -7.7140 H   0  0  0  0  0  0  0  0  0  0  0  0
    4.4345    4.3821    0.7184 H   0  0  0  0  0  0  0  0  0  0  0  0
  1  2  1  0
  1 21  1  0
  1 22  1  0
  1 23  1  0
  2  3  1  0
  2  4  1  0
  2 24  1  1
  3 25  1  0
  3 26  1  0
  3 27  1  0
  4  5  2  0
  4 20  1  0
  5  6  1  0
  6  7  1  0
  6 19  2  0
  7  8  1  0
  7 28  1  0
  7 29  1  0
  8  9  2  0
  8 10  1  0
 10 11  1  0
 10 30  1  0
 11 12  1  0
 11 31  1  0
 11 32  1  0
 12 13  2  0
 12 14  1  0
 14 15  1  0
 14 18  1  0
 15 16  1  0
 15 33  1  0
 15 34  1  0
 16 17  1  0
 16 35  1  0
 16 36  1  0
 17 18  1  0
 17 37  1  0
 17 38  1  0
 18 39  1  0
 18 40  1  0
 19 20  1  0
 19 41  1  0
M  END

