
     RDKit          3D

 49 53  0  0  0  0  0  0  0  0999 V2000
    1.1597    2.5214   -0.6855 C   0  0  0  0  0  0  0  0  0  0  0  0
    2.4641    1.8905   -0.3260 C   0  0  0  0  0  0  0  0  0  0  0  0
    3.6417    2.1044   -0.8905 N   0  0  0  0  0  0  0  0  0  0  0  0
    4.4898    1.2681   -0.2159 C   0  0  0  0  0  0  0  0  0  0  0  0
    5.9747    1.1327   -0.4524 C   0  0  1  0  0  0  0  0  0  0  0  0
    6.3536    0.6030   -1.8475 C   0  0  0  0  0  0  0  0  0  0  0  0
    6.1950    1.6414   -2.8553 N   0  0  0  0  0  0  0  0  0  0  0  0
    5.3773    1.4037   -3.9369 C   0  0  0  0  0  0  0  0  0  0  0  0
    4.8856    0.2976   -4.1340 O   0  0  0  0  0  0  0  0  0  0  0  0
    5.0292    2.5503   -4.8392 C   0  0  1  0  0  0  0  0  0  0  0  0
    4.6089    2.2633   -6.2658 C   0  0  0  0  0  0  0  0  0  0  0  0
    3.5606    2.6085   -5.2612 C   0  0  2  0  0  0  0  0  0  0  0  0
    2.8162    3.9049   -5.2034 C   0  0  0  0  0  0  0  0  0  0  0  0
    2.5138    4.6716   -6.3387 C   0  0  0  0  0  0  0  0  0  0  0  0
    1.7793    5.8549   -6.2234 C   0  0  0  0  0  0  0  0  0  0  0  0
    1.3332    6.2948   -4.9750 C   0  0  0  0  0  0  0  0  0  0  0  0
    1.6467    5.5391   -3.8255 C   0  0  0  0  0  0  0  0  0  0  0  0
    2.3792    4.3596   -3.9492 C   0  0  0  0  0  0  0  0  0  0  0  0
    1.2418    5.9364   -2.5762 O   0  0  0  0  0  0  0  0  0  0  0  0
    0.8221    7.2900   -2.4993 C   0  0  0  0  0  0  0  0  0  0  0  0
   -0.0854    7.6272   -3.6710 C   0  0  0  0  0  0  0  0  0  0  0  0
    0.6056    7.4519   -4.8964 O   0  0  0  0  0  0  0  0  0  0  0  0
    6.9350    2.8539   -2.5319 C   0  0  0  0  0  0  0  0  0  0  0  0
    6.5454    3.3549   -1.1411 C   0  0  0  0  0  0  0  0  0  0  0  0
    6.6857    2.3355   -0.1640 O   0  0  0  0  0  0  0  0  0  0  0  0
    3.8981    0.5535    0.7310 N   0  0  0  0  0  0  0  0  0  0  0  0
    2.6158    0.9559    0.6441 N   0  0  0  0  0  0  0  0  0  0  0  0
    1.9149    0.5653    1.2637 H   0  0  0  0  0  0  0  0  0  0  0  0
    1.2905    3.5956   -0.8794 H   0  0  0  0  0  0  0  0  0  0  0  0
    0.4177    2.3932    0.1169 H   0  0  0  0  0  0  0  0  0  0  0  0
    0.7504    2.0714   -1.6048 H   0  0  0  0  0  0  0  0  0  0  0  0
    6.3243    0.4048    0.2939 H   0  0  0  0  0  0  0  0  0  0  0  0
    5.7356   -0.2552   -2.1366 H   0  0  0  0  0  0  0  0  0  0  0  0
    7.4111    0.2806   -1.8110 H   0  0  0  0  0  0  0  0  0  0  0  0
    5.4942    3.5209   -4.6720 H   0  0  0  0  0  0  0  0  0  0  0  0
    4.6618    1.2200   -6.5855 H   0  0  0  0  0  0  0  0  0  0  0  0
    4.8935    3.0057   -7.0163 H   0  0  0  0  0  0  0  0  0  0  0  0
    3.0006    1.7427   -4.8911 H   0  0  0  0  0  0  0  0  0  0  0  0
    2.8382    4.3343   -7.3256 H   0  0  0  0  0  0  0  0  0  0  0  0
    1.5254    6.4550   -7.0999 H   0  0  0  0  0  0  0  0  0  0  0  0
    2.6301    3.7995   -3.0452 H   0  0  0  0  0  0  0  0  0  0  0  0
    1.7025    7.9604   -2.5031 H   0  0  0  0  0  0  0  0  0  0  0  0
    0.2947    7.4100   -1.5415 H   0  0  0  0  0  0  0  0  0  0  0  0
   -0.4093    8.6778   -3.6312 H   0  0  0  0  0  0  0  0  0  0  0  0
   -0.9835    6.9807   -3.6448 H   0  0  0  0  0  0  0  0  0  0  0  0
    6.7566    3.6398   -3.2741 H   0  0  0  0  0  0  0  0  0  0  0  0
    8.0184    2.6242   -2.5459 H   0  0  0  0  0  0  0  0  0  0  0  0
    5.5098    3.7354   -1.1635 H   0  0  0  0  0  0  0  0  0  0  0  0
    7.2175    4.1705   -0.8312 H   0  0  0  0  0  0  0  0  0  0  0  0
  1  2  1  0
  1 29  1  0
  1 30  1  0
  1 31  1  0
  2  3  2  0
  2 27  1  0
  3  4  1  0
  4  5  1  0
  4 26  2  0
  5  6  1  0
  5 25  1  0
  5 32  1  1
  6  7  1  0
  6 33  1  0
  6 34  1  0
  7  8  1  0
  7 23  1  0
  8  9  2  0
  8 10  1  0
 10 11  1  0
 10 12  1  0
 10 35  1  6
 11 12  1  0
 11 36  1  0
 11 37  1  0
 12 13  1  0
 12 38  1  1
 13 14  2  0
 13 18  1  0
 14 15  1  0
 14 39  1  0
 15 16  2  0
 15 40  1  0
 16 17  1  0
 16 22  1  0
 17 18  2  0
 17 19  1  0
 18 41  1  0
 19 20  1  0
 20 21  1  0
 20 42  1  0
 20 43  1  0
 21 22  1  0
 21 44  1  0
 21 45  1  0
 23 24  1  0
 23 46  1  0
 23 47  1  0
 24 25  1  0
 24 48  1  0
 24 49  1  0
 26 27  1  0
 27 28  1  0
M  END

