
     RDKit          3D

 31 32  0  0  0  0  0  0  0  0999 V2000
    2.6123    0.0768   -1.3625 C   0  0  0  0  0  0  0  0  0  0  0  0
    2.4279    0.1288    0.1413 C   0  0  2  0  0  0  0  0  0  0  0  0
    1.0680    0.3094    0.4016 F   0  0  0  0  0  0  0  0  0  0  0  0
    3.2175    1.2602    0.8413 C   0  0  1  0  0  0  0  0  0  0  0  0
    3.4616    2.0783    0.1409 H   0  0  0  0  0  0  0  0  0  0  0  0
    2.5241    1.7547    1.9699 O   0  0  0  0  0  0  0  0  0  0  0  0
    4.4771    0.5285    1.3114 C   0  0  1  0  0  0  0  0  0  0  0  0
    5.1945    0.4872    0.4688 H   0  0  0  0  0  0  0  0  0  0  0  0
    5.1532    1.1625    2.5328 C   0  0  0  0  0  0  0  0  0  0  0  0
    5.3142    2.5509    2.3695 O   0  0  0  0  0  0  0  0  0  0  0  0
    4.0403   -0.7893    1.6496 O   0  0  0  0  0  0  0  0  0  0  0  0
    2.9502   -1.1747    0.8497 C   0  0  1  0  0  0  0  0  0  0  0  0
    3.2478   -1.9147    0.0925 H   0  0  0  0  0  0  0  0  0  0  0  0
    1.9479   -1.8436    1.6662 N   0  0  0  0  0  0  0  0  0  0  0  0
    1.5684   -1.3255    2.8875 C   0  0  0  0  0  0  0  0  0  0  0  0
    0.6500   -1.9203    3.6823 C   0  0  0  0  0  0  0  0  0  0  0  0
    0.0017   -3.1566    3.2570 C   0  0  0  0  0  0  0  0  0  0  0  0
   -0.8317   -3.7902    3.8711 O   0  0  0  0  0  0  0  0  0  0  0  0
    0.4362   -3.5896    1.9843 N   0  0  0  0  0  0  0  0  0  0  0  0
   -0.0014   -4.4358    1.6271 H   0  0  0  0  0  0  0  0  0  0  0  0
    1.3548   -3.0026    1.1398 C   0  0  0  0  0  0  0  0  0  0  0  0
    1.6280   -3.4426    0.0402 O   0  0  0  0  0  0  0  0  0  0  0  0
    3.6787   -0.0160   -1.6207 H   0  0  0  0  0  0  0  0  0  0  0  0
    2.2176    0.9915   -1.8290 H   0  0  0  0  0  0  0  0  0  0  0  0
    2.0822   -0.7951   -1.7737 H   0  0  0  0  0  0  0  0  0  0  0  0
    1.5892    1.8407    1.7297 H   0  0  0  0  0  0  0  0  0  0  0  0
    4.5583    0.9051    3.4268 H   0  0  0  0  0  0  0  0  0  0  0  0
    6.1535    0.7220    2.6655 H   0  0  0  0  0  0  0  0  0  0  0  0
    4.4428    2.9503    2.5046 H   0  0  0  0  0  0  0  0  0  0  0  0
    2.0685   -0.3954    3.1589 H   0  0  0  0  0  0  0  0  0  0  0  0
    0.3690   -1.4986    4.6459 H   0  0  0  0  0  0  0  0  0  0  0  0
  1  2  1  0
  1 23  1  0
  1 24  1  0
  1 25  1  0
  2  3  1  6
  2  4  1  0
  2 12  1  0
  4  5  1  6
  4  6  1  0
  4  7  1  0
  6 26  1  0
  7  8  1  6
  7  9  1  0
  7 11  1  0
  9 10  1  0
  9 27  1  0
  9 28  1  0
 10 29  1  0
 11 12  1  0
 12 13  1  6
 12 14  1  0
 14 15  1  0
 14 21  1  0
 15 16  2  0
 15 30  1  0
 16 17  1  0
 16 31  1  0
 17 18  2  0
 17 19  1  0
 19 20  1  0
 19 21  1  0
 21 22  2  0
M  END

