
     RDKit          3D

 43 45  0  0  0  0  0  0  0  0999 V2000
    2.9581    0.5046    0.9742 C   0  0  0  0  0  0  0  0  0  0  0  0
    3.6981   -0.6781    1.5755 C   0  0  0  0  0  0  0  0  0  0  0  0
    3.7804   -1.7756    0.6426 O   0  0  0  0  0  0  0  0  0  0  0  0
    4.8090   -1.7812   -0.2409 C   0  0  0  0  0  0  0  0  0  0  0  0
    5.6375   -0.9041   -0.2882 O   0  0  0  0  0  0  0  0  0  0  0  0
    4.7969   -2.9878   -1.1037 C   0  0  0  0  0  0  0  0  0  0  0  0
    5.5381   -3.0451   -2.3443 C   0  0  0  0  0  0  0  0  0  0  0  0
    6.2312   -1.9340   -2.9983 C   0  0  0  0  0  0  0  0  0  0  0  0
    7.4574   -1.8454   -3.6064 C   0  0  0  0  0  0  0  0  0  0  0  0
    7.5584   -0.5108   -4.1168 C   0  0  0  0  0  0  0  0  0  0  0  0
    6.3877    0.1204   -3.7890 C   0  0  0  0  0  0  0  0  0  0  0  0
    5.8690    1.4968   -4.0114 C   0  0  0  0  0  0  0  0  0  0  0  0
    5.5777   -0.7430   -3.1203 O   0  0  0  0  0  0  0  0  0  0  0  0
    5.5080   -4.3012   -2.8962 C   0  0  0  0  0  0  0  0  0  0  0  0
    4.6070   -5.4466   -1.9625 S   0  0  0  0  0  0  0  0  0  0  0  0
    4.2119   -4.2186   -0.7820 C   0  0  0  0  0  0  0  0  0  0  0  0
    3.4385   -4.4653    0.3471 N   0  0  0  0  0  0  0  0  0  0  0  0
    2.8937   -5.6358    0.7577 C   0  0  0  0  0  0  0  0  0  0  0  0
    3.0005   -7.1119   -0.0079 S   0  0  0  0  0  0  0  0  0  0  0  0
    2.1613   -5.5872    1.9543 N   0  0  0  0  0  0  0  0  0  0  0  0
    1.9150   -4.5323    2.8134 C   0  0  0  0  0  0  0  0  0  0  0  0
    2.3350   -3.4015    2.6048 O   0  0  0  0  0  0  0  0  0  0  0  0
    1.1063   -4.8429    4.0135 C   0  0  0  0  0  0  0  0  0  0  0  0
    0.7574   -3.9095    4.9695 C   0  0  0  0  0  0  0  0  0  0  0  0
   -0.0212   -4.4569    6.0234 C   0  0  0  0  0  0  0  0  0  0  0  0
   -0.2577   -5.8023    5.8601 C   0  0  0  0  0  0  0  0  0  0  0  0
    0.4654   -6.4155    4.4218 S   0  0  0  0  0  0  0  0  0  0  0  0
    2.8482    1.2986    1.7306 H   0  0  0  0  0  0  0  0  0  0  0  0
    1.9521    0.2092    0.6376 H   0  0  0  0  0  0  0  0  0  0  0  0
    3.5110    0.9202    0.1189 H   0  0  0  0  0  0  0  0  0  0  0  0
    3.1630   -1.0981    2.4363 H   0  0  0  0  0  0  0  0  0  0  0  0
    4.7175   -0.3943    1.8745 H   0  0  0  0  0  0  0  0  0  0  0  0
    8.2055   -2.6334   -3.6547 H   0  0  0  0  0  0  0  0  0  0  0  0
    8.3981   -0.0691   -4.6495 H   0  0  0  0  0  0  0  0  0  0  0  0
    6.6039    2.0917   -4.5712 H   0  0  0  0  0  0  0  0  0  0  0  0
    5.6670    2.0061   -3.0539 H   0  0  0  0  0  0  0  0  0  0  0  0
    4.9252    1.4851   -4.5826 H   0  0  0  0  0  0  0  0  0  0  0  0
    5.9458   -4.6075   -3.8450 H   0  0  0  0  0  0  0  0  0  0  0  0
    3.2496   -3.6327    0.9295 H   0  0  0  0  0  0  0  0  0  0  0  0
    1.7854   -6.5041    2.1792 H   0  0  0  0  0  0  0  0  0  0  0  0
    1.0654   -2.8669    4.8911 H   0  0  0  0  0  0  0  0  0  0  0  0
   -0.3946   -3.8827    6.8722 H   0  0  0  0  0  0  0  0  0  0  0  0
   -0.8203   -6.4720    6.5098 H   0  0  0  0  0  0  0  0  0  0  0  0
  1  2  1  0
  1 28  1  0
  1 29  1  0
  1 30  1  0
  2  3  1  0
  2 31  1  0
  2 32  1  0
  3  4  1  0
  4  5  2  0
  4  6  1  0
  6  7  1  0
  6 16  2  0
  7  8  1  0
  7 14  2  0
  8  9  2  0
  8 13  1  0
  9 10  1  0
  9 33  1  0
 10 11  2  0
 10 34  1  0
 11 12  1  0
 11 13  1  0
 12 35  1  0
 12 36  1  0
 12 37  1  0
 14 15  1  0
 14 38  1  0
 15 16  1  0
 16 17  1  0
 17 18  1  0
 17 39  1  0
 18 19  2  0
 18 20  1  0
 20 21  1  0
 20 40  1  0
 21 22  2  0
 21 23  1  0
 23 24  2  0
 23 27  1  0
 24 25  1  0
 24 41  1  0
 25 26  2  0
 25 42  1  0
 26 27  1  0
 26 43  1  0
M  END

