
     RDKit          3D

 56 57  0  0  0  0  0  0  0  0999 V2000
    3.7176    2.4474    2.4048 C   0  0  0  0  0  0  0  0  0  0  0  0
    3.4410    1.3945    1.3264 C   0  0  0  0  0  0  0  0  0  0  0  0
    3.3769   -0.0642    1.8295 C   0  0  1  0  0  0  0  0  0  0  0  0
    4.7484   -0.5560    2.3058 C   0  0  0  0  0  0  0  0  0  0  0  0
    2.3368   -0.2735    2.9482 C   0  0  0  0  0  0  0  0  0  0  0  0
    0.9267    0.2982    2.7455 C   0  0  1  0  0  0  0  0  0  0  0  0
    0.0248   -0.4380    1.7296 C   0  0  0  0  0  0  0  0  0  0  0  0
   -1.4348   -0.3049    2.2137 C   0  0  2  0  0  0  0  0  0  0  0  0
   -2.2711    0.7416    1.5800 N   0  0  0  0  0  0  0  0  0  0  0  0
   -3.4093    0.3499    0.9011 C   0  0  0  0  0  0  0  0  0  0  0  0
   -4.2888    1.2023    0.3264 C   0  0  0  0  0  0  0  0  0  0  0  0
   -4.0706    2.6388    0.4154 C   0  0  0  0  0  0  0  0  0  0  0  0
   -4.7658    3.5205   -0.0444 O   0  0  0  0  0  0  0  0  0  0  0  0
   -2.8971    2.9475    1.1370 N   0  0  0  0  0  0  0  0  0  0  0  0
   -2.6817    3.9365    1.2398 H   0  0  0  0  0  0  0  0  0  0  0  0
   -1.9939    2.0951    1.7288 C   0  0  0  0  0  0  0  0  0  0  0  0
   -1.0141    2.5298    2.3232 O   0  0  0  0  0  0  0  0  0  0  0  0
   -1.3126   -0.1950    3.7652 C   0  0  2  0  0  0  0  0  0  0  0  0
   -2.3199    0.5545    4.3727 O   0  0  0  0  0  0  0  0  0  0  0  0
    0.1210    0.3600    4.0746 C   0  0  2  0  0  0  0  0  0  0  0  0
    0.0530    1.6552    4.6357 O   0  0  0  0  0  0  0  0  0  0  0  0
    3.0162   -0.9852    0.7366 O   0  0  0  0  0  0  0  0  0  0  0  0
    2.7438   -0.7163   -0.8403 P   0  0  1  0  0  0  0  0  0  0  0  0
    1.6347    0.2096   -1.1930 O   0  0  0  0  0  0  0  0  0  0  0  0
    4.1656   -0.1773   -1.4500 O   0  0  0  0  0  0  0  0  0  0  0  0
    2.5604   -2.4250   -1.4804 C   0  0  1  0  0  0  0  0  0  0  0  0
    3.7405   -3.3445   -1.1410 C   0  0  0  0  0  0  0  0  0  0  0  0
    1.2103   -3.0257   -1.0648 C   0  0  0  0  0  0  0  0  0  0  0  0
    3.7738    3.4452    1.9431 H   0  0  0  0  0  0  0  0  0  0  0  0
    4.6742    2.2755    2.9233 H   0  0  0  0  0  0  0  0  0  0  0  0
    2.9240    2.4863    3.1667 H   0  0  0  0  0  0  0  0  0  0  0  0
    4.2222    1.4530    0.5521 H   0  0  0  0  0  0  0  0  0  0  0  0
    2.4997    1.6321    0.8094 H   0  0  0  0  0  0  0  0  0  0  0  0
    5.1089    0.0292    3.1640 H   0  0  0  0  0  0  0  0  0  0  0  0
    5.4912   -0.4675    1.4974 H   0  0  0  0  0  0  0  0  0  0  0  0
    4.6922   -1.6121    2.6099 H   0  0  0  0  0  0  0  0  0  0  0  0
    2.7554    0.1857    3.8590 H   0  0  0  0  0  0  0  0  0  0  0  0
    2.2803   -1.3576    3.1514 H   0  0  0  0  0  0  0  0  0  0  0  0
    1.0173    1.3388    2.4123 H   0  0  0  0  0  0  0  0  0  0  0  0
    0.2692   -1.5134    1.7303 H   0  0  0  0  0  0  0  0  0  0  0  0
    0.1659   -0.0864    0.6980 H   0  0  0  0  0  0  0  0  0  0  0  0
   -1.9756   -1.2268    1.9688 H   0  0  0  0  0  0  0  0  0  0  0  0
   -3.5588   -0.7296    0.8513 H   0  0  0  0  0  0  0  0  0  0  0  0
   -5.1686    0.8416   -0.2036 H   0  0  0  0  0  0  0  0  0  0  0  0
   -1.3538   -1.2387    4.1338 H   0  0  0  0  0  0  0  0  0  0  0  0
   -1.8474    1.2686    4.8423 H   0  0  0  0  0  0  0  0  0  0  0  0
    0.5869   -0.2689    4.8500 H   0  0  0  0  0  0  0  0  0  0  0  0
   -0.2224    2.2416    3.9024 H   0  0  0  0  0  0  0  0  0  0  0  0
    4.9313   -0.6795   -1.1369 H   0  0  0  0  0  0  0  0  0  0  0  0
    2.5419   -2.2544   -2.5723 H   0  0  0  0  0  0  0  0  0  0  0  0
    3.8254   -3.4943   -0.0537 H   0  0  0  0  0  0  0  0  0  0  0  0
    4.6985   -2.9445   -1.5111 H   0  0  0  0  0  0  0  0  0  0  0  0
    3.6013   -4.3311   -1.6114 H   0  0  0  0  0  0  0  0  0  0  0  0
    1.1802   -3.2178    0.0194 H   0  0  0  0  0  0  0  0  0  0  0  0
    1.0451   -3.9841   -1.5827 H   0  0  0  0  0  0  0  0  0  0  0  0
    0.3825   -2.3482   -1.3196 H   0  0  0  0  0  0  0  0  0  0  0  0
  1  2  1  0
  1 29  1  0
  1 30  1  0
  1 31  1  0
  2  3  1  0
  2 32  1  0
  2 33  1  0
  3  4  1  0
  3  5  1  0
  3 22  1  6
  4 34  1  0
  4 35  1  0
  4 36  1  0
  5  6  1  0
  5 37  1  0
  5 38  1  0
  6  7  1  0
  6 20  1  0
  6 39  1  6
  7  8  1  0
  7 40  1  0
  7 41  1  0
  8  9  1  0
  8 18  1  0
  8 42  1  1
  9 10  1  0
  9 16  1  0
 10 11  2  0
 10 43  1  0
 11 12  1  0
 11 44  1  0
 12 13  2  0
 12 14  1  0
 14 15  1  0
 14 16  1  0
 16 17  2  0
 18 19  1  0
 18 20  1  0
 18 45  1  1
 19 46  1  0
 20 21  1  0
 20 47  1  1
 21 48  1  0
 23 22  1  1
 23 24  2  0
 23 25  1  0
 23 26  1  0
 25 49  1  0
 26 27  1  0
 26 28  1  0
 26 50  1  6
 27 51  1  0
 27 52  1  0
 27 53  1  0
 28 54  1  0
 28 55  1  0
 28 56  1  0
M  END

