
     RDKit          3D

 32 34  0  0  0  0  0  0  0  0999 V2000
    0.7893    0.6000    0.1269 O   0  0  0  0  0  0  0  0  0  0  0  0
    2.0007    0.4689    0.0123 C   0  0  0  0  0  0  0  0  0  0  0  0
    2.5958   -0.8302   -0.3132 C   0  0  0  0  0  0  0  0  0  0  0  0
    3.9425   -1.0197   -0.4434 C   0  0  0  0  0  0  0  0  0  0  0  0
    4.6255   -2.1714   -0.7315 N   0  0  0  0  0  0  0  0  0  0  0  0
    4.1795   -3.4098   -1.1599 C   0  0  0  0  0  0  0  0  0  0  0  0
    2.9509   -3.5694   -1.8436 C   0  0  0  0  0  0  0  0  0  0  0  0
    2.5077   -4.8078   -2.2895 C   0  0  0  0  0  0  0  0  0  0  0  0
    3.2866   -5.9437   -2.0610 C   0  0  0  0  0  0  0  0  0  0  0  0
    2.8557   -7.1353   -2.4858 F   0  0  0  0  0  0  0  0  0  0  0  0
    4.5042   -5.8461   -1.4119 C   0  0  0  0  0  0  0  0  0  0  0  0
    4.9504   -4.5937   -0.9722 C   0  0  0  0  0  0  0  0  0  0  0  0
    6.2624   -4.5859   -0.3091 N   0  0  0  0  0  0  0  0  0  0  0  0
    6.8332   -3.5073   -0.1612 O   0  0  0  0  0  0  0  0  0  0  0  0
    6.7257   -5.6528    0.0513 O   0  0  0  0  0  0  0  0  0  0  0  0
    4.8994    0.1326   -0.2044 C   0  0  0  0  0  0  0  0  0  0  0  0
    6.1000   -0.0667   -0.2682 O   0  0  0  0  0  0  0  0  0  0  0  0
    4.3207    1.4631    0.1036 C   0  0  0  0  0  0  0  0  0  0  0  0
    5.1773    2.5565    0.2990 C   0  0  0  0  0  0  0  0  0  0  0  0
    4.6452    3.8136    0.5863 C   0  0  0  0  0  0  0  0  0  0  0  0
    3.2576    3.9831    0.6829 C   0  0  0  0  0  0  0  0  0  0  0  0
    2.4008    2.8967    0.4930 C   0  0  0  0  0  0  0  0  0  0  0  0
    2.9259    1.6336    0.2021 C   0  0  0  0  0  0  0  0  0  0  0  0
    1.8734   -1.6379   -0.4159 H   0  0  0  0  0  0  0  0  0  0  0  0
    5.6347   -2.1085   -0.5590 H   0  0  0  0  0  0  0  0  0  0  0  0
    2.3505   -2.6900   -2.0639 H   0  0  0  0  0  0  0  0  0  0  0  0
    1.5628   -4.9031   -2.8279 H   0  0  0  0  0  0  0  0  0  0  0  0
    5.1209   -6.7254   -1.2337 H   0  0  0  0  0  0  0  0  0  0  0  0
    6.2545    2.3978    0.2202 H   0  0  0  0  0  0  0  0  0  0  0  0
    5.3120    4.6661    0.7366 H   0  0  0  0  0  0  0  0  0  0  0  0
    2.8440    4.9691    0.9094 H   0  0  0  0  0  0  0  0  0  0  0  0
    1.3165    2.9993    0.5674 H   0  0  0  0  0  0  0  0  0  0  0  0
  1  2  2  0
  2  3  1  0
  2 23  1  0
  3  4  2  0
  3 24  1  0
  4  5  1  0
  4 16  1  0
  5  6  1  0
  5 25  1  0
  6  7  2  0
  6 12  1  0
  7  8  1  0
  7 26  1  0
  8  9  2  0
  8 27  1  0
  9 10  1  0
  9 11  1  0
 11 12  2  0
 11 28  1  0
 12 13  1  0
 13 14  2  0
 13 15  1  0
 16 17  2  0
 16 18  1  0
 18 19  1  0
 18 23  2  0
 19 20  2  0
 19 29  1  0
 20 21  1  0
 20 30  1  0
 21 22  2  0
 21 31  1  0
 22 23  1  0
 22 32  1  0
M  CHG  2  13   1  15  -1
M  END

