
     RDKit          3D

 36 36  0  0  0  0  0  0  0  0999 V2000
    4.2950   -1.1228    0.7888 C   0  0  0  0  0  0  0  0  0  0  0  0
    3.4478   -0.0808    0.3606 O   0  0  0  0  0  0  0  0  0  0  0  0
    3.7489    0.5791   -0.7816 C   0  0  0  0  0  0  0  0  0  0  0  0
    4.8508    0.3283   -1.6105 C   0  0  0  0  0  0  0  0  0  0  0  0
    5.0563    1.0810   -2.7734 C   0  0  0  0  0  0  0  0  0  0  0  0
    4.1738    2.1007   -3.1456 C   0  0  0  0  0  0  0  0  0  0  0  0
    4.4131    2.9452   -4.3832 C   0  0  0  0  0  0  0  0  0  0  0  0
    4.8762    2.1381   -5.5049 N   0  0  0  0  0  0  0  0  0  0  0  0
    5.1554    2.8015   -6.7937 C   0  0  1  0  0  0  0  0  0  0  0  0
    3.8931    3.4344   -7.4218 C   0  0  0  0  0  0  0  0  0  0  0  0
    6.2273    3.8902   -6.6043 C   0  0  0  0  0  0  0  0  0  0  0  0
    5.6614    1.6983   -7.7637 C   0  0  0  0  0  0  0  0  0  0  0  0
    6.9238    0.9827   -7.3091 C   0  0  0  0  0  0  0  0  0  0  0  0
    7.4081   -0.4823   -8.5426 Br  0  0  0  0  0  0  0  0  0  0  0  0
    3.0648    2.3488   -2.3189 C   0  0  0  0  0  0  0  0  0  0  0  0
    2.8642    1.6066   -1.1653 C   0  0  0  0  0  0  0  0  0  0  0  0
    1.7999    1.8565   -0.3911 F   0  0  0  0  0  0  0  0  0  0  0  0
    3.8649   -1.5112    1.7215 H   0  0  0  0  0  0  0  0  0  0  0  0
    5.3204   -0.7629    0.9900 H   0  0  0  0  0  0  0  0  0  0  0  0
    4.3454   -1.9423    0.0490 H   0  0  0  0  0  0  0  0  0  0  0  0
    5.5598   -0.4591   -1.3533 H   0  0  0  0  0  0  0  0  0  0  0  0
    5.9184    0.8676   -3.4076 H   0  0  0  0  0  0  0  0  0  0  0  0
    5.1883    3.6974   -4.1543 H   0  0  0  0  0  0  0  0  0  0  0  0
    3.4875    3.5218   -4.5939 H   0  0  0  0  0  0  0  0  0  0  0  0
    4.2174    1.3736   -5.6577 H   0  0  0  0  0  0  0  0  0  0  0  0
    3.4721    4.2200   -6.7753 H   0  0  0  0  0  0  0  0  0  0  0  0
    3.1123    2.6733   -7.5854 H   0  0  0  0  0  0  0  0  0  0  0  0
    4.1203    3.8964   -8.3960 H   0  0  0  0  0  0  0  0  0  0  0  0
    5.8279    4.7629   -6.0655 H   0  0  0  0  0  0  0  0  0  0  0  0
    6.5851    4.2483   -7.5822 H   0  0  0  0  0  0  0  0  0  0  0  0
    7.0896    3.5106   -6.0358 H   0  0  0  0  0  0  0  0  0  0  0  0
    5.8271    2.1449   -8.7573 H   0  0  0  0  0  0  0  0  0  0  0  0
    4.8573    0.9531   -7.8925 H   0  0  0  0  0  0  0  0  0  0  0  0
    6.7975    0.5211   -6.3241 H   0  0  0  0  0  0  0  0  0  0  0  0
    7.8019    1.6389   -7.2894 H   0  0  0  0  0  0  0  0  0  0  0  0
    2.3359    3.1258   -2.5622 H   0  0  0  0  0  0  0  0  0  0  0  0
  1  2  1  0
  1 18  1  0
  1 19  1  0
  1 20  1  0
  2  3  1  0
  3  4  2  0
  3 16  1  0
  4  5  1  0
  4 21  1  0
  5  6  2  0
  5 22  1  0
  6  7  1  0
  6 15  1  0
  7  8  1  0
  7 23  1  0
  7 24  1  0
  9  8  1  1
  8 25  1  0
  9 10  1  0
  9 11  1  0
  9 12  1  0
 10 26  1  0
 10 27  1  0
 10 28  1  0
 11 29  1  0
 11 30  1  0
 11 31  1  0
 12 13  1  0
 12 32  1  0
 12 33  1  0
 13 14  1  0
 13 34  1  0
 13 35  1  0
 15 16  2  0
 15 36  1  0
 16 17  1  0
M  END

