
     RDKit          3D

 46 47  0  0  0  0  0  0  0  0999 V2000
   -0.6679    3.7835   -2.8855 C   0  0  0  0  0  0  0  0  0  0  0  0
   -0.5540    2.6687   -1.8520 C   0  0  1  0  0  0  0  0  0  0  0  0
    0.7950    2.4661   -1.4024 O   0  0  0  0  0  0  0  0  0  0  0  0
    1.7669    2.0363   -2.2603 C   0  0  0  0  0  0  0  0  0  0  0  0
    1.4906    1.2617   -3.3957 C   0  0  0  0  0  0  0  0  0  0  0  0
    2.5179    0.8894   -4.2641 C   0  0  0  0  0  0  0  0  0  0  0  0
    3.8322    1.3019   -4.0256 C   0  0  0  0  0  0  0  0  0  0  0  0
    4.1090    2.0737   -2.9004 C   0  0  0  0  0  0  0  0  0  0  0  0
    3.1023    2.4276   -1.9793 C   0  0  0  0  0  0  0  0  0  0  0  0
    3.4784    3.2161   -0.8025 C   0  0  0  0  0  0  0  0  0  0  0  0
    3.1383    3.0174    0.4913 C   0  0  0  0  0  0  0  0  0  0  0  0
    2.2297    1.6850    1.2043 S   0  0  0  0  0  0  0  0  0  0  0  0
    2.4455    2.3182    2.8526 C   0  0  0  0  0  0  0  0  0  0  0  0
    1.8281    1.5489    4.1545 S   0  0  0  0  0  0  0  0  0  0  0  0
    3.1757    3.5056    2.8168 N   0  0  0  0  0  0  0  0  0  0  0  0
    3.3826    4.3156    4.0443 C   0  0  1  0  0  0  0  0  0  0  0  0
    4.8700    4.4204    4.4707 C   0  0  0  0  0  0  0  0  0  0  0  0
    5.2205    4.0463    5.5580 O   0  0  0  0  0  0  0  0  0  0  0  0
    5.7124    5.0030    3.6160 O   0  0  0  0  0  0  0  0  0  0  0  0
    2.6747    5.6962    3.9670 C   0  0  1  0  0  0  0  0  0  0  0  0
    1.1758    5.5360    3.6787 C   0  0  0  0  0  0  0  0  0  0  0  0
    2.9030    6.4771    5.2690 C   0  0  0  0  0  0  0  0  0  0  0  0
    3.6097    3.9262    1.5616 C   0  0  0  0  0  0  0  0  0  0  0  0
    4.2970    4.9229    1.3770 O   0  0  0  0  0  0  0  0  0  0  0  0
   -1.4246    2.9858   -0.6200 C   0  0  0  0  0  0  0  0  0  0  0  0
   -2.5633    3.3452   -0.7522 O   0  0  0  0  0  0  0  0  0  0  0  0
   -0.8544    2.8236    0.5735 O   0  0  0  0  0  0  0  0  0  0  0  0
   -0.1450    3.5261   -3.8170 H   0  0  0  0  0  0  0  0  0  0  0  0
   -0.2412    4.7160   -2.4860 H   0  0  0  0  0  0  0  0  0  0  0  0
   -1.7309    3.9513   -3.1046 H   0  0  0  0  0  0  0  0  0  0  0  0
   -0.9575    1.7242   -2.2594 H   0  0  0  0  0  0  0  0  0  0  0  0
    0.4678    0.9518   -3.6111 H   0  0  0  0  0  0  0  0  0  0  0  0
    2.2821    0.2823   -5.1414 H   0  0  0  0  0  0  0  0  0  0  0  0
    4.6338    1.0263   -4.7137 H   0  0  0  0  0  0  0  0  0  0  0  0
    5.1326    2.4027   -2.7039 H   0  0  0  0  0  0  0  0  0  0  0  0
    4.1756    4.0478   -0.9615 H   0  0  0  0  0  0  0  0  0  0  0  0
    2.9183    3.7242    4.8429 H   0  0  0  0  0  0  0  0  0  0  0  0
    5.2698    5.1905    2.7555 H   0  0  0  0  0  0  0  0  0  0  0  0
    3.1273    6.2700    3.1420 H   0  0  0  0  0  0  0  0  0  0  0  0
    0.6733    4.9767    4.4845 H   0  0  0  0  0  0  0  0  0  0  0  0
    0.9760    5.0085    2.7328 H   0  0  0  0  0  0  0  0  0  0  0  0
    0.6966    6.5245    3.6059 H   0  0  0  0  0  0  0  0  0  0  0  0
    2.5227    5.9206    6.1411 H   0  0  0  0  0  0  0  0  0  0  0  0
    2.3724    7.4408    5.2259 H   0  0  0  0  0  0  0  0  0  0  0  0
    3.9674    6.6914    5.4465 H   0  0  0  0  0  0  0  0  0  0  0  0
    0.0651    2.5091    0.4739 H   0  0  0  0  0  0  0  0  0  0  0  0
  1  2  1  0
  1 28  1  0
  1 29  1  0
  1 30  1  0
  2  3  1  0
  2 25  1  0
  2 31  1  6
  3  4  1  0
  4  5  2  0
  4  9  1  0
  5  6  1  0
  5 32  1  0
  6  7  2  0
  6 33  1  0
  7  8  1  0
  7 34  1  0
  8  9  2  0
  8 35  1  0
  9 10  1  0
 10 11  2  0
 10 36  1  0
 11 12  1  0
 11 23  1  0
 12 13  1  0
 13 14  2  0
 13 15  1  0
 15 16  1  0
 15 23  1  0
 16 17  1  0
 16 20  1  0
 16 37  1  1
 17 18  2  0
 17 19  1  0
 19 38  1  0
 20 21  1  0
 20 22  1  0
 20 39  1  6
 21 40  1  0
 21 41  1  0
 21 42  1  0
 22 43  1  0
 22 44  1  0
 22 45  1  0
 23 24  2  0
 25 26  2  0
 25 27  1  0
 27 46  1  0
M  END

