
     RDKit          3D

 44 45  0  0  0  0  0  0  0  0999 V2000
    7.2835    2.2535    7.8382 C   0  0  0  0  0  0  0  0  0  0  0  0
    7.3084    3.6805    7.2797 C   0  0  1  0  0  0  0  0  0  0  0  0
    7.1131    4.7148    8.3949 C   0  0  0  0  0  0  0  0  0  0  0  0
    8.6056    3.9797    6.4879 C   0  0  0  0  0  0  0  0  0  0  0  0
    8.8103    3.1348    5.2497 C   0  0  0  0  0  0  0  0  0  0  0  0
    8.0783    3.3896    4.0773 C   0  0  0  0  0  0  0  0  0  0  0  0
    8.2412    2.6083    2.9329 C   0  0  0  0  0  0  0  0  0  0  0  0
    9.1465    1.5371    2.9245 C   0  0  0  0  0  0  0  0  0  0  0  0
    9.3833    0.7094    1.6748 C   0  0  2  0  0  0  0  0  0  0  0  0
    9.6978   -0.2999    1.9909 H   0  0  0  0  0  0  0  0  0  0  0  0
   10.4546    1.3225    0.7671 C   0  0  0  0  0  0  0  0  0  0  0  0
    8.1360    0.6125    0.9722 O   0  0  0  0  0  0  0  0  0  0  0  0
    7.8688   -0.4037    0.1246 C   0  0  0  0  0  0  0  0  0  0  0  0
    8.7348   -1.4776   -0.1553 C   0  0  0  0  0  0  0  0  0  0  0  0
    8.3349   -2.4788   -1.0383 C   0  0  0  0  0  0  0  0  0  0  0  0
    7.0887   -2.4359   -1.6789 C   0  0  0  0  0  0  0  0  0  0  0  0
    6.7396   -3.5567   -2.6095 C   0  0  0  0  0  0  0  0  0  0  0  0
    7.3400   -4.5996   -2.6459 O   0  0  0  0  0  0  0  0  0  0  0  0
    5.6923   -3.3488   -3.4447 O   0  0  0  0  0  0  0  0  0  0  0  0
    6.2265   -1.3632   -1.3835 C   0  0  0  0  0  0  0  0  0  0  0  0
    6.6064   -0.3617   -0.4991 C   0  0  0  0  0  0  0  0  0  0  0  0
    9.8779    1.2738    4.0891 C   0  0  0  0  0  0  0  0  0  0  0  0
    9.7145    2.0625    5.2312 C   0  0  0  0  0  0  0  0  0  0  0  0
    6.3376    2.0532    8.3668 H   0  0  0  0  0  0  0  0  0  0  0  0
    8.1053    2.0979    8.5592 H   0  0  0  0  0  0  0  0  0  0  0  0
    7.3890    1.5001    7.0425 H   0  0  0  0  0  0  0  0  0  0  0  0
    6.4635    3.7814    6.5728 H   0  0  0  0  0  0  0  0  0  0  0  0
    7.9387    4.6687    9.1260 H   0  0  0  0  0  0  0  0  0  0  0  0
    6.1743    4.5377    8.9441 H   0  0  0  0  0  0  0  0  0  0  0  0
    7.0801    5.7415    7.9951 H   0  0  0  0  0  0  0  0  0  0  0  0
    9.4690    3.8567    7.1650 H   0  0  0  0  0  0  0  0  0  0  0  0
    8.5914    5.0439    6.1950 H   0  0  0  0  0  0  0  0  0  0  0  0
    7.3677    4.2215    4.0585 H   0  0  0  0  0  0  0  0  0  0  0  0
    7.6549    2.8222    2.0373 H   0  0  0  0  0  0  0  0  0  0  0  0
   10.6142    0.7140   -0.1362 H   0  0  0  0  0  0  0  0  0  0  0  0
   11.4103    1.4001    1.3070 H   0  0  0  0  0  0  0  0  0  0  0  0
   10.1512    2.3343    0.4583 H   0  0  0  0  0  0  0  0  0  0  0  0
    9.7184   -1.5431    0.3089 H   0  0  0  0  0  0  0  0  0  0  0  0
    8.9946   -3.3219   -1.2526 H   0  0  0  0  0  0  0  0  0  0  0  0
    5.4019   -2.4277   -3.3999 H   0  0  0  0  0  0  0  0  0  0  0  0
    5.2237   -1.3101   -1.8192 H   0  0  0  0  0  0  0  0  0  0  0  0
    5.9367    0.4655   -0.2576 H   0  0  0  0  0  0  0  0  0  0  0  0
   10.5857    0.4392    4.1099 H   0  0  0  0  0  0  0  0  0  0  0  0
   10.2991    1.8365    6.1275 H   0  0  0  0  0  0  0  0  0  0  0  0
  1  2  1  0
  1 24  1  0
  1 25  1  0
  1 26  1  0
  2  3  1  0
  2  4  1  0
  2 27  1  6
  3 28  1  0
  3 29  1  0
  3 30  1  0
  4  5  1  0
  4 31  1  0
  4 32  1  0
  5  6  2  0
  5 23  1  0
  6  7  1  0
  6 33  1  0
  7  8  2  0
  7 34  1  0
  8  9  1  0
  8 22  1  0
  9 10  1  1
  9 11  1  0
  9 12  1  0
 11 35  1  0
 11 36  1  0
 11 37  1  0
 12 13  1  0
 13 14  2  0
 13 21  1  0
 14 15  1  0
 14 38  1  0
 15 16  2  0
 15 39  1  0
 16 17  1  0
 16 20  1  0
 17 18  2  0
 17 19  1  0
 19 40  1  0
 20 21  2  0
 20 41  1  0
 21 42  1  0
 22 23  2  0
 22 43  1  0
 23 44  1  0
M  END

