
     RDKit          3D

 66 70  0  0  0  0  0  0  0  0999 V2000
    2.1372   -0.5828    2.3640 C   0  0  0  0  0  0  0  0  0  0  0  0
    1.8275   -0.8786    0.9054 C   0  0  0  0  0  0  0  0  0  0  0  0
    2.4695   -2.0817    0.4485 O   0  0  0  0  0  0  0  0  0  0  0  0
    3.7516   -1.9774    0.0334 C   0  0  0  0  0  0  0  0  0  0  0  0
    4.3426   -0.9137    0.0356 O   0  0  0  0  0  0  0  0  0  0  0  0
    4.3872   -3.2275   -0.4409 C   0  0  0  0  0  0  0  0  0  0  0  0
    3.9212   -4.5157   -0.3509 C   0  0  0  0  0  0  0  0  0  0  0  0
    2.6038   -4.9696    0.2146 C   0  0  0  0  0  0  0  0  0  0  0  0
    4.6863   -5.6052   -0.7742 N   0  0  0  0  0  0  0  0  0  0  0  0
    5.9180   -5.3961   -1.0782 C   0  0  0  0  0  0  0  0  0  0  0  0
    7.0614   -6.6932   -1.4022 S   0  0  0  0  0  0  0  0  0  0  0  0
    8.4158   -5.5316   -1.5531 C   0  0  0  0  0  0  0  0  0  0  0  0
    9.6779   -5.9895   -1.8076 C   0  0  0  0  0  0  0  0  0  0  0  0
   10.9554   -5.3501   -1.9730 C   0  0  0  0  0  0  0  0  0  0  0  0
   11.3343   -3.9603   -1.9280 C   0  0  0  0  0  0  0  0  0  0  0  0
   12.6837   -3.8762   -2.1494 C   0  0  0  0  0  0  0  0  0  0  0  0
   13.5813   -2.6838   -2.2129 C   0  0  0  0  0  0  0  0  0  0  0  0
   13.1652   -5.1803   -2.3323 N   0  0  0  0  0  0  0  0  0  0  0  0
   14.5309   -5.5183   -2.5847 C   0  0  0  0  0  0  0  0  0  0  0  0
   15.4162   -5.7412   -1.5256 C   0  0  0  0  0  0  0  0  0  0  0  0
   16.7460   -6.0649   -1.7933 C   0  0  0  0  0  0  0  0  0  0  0  0
   17.2431   -6.1790   -3.1038 C   0  0  0  0  0  0  0  0  0  0  0  0
   18.6884   -6.5314   -3.3378 C   0  0  0  0  0  0  0  0  0  0  0  0
   16.3276   -5.9481   -4.1492 C   0  0  0  0  0  0  0  0  0  0  0  0
   16.9402   -6.0848   -6.1888 I   0  0  0  0  0  0  0  0  0  0  0  0
   14.9917   -5.6212   -3.9028 C   0  0  0  0  0  0  0  0  0  0  0  0
   12.1324   -6.0823   -2.2291 C   0  0  0  0  0  0  0  0  0  0  0  0
   12.3676   -7.5502   -2.3807 C   0  0  0  0  0  0  0  0  0  0  0  0
    7.9178   -4.1487   -1.3629 C   0  0  0  0  0  0  0  0  0  0  0  0
    8.5444   -3.1066   -1.3904 O   0  0  0  0  0  0  0  0  0  0  0  0
    6.5325   -4.1729   -1.1408 N   0  0  0  0  0  0  0  0  0  0  0  0
    5.7276   -2.9380   -1.1159 C   0  0  1  0  0  0  0  0  0  0  0  0
    6.2844   -2.2063   -0.5172 H   0  0  0  0  0  0  0  0  0  0  0  0
    5.5721   -2.3578   -2.5244 C   0  0  0  0  0  0  0  0  0  0  0  0
    4.7790   -3.0029   -3.4859 C   0  0  0  0  0  0  0  0  0  0  0  0
    4.6548   -2.4766   -4.7742 C   0  0  0  0  0  0  0  0  0  0  0  0
    5.3158   -1.2918   -5.1139 C   0  0  0  0  0  0  0  0  0  0  0  0
    6.1029   -0.6405   -4.1599 C   0  0  0  0  0  0  0  0  0  0  0  0
    6.2320   -1.1728   -2.8742 C   0  0  0  0  0  0  0  0  0  0  0  0
    1.5690    0.3016    2.6950 H   0  0  0  0  0  0  0  0  0  0  0  0
    3.2080   -0.3716    2.4987 H   0  0  0  0  0  0  0  0  0  0  0  0
    1.8576   -1.4310    3.0086 H   0  0  0  0  0  0  0  0  0  0  0  0
    2.1392   -0.0423    0.2629 H   0  0  0  0  0  0  0  0  0  0  0  0
    0.7537   -1.0656    0.7568 H   0  0  0  0  0  0  0  0  0  0  0  0
    2.0210   -4.1659    0.6665 H   0  0  0  0  0  0  0  0  0  0  0  0
    2.7934   -5.7700    0.9474 H   0  0  0  0  0  0  0  0  0  0  0  0
    2.0183   -5.4334   -0.5976 H   0  0  0  0  0  0  0  0  0  0  0  0
    9.7302   -7.0794   -1.9063 H   0  0  0  0  0  0  0  0  0  0  0  0
   10.6535   -3.1347   -1.7505 H   0  0  0  0  0  0  0  0  0  0  0  0
   12.9893   -1.7739   -2.0442 H   0  0  0  0  0  0  0  0  0  0  0  0
   14.0795   -2.5877   -3.1927 H   0  0  0  0  0  0  0  0  0  0  0  0
   14.3773   -2.7174   -1.4496 H   0  0  0  0  0  0  0  0  0  0  0  0
   15.0589   -5.6593   -0.4971 H   0  0  0  0  0  0  0  0  0  0  0  0
   17.4308   -6.2371   -0.9588 H   0  0  0  0  0  0  0  0  0  0  0  0
   19.2186   -6.6674   -2.3846 H   0  0  0  0  0  0  0  0  0  0  0  0
   19.2044   -5.7438   -3.9107 H   0  0  0  0  0  0  0  0  0  0  0  0
   18.7841   -7.4610   -3.9222 H   0  0  0  0  0  0  0  0  0  0  0  0
   14.2981   -5.4421   -4.7254 H   0  0  0  0  0  0  0  0  0  0  0  0
   12.7755   -7.7999   -3.3747 H   0  0  0  0  0  0  0  0  0  0  0  0
   11.4355   -8.1152   -2.2543 H   0  0  0  0  0  0  0  0  0  0  0  0
   13.0889   -7.9275   -1.6362 H   0  0  0  0  0  0  0  0  0  0  0  0
    4.2479   -3.9223   -3.2257 H   0  0  0  0  0  0  0  0  0  0  0  0
    4.0350   -2.9907   -5.5137 H   0  0  0  0  0  0  0  0  0  0  0  0
    5.2154   -0.8765   -6.1202 H   0  0  0  0  0  0  0  0  0  0  0  0
    6.6207    0.2871   -4.4176 H   0  0  0  0  0  0  0  0  0  0  0  0
    6.8517   -0.6680   -2.1303 H   0  0  0  0  0  0  0  0  0  0  0  0
  1  2  1  0
  1 40  1  0
  1 41  1  0
  1 42  1  0
  2  3  1  0
  2 43  1  0
  2 44  1  0
  3  4  1  0
  4  5  2  0
  4  6  1  0
  6  7  2  0
  6 32  1  0
  7  8  1  0
  7  9  1  0
  8 45  1  0
  8 46  1  0
  8 47  1  0
  9 10  2  0
 10 11  1  0
 10 31  1  0
 11 12  1  0
 12 13  2  0
 12 29  1  0
 13 14  1  0
 13 48  1  0
 14 15  1  0
 14 27  2  0
 15 16  2  0
 15 49  1  0
 16 17  1  0
 16 18  1  0
 17 50  1  0
 17 51  1  0
 17 52  1  0
 18 19  1  0
 18 27  1  0
 19 20  2  0
 19 26  1  0
 20 21  1  0
 20 53  1  0
 21 22  2  0
 21 54  1  0
 22 23  1  0
 22 24  1  0
 23 55  1  0
 23 56  1  0
 23 57  1  0
 24 25  1  0
 24 26  2  0
 26 58  1  0
 27 28  1  0
 28 59  1  0
 28 60  1  0
 28 61  1  0
 29 30  2  0
 29 31  1  0
 31 32  1  0
 32 33  1  1
 32 34  1  0
 34 35  2  0
 34 39  1  0
 35 36  1  0
 35 62  1  0
 36 37  2  0
 36 63  1  0
 37 38  1  0
 37 64  1  0
 38 39  2  0
 38 65  1  0
 39 66  1  0
M  END

