
     RDKit          3D

 57 60  0  0  0  0  0  0  0  0999 V2000
   -2.1104    3.0993   -0.8902 C   0  0  0  0  0  0  0  0  0  0  0  0
   -1.1062    3.6188    0.1458 C   0  0  1  0  0  0  0  0  0  0  0  0
   -1.6087    3.4526    1.5841 C   0  0  0  0  0  0  0  0  0  0  0  0
    0.2311    3.0183   -0.0495 N   0  0  0  0  0  0  0  0  0  0  0  0
    0.4050    1.6237    0.3491 C   0  0  0  0  0  0  0  0  0  0  0  0
    1.6357    0.9902   -0.2793 C   0  0  0  0  0  0  0  0  0  0  0  0
    2.8507    1.8804   -0.0471 C   0  0  0  0  0  0  0  0  0  0  0  0
    2.6520    3.2225   -0.7576 C   0  0  2  0  0  0  0  0  0  0  0  0
    3.6932    4.2126   -0.4752 N   0  0  0  0  0  0  0  0  0  0  0  0
    5.0001    3.7881    0.0230 C   0  0  0  0  0  0  0  0  0  0  0  0
    5.9795    3.3583   -1.0850 C   0  0  0  0  0  0  0  0  0  0  0  0
    6.1335    4.3751   -2.1369 N   0  0  0  0  0  0  0  0  0  0  0  0
    7.0433    5.4710   -1.8015 C   0  0  0  0  0  0  0  0  0  0  0  0
    8.4682    5.0265   -1.6562 C   0  0  0  0  0  0  0  0  0  0  0  0
    9.0680    4.7953   -0.5028 N   0  0  0  0  0  0  0  0  0  0  0  0
   10.3408    4.4505   -0.7873 N   0  0  0  0  0  0  0  0  0  0  0  0
   10.5507    4.4615   -2.0537 N   0  0  0  0  0  0  0  0  0  0  0  0
    9.3842    4.8172   -2.6441 N   0  0  0  0  0  0  0  0  0  0  0  0
    9.3011    4.9468   -4.0623 C   0  0  0  0  0  0  0  0  0  0  0  0
   10.4043    5.4552   -4.7609 C   0  0  0  0  0  0  0  0  0  0  0  0
   10.3351    5.5745   -6.1493 C   0  0  0  0  0  0  0  0  0  0  0  0
    9.1748    5.1989   -6.8355 C   0  0  0  0  0  0  0  0  0  0  0  0
    8.0826    4.6906   -6.1271 C   0  0  0  0  0  0  0  0  0  0  0  0
    8.1399    4.5525   -4.7374 C   0  0  0  0  0  0  0  0  0  0  0  0
    4.8166    4.8211   -2.6158 C   0  0  0  0  0  0  0  0  0  0  0  0
    3.8625    5.2558   -1.4913 C   0  0  0  0  0  0  0  0  0  0  0  0
    1.2498    3.8442   -0.4728 C   0  0  0  0  0  0  0  0  0  0  0  0
    1.0561    5.0304   -0.6989 O   0  0  0  0  0  0  0  0  0  0  0  0
   -3.0732    3.6236   -0.7813 H   0  0  0  0  0  0  0  0  0  0  0  0
   -2.3121    2.0209   -0.7761 H   0  0  0  0  0  0  0  0  0  0  0  0
   -1.7428    3.2750   -1.9128 H   0  0  0  0  0  0  0  0  0  0  0  0
   -0.9485    4.6885   -0.0409 H   0  0  0  0  0  0  0  0  0  0  0  0
   -1.8365    2.4034    1.8346 H   0  0  0  0  0  0  0  0  0  0  0  0
   -2.5367    4.0292    1.7228 H   0  0  0  0  0  0  0  0  0  0  0  0
   -0.8685    3.8277    2.3081 H   0  0  0  0  0  0  0  0  0  0  0  0
   -0.4982    1.0615    0.0621 H   0  0  0  0  0  0  0  0  0  0  0  0
    0.4814    1.5495    1.4512 H   0  0  0  0  0  0  0  0  0  0  0  0
    1.4751    0.8440   -1.3619 H   0  0  0  0  0  0  0  0  0  0  0  0
    1.7906   -0.0081    0.1599 H   0  0  0  0  0  0  0  0  0  0  0  0
    3.7643    1.3866   -0.4106 H   0  0  0  0  0  0  0  0  0  0  0  0
    2.9796    2.0431    1.0370 H   0  0  0  0  0  0  0  0  0  0  0  0
    2.6067    2.9872   -1.8467 H   0  0  0  0  0  0  0  0  0  0  0  0
    4.9015    2.9881    0.7682 H   0  0  0  0  0  0  0  0  0  0  0  0
    5.4364    4.6440    0.5704 H   0  0  0  0  0  0  0  0  0  0  0  0
    5.6157    2.4333   -1.5680 H   0  0  0  0  0  0  0  0  0  0  0  0
    6.9652    3.1307   -0.6510 H   0  0  0  0  0  0  0  0  0  0  0  0
    6.7983    5.9975   -0.8587 H   0  0  0  0  0  0  0  0  0  0  0  0
    6.9829    6.2161   -2.6109 H   0  0  0  0  0  0  0  0  0  0  0  0
   11.3013    5.7422   -4.2112 H   0  0  0  0  0  0  0  0  0  0  0  0
   11.1938    5.9688   -6.6980 H   0  0  0  0  0  0  0  0  0  0  0  0
    9.1251    5.2990   -7.9224 H   0  0  0  0  0  0  0  0  0  0  0  0
    7.1783    4.3848   -6.6591 H   0  0  0  0  0  0  0  0  0  0  0  0
    7.3063    4.1346   -4.1669 H   0  0  0  0  0  0  0  0  0  0  0  0
    4.3659    3.9782   -3.1716 H   0  0  0  0  0  0  0  0  0  0  0  0
    4.9569    5.6383   -3.3433 H   0  0  0  0  0  0  0  0  0  0  0  0
    2.8802    5.5334   -1.8898 H   0  0  0  0  0  0  0  0  0  0  0  0
    4.2581    6.1609   -0.9942 H   0  0  0  0  0  0  0  0  0  0  0  0
  1  2  1  0
  1 29  1  0
  1 30  1  0
  1 31  1  0
  2  3  1  0
  2  4  1  0
  2 32  1  6
  3 33  1  0
  3 34  1  0
  3 35  1  0
  4  5  1  0
  4 27  1  0
  5  6  1  0
  5 36  1  0
  5 37  1  0
  6  7  1  0
  6 38  1  0
  6 39  1  0
  7  8  1  0
  7 40  1  0
  7 41  1  0
  8  9  1  0
  8 27  1  0
  8 42  1  6
  9 10  1  0
  9 26  1  0
 10 11  1  0
 10 43  1  0
 10 44  1  0
 11 12  1  0
 11 45  1  0
 11 46  1  0
 12 13  1  0
 12 25  1  0
 13 14  1  0
 13 47  1  0
 13 48  1  0
 14 15  2  0
 14 18  1  0
 15 16  1  0
 16 17  2  0
 17 18  1  0
 18 19  1  0
 19 20  2  0
 19 24  1  0
 20 21  1  0
 20 49  1  0
 21 22  2  0
 21 50  1  0
 22 23  1  0
 22 51  1  0
 23 24  2  0
 23 52  1  0
 24 53  1  0
 25 26  1  0
 25 54  1  0
 25 55  1  0
 26 56  1  0
 26 57  1  0
 27 28  2  0
M  END

