
     RDKit          3D

 69 71  0  0  0  0  0  0  0  0999 V2000
    5.7932   -0.4899   -8.5426 C   0  0  0  0  0  0  0  0  0  0  0  0
    5.6572   -1.4108   -7.3294 C   0  0  0  0  0  0  0  0  0  0  0  0
    6.2925   -0.8441   -6.0559 C   0  0  0  0  0  0  0  0  0  0  0  0
    6.1628   -1.7641   -4.8390 C   0  0  0  0  0  0  0  0  0  0  0  0
    6.7988   -1.1921   -3.5680 C   0  0  0  0  0  0  0  0  0  0  0  0
    6.6660   -2.0940   -2.3455 C   0  0  0  0  0  0  0  0  0  0  0  0
    7.2896   -3.3765   -2.5296 O   0  0  0  0  0  0  0  0  0  0  0  0
    8.6141   -3.5827   -2.3019 C   0  0  0  0  0  0  0  0  0  0  0  0
    9.4904   -2.5447   -1.9439 C   0  0  0  0  0  0  0  0  0  0  0  0
   10.8450   -2.7911   -1.7278 C   0  0  0  0  0  0  0  0  0  0  0  0
   11.3420   -4.0880   -1.8709 C   0  0  0  0  0  0  0  0  0  0  0  0
   13.1968   -4.4310   -1.5860 Br  0  0  0  0  0  0  0  0  0  0  0  0
   10.4864   -5.1271   -2.2175 C   0  0  0  0  0  0  0  0  0  0  0  0
    9.1161   -4.9047   -2.4341 C   0  0  0  0  0  0  0  0  0  0  0  0
    8.3336   -6.1606   -2.7720 C   0  0  0  0  0  0  0  0  0  0  0  0
    8.8918   -7.2280   -2.8805 O   0  0  0  0  0  0  0  0  0  0  0  0
    6.9505   -5.9966   -2.8966 N   0  0  0  0  0  0  0  0  0  0  0  0
    6.0111   -6.9474   -3.2587 C   0  0  0  0  0  0  0  0  0  0  0  0
    6.2940   -8.3538   -4.0847 S   0  0  0  0  0  0  0  0  0  0  0  0
    4.7077   -6.6071   -2.9372 N   0  0  0  0  0  0  0  0  0  0  0  0
    4.1387   -5.6901   -2.0384 C   0  0  0  0  0  0  0  0  0  0  0  0
    2.7845   -5.3477   -2.2387 C   0  0  0  0  0  0  0  0  0  0  0  0
    2.1362   -4.4764   -1.3678 C   0  0  0  0  0  0  0  0  0  0  0  0
    2.8160   -3.9210   -0.2792 C   0  0  0  0  0  0  0  0  0  0  0  0
    4.1610   -4.2547   -0.0668 C   0  0  0  0  0  0  0  0  0  0  0  0
    4.9855   -3.5836    1.0090 C   0  0  0  0  0  0  0  0  0  0  0  0
    5.9923   -2.9611    0.6858 O   0  0  0  0  0  0  0  0  0  0  0  0
    4.5534   -3.6609    2.3067 N   0  0  0  0  0  0  0  0  0  0  0  0
    5.2859   -2.9294    3.3424 C   0  0  0  0  0  0  0  0  0  0  0  0
    4.3136   -2.2074    4.2814 C   0  0  0  0  0  0  0  0  0  0  0  0
    3.2532   -3.1484    4.8908 C   0  0  2  0  0  0  0  0  0  0  0  0
    3.8237   -4.0542    5.9920 C   0  0  0  0  0  0  0  0  0  0  0  0
    2.5741   -3.9449    3.7564 C   0  0  0  0  0  0  0  0  0  0  0  0
    3.5842   -4.6260    2.8263 C   0  0  0  0  0  0  0  0  0  0  0  0
    4.8169   -5.1335   -0.9393 C   0  0  0  0  0  0  0  0  0  0  0  0
    5.3259   -0.9289   -9.4384 H   0  0  0  0  0  0  0  0  0  0  0  0
    6.8522   -0.2958   -8.7818 H   0  0  0  0  0  0  0  0  0  0  0  0
    5.3129    0.4865   -8.3615 H   0  0  0  0  0  0  0  0  0  0  0  0
    6.1145   -2.3909   -7.5561 H   0  0  0  0  0  0  0  0  0  0  0  0
    4.5877   -1.6168   -7.1401 H   0  0  0  0  0  0  0  0  0  0  0  0
    5.8352    0.1366   -5.8251 H   0  0  0  0  0  0  0  0  0  0  0  0
    7.3626   -0.6375   -6.2442 H   0  0  0  0  0  0  0  0  0  0  0  0
    6.6237   -2.7409   -5.0675 H   0  0  0  0  0  0  0  0  0  0  0  0
    5.0936   -1.9720   -4.6471 H   0  0  0  0  0  0  0  0  0  0  0  0
    6.3200   -0.2296   -3.3106 H   0  0  0  0  0  0  0  0  0  0  0  0
    7.8614   -0.9606   -3.7564 H   0  0  0  0  0  0  0  0  0  0  0  0
    5.6113   -2.3364   -2.1550 H   0  0  0  0  0  0  0  0  0  0  0  0
    7.0488   -1.6313   -1.4249 H   0  0  0  0  0  0  0  0  0  0  0  0
    9.1196   -1.5276   -1.8301 H   0  0  0  0  0  0  0  0  0  0  0  0
   11.5096   -1.9710   -1.4507 H   0  0  0  0  0  0  0  0  0  0  0  0
   10.8470   -6.1501   -2.3281 H   0  0  0  0  0  0  0  0  0  0  0  0
    6.6269   -5.0386   -2.7478 H   0  0  0  0  0  0  0  0  0  0  0  0
    4.0538   -7.2288   -3.4042 H   0  0  0  0  0  0  0  0  0  0  0  0
    2.2476   -5.7693   -3.0926 H   0  0  0  0  0  0  0  0  0  0  0  0
    1.0896   -4.2180   -1.5475 H   0  0  0  0  0  0  0  0  0  0  0  0
    2.3097   -3.2210    0.3888 H   0  0  0  0  0  0  0  0  0  0  0  0
    5.9598   -2.2262    2.8389 H   0  0  0  0  0  0  0  0  0  0  0  0
    5.9221   -3.6372    3.9071 H   0  0  0  0  0  0  0  0  0  0  0  0
    3.8051   -1.4130    3.7082 H   0  0  0  0  0  0  0  0  0  0  0  0
    4.8864   -1.7062    5.0797 H   0  0  0  0  0  0  0  0  0  0  0  0
    2.4794   -2.5177    5.3621 H   0  0  0  0  0  0  0  0  0  0  0  0
    4.6127   -4.7294    5.6239 H   0  0  0  0  0  0  0  0  0  0  0  0
    3.0336   -4.6839    6.4321 H   0  0  0  0  0  0  0  0  0  0  0  0
    4.2623   -3.4536    6.8051 H   0  0  0  0  0  0  0  0  0  0  0  0
    1.9524   -3.2593    3.1546 H   0  0  0  0  0  0  0  0  0  0  0  0
    1.8953   -4.7074    4.1741 H   0  0  0  0  0  0  0  0  0  0  0  0
    3.0725   -5.1214    1.9934 H   0  0  0  0  0  0  0  0  0  0  0  0
    4.1318   -5.4157    3.3762 H   0  0  0  0  0  0  0  0  0  0  0  0
    5.8580   -5.3803   -0.7424 H   0  0  0  0  0  0  0  0  0  0  0  0
  1  2  1  0
  1 36  1  0
  1 37  1  0
  1 38  1  0
  2  3  1  0
  2 39  1  0
  2 40  1  0
  3  4  1  0
  3 41  1  0
  3 42  1  0
  4  5  1  0
  4 43  1  0
  4 44  1  0
  5  6  1  0
  5 45  1  0
  5 46  1  0
  6  7  1  0
  6 47  1  0
  6 48  1  0
  7  8  1  0
  8  9  2  0
  8 14  1  0
  9 10  1  0
  9 49  1  0
 10 11  2  0
 10 50  1  0
 11 12  1  0
 11 13  1  0
 13 14  2  0
 13 51  1  0
 14 15  1  0
 15 16  2  0
 15 17  1  0
 17 18  1  0
 17 52  1  0
 18 19  2  0
 18 20  1  0
 20 21  1  0
 20 53  1  0
 21 22  2  0
 21 35  1  0
 22 23  1  0
 22 54  1  0
 23 24  2  0
 23 55  1  0
 24 25  1  0
 24 56  1  0
 25 26  1  0
 25 35  2  0
 26 27  2  0
 26 28  1  0
 28 29  1  0
 28 34  1  0
 29 30  1  0
 29 57  1  0
 29 58  1  0
 30 31  1  0
 30 59  1  0
 30 60  1  0
 31 32  1  0
 31 33  1  0
 31 61  1  1
 32 62  1  0
 32 63  1  0
 32 64  1  0
 33 34  1  0
 33 65  1  0
 33 66  1  0
 34 67  1  0
 34 68  1  0
 35 69  1  0
M  END

