
     RDKit          3D

 43 45  0  0  0  0  0  0  0  0999 V2000
    1.6996    0.3557   -0.9735 C   0  0  0  0  0  0  0  0  0  0  0  0
    3.1322    0.1957   -1.4643 C   0  0  1  0  0  0  0  0  0  0  0  0
    3.8623    1.4687   -1.4330 N   0  0  0  0  0  0  0  0  0  0  0  0
    5.2202    1.0319   -1.4183 N   0  0  0  0  0  0  0  0  0  0  0  0
    5.3145    0.0062   -0.3734 C   0  0  2  0  0  0  0  0  0  0  0  0
    6.6574   -0.7136   -0.4023 C   0  0  0  0  0  0  0  0  0  0  0  0
    4.0247   -0.8235   -0.6585 C   0  0  2  0  0  0  0  0  0  0  0  0
    4.2604   -2.1242   -1.4303 C   0  0  0  0  0  0  0  0  0  0  0  0
    2.9955   -2.8066   -1.6450 N   0  0  0  0  0  0  0  0  0  0  0  0
    2.7532   -3.8102   -2.5275 C   0  0  0  0  0  0  0  0  0  0  0  0
    3.7551   -4.2755   -3.4559 C   0  0  0  0  0  0  0  0  0  0  0  0
    3.5477   -5.2150   -4.3274 N   0  0  0  0  0  0  0  0  0  0  0  0
    2.3594   -5.8144   -4.4076 N   0  0  0  0  0  0  0  0  0  0  0  0
    2.2827   -6.8719   -5.3799 C   0  0  0  0  0  0  0  0  0  0  0  0
    1.1058   -7.1288   -6.0977 C   0  0  0  0  0  0  0  0  0  0  0  0
    1.0809   -8.1465   -7.0525 C   0  0  0  0  0  0  0  0  0  0  0  0
    2.2275   -8.9067   -7.2934 C   0  0  0  0  0  0  0  0  0  0  0  0
    2.1904  -10.1824   -8.4887 Cl  0  0  0  0  0  0  0  0  0  0  0  0
    3.4056   -8.6552   -6.5846 C   0  0  0  0  0  0  0  0  0  0  0  0
    3.4287   -7.6405   -5.6295 C   0  0  0  0  0  0  0  0  0  0  0  0
    1.2440   -5.5164   -3.5520 C   0  0  0  0  0  0  0  0  0  0  0  0
    0.1887   -6.1163   -3.6453 O   0  0  0  0  0  0  0  0  0  0  0  0
    1.5297   -4.4566   -2.6079 C   0  0  0  0  0  0  0  0  0  0  0  0
    0.2361   -4.0029   -1.5341 Cl  0  0  0  0  0  0  0  0  0  0  0  0
    1.1865    1.1467   -1.5422 H   0  0  0  0  0  0  0  0  0  0  0  0
    1.6652    0.6246    0.0965 H   0  0  0  0  0  0  0  0  0  0  0  0
    1.1305   -0.5763   -1.1089 H   0  0  0  0  0  0  0  0  0  0  0  0
    3.1140   -0.1356   -2.5166 H   0  0  0  0  0  0  0  0  0  0  0  0
    3.6404    1.9145   -0.5281 H   0  0  0  0  0  0  0  0  0  0  0  0
    5.8421    1.8273   -1.2832 H   0  0  0  0  0  0  0  0  0  0  0  0
    5.1884    0.4588    0.6375 H   0  0  0  0  0  0  0  0  0  0  0  0
    6.8601   -1.1504   -1.3913 H   0  0  0  0  0  0  0  0  0  0  0  0
    6.7050   -1.5108    0.3557 H   0  0  0  0  0  0  0  0  0  0  0  0
    7.4727   -0.0055   -0.1815 H   0  0  0  0  0  0  0  0  0  0  0  0
    3.5429   -1.0775    0.3025 H   0  0  0  0  0  0  0  0  0  0  0  0
    4.9715   -2.7750   -0.8874 H   0  0  0  0  0  0  0  0  0  0  0  0
    4.7184   -1.8815   -2.4029 H   0  0  0  0  0  0  0  0  0  0  0  0
    2.2640   -2.6591   -0.9569 H   0  0  0  0  0  0  0  0  0  0  0  0
    4.7569   -3.8413   -3.4639 H   0  0  0  0  0  0  0  0  0  0  0  0
    0.2079   -6.5473   -5.9048 H   0  0  0  0  0  0  0  0  0  0  0  0
    0.1673   -8.3485   -7.6138 H   0  0  0  0  0  0  0  0  0  0  0  0
    4.2967   -9.2546   -6.7776 H   0  0  0  0  0  0  0  0  0  0  0  0
    4.3436   -7.4299   -5.0763 H   0  0  0  0  0  0  0  0  0  0  0  0
  1  2  1  0
  1 25  1  0
  1 26  1  0
  1 27  1  0
  2  3  1  0
  2  7  1  0
  2 28  1  6
  3  4  1  0
  3 29  1  0
  4  5  1  0
  4 30  1  0
  5  6  1  0
  5  7  1  0
  5 31  1  1
  6 32  1  0
  6 33  1  0
  6 34  1  0
  7  8  1  0
  7 35  1  1
  8  9  1  0
  8 36  1  0
  8 37  1  0
  9 10  1  0
  9 38  1  0
 10 11  1  0
 10 23  2  0
 11 12  2  0
 11 39  1  0
 12 13  1  0
 13 14  1  0
 13 21  1  0
 14 15  2  0
 14 20  1  0
 15 16  1  0
 15 40  1  0
 16 17  2  0
 16 41  1  0
 17 18  1  0
 17 19  1  0
 19 20  2  0
 19 42  1  0
 20 43  1  0
 21 22  2  0
 21 23  1  0
 23 24  1  0
M  END

