
     RDKit          3D

 43 45  0  0  0  0  0  0  0  0999 V2000
    7.3374    1.9324   -0.2660 C   0  0  0  0  0  0  0  0  0  0  0  0
    6.4377    1.5435   -1.4276 C   0  0  0  0  0  0  0  0  0  0  0  0
    5.2481    1.8141   -1.4462 O   0  0  0  0  0  0  0  0  0  0  0  0
    7.0522    0.8689   -2.4494 N   0  0  0  0  0  0  0  0  0  0  0  0
    6.2873    0.3376   -3.5696 C   0  0  0  0  0  0  0  0  0  0  0  0
    5.7419   -1.0506   -3.3395 C   0  0  0  0  0  0  0  0  0  0  0  0
    4.6125   -1.3951   -2.6269 C   0  0  0  0  0  0  0  0  0  0  0  0
    4.4143   -2.8004   -2.5507 C   0  0  0  0  0  0  0  0  0  0  0  0
    5.3944   -3.5265   -3.2041 C   0  0  0  0  0  0  0  0  0  0  0  0
    5.6173   -4.9719   -3.4809 C   0  0  0  0  0  0  0  0  0  0  0  0
    6.4198   -5.3085   -4.3477 O   0  0  0  0  0  0  0  0  0  0  0  0
    4.9286   -5.9173   -2.7682 N   0  0  0  0  0  0  0  0  0  0  0  0
    4.1049   -5.7474   -1.5640 C   0  0  0  0  0  0  0  0  0  0  0  0
    4.1085   -7.1617   -0.9974 C   0  0  1  0  0  0  0  0  0  0  0  0
    3.0526   -7.4665   -0.1277 O   0  0  0  0  0  0  0  0  0  0  0  0
    3.1616   -8.8294    0.2627 C   0  0  0  0  0  0  0  0  0  0  0  0
    3.2100   -9.7807   -0.9379 C   0  0  0  0  0  0  0  0  0  0  0  0
    4.2685   -9.4199   -1.8824 N   0  0  0  0  0  0  0  0  0  0  0  0
    4.3391  -10.3329   -3.0081 C   0  0  0  0  0  0  0  0  0  0  0  0
    4.0905   -8.0303   -2.2537 C   0  0  2  0  0  0  0  0  0  0  0  0
    5.1484   -7.3367   -3.1088 C   0  0  0  0  0  0  0  0  0  0  0  0
    6.5618   -2.4567   -3.9355 S   0  0  0  0  0  0  0  0  0  0  0  0
    7.0856    1.3032    0.6027 H   0  0  0  0  0  0  0  0  0  0  0  0
    7.1193    2.9732    0.0121 H   0  0  0  0  0  0  0  0  0  0  0  0
    8.4110    1.8281   -0.4817 H   0  0  0  0  0  0  0  0  0  0  0  0
    8.0067    0.5532   -2.3259 H   0  0  0  0  0  0  0  0  0  0  0  0
    6.9189    0.3604   -4.4710 H   0  0  0  0  0  0  0  0  0  0  0  0
    5.4452    1.0257   -3.7282 H   0  0  0  0  0  0  0  0  0  0  0  0
    3.9587   -0.6506   -2.1699 H   0  0  0  0  0  0  0  0  0  0  0  0
    3.5552   -3.2460   -2.0529 H   0  0  0  0  0  0  0  0  0  0  0  0
    3.0680   -5.4418   -1.7948 H   0  0  0  0  0  0  0  0  0  0  0  0
    4.5404   -5.0098   -0.8753 H   0  0  0  0  0  0  0  0  0  0  0  0
    5.0777   -7.3464   -0.4878 H   0  0  0  0  0  0  0  0  0  0  0  0
    2.2852   -9.0557    0.8874 H   0  0  0  0  0  0  0  0  0  0  0  0
    4.0743   -8.9684    0.8758 H   0  0  0  0  0  0  0  0  0  0  0  0
    2.2125   -9.7775   -1.4366 H   0  0  0  0  0  0  0  0  0  0  0  0
    3.3863  -10.8055   -0.5703 H   0  0  0  0  0  0  0  0  0  0  0  0
    4.5119  -11.3589   -2.6461 H   0  0  0  0  0  0  0  0  0  0  0  0
    5.1797  -10.0661   -3.6663 H   0  0  0  0  0  0  0  0  0  0  0  0
    3.4103  -10.3420   -3.6234 H   0  0  0  0  0  0  0  0  0  0  0  0
    3.0971   -7.8763   -2.7416 H   0  0  0  0  0  0  0  0  0  0  0  0
    5.0364   -7.4863   -4.1915 H   0  0  0  0  0  0  0  0  0  0  0  0
    6.1683   -7.6602   -2.8336 H   0  0  0  0  0  0  0  0  0  0  0  0
  1  2  1  0
  1 23  1  0
  1 24  1  0
  1 25  1  0
  2  3  2  0
  2  4  1  0
  4  5  1  0
  4 26  1  0
  5  6  1  0
  5 27  1  0
  5 28  1  0
  6  7  2  0
  6 22  1  0
  7  8  1  0
  7 29  1  0
  8  9  2  0
  8 30  1  0
  9 10  1  0
  9 22  1  0
 10 11  2  0
 10 12  1  0
 12 13  1  0
 12 21  1  0
 13 14  1  0
 13 31  1  0
 13 32  1  0
 14 15  1  0
 14 20  1  0
 14 33  1  1
 15 16  1  0
 16 17  1  0
 16 34  1  0
 16 35  1  0
 17 18  1  0
 17 36  1  0
 17 37  1  0
 18 19  1  0
 18 20  1  0
 19 38  1  0
 19 39  1  0
 19 40  1  0
 20 21  1  0
 20 41  1  6
 21 42  1  0
 21 43  1  0
M  END

