
     RDKit          3D

 51 53  0  0  0  0  0  0  0  0999 V2000
    0.6244    0.4935    0.7731 C   0  0  0  0  0  0  0  0  0  0  0  0
    0.4969    1.5123    1.9138 C   0  0  1  0  0  0  0  0  0  0  0  0
    1.0108    1.1043    2.8034 H   0  0  0  0  0  0  0  0  0  0  0  0
    1.1111    2.8076    1.5398 N   0  0  0  0  0  0  0  0  0  0  0  0
    2.7553    3.0909    1.6364 S   0  0  1  0  0  0  0  0  0  0  0  0
    3.4341    1.9327    1.0570 O   0  0  0  0  0  0  0  0  0  0  0  0
    2.9390    4.4527    1.1353 O   0  0  0  0  0  0  0  0  0  0  0  0
    3.1794    3.1227    3.3903 C   0  0  0  0  0  0  0  0  0  0  0  0
    3.1353    4.3410    4.0780 C   0  0  0  0  0  0  0  0  0  0  0  0
    3.4735    4.3707    5.4286 C   0  0  0  0  0  0  0  0  0  0  0  0
    3.8377    3.1963    6.1080 C   0  0  0  0  0  0  0  0  0  0  0  0
    4.1890    3.2303    7.4936 N   0  0  0  0  0  0  0  0  0  0  0  0
    5.6443    3.2802    7.8226 C   0  0  0  0  0  0  0  0  0  0  0  0
    6.3189    4.5966    7.5024 C   0  0  0  0  0  0  0  0  0  0  0  0
    6.2931    5.6490    8.4325 C   0  0  0  0  0  0  0  0  0  0  0  0
    6.8739    6.8840    8.1326 C   0  0  0  0  0  0  0  0  0  0  0  0
    7.4938    7.0827    6.8948 C   0  0  0  0  0  0  0  0  0  0  0  0
    7.5320    6.0411    5.9631 C   0  0  0  0  0  0  0  0  0  0  0  0
    6.9485    4.8074    6.2653 C   0  0  0  0  0  0  0  0  0  0  0  0
    3.8446    1.9633    5.4142 C   0  0  0  0  0  0  0  0  0  0  0  0
    4.0883    0.6119    6.0634 C   0  0  0  0  0  0  0  0  0  0  0  0
    4.2358   -0.3880    5.4064 O   0  0  0  0  0  0  0  0  0  0  0  0
    4.0809    0.5872    7.3991 O   0  0  0  0  0  0  0  0  0  0  0  0
    3.5439    1.9473    4.0446 C   0  0  0  0  0  0  0  0  0  0  0  0
   -0.9525    1.7584    2.3067 C   0  0  0  0  0  0  0  0  0  0  0  0
   -1.4534    1.2702    3.5220 C   0  0  0  0  0  0  0  0  0  0  0  0
   -2.7921    1.4668    3.8751 C   0  0  0  0  0  0  0  0  0  0  0  0
   -3.6487    2.1624    3.0179 C   0  0  0  0  0  0  0  0  0  0  0  0
   -3.1595    2.6563    1.8042 C   0  0  0  0  0  0  0  0  0  0  0  0
   -1.8238    2.4522    1.4493 C   0  0  0  0  0  0  0  0  0  0  0  0
    1.6805    0.3490    0.5093 H   0  0  0  0  0  0  0  0  0  0  0  0
    0.0866    0.8460   -0.1203 H   0  0  0  0  0  0  0  0  0  0  0  0
    0.1944   -0.4720    1.0811 H   0  0  0  0  0  0  0  0  0  0  0  0
    0.5888    3.6385    1.8101 H   0  0  0  0  0  0  0  0  0  0  0  0
    2.8748    5.2565    3.5435 H   0  0  0  0  0  0  0  0  0  0  0  0
    3.4804    5.3215    5.9669 H   0  0  0  0  0  0  0  0  0  0  0  0
    3.7146    4.0040    7.9575 H   0  0  0  0  0  0  0  0  0  0  0  0
    6.1318    2.4520    7.2896 H   0  0  0  0  0  0  0  0  0  0  0  0
    5.7310    3.0629    8.8987 H   0  0  0  0  0  0  0  0  0  0  0  0
    5.8229    5.4963    9.4094 H   0  0  0  0  0  0  0  0  0  0  0  0
    6.8507    7.6903    8.8701 H   0  0  0  0  0  0  0  0  0  0  0  0
    7.9527    8.0462    6.6596 H   0  0  0  0  0  0  0  0  0  0  0  0
    8.0211    6.1876    4.9968 H   0  0  0  0  0  0  0  0  0  0  0  0
    6.9880    3.9963    5.5331 H   0  0  0  0  0  0  0  0  0  0  0  0
    3.9400    1.5113    7.7355 H   0  0  0  0  0  0  0  0  0  0  0  0
    3.5991    0.9953    3.5143 H   0  0  0  0  0  0  0  0  0  0  0  0
   -0.7879    0.7283    4.2001 H   0  0  0  0  0  0  0  0  0  0  0  0
   -3.1649    1.0770    4.8259 H   0  0  0  0  0  0  0  0  0  0  0  0
   -4.6946    2.3192    3.2936 H   0  0  0  0  0  0  0  0  0  0  0  0
   -3.8234    3.1995    1.1266 H   0  0  0  0  0  0  0  0  0  0  0  0
   -1.4540    2.8347    0.4940 H   0  0  0  0  0  0  0  0  0  0  0  0
  1  2  1  0
  1 31  1  0
  1 32  1  0
  1 33  1  0
  2  3  1  1
  2  4  1  0
  2 25  1  0
  5  4  1  1
  4 34  1  0
  5  6  2  0
  5  7  2  0
  5  8  1  0
  8  9  2  0
  8 24  1  0
  9 10  1  0
  9 35  1  0
 10 11  2  0
 10 36  1  0
 11 12  1  0
 11 20  1  0
 12 13  1  0
 12 37  1  0
 13 14  1  0
 13 38  1  0
 13 39  1  0
 14 15  2  0
 14 19  1  0
 15 16  1  0
 15 40  1  0
 16 17  2  0
 16 41  1  0
 17 18  1  0
 17 42  1  0
 18 19  2  0
 18 43  1  0
 19 44  1  0
 20 21  1  0
 20 24  2  0
 21 22  2  0
 21 23  1  0
 23 45  1  0
 24 46  1  0
 25 26  2  0
 25 30  1  0
 26 27  1  0
 26 47  1  0
 27 28  2  0
 27 48  1  0
 28 29  1  0
 28 49  1  0
 29 30  2  0
 29 50  1  0
 30 51  1  0
M  END

