
     RDKit          3D

 38 39  0  0  0  0  0  0  0  0999 V2000
    0.9212   -0.2738    0.7150 C   0  0  0  0  0  0  0  0  0  0  0  0
    2.3033    0.0224    0.1336 C   0  0  1  0  0  0  0  0  0  0  0  0
    3.0818    1.1239    0.8892 C   0  0  0  0  0  0  0  0  0  0  0  0
    4.5578    0.7400    0.7049 C   0  0  2  0  0  0  0  0  0  0  0  0
    5.1562    1.2612   -0.6153 C   0  0  0  0  0  0  0  0  0  0  0  0
    4.4774   -0.7190    0.8315 N   0  0  0  0  0  0  0  0  0  0  0  0
    5.6616   -1.5293    0.6454 C   0  0  0  0  0  0  0  0  0  0  0  0
    6.7936   -1.1988    1.6211 C   0  0  0  0  0  0  0  0  0  0  0  0
    7.9985   -2.1609    1.5423 C   0  0  1  0  0  0  0  0  0  0  0  0
    8.6862   -2.1968    0.2479 N   0  0  0  0  0  0  0  0  0  0  0  0
    9.0031   -1.8453    2.6380 C   0  0  1  0  0  0  0  0  0  0  0  0
    8.8527   -2.4393    4.0161 C   0  0  0  0  0  0  0  0  0  0  0  0
    9.9705   -2.8940    3.1090 C   0  0  0  0  0  0  0  0  0  0  0  0
    3.2748   -1.1889    0.1510 C   0  0  0  0  0  0  0  0  0  0  0  0
    0.2828    0.6251    0.7075 H   0  0  0  0  0  0  0  0  0  0  0  0
    1.0001   -0.6205    1.7594 H   0  0  0  0  0  0  0  0  0  0  0  0
    0.3986   -1.0561    0.1401 H   0  0  0  0  0  0  0  0  0  0  0  0
    2.1698    0.3440   -0.9130 H   0  0  0  0  0  0  0  0  0  0  0  0
    2.8326    1.0872    1.9622 H   0  0  0  0  0  0  0  0  0  0  0  0
    2.8498    2.1370    0.5247 H   0  0  0  0  0  0  0  0  0  0  0  0
    5.1645    1.1415    1.5351 H   0  0  0  0  0  0  0  0  0  0  0  0
    4.5825    0.9208   -1.4929 H   0  0  0  0  0  0  0  0  0  0  0  0
    6.1974    0.9270   -0.7491 H   0  0  0  0  0  0  0  0  0  0  0  0
    5.1622    2.3632   -0.6257 H   0  0  0  0  0  0  0  0  0  0  0  0
    6.0442   -1.4814   -0.4023 H   0  0  0  0  0  0  0  0  0  0  0  0
    5.3641   -2.5824    0.8023 H   0  0  0  0  0  0  0  0  0  0  0  0
    6.3809   -1.2124    2.6441 H   0  0  0  0  0  0  0  0  0  0  0  0
    7.1616   -0.1710    1.4463 H   0  0  0  0  0  0  0  0  0  0  0  0
    7.6225   -3.1860    1.7245 H   0  0  0  0  0  0  0  0  0  0  0  0
    9.0452   -1.2684    0.0159 H   0  0  0  0  0  0  0  0  0  0  0  0
    8.0412   -2.4484   -0.5007 H   0  0  0  0  0  0  0  0  0  0  0  0
    9.3849   -0.8164    2.5983 H   0  0  0  0  0  0  0  0  0  0  0  0
    8.0182   -3.1270    4.1870 H   0  0  0  0  0  0  0  0  0  0  0  0
    9.1002   -1.8192    4.8826 H   0  0  0  0  0  0  0  0  0  0  0  0
    9.8952   -3.8841    2.6500 H   0  0  0  0  0  0  0  0  0  0  0  0
   10.9935   -2.5913    3.3498 H   0  0  0  0  0  0  0  0  0  0  0  0
    2.8488   -2.0568    0.6888 H   0  0  0  0  0  0  0  0  0  0  0  0
    3.4785   -1.5365   -0.8868 H   0  0  0  0  0  0  0  0  0  0  0  0
  1  2  1  0
  1 15  1  0
  1 16  1  0
  1 17  1  0
  2  3  1  0
  2 14  1  0
  2 18  1  6
  3  4  1  0
  3 19  1  0
  3 20  1  0
  4  5  1  0
  4  6  1  0
  4 21  1  1
  5 22  1  0
  5 23  1  0
  5 24  1  0
  6  7  1  0
  6 14  1  0
  7  8  1  0
  7 25  1  0
  7 26  1  0
  8  9  1  0
  8 27  1  0
  8 28  1  0
  9 10  1  0
  9 11  1  0
  9 29  1  1
 10 30  1  0
 10 31  1  0
 11 12  1  0
 11 13  1  0
 11 32  1  1
 12 13  1  0
 12 33  1  0
 12 34  1  0
 13 35  1  0
 13 36  1  0
 14 37  1  0
 14 38  1  0
M  END

