
     RDKit          3D

 39 41  0  0  0  0  0  0  0  0999 V2000
    2.1706   -1.1743    2.0939 C   0  0  0  0  0  0  0  0  0  0  0  0
    2.6914   -0.3052    0.9390 C   0  0  1  0  0  0  0  0  0  0  0  0
    3.2611    0.9459    1.4374 N   0  0  0  0  0  0  0  0  0  0  0  0
    2.7889    2.1720    1.0251 C   0  0  0  0  0  0  0  0  0  0  0  0
    1.8020    2.2982    0.3031 O   0  0  0  0  0  0  0  0  0  0  0  0
    3.4810    3.2550    1.5091 N   0  0  0  0  0  0  0  0  0  0  0  0
    3.1789    4.6149    1.0942 C   0  0  0  0  0  0  0  0  0  0  0  0
    1.8156    5.1569    1.5719 C   0  0  0  0  0  0  0  0  0  0  0  0
    1.6011    5.0629    3.0467 C   0  0  0  0  0  0  0  0  0  0  0  0
    2.0720    5.8987    3.9525 N   0  0  0  0  0  0  0  0  0  0  0  0
    1.6882    5.5004    5.1902 N   0  0  0  0  0  0  0  0  0  0  0  0
    0.9669    4.3996    5.0426 C   0  0  0  0  0  0  0  0  0  0  0  0
    0.3033    3.5707    5.9883 C   0  0  0  0  0  0  0  0  0  0  0  0
   -0.3895    2.4752    5.5389 C   0  0  0  0  0  0  0  0  0  0  0  0
   -0.4355    2.1664    4.1398 C   0  0  0  0  0  0  0  0  0  0  0  0
    0.2031    2.9594    3.2283 C   0  0  0  0  0  0  0  0  0  0  0  0
    0.8854    4.0685    3.6828 N   0  0  0  0  0  0  0  0  0  0  0  0
    3.6723   -1.0375    0.0709 C   0  0  0  0  0  0  0  0  0  0  0  0
    3.7007   -1.3694   -1.2552 C   0  0  0  0  0  0  0  0  0  0  0  0
    4.9380   -2.0656   -1.4746 C   0  0  0  0  0  0  0  0  0  0  0  0
    5.5697   -2.1006   -0.2663 C   0  0  0  0  0  0  0  0  0  0  0  0
    4.8116   -1.4829    0.6789 O   0  0  0  0  0  0  0  0  0  0  0  0
    1.4419   -0.6086    2.6937 H   0  0  0  0  0  0  0  0  0  0  0  0
    2.9958   -1.4872    2.7531 H   0  0  0  0  0  0  0  0  0  0  0  0
    1.6847   -2.0835    1.7073 H   0  0  0  0  0  0  0  0  0  0  0  0
    1.8528   -0.0029    0.2968 H   0  0  0  0  0  0  0  0  0  0  0  0
    4.1638    0.8861    1.8948 H   0  0  0  0  0  0  0  0  0  0  0  0
    4.2368    3.1146    2.1669 H   0  0  0  0  0  0  0  0  0  0  0  0
    3.2113    4.6845   -0.0062 H   0  0  0  0  0  0  0  0  0  0  0  0
    3.9783    5.2559    1.4937 H   0  0  0  0  0  0  0  0  0  0  0  0
    1.0175    4.6281    1.0331 H   0  0  0  0  0  0  0  0  0  0  0  0
    1.7598    6.2199    1.2896 H   0  0  0  0  0  0  0  0  0  0  0  0
    0.3672    3.8386    7.0435 H   0  0  0  0  0  0  0  0  0  0  0  0
   -0.9094    1.8256    6.2465 H   0  0  0  0  0  0  0  0  0  0  0  0
   -0.9788    1.2887    3.7859 H   0  0  0  0  0  0  0  0  0  0  0  0
    0.2375    2.7626    2.1551 H   0  0  0  0  0  0  0  0  0  0  0  0
    2.9315   -1.1390   -1.9892 H   0  0  0  0  0  0  0  0  0  0  0  0
    5.3056   -2.4823   -2.4101 H   0  0  0  0  0  0  0  0  0  0  0  0
    6.5182   -2.5103    0.0714 H   0  0  0  0  0  0  0  0  0  0  0  0
  1  2  1  0
  1 23  1  0
  1 24  1  0
  1 25  1  0
  2  3  1  0
  2 18  1  0
  2 26  1  6
  3  4  1  0
  3 27  1  0
  4  5  2  0
  4  6  1  0
  6  7  1  0
  6 28  1  0
  7  8  1  0
  7 29  1  0
  7 30  1  0
  8  9  1  0
  8 31  1  0
  8 32  1  0
  9 10  2  0
  9 17  1  0
 10 11  1  0
 11 12  2  0
 12 13  1  0
 12 17  1  0
 13 14  2  0
 13 33  1  0
 14 15  1  0
 14 34  1  0
 15 16  2  0
 15 35  1  0
 16 17  1  0
 16 36  1  0
 18 19  2  0
 18 22  1  0
 19 20  1  0
 19 37  1  0
 20 21  2  0
 20 38  1  0
 21 22  1  0
 21 39  1  0
M  END

