
     RDKit          3D

 45 46  0  0  0  0  0  0  0  0999 V2000
    2.3409    1.5212   -0.3057 C   0  0  0  0  0  0  0  0  0  0  0  0
    2.1229    0.0418    0.0491 C   0  0  1  0  0  0  0  0  0  0  0  0
    1.1771   -0.5822   -0.9827 C   0  0  0  0  0  0  0  0  0  0  0  0
    3.4201   -0.6566    0.1211 N   0  0  0  0  0  0  0  0  0  0  0  0
    4.2471   -0.2956    1.2697 C   0  0  0  0  0  0  0  0  0  0  0  0
    3.8615   -1.0201    2.5779 C   0  0  0  0  0  0  0  0  0  0  0  0
    3.8008   -2.5542    2.4464 C   0  0  2  0  0  0  0  0  0  0  0  0
    5.1384   -3.2105    2.3877 N   0  0  0  0  0  0  0  0  0  0  0  0
    6.3030   -2.4903    2.8972 C   0  0  0  0  0  0  0  0  0  0  0  0
    5.1142   -4.5971    2.4441 C   0  0  0  0  0  0  0  0  0  0  0  0
    4.0814   -5.2184    2.6575 O   0  0  0  0  0  0  0  0  0  0  0  0
    6.3907   -5.3537    2.1656 C   0  0  0  0  0  0  0  0  0  0  0  0
    7.2958   -4.9679    1.1646 C   0  0  0  0  0  0  0  0  0  0  0  0
    8.3952   -5.7834    0.8769 C   0  0  0  0  0  0  0  0  0  0  0  0
    8.5817   -6.9550    1.5931 C   0  0  0  0  0  0  0  0  0  0  0  0
    9.6366   -7.7536    1.3200 F   0  0  0  0  0  0  0  0  0  0  0  0
    7.6932   -7.3811    2.6005 C   0  0  0  0  0  0  0  0  0  0  0  0
    7.9561   -8.5395    3.3082 N   0  0  0  0  0  0  0  0  0  0  0  0
    6.5863   -6.5574    2.8570 C   0  0  0  0  0  0  0  0  0  0  0  0
    2.9628   -2.8896    1.1922 C   0  0  0  0  0  0  0  0  0  0  0  0
    3.4421   -2.1110   -0.0414 C   0  0  0  0  0  0  0  0  0  0  0  0
    1.3788    2.0572   -0.3339 H   0  0  0  0  0  0  0  0  0  0  0  0
    2.8202    1.6042   -1.2944 H   0  0  0  0  0  0  0  0  0  0  0  0
    2.9807    2.0420    0.4219 H   0  0  0  0  0  0  0  0  0  0  0  0
    1.5933    0.0103    1.0294 H   0  0  0  0  0  0  0  0  0  0  0  0
    1.6566   -0.6306   -1.9743 H   0  0  0  0  0  0  0  0  0  0  0  0
    0.2734    0.0392   -1.0751 H   0  0  0  0  0  0  0  0  0  0  0  0
    0.8487   -1.5949   -0.7069 H   0  0  0  0  0  0  0  0  0  0  0  0
    4.2083    0.7909    1.4331 H   0  0  0  0  0  0  0  0  0  0  0  0
    5.2974   -0.5239    1.0138 H   0  0  0  0  0  0  0  0  0  0  0  0
    2.8488   -0.6993    2.8740 H   0  0  0  0  0  0  0  0  0  0  0  0
    4.5195   -0.6990    3.3997 H   0  0  0  0  0  0  0  0  0  0  0  0
    3.2811   -2.9674    3.3286 H   0  0  0  0  0  0  0  0  0  0  0  0
    6.1294   -2.1192    3.9231 H   0  0  0  0  0  0  0  0  0  0  0  0
    6.5687   -1.6317    2.2632 H   0  0  0  0  0  0  0  0  0  0  0  0
    7.1672   -3.1606    2.9364 H   0  0  0  0  0  0  0  0  0  0  0  0
    7.1323   -4.0527    0.5934 H   0  0  0  0  0  0  0  0  0  0  0  0
    9.1111   -5.5278    0.0930 H   0  0  0  0  0  0  0  0  0  0  0  0
    8.5982   -9.1897    2.8703 H   0  0  0  0  0  0  0  0  0  0  0  0
    7.1675   -8.9800    3.7665 H   0  0  0  0  0  0  0  0  0  0  0  0
    5.8467   -6.8597    3.6018 H   0  0  0  0  0  0  0  0  0  0  0  0
    1.9128   -2.6292    1.4125 H   0  0  0  0  0  0  0  0  0  0  0  0
    2.9771   -3.9718    1.0075 H   0  0  0  0  0  0  0  0  0  0  0  0
    2.8651   -2.4033   -0.9284 H   0  0  0  0  0  0  0  0  0  0  0  0
    4.4872   -2.3997   -0.2561 H   0  0  0  0  0  0  0  0  0  0  0  0
  1  2  1  0
  1 22  1  0
  1 23  1  0
  1 24  1  0
  2  3  1  0
  2  4  1  0
  2 25  1  1
  3 26  1  0
  3 27  1  0
  3 28  1  0
  4  5  1  0
  4 21  1  0
  5  6  1  0
  5 29  1  0
  5 30  1  0
  6  7  1  0
  6 31  1  0
  6 32  1  0
  7  8  1  0
  7 20  1  0
  7 33  1  1
  8  9  1  0
  8 10  1  0
  9 34  1  0
  9 35  1  0
  9 36  1  0
 10 11  2  0
 10 12  1  0
 12 13  2  0
 12 19  1  0
 13 14  1  0
 13 37  1  0
 14 15  2  0
 14 38  1  0
 15 16  1  0
 15 17  1  0
 17 18  1  0
 17 19  2  0
 18 39  1  0
 18 40  1  0
 19 41  1  0
 20 21  1  0
 20 42  1  0
 20 43  1  0
 21 44  1  0
 21 45  1  0
M  END

