
     RDKit          3D

 41 43  0  0  0  0  0  0  0  0999 V2000
    3.3501    1.0233   -3.8342 C   0  0  0  0  0  0  0  0  0  0  0  0
    4.2385    0.9129   -2.6819 N   0  0  0  0  0  0  0  0  0  0  0  0
    5.1327   -0.1613   -2.6271 C   0  0  0  0  0  0  0  0  0  0  0  0
    5.1798   -0.9977   -3.5056 O   0  0  0  0  0  0  0  0  0  0  0  0
    6.0436   -0.1547   -1.4187 C   0  0  0  0  0  0  0  0  0  0  0  0
    5.3407    0.4058   -0.1638 C   0  0  1  0  0  0  0  0  0  0  0  0
    4.2540   -0.5714    0.3414 C   0  0  0  0  0  0  0  0  0  0  0  0
    6.3840    0.5793    0.9495 C   0  0  0  0  0  0  0  0  0  0  0  0
    6.5916    1.8202    1.5627 C   0  0  0  0  0  0  0  0  0  0  0  0
    7.5579    1.9104    2.5775 C   0  0  0  0  0  0  0  0  0  0  0  0
    7.8567    3.0922    3.2661 N   0  0  0  0  0  0  0  0  0  0  0  0
    7.3225    4.3523    3.0944 C   0  0  0  0  0  0  0  0  0  0  0  0
    6.4669    4.6567    2.2824 O   0  0  0  0  0  0  0  0  0  0  0  0
    7.8861    5.3701    4.0103 C   0  0  0  0  0  0  0  0  0  0  0  0
    7.6087    6.7055    4.1382 C   0  0  0  0  0  0  0  0  0  0  0  0
    8.4488    7.2006    5.1821 C   0  0  0  0  0  0  0  0  0  0  0  0
    9.1764    6.1212    5.6107 C   0  0  0  0  0  0  0  0  0  0  0  0
   10.4787    5.9525    6.9336 Br  0  0  0  0  0  0  0  0  0  0  0  0
    8.8520    5.0093    4.9172 O   0  0  0  0  0  0  0  0  0  0  0  0
    8.2672    0.7468    2.9243 C   0  0  0  0  0  0  0  0  0  0  0  0
    7.9775   -0.4346    2.2459 C   0  0  0  0  0  0  0  0  0  0  0  0
    7.0612   -0.5285    1.2822 N   0  0  0  0  0  0  0  0  0  0  0  0
    4.7354    1.6917   -0.4774 N   0  0  0  0  0  0  0  0  0  0  0  0
    4.2040    1.8550   -1.6278 C   0  0  0  0  0  0  0  0  0  0  0  0
    3.4665    2.9939   -1.9019 N   0  0  0  0  0  0  0  0  0  0  0  0
    3.3684    0.0605   -4.3580 H   0  0  0  0  0  0  0  0  0  0  0  0
    3.6882    1.8002   -4.5430 H   0  0  0  0  0  0  0  0  0  0  0  0
    2.3283    1.2596   -3.5072 H   0  0  0  0  0  0  0  0  0  0  0  0
    6.9061    0.4906   -1.6657 H   0  0  0  0  0  0  0  0  0  0  0  0
    6.4285   -1.1697   -1.2637 H   0  0  0  0  0  0  0  0  0  0  0  0
    4.7154   -1.5135    0.6699 H   0  0  0  0  0  0  0  0  0  0  0  0
    3.5198   -0.7895   -0.4504 H   0  0  0  0  0  0  0  0  0  0  0  0
    3.7182   -0.1214    1.1904 H   0  0  0  0  0  0  0  0  0  0  0  0
    6.0107    2.6816    1.2508 H   0  0  0  0  0  0  0  0  0  0  0  0
    8.5674    3.0116    3.9860 H   0  0  0  0  0  0  0  0  0  0  0  0
    6.8821    7.2540    3.5439 H   0  0  0  0  0  0  0  0  0  0  0  0
    8.5123    8.2143    5.5690 H   0  0  0  0  0  0  0  0  0  0  0  0
    9.0309    0.7628    3.7067 H   0  0  0  0  0  0  0  0  0  0  0  0
    8.5196   -1.3533    2.5007 H   0  0  0  0  0  0  0  0  0  0  0  0
    3.5416    3.6784   -1.1555 H   0  0  0  0  0  0  0  0  0  0  0  0
    3.5565    3.3932   -2.8306 H   0  0  0  0  0  0  0  0  0  0  0  0
  1  2  1  0
  1 26  1  0
  1 27  1  0
  1 28  1  0
  2  3  1  0
  2 24  1  0
  3  4  2  0
  3  5  1  0
  5  6  1  0
  5 29  1  0
  5 30  1  0
  6  7  1  1
  6  8  1  0
  6 23  1  0
  7 31  1  0
  7 32  1  0
  7 33  1  0
  8  9  2  0
  8 22  1  0
  9 10  1  0
  9 34  1  0
 10 11  1  0
 10 20  2  0
 11 12  1  0
 11 35  1  0
 12 13  2  0
 12 14  1  0
 14 15  2  0
 14 19  1  0
 15 16  1  0
 15 36  1  0
 16 17  2  0
 16 37  1  0
 17 18  1  0
 17 19  1  0
 20 21  1  0
 20 38  1  0
 21 22  2  0
 21 39  1  0
 23 24  2  0
 24 25  1  0
 25 40  1  0
 25 41  1  0
M  END

