
     RDKit          3D

 44 45  0  0  0  0  0  0  0  0999 V2000
    0.7833    1.1556    2.0160 C   0  0  0  0  0  0  0  0  0  0  0  0
    1.9290    0.6585    1.5459 C   0  0  0  0  0  0  0  0  0  0  0  0
    2.8247   -0.2752    2.3034 C   0  0  0  0  0  0  0  0  0  0  0  0
    4.1505    0.2242    2.2378 O   0  0  0  0  0  0  0  0  0  0  0  0
    5.1628   -0.4862    2.8033 C   0  0  0  0  0  0  0  0  0  0  0  0
    4.9997   -1.6958    3.4963 C   0  0  0  0  0  0  0  0  0  0  0  0
    6.1154   -2.3417    4.0408 C   0  0  0  0  0  0  0  0  0  0  0  0
    7.4049   -1.8122    3.9138 C   0  0  0  0  0  0  0  0  0  0  0  0
    8.6021   -2.4970    4.5463 C   0  0  0  0  0  0  0  0  0  0  0  0
    8.5096   -3.9456    4.4758 N   0  0  0  0  0  0  0  0  0  0  0  0
    9.5130   -4.7112    5.2162 C   0  0  1  0  0  0  0  0  0  0  0  0
    9.1222   -6.1997    5.2499 C   0  0  0  0  0  0  0  0  0  0  0  0
    9.3466   -6.9001    3.9025 C   0  0  0  0  0  0  0  0  0  0  0  0
   10.7867   -6.7212    3.4051 C   0  0  0  0  0  0  0  0  0  0  0  0
   11.2044   -5.2413    3.3433 C   0  0  2  0  0  0  0  0  0  0  0  0
   12.6496   -5.0726    2.8678 C   0  0  0  0  0  0  0  0  0  0  0  0
   10.9678   -4.5655    4.7057 C   0  0  0  0  0  0  0  0  0  0  0  0
    7.5502   -0.6042    3.2107 C   0  0  0  0  0  0  0  0  0  0  0  0
    6.4522    0.0547    2.6652 C   0  0  0  0  0  0  0  0  0  0  0  0
    0.1489    1.8041    1.4059 H   0  0  0  0  0  0  0  0  0  0  0  0
    0.4319    0.9310    3.0288 H   0  0  0  0  0  0  0  0  0  0  0  0
    2.2660    0.9063    0.5324 H   0  0  0  0  0  0  0  0  0  0  0  0
    2.7854   -1.2860    1.8481 H   0  0  0  0  0  0  0  0  0  0  0  0
    2.4901   -0.3727    3.3532 H   0  0  0  0  0  0  0  0  0  0  0  0
    4.0137   -2.1442    3.6210 H   0  0  0  0  0  0  0  0  0  0  0  0
    5.9892   -3.2877    4.5719 H   0  0  0  0  0  0  0  0  0  0  0  0
    8.6549   -2.2253    5.6187 H   0  0  0  0  0  0  0  0  0  0  0  0
    9.5247   -2.0750    4.0912 H   0  0  0  0  0  0  0  0  0  0  0  0
    8.4449   -4.2472    3.5051 H   0  0  0  0  0  0  0  0  0  0  0  0
    9.4801   -4.3264    6.2515 H   0  0  0  0  0  0  0  0  0  0  0  0
    8.0701   -6.2865    5.5646 H   0  0  0  0  0  0  0  0  0  0  0  0
    9.7350   -6.7034    6.0186 H   0  0  0  0  0  0  0  0  0  0  0  0
    8.6437   -6.4985    3.1494 H   0  0  0  0  0  0  0  0  0  0  0  0
    9.1044   -7.9725    3.9916 H   0  0  0  0  0  0  0  0  0  0  0  0
   10.9115   -7.1902    2.4137 H   0  0  0  0  0  0  0  0  0  0  0  0
   11.4765   -7.2535    4.0878 H   0  0  0  0  0  0  0  0  0  0  0  0
   10.5490   -4.7424    2.6021 H   0  0  0  0  0  0  0  0  0  0  0  0
   13.3545   -5.5512    3.5693 H   0  0  0  0  0  0  0  0  0  0  0  0
   12.9277   -4.0086    2.7924 H   0  0  0  0  0  0  0  0  0  0  0  0
   12.8037   -5.5312    1.8772 H   0  0  0  0  0  0  0  0  0  0  0  0
   11.2478   -3.4996    4.6520 H   0  0  0  0  0  0  0  0  0  0  0  0
   11.6476   -5.0201    5.4504 H   0  0  0  0  0  0  0  0  0  0  0  0
    8.5471   -0.1701    3.0861 H   0  0  0  0  0  0  0  0  0  0  0  0
    6.5654    0.9925    2.1173 H   0  0  0  0  0  0  0  0  0  0  0  0
  1  2  2  0
  1 20  1  0
  1 21  1  0
  2  3  1  0
  2 22  1  0
  3  4  1  0
  3 23  1  0
  3 24  1  0
  4  5  1  0
  5  6  2  0
  5 19  1  0
  6  7  1  0
  6 25  1  0
  7  8  2  0
  7 26  1  0
  8  9  1  0
  8 18  1  0
  9 10  1  0
  9 27  1  0
  9 28  1  0
 10 11  1  0
 10 29  1  0
 11 12  1  0
 11 17  1  0
 11 30  1  1
 12 13  1  0
 12 31  1  0
 12 32  1  0
 13 14  1  0
 13 33  1  0
 13 34  1  0
 14 15  1  0
 14 35  1  0
 14 36  1  0
 15 16  1  0
 15 17  1  0
 15 37  1  6
 16 38  1  0
 16 39  1  0
 16 40  1  0
 17 41  1  0
 17 42  1  0
 18 19  2  0
 18 43  1  0
 19 44  1  0
M  END

