
     RDKit          3D

 37 38  0  0  0  0  0  0  0  0999 V2000
    4.6842    1.3631   -1.3842 C   0  0  0  0  0  0  0  0  0  0  0  0
    4.2947    0.2515   -0.0143 S   0  0  1  0  0  0  0  0  0  0  0  0
    5.4427    0.2636    0.9010 O   0  0  0  0  0  0  0  0  0  0  0  0
    2.9389    0.5780    0.4441 O   0  0  0  0  0  0  0  0  0  0  0  0
    4.2311   -1.3881   -0.7845 C   0  0  0  0  0  0  0  0  0  0  0  0
    5.3981   -2.1549   -0.8381 C   0  0  0  0  0  0  0  0  0  0  0  0
    5.3492   -3.4205   -1.4254 C   0  0  0  0  0  0  0  0  0  0  0  0
    4.1295   -3.8871   -1.9250 C   0  0  0  0  0  0  0  0  0  0  0  0
    4.0927   -5.5081   -2.7177 S   0  0  1  0  0  0  0  0  0  0  0  0
    2.9532   -5.5322   -3.6485 O   0  0  0  0  0  0  0  0  0  0  0  0
    5.4551   -5.8167   -3.1672 O   0  0  0  0  0  0  0  0  0  0  0  0
    3.7138   -6.7004   -1.3721 C   0  0  0  0  0  0  0  0  0  0  0  0
    2.2471   -6.6283   -0.9501 C   0  0  0  0  0  0  0  0  0  0  0  0
    1.9042   -5.8149   -0.1222 O   0  0  0  0  0  0  0  0  0  0  0  0
    1.2988   -7.5816   -1.6567 C   0  0  1  0  0  0  0  0  0  0  0  0
    1.6008   -9.0784   -1.3484 C   0  0  0  0  0  0  0  0  0  0  0  0
    0.1875   -9.6679   -1.2611 C   0  0  0  0  0  0  0  0  0  0  0  0
   -0.5845   -8.6524   -0.6618 O   0  0  0  0  0  0  0  0  0  0  0  0
   -0.1861   -7.4225   -1.2432 C   0  0  0  0  0  0  0  0  0  0  0  0
    2.9607   -3.1235   -1.8675 C   0  0  0  0  0  0  0  0  0  0  0  0
    3.0120   -1.8578   -1.2794 C   0  0  0  0  0  0  0  0  0  0  0  0
    4.7268    2.3635   -0.9302 H   0  0  0  0  0  0  0  0  0  0  0  0
    3.8833    1.3130   -2.1330 H   0  0  0  0  0  0  0  0  0  0  0  0
    5.6585    1.0904   -1.8095 H   0  0  0  0  0  0  0  0  0  0  0  0
    6.3253   -1.7626   -0.4157 H   0  0  0  0  0  0  0  0  0  0  0  0
    6.2445   -4.0394   -1.5087 H   0  0  0  0  0  0  0  0  0  0  0  0
    4.3795   -6.4582   -0.5330 H   0  0  0  0  0  0  0  0  0  0  0  0
    4.0029   -7.6587   -1.8268 H   0  0  0  0  0  0  0  0  0  0  0  0
    1.4374   -7.3861   -2.7335 H   0  0  0  0  0  0  0  0  0  0  0  0
    2.1046   -9.1845   -0.3739 H   0  0  0  0  0  0  0  0  0  0  0  0
    2.2247   -9.5621   -2.1145 H   0  0  0  0  0  0  0  0  0  0  0  0
    0.1233  -10.5729   -0.6385 H   0  0  0  0  0  0  0  0  0  0  0  0
   -0.1892   -9.9170   -2.2763 H   0  0  0  0  0  0  0  0  0  0  0  0
   -0.3227   -6.6234   -0.5015 H   0  0  0  0  0  0  0  0  0  0  0  0
   -0.8034   -7.1924   -2.1330 H   0  0  0  0  0  0  0  0  0  0  0  0
    2.0299   -3.5149   -2.2796 H   0  0  0  0  0  0  0  0  0  0  0  0
    2.1158   -1.2407   -1.1897 H   0  0  0  0  0  0  0  0  0  0  0  0
  2  1  1  6
  1 22  1  0
  1 23  1  0
  1 24  1  0
  2  3  2  0
  2  4  2  0
  2  5  1  0
  5  6  2  0
  5 21  1  0
  6  7  1  0
  6 25  1  0
  7  8  2  0
  7 26  1  0
  8  9  1  0
  8 20  1  0
  9 10  2  0
  9 11  2  0
  9 12  1  1
 12 13  1  0
 12 27  1  0
 12 28  1  0
 13 14  2  0
 13 15  1  0
 15 16  1  0
 15 19  1  0
 15 29  1  6
 16 17  1  0
 16 30  1  0
 16 31  1  0
 17 18  1  0
 17 32  1  0
 17 33  1  0
 18 19  1  0
 19 34  1  0
 19 35  1  0
 20 21  2  0
 20 36  1  0
 21 37  1  0
M  END

