
     RDKit          3D

 34 35  0  0  0  0  0  0  0  0999 V2000
    1.2138    0.5763    1.9532 C   0  0  0  0  0  0  0  0  0  0  0  0
    2.7173    0.3806    1.7941 C   0  0  0  0  0  0  0  0  0  0  0  0
    3.0339   -1.2399    1.0143 S   0  0  1  0  0  0  0  0  0  0  0  0
    2.6589   -2.2857    1.9839 O   0  0  0  0  0  0  0  0  0  0  0  0
    2.4168   -1.2024   -0.3231 O   0  0  0  0  0  0  0  0  0  0  0  0
    4.9089   -1.2987    0.8946 C   0  0  1  0  0  0  0  0  0  0  0  0
    5.3823   -2.7464    0.7674 C   0  0  0  0  0  0  0  0  0  0  0  0
    5.1187   -3.4890   -0.8768 S   0  0  0  0  0  0  0  0  0  0  0  0
    5.8978   -2.1298   -1.8147 C   0  0  0  0  0  0  0  0  0  0  0  0
    5.2688   -0.7664   -1.5224 C   0  0  0  0  0  0  0  0  0  0  0  0
    5.4004   -0.3766   -0.1054 N   0  0  0  0  0  0  0  0  0  0  0  0
    6.1117    0.7397    0.3155 C   0  0  0  0  0  0  0  0  0  0  0  0
    6.6328    0.6845    1.5514 N   0  0  0  0  0  0  0  0  0  0  0  0
    7.3814    1.6741    2.0228 C   0  0  0  0  0  0  0  0  0  0  0  0
    7.6977    2.8201    1.2874 C   0  0  0  0  0  0  0  0  0  0  0  0
    7.1170    2.9424    0.0305 C   0  0  0  0  0  0  0  0  0  0  0  0
    6.2860    1.9250   -0.4743 C   0  0  0  0  0  0  0  0  0  0  0  0
    5.5845    2.1973   -1.6928 C   0  0  0  0  0  0  0  0  0  0  0  0
    5.0206    2.4880   -2.6668 N   0  0  0  0  0  0  0  0  0  0  0  0
    1.0099    1.5512    2.4218 H   0  0  0  0  0  0  0  0  0  0  0  0
    0.7855   -0.2136    2.5876 H   0  0  0  0  0  0  0  0  0  0  0  0
    0.7147    0.5466    0.9740 H   0  0  0  0  0  0  0  0  0  0  0  0
    3.2477    0.3697    2.7578 H   0  0  0  0  0  0  0  0  0  0  0  0
    3.1688    1.1359    1.1339 H   0  0  0  0  0  0  0  0  0  0  0  0
    5.2302   -0.9268    1.8753 H   0  0  0  0  0  0  0  0  0  0  0  0
    4.8382   -3.3653    1.4939 H   0  0  0  0  0  0  0  0  0  0  0  0
    6.4552   -2.7712    1.0223 H   0  0  0  0  0  0  0  0  0  0  0  0
    5.7560   -2.3688   -2.8793 H   0  0  0  0  0  0  0  0  0  0  0  0
    6.9825   -2.1122   -1.6121 H   0  0  0  0  0  0  0  0  0  0  0  0
    4.2063   -0.7727   -1.8040 H   0  0  0  0  0  0  0  0  0  0  0  0
    5.7779   -0.0184   -2.1383 H   0  0  0  0  0  0  0  0  0  0  0  0
    7.7593    1.5487    3.0445 H   0  0  0  0  0  0  0  0  0  0  0  0
    8.3413    3.5981    1.7000 H   0  0  0  0  0  0  0  0  0  0  0  0
    7.2668    3.8408   -0.5723 H   0  0  0  0  0  0  0  0  0  0  0  0
  1  2  1  0
  1 20  1  0
  1 21  1  0
  1 22  1  0
  3  2  1  1
  2 23  1  0
  2 24  1  0
  3  4  2  0
  3  5  2  0
  3  6  1  0
  6  7  1  0
  6 11  1  0
  6 25  1  1
  7  8  1  0
  7 26  1  0
  7 27  1  0
  8  9  1  0
  9 10  1  0
  9 28  1  0
  9 29  1  0
 10 11  1  0
 10 30  1  0
 10 31  1  0
 11 12  1  0
 12 13  2  0
 12 17  1  0
 13 14  1  0
 14 15  2  0
 14 32  1  0
 15 16  1  0
 15 33  1  0
 16 17  2  0
 16 34  1  0
 17 18  1  0
 18 19  3  0
M  END

