
     RDKit          3D

 58 62  0  0  0  0  0  0  0  0999 V2000
    2.4693   -1.4804   -0.3944 O   0  0  0  0  0  0  0  0  0  0  0  0
    2.9040   -0.3548   -0.2008 C   0  0  0  0  0  0  0  0  0  0  0  0
    3.2315    0.5148   -1.2332 N   0  0  0  0  0  0  0  0  0  0  0  0
    3.2348    0.2597   -2.6151 C   0  0  0  0  0  0  0  0  0  0  0  0
    2.9581   -0.9998   -3.1838 C   0  0  0  0  0  0  0  0  0  0  0  0
    3.0010   -1.1454   -4.5713 C   0  0  0  0  0  0  0  0  0  0  0  0
    3.3087   -0.0748   -5.4113 C   0  0  0  0  0  0  0  0  0  0  0  0
    3.5851    1.1844   -4.8521 C   0  0  0  0  0  0  0  0  0  0  0  0
    3.9180    2.3523   -5.6787 C   0  0  0  0  0  0  0  0  0  0  0  0
    4.1929    3.5332   -5.2094 N   0  0  0  0  0  0  0  0  0  0  0  0
    4.4842    4.4655   -6.1452 N   0  0  0  0  0  0  0  0  0  0  0  0
    4.4258    4.0016   -7.3682 C   0  0  0  0  0  0  0  0  0  0  0  0
    4.6421    4.7423   -8.4956 N   0  0  0  0  0  0  0  0  0  0  0  0
    5.2268    6.0838   -8.4089 C   0  0  2  0  0  0  0  0  0  0  0  0
    4.2267    7.1145   -7.8252 C   0  0  0  0  0  0  0  0  0  0  0  0
    3.0504    7.4583   -8.7578 C   0  0  0  0  0  0  0  0  0  0  0  0
    3.6299    7.9132  -10.0876 C   0  0  2  0  0  0  0  0  0  0  0  0
    2.7504    8.1813  -11.2187 N   0  0  0  0  0  0  0  0  0  0  0  0
    3.6524    8.3797  -12.3320 N   0  0  0  0  0  0  0  0  0  0  0  0
    4.6555    7.3002  -12.1706 C   0  0  0  0  0  0  0  0  0  0  0  0
    4.4953    6.8046  -10.7093 C   0  0  1  0  0  0  0  0  0  0  0  0
    5.6899    6.5320   -9.8150 C   0  0  2  0  0  0  0  0  0  0  0  0
    6.8048    5.2837  -10.5638 Cl  0  0  0  0  0  0  0  0  0  0  0  0
    3.9883    2.2958   -7.4522 S   0  0  0  0  0  0  0  0  0  0  0  0
    3.5460    1.3375   -3.4580 C   0  0  0  0  0  0  0  0  0  0  0  0
    3.1082    0.1425    1.0785 N   0  0  0  0  0  0  0  0  0  0  0  0
    2.5058   -0.5826    2.1972 C   0  0  0  0  0  0  0  0  0  0  0  0
    3.4784   -0.6810    3.3683 C   0  0  0  0  0  0  0  0  0  0  0  0
    3.9288    0.6568    3.7311 N   0  0  0  0  0  0  0  0  0  0  0  0
    4.6261    1.2964    2.6294 C   0  0  0  0  0  0  0  0  0  0  0  0
    3.6844    1.4353    1.4276 C   0  0  0  0  0  0  0  0  0  0  0  0
    3.4144    1.4791   -0.9930 H   0  0  0  0  0  0  0  0  0  0  0  0
    2.7067   -1.8338   -2.5337 H   0  0  0  0  0  0  0  0  0  0  0  0
    2.7845   -2.1247   -5.0057 H   0  0  0  0  0  0  0  0  0  0  0  0
    3.3325   -0.2193   -6.4941 H   0  0  0  0  0  0  0  0  0  0  0  0
    4.9557    4.2080   -9.3014 H   0  0  0  0  0  0  0  0  0  0  0  0
    6.1059    6.0517   -7.7406 H   0  0  0  0  0  0  0  0  0  0  0  0
    4.7967    8.0339   -7.6042 H   0  0  0  0  0  0  0  0  0  0  0  0
    3.8773    6.7265   -6.8590 H   0  0  0  0  0  0  0  0  0  0  0  0
    2.4331    8.2459   -8.2940 H   0  0  0  0  0  0  0  0  0  0  0  0
    2.4004    6.5823   -8.9135 H   0  0  0  0  0  0  0  0  0  0  0  0
    4.2899    8.7948   -9.8868 H   0  0  0  0  0  0  0  0  0  0  0  0
    2.1679    9.0109  -11.1156 H   0  0  0  0  0  0  0  0  0  0  0  0
    4.1593    9.2606  -12.1723 H   0  0  0  0  0  0  0  0  0  0  0  0
    5.6632    7.6885  -12.3859 H   0  0  0  0  0  0  0  0  0  0  0  0
    4.4584    6.4809  -12.8785 H   0  0  0  0  0  0  0  0  0  0  0  0
    3.8705    5.8986  -10.7277 H   0  0  0  0  0  0  0  0  0  0  0  0
    6.3170    7.4275   -9.7045 H   0  0  0  0  0  0  0  0  0  0  0  0
    3.7667    2.3242   -3.0439 H   0  0  0  0  0  0  0  0  0  0  0  0
    2.2164   -1.5750    1.8330 H   0  0  0  0  0  0  0  0  0  0  0  0
    1.5954   -0.0498    2.5348 H   0  0  0  0  0  0  0  0  0  0  0  0
    4.3165   -1.3549    3.0797 H   0  0  0  0  0  0  0  0  0  0  0  0
    2.9628   -1.1384    4.2280 H   0  0  0  0  0  0  0  0  0  0  0  0
    4.5137    0.6336    4.5636 H   0  0  0  0  0  0  0  0  0  0  0  0
    5.5249    0.7286    2.2953 H   0  0  0  0  0  0  0  0  0  0  0  0
    4.9612    2.3003    2.9369 H   0  0  0  0  0  0  0  0  0  0  0  0
    4.2722    1.8338    0.5897 H   0  0  0  0  0  0  0  0  0  0  0  0
    2.8881    2.1653    1.6750 H   0  0  0  0  0  0  0  0  0  0  0  0
  1  2  2  0
  2  3  1  0
  2 26  1  0
  3  4  1  0
  3 32  1  0
  4  5  2  0
  4 25  1  0
  5  6  1  0
  5 33  1  0
  6  7  2  0
  6 34  1  0
  7  8  1  0
  7 35  1  0
  8  9  1  0
  8 25  2  0
  9 10  2  0
  9 24  1  0
 10 11  1  0
 11 12  2  0
 12 13  1  0
 12 24  1  0
 13 14  1  0
 13 36  1  0
 14 15  1  0
 14 22  1  0
 14 37  1  1
 15 16  1  0
 15 38  1  0
 15 39  1  0
 16 17  1  0
 16 40  1  0
 16 41  1  0
 17 18  1  0
 17 21  1  0
 17 42  1  1
 18 19  1  0
 18 43  1  0
 19 20  1  0
 19 44  1  0
 20 21  1  0
 20 45  1  0
 20 46  1  0
 21 22  1  0
 21 47  1  6
 22 23  1  0
 22 48  1  1
 25 49  1  0
 26 27  1  0
 26 31  1  0
 27 28  1  0
 27 50  1  0
 27 51  1  0
 28 29  1  0
 28 52  1  0
 28 53  1  0
 29 30  1  0
 29 54  1  0
 30 31  1  0
 30 55  1  0
 30 56  1  0
 31 57  1  0
 31 58  1  0
M  END

