
     RDKit          3D

 45 46  0  0  0  0  0  0  0  0999 V2000
    2.4310   -5.2957   -0.2847 C   0  0  0  0  0  0  0  0  0  0  0  0
    3.6318   -4.5961   -0.0914 O   0  0  0  0  0  0  0  0  0  0  0  0
    4.5825   -5.2874    0.6830 C   0  0  0  0  0  0  0  0  0  0  0  0
    5.8484   -4.4501    0.7827 C   0  0  0  0  0  0  0  0  0  0  0  0
    5.5940   -3.0254    1.3336 C   0  0  1  0  0  0  0  0  0  0  0  0
    4.9326   -2.9453    2.6316 N   0  0  0  0  0  0  0  0  0  0  0  0
    6.8959   -2.2809    1.4271 C   0  0  0  0  0  0  0  0  0  0  0  0
    7.9104   -2.5391    2.1979 N   0  0  0  0  0  0  0  0  0  0  0  0
    8.8027   -1.5369    1.8793 C   0  0  0  0  0  0  0  0  0  0  0  0
   10.1432   -1.3472    2.5806 C   0  0  1  0  0  0  0  0  0  0  0  0
    9.9305   -0.5862    3.7744 O   0  0  0  0  0  0  0  0  0  0  0  0
    9.1947   -1.1552    4.8350 C   0  0  0  0  0  0  0  0  0  0  0  0
   10.7989   -2.7127    2.8704 C   0  0  0  0  0  0  0  0  0  0  0  0
   11.3087   -3.4053    1.5976 C   0  0  0  0  0  0  0  0  0  0  0  0
   12.2809   -2.5361    0.7751 C   0  0  2  0  0  0  0  0  0  0  0  0
   13.6605   -2.4025    1.4364 C   0  0  0  0  0  0  0  0  0  0  0  0
   11.6235   -1.1721    0.4827 C   0  0  0  0  0  0  0  0  0  0  0  0
   11.0939   -0.4746    1.7416 C   0  0  0  0  0  0  0  0  0  0  0  0
    8.3640   -0.7224    0.9522 N   0  0  0  0  0  0  0  0  0  0  0  0
    7.0981   -1.2126    0.6507 O   0  0  0  0  0  0  0  0  0  0  0  0
    1.7660   -4.6642   -0.8914 H   0  0  0  0  0  0  0  0  0  0  0  0
    1.9231   -5.5238    0.6749 H   0  0  0  0  0  0  0  0  0  0  0  0
    2.5917   -6.2542   -0.8184 H   0  0  0  0  0  0  0  0  0  0  0  0
    4.8191   -6.2730    0.2308 H   0  0  0  0  0  0  0  0  0  0  0  0
    4.1772   -5.4937    1.6971 H   0  0  0  0  0  0  0  0  0  0  0  0
    6.3104   -4.3711   -0.2160 H   0  0  0  0  0  0  0  0  0  0  0  0
    6.5715   -4.9685    1.4349 H   0  0  0  0  0  0  0  0  0  0  0  0
    4.9668   -2.4888    0.6074 H   0  0  0  0  0  0  0  0  0  0  0  0
    5.4246   -3.5088    3.3257 H   0  0  0  0  0  0  0  0  0  0  0  0
    3.9746   -3.2843    2.5676 H   0  0  0  0  0  0  0  0  0  0  0  0
    9.1089   -0.3736    5.6044 H   0  0  0  0  0  0  0  0  0  0  0  0
    9.7021   -2.0276    5.2870 H   0  0  0  0  0  0  0  0  0  0  0  0
    8.1783   -1.4654    4.5352 H   0  0  0  0  0  0  0  0  0  0  0  0
   10.0845   -3.3725    3.3841 H   0  0  0  0  0  0  0  0  0  0  0  0
   11.6311   -2.5237    3.5683 H   0  0  0  0  0  0  0  0  0  0  0  0
   10.4436   -3.6714    0.9650 H   0  0  0  0  0  0  0  0  0  0  0  0
   11.7892   -4.3606    1.8699 H   0  0  0  0  0  0  0  0  0  0  0  0
   12.4382   -3.0438   -0.1933 H   0  0  0  0  0  0  0  0  0  0  0  0
   13.6152   -1.8952    2.4132 H   0  0  0  0  0  0  0  0  0  0  0  0
   14.3466   -1.8211    0.7990 H   0  0  0  0  0  0  0  0  0  0  0  0
   14.1176   -3.3921    1.6014 H   0  0  0  0  0  0  0  0  0  0  0  0
   10.7896   -1.3171   -0.2241 H   0  0  0  0  0  0  0  0  0  0  0  0
   12.3419   -0.5068   -0.0255 H   0  0  0  0  0  0  0  0  0  0  0  0
   10.5769    0.4596    1.4789 H   0  0  0  0  0  0  0  0  0  0  0  0
   11.9199   -0.1998    2.4161 H   0  0  0  0  0  0  0  0  0  0  0  0
  1  2  1  0
  1 21  1  0
  1 22  1  0
  1 23  1  0
  2  3  1  0
  3  4  1  0
  3 24  1  0
  3 25  1  0
  4  5  1  0
  4 26  1  0
  4 27  1  0
  5  6  1  0
  5  7  1  0
  5 28  1  6
  6 29  1  0
  6 30  1  0
  7  8  2  0
  7 20  1  0
  8  9  1  0
  9 10  1  0
  9 19  2  0
 10 11  1  1
 10 13  1  0
 10 18  1  0
 11 12  1  0
 12 31  1  0
 12 32  1  0
 12 33  1  0
 13 14  1  0
 13 34  1  0
 13 35  1  0
 14 15  1  0
 14 36  1  0
 14 37  1  0
 15 16  1  0
 15 17  1  0
 15 38  1  6
 16 39  1  0
 16 40  1  0
 16 41  1  0
 17 18  1  0
 17 42  1  0
 17 43  1  0
 18 44  1  0
 18 45  1  0
 19 20  1  0
M  END

