
     RDKit          3D

 78 82  0  0  0  0  0  0  0  0999 V2000
    5.6471   -3.0137   -3.6922 C   0  0  0  0  0  0  0  0  0  0  0  0
    6.4633   -3.8243   -2.8767 O   0  0  0  0  0  0  0  0  0  0  0  0
    5.9574   -4.3156   -1.7150 C   0  0  0  0  0  0  0  0  0  0  0  0
    6.8388   -5.0886   -0.9366 C   0  0  0  0  0  0  0  0  0  0  0  0
    6.4038   -5.6141    0.2747 C   0  0  0  0  0  0  0  0  0  0  0  0
    5.0939   -5.3912    0.7228 C   0  0  0  0  0  0  0  0  0  0  0  0
    4.2071   -4.6329   -0.0510 C   0  0  0  0  0  0  0  0  0  0  0  0
    2.7909   -4.3617    0.4373 C   0  0  0  0  0  0  0  0  0  0  0  0
    1.7128   -4.9141   -0.4057 N   0  0  0  0  0  0  0  0  0  0  0  0
    1.2021   -4.0780   -1.3765 C   0  0  0  0  0  0  0  0  0  0  0  0
    1.7094   -2.9881   -1.6106 O   0  0  0  0  0  0  0  0  0  0  0  0
   -0.0099   -4.5497   -2.1819 C   0  0  0  0  0  0  0  0  0  0  0  0
   -0.4819   -3.4886   -3.1884 C   0  0  0  0  0  0  0  0  0  0  0  0
   -1.6797   -3.9375   -3.9980 C   0  0  0  0  0  0  0  0  0  0  0  0
   -2.9516   -3.5432   -3.6154 C   0  0  0  0  0  0  0  0  0  0  0  0
   -4.1096   -3.9662   -4.3120 C   0  0  0  0  0  0  0  0  0  0  0  0
   -3.9953   -4.7949   -5.4054 C   0  0  0  0  0  0  0  0  0  0  0  0
   -2.7149   -5.2282   -5.8491 C   0  0  0  0  0  0  0  0  0  0  0  0
   -2.5734   -6.0791   -6.9817 C   0  0  0  0  0  0  0  0  0  0  0  0
   -1.3313   -6.4928   -7.4130 C   0  0  0  0  0  0  0  0  0  0  0  0
   -0.1686   -6.0650   -6.7264 C   0  0  0  0  0  0  0  0  0  0  0  0
   -0.2712   -5.2401   -5.6246 C   0  0  0  0  0  0  0  0  0  0  0  0
   -1.5380   -4.7964   -5.1430 C   0  0  0  0  0  0  0  0  0  0  0  0
    1.0512   -6.1695   -0.0654 C   0  0  1  0  0  0  0  0  0  0  0  0
    1.9833   -7.2803    0.4873 C   0  0  0  0  0  0  0  0  0  0  0  0
    2.3368   -7.4080    1.9659 C   0  0  0  0  0  0  0  0  0  0  0  0
    1.8287   -6.6075    3.0005 C   0  0  0  0  0  0  0  0  0  0  0  0
    2.2058   -6.8307    4.3317 C   0  0  0  0  0  0  0  0  0  0  0  0
    3.0940   -7.8559    4.6572 C   0  0  0  0  0  0  0  0  0  0  0  0
    3.6086   -8.6623    3.6359 C   0  0  0  0  0  0  0  0  0  0  0  0
    3.2324   -8.4380    2.3117 C   0  0  0  0  0  0  0  0  0  0  0  0
   -0.2246   -5.9290    0.7897 C   0  0  0  0  0  0  0  0  0  0  0  0
   -0.4883   -4.8358    1.2622 O   0  0  0  0  0  0  0  0  0  0  0  0
   -1.0208   -7.0250    0.9340 N   0  0  0  0  0  0  0  0  0  0  0  0
   -2.2543   -7.0326    1.7001 C   0  0  1  0  0  0  0  0  0  0  0  0
   -3.5112   -7.4090    0.8975 C   0  0  0  0  0  0  0  0  0  0  0  0
   -4.5566   -7.6571    1.9939 C   0  0  0  0  0  0  0  0  0  0  0  0
   -3.7667   -8.2877    3.1776 C   0  0  0  0  0  0  0  0  0  0  0  0
   -2.2676   -8.0381    2.8716 C   0  0  0  0  0  0  0  0  0  0  0  0
    4.6488   -4.0866   -1.2713 C   0  0  0  0  0  0  0  0  0  0  0  0
    4.7488   -3.5528   -4.0435 H   0  0  0  0  0  0  0  0  0  0  0  0
    6.2562   -2.7308   -4.5615 H   0  0  0  0  0  0  0  0  0  0  0  0
    5.3203   -2.0977   -3.1684 H   0  0  0  0  0  0  0  0  0  0  0  0
    7.8547   -5.2497   -1.3031 H   0  0  0  0  0  0  0  0  0  0  0  0
    7.0922   -6.2064    0.8838 H   0  0  0  0  0  0  0  0  0  0  0  0
    4.7683   -5.8069    1.6789 H   0  0  0  0  0  0  0  0  0  0  0  0
    2.6252   -3.2762    0.4775 H   0  0  0  0  0  0  0  0  0  0  0  0
    2.6726   -4.7513    1.4534 H   0  0  0  0  0  0  0  0  0  0  0  0
   -0.8371   -4.7994   -1.4993 H   0  0  0  0  0  0  0  0  0  0  0  0
    0.2445   -5.4859   -2.7092 H   0  0  0  0  0  0  0  0  0  0  0  0
    0.3608   -3.2089   -3.8372 H   0  0  0  0  0  0  0  0  0  0  0  0
   -0.7355   -2.5745   -2.6323 H   0  0  0  0  0  0  0  0  0  0  0  0
   -3.0636   -2.8829   -2.7505 H   0  0  0  0  0  0  0  0  0  0  0  0
   -5.0933   -3.6281   -3.9761 H   0  0  0  0  0  0  0  0  0  0  0  0
   -4.8834   -5.1277   -5.9497 H   0  0  0  0  0  0  0  0  0  0  0  0
   -3.4762   -6.3991   -7.5095 H   0  0  0  0  0  0  0  0  0  0  0  0
   -1.2396   -7.1452   -8.2850 H   0  0  0  0  0  0  0  0  0  0  0  0
    0.8161   -6.3866   -7.0755 H   0  0  0  0  0  0  0  0  0  0  0  0
    0.6393   -4.9148   -5.1189 H   0  0  0  0  0  0  0  0  0  0  0  0
    0.6835   -6.5914   -1.0120 H   0  0  0  0  0  0  0  0  0  0  0  0
    2.9187   -7.2260   -0.0928 H   0  0  0  0  0  0  0  0  0  0  0  0
    1.5327   -8.2441    0.1910 H   0  0  0  0  0  0  0  0  0  0  0  0
    1.1394   -5.7903    2.7877 H   0  0  0  0  0  0  0  0  0  0  0  0
    1.7980   -6.1883    5.1165 H   0  0  0  0  0  0  0  0  0  0  0  0
    3.3869   -8.0257    5.6963 H   0  0  0  0  0  0  0  0  0  0  0  0
    4.3083   -9.4684    3.8719 H   0  0  0  0  0  0  0  0  0  0  0  0
    3.6458   -9.0733    1.5223 H   0  0  0  0  0  0  0  0  0  0  0  0
   -0.7295   -7.8986    0.5087 H   0  0  0  0  0  0  0  0  0  0  0  0
   -2.3649   -6.0071    2.0835 H   0  0  0  0  0  0  0  0  0  0  0  0
   -3.3165   -8.3373    0.3286 H   0  0  0  0  0  0  0  0  0  0  0  0
   -3.8033   -6.6339    0.1723 H   0  0  0  0  0  0  0  0  0  0  0  0
   -5.3912   -8.2880    1.6529 H   0  0  0  0  0  0  0  0  0  0  0  0
   -4.9938   -6.6938    2.3043 H   0  0  0  0  0  0  0  0  0  0  0  0
   -3.9720   -9.3655    3.2672 H   0  0  0  0  0  0  0  0  0  0  0  0
   -4.0661   -7.8352    4.1352 H   0  0  0  0  0  0  0  0  0  0  0  0
   -1.7800   -8.9724    2.5424 H   0  0  0  0  0  0  0  0  0  0  0  0
   -1.6954   -7.6728    3.7372 H   0  0  0  0  0  0  0  0  0  0  0  0
    3.9549   -3.4701   -1.8410 H   0  0  0  0  0  0  0  0  0  0  0  0
  1  2  1  0
  1 41  1  0
  1 42  1  0
  1 43  1  0
  2  3  1  0
  3  4  2  0
  3 40  1  0
  4  5  1  0
  4 44  1  0
  5  6  2  0
  5 45  1  0
  6  7  1  0
  6 46  1  0
  7  8  1  0
  7 40  2  0
  8  9  1  0
  8 47  1  0
  8 48  1  0
  9 10  1  0
  9 24  1  0
 10 11  2  0
 10 12  1  0
 12 13  1  0
 12 49  1  0
 12 50  1  0
 13 14  1  0
 13 51  1  0
 13 52  1  0
 14 15  2  0
 14 23  1  0
 15 16  1  0
 15 53  1  0
 16 17  2  0
 16 54  1  0
 17 18  1  0
 17 55  1  0
 18 19  1  0
 18 23  2  0
 19 20  2  0
 19 56  1  0
 20 21  1  0
 20 57  1  0
 21 22  2  0
 21 58  1  0
 22 23  1  0
 22 59  1  0
 24 25  1  0
 24 32  1  0
 24 60  1  6
 25 26  1  0
 25 61  1  0
 25 62  1  0
 26 27  2  0
 26 31  1  0
 27 28  1  0
 27 63  1  0
 28 29  2  0
 28 64  1  0
 29 30  1  0
 29 65  1  0
 30 31  2  0
 30 66  1  0
 31 67  1  0
 32 33  2  0
 32 34  1  0
 34 35  1  0
 34 68  1  0
 35 36  1  0
 35 39  1  0
 35 69  1  1
 36 37  1  0
 36 70  1  0
 36 71  1  0
 37 38  1  0
 37 72  1  0
 37 73  1  0
 38 39  1  0
 38 74  1  0
 38 75  1  0
 39 76  1  0
 39 77  1  0
 40 78  1  0
M  END

