
     RDKit          3D

 36 36  0  0  0  0  0  0  0  0999 V2000
    0.9362   -1.7854    0.4855 C   0  0  0  0  0  0  0  0  0  0  0  0
    2.3776   -1.9016    0.3116 N   0  0  0  0  0  0  0  0  0  0  0  0
    3.1382   -1.0311    1.2140 C   0  0  0  0  0  0  0  0  0  0  0  0
    4.6237   -1.0613    0.9418 C   0  0  0  0  0  0  0  0  0  0  0  0
    5.2970    0.0454    0.4159 C   0  0  0  0  0  0  0  0  0  0  0  0
    6.6711    0.0192    0.1641 C   0  0  0  0  0  0  0  0  0  0  0  0
    7.4111   -1.1365    0.4445 C   0  0  0  0  0  0  0  0  0  0  0  0
    8.8942   -1.1586    0.2122 C   0  0  0  0  0  0  0  0  0  0  0  0
    9.6867   -0.1641    0.3773 N   0  0  0  0  0  0  0  0  0  0  0  0
    9.4068   -2.3885   -0.1592 N   0  0  0  0  0  0  0  0  0  0  0  0
    6.7530   -2.2617    0.9718 C   0  0  0  0  0  0  0  0  0  0  0  0
    5.3751   -2.2276    1.2154 C   0  0  0  0  0  0  0  0  0  0  0  0
    4.6786   -3.2602    1.7523 O   0  0  0  0  0  0  0  0  0  0  0  0
    5.1193   -4.6017    1.6579 C   0  0  0  0  0  0  0  0  0  0  0  0
    3.9587   -5.5453    1.3193 C   0  0  0  0  0  0  0  0  0  0  0  0
    4.1074   -6.7473    1.4792 O   0  0  0  0  0  0  0  0  0  0  0  0
    2.8573   -4.9464    0.8090 N   0  0  0  0  0  0  0  0  0  0  0  0
    1.6994   -5.7105    0.4002 C   0  0  0  0  0  0  0  0  0  0  0  0
    0.4159   -2.4098   -0.2570 H   0  0  0  0  0  0  0  0  0  0  0  0
    0.5538   -0.7464    0.3915 H   0  0  0  0  0  0  0  0  0  0  0  0
    0.6509   -2.1497    1.4862 H   0  0  0  0  0  0  0  0  0  0  0  0
    2.6290   -1.6821   -0.6527 H   0  0  0  0  0  0  0  0  0  0  0  0
    2.9452   -1.3772    2.2441 H   0  0  0  0  0  0  0  0  0  0  0  0
    2.7890    0.0220    1.1617 H   0  0  0  0  0  0  0  0  0  0  0  0
    4.7265    0.9516    0.1923 H   0  0  0  0  0  0  0  0  0  0  0  0
    7.1678    0.8917   -0.2653 H   0  0  0  0  0  0  0  0  0  0  0  0
    9.1827    0.6360    0.7644 H   0  0  0  0  0  0  0  0  0  0  0  0
    8.8298   -2.9783   -0.7481 H   0  0  0  0  0  0  0  0  0  0  0  0
   10.3911   -2.3662   -0.4084 H   0  0  0  0  0  0  0  0  0  0  0  0
    7.3379   -3.1456    1.2272 H   0  0  0  0  0  0  0  0  0  0  0  0
    5.5648   -4.9402    2.6075 H   0  0  0  0  0  0  0  0  0  0  0  0
    5.8781   -4.7240    0.8664 H   0  0  0  0  0  0  0  0  0  0  0  0
    2.8367   -3.9231    0.7091 H   0  0  0  0  0  0  0  0  0  0  0  0
    1.9117   -6.7750    0.5676 H   0  0  0  0  0  0  0  0  0  0  0  0
    1.4731   -5.5591   -0.6697 H   0  0  0  0  0  0  0  0  0  0  0  0
    0.8033   -5.4330    0.9821 H   0  0  0  0  0  0  0  0  0  0  0  0
  1  2  1  0
  1 19  1  0
  1 20  1  0
  1 21  1  0
  2  3  1  0
  2 22  1  0
  3  4  1  0
  3 23  1  0
  3 24  1  0
  4  5  2  0
  4 12  1  0
  5  6  1  0
  5 25  1  0
  6  7  2  0
  6 26  1  0
  7  8  1  0
  7 11  1  0
  8  9  2  0
  8 10  1  0
  9 27  1  0
 10 28  1  0
 10 29  1  0
 11 12  2  0
 11 30  1  0
 12 13  1  0
 13 14  1  0
 14 15  1  0
 14 31  1  0
 14 32  1  0
 15 16  2  0
 15 17  1  0
 17 18  1  0
 17 33  1  0
 18 34  1  0
 18 35  1  0
 18 36  1  0
M  END

