
     RDKit          3D

 36 38  0  0  0  0  0  0  0  0999 V2000
    0.9693    0.2445   -0.0595 C   0  0  0  0  0  0  0  0  0  0  0  0
    2.1773   -0.1206    0.5668 O   0  0  0  0  0  0  0  0  0  0  0  0
    2.7722    0.7528    1.4215 C   0  0  0  0  0  0  0  0  0  0  0  0
    2.2732    2.0241    1.7290 C   0  0  0  0  0  0  0  0  0  0  0  0
    2.9886    2.8285    2.6299 C   0  0  0  0  0  0  0  0  0  0  0  0
    4.1694    2.3937    3.2165 C   0  0  0  0  0  0  0  0  0  0  0  0
    4.6644    1.1122    2.9008 C   0  0  0  0  0  0  0  0  0  0  0  0
    5.8259    0.7581    3.5095 O   0  0  0  0  0  0  0  0  0  0  0  0
    6.3779   -0.5251    3.2586 C   0  0  0  0  0  0  0  0  0  0  0  0
    7.6133   -0.6910    4.0933 C   0  0  0  0  0  0  0  0  0  0  0  0
    8.9026   -0.5621    3.6368 C   0  0  0  0  0  0  0  0  0  0  0  0
   10.0203   -0.8052    4.9292 S   0  0  0  0  0  0  0  0  0  0  0  0
    8.6564   -1.0705    6.0199 C   0  0  0  0  0  0  0  0  0  0  0  0
    8.8337   -1.3708    7.4484 C   0  0  0  0  0  0  0  0  0  0  0  0
   10.1036   -1.4904    8.0413 C   0  0  0  0  0  0  0  0  0  0  0  0
   10.2375   -1.7752    9.3996 C   0  0  0  0  0  0  0  0  0  0  0  0
    9.0876   -1.9416   10.1693 C   0  0  0  0  0  0  0  0  0  0  0  0
    9.2097   -2.2155   11.4745 F   0  0  0  0  0  0  0  0  0  0  0  0
    7.8137   -1.8294    9.6127 C   0  0  0  0  0  0  0  0  0  0  0  0
    7.6916   -1.5443    8.2551 C   0  0  0  0  0  0  0  0  0  0  0  0
    7.4978   -0.9770    5.4273 N   0  0  0  0  0  0  0  0  0  0  0  0
    3.9686    0.2946    2.0065 C   0  0  0  0  0  0  0  0  0  0  0  0
    0.6735   -0.6053   -0.6897 H   0  0  0  0  0  0  0  0  0  0  0  0
    1.0896    1.1382   -0.6986 H   0  0  0  0  0  0  0  0  0  0  0  0
    0.1672    0.4411    0.6749 H   0  0  0  0  0  0  0  0  0  0  0  0
    1.3497    2.3954    1.2863 H   0  0  0  0  0  0  0  0  0  0  0  0
    2.6033    3.8221    2.8745 H   0  0  0  0  0  0  0  0  0  0  0  0
    4.7293    3.0133    3.9186 H   0  0  0  0  0  0  0  0  0  0  0  0
    6.6242   -0.6348    2.1871 H   0  0  0  0  0  0  0  0  0  0  0  0
    5.6510   -1.3120    3.5282 H   0  0  0  0  0  0  0  0  0  0  0  0
    9.2413   -0.3325    2.6280 H   0  0  0  0  0  0  0  0  0  0  0  0
   11.0064   -1.3613    7.4387 H   0  0  0  0  0  0  0  0  0  0  0  0
   11.2178   -1.8705    9.8702 H   0  0  0  0  0  0  0  0  0  0  0  0
    6.9371   -1.9655   10.2491 H   0  0  0  0  0  0  0  0  0  0  0  0
    6.7085   -1.4492    7.7919 H   0  0  0  0  0  0  0  0  0  0  0  0
    4.3099   -0.7024    1.7321 H   0  0  0  0  0  0  0  0  0  0  0  0
  1  2  1  0
  1 23  1  0
  1 24  1  0
  1 25  1  0
  2  3  1  0
  3  4  2  0
  3 22  1  0
  4  5  1  0
  4 26  1  0
  5  6  2  0
  5 27  1  0
  6  7  1  0
  6 28  1  0
  7  8  1  0
  7 22  2  0
  8  9  1  0
  9 10  1  0
  9 29  1  0
  9 30  1  0
 10 11  2  0
 10 21  1  0
 11 12  1  0
 11 31  1  0
 12 13  1  0
 13 14  1  0
 13 21  2  0
 14 15  2  0
 14 20  1  0
 15 16  1  0
 15 32  1  0
 16 17  2  0
 16 33  1  0
 17 18  1  0
 17 19  1  0
 19 20  2  0
 19 34  1  0
 20 35  1  0
 22 36  1  0
M  END

