
     RDKit          3D

 45 47  0  0  0  0  0  0  0  0999 V2000
    1.5992    0.3720    0.5024 C   0  0  0  0  0  0  0  0  0  0  0  0
    3.0963    0.6513    0.7004 C   0  0  1  0  0  0  0  0  0  0  0  0
    3.3409    2.0514    1.2815 C   0  0  0  0  0  0  0  0  0  0  0  0
    3.6848   -0.3993    1.6478 C   0  0  0  0  0  0  0  0  0  0  0  0
    3.2960   -0.5183    2.7995 O   0  0  0  0  0  0  0  0  0  0  0  0
    4.6707   -1.1870    1.1189 N   0  0  0  0  0  0  0  0  0  0  0  0
    5.3091   -2.2573    1.8866 C   0  0  1  0  0  0  0  0  0  0  0  0
    4.6956   -3.6264    1.5790 C   0  0  0  0  0  0  0  0  0  0  0  0
    5.2848   -4.5482    0.7025 C   0  0  0  0  0  0  0  0  0  0  0  0
    4.6613   -5.7719    0.4344 C   0  0  0  0  0  0  0  0  0  0  0  0
    3.4425   -6.0881    1.0386 C   0  0  0  0  0  0  0  0  0  0  0  0
    2.8480   -5.1733    1.9147 C   0  0  0  0  0  0  0  0  0  0  0  0
    3.4696   -3.9527    2.1840 C   0  0  0  0  0  0  0  0  0  0  0  0
    6.7959   -2.1744    1.7429 C   0  0  0  0  0  0  0  0  0  0  0  0
    7.6998   -2.1422    2.6567 N   0  0  0  0  0  0  0  0  0  0  0  0
    8.9347   -2.0367    2.0297 N   0  0  0  0  0  0  0  0  0  0  0  0
    8.6778   -1.9999    0.7498 C   0  0  0  0  0  0  0  0  0  0  0  0
    9.5453   -1.8915   -0.2740 N   0  0  0  0  0  0  0  0  0  0  0  0
   10.9859   -1.7627   -0.0416 C   0  0  0  0  0  0  0  0  0  0  0  0
   11.5123   -1.3190   -1.4130 C   0  0  0  0  0  0  0  0  0  0  0  0
   10.5236   -1.9597   -2.4005 C   0  0  0  0  0  0  0  0  0  0  0  0
    9.1703   -1.8317   -1.6858 C   0  0  0  0  0  0  0  0  0  0  0  0
    7.3472   -2.0844    0.4762 O   0  0  0  0  0  0  0  0  0  0  0  0
    1.1447    1.1306   -0.1545 H   0  0  0  0  0  0  0  0  0  0  0  0
    1.0812    0.3939    1.4733 H   0  0  0  0  0  0  0  0  0  0  0  0
    1.4291   -0.6181    0.0498 H   0  0  0  0  0  0  0  0  0  0  0  0
    3.6049    0.5780   -0.2776 H   0  0  0  0  0  0  0  0  0  0  0  0
    2.8893    2.1269    2.2823 H   0  0  0  0  0  0  0  0  0  0  0  0
    2.8949    2.8245    0.6359 H   0  0  0  0  0  0  0  0  0  0  0  0
    4.4171    2.2657    1.3789 H   0  0  0  0  0  0  0  0  0  0  0  0
    4.8976   -1.1072    0.1347 H   0  0  0  0  0  0  0  0  0  0  0  0
    5.1022   -2.0237    2.9400 H   0  0  0  0  0  0  0  0  0  0  0  0
    6.2385   -4.3172    0.2242 H   0  0  0  0  0  0  0  0  0  0  0  0
    5.1353   -6.4822   -0.2481 H   0  0  0  0  0  0  0  0  0  0  0  0
    2.9583   -7.0459    0.8316 H   0  0  0  0  0  0  0  0  0  0  0  0
    1.8970   -5.4147    2.3966 H   0  0  0  0  0  0  0  0  0  0  0  0
    3.0059   -3.2353    2.8660 H   0  0  0  0  0  0  0  0  0  0  0  0
   11.4162   -2.7306    0.2759 H   0  0  0  0  0  0  0  0  0  0  0  0
   11.1853   -1.0410    0.7657 H   0  0  0  0  0  0  0  0  0  0  0  0
   12.5546   -1.6259   -1.5829 H   0  0  0  0  0  0  0  0  0  0  0  0
   11.4710   -0.2201   -1.4950 H   0  0  0  0  0  0  0  0  0  0  0  0
   10.7698   -3.0246   -2.5463 H   0  0  0  0  0  0  0  0  0  0  0  0
   10.5212   -1.4799   -3.3902 H   0  0  0  0  0  0  0  0  0  0  0  0
    8.4676   -2.6388   -1.9495 H   0  0  0  0  0  0  0  0  0  0  0  0
    8.6733   -0.8718   -1.9258 H   0  0  0  0  0  0  0  0  0  0  0  0
  1  2  1  0
  1 24  1  0
  1 25  1  0
  1 26  1  0
  2  3  1  0
  2  4  1  0
  2 27  1  6
  3 28  1  0
  3 29  1  0
  3 30  1  0
  4  5  2  0
  4  6  1  0
  6  7  1  0
  6 31  1  0
  7  8  1  0
  7 14  1  0
  7 32  1  1
  8  9  2  0
  8 13  1  0
  9 10  1  0
  9 33  1  0
 10 11  2  0
 10 34  1  0
 11 12  1  0
 11 35  1  0
 12 13  2  0
 12 36  1  0
 13 37  1  0
 14 15  2  0
 14 23  1  0
 15 16  1  0
 16 17  2  0
 17 18  1  0
 17 23  1  0
 18 19  1  0
 18 22  1  0
 19 20  1  0
 19 38  1  0
 19 39  1  0
 20 21  1  0
 20 40  1  0
 20 41  1  0
 21 22  1  0
 21 42  1  0
 21 43  1  0
 22 44  1  0
 22 45  1  0
M  END

