
     RDKit          3D

 43 44  0  0  0  0  0  0  0  0999 V2000
    1.3129    0.1045   -1.8065 C   0  0  0  0  0  0  0  0  0  0  0  0
    2.4386   -0.3363   -1.8650 C   0  0  0  0  0  0  0  0  0  0  0  0
    3.7862   -0.9002   -1.9430 C   0  0  0  0  0  0  0  0  0  0  0  0
    4.3173   -1.1804   -0.6093 N   0  0  0  0  0  0  0  0  0  0  0  0
    5.9472   -1.4614   -0.3740 S   0  0  1  0  0  0  0  0  0  0  0  0
    6.6508   -0.4995   -1.2217 O   0  0  0  0  0  0  0  0  0  0  0  0
    6.1240   -1.5398    1.0731 O   0  0  0  0  0  0  0  0  0  0  0  0
    6.2862   -3.1032   -1.0401 C   0  0  0  0  0  0  0  0  0  0  0  0
    6.7105   -3.2401   -2.3658 C   0  0  0  0  0  0  0  0  0  0  0  0
    6.9434   -4.5171   -2.8759 C   0  0  0  0  0  0  0  0  0  0  0  0
    6.7554   -5.6519   -2.0724 C   0  0  0  0  0  0  0  0  0  0  0  0
    7.0266   -6.9845   -2.7070 C   0  0  0  0  0  0  0  0  0  0  0  0
    7.6244   -7.1077   -3.7716 O   0  0  0  0  0  0  0  0  0  0  0  0
    6.5653   -8.0756   -2.0403 N   0  0  0  0  0  0  0  0  0  0  0  0
    6.7796   -9.3209   -2.5824 N   0  0  0  0  0  0  0  0  0  0  0  0
    6.2948  -10.4064   -1.9073 C   0  0  0  0  0  0  0  0  0  0  0  0
    5.6926  -10.2412   -0.8495 O   0  0  0  0  0  0  0  0  0  0  0  0
    6.5461  -11.7323   -2.5547 C   0  0  0  0  0  0  0  0  0  0  0  0
    6.5913  -11.8222   -3.9577 C   0  0  0  0  0  0  0  0  0  0  0  0
    6.8148  -13.0409   -4.5971 C   0  0  0  0  0  0  0  0  0  0  0  0
    7.0000  -14.1900   -3.8264 C   0  0  0  0  0  0  0  0  0  0  0  0
    6.9505  -14.1088   -2.4331 C   0  0  0  0  0  0  0  0  0  0  0  0
    6.7171  -12.8968   -1.7646 C   0  0  0  0  0  0  0  0  0  0  0  0
    6.6618  -12.8814   -0.2566 C   0  0  0  0  0  0  0  0  0  0  0  0
    6.3580   -5.4921   -0.7337 C   0  0  0  0  0  0  0  0  0  0  0  0
    6.1241   -4.2198   -0.2129 C   0  0  0  0  0  0  0  0  0  0  0  0
    0.3188    0.5080   -1.7547 H   0  0  0  0  0  0  0  0  0  0  0  0
    4.4677   -0.1784   -2.4207 H   0  0  0  0  0  0  0  0  0  0  0  0
    3.7625   -1.8018   -2.5888 H   0  0  0  0  0  0  0  0  0  0  0  0
    3.7217   -1.7037    0.0290 H   0  0  0  0  0  0  0  0  0  0  0  0
    6.8766   -2.3508   -2.9761 H   0  0  0  0  0  0  0  0  0  0  0  0
    7.2853   -4.6619   -3.9022 H   0  0  0  0  0  0  0  0  0  0  0  0
    5.9976   -8.1061   -1.1973 H   0  0  0  0  0  0  0  0  0  0  0  0
    7.3860   -9.3172   -3.3973 H   0  0  0  0  0  0  0  0  0  0  0  0
    6.4165  -10.9287   -4.5620 H   0  0  0  0  0  0  0  0  0  0  0  0
    6.8367  -13.0915   -5.6882 H   0  0  0  0  0  0  0  0  0  0  0  0
    7.1790  -15.1543   -4.3087 H   0  0  0  0  0  0  0  0  0  0  0  0
    7.0961  -15.0145   -1.8382 H   0  0  0  0  0  0  0  0  0  0  0  0
    6.9552  -13.8606    0.1488 H   0  0  0  0  0  0  0  0  0  0  0  0
    5.6501  -12.6361    0.0982 H   0  0  0  0  0  0  0  0  0  0  0  0
    7.3230  -12.1130    0.1720 H   0  0  0  0  0  0  0  0  0  0  0  0
    6.2602   -6.3539   -0.0694 H   0  0  0  0  0  0  0  0  0  0  0  0
    5.8446   -4.0841    0.8335 H   0  0  0  0  0  0  0  0  0  0  0  0
  1  2  3  0
  1 27  1  0
  2  3  1  0
  3  4  1  0
  3 28  1  0
  3 29  1  0
  5  4  1  1
  4 30  1  0
  5  6  2  0
  5  7  2  0
  5  8  1  0
  8  9  2  0
  8 26  1  0
  9 10  1  0
  9 31  1  0
 10 11  2  0
 10 32  1  0
 11 12  1  0
 11 25  1  0
 12 13  2  0
 12 14  1  0
 14 15  1  0
 14 33  1  0
 15 16  1  0
 15 34  1  0
 16 17  2  0
 16 18  1  0
 18 19  2  0
 18 23  1  0
 19 20  1  0
 19 35  1  0
 20 21  2  0
 20 36  1  0
 21 22  1  0
 21 37  1  0
 22 23  2  0
 22 38  1  0
 23 24  1  0
 24 39  1  0
 24 40  1  0
 24 41  1  0
 25 26  2  0
 25 42  1  0
 26 43  1  0
M  END

