
     RDKit          3D

 34 35  0  0  0  0  0  0  0  0999 V2000
    2.2381   -1.3785    0.4570 O   0  0  0  0  0  0  0  0  0  0  0  0
    2.0821   -0.0172    0.1023 C   0  0  0  0  0  0  0  0  0  0  0  0
    3.1145    0.8052    0.8767 C   0  0  1  0  0  0  0  0  0  0  0  0
    4.5644    0.3934    0.5625 C   0  0  0  0  0  0  0  0  0  0  0  0
    5.0147    0.9124   -0.8076 C   0  0  0  0  0  0  0  0  0  0  0  0
    4.7522    2.4121   -0.9482 C   0  0  0  0  0  0  0  0  0  0  0  0
    3.3499    2.7327   -0.6898 N   0  0  0  0  0  0  0  0  0  0  0  0
    3.0363    4.1286   -0.9478 C   0  0  0  0  0  0  0  0  0  0  0  0
    1.5722    4.3892   -1.2648 C   0  0  0  0  0  0  0  0  0  0  0  0
    0.7646    3.3793   -1.8101 C   0  0  0  0  0  0  0  0  0  0  0  0
   -0.5703    3.6142   -2.1431 C   0  0  0  0  0  0  0  0  0  0  0  0
   -1.1357    4.8751   -1.9416 C   0  0  0  0  0  0  0  0  0  0  0  0
   -0.3438    5.8868   -1.4091 C   0  0  0  0  0  0  0  0  0  0  0  0
   -0.8712    7.0987   -1.2159 F   0  0  0  0  0  0  0  0  0  0  0  0
    0.9975    5.6581   -1.0731 C   0  0  0  0  0  0  0  0  0  0  0  0
    1.9183    6.9998   -0.4346 Cl  0  0  0  0  0  0  0  0  0  0  0  0
    2.9367    2.3133    0.6503 C   0  0  0  0  0  0  0  0  0  0  0  0
    1.6476   -1.9092   -0.0908 H   0  0  0  0  0  0  0  0  0  0  0  0
    1.0680    0.3525    0.3596 H   0  0  0  0  0  0  0  0  0  0  0  0
    2.2123    0.1352   -0.9864 H   0  0  0  0  0  0  0  0  0  0  0  0
    2.9215    0.6065    1.9455 H   0  0  0  0  0  0  0  0  0  0  0  0
    4.6572   -0.7014    0.6208 H   0  0  0  0  0  0  0  0  0  0  0  0
    5.2249    0.8152    1.3411 H   0  0  0  0  0  0  0  0  0  0  0  0
    4.4811    0.3798   -1.6131 H   0  0  0  0  0  0  0  0  0  0  0  0
    6.0890    0.7147   -0.9585 H   0  0  0  0  0  0  0  0  0  0  0  0
    5.0052    2.7483   -1.9671 H   0  0  0  0  0  0  0  0  0  0  0  0
    5.4253    2.9691   -0.2523 H   0  0  0  0  0  0  0  0  0  0  0  0
    3.6310    4.4613   -1.8172 H   0  0  0  0  0  0  0  0  0  0  0  0
    3.3486    4.7856   -0.1092 H   0  0  0  0  0  0  0  0  0  0  0  0
    1.2185    2.3993   -1.9634 H   0  0  0  0  0  0  0  0  0  0  0  0
   -1.1780    2.8107   -2.5658 H   0  0  0  0  0  0  0  0  0  0  0  0
   -2.1757    5.0959   -2.1893 H   0  0  0  0  0  0  0  0  0  0  0  0
    1.8820    2.5975    0.7972 H   0  0  0  0  0  0  0  0  0  0  0  0
    3.5214    2.8620    1.4259 H   0  0  0  0  0  0  0  0  0  0  0  0
  1  2  1  0
  1 18  1  0
  2  3  1  0
  2 19  1  0
  2 20  1  0
  3  4  1  0
  3 17  1  0
  3 21  1  1
  4  5  1  0
  4 22  1  0
  4 23  1  0
  5  6  1  0
  5 24  1  0
  5 25  1  0
  6  7  1  0
  6 26  1  0
  6 27  1  0
  7  8  1  0
  7 17  1  0
  8  9  1  0
  8 28  1  0
  8 29  1  0
  9 10  2  0
  9 15  1  0
 10 11  1  0
 10 30  1  0
 11 12  2  0
 11 31  1  0
 12 13  1  0
 12 32  1  0
 13 14  1  0
 13 15  2  0
 15 16  1  0
 17 33  1  0
 17 34  1  0
M  END

