
     RDKit          3D

 55 56  0  0  0  0  0  0  0  0999 V2000
    8.9472   13.6699    2.2499 C   0  0  0  0  0  0  0  0  0  0  0  0
    9.8849   12.6403    1.6981 C   0  0  0  0  0  0  0  0  0  0  0  0
    9.6584   11.3596    1.6959 N   0  0  0  0  0  0  0  0  0  0  0  0
   10.6890   10.6458    1.1261 C   0  0  0  0  0  0  0  0  0  0  0  0
   10.5559    9.1504    1.0170 C   0  0  0  0  0  0  0  0  0  0  0  0
   12.1627    8.3058    1.2833 S   0  0  0  0  0  0  0  0  0  0  0  0
   11.7225    6.6363    0.6737 C   0  0  0  0  0  0  0  0  0  0  0  0
   12.9374    5.7172    0.7472 C   0  0  0  0  0  0  0  0  0  0  0  0
   12.6592    4.3609    0.0928 C   0  0  0  0  0  0  0  0  0  0  0  0
   11.8743    4.2394   -0.8359 O   0  0  0  0  0  0  0  0  0  0  0  0
   13.3732    3.3228    0.6085 N   0  0  0  0  0  0  0  0  0  0  0  0
   13.3362    1.9782    0.0834 C   0  0  0  0  0  0  0  0  0  0  0  0
   14.7625    1.3311    0.0290 C   0  0  1  0  0  0  0  0  0  0  0  0
   15.3389    1.5171    1.3903 N   0  0  0  0  0  0  0  0  0  0  0  0
   14.8324    0.6457    2.4357 C   0  0  0  0  0  0  0  0  0  0  0  0
   16.7327    1.8544    1.5993 C   0  0  0  0  0  0  0  0  0  0  0  0
   14.5152   -0.1499   -0.3792 C   0  0  0  0  0  0  0  0  0  0  0  0
   15.7010   -1.1026   -0.5619 C   0  0  0  0  0  0  0  0  0  0  0  0
   16.6640   -0.7805   -1.7111 C   0  0  0  0  0  0  0  0  0  0  0  0
   17.5885    0.4065   -1.4274 C   0  0  0  0  0  0  0  0  0  0  0  0
   16.9773    1.8129   -1.5506 C   0  0  0  0  0  0  0  0  0  0  0  0
   15.5186    2.0929   -1.0967 C   0  0  0  0  0  0  0  0  0  0  0  0
   11.7420   11.4068    0.6823 C   0  0  0  0  0  0  0  0  0  0  0  0
   11.4320   13.0812    0.9852 S   0  0  0  0  0  0  0  0  0  0  0  0
    8.0638   13.1553    2.6512 H   0  0  0  0  0  0  0  0  0  0  0  0
    8.6203   14.3799    1.4727 H   0  0  0  0  0  0  0  0  0  0  0  0
    9.4149   14.2545    3.0586 H   0  0  0  0  0  0  0  0  0  0  0  0
   10.1808    8.8676    0.0180 H   0  0  0  0  0  0  0  0  0  0  0  0
    9.8147    8.8145    1.7576 H   0  0  0  0  0  0  0  0  0  0  0  0
   11.3740    6.6923   -0.3684 H   0  0  0  0  0  0  0  0  0  0  0  0
   10.8962    6.2305    1.2799 H   0  0  0  0  0  0  0  0  0  0  0  0
   13.2717    5.5870    1.7898 H   0  0  0  0  0  0  0  0  0  0  0  0
   13.7806    6.1790    0.2017 H   0  0  0  0  0  0  0  0  0  0  0  0
   14.0219    3.4632    1.3774 H   0  0  0  0  0  0  0  0  0  0  0  0
   12.8810    2.0200   -0.9153 H   0  0  0  0  0  0  0  0  0  0  0  0
   12.6751    1.3432    0.7011 H   0  0  0  0  0  0  0  0  0  0  0  0
   13.7407    0.5331    2.3708 H   0  0  0  0  0  0  0  0  0  0  0  0
   15.0533    1.0896    3.4210 H   0  0  0  0  0  0  0  0  0  0  0  0
   15.2755   -0.3738    2.4334 H   0  0  0  0  0  0  0  0  0  0  0  0
   17.0587    2.6527    0.9225 H   0  0  0  0  0  0  0  0  0  0  0  0
   17.4394    1.0031    1.4957 H   0  0  0  0  0  0  0  0  0  0  0  0
   16.8529    2.2389    2.6268 H   0  0  0  0  0  0  0  0  0  0  0  0
   13.9429   -0.1260   -1.3239 H   0  0  0  0  0  0  0  0  0  0  0  0
   13.8298   -0.5997    0.3571 H   0  0  0  0  0  0  0  0  0  0  0  0
   15.2809   -2.1101   -0.7274 H   0  0  0  0  0  0  0  0  0  0  0  0
   16.2780   -1.1742    0.3772 H   0  0  0  0  0  0  0  0  0  0  0  0
   16.0958   -0.6168   -2.6460 H   0  0  0  0  0  0  0  0  0  0  0  0
   17.2902   -1.6706   -1.8934 H   0  0  0  0  0  0  0  0  0  0  0  0
   18.4540    0.3662   -2.1108 H   0  0  0  0  0  0  0  0  0  0  0  0
   18.0113    0.2685   -0.4177 H   0  0  0  0  0  0  0  0  0  0  0  0
   17.0065    2.1030   -2.6152 H   0  0  0  0  0  0  0  0  0  0  0  0
   17.6658    2.5158   -1.0550 H   0  0  0  0  0  0  0  0  0  0  0  0
   14.8744    1.9480   -1.9779 H   0  0  0  0  0  0  0  0  0  0  0  0
   15.4473    3.1700   -0.8756 H   0  0  0  0  0  0  0  0  0  0  0  0
   12.6615   11.0660    0.2109 H   0  0  0  0  0  0  0  0  0  0  0  0
  1  2  1  0
  1 25  1  0
  1 26  1  0
  1 27  1  0
  2  3  2  0
  2 24  1  0
  3  4  1  0
  4  5  1  0
  4 23  2  0
  5  6  1  0
  5 28  1  0
  5 29  1  0
  6  7  1  0
  7  8  1  0
  7 30  1  0
  7 31  1  0
  8  9  1  0
  8 32  1  0
  8 33  1  0
  9 10  2  0
  9 11  1  0
 11 12  1  0
 11 34  1  0
 12 13  1  0
 12 35  1  0
 12 36  1  0
 13 14  1  1
 13 17  1  0
 13 22  1  0
 14 15  1  0
 14 16  1  0
 15 37  1  0
 15 38  1  0
 15 39  1  0
 16 40  1  0
 16 41  1  0
 16 42  1  0
 17 18  1  0
 17 43  1  0
 17 44  1  0
 18 19  1  0
 18 45  1  0
 18 46  1  0
 19 20  1  0
 19 47  1  0
 19 48  1  0
 20 21  1  0
 20 49  1  0
 20 50  1  0
 21 22  1  0
 21 51  1  0
 21 52  1  0
 22 53  1  0
 22 54  1  0
 23 24  1  0
 23 55  1  0
M  END

