
     RDKit          3D

 49 48  0  0  0  0  0  0  0  0999 V2000
    0.9753   -3.5693    0.9606 C   0  0  0  0  0  0  0  0  0  0  0  0
    2.0998   -2.7401    1.5825 C   0  0  0  0  0  0  0  0  0  0  0  0
    3.4234   -3.5008    1.7113 C   0  0  0  0  0  0  0  0  0  0  0  0
    4.5539   -2.6769    2.3340 C   0  0  0  0  0  0  0  0  0  0  0  0
    5.8765   -3.4387    2.4621 C   0  0  0  0  0  0  0  0  0  0  0  0
    7.0005   -2.6093    3.0905 C   0  0  0  0  0  0  0  0  0  0  0  0
    8.3042   -3.3892    3.2073 C   0  0  0  0  0  0  0  0  0  0  0  0
    9.3743   -2.5707    3.7157 O   0  0  0  0  0  0  0  0  0  0  0  0
    9.5142   -2.4821    5.0484 C   0  0  0  0  0  0  0  0  0  0  0  0
    8.8011   -3.0286    5.8521 O   0  0  0  0  0  0  0  0  0  0  0  0
   10.7062   -1.5922    5.3946 C   0  0  0  0  0  0  0  0  0  0  0  0
   10.9000   -1.4299    6.8138 N   0  0  0  0  0  0  0  0  0  0  0  0
    9.9982   -0.5379    7.5272 C   0  0  0  0  0  0  0  0  0  0  0  0
   11.6966   -2.3592    7.4369 C   0  0  0  0  0  0  0  0  0  0  0  0
   12.3382   -3.2096    6.8523 O   0  0  0  0  0  0  0  0  0  0  0  0
   11.7017   -2.2007    8.7805 O   0  0  0  0  0  0  0  0  0  0  0  0
   12.5170   -3.1091    9.5338 C   0  0  0  0  0  0  0  0  0  0  0  0
   13.9737   -2.6505    9.6486 C   0  0  1  0  0  0  0  0  0  0  0  0
   14.0898   -1.2607   10.2834 C   0  0  0  0  0  0  0  0  0  0  0  0
   14.7791   -3.6997   10.4242 C   0  0  0  0  0  0  0  0  0  0  0  0
    0.0404   -2.9916    0.8838 H   0  0  0  0  0  0  0  0  0  0  0  0
    0.7615   -4.4694    1.5612 H   0  0  0  0  0  0  0  0  0  0  0  0
    1.2411   -3.9081   -0.0550 H   0  0  0  0  0  0  0  0  0  0  0  0
    1.7875   -2.3851    2.5815 H   0  0  0  0  0  0  0  0  0  0  0  0
    2.2631   -1.8283    0.9793 H   0  0  0  0  0  0  0  0  0  0  0  0
    3.7377   -3.8562    0.7120 H   0  0  0  0  0  0  0  0  0  0  0  0
    3.2615   -4.4133    2.3151 H   0  0  0  0  0  0  0  0  0  0  0  0
    4.2408   -2.3229    3.3336 H   0  0  0  0  0  0  0  0  0  0  0  0
    4.7164   -1.7644    1.7307 H   0  0  0  0  0  0  0  0  0  0  0  0
    6.1922   -3.7906    1.4621 H   0  0  0  0  0  0  0  0  0  0  0  0
    5.7137   -4.3512    3.0647 H   0  0  0  0  0  0  0  0  0  0  0  0
    6.6975   -2.2740    4.0966 H   0  0  0  0  0  0  0  0  0  0  0  0
    7.1816   -1.7009    2.4893 H   0  0  0  0  0  0  0  0  0  0  0  0
    8.6521   -3.7289    2.2205 H   0  0  0  0  0  0  0  0  0  0  0  0
    8.1796   -4.2632    3.8642 H   0  0  0  0  0  0  0  0  0  0  0  0
   10.5611   -0.6118    4.9108 H   0  0  0  0  0  0  0  0  0  0  0  0
   11.6024   -2.0498    4.9528 H   0  0  0  0  0  0  0  0  0  0  0  0
    9.9463    0.4284    6.9990 H   0  0  0  0  0  0  0  0  0  0  0  0
   10.3736   -0.3619    8.5404 H   0  0  0  0  0  0  0  0  0  0  0  0
    8.9801   -0.9590    7.5933 H   0  0  0  0  0  0  0  0  0  0  0  0
   12.4672   -4.1038    9.0673 H   0  0  0  0  0  0  0  0  0  0  0  0
   12.0454   -3.1520   10.5287 H   0  0  0  0  0  0  0  0  0  0  0  0
   14.3721   -2.6054    8.6201 H   0  0  0  0  0  0  0  0  0  0  0  0
   13.7197   -1.2677   11.3237 H   0  0  0  0  0  0  0  0  0  0  0  0
   13.5050   -0.5143    9.7249 H   0  0  0  0  0  0  0  0  0  0  0  0
   15.1383   -0.9226   10.3051 H   0  0  0  0  0  0  0  0  0  0  0  0
   14.4024   -3.8108   11.4561 H   0  0  0  0  0  0  0  0  0  0  0  0
   15.8400   -3.4111   10.4902 H   0  0  0  0  0  0  0  0  0  0  0  0
   14.7313   -4.6887    9.9404 H   0  0  0  0  0  0  0  0  0  0  0  0
  1  2  1  0
  1 21  1  0
  1 22  1  0
  1 23  1  0
  2  3  1  0
  2 24  1  0
  2 25  1  0
  3  4  1  0
  3 26  1  0
  3 27  1  0
  4  5  1  0
  4 28  1  0
  4 29  1  0
  5  6  1  0
  5 30  1  0
  5 31  1  0
  6  7  1  0
  6 32  1  0
  6 33  1  0
  7  8  1  0
  7 34  1  0
  7 35  1  0
  8  9  1  0
  9 10  2  0
  9 11  1  0
 11 12  1  0
 11 36  1  0
 11 37  1  0
 12 13  1  0
 12 14  1  0
 13 38  1  0
 13 39  1  0
 13 40  1  0
 14 15  2  0
 14 16  1  0
 16 17  1  0
 17 18  1  0
 17 41  1  0
 17 42  1  0
 18 19  1  0
 18 20  1  0
 18 43  1  6
 19 44  1  0
 19 45  1  0
 19 46  1  0
 20 47  1  0
 20 48  1  0
 20 49  1  0
M  END

