
     RDKit          3D

 39 40  0  0  0  0  0  0  0  0999 V2000
    0.7714   -0.2595    0.2722 C   0  0  0  0  0  0  0  0  0  0  0  0
    2.2163   -0.1042    0.2472 N   0  0  0  0  0  0  0  0  0  0  0  0
    2.8368    0.1533    1.5472 C   0  0  1  0  0  0  0  0  0  0  0  0
    2.6348   -1.0652    2.4469 C   0  0  0  0  0  0  0  0  0  0  0  0
    3.0881   -2.3297    2.0347 C   0  0  0  0  0  0  0  0  0  0  0  0
    2.9147   -3.4526    2.8462 C   0  0  0  0  0  0  0  0  0  0  0  0
    2.2727   -3.3355    4.0847 C   0  0  0  0  0  0  0  0  0  0  0  0
    1.7967   -2.0890    4.4964 C   0  0  0  0  0  0  0  0  0  0  0  0
    1.9748   -0.9662    3.6794 C   0  0  0  0  0  0  0  0  0  0  0  0
    4.3457    0.4922    1.3575 C   0  0  1  0  0  0  0  0  0  0  0  0
    4.5857    1.5688    0.2886 C   0  0  0  0  0  0  0  0  0  0  0  0
    5.0717    0.8331    2.6909 C   0  0  0  0  0  0  0  0  0  0  0  0
    4.7460    2.1625    3.3457 C   0  0  0  0  0  0  0  0  0  0  0  0
    5.3922    3.3470    2.9507 C   0  0  0  0  0  0  0  0  0  0  0  0
    5.1040    4.5766    3.5479 C   0  0  0  0  0  0  0  0  0  0  0  0
    4.1547    4.6336    4.5708 C   0  0  0  0  0  0  0  0  0  0  0  0
    3.7524    6.3070    5.3975 Br  0  0  0  0  0  0  0  0  0  0  0  0
    3.5077    3.4739    5.0017 C   0  0  0  0  0  0  0  0  0  0  0  0
    3.8101    2.2545    4.3891 C   0  0  0  0  0  0  0  0  0  0  0  0
    0.3962   -0.3577   -0.7586 H   0  0  0  0  0  0  0  0  0  0  0  0
    0.2301    0.5855    0.7541 H   0  0  0  0  0  0  0  0  0  0  0  0
    0.4901   -1.1762    0.8136 H   0  0  0  0  0  0  0  0  0  0  0  0
    2.4574    0.6439   -0.3967 H   0  0  0  0  0  0  0  0  0  0  0  0
    2.3589    1.0221    2.0560 H   0  0  0  0  0  0  0  0  0  0  0  0
    3.5608   -2.4301    1.0549 H   0  0  0  0  0  0  0  0  0  0  0  0
    3.2762   -4.4276    2.5086 H   0  0  0  0  0  0  0  0  0  0  0  0
    2.1359   -4.2149    4.7194 H   0  0  0  0  0  0  0  0  0  0  0  0
    1.2783   -1.9880    5.4537 H   0  0  0  0  0  0  0  0  0  0  0  0
    1.5797    0.0020    3.9993 H   0  0  0  0  0  0  0  0  0  0  0  0
    4.8232   -0.4335    0.9928 H   0  0  0  0  0  0  0  0  0  0  0  0
    4.0344    2.4991    0.5015 H   0  0  0  0  0  0  0  0  0  0  0  0
    4.3017    1.2160   -0.7144 H   0  0  0  0  0  0  0  0  0  0  0  0
    5.6556    1.8254    0.2322 H   0  0  0  0  0  0  0  0  0  0  0  0
    6.1540    0.8093    2.4801 H   0  0  0  0  0  0  0  0  0  0  0  0
    4.8824    0.0216    3.4099 H   0  0  0  0  0  0  0  0  0  0  0  0
    6.1511    3.3127    2.1651 H   0  0  0  0  0  0  0  0  0  0  0  0
    5.6201    5.4827    3.2258 H   0  0  0  0  0  0  0  0  0  0  0  0
    2.7794    3.5199    5.8132 H   0  0  0  0  0  0  0  0  0  0  0  0
    3.3143    1.3490    4.7450 H   0  0  0  0  0  0  0  0  0  0  0  0
  1  2  1  0
  1 20  1  0
  1 21  1  0
  1 22  1  0
  2  3  1  0
  2 23  1  0
  3  4  1  0
  3 10  1  0
  3 24  1  1
  4  5  2  0
  4  9  1  0
  5  6  1  0
  5 25  1  0
  6  7  2  0
  6 26  1  0
  7  8  1  0
  7 27  1  0
  8  9  2  0
  8 28  1  0
  9 29  1  0
 10 11  1  0
 10 12  1  0
 10 30  1  6
 11 31  1  0
 11 32  1  0
 11 33  1  0
 12 13  1  0
 12 34  1  0
 12 35  1  0
 13 14  2  0
 13 19  1  0
 14 15  1  0
 14 36  1  0
 15 16  2  0
 15 37  1  0
 16 17  1  0
 16 18  1  0
 18 19  2  0
 18 38  1  0
 19 39  1  0
M  END

