
     RDKit          3D

 63 67  0  0  0  0  0  0  0  0999 V2000
    1.6064    0.0214    0.3200 O   0  0  0  0  0  0  0  0  0  0  0  0
    2.8311   -0.1182    0.2608 C   0  0  0  0  0  0  0  0  0  0  0  0
    3.3831   -1.5058    0.2275 C   0  0  0  0  0  0  0  0  0  0  0  0
    4.6768   -1.8760    0.4871 N   0  0  0  0  0  0  0  0  0  0  0  0
    4.7264   -3.1870    0.3935 C   0  0  0  0  0  0  0  0  0  0  0  0
    5.9656   -3.9620    0.5999 C   0  0  0  0  0  0  0  0  0  0  0  0
    6.8692   -3.5222    1.5875 C   0  0  0  0  0  0  0  0  0  0  0  0
    8.0765   -4.1876    1.7968 C   0  0  0  0  0  0  0  0  0  0  0  0
    8.4104   -5.3055    1.0238 C   0  0  0  0  0  0  0  0  0  0  0  0
    7.5304   -5.7430    0.0307 C   0  0  0  0  0  0  0  0  0  0  0  0
    6.3210   -5.0763   -0.1839 C   0  0  0  0  0  0  0  0  0  0  0  0
    3.4766   -3.7083    0.0886 N   0  0  0  0  0  0  0  0  0  0  0  0
    2.6054   -2.6382   -0.0261 C   0  0  0  0  0  0  0  0  0  0  0  0
    1.1427   -2.7372   -0.3623 C   0  0  0  0  0  0  0  0  0  0  0  0
    0.7293   -3.9618   -1.1887 C   0  0  0  0  0  0  0  0  0  0  0  0
    0.6064   -5.2537   -0.3688 C   0  0  0  0  0  0  0  0  0  0  0  0
    1.7595   -5.4682    0.6232 C   0  0  0  0  0  0  0  0  0  0  0  0
    3.1451   -5.1400    0.0624 C   0  0  0  0  0  0  0  0  0  0  0  0
    3.6638    0.9761    0.2346 N   0  0  0  0  0  0  0  0  0  0  0  0
    5.0998    1.0076   -0.0432 C   0  0  0  0  0  0  0  0  0  0  0  0
    5.3793    1.7454   -1.3600 C   0  0  0  0  0  0  0  0  0  0  0  0
    4.7649    3.1554   -1.3661 C   0  0  2  0  0  0  0  0  0  0  0  0
    5.3895    4.0116   -0.4134 O   0  0  0  0  0  0  0  0  0  0  0  0
    6.6523    4.5155   -0.7694 C   0  0  0  0  0  0  0  0  0  0  0  0
    7.0979    5.5816    0.2079 C   0  0  0  0  0  0  0  0  0  0  0  0
    8.4603    5.8958    0.3250 C   0  0  0  0  0  0  0  0  0  0  0  0
    8.8878    6.9092    1.1863 C   0  0  0  0  0  0  0  0  0  0  0  0
    7.9560    7.6172    1.9521 C   0  0  0  0  0  0  0  0  0  0  0  0
    6.5979    7.3036    1.8474 C   0  0  0  0  0  0  0  0  0  0  0  0
    6.1703    6.2942    0.9796 C   0  0  0  0  0  0  0  0  0  0  0  0
    3.2806    3.0825   -0.9971 C   0  0  0  0  0  0  0  0  0  0  0  0
    3.0588    2.3067    0.3069 C   0  0  0  0  0  0  0  0  0  0  0  0
    6.6046   -2.6474    2.1840 H   0  0  0  0  0  0  0  0  0  0  0  0
    8.7617   -3.8338    2.5715 H   0  0  0  0  0  0  0  0  0  0  0  0
    9.3555   -5.8284    1.1905 H   0  0  0  0  0  0  0  0  0  0  0  0
    7.7906   -6.6026   -0.5924 H   0  0  0  0  0  0  0  0  0  0  0  0
    5.6681   -5.4095   -0.9926 H   0  0  0  0  0  0  0  0  0  0  0  0
    0.8835   -1.8075   -0.8849 H   0  0  0  0  0  0  0  0  0  0  0  0
    0.5475   -2.6865    0.5683 H   0  0  0  0  0  0  0  0  0  0  0  0
    1.4493   -4.1020   -2.0140 H   0  0  0  0  0  0  0  0  0  0  0  0
   -0.2378   -3.7535   -1.6742 H   0  0  0  0  0  0  0  0  0  0  0  0
    0.5453   -6.1147   -1.0572 H   0  0  0  0  0  0  0  0  0  0  0  0
   -0.3425   -5.2475    0.1943 H   0  0  0  0  0  0  0  0  0  0  0  0
    1.7682   -6.5211    0.9498 H   0  0  0  0  0  0  0  0  0  0  0  0
    1.6053   -4.8714    1.5374 H   0  0  0  0  0  0  0  0  0  0  0  0
    3.2405   -5.5289   -0.9667 H   0  0  0  0  0  0  0  0  0  0  0  0
    3.9118   -5.6446    0.6637 H   0  0  0  0  0  0  0  0  0  0  0  0
    5.4949   -0.0112   -0.0578 H   0  0  0  0  0  0  0  0  0  0  0  0
    5.6012    1.5446    0.7822 H   0  0  0  0  0  0  0  0  0  0  0  0
    4.9524    1.1725   -2.2012 H   0  0  0  0  0  0  0  0  0  0  0  0
    6.4672    1.7942   -1.5328 H   0  0  0  0  0  0  0  0  0  0  0  0
    4.8771    3.6045   -2.3741 H   0  0  0  0  0  0  0  0  0  0  0  0
    6.6094    4.9494   -1.7931 H   0  0  0  0  0  0  0  0  0  0  0  0
    7.4183    3.7153   -0.8061 H   0  0  0  0  0  0  0  0  0  0  0  0
    9.1969    5.3387   -0.2627 H   0  0  0  0  0  0  0  0  0  0  0  0
    9.9532    7.1412    1.2659 H   0  0  0  0  0  0  0  0  0  0  0  0
    8.2886    8.4065    2.6313 H   0  0  0  0  0  0  0  0  0  0  0  0
    5.8636    7.8484    2.4471 H   0  0  0  0  0  0  0  0  0  0  0  0
    5.1122    6.0416    0.8989 H   0  0  0  0  0  0  0  0  0  0  0  0
    2.7337    2.5846   -1.8151 H   0  0  0  0  0  0  0  0  0  0  0  0
    2.8807    4.1048   -0.9018 H   0  0  0  0  0  0  0  0  0  0  0  0
    1.9904    2.1811    0.5135 H   0  0  0  0  0  0  0  0  0  0  0  0
    3.5224    2.8590    1.1427 H   0  0  0  0  0  0  0  0  0  0  0  0
  1  2  2  0
  2  3  1  0
  2 19  1  0
  3  4  1  0
  3 13  2  0
  4  5  2  0
  5  6  1  0
  5 12  1  0
  6  7  2  0
  6 11  1  0
  7  8  1  0
  7 33  1  0
  8  9  2  0
  8 34  1  0
  9 10  1  0
  9 35  1  0
 10 11  2  0
 10 36  1  0
 11 37  1  0
 12 13  1  0
 12 18  1  0
 13 14  1  0
 14 15  1  0
 14 38  1  0
 14 39  1  0
 15 16  1  0
 15 40  1  0
 15 41  1  0
 16 17  1  0
 16 42  1  0
 16 43  1  0
 17 18  1  0
 17 44  1  0
 17 45  1  0
 18 46  1  0
 18 47  1  0
 19 20  1  0
 19 32  1  0
 20 21  1  0
 20 48  1  0
 20 49  1  0
 21 22  1  0
 21 50  1  0
 21 51  1  0
 22 23  1  0
 22 31  1  0
 22 52  1  6
 23 24  1  0
 24 25  1  0
 24 53  1  0
 24 54  1  0
 25 26  2  0
 25 30  1  0
 26 27  1  0
 26 55  1  0
 27 28  2  0
 27 56  1  0
 28 29  1  0
 28 57  1  0
 29 30  2  0
 29 58  1  0
 30 59  1  0
 31 32  1  0
 31 60  1  0
 31 61  1  0
 32 62  1  0
 32 63  1  0
M  END

