
     RDKit          3D

 50 49  0  0  0  0  0  0  0  0999 V2000
    7.7466   -2.4943    6.1523 C   0  0  0  0  0  0  0  0  0  0  0  0
    6.6867   -2.9803    5.2062 C   0  0  0  0  0  0  0  0  0  0  0  0
    5.4426   -2.5063    5.0392 C   0  0  0  0  0  0  0  0  0  0  0  0
    4.7859   -1.3481    5.7534 C   0  0  0  0  0  0  0  0  0  0  0  0
    4.4040   -0.2385    4.8019 C   0  0  0  0  0  0  0  0  0  0  0  0
    3.1776    0.2282    4.5217 C   0  0  0  0  0  0  0  0  0  0  0  0
    1.8553   -0.2145    5.1035 C   0  0  0  0  0  0  0  0  0  0  0  0
    1.1798    0.8925    5.8788 C   0  0  0  0  0  0  0  0  0  0  0  0
    0.0084    1.4921    5.6172 C   0  0  0  0  0  0  0  0  0  0  0  0
   -0.9587    1.2025    4.4933 C   0  0  0  0  0  0  0  0  0  0  0  0
   -2.2960    0.7213    5.0069 C   0  0  0  0  0  0  0  0  0  0  0  0
   -3.4978    1.2970    4.8496 C   0  0  0  0  0  0  0  0  0  0  0  0
   -3.8379    2.5703    4.1241 C   0  0  0  0  0  0  0  0  0  0  0  0
   -4.4979    3.6245    5.0301 C   0  0  0  0  0  0  0  0  0  0  0  0
   -4.9072    4.9000    4.2886 C   0  0  0  0  0  0  0  0  0  0  0  0
   -5.5613    5.9544    5.1865 C   0  0  0  0  0  0  0  0  0  0  0  0
   -5.9754    7.2264    4.4431 C   0  0  0  0  0  0  0  0  0  0  0  0
   -6.6200    8.2838    5.3390 C   0  0  0  0  0  0  0  0  0  0  0  0
   -7.0431    9.4438    4.5599 N   0  0  0  0  0  0  0  0  0  0  0  0
    8.6579   -2.1995    5.6027 H   0  0  0  0  0  0  0  0  0  0  0  0
    8.0516   -3.2974    6.8464 H   0  0  0  0  0  0  0  0  0  0  0  0
    7.4263   -1.6334    6.7566 H   0  0  0  0  0  0  0  0  0  0  0  0
    6.9801   -3.8340    4.5820 H   0  0  0  0  0  0  0  0  0  0  0  0
    4.8113   -2.9941    4.2863 H   0  0  0  0  0  0  0  0  0  0  0  0
    5.4636   -0.9421    6.5232 H   0  0  0  0  0  0  0  0  0  0  0  0
    3.8946   -1.7155    6.2898 H   0  0  0  0  0  0  0  0  0  0  0  0
    5.2497    0.2147    4.2699 H   0  0  0  0  0  0  0  0  0  0  0  0
    3.1030    1.0484    3.7970 H   0  0  0  0  0  0  0  0  0  0  0  0
    2.0019   -1.0808    5.7704 H   0  0  0  0  0  0  0  0  0  0  0  0
    1.2021   -0.5615    4.2851 H   0  0  0  0  0  0  0  0  0  0  0  0
    1.7457    1.2481    6.7488 H   0  0  0  0  0  0  0  0  0  0  0  0
   -0.3179    2.2824    6.3046 H   0  0  0  0  0  0  0  0  0  0  0  0
   -0.5391    0.4405    3.8148 H   0  0  0  0  0  0  0  0  0  0  0  0
   -1.0893    2.1157    3.8887 H   0  0  0  0  0  0  0  0  0  0  0  0
   -2.2513   -0.2086    5.5873 H   0  0  0  0  0  0  0  0  0  0  0  0
   -4.3559    0.7901    5.3109 H   0  0  0  0  0  0  0  0  0  0  0  0
   -4.5374    2.3334    3.2994 H   0  0  0  0  0  0  0  0  0  0  0  0
   -2.9448    3.0055    3.6470 H   0  0  0  0  0  0  0  0  0  0  0  0
   -3.8040    3.8791    5.8515 H   0  0  0  0  0  0  0  0  0  0  0  0
   -5.3869    3.1816    5.5159 H   0  0  0  0  0  0  0  0  0  0  0  0
   -5.6008    4.6388    3.4678 H   0  0  0  0  0  0  0  0  0  0  0  0
   -4.0180    5.3392    3.7989 H   0  0  0  0  0  0  0  0  0  0  0  0
   -4.8660    6.2153    6.0061 H   0  0  0  0  0  0  0  0  0  0  0  0
   -6.4491    5.5134    5.6771 H   0  0  0  0  0  0  0  0  0  0  0  0
   -6.6827    6.9833    3.6311 H   0  0  0  0  0  0  0  0  0  0  0  0
   -5.0875    7.6665    3.9495 H   0  0  0  0  0  0  0  0  0  0  0  0
   -5.9188    8.5236    6.1705 H   0  0  0  0  0  0  0  0  0  0  0  0
   -7.5162    7.8496    5.8174 H   0  0  0  0  0  0  0  0  0  0  0  0
   -6.2274    9.9256    4.1780 H   0  0  0  0  0  0  0  0  0  0  0  0
   -7.5148   10.1229    5.1572 H   0  0  0  0  0  0  0  0  0  0  0  0
  1  2  1  0
  1 20  1  0
  1 21  1  0
  1 22  1  0
  2  3  2  0
  2 23  1  0
  3  4  1  0
  3 24  1  0
  4  5  1  0
  4 25  1  0
  4 26  1  0
  5  6  2  0
  5 27  1  0
  6  7  1  0
  6 28  1  0
  7  8  1  0
  7 29  1  0
  7 30  1  0
  8  9  2  0
  8 31  1  0
  9 10  1  0
  9 32  1  0
 10 11  1  0
 10 33  1  0
 10 34  1  0
 11 12  2  0
 11 35  1  0
 12 13  1  0
 12 36  1  0
 13 14  1  0
 13 37  1  0
 13 38  1  0
 14 15  1  0
 14 39  1  0
 14 40  1  0
 15 16  1  0
 15 41  1  0
 15 42  1  0
 16 17  1  0
 16 43  1  0
 16 44  1  0
 17 18  1  0
 17 45  1  0
 17 46  1  0
 18 19  1  0
 18 47  1  0
 18 48  1  0
 19 49  1  0
 19 50  1  0
M  END

