
     RDKit          3D

 37 38  0  0  0  0  0  0  0  0999 V2000
    1.3761    1.1963   -2.4789 C   0  0  0  0  0  0  0  0  0  0  0  0
    2.7252    1.2457   -2.1020 O   0  0  0  0  0  0  0  0  0  0  0  0
    2.9336    1.2121   -0.7104 C   0  0  0  0  0  0  0  0  0  0  0  0
    4.4278    1.2840   -0.4246 C   0  0  0  0  0  0  0  0  0  0  0  0
    5.0661    2.5696   -0.9489 C   0  0  0  0  0  0  0  0  0  0  0  0
    6.8675    2.5690   -0.6064 S   0  0  0  0  0  0  0  0  0  0  0  0
    7.3654    4.1396   -1.4182 C   0  0  0  0  0  0  0  0  0  0  0  0
    8.7968    4.0261   -2.0083 C   0  0  1  0  0  0  0  0  0  0  0  0
    8.9558    3.0080   -3.0420 N   0  0  0  0  0  0  0  0  0  0  0  0
    9.2324    5.3593   -2.5367 C   0  0  0  0  0  0  0  0  0  0  0  0
   10.1781    6.2564   -2.1408 C   0  0  0  0  0  0  0  0  0  0  0  0
   10.0975    7.3697   -3.0583 C   0  0  0  0  0  0  0  0  0  0  0  0
   10.7666    8.5950   -3.2233 C   0  0  0  0  0  0  0  0  0  0  0  0
   10.3834    9.4261   -4.2756 C   0  0  0  0  0  0  0  0  0  0  0  0
    9.3506    9.0583   -5.1615 C   0  0  0  0  0  0  0  0  0  0  0  0
    8.6717    7.8459   -5.0186 C   0  0  0  0  0  0  0  0  0  0  0  0
    9.0682    7.0310   -3.9620 C   0  0  0  0  0  0  0  0  0  0  0  0
    8.5449    5.8134   -3.6381 O   0  0  0  0  0  0  0  0  0  0  0  0
    1.3304    1.2269   -3.5775 H   0  0  0  0  0  0  0  0  0  0  0  0
    0.7996    2.0553   -2.0781 H   0  0  0  0  0  0  0  0  0  0  0  0
    0.8811    0.2660   -2.1320 H   0  0  0  0  0  0  0  0  0  0  0  0
    2.5134    0.2803   -0.2758 H   0  0  0  0  0  0  0  0  0  0  0  0
    2.4058    2.0592   -0.2196 H   0  0  0  0  0  0  0  0  0  0  0  0
    4.9201    0.4122   -0.8876 H   0  0  0  0  0  0  0  0  0  0  0  0
    4.5815    1.1997    0.6647 H   0  0  0  0  0  0  0  0  0  0  0  0
    4.6076    3.4494   -0.4667 H   0  0  0  0  0  0  0  0  0  0  0  0
    4.9015    2.6506   -2.0338 H   0  0  0  0  0  0  0  0  0  0  0  0
    7.3142    4.9671   -0.6925 H   0  0  0  0  0  0  0  0  0  0  0  0
    6.6554    4.3529   -2.2330 H   0  0  0  0  0  0  0  0  0  0  0  0
    9.4848    3.7854   -1.1792 H   0  0  0  0  0  0  0  0  0  0  0  0
    8.4343    3.2882   -3.8743 H   0  0  0  0  0  0  0  0  0  0  0  0
    8.5308    2.1387   -2.7137 H   0  0  0  0  0  0  0  0  0  0  0  0
   10.8588    6.1347   -1.3011 H   0  0  0  0  0  0  0  0  0  0  0  0
   11.5697    8.8896   -2.5433 H   0  0  0  0  0  0  0  0  0  0  0  0
   10.8926   10.3824   -4.4194 H   0  0  0  0  0  0  0  0  0  0  0  0
    9.0759    9.7333   -5.9758 H   0  0  0  0  0  0  0  0  0  0  0  0
    7.8707    7.5451   -5.6963 H   0  0  0  0  0  0  0  0  0  0  0  0
  1  2  1  0
  1 19  1  0
  1 20  1  0
  1 21  1  0
  2  3  1  0
  3  4  1  0
  3 22  1  0
  3 23  1  0
  4  5  1  0
  4 24  1  0
  4 25  1  0
  5  6  1  0
  5 26  1  0
  5 27  1  0
  6  7  1  0
  7  8  1  0
  7 28  1  0
  7 29  1  0
  8  9  1  0
  8 10  1  0
  8 30  1  1
  9 31  1  0
  9 32  1  0
 10 11  2  0
 10 18  1  0
 11 12  1  0
 11 33  1  0
 12 13  2  0
 12 17  1  0
 13 14  1  0
 13 34  1  0
 14 15  2  0
 14 35  1  0
 15 16  1  0
 15 36  1  0
 16 17  2  0
 16 37  1  0
 17 18  1  0
M  END

