
     RDKit          3D

 79 80  0  0  0  0  0  0  0  0999 V2000
    4.6734    0.2839    0.8649 C   0  0  0  0  0  0  0  0  0  0  0  0
    3.5108    0.7444    0.3825 C   0  0  0  0  0  0  0  0  0  0  0  0
    2.2335   -0.0498    0.5216 C   0  0  0  0  0  0  0  0  0  0  0  0
    3.4368    2.0892   -0.3246 C   0  0  2  0  0  0  0  0  0  0  0  0
    4.3825    2.6180   -0.1191 H   0  0  0  0  0  0  0  0  0  0  0  0
    2.2899    2.9772    0.1908 C   0  0  0  0  0  0  0  0  0  0  0  0
    2.3376    4.3778   -0.4218 C   0  0  0  0  0  0  0  0  0  0  0  0
    2.4952    4.3462   -1.9262 C   0  0  0  0  0  0  0  0  0  0  0  0
    2.1279    5.6011   -2.6716 C   0  0  0  0  0  0  0  0  0  0  0  0
    2.9297    3.2361   -2.5541 C   0  0  0  0  0  0  0  0  0  0  0  0
    3.3360    1.9348   -1.8798 C   0  0  1  0  0  0  0  0  0  0  0  0
    2.5465    1.1991   -2.1028 H   0  0  0  0  0  0  0  0  0  0  0  0
    4.6247    1.3816   -2.4769 C   0  0  0  0  0  0  0  0  0  0  0  0
    5.7915    2.1749   -2.5785 C   0  0  0  0  0  0  0  0  0  0  0  0
    5.8092    3.4789   -2.1955 O   0  0  0  0  0  0  0  0  0  0  0  0
    6.9910    1.6449   -3.0635 C   0  0  0  0  0  0  0  0  0  0  0  0
    7.0792    0.3116   -3.4851 C   0  0  0  0  0  0  0  0  0  0  0  0
    8.4242   -0.2450   -4.0080 C   0  0  1  0  0  0  0  0  0  0  0  0
    9.5139   -0.0904   -2.9244 C   0  0  0  0  0  0  0  0  0  0  0  0
    8.3311   -1.7233   -4.4203 C   0  0  0  0  0  0  0  0  0  0  0  0
    8.7662    0.5627   -5.2773 C   0  0  0  0  0  0  0  0  0  0  0  0
    8.4451    0.2444   -6.3962 O   0  0  0  0  0  0  0  0  0  0  0  0
    9.4560    1.6913   -5.0062 O   0  0  0  0  0  0  0  0  0  0  0  0
    9.7832    2.5465   -6.1121 C   0  0  0  0  0  0  0  0  0  0  0  0
    8.6295    3.4785   -6.4675 C   0  0  0  0  0  0  0  0  0  0  0  0
    9.0008    4.4438   -7.5975 C   0  0  0  0  0  0  0  0  0  0  0  0
    7.8459    5.3688   -7.9478 C   0  0  0  0  0  0  0  0  0  0  0  0
    8.3139    6.2190   -9.0079 O   0  0  0  0  0  0  0  0  0  0  0  0
    7.3713    7.1576   -9.4694 N   0  0  0  0  0  0  0  0  0  0  0  0
    6.2872    7.1568   -8.9404 O   0  0  0  0  0  0  0  0  0  0  0  0
    7.7933    7.8478  -10.3510 O   0  0  0  0  0  0  0  0  0  0  0  0
    5.9271   -0.4807   -3.4224 C   0  0  0  0  0  0  0  0  0  0  0  0
    4.7412    0.0550   -2.9160 C   0  0  0  0  0  0  0  0  0  0  0  0
    3.5777   -0.7177   -2.9010 O   0  0  0  0  0  0  0  0  0  0  0  0
    3.5541   -1.9837   -2.4002 C   0  0  0  0  0  0  0  0  0  0  0  0
    4.4793   -2.5253   -1.8603 O   0  0  0  0  0  0  0  0  0  0  0  0
    2.1908   -2.6024   -2.6404 C   0  0  0  0  0  0  0  0  0  0  0  0
    2.0506   -3.9850   -2.0082 C   0  0  0  0  0  0  0  0  0  0  0  0
    0.6894   -4.5959   -2.3005 C   0  0  0  0  0  0  0  0  0  0  0  0
    0.6763   -5.8766   -1.6518 O   0  0  0  0  0  0  0  0  0  0  0  0
   -0.5218   -6.6023   -1.8077 N   0  0  0  0  0  0  0  0  0  0  0  0
   -1.3980   -6.0862   -2.4565 O   0  0  0  0  0  0  0  0  0  0  0  0
   -0.4991   -7.6631   -1.2558 O   0  0  0  0  0  0  0  0  0  0  0  0
    4.7454   -0.6928    1.3521 H   0  0  0  0  0  0  0  0  0  0  0  0
    5.5975    0.8623    0.7767 H   0  0  0  0  0  0  0  0  0  0  0  0
    2.4342   -1.0634    0.8983 H   0  0  0  0  0  0  0  0  0  0  0  0
    1.6985   -0.1392   -0.4394 H   0  0  0  0  0  0  0  0  0  0  0  0
    1.5311    0.4340    1.2219 H   0  0  0  0  0  0  0  0  0  0  0  0
    2.3363    3.0411    1.2902 H   0  0  0  0  0  0  0  0  0  0  0  0
    1.3203    2.5130   -0.0592 H   0  0  0  0  0  0  0  0  0  0  0  0
    3.1658    4.9663    0.0192 H   0  0  0  0  0  0  0  0  0  0  0  0
    1.4205    4.9376   -0.1670 H   0  0  0  0  0  0  0  0  0  0  0  0
    1.0588    5.8401   -2.5316 H   0  0  0  0  0  0  0  0  0  0  0  0
    2.3229    5.5159   -3.7508 H   0  0  0  0  0  0  0  0  0  0  0  0
    2.6917    6.4689   -2.2858 H   0  0  0  0  0  0  0  0  0  0  0  0
    2.9968    3.2394   -3.6486 H   0  0  0  0  0  0  0  0  0  0  0  0
    4.8966    3.8151   -2.1470 H   0  0  0  0  0  0  0  0  0  0  0  0
    7.8504    2.3135   -3.1116 H   0  0  0  0  0  0  0  0  0  0  0  0
    9.2434   -0.6954   -2.0455 H   0  0  0  0  0  0  0  0  0  0  0  0
    9.6356    0.9507   -2.6015 H   0  0  0  0  0  0  0  0  0  0  0  0
   10.4873   -0.4443   -3.2994 H   0  0  0  0  0  0  0  0  0  0  0  0
    8.0459   -2.3476   -3.5611 H   0  0  0  0  0  0  0  0  0  0  0  0
    9.3095   -2.0724   -4.7835 H   0  0  0  0  0  0  0  0  0  0  0  0
    7.6082   -1.8721   -5.2325 H   0  0  0  0  0  0  0  0  0  0  0  0
   10.0604    1.9263   -6.9778 H   0  0  0  0  0  0  0  0  0  0  0  0
   10.6638    3.1163   -5.7802 H   0  0  0  0  0  0  0  0  0  0  0  0
    8.3339    4.0423   -5.5660 H   0  0  0  0  0  0  0  0  0  0  0  0
    7.7626    2.8666   -6.7652 H   0  0  0  0  0  0  0  0  0  0  0  0
    9.2929    3.8814   -8.5003 H   0  0  0  0  0  0  0  0  0  0  0  0
    9.8729    5.0562   -7.3110 H   0  0  0  0  0  0  0  0  0  0  0  0
    7.5417    5.9860   -7.0869 H   0  0  0  0  0  0  0  0  0  0  0  0
    6.9620    4.8055   -8.2881 H   0  0  0  0  0  0  0  0  0  0  0  0
    5.9363   -1.5169   -3.7465 H   0  0  0  0  0  0  0  0  0  0  0  0
    2.0406   -2.6394   -3.7342 H   0  0  0  0  0  0  0  0  0  0  0  0
    1.4254   -1.9018   -2.2662 H   0  0  0  0  0  0  0  0  0  0  0  0
    2.1962   -3.9172   -0.9187 H   0  0  0  0  0  0  0  0  0  0  0  0
    2.8434   -4.6503   -2.3829 H   0  0  0  0  0  0  0  0  0  0  0  0
    0.5221   -4.7278   -3.3822 H   0  0  0  0  0  0  0  0  0  0  0  0
   -0.1331   -3.9753   -1.9082 H   0  0  0  0  0  0  0  0  0  0  0  0
  1  2  2  0
  1 44  1  0
  1 45  1  0
  2  3  1  0
  2  4  1  0
  3 46  1  0
  3 47  1  0
  3 48  1  0
  4  5  1  6
  4  6  1  0
  4 11  1  0
  6  7  1  0
  6 49  1  0
  6 50  1  0
  7  8  1  0
  7 51  1  0
  7 52  1  0
  8  9  1  0
  8 10  2  0
  9 53  1  0
  9 54  1  0
  9 55  1  0
 10 11  1  0
 10 56  1  0
 11 12  1  1
 11 13  1  0
 13 14  2  0
 13 33  1  0
 14 15  1  0
 14 16  1  0
 15 57  1  0
 16 17  2  0
 16 58  1  0
 17 18  1  0
 17 32  1  0
 18 19  1  0
 18 20  1  0
 18 21  1  6
 19 59  1  0
 19 60  1  0
 19 61  1  0
 20 62  1  0
 20 63  1  0
 20 64  1  0
 21 22  2  0
 21 23  1  0
 23 24  1  0
 24 25  1  0
 24 65  1  0
 24 66  1  0
 25 26  1  0
 25 67  1  0
 25 68  1  0
 26 27  1  0
 26 69  1  0
 26 70  1  0
 27 28  1  0
 27 71  1  0
 27 72  1  0
 28 29  1  0
 29 30  2  0
 29 31  1  0
 32 33  2  0
 32 73  1  0
 33 34  1  0
 34 35  1  0
 35 36  2  0
 35 37  1  0
 37 38  1  0
 37 74  1  0
 37 75  1  0
 38 39  1  0
 38 76  1  0
 38 77  1  0
 39 40  1  0
 39 78  1  0
 39 79  1  0
 40 41  1  0
 41 42  2  0
 41 43  1  0
M  CHG  4  29   1  31  -1  41   1  43  -1
M  END

