
     RDKit          3D

 52 54  0  0  0  0  0  0  0  0999 V2000
    7.0091    6.4059   -0.7071 C   0  0  0  0  0  0  0  0  0  0  0  0
    6.2454    5.3110   -0.6970 C   0  0  0  0  0  0  0  0  0  0  0  0
    6.7071    3.9653   -0.1962 C   0  0  0  0  0  0  0  0  0  0  0  0
    5.8076    3.3948    0.8037 N   0  0  0  0  0  0  0  0  0  0  0  0
    4.7804    2.4916    0.5987 C   0  0  0  0  0  0  0  0  0  0  0  0
    4.5691    1.6808   -0.9636 S   0  0  0  0  0  0  0  0  0  0  0  0
    2.7661    1.8577   -1.1217 C   0  0  0  0  0  0  0  0  0  0  0  0
    2.3171    3.2835   -1.4825 C   0  0  0  0  0  0  0  0  0  0  0  0
    3.1029    4.2060   -1.5635 O   0  0  0  0  0  0  0  0  0  0  0  0
    0.9573    3.4489   -1.7004 N   0  0  0  0  0  0  0  0  0  0  0  0
   -0.0093    2.3788   -1.5073 C   0  0  0  0  0  0  0  0  0  0  0  0
   -0.3894    1.9965   -0.0725 C   0  0  0  0  0  0  0  0  0  0  0  0
   -1.2079    1.1434    0.1630 O   0  0  0  0  0  0  0  0  0  0  0  0
    0.2992    2.6847    0.8417 O   0  0  0  0  0  0  0  0  0  0  0  0
    0.1156    2.3570    2.2387 C   0  0  0  0  0  0  0  0  0  0  0  0
   -0.9033    3.2770    2.8854 C   0  0  0  0  0  0  0  0  0  0  0  0
    0.4531    4.7579   -2.0104 C   0  0  0  0  0  0  0  0  0  0  0  0
    0.9558    5.4692   -3.1096 C   0  0  0  0  0  0  0  0  0  0  0  0
    0.4350    6.7245   -3.4259 C   0  0  0  0  0  0  0  0  0  0  0  0
   -0.5963    7.2789   -2.6604 C   0  0  0  0  0  0  0  0  0  0  0  0
   -1.0978    6.5709   -1.5660 C   0  0  0  0  0  0  0  0  0  0  0  0
   -0.5704    5.3192   -1.2350 C   0  0  0  0  0  0  0  0  0  0  0  0
    4.0368    2.2866    1.6571 N   0  0  0  0  0  0  0  0  0  0  0  0
    4.5712    3.1017    2.6375 C   0  0  0  0  0  0  0  0  0  0  0  0
    4.1852    3.2842    3.9748 C   0  0  0  0  0  0  0  0  0  0  0  0
    4.9216    4.1727    4.7556 C   0  0  0  0  0  0  0  0  0  0  0  0
    6.0256    4.8742    4.2256 C   0  0  0  0  0  0  0  0  0  0  0  0
    6.4297    4.7048    2.9010 C   0  0  0  0  0  0  0  0  0  0  0  0
    5.6884    3.8087    2.1224 C   0  0  0  0  0  0  0  0  0  0  0  0
    6.6388    7.3545   -1.1053 H   0  0  0  0  0  0  0  0  0  0  0  0
    8.0362    6.3980   -0.3248 H   0  0  0  0  0  0  0  0  0  0  0  0
    5.2190    5.3291   -1.0807 H   0  0  0  0  0  0  0  0  0  0  0  0
    7.7199    4.0252    0.2338 H   0  0  0  0  0  0  0  0  0  0  0  0
    6.7468    3.2539   -1.0350 H   0  0  0  0  0  0  0  0  0  0  0  0
    2.3183    1.5467   -0.1681 H   0  0  0  0  0  0  0  0  0  0  0  0
    2.4660    1.1339   -1.8948 H   0  0  0  0  0  0  0  0  0  0  0  0
    0.3246    1.4460   -1.9882 H   0  0  0  0  0  0  0  0  0  0  0  0
   -0.9431    2.6508   -2.0189 H   0  0  0  0  0  0  0  0  0  0  0  0
    1.1160    2.4743    2.6770 H   0  0  0  0  0  0  0  0  0  0  0  0
   -0.1939    1.3046    2.3118 H   0  0  0  0  0  0  0  0  0  0  0  0
   -0.6087    4.3325    2.7778 H   0  0  0  0  0  0  0  0  0  0  0  0
   -0.9773    3.0509    3.9611 H   0  0  0  0  0  0  0  0  0  0  0  0
   -1.9004    3.1376    2.4402 H   0  0  0  0  0  0  0  0  0  0  0  0
    1.7586    5.0389   -3.7088 H   0  0  0  0  0  0  0  0  0  0  0  0
    0.8349    7.2712   -4.2837 H   0  0  0  0  0  0  0  0  0  0  0  0
   -1.0047    8.2598   -2.9153 H   0  0  0  0  0  0  0  0  0  0  0  0
   -1.8972    6.9970   -0.9546 H   0  0  0  0  0  0  0  0  0  0  0  0
   -0.9419    4.7854   -0.3590 H   0  0  0  0  0  0  0  0  0  0  0  0
    3.3355    2.7336    4.3846 H   0  0  0  0  0  0  0  0  0  0  0  0
    4.6426    4.3318    5.8002 H   0  0  0  0  0  0  0  0  0  0  0  0
    6.5756    5.5676    4.8668 H   0  0  0  0  0  0  0  0  0  0  0  0
    7.2779    5.2580    2.4944 H   0  0  0  0  0  0  0  0  0  0  0  0
  1  2  2  0
  1 30  1  0
  1 31  1  0
  2  3  1  0
  2 32  1  0
  3  4  1  0
  3 33  1  0
  3 34  1  0
  4  5  1  0
  4 29  1  0
  5  6  1  0
  5 23  2  0
  6  7  1  0
  7  8  1  0
  7 35  1  0
  7 36  1  0
  8  9  2  0
  8 10  1  0
 10 11  1  0
 10 17  1  0
 11 12  1  0
 11 37  1  0
 11 38  1  0
 12 13  2  0
 12 14  1  0
 14 15  1  0
 15 16  1  0
 15 39  1  0
 15 40  1  0
 16 41  1  0
 16 42  1  0
 16 43  1  0
 17 18  2  0
 17 22  1  0
 18 19  1  0
 18 44  1  0
 19 20  2  0
 19 45  1  0
 20 21  1  0
 20 46  1  0
 21 22  2  0
 21 47  1  0
 22 48  1  0
 23 24  1  0
 24 25  1  0
 24 29  2  0
 25 26  2  0
 25 49  1  0
 26 27  1  0
 26 50  1  0
 27 28  2  0
 27 51  1  0
 28 29  1  0
 28 52  1  0
M  END

