
     RDKit          3D

 49 53  0  0  0  0  0  0  0  0999 V2000
    0.7717    0.1100   -0.1282 C   0  0  0  0  0  0  0  0  0  0  0  0
    2.6610   -0.0738   -0.0434 Si  0  0  1  0  0  4  0  0  0  0  0  0
    3.2494    0.2691   -1.8133 C   0  0  0  0  0  0  0  0  0  0  0  0
    3.2092    1.3400    1.1228 C   0  0  0  0  0  0  0  0  0  0  0  0
    3.7351    2.4968    0.5595 C   0  0  0  0  0  0  0  0  0  0  0  0
    4.0832    3.6293    1.3377 C   0  0  0  0  0  0  0  0  0  0  0  0
    3.9005    3.6110    2.7013 C   0  0  0  0  0  0  0  0  0  0  0  0
    3.3624    2.4608    3.3425 C   0  0  0  0  0  0  0  0  0  0  0  0
    3.1616    2.4292    4.7512 C   0  0  0  0  0  0  0  0  0  0  0  0
    2.6354    1.3159    5.3703 C   0  0  0  0  0  0  0  0  0  0  0  0
    2.2892    0.1797    4.5993 C   0  0  0  0  0  0  0  0  0  0  0  0
    2.4744    0.1797    3.2318 C   0  0  0  0  0  0  0  0  0  0  0  0
    3.0125    1.3109    2.5503 C   0  0  0  0  0  0  0  0  0  0  0  0
    3.4044   -1.7844    0.4744 C   0  0  0  0  0  0  0  0  0  0  0  0
    2.6336   -2.9674    0.6891 C   0  0  0  0  0  0  0  0  0  0  0  0
    1.1966   -2.9947    0.6880 C   0  0  0  0  0  0  0  0  0  0  0  0
    0.4800   -4.1476    0.8985 C   0  0  0  0  0  0  0  0  0  0  0  0
    1.1400   -5.3878    1.1268 C   0  0  0  0  0  0  0  0  0  0  0  0
    2.5093   -5.4236    1.1459 C   0  0  0  0  0  0  0  0  0  0  0  0
    3.2893   -4.2397    0.9386 C   0  0  0  0  0  0  0  0  0  0  0  0
    4.6842   -4.3010    0.9751 C   0  0  0  0  0  0  0  0  0  0  0  0
    5.4715   -3.1606    0.7963 C   0  0  0  0  0  0  0  0  0  0  0  0
    6.9001   -3.2498    0.8538 C   0  0  0  0  0  0  0  0  0  0  0  0
    7.6889   -2.1415    0.6907 C   0  0  0  0  0  0  0  0  0  0  0  0
    7.0761   -0.8765    0.4668 C   0  0  0  0  0  0  0  0  0  0  0  0
    5.7095   -0.7564    0.4007 C   0  0  0  0  0  0  0  0  0  0  0  0
    4.8296   -1.8831    0.5515 C   0  0  0  0  0  0  0  0  0  0  0  0
    0.5883    1.1500   -0.4469 H   0  0  0  0  0  0  0  0  0  0  0  0
    0.2660   -0.0236    0.8397 H   0  0  0  0  0  0  0  0  0  0  0  0
    0.3020   -0.5518   -0.8722 H   0  0  0  0  0  0  0  0  0  0  0  0
    2.8169    1.2055   -2.2021 H   0  0  0  0  0  0  0  0  0  0  0  0
    2.8968   -0.5504   -2.4617 H   0  0  0  0  0  0  0  0  0  0  0  0
    4.3429    0.3215   -1.9172 H   0  0  0  0  0  0  0  0  0  0  0  0
    3.8956    2.5528   -0.5206 H   0  0  0  0  0  0  0  0  0  0  0  0
    4.4954    4.5151    0.8471 H   0  0  0  0  0  0  0  0  0  0  0  0
    4.1641    4.4796    3.3114 H   0  0  0  0  0  0  0  0  0  0  0  0
    3.4338    3.3116    5.3373 H   0  0  0  0  0  0  0  0  0  0  0  0
    2.4862    1.3057    6.4531 H   0  0  0  0  0  0  0  0  0  0  0  0
    1.8769   -0.7051    5.0910 H   0  0  0  0  0  0  0  0  0  0  0  0
    2.2146   -0.7145    2.6634 H   0  0  0  0  0  0  0  0  0  0  0  0
    0.6508   -2.0728    0.5239 H   0  0  0  0  0  0  0  0  0  0  0  0
   -0.6125   -4.1107    0.8921 H   0  0  0  0  0  0  0  0  0  0  0  0
    0.5563   -6.2973    1.2885 H   0  0  0  0  0  0  0  0  0  0  0  0
    3.0395   -6.3631    1.3252 H   0  0  0  0  0  0  0  0  0  0  0  0
    5.1718   -5.2638    1.1541 H   0  0  0  0  0  0  0  0  0  0  0  0
    7.3475   -4.2308    1.0359 H   0  0  0  0  0  0  0  0  0  0  0  0
    8.7777   -2.2209    0.7384 H   0  0  0  0  0  0  0  0  0  0  0  0
    7.7005    0.0136    0.3541 H   0  0  0  0  0  0  0  0  0  0  0  0
    5.2910    0.2366    0.2558 H   0  0  0  0  0  0  0  0  0  0  0  0
  2  1  1  6
  1 28  1  0
  1 29  1  0
  1 30  1  0
  2  3  1  0
  2  4  1  0
  2 14  1  0
  3 31  1  0
  3 32  1  0
  3 33  1  0
  4  5  2  0
  4 13  1  0
  5  6  1  0
  5 34  1  0
  6  7  2  0
  6 35  1  0
  7  8  1  0
  7 36  1  0
  8  9  1  0
  8 13  2  0
  9 10  2  0
  9 37  1  0
 10 11  1  0
 10 38  1  0
 11 12  2  0
 11 39  1  0
 12 13  1  0
 12 40  1  0
 14 15  1  0
 14 27  2  0
 15 16  2  0
 15 20  1  0
 16 17  1  0
 16 41  1  0
 17 18  2  0
 17 42  1  0
 18 19  1  0
 18 43  1  0
 19 20  2  0
 19 44  1  0
 20 21  1  0
 21 22  2  0
 21 45  1  0
 22 23  1  0
 22 27  1  0
 23 24  2  0
 23 46  1  0
 24 25  1  0
 24 47  1  0
 25 26  2  0
 25 48  1  0
 26 27  1  0
 26 49  1  0
M  END

