
     RDKit          3D

 55 57  0  0  0  0  0  0  0  0999 V2000
    4.4459   -1.0851    2.8032 C   0  0  0  0  0  0  0  0  0  0  0  0
    4.3005   -2.4809    2.9151 O   0  0  0  0  0  0  0  0  0  0  0  0
    4.7004   -3.2744    1.8860 C   0  0  0  0  0  0  0  0  0  0  0  0
    4.5360   -4.6587    2.0691 C   0  0  0  0  0  0  0  0  0  0  0  0
    4.9195   -5.5486    1.0714 C   0  0  0  0  0  0  0  0  0  0  0  0
    5.4773   -5.1003   -0.1411 C   0  0  0  0  0  0  0  0  0  0  0  0
    5.8585   -6.0763   -1.2316 C   0  0  0  0  0  0  0  0  0  0  0  0
    4.6826   -6.4592   -2.1448 C   0  0  0  0  0  0  0  0  0  0  0  0
    5.0514   -7.5690   -3.1279 C   0  0  0  0  0  0  0  0  0  0  0  0
    5.8269   -8.4663   -2.8384 O   0  0  0  0  0  0  0  0  0  0  0  0
    4.4363   -7.4977   -4.3478 N   0  0  0  0  0  0  0  0  0  0  0  0
    4.6295   -8.5039   -5.3759 C   0  0  0  0  0  0  0  0  0  0  0  0
    3.6885   -9.7196   -5.2273 C   0  0  1  0  0  0  0  0  0  0  0  0
    2.2030   -9.3531   -5.2634 C   0  0  0  0  0  0  0  0  0  0  0  0
    1.8069   -8.9480   -6.6076 N   0  0  0  0  0  0  0  0  0  0  0  0
    0.4590   -8.4029   -6.6736 C   0  0  0  0  0  0  0  0  0  0  0  0
    0.3337   -7.0563   -5.9841 C   0  0  0  0  0  0  0  0  0  0  0  0
    1.2392   -6.0237   -6.2840 C   0  0  0  0  0  0  0  0  0  0  0  0
    1.1247   -4.7730   -5.6729 C   0  0  0  0  0  0  0  0  0  0  0  0
    0.1007   -4.5327   -4.7482 C   0  0  0  0  0  0  0  0  0  0  0  0
   -0.8046   -5.5513   -4.4432 C   0  0  0  0  0  0  0  0  0  0  0  0
   -0.6854   -6.8040   -5.0566 C   0  0  0  0  0  0  0  0  0  0  0  0
    2.0559  -10.0361   -7.5434 C   0  0  0  0  0  0  0  0  0  0  0  0
    3.5353  -10.4120   -7.5104 C   0  0  0  0  0  0  0  0  0  0  0  0
    3.9826  -10.7140   -6.2021 O   0  0  0  0  0  0  0  0  0  0  0  0
    5.6355   -3.7195   -0.3048 C   0  0  0  0  0  0  0  0  0  0  0  0
    5.2572   -2.8060    0.6877 C   0  0  0  0  0  0  0  0  0  0  0  0
    4.0644   -0.6530    3.7384 H   0  0  0  0  0  0  0  0  0  0  0  0
    3.8636   -0.6748    1.9577 H   0  0  0  0  0  0  0  0  0  0  0  0
    5.5036   -0.7880    2.6792 H   0  0  0  0  0  0  0  0  0  0  0  0
    4.1094   -5.0095    3.0112 H   0  0  0  0  0  0  0  0  0  0  0  0
    4.7909   -6.6224    1.2387 H   0  0  0  0  0  0  0  0  0  0  0  0
    6.2595   -7.0054   -0.7990 H   0  0  0  0  0  0  0  0  0  0  0  0
    6.6672   -5.6504   -1.8484 H   0  0  0  0  0  0  0  0  0  0  0  0
    4.2923   -5.5738   -2.6740 H   0  0  0  0  0  0  0  0  0  0  0  0
    3.8496   -6.8389   -1.5260 H   0  0  0  0  0  0  0  0  0  0  0  0
    3.7834   -6.7432   -4.5241 H   0  0  0  0  0  0  0  0  0  0  0  0
    5.6638   -8.8711   -5.3130 H   0  0  0  0  0  0  0  0  0  0  0  0
    4.4838   -8.0251   -6.3543 H   0  0  0  0  0  0  0  0  0  0  0  0
    3.9126  -10.1890   -4.2569 H   0  0  0  0  0  0  0  0  0  0  0  0
    2.0087   -8.5331   -4.5565 H   0  0  0  0  0  0  0  0  0  0  0  0
    1.6095  -10.2306   -4.9186 H   0  0  0  0  0  0  0  0  0  0  0  0
   -0.2975   -9.1033   -6.2522 H   0  0  0  0  0  0  0  0  0  0  0  0
    0.2041   -8.2824   -7.7414 H   0  0  0  0  0  0  0  0  0  0  0  0
    2.0374   -6.2158   -7.0057 H   0  0  0  0  0  0  0  0  0  0  0  0
    1.8321   -3.9775   -5.9232 H   0  0  0  0  0  0  0  0  0  0  0  0
    0.0108   -3.5545   -4.2690 H   0  0  0  0  0  0  0  0  0  0  0  0
   -1.6053   -5.3747   -3.7203 H   0  0  0  0  0  0  0  0  0  0  0  0
   -1.3941   -7.5993   -4.8073 H   0  0  0  0  0  0  0  0  0  0  0  0
    1.7837   -9.7168   -8.5635 H   0  0  0  0  0  0  0  0  0  0  0  0
    1.4410  -10.9339   -7.2998 H   0  0  0  0  0  0  0  0  0  0  0  0
    4.1270   -9.5887   -7.9562 H   0  0  0  0  0  0  0  0  0  0  0  0
    3.7133  -11.3148   -8.1149 H   0  0  0  0  0  0  0  0  0  0  0  0
    6.0742   -3.3357   -1.2311 H   0  0  0  0  0  0  0  0  0  0  0  0
    5.4065   -1.7398    0.5154 H   0  0  0  0  0  0  0  0  0  0  0  0
  1  2  1  0
  1 28  1  0
  1 29  1  0
  1 30  1  0
  2  3  1  0
  3  4  2  0
  3 27  1  0
  4  5  1  0
  4 31  1  0
  5  6  2  0
  5 32  1  0
  6  7  1  0
  6 26  1  0
  7  8  1  0
  7 33  1  0
  7 34  1  0
  8  9  1  0
  8 35  1  0
  8 36  1  0
  9 10  2  0
  9 11  1  0
 11 12  1  0
 11 37  1  0
 12 13  1  0
 12 38  1  0
 12 39  1  0
 13 14  1  0
 13 25  1  0
 13 40  1  1
 14 15  1  0
 14 41  1  0
 14 42  1  0
 15 16  1  0
 15 23  1  0
 16 17  1  0
 16 43  1  0
 16 44  1  0
 17 18  2  0
 17 22  1  0
 18 19  1  0
 18 45  1  0
 19 20  2  0
 19 46  1  0
 20 21  1  0
 20 47  1  0
 21 22  2  0
 21 48  1  0
 22 49  1  0
 23 24  1  0
 23 50  1  0
 23 51  1  0
 24 25  1  0
 24 52  1  0
 24 53  1  0
 26 27  2  0
 26 54  1  0
 27 55  1  0
M  END

