
     RDKit          3D

 34 35  0  0  0  0  0  0  0  0999 V2000
    0.6442   -0.4041   -0.5205 O   0  0  0  0  0  0  0  0  0  0  0  0
    1.9880   -0.0220   -0.3323 C   0  0  1  0  0  0  0  0  0  0  0  0
    2.7164   -1.0008    0.6182 C   0  0  0  0  0  0  0  0  0  0  0  0
    2.2131   -0.9565    2.0539 C   0  0  0  0  0  0  0  0  0  0  0  0
    0.8381   -1.3174    2.0823 O   0  0  0  0  0  0  0  0  0  0  0  0
    0.2164   -1.1992    3.3328 C   0  0  0  0  0  0  0  0  0  0  0  0
   -1.2344   -1.6102    3.1774 C   0  0  1  0  0  0  0  0  0  0  0  0
   -1.8400   -1.5388    4.3905 F   0  0  0  0  0  0  0  0  0  0  0  0
   -1.8676   -0.7557    2.3334 F   0  0  0  0  0  0  0  0  0  0  0  0
    2.6760    0.0461   -1.6888 C   0  0  0  0  0  0  0  0  0  0  0  0
    2.1478   -0.6581   -2.7551 C   0  0  0  0  0  0  0  0  0  0  0  0
    2.7758   -0.6601   -4.0254 C   0  0  0  0  0  0  0  0  0  0  0  0
    3.9390    0.0453   -4.2330 C   0  0  0  0  0  0  0  0  0  0  0  0
    4.5174    0.7958   -3.1720 C   0  0  0  0  0  0  0  0  0  0  0  0
    5.6638    1.4856   -3.4296 N   0  0  0  0  0  0  0  0  0  0  0  0
    6.2041    2.1953   -2.4653 C   0  0  0  0  0  0  0  0  0  0  0  0
    5.6549    2.2926   -1.1617 C   0  0  0  0  0  0  0  0  0  0  0  0
    4.4982    1.5999   -0.8766 C   0  0  0  0  0  0  0  0  0  0  0  0
    3.8783    0.8060   -1.8825 C   0  0  0  0  0  0  0  0  0  0  0  0
    0.2940   -0.6655    0.3464 H   0  0  0  0  0  0  0  0  0  0  0  0
    2.0304    0.9881    0.1295 H   0  0  0  0  0  0  0  0  0  0  0  0
    3.7957   -0.7800    0.6340 H   0  0  0  0  0  0  0  0  0  0  0  0
    2.6026   -2.0207    0.2149 H   0  0  0  0  0  0  0  0  0  0  0  0
    2.3369    0.0618    2.4769 H   0  0  0  0  0  0  0  0  0  0  0  0
    2.7949   -1.6502    2.6926 H   0  0  0  0  0  0  0  0  0  0  0  0
    0.2426   -0.1590    3.7141 H   0  0  0  0  0  0  0  0  0  0  0  0
    0.6916   -1.8541    4.0892 H   0  0  0  0  0  0  0  0  0  0  0  0
   -1.3444   -2.6340    2.7784 H   0  0  0  0  0  0  0  0  0  0  0  0
    1.2209   -1.2107   -2.5987 H   0  0  0  0  0  0  0  0  0  0  0  0
    2.3256   -1.2300   -4.8425 H   0  0  0  0  0  0  0  0  0  0  0  0
    4.4497    0.0619   -5.1975 H   0  0  0  0  0  0  0  0  0  0  0  0
    7.1278    2.7375   -2.7061 H   0  0  0  0  0  0  0  0  0  0  0  0
    6.1443    2.9118   -0.4063 H   0  0  0  0  0  0  0  0  0  0  0  0
    4.0575    1.6724    0.1194 H   0  0  0  0  0  0  0  0  0  0  0  0
  1  2  1  0
  1 20  1  0
  2  3  1  0
  2 10  1  0
  2 21  1  1
  3  4  1  0
  3 22  1  0
  3 23  1  0
  4  5  1  0
  4 24  1  0
  4 25  1  0
  5  6  1  0
  6  7  1  0
  6 26  1  0
  6 27  1  0
  7  8  1  0
  7  9  1  0
  7 28  1  6
 10 11  2  0
 10 19  1  0
 11 12  1  0
 11 29  1  0
 12 13  2  0
 12 30  1  0
 13 14  1  0
 13 31  1  0
 14 15  1  0
 14 19  2  0
 15 16  2  0
 16 17  1  0
 16 32  1  0
 17 18  2  0
 17 33  1  0
 18 19  1  0
 18 34  1  0
M  END

