
     RDKit          3D

 36 37  0  0  0  0  0  0  0  0999 V2000
    2.7048   -1.4958    1.1762 N   0  0  0  0  0  0  0  0  0  0  0  0
    2.1880   -0.3918    0.3776 C   0  0  0  0  0  0  0  0  0  0  0  0
    2.6110    0.9598    0.9226 C   0  0  0  0  0  0  0  0  0  0  0  0
    1.8383    2.1076    0.7046 C   0  0  0  0  0  0  0  0  0  0  0  0
    2.2390    3.3647    1.1523 C   0  0  0  0  0  0  0  0  0  0  0  0
    3.4447    3.5190    1.8612 C   0  0  0  0  0  0  0  0  0  0  0  0
    3.8981    4.7651    2.3143 N   0  0  0  0  0  0  0  0  0  0  0  0
    3.1998    5.9707    2.3586 C   0  0  0  0  0  0  0  0  0  0  0  0
    2.0563    6.1184    1.9630 O   0  0  0  0  0  0  0  0  0  0  0  0
    3.9482    6.9967    2.8953 N   0  0  0  0  0  0  0  0  0  0  0  0
    3.4326    8.3310    3.0567 C   0  0  1  0  0  0  0  0  0  0  0  0
    3.3842    8.9768    4.4680 C   0  0  0  0  0  0  0  0  0  0  0  0
    3.7643   10.3269    3.8064 C   0  0  0  0  0  0  0  0  0  0  0  0
    4.2782    9.5387    2.5734 C   0  0  0  0  0  0  0  0  0  0  0  0
    4.2208    2.3566    2.1108 C   0  0  0  0  0  0  0  0  0  0  0  0
    5.4708    2.4282    2.9473 C   0  0  1  0  0  0  0  0  0  0  0  0
    6.3478    3.3656    2.4772 F   0  0  0  0  0  0  0  0  0  0  0  0
    5.2102    2.7917    4.2221 F   0  0  0  0  0  0  0  0  0  0  0  0
    6.1382    1.2722    2.9939 F   0  0  0  0  0  0  0  0  0  0  0  0
    3.8027    1.1088    1.6372 C   0  0  0  0  0  0  0  0  0  0  0  0
    2.5268   -2.3880    0.7175 H   0  0  0  0  0  0  0  0  0  0  0  0
    2.2408   -1.5304    2.0847 H   0  0  0  0  0  0  0  0  0  0  0  0
    1.0835   -0.3864    0.2554 H   0  0  0  0  0  0  0  0  0  0  0  0
    2.5973   -0.5041   -0.6439 H   0  0  0  0  0  0  0  0  0  0  0  0
    0.8908    2.0251    0.1629 H   0  0  0  0  0  0  0  0  0  0  0  0
    1.6261    4.2444    0.9730 H   0  0  0  0  0  0  0  0  0  0  0  0
    4.8682    4.7972    2.6005 H   0  0  0  0  0  0  0  0  0  0  0  0
    4.8579    6.7950    3.2944 H   0  0  0  0  0  0  0  0  0  0  0  0
    2.4374    8.3324    2.5917 H   0  0  0  0  0  0  0  0  0  0  0  0
    4.1993    8.5964    5.1063 H   0  0  0  0  0  0  0  0  0  0  0  0
    2.4398    8.9087    5.0296 H   0  0  0  0  0  0  0  0  0  0  0  0
    4.4856   10.9663    4.3362 H   0  0  0  0  0  0  0  0  0  0  0  0
    2.8753   10.9302    3.5658 H   0  0  0  0  0  0  0  0  0  0  0  0
    5.3572    9.3242    2.6529 H   0  0  0  0  0  0  0  0  0  0  0  0
    4.0748    9.9363    1.5671 H   0  0  0  0  0  0  0  0  0  0  0  0
    4.4032    0.2215    1.8377 H   0  0  0  0  0  0  0  0  0  0  0  0
  1  2  1  0
  1 21  1  0
  1 22  1  0
  2  3  1  0
  2 23  1  0
  2 24  1  0
  3  4  2  0
  3 20  1  0
  4  5  1  0
  4 25  1  0
  5  6  2  0
  5 26  1  0
  6  7  1  0
  6 15  1  0
  7  8  1  0
  7 27  1  0
  8  9  2  0
  8 10  1  0
 10 11  1  0
 10 28  1  0
 11 12  1  0
 11 14  1  0
 11 29  1  6
 12 13  1  0
 12 30  1  0
 12 31  1  0
 13 14  1  0
 13 32  1  0
 13 33  1  0
 14 34  1  0
 14 35  1  0
 15 16  1  0
 15 20  2  0
 16 17  1  6
 16 18  1  0
 16 19  1  0
 20 36  1  0
M  END

