
     RDKit          3D

 32 33  0  0  0  0  0  0  0  0999 V2000
    3.1697    1.0603   -0.5947 O   0  0  0  0  0  0  0  0  0  0  0  0
    2.4552    0.1441   -0.2401 C   0  0  0  0  0  0  0  0  0  0  0  0
    1.0881    0.1749   -0.1916 N   0  0  0  0  0  0  0  0  0  0  0  0
    0.2107    1.2206   -0.5495 C   0  0  0  0  0  0  0  0  0  0  0  0
   -1.1691    0.9808   -0.4181 C   0  0  0  0  0  0  0  0  0  0  0  0
   -2.0937    1.9688   -0.7528 C   0  0  0  0  0  0  0  0  0  0  0  0
   -1.6572    3.2112   -1.2232 C   0  0  0  0  0  0  0  0  0  0  0  0
   -0.2863    3.4480   -1.3525 C   0  0  0  0  0  0  0  0  0  0  0  0
    0.6536    2.4685   -1.0216 C   0  0  0  0  0  0  0  0  0  0  0  0
    3.0553   -1.2139    0.1787 C   0  0  1  0  0  0  0  0  0  0  0  0
    2.3463   -1.8305    0.7477 H   0  0  0  0  0  0  0  0  0  0  0  0
    3.3925   -2.1281   -1.3594 Cl  0  0  0  0  0  0  0  0  0  0  0  0
    4.3472   -1.0201    0.9764 C   0  0  1  0  0  0  0  0  0  0  0  0
    4.9547   -0.2749    0.4482 H   0  0  0  0  0  0  0  0  0  0  0  0
    3.8397   -0.2051    2.5407 Cl  0  0  0  0  0  0  0  0  0  0  0  0
    5.1406   -2.2726    1.2555 C   0  0  0  0  0  0  0  0  0  0  0  0
    6.3822   -2.4512    0.6303 C   0  0  0  0  0  0  0  0  0  0  0  0
    7.1229   -3.6182    0.8400 C   0  0  0  0  0  0  0  0  0  0  0  0
    6.6292   -4.6191    1.6796 C   0  0  0  0  0  0  0  0  0  0  0  0
    5.3929   -4.4461    2.3123 C   0  0  0  0  0  0  0  0  0  0  0  0
    4.6547   -3.2809    2.1029 C   0  0  0  0  0  0  0  0  0  0  0  0
    0.6327   -0.6753    0.1188 H   0  0  0  0  0  0  0  0  0  0  0  0
   -1.5180    0.0107   -0.0506 H   0  0  0  0  0  0  0  0  0  0  0  0
   -3.1617    1.7640   -0.6444 H   0  0  0  0  0  0  0  0  0  0  0  0
   -2.3802    3.9868   -1.4860 H   0  0  0  0  0  0  0  0  0  0  0  0
    0.0676    4.4151   -1.7191 H   0  0  0  0  0  0  0  0  0  0  0  0
    1.7202    2.6538   -1.1227 H   0  0  0  0  0  0  0  0  0  0  0  0
    6.7699   -1.6714   -0.0301 H   0  0  0  0  0  0  0  0  0  0  0  0
    8.0899   -3.7426    0.3464 H   0  0  0  0  0  0  0  0  0  0  0  0
    7.2080   -5.5310    1.8468 H   0  0  0  0  0  0  0  0  0  0  0  0
    5.0050   -5.2218    2.9775 H   0  0  0  0  0  0  0  0  0  0  0  0
    3.7033   -3.1398    2.6216 H   0  0  0  0  0  0  0  0  0  0  0  0
  1  2  2  0
  2  3  1  0
  2 10  1  0
  3  4  1  0
  3 22  1  0
  4  5  2  0
  4  9  1  0
  5  6  1  0
  5 23  1  0
  6  7  2  0
  6 24  1  0
  7  8  1  0
  7 25  1  0
  8  9  2  0
  8 26  1  0
  9 27  1  0
 10 11  1  1
 10 12  1  0
 10 13  1  0
 13 14  1  6
 13 15  1  0
 13 16  1  0
 16 17  2  0
 16 21  1  0
 17 18  1  0
 17 28  1  0
 18 19  2  0
 18 29  1  0
 19 20  1  0
 19 30  1  0
 20 21  2  0
 20 31  1  0
 21 32  1  0
M  END

