
     RDKit          3D

 32 32  0  0  0  0  0  0  0  0999 V2000
    2.2128   -0.8580    1.2440 C   0  0  0  0  0  0  0  0  0  0  0  0
    2.9815   -0.2767    0.3120 C   0  0  0  0  0  0  0  0  0  0  0  0
    3.2279   -1.0285   -0.9679 C   0  0  0  0  0  0  0  0  0  0  0  0
    2.5208   -1.8996   -1.3958 O   0  0  0  0  0  0  0  0  0  0  0  0
    4.3371   -0.6469   -1.6515 O   0  0  0  0  0  0  0  0  0  0  0  0
    5.3020    0.1637   -0.9860 C   0  0  2  0  0  0  0  0  0  0  0  0
    5.9633    0.5325   -1.7803 H   0  0  0  0  0  0  0  0  0  0  0  0
    6.1307   -0.6556    0.0177 C   0  0  0  0  0  0  0  0  0  0  0  0
    6.6559   -1.8463   -0.5599 O   0  0  0  0  0  0  0  0  0  0  0  0
    7.7513   -1.7236   -1.3500 C   0  0  0  0  0  0  0  0  0  0  0  0
    8.1733   -3.0628   -1.8934 C   0  0  0  0  0  0  0  0  0  0  0  0
    8.2859   -0.6660   -1.5704 O   0  0  0  0  0  0  0  0  0  0  0  0
    4.7357    1.2899   -0.3913 O   0  0  0  0  0  0  0  0  0  0  0  0
    3.5698    1.1214    0.4205 C   0  0  2  0  0  0  0  0  0  0  0  0
    2.8274    1.8333    0.0160 H   0  0  0  0  0  0  0  0  0  0  0  0
    3.9283    1.6000    1.8358 C   0  0  0  0  0  0  0  0  0  0  0  0
    2.7714    1.8288    2.6451 O   0  0  0  0  0  0  0  0  0  0  0  0
    2.1977    3.0614    2.5854 C   0  0  0  0  0  0  0  0  0  0  0  0
    1.0027    3.1402    3.4997 C   0  0  0  0  0  0  0  0  0  0  0  0
    2.6114    3.9460    1.8827 O   0  0  0  0  0  0  0  0  0  0  0  0
    1.7888   -1.8455    1.0457 H   0  0  0  0  0  0  0  0  0  0  0  0
    1.9850   -0.3686    2.1923 H   0  0  0  0  0  0  0  0  0  0  0  0
    5.5088   -0.9886    0.8604 H   0  0  0  0  0  0  0  0  0  0  0  0
    6.9422   -0.0112    0.3874 H   0  0  0  0  0  0  0  0  0  0  0  0
    8.3212   -3.7776   -1.0699 H   0  0  0  0  0  0  0  0  0  0  0  0
    9.0962   -2.9506   -2.4741 H   0  0  0  0  0  0  0  0  0  0  0  0
    7.3726   -3.4657   -2.5332 H   0  0  0  0  0  0  0  0  0  0  0  0
    4.5038    2.5299    1.7331 H   0  0  0  0  0  0  0  0  0  0  0  0
    4.5252    0.8451    2.3674 H   0  0  0  0  0  0  0  0  0  0  0  0
    1.2806    2.8291    4.5178 H   0  0  0  0  0  0  0  0  0  0  0  0
    0.2205    2.4488    3.1485 H   0  0  0  0  0  0  0  0  0  0  0  0
    0.6132    4.1650    3.5057 H   0  0  0  0  0  0  0  0  0  0  0  0
  1  2  2  0
  1 21  1  0
  1 22  1  0
  2  3  1  0
  2 14  1  0
  3  4  2  0
  3  5  1  0
  5  6  1  0
  6  7  1  6
  6  8  1  0
  6 13  1  0
  8  9  1  0
  8 23  1  0
  8 24  1  0
  9 10  1  0
 10 11  1  0
 10 12  2  0
 11 25  1  0
 11 26  1  0
 11 27  1  0
 13 14  1  0
 14 15  1  6
 14 16  1  0
 16 17  1  0
 16 28  1  0
 16 29  1  0
 17 18  1  0
 18 19  1  0
 18 20  2  0
 19 30  1  0
 19 31  1  0
 19 32  1  0
M  END

