
     RDKit          3D

 49 51  0  0  0  0  0  0  0  0999 V2000
    3.9428   -1.5281   -1.5280 C   0  0  0  0  0  0  0  0  0  0  0  0
    4.0480   -0.4248   -0.4634 C   0  0  0  0  0  0  0  0  0  0  0  0
    4.2617   -0.9629    0.9351 C   0  0  0  0  0  0  0  0  0  0  0  0
    5.5521   -1.1901    1.4365 C   0  0  0  0  0  0  0  0  0  0  0  0
    5.7487   -1.7271    2.7112 C   0  0  0  0  0  0  0  0  0  0  0  0
    4.6611   -2.0501    3.5338 C   0  0  0  0  0  0  0  0  0  0  0  0
    4.8843   -2.6363    4.9196 C   0  0  1  0  0  0  0  0  0  0  0  0
    4.2774   -1.7870    6.0478 C   0  0  0  0  0  0  0  0  0  0  0  0
    4.3910   -4.0148    4.9677 N   0  0  0  0  0  0  0  0  0  0  0  0
    4.9817   -4.9862    5.6815 C   0  0  0  0  0  0  0  0  0  0  0  0
    5.9829   -4.8687    6.3810 O   0  0  0  0  0  0  0  0  0  0  0  0
    4.2557   -6.3456    5.5381 C   0  0  0  0  0  0  0  0  0  0  0  0
    3.2532   -6.4662    4.8494 O   0  0  0  0  0  0  0  0  0  0  0  0
    4.8938   -7.2960    6.2658 N   0  0  0  0  0  0  0  0  0  0  0  0
    4.5932   -8.6560    6.4266 C   0  0  0  0  0  0  0  0  0  0  0  0
    3.5149   -9.2414    5.7764 C   0  0  0  0  0  0  0  0  0  0  0  0
    3.2392  -10.6134    5.9543 C   0  0  0  0  0  0  0  0  0  0  0  0
    4.0298  -11.3943    6.7685 C   0  0  0  0  0  0  0  0  0  0  0  0
    5.1436  -10.8338    7.4521 C   0  0  0  0  0  0  0  0  0  0  0  0
    5.9846  -11.6243    8.3055 C   0  0  0  0  0  0  0  0  0  0  0  0
    5.7641  -12.9482    8.4969 O   0  0  0  0  0  0  0  0  0  0  0  0
    7.0568  -11.0518    8.9671 C   0  0  0  0  0  0  0  0  0  0  0  0
    7.3337   -9.6802    8.8067 C   0  0  0  0  0  0  0  0  0  0  0  0
    6.5528   -8.8845    7.9916 C   0  0  0  0  0  0  0  0  0  0  0  0
    5.4429   -9.4357    7.2932 C   0  0  0  0  0  0  0  0  0  0  0  0
    3.3679   -1.8188    3.0378 C   0  0  0  0  0  0  0  0  0  0  0  0
    3.1738   -1.2892    1.7609 C   0  0  0  0  0  0  0  0  0  0  0  0
    3.7877   -1.0971   -2.5303 H   0  0  0  0  0  0  0  0  0  0  0  0
    3.1007   -2.2064   -1.3162 H   0  0  0  0  0  0  0  0  0  0  0  0
    4.8591   -2.1392   -1.5592 H   0  0  0  0  0  0  0  0  0  0  0  0
    3.1304    0.1871   -0.4823 H   0  0  0  0  0  0  0  0  0  0  0  0
    4.8781    0.2533   -0.7235 H   0  0  0  0  0  0  0  0  0  0  0  0
    6.4208   -0.9411    0.8197 H   0  0  0  0  0  0  0  0  0  0  0  0
    6.7665   -1.8957    3.0744 H   0  0  0  0  0  0  0  0  0  0  0  0
    5.9676   -2.7064    5.1006 H   0  0  0  0  0  0  0  0  0  0  0  0
    3.1820   -1.7179    5.9574 H   0  0  0  0  0  0  0  0  0  0  0  0
    4.6884   -0.7660    6.0208 H   0  0  0  0  0  0  0  0  0  0  0  0
    4.5173   -2.2330    7.0248 H   0  0  0  0  0  0  0  0  0  0  0  0
    3.5711   -4.2952    4.4337 H   0  0  0  0  0  0  0  0  0  0  0  0
    5.7092   -6.9136    6.7420 H   0  0  0  0  0  0  0  0  0  0  0  0
    2.8896   -8.6278    5.1317 H   0  0  0  0  0  0  0  0  0  0  0  0
    2.3848  -11.0538    5.4350 H   0  0  0  0  0  0  0  0  0  0  0  0
    3.7769  -12.4530    6.8786 H   0  0  0  0  0  0  0  0  0  0  0  0
    5.0112  -13.2420    7.9702 H   0  0  0  0  0  0  0  0  0  0  0  0
    7.6733  -11.6848    9.6079 H   0  0  0  0  0  0  0  0  0  0  0  0
    8.1823   -9.2421    9.3376 H   0  0  0  0  0  0  0  0  0  0  0  0
    6.8096   -7.8275    7.9052 H   0  0  0  0  0  0  0  0  0  0  0  0
    2.4934   -2.0466    3.6547 H   0  0  0  0  0  0  0  0  0  0  0  0
    2.1550   -1.1171    1.4009 H   0  0  0  0  0  0  0  0  0  0  0  0
  1  2  1  0
  1 28  1  0
  1 29  1  0
  1 30  1  0
  2  3  1  0
  2 31  1  0
  2 32  1  0
  3  4  2  0
  3 27  1  0
  4  5  1  0
  4 33  1  0
  5  6  2  0
  5 34  1  0
  6  7  1  0
  6 26  1  0
  7  8  1  0
  7  9  1  0
  7 35  1  1
  8 36  1  0
  8 37  1  0
  8 38  1  0
  9 10  1  0
  9 39  1  0
 10 11  2  0
 10 12  1  0
 12 13  2  0
 12 14  1  0
 14 15  1  0
 14 40  1  0
 15 16  2  0
 15 25  1  0
 16 17  1  0
 16 41  1  0
 17 18  2  0
 17 42  1  0
 18 19  1  0
 18 43  1  0
 19 20  1  0
 19 25  2  0
 20 21  1  0
 20 22  2  0
 21 44  1  0
 22 23  1  0
 22 45  1  0
 23 24  2  0
 23 46  1  0
 24 25  1  0
 24 47  1  0
 26 27  2  0
 26 48  1  0
 27 49  1  0
M  END

