
     RDKit          3D

 36 37  0  0  0  0  0  0  0  0999 V2000
    5.7653    2.7115    1.4102 C   0  0  0  0  0  0  0  0  0  0  0  0
    5.4490    2.0344    2.7321 C   0  0  0  0  0  0  0  0  0  0  0  0
    6.2889    0.8791    2.9521 O   0  0  0  0  0  0  0  0  0  0  0  0
    5.8902   -0.2898    2.4324 C   0  0  0  0  0  0  0  0  0  0  0  0
    4.8769   -0.4679    1.8102 O   0  0  0  0  0  0  0  0  0  0  0  0
    6.9375   -1.3530    2.7374 C   0  0  0  0  0  0  0  0  0  0  0  0
    6.4244   -2.5983    2.3527 O   0  0  0  0  0  0  0  0  0  0  0  0
    7.2023   -3.7045    2.3959 C   0  0  0  0  0  0  0  0  0  0  0  0
    8.5121   -3.7205    2.8901 C   0  0  0  0  0  0  0  0  0  0  0  0
    9.2309   -4.9179    2.9334 C   0  0  0  0  0  0  0  0  0  0  0  0
   10.8684   -4.8887    3.5587 Cl  0  0  0  0  0  0  0  0  0  0  0  0
    8.6637   -6.1184    2.4886 C   0  0  0  0  0  0  0  0  0  0  0  0
    9.4208   -7.3969    2.5547 C   0  0  1  0  0  0  0  0  0  0  0  0
    8.7948   -8.5710    2.0818 O   0  0  0  0  0  0  0  0  0  0  0  0
    9.9125   -8.1254    1.3226 C   0  0  1  0  0  0  0  0  0  0  0  0
    9.6320   -7.5917   -0.0030 C   0  0  0  0  0  0  0  0  0  0  0  0
    9.4219   -7.1620   -1.0577 N   0  0  0  0  0  0  0  0  0  0  0  0
   11.1131   -8.9465    1.4110 C   0  0  0  0  0  0  0  0  0  0  0  0
   12.0733   -9.5881    1.5004 N   0  0  0  0  0  0  0  0  0  0  0  0
    7.3545   -6.0851    1.9836 C   0  0  0  0  0  0  0  0  0  0  0  0
    6.6097   -4.9080    1.9255 C   0  0  0  0  0  0  0  0  0  0  0  0
    5.3320   -4.9869    1.4886 O   0  0  0  0  0  0  0  0  0  0  0  0
    4.8646   -4.0995    0.4701 C   0  0  0  0  0  0  0  0  0  0  0  0
    5.1665    3.6308    1.3106 H   0  0  0  0  0  0  0  0  0  0  0  0
    5.5213    2.0536    0.5628 H   0  0  0  0  0  0  0  0  0  0  0  0
    6.8296    2.9876    1.3525 H   0  0  0  0  0  0  0  0  0  0  0  0
    4.3967    1.7178    2.7755 H   0  0  0  0  0  0  0  0  0  0  0  0
    5.6617    2.6953    3.5842 H   0  0  0  0  0  0  0  0  0  0  0  0
    7.1841   -1.3174    3.8141 H   0  0  0  0  0  0  0  0  0  0  0  0
    7.8583   -1.0933    2.1807 H   0  0  0  0  0  0  0  0  0  0  0  0
    8.9862   -2.8133    3.2604 H   0  0  0  0  0  0  0  0  0  0  0  0
   10.0538   -7.5384    3.4399 H   0  0  0  0  0  0  0  0  0  0  0  0
    6.8844   -7.0044    1.6319 H   0  0  0  0  0  0  0  0  0  0  0  0
    3.9162   -4.5254    0.1151 H   0  0  0  0  0  0  0  0  0  0  0  0
    5.5758   -4.0651   -0.3738 H   0  0  0  0  0  0  0  0  0  0  0  0
    4.6973   -3.0829    0.8516 H   0  0  0  0  0  0  0  0  0  0  0  0
  1  2  1  0
  1 24  1  0
  1 25  1  0
  1 26  1  0
  2  3  1  0
  2 27  1  0
  2 28  1  0
  3  4  1  0
  4  5  2  0
  4  6  1  0
  6  7  1  0
  6 29  1  0
  6 30  1  0
  7  8  1  0
  8  9  2  0
  8 21  1  0
  9 10  1  0
  9 31  1  0
 10 11  1  0
 10 12  2  0
 12 13  1  0
 12 20  1  0
 13 14  1  0
 13 15  1  0
 13 32  1  1
 14 15  1  0
 15 16  1  6
 15 18  1  0
 16 17  3  0
 18 19  3  0
 20 21  2  0
 20 33  1  0
 21 22  1  0
 22 23  1  0
 23 34  1  0
 23 35  1  0
 23 36  1  0
M  END

