
     RDKit          3D

 77 82  0  0  0  0  0  0  0  0999 V2000
   10.6209    1.4442    5.3010 C   0  0  0  0  0  0  0  0  0  0  0  0
    9.8322    0.8977    4.1363 C   0  0  0  0  0  0  0  0  0  0  0  0
    9.0252   -0.2430    4.2694 C   0  0  0  0  0  0  0  0  0  0  0  0
    8.2757   -0.7285    3.1969 C   0  0  0  0  0  0  0  0  0  0  0  0
    8.3378   -0.1067    1.9424 C   0  0  0  0  0  0  0  0  0  0  0  0
    7.4311   -0.6091    0.8456 C   0  0  0  0  0  0  0  0  0  0  0  0
    6.2396   -0.7746    1.0766 O   0  0  0  0  0  0  0  0  0  0  0  0
    7.9556   -0.8475   -0.4065 N   0  0  0  0  0  0  0  0  0  0  0  0
    7.0017   -1.1762   -1.4710 C   0  0  0  0  0  0  0  0  0  0  0  0
    6.3319    0.0647   -2.0694 C   0  0  0  0  0  0  0  0  0  0  0  0
    5.3623   -0.2986   -3.2018 C   0  0  0  0  0  0  0  0  0  0  0  0
    4.6852    0.8419   -3.7831 N   0  0  0  0  0  0  0  0  0  0  0  0
    3.6207    1.5734   -3.1125 C   0  0  0  0  0  0  0  0  0  0  0  0
    3.0454    2.4640   -4.2325 C   0  0  0  0  0  0  0  0  0  0  0  0
    4.2302    2.6570   -5.1878 C   0  0  0  0  0  0  0  0  0  0  0  0
    5.1034    1.4220   -4.9574 C   0  0  0  0  0  0  0  0  0  0  0  0
    6.0157    1.0250   -5.6564 O   0  0  0  0  0  0  0  0  0  0  0  0
    9.3740   -0.9728   -0.7203 C   0  0  0  0  0  0  0  0  0  0  0  0
    9.8446   -2.4067   -0.9241 C   0  0  0  0  0  0  0  0  0  0  0  0
    9.1948   -3.4687   -0.3341 C   0  0  0  0  0  0  0  0  0  0  0  0
    9.5570   -4.8114   -0.6216 C   0  0  0  0  0  0  0  0  0  0  0  0
    8.9126   -5.9376   -0.0384 C   0  0  0  0  0  0  0  0  0  0  0  0
    9.3029   -7.2088   -0.3994 C   0  0  0  0  0  0  0  0  0  0  0  0
   10.3429   -7.4032   -1.3566 C   0  0  0  0  0  0  0  0  0  0  0  0
   10.9814   -6.3301   -1.9394 C   0  0  0  0  0  0  0  0  0  0  0  0
   10.6059   -5.0050   -1.5783 C   0  0  0  0  0  0  0  0  0  0  0  0
   11.2665   -3.9545   -2.1308 N   0  0  0  0  0  0  0  0  0  0  0  0
   10.9390   -2.7189   -1.8165 C   0  0  0  0  0  0  0  0  0  0  0  0
   11.6511   -1.6753   -2.4418 N   0  0  0  0  0  0  0  0  0  0  0  0
   12.4010   -2.0314   -3.6483 C   0  0  0  0  0  0  0  0  0  0  0  0
   12.8197   -0.7573   -4.3752 C   0  0  0  0  0  0  0  0  0  0  0  0
   13.5827    0.0954   -3.5420 O   0  0  0  0  0  0  0  0  0  0  0  0
   12.8739    0.4493   -2.3764 C   0  0  0  0  0  0  0  0  0  0  0  0
   12.4435   -0.7838   -1.5862 C   0  0  0  0  0  0  0  0  0  0  0  0
   10.5623   -8.8849   -1.5783 C   0  0  0  0  0  0  0  0  0  0  0  0
    9.8968   -9.5329   -0.3417 C   0  0  0  0  0  0  0  0  0  0  0  0
    8.7741   -8.5497    0.0648 C   0  0  0  0  0  0  0  0  0  0  0  0
    9.1328    1.0429    1.8036 C   0  0  0  0  0  0  0  0  0  0  0  0
    9.8636    1.5362    2.8853 C   0  0  0  0  0  0  0  0  0  0  0  0
   10.6417    0.7374    6.1435 H   0  0  0  0  0  0  0  0  0  0  0  0
   10.1825    2.3878    5.6692 H   0  0  0  0  0  0  0  0  0  0  0  0
   11.6621    1.6642    5.0149 H   0  0  0  0  0  0  0  0  0  0  0  0
    8.9749   -0.7551    5.2345 H   0  0  0  0  0  0  0  0  0  0  0  0
    7.6269   -1.5974    3.3277 H   0  0  0  0  0  0  0  0  0  0  0  0
    6.2318   -1.8449   -1.0568 H   0  0  0  0  0  0  0  0  0  0  0  0
    7.5423   -1.7340   -2.2504 H   0  0  0  0  0  0  0  0  0  0  0  0
    7.1002    0.7521   -2.4626 H   0  0  0  0  0  0  0  0  0  0  0  0
    5.7940    0.5912   -1.2646 H   0  0  0  0  0  0  0  0  0  0  0  0
    4.6046   -1.0137   -2.8325 H   0  0  0  0  0  0  0  0  0  0  0  0
    5.9106   -0.7845   -4.0239 H   0  0  0  0  0  0  0  0  0  0  0  0
    4.0119    2.1785   -2.2711 H   0  0  0  0  0  0  0  0  0  0  0  0
    2.8726    0.8802   -2.6917 H   0  0  0  0  0  0  0  0  0  0  0  0
    2.6292    3.4047   -3.8442 H   0  0  0  0  0  0  0  0  0  0  0  0
    2.2319    1.9280   -4.7468 H   0  0  0  0  0  0  0  0  0  0  0  0
    4.8339    3.5456   -4.9321 H   0  0  0  0  0  0  0  0  0  0  0  0
    3.9602    2.7440   -6.2496 H   0  0  0  0  0  0  0  0  0  0  0  0
    9.9482   -0.4999    0.0860 H   0  0  0  0  0  0  0  0  0  0  0  0
    9.5979   -0.4052   -1.6391 H   0  0  0  0  0  0  0  0  0  0  0  0
    8.3488   -3.2842    0.3333 H   0  0  0  0  0  0  0  0  0  0  0  0
    8.1151   -5.7752    0.6932 H   0  0  0  0  0  0  0  0  0  0  0  0
   11.7862   -6.4514   -2.6680 H   0  0  0  0  0  0  0  0  0  0  0  0
   11.7662   -2.6518   -4.2961 H   0  0  0  0  0  0  0  0  0  0  0  0
   13.2958   -2.6347   -3.3997 H   0  0  0  0  0  0  0  0  0  0  0  0
   11.9166   -0.2266   -4.7412 H   0  0  0  0  0  0  0  0  0  0  0  0
   13.4507   -1.0042   -5.2424 H   0  0  0  0  0  0  0  0  0  0  0  0
   11.9766    1.0499   -2.6360 H   0  0  0  0  0  0  0  0  0  0  0  0
   13.5441    1.0756   -1.7672 H   0  0  0  0  0  0  0  0  0  0  0  0
   11.8696   -0.4745   -0.7029 H   0  0  0  0  0  0  0  0  0  0  0  0
   13.3491   -1.3118   -1.2197 H   0  0  0  0  0  0  0  0  0  0  0  0
   11.6240   -9.1540   -1.6934 H   0  0  0  0  0  0  0  0  0  0  0  0
   10.0529   -9.2023   -2.5078 H   0  0  0  0  0  0  0  0  0  0  0  0
   10.6350   -9.5991    0.4750 H   0  0  0  0  0  0  0  0  0  0  0  0
    9.5291  -10.5522   -0.5338 H   0  0  0  0  0  0  0  0  0  0  0  0
    8.5412   -8.5772    1.1410 H   0  0  0  0  0  0  0  0  0  0  0  0
    7.8346   -8.7886   -0.4686 H   0  0  0  0  0  0  0  0  0  0  0  0
    9.1630    1.5729    0.8480 H   0  0  0  0  0  0  0  0  0  0  0  0
   10.4673    2.4397    2.7570 H   0  0  0  0  0  0  0  0  0  0  0  0
  1  2  1  0
  1 40  1  0
  1 41  1  0
  1 42  1  0
  2  3  2  0
  2 39  1  0
  3  4  1  0
  3 43  1  0
  4  5  2  0
  4 44  1  0
  5  6  1  0
  5 38  1  0
  6  7  2  0
  6  8  1  0
  8  9  1  0
  8 18  1  0
  9 10  1  0
  9 45  1  0
  9 46  1  0
 10 11  1  0
 10 47  1  0
 10 48  1  0
 11 12  1  0
 11 49  1  0
 11 50  1  0
 12 13  1  0
 12 16  1  0
 13 14  1  0
 13 51  1  0
 13 52  1  0
 14 15  1  0
 14 53  1  0
 14 54  1  0
 15 16  1  0
 15 55  1  0
 15 56  1  0
 16 17  2  0
 18 19  1  0
 18 57  1  0
 18 58  1  0
 19 20  2  0
 19 28  1  0
 20 21  1  0
 20 59  1  0
 21 22  2  0
 21 26  1  0
 22 23  1  0
 22 60  1  0
 23 24  2  0
 23 37  1  0
 24 25  1  0
 24 35  1  0
 25 26  2  0
 25 61  1  0
 26 27  1  0
 27 28  2  0
 28 29  1  0
 29 30  1  0
 29 34  1  0
 30 31  1  0
 30 62  1  0
 30 63  1  0
 31 32  1  0
 31 64  1  0
 31 65  1  0
 32 33  1  0
 33 34  1  0
 33 66  1  0
 33 67  1  0
 34 68  1  0
 34 69  1  0
 35 36  1  0
 35 70  1  0
 35 71  1  0
 36 37  1  0
 36 72  1  0
 36 73  1  0
 37 74  1  0
 37 75  1  0
 38 39  2  0
 38 76  1  0
 39 77  1  0
M  END

