
     RDKit          3D

 62 61  0  0  0  0  0  0  0  0999 V2000
    0.7188    0.0510    0.4137 C   0  0  0  0  0  0  0  0  0  0  0  0
    2.2359   -0.1477    0.2982 C   0  0  1  0  0  0  0  0  0  0  0  0
    2.5688   -1.6192    0.0165 C   0  0  0  0  0  0  0  0  0  0  0  0
    2.8301    0.8092   -0.7530 C   0  0  0  0  0  0  0  0  0  0  0  0
    4.3601    0.8461   -0.8303 C   0  0  0  0  0  0  0  0  0  0  0  0
    4.8961    1.8767   -1.8294 C   0  0  0  0  0  0  0  0  0  0  0  0
    6.4246    1.9211   -1.9158 C   0  0  0  0  0  0  0  0  0  0  0  0
    6.9597    2.9518   -2.9145 C   0  0  0  0  0  0  0  0  0  0  0  0
    8.4881    2.9974   -3.0005 C   0  0  0  0  0  0  0  0  0  0  0  0
    9.0201    4.0279   -4.0005 C   0  0  0  0  0  0  0  0  0  0  0  0
   10.5556    4.0680   -4.0851 C   0  0  0  0  0  0  0  0  0  0  0  0
   11.0745    5.1112   -5.0342 C   0  0  0  0  0  0  0  0  0  0  0  0
   11.8113    4.8746   -6.1267 C   0  0  0  0  0  0  0  0  0  0  0  0
   12.3226    5.9300   -7.0776 C   0  0  0  0  0  0  0  0  0  0  0  0
   13.8287    5.9952   -7.1140 C   0  0  0  0  0  0  0  0  0  0  0  0
   14.5930    5.7693   -8.1913 C   0  0  0  0  0  0  0  0  0  0  0  0
   16.0961    5.8106   -8.2015 C   0  0  1  0  0  0  0  0  0  0  0  0
   16.6356    4.5441   -8.5648 O   0  0  0  0  0  0  0  0  0  0  0  0
   16.6984    6.7950   -9.2431 C   0  0  1  0  0  0  0  0  0  0  0  0
   16.3949    6.4901  -10.6256 N   0  0  0  0  0  0  0  0  0  0  0  0
   16.3133    8.2332   -8.9061 C   0  0  0  0  0  0  0  0  0  0  0  0
   17.0038    9.4193  -10.0917 S   0  0  1  0  0  0  0  0  0  0  0  0
   18.4485    9.2241  -10.2059 O   0  0  0  0  0  0  0  0  0  0  0  0
   16.1286    9.5338  -11.2449 O   0  0  0  0  0  0  0  0  0  0  0  0
   16.7971   10.8073   -9.2127 O   0  0  0  0  0  0  0  0  0  0  0  0
    0.2858   -0.5962    1.1937 H   0  0  0  0  0  0  0  0  0  0  0  0
    0.2153   -0.1941   -0.5377 H   0  0  0  0  0  0  0  0  0  0  0  0
    0.4653    1.0942    0.6637 H   0  0  0  0  0  0  0  0  0  0  0  0
    2.6835    0.1170    1.2759 H   0  0  0  0  0  0  0  0  0  0  0  0
    2.1667   -1.9326   -0.9630 H   0  0  0  0  0  0  0  0  0  0  0  0
    2.1273   -2.2786    0.7815 H   0  0  0  0  0  0  0  0  0  0  0  0
    3.6535   -1.8076    0.0076 H   0  0  0  0  0  0  0  0  0  0  0  0
    2.4651    1.8307   -0.5403 H   0  0  0  0  0  0  0  0  0  0  0  0
    2.4193    0.5475   -1.7472 H   0  0  0  0  0  0  0  0  0  0  0  0
    4.7500   -0.1504   -1.1027 H   0  0  0  0  0  0  0  0  0  0  0  0
    4.7701    1.0654    0.1735 H   0  0  0  0  0  0  0  0  0  0  0  0
    4.5171    2.8799   -1.5585 H   0  0  0  0  0  0  0  0  0  0  0  0
    4.4806    1.6626   -2.8318 H   0  0  0  0  0  0  0  0  0  0  0  0
    6.8040    0.9185   -2.1882 H   0  0  0  0  0  0  0  0  0  0  0  0
    6.8404    2.1346   -0.9134 H   0  0  0  0  0  0  0  0  0  0  0  0
    6.5799    3.9543   -2.6426 H   0  0  0  0  0  0  0  0  0  0  0  0
    6.5446    2.7379   -3.9170 H   0  0  0  0  0  0  0  0  0  0  0  0
    8.8685    1.9951   -3.2724 H   0  0  0  0  0  0  0  0  0  0  0  0
    8.9044    3.2127   -1.9986 H   0  0  0  0  0  0  0  0  0  0  0  0
    8.6439    5.0312   -3.7275 H   0  0  0  0  0  0  0  0  0  0  0  0
    8.6103    3.8168   -5.0045 H   0  0  0  0  0  0  0  0  0  0  0  0
   10.9383    3.0747   -4.3775 H   0  0  0  0  0  0  0  0  0  0  0  0
   10.9561    4.2683   -3.0726 H   0  0  0  0  0  0  0  0  0  0  0  0
   10.7979    6.1502   -4.8038 H   0  0  0  0  0  0  0  0  0  0  0  0
   12.0931    3.8402   -6.3659 H   0  0  0  0  0  0  0  0  0  0  0  0
   11.9217    6.9130   -6.7716 H   0  0  0  0  0  0  0  0  0  0  0  0
   11.9463    5.7337   -8.0976 H   0  0  0  0  0  0  0  0  0  0  0  0
   14.3158    6.2343   -6.1584 H   0  0  0  0  0  0  0  0  0  0  0  0
   14.1210    5.5081   -9.1473 H   0  0  0  0  0  0  0  0  0  0  0  0
   16.4544    6.1132   -7.1958 H   0  0  0  0  0  0  0  0  0  0  0  0
   16.2000    3.8678   -8.0299 H   0  0  0  0  0  0  0  0  0  0  0  0
   17.7924    6.7069   -9.1250 H   0  0  0  0  0  0  0  0  0  0  0  0
   15.4221    6.6763  -10.8666 H   0  0  0  0  0  0  0  0  0  0  0  0
   16.5954    5.5095  -10.8161 H   0  0  0  0  0  0  0  0  0  0  0  0
   16.6960    8.5333   -7.9213 H   0  0  0  0  0  0  0  0  0  0  0  0
   15.2262    8.4025   -8.9301 H   0  0  0  0  0  0  0  0  0  0  0  0
   17.6892   11.1245   -8.9911 H   0  0  0  0  0  0  0  0  0  0  0  0
  1  2  1  0
  1 26  1  0
  1 27  1  0
  1 28  1  0
  2  3  1  0
  2  4  1  0
  2 29  1  1
  3 30  1  0
  3 31  1  0
  3 32  1  0
  4  5  1  0
  4 33  1  0
  4 34  1  0
  5  6  1  0
  5 35  1  0
  5 36  1  0
  6  7  1  0
  6 37  1  0
  6 38  1  0
  7  8  1  0
  7 39  1  0
  7 40  1  0
  8  9  1  0
  8 41  1  0
  8 42  1  0
  9 10  1  0
  9 43  1  0
  9 44  1  0
 10 11  1  0
 10 45  1  0
 10 46  1  0
 11 12  1  0
 11 47  1  0
 11 48  1  0
 12 13  2  0
 12 49  1  0
 13 14  1  0
 13 50  1  0
 14 15  1  0
 14 51  1  0
 14 52  1  0
 15 16  2  0
 15 53  1  0
 16 17  1  0
 16 54  1  0
 17 18  1  0
 17 19  1  0
 17 55  1  1
 18 56  1  0
 19 20  1  0
 19 21  1  0
 19 57  1  6
 20 58  1  0
 20 59  1  0
 21 22  1  0
 21 60  1  0
 21 61  1  0
 22 23  2  0
 22 24  2  0
 22 25  1  1
 25 62  1  0
M  END

