
     RDKit          3D

 32 34  0  0  0  0  0  0  0  0999 V2000
    2.0095   -0.0040    1.0990 O   0  0  0  0  0  0  0  0  0  0  0  0
    3.0660   -0.0517    0.5037 C   0  0  0  0  0  0  0  0  0  0  0  0
    3.6427   -1.1959   -0.0394 N   0  0  0  0  0  0  0  0  0  0  0  0
    4.8353   -0.8950   -0.7058 C   0  0  0  0  0  0  0  0  0  0  0  0
    5.6332   -1.9429   -1.3481 C   0  0  0  0  0  0  0  0  0  0  0  0
    5.5028   -3.2945   -0.9711 C   0  0  0  0  0  0  0  0  0  0  0  0
    6.2750   -4.2849   -1.5810 C   0  0  0  0  0  0  0  0  0  0  0  0
    7.1930   -3.9472   -2.5790 C   0  0  0  0  0  0  0  0  0  0  0  0
    7.3328   -2.6082   -2.9637 C   0  0  0  0  0  0  0  0  0  0  0  0
    6.5612   -1.6181   -2.3590 C   0  0  0  0  0  0  0  0  0  0  0  0
    5.0952    0.4480   -0.5992 C   0  0  0  0  0  0  0  0  0  0  0  0
    4.0286    1.0627    0.1635 C   0  0  0  0  0  0  0  0  0  0  0  0
    3.7584    2.3209    0.6134 C   0  0  0  0  0  0  0  0  0  0  0  0
    4.4696    3.5795    0.4336 C   0  0  0  0  0  0  0  0  0  0  0  0
    5.5208    3.7768   -0.4911 C   0  0  0  0  0  0  0  0  0  0  0  0
    6.1542    5.0133   -0.6015 C   0  0  0  0  0  0  0  0  0  0  0  0
    5.7596    6.0882    0.2041 C   0  0  0  0  0  0  0  0  0  0  0  0
    4.7129    5.9180    1.1161 C   0  0  0  0  0  0  0  0  0  0  0  0
    4.0745    4.6837    1.2233 C   0  0  0  0  0  0  0  0  0  0  0  0
    3.1507   -2.0789   -0.0812 H   0  0  0  0  0  0  0  0  0  0  0  0
    4.8124   -3.5748   -0.1721 H   0  0  0  0  0  0  0  0  0  0  0  0
    6.1624   -5.3262   -1.2689 H   0  0  0  0  0  0  0  0  0  0  0  0
    7.7955   -4.7229   -3.0579 H   0  0  0  0  0  0  0  0  0  0  0  0
    8.0425   -2.3361   -3.7491 H   0  0  0  0  0  0  0  0  0  0  0  0
    6.6578   -0.5807   -2.6853 H   0  0  0  0  0  0  0  0  0  0  0  0
    6.0035    0.9220   -0.9574 H   0  0  0  0  0  0  0  0  0  0  0  0
    2.8510    2.3809    1.2257 H   0  0  0  0  0  0  0  0  0  0  0  0
    5.8261    2.9638   -1.1484 H   0  0  0  0  0  0  0  0  0  0  0  0
    6.9607    5.1435   -1.3278 H   0  0  0  0  0  0  0  0  0  0  0  0
    6.2607    7.0553    0.1147 H   0  0  0  0  0  0  0  0  0  0  0  0
    4.3911    6.7528    1.7439 H   0  0  0  0  0  0  0  0  0  0  0  0
    3.2546    4.5562    1.9351 H   0  0  0  0  0  0  0  0  0  0  0  0
  1  2  2  0
  2  3  1  0
  2 12  1  0
  3  4  1  0
  3 20  1  0
  4  5  1  0
  4 11  2  0
  5  6  2  0
  5 10  1  0
  6  7  1  0
  6 21  1  0
  7  8  2  0
  7 22  1  0
  8  9  1  0
  8 23  1  0
  9 10  2  0
  9 24  1  0
 10 25  1  0
 11 12  1  0
 11 26  1  0
 12 13  2  0
 13 14  1  0
 13 27  1  0
 14 15  2  0
 14 19  1  0
 15 16  1  0
 15 28  1  0
 16 17  2  0
 16 29  1  0
 17 18  1  0
 17 30  1  0
 18 19  2  0
 18 31  1  0
 19 32  1  0
M  END

