
     RDKit          3D

 59 62  0  0  0  0  0  0  0  0999 V2000
    4.7091   -0.6383    0.1503 C   0  0  0  0  0  0  0  0  0  0  0  0
    5.6074   -1.8778    0.0953 C   0  0  1  0  0  0  0  0  0  0  0  0
    4.9940   -3.0983   -0.6200 C   0  0  0  0  0  0  0  0  0  0  0  0
    5.0102   -3.0112   -2.0736 N   0  0  0  0  0  0  0  0  0  0  0  0
    3.9004   -2.3599   -2.7473 C   0  0  0  0  0  0  0  0  0  0  0  0
    3.4936   -3.0226   -4.0618 C   0  0  0  0  0  0  0  0  0  0  0  0
    3.9471   -4.3082   -4.3794 C   0  0  0  0  0  0  0  0  0  0  0  0
    3.5776   -4.9331   -5.5740 C   0  0  0  0  0  0  0  0  0  0  0  0
    2.7425   -4.2677   -6.4711 C   0  0  0  0  0  0  0  0  0  0  0  0
    2.2755   -2.9867   -6.1614 C   0  0  0  0  0  0  0  0  0  0  0  0
    2.6331   -2.3532   -4.9648 C   0  0  0  0  0  0  0  0  0  0  0  0
    2.1086   -0.9653   -4.6206 C   0  0  0  0  0  0  0  0  0  0  0  0
    1.1328   -0.4306   -5.5440 N   0  0  0  0  0  0  0  0  0  0  0  0
    1.3486    0.7269   -6.2515 C   0  0  0  0  0  0  0  0  0  0  0  0
    2.3728    1.3862   -6.1397 O   0  0  0  0  0  0  0  0  0  0  0  0
    0.2641    1.1510   -7.1748 C   0  0  0  0  0  0  0  0  0  0  0  0
    0.2821    2.3232   -7.8949 C   0  0  0  0  0  0  0  0  0  0  0  0
   -0.8666    2.5031   -8.7070 C   0  0  0  0  0  0  0  0  0  0  0  0
   -1.7591    1.4529   -8.6009 C   0  0  0  0  0  0  0  0  0  0  0  0
   -2.9685    1.3472   -9.2789 N   0  0  0  0  0  0  0  0  0  0  0  0
   -3.8602    0.3012   -9.1687 C   0  0  0  0  0  0  0  0  0  0  0  0
   -3.6396   -0.6493   -8.4353 O   0  0  0  0  0  0  0  0  0  0  0  0
   -5.0926    0.4255  -10.0045 C   0  0  1  0  0  0  0  0  0  0  0  0
   -5.6880   -0.8584  -10.5567 C   0  0  0  0  0  0  0  0  0  0  0  0
   -6.3767   -0.1550   -9.4370 C   0  0  0  0  0  0  0  0  0  0  0  0
   -1.1935    0.2269   -7.4990 S   0  0  0  0  0  0  0  0  0  0  0  0
    6.3430   -2.6735   -2.5644 C   0  0  0  0  0  0  0  0  0  0  0  0
    6.9218   -1.4256   -1.8832 C   0  0  2  0  0  0  0  0  0  0  0  0
    8.3671   -1.1543   -2.2660 C   0  0  0  0  0  0  0  0  0  0  0  0
    6.8878   -1.5878   -0.4654 O   0  0  0  0  0  0  0  0  0  0  0  0
    3.7875   -0.8555    0.7142 H   0  0  0  0  0  0  0  0  0  0  0  0
    4.4126   -0.2802   -0.8467 H   0  0  0  0  0  0  0  0  0  0  0  0
    5.2383    0.1819    0.6594 H   0  0  0  0  0  0  0  0  0  0  0  0
    5.8281   -2.1778    1.1344 H   0  0  0  0  0  0  0  0  0  0  0  0
    3.9644   -3.2763   -0.2700 H   0  0  0  0  0  0  0  0  0  0  0  0
    5.5924   -3.9816   -0.3289 H   0  0  0  0  0  0  0  0  0  0  0  0
    4.0931   -1.2840   -2.9401 H   0  0  0  0  0  0  0  0  0  0  0  0
    3.0308   -2.3740   -2.0660 H   0  0  0  0  0  0  0  0  0  0  0  0
    4.5998   -4.8112   -3.6636 H   0  0  0  0  0  0  0  0  0  0  0  0
    3.9449   -5.9375   -5.8010 H   0  0  0  0  0  0  0  0  0  0  0  0
    2.4511   -4.7398   -7.4130 H   0  0  0  0  0  0  0  0  0  0  0  0
    1.6256   -2.4643   -6.8661 H   0  0  0  0  0  0  0  0  0  0  0  0
    2.9339   -0.2355   -4.6029 H   0  0  0  0  0  0  0  0  0  0  0  0
    1.6826   -0.9757   -3.6001 H   0  0  0  0  0  0  0  0  0  0  0  0
    0.2402   -0.9036   -5.6231 H   0  0  0  0  0  0  0  0  0  0  0  0
    1.1146    3.0233   -7.8231 H   0  0  0  0  0  0  0  0  0  0  0  0
   -1.0374    3.3688   -9.3495 H   0  0  0  0  0  0  0  0  0  0  0  0
   -3.1961    2.1131   -9.9025 H   0  0  0  0  0  0  0  0  0  0  0  0
   -5.1776    1.3250  -10.6217 H   0  0  0  0  0  0  0  0  0  0  0  0
   -5.1446   -1.7763  -10.3182 H   0  0  0  0  0  0  0  0  0  0  0  0
   -6.1219   -0.8143  -11.5592 H   0  0  0  0  0  0  0  0  0  0  0  0
   -6.2997   -0.5966   -8.4401 H   0  0  0  0  0  0  0  0  0  0  0  0
   -7.3017    0.3907   -9.6408 H   0  0  0  0  0  0  0  0  0  0  0  0
    6.3091   -2.5387   -3.6569 H   0  0  0  0  0  0  0  0  0  0  0  0
    7.0236   -3.5219   -2.3598 H   0  0  0  0  0  0  0  0  0  0  0  0
    6.3066   -0.5482   -2.1707 H   0  0  0  0  0  0  0  0  0  0  0  0
    9.0017   -2.0153   -2.0015 H   0  0  0  0  0  0  0  0  0  0  0  0
    8.7454   -0.2742   -1.7246 H   0  0  0  0  0  0  0  0  0  0  0  0
    8.4583   -0.9674   -3.3475 H   0  0  0  0  0  0  0  0  0  0  0  0
  1  2  1  0
  1 31  1  0
  1 32  1  0
  1 33  1  0
  2  3  1  0
  2 30  1  0
  2 34  1  1
  3  4  1  0
  3 35  1  0
  3 36  1  0
  4  5  1  0
  4 27  1  0
  5  6  1  0
  5 37  1  0
  5 38  1  0
  6  7  2  0
  6 11  1  0
  7  8  1  0
  7 39  1  0
  8  9  2  0
  8 40  1  0
  9 10  1  0
  9 41  1  0
 10 11  2  0
 10 42  1  0
 11 12  1  0
 12 13  1  0
 12 43  1  0
 12 44  1  0
 13 14  1  0
 13 45  1  0
 14 15  2  0
 14 16  1  0
 16 17  2  0
 16 26  1  0
 17 18  1  0
 17 46  1  0
 18 19  2  0
 18 47  1  0
 19 20  1  0
 19 26  1  0
 20 21  1  0
 20 48  1  0
 21 22  2  0
 21 23  1  0
 23 24  1  0
 23 25  1  0
 23 49  1  6
 24 25  1  0
 24 50  1  0
 24 51  1  0
 25 52  1  0
 25 53  1  0
 27 28  1  0
 27 54  1  0
 27 55  1  0
 28 29  1  0
 28 30  1  0
 28 56  1  1
 29 57  1  0
 29 58  1  0
 29 59  1  0
M  END

