
     RDKit          3D

 64 68  0  0  0  0  0  0  0  0999 V2000
    2.7444   -0.6835    0.5200 O   0  0  0  0  0  0  0  0  0  0  0  0
    2.8495    0.0465   -0.4534 C   0  0  0  0  0  0  0  0  0  0  0  0
    1.9965    1.2813   -0.5842 C   0  0  0  0  0  0  0  0  0  0  0  0
    2.5351    2.5513   -0.8351 C   0  0  0  0  0  0  0  0  0  0  0  0
    1.6902    3.6638   -0.8839 C   0  0  0  0  0  0  0  0  0  0  0  0
    0.3126    3.5134   -0.7106 C   0  0  0  0  0  0  0  0  0  0  0  0
   -0.2443    2.2486   -0.4595 C   0  0  0  0  0  0  0  0  0  0  0  0
   -1.7424    2.0815   -0.2521 C   0  0  0  0  0  0  0  0  0  0  0  0
   -2.6123    2.7442   -1.3002 C   0  0  0  0  0  0  0  0  0  0  0  0
   -3.2534    3.8077   -0.9118 N   0  0  0  0  0  0  0  0  0  0  0  0
   -4.0455    4.4441   -1.7900 N   0  0  0  0  0  0  0  0  0  0  0  0
   -4.5241    5.2644   -1.4261 H   0  0  0  0  0  0  0  0  0  0  0  0
   -4.3062    4.1200   -3.1161 C   0  0  0  0  0  0  0  0  0  0  0  0
   -5.0618    4.7957   -3.7943 O   0  0  0  0  0  0  0  0  0  0  0  0
   -3.5820    2.9146   -3.5633 C   0  0  0  0  0  0  0  0  0  0  0  0
   -3.7453    2.4625   -4.8824 C   0  0  0  0  0  0  0  0  0  0  0  0
   -3.0616    1.3340   -5.3174 C   0  0  0  0  0  0  0  0  0  0  0  0
   -2.2076    0.6450   -4.4375 C   0  0  0  0  0  0  0  0  0  0  0  0
   -2.0468    1.0825   -3.1270 C   0  0  0  0  0  0  0  0  0  0  0  0
   -2.7308    2.2280   -2.6620 C   0  0  0  0  0  0  0  0  0  0  0  0
    0.6157    1.1473   -0.3755 C   0  0  0  0  0  0  0  0  0  0  0  0
    3.7553   -0.2169   -1.4703 N   0  0  0  0  0  0  0  0  0  0  0  0
    4.5488   -1.4414   -1.3687 C   0  0  0  0  0  0  0  0  0  0  0  0
    3.8681   -2.5761   -2.1443 C   0  0  0  0  0  0  0  0  0  0  0  0
    3.5316   -2.2066   -3.5280 N   0  0  0  0  0  0  0  0  0  0  0  0
    4.5285   -2.4929   -4.4527 N   0  0  0  0  0  0  0  0  0  0  0  0
    5.6657   -2.7567   -4.0598 O   0  0  0  0  0  0  0  0  0  0  0  0
    4.2838   -2.5643   -5.7221 N   0  0  0  0  0  0  0  0  0  0  0  0
    2.9030   -2.4444   -5.9430 O   0  0  0  0  0  0  0  0  0  0  0  0
    2.5236   -2.7799   -7.1919 C   0  0  0  0  0  0  0  0  0  0  0  0
    3.4039   -3.3346   -8.1402 C   0  0  0  0  0  0  0  0  0  0  0  0
    2.9440   -3.7039   -9.3979 C   0  0  0  0  0  0  0  0  0  0  0  0
    1.5940   -3.5350   -9.7181 C   0  0  0  0  0  0  0  0  0  0  0  0
    1.1056   -3.9351  -11.0509 N   0  0  0  0  0  0  0  0  0  0  0  0
    1.9208   -4.4100  -11.8240 O   0  0  0  0  0  0  0  0  0  0  0  0
   -0.0781   -3.7641  -11.2890 O   0  0  0  0  0  0  0  0  0  0  0  0
    0.6967   -2.9979   -8.8048 C   0  0  0  0  0  0  0  0  0  0  0  0
    1.1622   -2.6044   -7.5521 C   0  0  0  0  0  0  0  0  0  0  0  0
    0.1770   -1.9929   -6.6445 N   0  0  0  0  0  0  0  0  0  0  0  0
    0.5821   -1.2069   -5.8011 O   0  0  0  0  0  0  0  0  0  0  0  0
   -0.9945   -2.2862   -6.8127 O   0  0  0  0  0  0  0  0  0  0  0  0
    2.8415   -0.9062   -3.6536 C   0  0  0  0  0  0  0  0  0  0  0  0
    3.5522    0.1959   -2.8558 C   0  0  0  0  0  0  0  0  0  0  0  0
    3.6123    2.6713   -0.9750 H   0  0  0  0  0  0  0  0  0  0  0  0
    2.1099    4.6573   -1.0610 H   0  0  0  0  0  0  0  0  0  0  0  0
   -0.3422    4.3869   -0.7642 H   0  0  0  0  0  0  0  0  0  0  0  0
   -2.0274    2.5302    0.7122 H   0  0  0  0  0  0  0  0  0  0  0  0
   -1.9811    1.0080   -0.1878 H   0  0  0  0  0  0  0  0  0  0  0  0
   -4.4147    3.0226   -5.5383 H   0  0  0  0  0  0  0  0  0  0  0  0
   -3.1826    0.9780   -6.3433 H   0  0  0  0  0  0  0  0  0  0  0  0
   -1.6576   -0.2284   -4.7952 H   0  0  0  0  0  0  0  0  0  0  0  0
   -1.3768    0.5407   -2.4587 H   0  0  0  0  0  0  0  0  0  0  0  0
    0.2149    0.1566   -0.1446 H   0  0  0  0  0  0  0  0  0  0  0  0
    4.6347   -1.7151   -0.3104 H   0  0  0  0  0  0  0  0  0  0  0  0
    5.5516   -1.2549   -1.7833 H   0  0  0  0  0  0  0  0  0  0  0  0
    2.9095   -2.8205   -1.6597 H   0  0  0  0  0  0  0  0  0  0  0  0
    4.4912   -3.4779   -2.1617 H   0  0  0  0  0  0  0  0  0  0  0  0
    4.4468   -3.4733   -7.8631 H   0  0  0  0  0  0  0  0  0  0  0  0
    3.6166   -4.1318  -10.1412 H   0  0  0  0  0  0  0  0  0  0  0  0
   -0.3545   -2.8783   -9.0608 H   0  0  0  0  0  0  0  0  0  0  0  0
    1.8215   -1.0528   -3.2664 H   0  0  0  0  0  0  0  0  0  0  0  0
    2.7364   -0.6340   -4.7066 H   0  0  0  0  0  0  0  0  0  0  0  0
    2.9484    1.1097   -2.9021 H   0  0  0  0  0  0  0  0  0  0  0  0
    4.5338    0.4224   -3.3084 H   0  0  0  0  0  0  0  0  0  0  0  0
  1  2  2  0
  2  3  1  0
  2 22  1  0
  3  4  2  0
  3 21  1  0
  4  5  1  0
  4 44  1  0
  5  6  2  0
  5 45  1  0
  6  7  1  0
  6 46  1  0
  7  8  1  0
  7 21  2  0
  8  9  1  0
  8 47  1  0
  8 48  1  0
  9 10  2  0
  9 20  1  0
 10 11  1  0
 11 12  1  0
 11 13  1  0
 13 14  2  0
 13 15  1  0
 15 16  1  0
 15 20  2  0
 16 17  2  0
 16 49  1  0
 17 18  1  0
 17 50  1  0
 18 19  2  0
 18 51  1  0
 19 20  1  0
 19 52  1  0
 21 53  1  0
 22 23  1  0
 22 43  1  0
 23 24  1  0
 23 54  1  0
 23 55  1  0
 24 25  1  0
 24 56  1  0
 24 57  1  0
 25 26  1  0
 25 42  1  0
 26 27  1  0
 26 28  1  0
 28 29  2  0
 29 30  1  0
 30 31  2  0
 30 38  1  0
 31 32  1  0
 31 58  1  0
 32 33  2  0
 32 59  1  0
 33 34  1  0
 33 37  1  0
 34 35  2  0
 34 36  1  0
 37 38  2  0
 37 60  1  0
 38 39  1  0
 39 40  2  0
 39 41  1  0
 42 43  1  0
 42 61  1  0
 42 62  1  0
 43 63  1  0
 43 64  1  0
M  CHG  6  27  -1  29   1  34   1  36  -1  39   1  41  -1
M  END

