
     RDKit          3D

 38 39  0  0  0  0  0  0  0  0999 V2000
    2.7560   -0.9420    1.0200 C   0  0  0  0  0  0  0  0  0  0  0  0
    1.9961   -0.2139   -0.0880 C   0  0  0  0  0  0  0  0  0  0  0  0
    2.8528    0.8243   -0.8298 C   0  0  1  0  0  0  0  0  0  0  0  0
    2.0869    1.5798   -1.9254 C   0  0  0  0  0  0  0  0  0  0  0  0
    1.1469    2.5364   -1.3493 N   0  0  0  0  0  0  0  0  0  0  0  0
    0.3228    3.1975   -2.3498 C   0  0  0  0  0  0  0  0  0  0  0  0
   -0.9733    3.7774   -1.8050 C   0  0  0  0  0  0  0  0  0  0  0  0
   -1.5353    3.2389   -0.6341 C   0  0  0  0  0  0  0  0  0  0  0  0
   -2.7467    3.7159   -0.1189 C   0  0  0  0  0  0  0  0  0  0  0  0
   -3.3402    3.2400    1.0043 O   0  0  0  0  0  0  0  0  0  0  0  0
   -2.7245    2.1930    1.7200 C   0  0  0  0  0  0  0  0  0  0  0  0
   -3.4202    4.7546   -0.7842 C   0  0  0  0  0  0  0  0  0  0  0  0
   -2.8827    5.2914   -1.9473 C   0  0  0  0  0  0  0  0  0  0  0  0
   -1.6701    4.8062   -2.4543 C   0  0  0  0  0  0  0  0  0  0  0  0
   -1.0165    5.5810   -4.0838 Br  0  0  0  0  0  0  0  0  0  0  0  0
    1.8580    3.4762   -0.4871 C   0  0  0  0  0  0  0  0  0  0  0  0
    2.6119    2.7191    0.5994 C   0  0  0  0  0  0  0  0  0  0  0  0
    3.4850    1.7495    0.0537 O   0  0  0  0  0  0  0  0  0  0  0  0
    2.1138   -1.6781    1.5291 H   0  0  0  0  0  0  0  0  0  0  0  0
    3.1319   -0.2341    1.7740 H   0  0  0  0  0  0  0  0  0  0  0  0
    3.6296   -1.4818    0.6175 H   0  0  0  0  0  0  0  0  0  0  0  0
    1.0932    0.2713    0.3177 H   0  0  0  0  0  0  0  0  0  0  0  0
    1.6331   -0.9400   -0.8367 H   0  0  0  0  0  0  0  0  0  0  0  0
    3.6910    0.2928   -1.3119 H   0  0  0  0  0  0  0  0  0  0  0  0
    1.5344    0.8604   -2.5511 H   0  0  0  0  0  0  0  0  0  0  0  0
    2.8272    2.0898   -2.5834 H   0  0  0  0  0  0  0  0  0  0  0  0
    0.0632    2.4539   -3.1245 H   0  0  0  0  0  0  0  0  0  0  0  0
    0.8833    3.9946   -2.8810 H   0  0  0  0  0  0  0  0  0  0  0  0
   -0.9816    2.4354   -0.1500 H   0  0  0  0  0  0  0  0  0  0  0  0
   -3.3753    1.9752    2.5774 H   0  0  0  0  0  0  0  0  0  0  0  0
   -1.7252    2.4812    2.0934 H   0  0  0  0  0  0  0  0  0  0  0  0
   -2.6219    1.2796    1.1068 H   0  0  0  0  0  0  0  0  0  0  0  0
   -4.3620    5.1224   -0.3730 H   0  0  0  0  0  0  0  0  0  0  0  0
   -3.4038    6.0946   -2.4712 H   0  0  0  0  0  0  0  0  0  0  0  0
    1.1394    4.1710   -0.0240 H   0  0  0  0  0  0  0  0  0  0  0  0
    2.5794    4.0881   -1.0764 H   0  0  0  0  0  0  0  0  0  0  0  0
    1.8869    2.2566    1.2981 H   0  0  0  0  0  0  0  0  0  0  0  0
    3.2402    3.4118    1.1803 H   0  0  0  0  0  0  0  0  0  0  0  0
  1  2  1  0
  1 19  1  0
  1 20  1  0
  1 21  1  0
  2  3  1  0
  2 22  1  0
  2 23  1  0
  3  4  1  0
  3 18  1  0
  3 24  1  6
  4  5  1  0
  4 25  1  0
  4 26  1  0
  5  6  1  0
  5 16  1  0
  6  7  1  0
  6 27  1  0
  6 28  1  0
  7  8  2  0
  7 14  1  0
  8  9  1  0
  8 29  1  0
  9 10  1  0
  9 12  2  0
 10 11  1  0
 11 30  1  0
 11 31  1  0
 11 32  1  0
 12 13  1  0
 12 33  1  0
 13 14  2  0
 13 34  1  0
 14 15  1  0
 16 17  1  0
 16 35  1  0
 16 36  1  0
 17 18  1  0
 17 37  1  0
 17 38  1  0
M  END

