
     RDKit          3D

 48 51  0  0  0  0  0  0  0  0999 V2000
    4.2429   -0.2670    0.7656 C   0  0  0  0  0  0  0  0  0  0  0  0
    2.8755    0.1204    0.1762 C   0  0  0  0  0  0  0  0  0  0  0  0
    2.9592    1.0520   -1.0184 C   0  0  0  0  0  0  0  0  0  0  0  0
    2.8073    2.4285   -0.8232 C   0  0  0  0  0  0  0  0  0  0  0  0
    2.9188    3.3682   -1.8636 C   0  0  0  0  0  0  0  0  0  0  0  0
    2.7415    4.8163   -1.5999 C   0  0  0  0  0  0  0  0  0  0  0  0
    3.5700    5.8179   -2.0879 C   0  0  0  0  0  0  0  0  0  0  0  0
    4.8039    5.7101   -2.9360 C   0  0  0  0  0  0  0  0  0  0  0  0
    3.0324    7.4061   -1.5732 S   0  0  0  0  0  0  0  0  0  0  0  0
    1.6946    6.7299   -0.7141 C   0  0  0  0  0  0  0  0  0  0  0  0
    1.6727    5.3653   -0.8043 C   0  0  0  0  0  0  0  0  0  0  0  0
    0.5074    4.8070   -0.0203 C   0  0  0  0  0  0  0  0  0  0  0  0
   -0.3645    6.0702    0.2352 C   0  0  0  0  0  0  0  0  0  0  0  0
    0.5863    7.2985    0.1265 C   0  0  0  0  0  0  0  0  0  0  0  0
    3.1838    2.8696   -3.1500 C   0  0  0  0  0  0  0  0  0  0  0  0
    3.3390    1.5051   -3.3865 C   0  0  0  0  0  0  0  0  0  0  0  0
    3.2333    0.5854   -2.3293 C   0  0  0  0  0  0  0  0  0  0  0  0
    3.3702   -0.8072   -2.5270 N   0  0  0  0  0  0  0  0  0  0  0  0
    3.6786   -1.4883   -3.6761 C   0  0  0  0  0  0  0  0  0  0  0  0
    3.8959   -0.9833   -4.7601 O   0  0  0  0  0  0  0  0  0  0  0  0
    3.7201   -2.9974   -3.5169 C   0  0  0  0  0  0  0  0  0  0  0  0
    3.2012   -3.8343   -4.5176 C   0  0  0  0  0  0  0  0  0  0  0  0
    2.5674   -3.3173   -5.5632 F   0  0  0  0  0  0  0  0  0  0  0  0
    3.3163   -5.2237   -4.4232 C   0  0  0  0  0  0  0  0  0  0  0  0
    3.9227   -5.8196   -3.3987 N   0  0  0  0  0  0  0  0  0  0  0  0
    4.4282   -5.0642   -2.4261 C   0  0  0  0  0  0  0  0  0  0  0  0
    4.3374   -3.6729   -2.4573 C   0  0  0  0  0  0  0  0  0  0  0  0
    4.8551   -2.9724   -1.4330 F   0  0  0  0  0  0  0  0  0  0  0  0
    4.1216   -0.9255    1.6408 H   0  0  0  0  0  0  0  0  0  0  0  0
    4.7938    0.6301    1.0880 H   0  0  0  0  0  0  0  0  0  0  0  0
    4.8714   -0.7952    0.0324 H   0  0  0  0  0  0  0  0  0  0  0  0
    2.2754    0.6133    0.9571 H   0  0  0  0  0  0  0  0  0  0  0  0
    2.3065   -0.7932   -0.0792 H   0  0  0  0  0  0  0  0  0  0  0  0
    2.6084    2.7844    0.1907 H   0  0  0  0  0  0  0  0  0  0  0  0
    5.2684    4.7200   -2.8196 H   0  0  0  0  0  0  0  0  0  0  0  0
    5.5500    6.4697   -2.6534 H   0  0  0  0  0  0  0  0  0  0  0  0
    4.5891    5.8508   -4.0101 H   0  0  0  0  0  0  0  0  0  0  0  0
    0.8473    4.3586    0.9321 H   0  0  0  0  0  0  0  0  0  0  0  0
   -0.0448    4.0174   -0.5553 H   0  0  0  0  0  0  0  0  0  0  0  0
   -0.8972    6.0328    1.1977 H   0  0  0  0  0  0  0  0  0  0  0  0
   -1.1279    6.1427   -0.5561 H   0  0  0  0  0  0  0  0  0  0  0  0
    0.9592    7.6177    1.1180 H   0  0  0  0  0  0  0  0  0  0  0  0
    0.0890    8.1746   -0.3207 H   0  0  0  0  0  0  0  0  0  0  0  0
    3.2447    3.5576   -3.9953 H   0  0  0  0  0  0  0  0  0  0  0  0
    3.5376    1.1368   -4.3896 H   0  0  0  0  0  0  0  0  0  0  0  0
    3.2554   -1.3734   -1.6964 H   0  0  0  0  0  0  0  0  0  0  0  0
    2.8935   -5.8475   -5.2178 H   0  0  0  0  0  0  0  0  0  0  0  0
    4.9283   -5.5533   -1.5834 H   0  0  0  0  0  0  0  0  0  0  0  0
  1  2  1  0
  1 29  1  0
  1 30  1  0
  1 31  1  0
  2  3  1  0
  2 32  1  0
  2 33  1  0
  3  4  2  0
  3 17  1  0
  4  5  1  0
  4 34  1  0
  5  6  1  0
  5 15  2  0
  6  7  2  0
  6 11  1  0
  7  8  1  0
  7  9  1  0
  8 35  1  0
  8 36  1  0
  8 37  1  0
  9 10  1  0
 10 11  2  0
 10 14  1  0
 11 12  1  0
 12 13  1  0
 12 38  1  0
 12 39  1  0
 13 14  1  0
 13 40  1  0
 13 41  1  0
 14 42  1  0
 14 43  1  0
 15 16  1  0
 15 44  1  0
 16 17  2  0
 16 45  1  0
 17 18  1  0
 18 19  1  0
 18 46  1  0
 19 20  2  0
 19 21  1  0
 21 22  2  0
 21 27  1  0
 22 23  1  0
 22 24  1  0
 24 25  2  0
 24 47  1  0
 25 26  1  0
 26 27  2  0
 26 48  1  0
 27 28  1  0
M  END

