
     RDKit          3D

 44 46  0  0  0  0  0  0  0  0999 V2000
    0.6896    0.3697   -2.4123 C   0  0  0  0  0  0  0  0  0  0  0  0
    2.1749    0.1455   -2.7513 C   0  0  1  0  0  0  0  0  0  0  0  0
    3.0456    0.6945   -1.5765 C   0  0  1  0  0  0  0  0  0  0  0  0
    2.7063   -0.2647   -0.0413 Cl  0  0  0  0  0  0  0  0  0  0  0  0
    4.5445    0.7918   -1.7871 C   0  0  0  0  0  0  0  0  0  0  0  0
    5.1028    2.0261   -2.1508 C   0  0  0  0  0  0  0  0  0  0  0  0
    6.4742    2.1605   -2.3898 C   0  0  0  0  0  0  0  0  0  0  0  0
    7.3406    1.0681   -2.2609 C   0  0  0  0  0  0  0  0  0  0  0  0
    8.8282    1.2038   -2.5363 C   0  0  0  0  0  0  0  0  0  0  0  0
    9.7307    0.7831   -1.3884 C   0  0  0  0  0  0  0  0  0  0  0  0
   10.6867   -0.2294   -1.5536 C   0  0  0  0  0  0  0  0  0  0  0  0
   11.5277   -0.6054   -0.5001 C   0  0  0  0  0  0  0  0  0  0  0  0
   11.4237    0.0291    0.7395 C   0  0  0  0  0  0  0  0  0  0  0  0
   10.4729    1.0406    0.9181 C   0  0  0  0  0  0  0  0  0  0  0  0
    9.6352    1.4114   -0.1351 C   0  0  0  0  0  0  0  0  0  0  0  0
    6.7868   -0.1614   -1.8662 C   0  0  0  0  0  0  0  0  0  0  0  0
    5.4199   -0.2976   -1.6304 C   0  0  0  0  0  0  0  0  0  0  0  0
    2.4420   -1.3598   -3.0724 C   0  0  0  0  0  0  0  0  0  0  0  0
    2.4849   -1.4595   -4.6047 C   0  0  0  0  0  0  0  0  0  0  0  0
    3.1788   -0.1545   -5.0113 C   0  0  0  0  0  0  0  0  0  0  0  0
    2.5236    0.8897   -4.0937 C   0  0  0  0  0  0  0  0  0  0  0  0
    0.4153   -0.1201   -1.4672 H   0  0  0  0  0  0  0  0  0  0  0  0
    0.0496   -0.0384   -3.2105 H   0  0  0  0  0  0  0  0  0  0  0  0
    0.4609    1.4451   -2.3207 H   0  0  0  0  0  0  0  0  0  0  0  0
    2.6736    1.7008   -1.3387 H   0  0  0  0  0  0  0  0  0  0  0  0
    4.4590    2.9057   -2.2403 H   0  0  0  0  0  0  0  0  0  0  0  0
    6.8750    3.1378   -2.6740 H   0  0  0  0  0  0  0  0  0  0  0  0
    9.0427    2.2524   -2.8032 H   0  0  0  0  0  0  0  0  0  0  0  0
    9.0869    0.6047   -3.4260 H   0  0  0  0  0  0  0  0  0  0  0  0
   10.7772   -0.7300   -2.5223 H   0  0  0  0  0  0  0  0  0  0  0  0
   12.2656   -1.3977   -0.6511 H   0  0  0  0  0  0  0  0  0  0  0  0
   12.0787   -0.2625    1.5646 H   0  0  0  0  0  0  0  0  0  0  0  0
   10.3834    1.5424    1.8853 H   0  0  0  0  0  0  0  0  0  0  0  0
    8.8903    2.1977    0.0167 H   0  0  0  0  0  0  0  0  0  0  0  0
    7.4419   -1.0254   -1.7244 H   0  0  0  0  0  0  0  0  0  0  0  0
    5.0298   -1.2547   -1.2809 H   0  0  0  0  0  0  0  0  0  0  0  0
    1.6886   -2.0156   -2.6114 H   0  0  0  0  0  0  0  0  0  0  0  0
    3.4171   -1.6696   -2.6714 H   0  0  0  0  0  0  0  0  0  0  0  0
    1.4623   -1.4871   -5.0214 H   0  0  0  0  0  0  0  0  0  0  0  0
    3.0025   -2.3648   -4.9601 H   0  0  0  0  0  0  0  0  0  0  0  0
    3.0725    0.0905   -6.0802 H   0  0  0  0  0  0  0  0  0  0  0  0
    4.2588   -0.2255   -4.7969 H   0  0  0  0  0  0  0  0  0  0  0  0
    1.5871    1.2466   -4.5521 H   0  0  0  0  0  0  0  0  0  0  0  0
    3.1549    1.7771   -3.9463 H   0  0  0  0  0  0  0  0  0  0  0  0
  2  1  1  1
  1 22  1  0
  1 23  1  0
  1 24  1  0
  2  3  1  0
  2 18  1  0
  2 21  1  0
  3  4  1  0
  3  5  1  0
  3 25  1  1
  5  6  2  0
  5 17  1  0
  6  7  1  0
  6 26  1  0
  7  8  2  0
  7 27  1  0
  8  9  1  0
  8 16  1  0
  9 10  1  0
  9 28  1  0
  9 29  1  0
 10 11  2  0
 10 15  1  0
 11 12  1  0
 11 30  1  0
 12 13  2  0
 12 31  1  0
 13 14  1  0
 13 32  1  0
 14 15  2  0
 14 33  1  0
 15 34  1  0
 16 17  2  0
 16 35  1  0
 17 36  1  0
 18 19  1  0
 18 37  1  0
 18 38  1  0
 19 20  1  0
 19 39  1  0
 19 40  1  0
 20 21  1  0
 20 41  1  0
 20 42  1  0
 21 43  1  0
 21 44  1  0
M  END

