
     RDKit          3D

 32 33  0  0  0  0  0  0  0  0999 V2000
    1.1078    1.5340    0.4127 C   0  0  0  0  0  0  0  0  0  0  0  0
    2.3652    0.6811    0.4055 C   0  0  0  0  0  0  0  0  0  0  0  0
    3.2567    1.0262    1.4824 O   0  0  0  0  0  0  0  0  0  0  0  0
    4.0766    2.0701    1.2780 C   0  0  0  0  0  0  0  0  0  0  0  0
    4.0884    2.7608    0.2874 O   0  0  0  0  0  0  0  0  0  0  0  0
    4.8464    2.3133    2.4069 N   0  0  0  0  0  0  0  0  0  0  0  0
    6.0646    2.0249    2.5855 C   0  0  0  0  0  0  0  0  0  0  0  0
    6.6243    2.5293    3.7321 O   0  0  0  0  0  0  0  0  0  0  0  0
    7.9347    2.3922    4.0659 C   0  0  0  0  0  0  0  0  0  0  0  0
    8.3808    2.9874    5.2442 C   0  0  0  0  0  0  0  0  0  0  0  0
    9.7217    2.8722    5.6154 C   0  0  0  0  0  0  0  0  0  0  0  0
   10.6327    2.1562    4.8105 C   0  0  0  0  0  0  0  0  0  0  0  0
   11.9466    1.9966    5.0974 O   0  0  0  0  0  0  0  0  0  0  0  0
   12.4817    2.5808    6.2658 C   0  0  0  0  0  0  0  0  0  0  0  0
   10.1765    1.5571    3.6320 C   0  0  0  0  0  0  0  0  0  0  0  0
    8.8296    1.6681    3.2495 C   0  0  0  0  0  0  0  0  0  0  0  0
    8.2849    1.0597    2.0671 C   0  0  0  0  0  0  0  0  0  0  0  0
    6.9666    1.2085    1.7397 C   0  0  0  0  0  0  0  0  0  0  0  0
    6.4434    0.5299    0.5922 C   0  0  0  0  0  0  0  0  0  0  0  0
    6.0523   -0.0562   -0.3307 N   0  0  0  0  0  0  0  0  0  0  0  0
    0.4163    1.1856   -0.3714 H   0  0  0  0  0  0  0  0  0  0  0  0
    1.3508    2.5876    0.2124 H   0  0  0  0  0  0  0  0  0  0  0  0
    0.5910    1.4655    1.3829 H   0  0  0  0  0  0  0  0  0  0  0  0
    2.9059    0.7749   -0.5479 H   0  0  0  0  0  0  0  0  0  0  0  0
    2.1297   -0.3794    0.5764 H   0  0  0  0  0  0  0  0  0  0  0  0
    7.6707    3.5407    5.8609 H   0  0  0  0  0  0  0  0  0  0  0  0
   10.0512    3.3472    6.5393 H   0  0  0  0  0  0  0  0  0  0  0  0
   13.5494    2.3253    6.2800 H   0  0  0  0  0  0  0  0  0  0  0  0
   12.0071    2.1808    7.1799 H   0  0  0  0  0  0  0  0  0  0  0  0
   12.3778    3.6807    6.2599 H   0  0  0  0  0  0  0  0  0  0  0  0
   10.8847    1.0006    3.0151 H   0  0  0  0  0  0  0  0  0  0  0  0
    8.9349    0.4558    1.4294 H   0  0  0  0  0  0  0  0  0  0  0  0
  1  2  1  0
  1 21  1  0
  1 22  1  0
  1 23  1  0
  2  3  1  0
  2 24  1  0
  2 25  1  0
  3  4  1  0
  4  5  2  0
  4  6  1  0
  6  7  2  0
  7  8  1  0
  7 18  1  0
  8  9  1  0
  9 10  2  0
  9 16  1  0
 10 11  1  0
 10 26  1  0
 11 12  2  0
 11 27  1  0
 12 13  1  0
 12 15  1  0
 13 14  1  0
 14 28  1  0
 14 29  1  0
 14 30  1  0
 15 16  2  0
 15 31  1  0
 16 17  1  0
 17 18  2  0
 17 32  1  0
 18 19  1  0
 19 20  3  0
M  END

