
     RDKit          3D

 96103  0  0  0  0  0  0  0  0999 V2000
    0.0533    0.2184   -0.4286 C   0  0  0  0  0  0  0  0  0  0  0  0
   -0.7913    1.2683   -0.3692 C   0  0  0  0  0  0  0  0  0  0  0  0
   -2.2390    1.1558   -0.1295 C   0  0  0  0  0  0  0  0  0  0  0  0
   -2.7735   -0.0625    0.0448 N   0  0  0  0  0  0  0  0  0  0  0  0
   -4.0958   -0.1406    0.2616 C   0  0  0  0  0  0  0  0  0  0  0  0
   -4.7184   -1.4538    0.4562 C   0  0  0  0  0  0  0  0  0  0  0  0
   -4.0338   -2.6197    0.4333 C   0  0  0  0  0  0  0  0  0  0  0  0
   -4.5597   -3.9691    0.6163 C   0  0  0  0  0  0  0  0  0  0  0  0
   -5.9189   -4.2553    0.8731 C   0  0  0  0  0  0  0  0  0  0  0  0
   -6.3689   -5.5576    1.0433 C   0  0  0  0  0  0  0  0  0  0  0  0
   -5.4781   -6.6498    0.9543 C   0  0  0  0  0  0  0  0  0  0  0  0
   -5.9376   -7.9739    1.1244 N   0  0  0  0  0  0  0  0  0  0  0  0
   -7.2171   -8.3595    0.6371 C   0  0  0  0  0  0  0  0  0  0  0  0
   -7.6461   -7.9644   -0.6429 C   0  0  0  0  0  0  0  0  0  0  0  0
   -8.9043   -8.3439   -1.1133 C   0  0  0  0  0  0  0  0  0  0  0  0
   -9.7479   -9.1360   -0.3277 C   0  0  0  0  0  0  0  0  0  0  0  0
   -9.3208   -9.5395    0.9415 C   0  0  0  0  0  0  0  0  0  0  0  0
   -8.0710   -9.1507    1.4264 C   0  0  0  0  0  0  0  0  0  0  0  0
   -5.1219   -8.9399    1.7771 C   0  0  0  0  0  0  0  0  0  0  0  0
   -4.4469   -8.6200    2.9689 C   0  0  0  0  0  0  0  0  0  0  0  0
   -3.6469   -9.5717    3.6033 C   0  0  0  0  0  0  0  0  0  0  0  0
   -3.5190  -10.8600    3.0736 C   0  0  0  0  0  0  0  0  0  0  0  0
   -4.1965  -11.1849    1.8941 C   0  0  0  0  0  0  0  0  0  0  0  0
   -4.9855  -10.2342    1.2442 C   0  0  0  0  0  0  0  0  0  0  0  0
   -4.1207   -6.3784    0.6955 C   0  0  0  0  0  0  0  0  0  0  0  0
   -3.6795   -5.0685    0.5380 C   0  0  0  0  0  0  0  0  0  0  0  0
   -4.8807    1.0262    0.3021 C   0  0  0  0  0  0  0  0  0  0  0  0
   -4.2423    2.2616    0.1097 C   0  0  0  0  0  0  0  0  0  0  0  0
   -5.0090    3.5102    0.1407 C   0  0  0  0  0  0  0  0  0  0  0  0
   -4.4523    4.7294   -0.0418 C   0  0  0  0  0  0  0  0  0  0  0  0
   -5.1189    6.0277   -0.0335 C   0  0  0  0  0  0  0  0  0  0  0  0
   -6.5074    6.1981    0.1624 C   0  0  0  0  0  0  0  0  0  0  0  0
   -7.0943    7.4562    0.1563 C   0  0  0  0  0  0  0  0  0  0  0  0
   -6.3155    8.6182   -0.0369 C   0  0  0  0  0  0  0  0  0  0  0  0
   -6.9130    9.8976   -0.0404 N   0  0  0  0  0  0  0  0  0  0  0  0
   -7.9936   10.1891    0.8373 C   0  0  0  0  0  0  0  0  0  0  0  0
   -7.9529    9.7845    2.1839 C   0  0  0  0  0  0  0  0  0  0  0  0
   -9.0183   10.0712    3.0390 C   0  0  0  0  0  0  0  0  0  0  0  0
  -10.1318   10.7791    2.5750 C   0  0  0  0  0  0  0  0  0  0  0  0
  -10.1715   11.1920    1.2393 C   0  0  0  0  0  0  0  0  0  0  0  0
   -9.1180   10.8951    0.3731 C   0  0  0  0  0  0  0  0  0  0  0  0
   -6.4350   10.9116   -0.9165 C   0  0  0  0  0  0  0  0  0  0  0  0
   -6.1553   10.6207   -2.2640 C   0  0  0  0  0  0  0  0  0  0  0  0
   -5.6845   11.6194   -3.1179 C   0  0  0  0  0  0  0  0  0  0  0  0
   -5.5010   12.9253   -2.6515 C   0  0  0  0  0  0  0  0  0  0  0  0
   -5.7873   13.2207   -1.3149 C   0  0  0  0  0  0  0  0  0  0  0  0
   -6.2428   12.2243   -0.4498 C   0  0  0  0  0  0  0  0  0  0  0  0
   -4.9292    8.4627   -0.2295 C   0  0  0  0  0  0  0  0  0  0  0  0
   -4.3539    7.1960   -0.2325 C   0  0  0  0  0  0  0  0  0  0  0  0
   -2.9155    2.3139   -0.1062 N   0  0  0  0  0  0  0  0  0  0  0  0
    1.5003    0.2553   -0.6627 C   0  0  0  0  0  0  0  0  0  0  0  0
    2.2221    1.4513   -0.8656 C   0  0  0  0  0  0  0  0  0  0  0  0
    3.5978    1.4289   -1.0839 C   0  0  0  0  0  0  0  0  0  0  0  0
    4.2930    0.2127   -1.1062 C   0  0  0  0  0  0  0  0  0  0  0  0
    3.5956   -0.9818   -0.9074 C   0  0  0  0  0  0  0  0  0  0  0  0
    2.2171   -0.9584   -0.6887 C   0  0  0  0  0  0  0  0  0  0  0  0
   -0.3852   -0.7743   -0.2868 H   0  0  0  0  0  0  0  0  0  0  0  0
   -0.4463    2.2966   -0.4987 H   0  0  0  0  0  0  0  0  0  0  0  0
   -5.7991   -1.4417    0.6249 H   0  0  0  0  0  0  0  0  0  0  0  0
   -2.9564   -2.5440    0.2556 H   0  0  0  0  0  0  0  0  0  0  0  0
   -6.6401   -3.4395    0.9580 H   0  0  0  0  0  0  0  0  0  0  0  0
   -7.4233   -5.7422    1.2550 H   0  0  0  0  0  0  0  0  0  0  0  0
   -6.9862   -7.3588   -1.2671 H   0  0  0  0  0  0  0  0  0  0  0  0
   -9.2213   -8.0281   -2.1107 H   0  0  0  0  0  0  0  0  0  0  0  0
  -10.7293   -9.4369   -0.7018 H   0  0  0  0  0  0  0  0  0  0  0  0
   -9.9718  -10.1542    1.5687 H   0  0  0  0  0  0  0  0  0  0  0  0
   -7.7479   -9.4585    2.4227 H   0  0  0  0  0  0  0  0  0  0  0  0
   -4.5540   -7.6206    3.3949 H   0  0  0  0  0  0  0  0  0  0  0  0
   -3.1296   -9.3061    4.5290 H   0  0  0  0  0  0  0  0  0  0  0  0
   -2.8973  -11.6045    3.5763 H   0  0  0  0  0  0  0  0  0  0  0  0
   -4.1013  -12.1861    1.4657 H   0  0  0  0  0  0  0  0  0  0  0  0
   -5.5024  -10.4896    0.3173 H   0  0  0  0  0  0  0  0  0  0  0  0
   -3.4117   -7.2039    0.6144 H   0  0  0  0  0  0  0  0  0  0  0  0
   -2.6212   -4.8852    0.3328 H   0  0  0  0  0  0  0  0  0  0  0  0
   -5.9570    0.9716    0.4781 H   0  0  0  0  0  0  0  0  0  0  0  0
   -6.0821    3.4025    0.3238 H   0  0  0  0  0  0  0  0  0  0  0  0
   -3.3717    4.7425   -0.2168 H   0  0  0  0  0  0  0  0  0  0  0  0
   -7.1475    5.3250    0.3073 H   0  0  0  0  0  0  0  0  0  0  0  0
   -8.1724    7.5511    0.2962 H   0  0  0  0  0  0  0  0  0  0  0  0
   -7.0800    9.2449    2.5562 H   0  0  0  0  0  0  0  0  0  0  0  0
   -8.9696    9.7495    4.0826 H   0  0  0  0  0  0  0  0  0  0  0  0
  -10.9609   11.0078    3.2487 H   0  0  0  0  0  0  0  0  0  0  0  0
  -11.0378   11.7414    0.8613 H   0  0  0  0  0  0  0  0  0  0  0  0
   -9.1601   11.2095   -0.6714 H   0  0  0  0  0  0  0  0  0  0  0  0
   -6.3100    9.6066   -2.6374 H   0  0  0  0  0  0  0  0  0  0  0  0
   -5.4724   11.3757   -4.1622 H   0  0  0  0  0  0  0  0  0  0  0  0
   -5.1386   13.7061   -3.3243 H   0  0  0  0  0  0  0  0  0  0  0  0
   -5.6432   14.2357   -0.9352 H   0  0  0  0  0  0  0  0  0  0  0  0
   -6.4531   12.4579    0.5956 H   0  0  0  0  0  0  0  0  0  0  0  0
   -4.3026    9.3442   -0.3734 H   0  0  0  0  0  0  0  0  0  0  0  0
   -3.2744    7.1024   -0.3793 H   0  0  0  0  0  0  0  0  0  0  0  0
    1.6984    2.4094   -0.8520 H   0  0  0  0  0  0  0  0  0  0  0  0
    4.1361    2.3678   -1.2386 H   0  0  0  0  0  0  0  0  0  0  0  0
    5.3723    0.1994   -1.2778 H   0  0  0  0  0  0  0  0  0  0  0  0
    4.1275   -1.9367   -0.9227 H   0  0  0  0  0  0  0  0  0  0  0  0
    1.6757   -1.8958   -0.5337 H   0  0  0  0  0  0  0  0  0  0  0  0
  1  2  2  0
  1 51  1  0
  1 57  1  0
  2  3  1  0
  2 58  1  0
  3  4  2  0
  3 50  1  0
  4  5  1  0
  5  6  1  0
  5 27  2  0
  6  7  2  0
  6 59  1  0
  7  8  1  0
  7 60  1  0
  8  9  2  0
  8 26  1  0
  9 10  1  0
  9 61  1  0
 10 11  2  0
 10 62  1  0
 11 12  1  0
 11 25  1  0
 12 13  1  0
 12 19  1  0
 13 14  2  0
 13 18  1  0
 14 15  1  0
 14 63  1  0
 15 16  2  0
 15 64  1  0
 16 17  1  0
 16 65  1  0
 17 18  2  0
 17 66  1  0
 18 67  1  0
 19 20  2  0
 19 24  1  0
 20 21  1  0
 20 68  1  0
 21 22  2  0
 21 69  1  0
 22 23  1  0
 22 70  1  0
 23 24  2  0
 23 71  1  0
 24 72  1  0
 25 26  2  0
 25 73  1  0
 26 74  1  0
 27 28  1  0
 27 75  1  0
 28 29  1  0
 28 50  2  0
 29 30  2  0
 29 76  1  0
 30 31  1  0
 30 77  1  0
 31 32  2  0
 31 49  1  0
 32 33  1  0
 32 78  1  0
 33 34  2  0
 33 79  1  0
 34 35  1  0
 34 48  1  0
 35 36  1  0
 35 42  1  0
 36 37  2  0
 36 41  1  0
 37 38  1  0
 37 80  1  0
 38 39  2  0
 38 81  1  0
 39 40  1  0
 39 82  1  0
 40 41  2  0
 40 83  1  0
 41 84  1  0
 42 43  2  0
 42 47  1  0
 43 44  1  0
 43 85  1  0
 44 45  2  0
 44 86  1  0
 45 46  1  0
 45 87  1  0
 46 47  2  0
 46 88  1  0
 47 89  1  0
 48 49  2  0
 48 90  1  0
 49 91  1  0
 51 52  2  0
 51 56  1  0
 52 53  1  0
 52 92  1  0
 53 54  2  0
 53 93  1  0
 54 55  1  0
 54 94  1  0
 55 56  2  0
 55 95  1  0
 56 96  1  0
M  END

