
     RDKit          3D

 32 34  0  0  0  0  0  0  0  0999 V2000
    1.1170   -0.0266    0.0783 C   0  0  0  0  0  0  0  0  0  0  0  0
    2.5577   -0.1167   -0.0114 N   0  0  0  0  0  0  0  0  0  0  0  0
    3.3266    0.9950   -0.0705 N   0  0  0  0  0  0  0  0  0  0  0  0
    4.5834    0.5931   -0.1501 C   0  0  0  0  0  0  0  0  0  0  0  0
    4.6593   -0.8314   -0.1447 C   0  0  0  0  0  0  0  0  0  0  0  0
    5.6137   -1.8859   -0.1943 C   0  0  0  0  0  0  0  0  0  0  0  0
    6.9477   -1.6717   -0.2766 N   0  0  0  0  0  0  0  0  0  0  0  0
    5.1891   -3.1524   -0.1461 N   0  0  0  0  0  0  0  0  0  0  0  0
    3.8706   -3.4042   -0.0702 C   0  0  0  0  0  0  0  0  0  0  0  0
    3.4798   -4.8642   -0.0275 C   0  0  0  0  0  0  0  0  0  0  0  0
    3.8782   -5.4740   -1.2459 O   0  0  0  0  0  0  0  0  0  0  0  0
    3.6897   -6.8008   -1.4170 C   0  0  0  0  0  0  0  0  0  0  0  0
    3.0732   -7.6494   -0.4821 C   0  0  0  0  0  0  0  0  0  0  0  0
    2.9309   -9.0114   -0.7686 C   0  0  0  0  0  0  0  0  0  0  0  0
    3.3901   -9.5448   -1.9719 C   0  0  0  0  0  0  0  0  0  0  0  0
    3.2012  -11.3913   -2.3708 Br  0  0  0  0  0  0  0  0  0  0  0  0
    4.0013   -8.6864   -2.8973 C   0  0  0  0  0  0  0  0  0  0  0  0
    4.4500   -9.1708   -4.0573 F   0  0  0  0  0  0  0  0  0  0  0  0
    4.1536   -7.3333   -2.6329 C   0  0  0  0  0  0  0  0  0  0  0  0
    2.8810   -2.5186   -0.0177 N   0  0  0  0  0  0  0  0  0  0  0  0
    3.3136   -1.2498   -0.0521 C   0  0  0  0  0  0  0  0  0  0  0  0
    0.7115    0.5070   -0.7946 H   0  0  0  0  0  0  0  0  0  0  0  0
    0.8220    0.5100    0.9928 H   0  0  0  0  0  0  0  0  0  0  0  0
    0.7189   -1.0491    0.1043 H   0  0  0  0  0  0  0  0  0  0  0  0
    5.3816    1.3336   -0.2075 H   0  0  0  0  0  0  0  0  0  0  0  0
    7.3340   -0.7429   -0.3544 H   0  0  0  0  0  0  0  0  0  0  0  0
    7.5579   -2.4767   -0.3399 H   0  0  0  0  0  0  0  0  0  0  0  0
    2.3891   -4.9362    0.1113 H   0  0  0  0  0  0  0  0  0  0  0  0
    3.9897   -5.3527    0.8232 H   0  0  0  0  0  0  0  0  0  0  0  0
    2.6975   -7.2672    0.4661 H   0  0  0  0  0  0  0  0  0  0  0  0
    2.4518   -9.6705   -0.0424 H   0  0  0  0  0  0  0  0  0  0  0  0
    4.6337   -6.6841   -3.3659 H   0  0  0  0  0  0  0  0  0  0  0  0
  1  2  1  0
  1 22  1  0
  1 23  1  0
  1 24  1  0
  2  3  1  0
  2 21  1  0
  3  4  2  0
  4  5  1  0
  4 25  1  0
  5  6  1  0
  5 21  2  0
  6  7  1  0
  6  8  2  0
  7 26  1  0
  7 27  1  0
  8  9  1  0
  9 10  1  0
  9 20  2  0
 10 11  1  0
 10 28  1  0
 10 29  1  0
 11 12  1  0
 12 13  2  0
 12 19  1  0
 13 14  1  0
 13 30  1  0
 14 15  2  0
 14 31  1  0
 15 16  1  0
 15 17  1  0
 17 18  1  0
 17 19  2  0
 19 32  1  0
 20 21  1  0
M  END

