
     RDKit          3D

 46 47  0  0  0  0  0  0  0  0999 V2000
   -2.7781    4.2050    0.6343 C   0  0  0  0  0  0  0  0  0  0  0  0
   -1.4092    3.5235    0.6221 C   0  0  0  0  0  0  0  0  0  0  0  0
   -0.3353    4.4172    0.1955 N   0  0  0  0  0  0  0  0  0  0  0  0
    0.0945    5.4083    1.1823 C   0  0  0  0  0  0  0  0  0  0  0  0
    1.0894    4.8395    2.2137 C   0  0  0  0  0  0  0  0  0  0  0  0
    2.2433    4.1897    1.5877 N   0  0  0  0  0  0  0  0  0  0  0  0
    3.3238    5.0795    1.1942 C   0  0  0  0  0  0  0  0  0  0  0  0
    4.3094    5.3691    2.3598 C   0  0  1  0  0  0  0  0  0  0  0  0
    4.9685    4.0844    2.8819 C   0  0  0  0  0  0  0  0  0  0  0  0
    5.3443    6.3661    1.9043 C   0  0  0  0  0  0  0  0  0  0  0  0
    6.1806    6.1626    0.9292 N   0  0  0  0  0  0  0  0  0  0  0  0
    7.0132    7.2357    0.7096 C   0  0  0  0  0  0  0  0  0  0  0  0
    8.0198    7.1437   -0.4015 C   0  0  0  0  0  0  0  0  0  0  0  0
    6.8108    8.3174    1.5483 C   0  0  0  0  0  0  0  0  0  0  0  0
    7.5366    9.6294    1.6044 C   0  0  0  0  0  0  0  0  0  0  0  0
    8.7484    9.7028    2.5540 C   0  0  0  0  0  0  0  0  0  0  0  0
    9.2126   10.7451    2.9229 O   0  0  0  0  0  0  0  0  0  0  0  0
    9.2880    8.5229    2.9063 O   0  0  0  0  0  0  0  0  0  0  0  0
    5.5118    7.9408    2.6556 S   0  0  0  0  0  0  0  0  0  0  0  0
    1.8144    3.1990    0.5995 C   0  0  0  0  0  0  0  0  0  0  0  0
    0.8222    3.7763   -0.4258 C   0  0  0  0  0  0  0  0  0  0  0  0
   -3.5667    3.4824    0.9003 H   0  0  0  0  0  0  0  0  0  0  0  0
   -3.0058    4.6277   -0.3565 H   0  0  0  0  0  0  0  0  0  0  0  0
   -2.8267    5.0249    1.3688 H   0  0  0  0  0  0  0  0  0  0  0  0
   -1.4415    2.6874   -0.0959 H   0  0  0  0  0  0  0  0  0  0  0  0
   -1.2279    3.0560    1.6160 H   0  0  0  0  0  0  0  0  0  0  0  0
   -0.7855    5.8290    1.6940 H   0  0  0  0  0  0  0  0  0  0  0  0
    0.5692    6.2487    0.6423 H   0  0  0  0  0  0  0  0  0  0  0  0
    0.5762    4.0970    2.8519 H   0  0  0  0  0  0  0  0  0  0  0  0
    1.4374    5.6378    2.8897 H   0  0  0  0  0  0  0  0  0  0  0  0
    2.9675    6.0506    0.7919 H   0  0  0  0  0  0  0  0  0  0  0  0
    3.9026    4.6107    0.3833 H   0  0  0  0  0  0  0  0  0  0  0  0
    3.7373    5.8311    3.1822 H   0  0  0  0  0  0  0  0  0  0  0  0
    5.6240    3.6516    2.1103 H   0  0  0  0  0  0  0  0  0  0  0  0
    4.1891    3.3519    3.1359 H   0  0  0  0  0  0  0  0  0  0  0  0
    5.5786    4.2824    3.7768 H   0  0  0  0  0  0  0  0  0  0  0  0
    8.6226    6.2281   -0.2946 H   0  0  0  0  0  0  0  0  0  0  0  0
    8.7008    8.0050   -0.4275 H   0  0  0  0  0  0  0  0  0  0  0  0
    7.5085    7.0751   -1.3759 H   0  0  0  0  0  0  0  0  0  0  0  0
    6.8716   10.4583    1.8861 H   0  0  0  0  0  0  0  0  0  0  0  0
    7.9241    9.8855    0.6042 H   0  0  0  0  0  0  0  0  0  0  0  0
    8.7395    7.8014    2.5526 H   0  0  0  0  0  0  0  0  0  0  0  0
    1.3352    2.3595    1.1377 H   0  0  0  0  0  0  0  0  0  0  0  0
    2.7015    2.7843    0.0940 H   0  0  0  0  0  0  0  0  0  0  0  0
    0.4744    2.9887   -1.1150 H   0  0  0  0  0  0  0  0  0  0  0  0
    1.3445    4.5317   -1.0436 H   0  0  0  0  0  0  0  0  0  0  0  0
  1  2  1  0
  1 22  1  0
  1 23  1  0
  1 24  1  0
  2  3  1  0
  2 25  1  0
  2 26  1  0
  3  4  1  0
  3 21  1  0
  4  5  1  0
  4 27  1  0
  4 28  1  0
  5  6  1  0
  5 29  1  0
  5 30  1  0
  6  7  1  0
  6 20  1  0
  7  8  1  0
  7 31  1  0
  7 32  1  0
  8  9  1  0
  8 10  1  0
  8 33  1  1
  9 34  1  0
  9 35  1  0
  9 36  1  0
 10 11  2  0
 10 19  1  0
 11 12  1  0
 12 13  1  0
 12 14  2  0
 13 37  1  0
 13 38  1  0
 13 39  1  0
 14 15  1  0
 14 19  1  0
 15 16  1  0
 15 40  1  0
 15 41  1  0
 16 17  2  0
 16 18  1  0
 18 42  1  0
 20 21  1  0
 20 43  1  0
 20 44  1  0
 21 45  1  0
 21 46  1  0
M  END

