
     RDKit          3D

 42 44  0  0  0  0  0  0  0  0999 V2000
    1.4584   -0.7633    1.7849 O   0  0  0  0  0  0  0  0  0  0  0  0
    1.9172    0.3432    1.7296 C   0  0  0  0  0  0  0  0  0  0  0  0
    1.2042    1.4209    1.3873 O   0  0  0  0  0  0  0  0  0  0  0  0
    3.3885    0.6147    2.0551 C   0  0  0  0  0  0  0  0  0  0  0  0
    3.6515    1.9959    1.9033 O   0  0  0  0  0  0  0  0  0  0  0  0
    4.9044    2.4933    2.1429 C   0  0  0  0  0  0  0  0  0  0  0  0
    5.9946    1.7121    2.5411 C   0  0  0  0  0  0  0  0  0  0  0  0
    7.2435    2.3005    2.7661 C   0  0  0  0  0  0  0  0  0  0  0  0
    7.4145    3.6825    2.5938 C   0  0  0  0  0  0  0  0  0  0  0  0
    8.6398    4.3415    2.8022 N   0  0  0  0  0  0  0  0  0  0  0  0
    9.8355    3.8120    3.1876 C   0  0  0  0  0  0  0  0  0  0  0  0
   10.0779    2.6417    3.4309 O   0  0  0  0  0  0  0  0  0  0  0  0
   10.9069    4.8562    3.2972 C   0  0  0  0  0  0  0  0  0  0  0  0
   10.7274    6.1305    3.0545 N   0  0  0  0  0  0  0  0  0  0  0  0
   11.8467    6.8557    3.2260 N   0  0  0  0  0  0  0  0  0  0  0  0
   12.8687    6.1268    3.5982 C   0  0  0  0  0  0  0  0  0  0  0  0
   14.2419    6.6666    3.8633 C   0  0  0  0  0  0  0  0  0  0  0  0
   15.1497    5.9294    4.2082 O   0  0  0  0  0  0  0  0  0  0  0  0
   14.3114    8.0149    3.6722 N   0  0  0  0  0  0  0  0  0  0  0  0
   15.4259    8.8508    3.8262 C   0  0  0  0  0  0  0  0  0  0  0  0
   16.7064    8.4243    4.2176 C   0  0  0  0  0  0  0  0  0  0  0  0
   17.7506    9.3442    4.3407 C   0  0  0  0  0  0  0  0  0  0  0  0
   17.5193   10.6907    4.0738 C   0  0  0  0  0  0  0  0  0  0  0  0
   18.5200   11.5714    4.1920 F   0  0  0  0  0  0  0  0  0  0  0  0
   16.2619   11.1512    3.6831 C   0  0  0  0  0  0  0  0  0  0  0  0
   15.2402   10.2211    3.5673 C   0  0  0  0  0  0  0  0  0  0  0  0
   14.0128   10.6269    3.1927 F   0  0  0  0  0  0  0  0  0  0  0  0
   12.5215    4.4355    3.7721 S   0  0  0  0  0  0  0  0  0  0  0  0
    6.3111    4.4602    2.1923 C   0  0  0  0  0  0  0  0  0  0  0  0
    5.0714    3.8755    1.9691 C   0  0  0  0  0  0  0  0  0  0  0  0
    1.7966    2.1946    1.4150 H   0  0  0  0  0  0  0  0  0  0  0  0
    4.0072    0.0021    1.3757 H   0  0  0  0  0  0  0  0  0  0  0  0
    3.5781    0.2723    3.0879 H   0  0  0  0  0  0  0  0  0  0  0  0
    5.8939    0.6360    2.6834 H   0  0  0  0  0  0  0  0  0  0  0  0
    8.0895    1.6909    3.0756 H   0  0  0  0  0  0  0  0  0  0  0  0
    8.6548    5.3482    2.6500 H   0  0  0  0  0  0  0  0  0  0  0  0
   13.4435    8.4631    3.3824 H   0  0  0  0  0  0  0  0  0  0  0  0
   16.8669    7.3679    4.4217 H   0  0  0  0  0  0  0  0  0  0  0  0
   18.7481    9.0222    4.6440 H   0  0  0  0  0  0  0  0  0  0  0  0
   16.0811   12.2059    3.4742 H   0  0  0  0  0  0  0  0  0  0  0  0
    6.4289    5.5385    2.0535 H   0  0  0  0  0  0  0  0  0  0  0  0
    4.2174    4.4801    1.6579 H   0  0  0  0  0  0  0  0  0  0  0  0
  1  2  2  0
  2  3  1  0
  2  4  1  0
  3 31  1  0
  4  5  1  0
  4 32  1  0
  4 33  1  0
  5  6  1  0
  6  7  2  0
  6 30  1  0
  7  8  1  0
  7 34  1  0
  8  9  2  0
  8 35  1  0
  9 10  1  0
  9 29  1  0
 10 11  1  0
 10 36  1  0
 11 12  2  0
 11 13  1  0
 13 14  2  0
 13 28  1  0
 14 15  1  0
 15 16  2  0
 16 17  1  0
 16 28  1  0
 17 18  2  0
 17 19  1  0
 19 20  1  0
 19 37  1  0
 20 21  2  0
 20 26  1  0
 21 22  1  0
 21 38  1  0
 22 23  2  0
 22 39  1  0
 23 24  1  0
 23 25  1  0
 25 26  2  0
 25 40  1  0
 26 27  1  0
 29 30  2  0
 29 41  1  0
 30 42  1  0
M  END

