
     RDKit          3D

 65 69  0  0  0  0  0  0  0  0999 V2000
    0.8401   -0.1374   -0.9759 C   0  0  0  0  0  0  0  0  0  0  0  0
    2.0317    0.5120   -0.2907 C   0  0  0  0  0  0  0  0  0  0  0  0
    2.9926    1.0034   -1.2383 O   0  0  0  0  0  0  0  0  0  0  0  0
    3.9269    0.1286   -1.6949 C   0  0  0  0  0  0  0  0  0  0  0  0
    3.9567   -1.0272   -1.3346 O   0  0  0  0  0  0  0  0  0  0  0  0
    4.8216    0.7869   -2.6779 C   0  0  0  0  0  0  0  0  0  0  0  0
    5.8474    0.1462   -3.3420 C   0  0  0  0  0  0  0  0  0  0  0  0
    6.4289   -1.1821   -3.0063 C   0  0  0  0  0  0  0  0  0  0  0  0
    6.7786   -2.0585   -4.0495 C   0  0  0  0  0  0  0  0  0  0  0  0
    7.3776   -3.2889   -3.7762 C   0  0  0  0  0  0  0  0  0  0  0  0
    7.6695   -3.6476   -2.4569 C   0  0  0  0  0  0  0  0  0  0  0  0
    7.3557   -2.7691   -1.4145 C   0  0  0  0  0  0  0  0  0  0  0  0
    6.7349   -1.5501   -1.6850 C   0  0  0  0  0  0  0  0  0  0  0  0
    6.4502    0.7147   -4.4684 N   0  0  0  0  0  0  0  0  0  0  0  0
    5.9706    1.8095   -4.9301 C   0  0  0  0  0  0  0  0  0  0  0  0
    6.4873    2.5025   -6.4773 S   0  0  0  0  0  0  0  0  0  0  0  0
    5.2793    3.7933   -6.3461 C   0  0  0  0  0  0  0  0  0  0  0  0
    4.9963    4.8064   -7.2031 C   0  0  0  0  0  0  0  0  0  0  0  0
    5.5647    5.1842   -8.4869 C   0  0  0  0  0  0  0  0  0  0  0  0
    5.0286    6.3286   -9.1152 C   0  0  0  0  0  0  0  0  0  0  0  0
    5.5244    6.7675  -10.3480 C   0  0  0  0  0  0  0  0  0  0  0  0
    5.0792    7.8595  -11.0105 O   0  0  0  0  0  0  0  0  0  0  0  0
    4.0207    8.6135  -10.4633 C   0  0  0  0  0  0  0  0  0  0  0  0
    6.5598    6.0495  -10.9872 C   0  0  0  0  0  0  0  0  0  0  0  0
    6.9804    6.4426  -12.2147 O   0  0  0  0  0  0  0  0  0  0  0  0
    8.2426    7.0921  -12.2864 C   0  0  0  0  0  0  0  0  0  0  0  0
    7.1019    4.9061  -10.3564 C   0  0  0  0  0  0  0  0  0  0  0  0
    8.0954    4.2857  -11.0377 O   0  0  0  0  0  0  0  0  0  0  0  0
    8.6652    3.1068  -10.5091 C   0  0  0  0  0  0  0  0  0  0  0  0
    6.6071    4.4768   -9.1206 C   0  0  0  0  0  0  0  0  0  0  0  0
    4.5110    3.6606   -5.0730 C   0  0  0  0  0  0  0  0  0  0  0  0
    3.6133    4.3807   -4.6899 O   0  0  0  0  0  0  0  0  0  0  0  0
    4.9832    2.5603   -4.3518 N   0  0  0  0  0  0  0  0  0  0  0  0
    4.5396    2.2590   -2.9740 C   0  0  2  0  0  0  0  0  0  0  0  0
    5.1765    3.2018   -1.9728 C   0  0  0  0  0  0  0  0  0  0  0  0
    4.7229    4.4412   -1.5834 C   0  0  0  0  0  0  0  0  0  0  0  0
    5.5906    5.0881   -0.6542 C   0  0  0  0  0  0  0  0  0  0  0  0
    6.6944    4.3307   -0.3489 C   0  0  0  0  0  0  0  0  0  0  0  0
    6.6879    2.8198   -1.1863 S   0  0  0  0  0  0  0  0  0  0  0  0
    0.0913   -0.4338   -0.2236 H   0  0  0  0  0  0  0  0  0  0  0  0
    1.1503   -1.0393   -1.5236 H   0  0  0  0  0  0  0  0  0  0  0  0
    0.3610    0.5603   -1.6807 H   0  0  0  0  0  0  0  0  0  0  0  0
    2.5292   -0.1999    0.3843 H   0  0  0  0  0  0  0  0  0  0  0  0
    1.7272    1.4001    0.2825 H   0  0  0  0  0  0  0  0  0  0  0  0
    6.5762   -1.7610   -5.0796 H   0  0  0  0  0  0  0  0  0  0  0  0
    7.6269   -3.9659   -4.5974 H   0  0  0  0  0  0  0  0  0  0  0  0
    8.1489   -4.6062   -2.2412 H   0  0  0  0  0  0  0  0  0  0  0  0
    7.5957   -3.0357   -0.3821 H   0  0  0  0  0  0  0  0  0  0  0  0
    6.4987   -0.8708   -0.8660 H   0  0  0  0  0  0  0  0  0  0  0  0
    4.1859    5.4471   -6.8383 H   0  0  0  0  0  0  0  0  0  0  0  0
    4.2271    6.8723   -8.6167 H   0  0  0  0  0  0  0  0  0  0  0  0
    3.8234    9.4308  -11.1696 H   0  0  0  0  0  0  0  0  0  0  0  0
    4.2862    9.0459   -9.4815 H   0  0  0  0  0  0  0  0  0  0  0  0
    3.1022    8.0100  -10.3495 H   0  0  0  0  0  0  0  0  0  0  0  0
    8.4039    7.3512  -13.3420 H   0  0  0  0  0  0  0  0  0  0  0  0
    9.0576    6.4318  -11.9478 H   0  0  0  0  0  0  0  0  0  0  0  0
    8.2469    8.0191  -11.6861 H   0  0  0  0  0  0  0  0  0  0  0  0
    9.4245    2.7779  -11.2306 H   0  0  0  0  0  0  0  0  0  0  0  0
    7.9127    2.3073  -10.3909 H   0  0  0  0  0  0  0  0  0  0  0  0
    9.1511    3.2862   -9.5334 H   0  0  0  0  0  0  0  0  0  0  0  0
    7.0311    3.5901   -8.6574 H   0  0  0  0  0  0  0  0  0  0  0  0
    3.4615    2.4562   -2.9522 H   0  0  0  0  0  0  0  0  0  0  0  0
    3.8003    4.8728   -1.9732 H   0  0  0  0  0  0  0  0  0  0  0  0
    5.4011    6.0738   -0.2258 H   0  0  0  0  0  0  0  0  0  0  0  0
    7.5090    4.5718    0.3329 H   0  0  0  0  0  0  0  0  0  0  0  0
  1  2  1  0
  1 40  1  0
  1 41  1  0
  1 42  1  0
  2  3  1  0
  2 43  1  0
  2 44  1  0
  3  4  1  0
  4  5  2  0
  4  6  1  0
  6  7  2  0
  6 34  1  0
  7  8  1  0
  7 14  1  0
  8  9  2  0
  8 13  1  0
  9 10  1  0
  9 45  1  0
 10 11  2  0
 10 46  1  0
 11 12  1  0
 11 47  1  0
 12 13  2  0
 12 48  1  0
 13 49  1  0
 14 15  2  0
 15 16  1  0
 15 33  1  0
 16 17  1  0
 17 18  2  0
 17 31  1  0
 18 19  1  0
 18 50  1  0
 19 20  2  0
 19 30  1  0
 20 21  1  0
 20 51  1  0
 21 22  1  0
 21 24  2  0
 22 23  1  0
 23 52  1  0
 23 53  1  0
 23 54  1  0
 24 25  1  0
 24 27  1  0
 25 26  1  0
 26 55  1  0
 26 56  1  0
 26 57  1  0
 27 28  1  0
 27 30  2  0
 28 29  1  0
 29 58  1  0
 29 59  1  0
 29 60  1  0
 30 61  1  0
 31 32  2  0
 31 33  1  0
 33 34  1  0
 34 35  1  0
 34 62  1  6
 35 36  2  0
 35 39  1  0
 36 37  1  0
 36 63  1  0
 37 38  2  0
 37 64  1  0
 38 39  1  0
 38 65  1  0
M  END

