
     RDKit          3D

 42 44  0  0  0  0  0  0  0  0999 V2000
    9.8870    3.2351   -6.5558 C   0  0  0  0  0  0  0  0  0  0  0  0
    8.5694    2.7446   -6.4716 O   0  0  0  0  0  0  0  0  0  0  0  0
    8.1096    2.2742   -5.2825 C   0  0  0  0  0  0  0  0  0  0  0  0
    8.8611    2.2398   -4.0991 C   0  0  0  0  0  0  0  0  0  0  0  0
    8.2706    1.7351   -2.9335 C   0  0  0  0  0  0  0  0  0  0  0  0
    6.9574    1.2704   -2.9352 C   0  0  0  0  0  0  0  0  0  0  0  0
    6.1963    1.2985   -4.1204 C   0  0  0  0  0  0  0  0  0  0  0  0
    4.7825    0.7621   -4.1312 C   0  0  0  0  0  0  0  0  0  0  0  0
    4.6728   -0.7912   -4.2001 C   0  0  1  0  0  0  0  0  0  0  0  0
    3.3093   -1.2885   -3.9974 N   0  0  0  0  0  0  0  0  0  0  0  0
    5.2400   -1.3703   -5.4882 C   0  0  0  0  0  0  0  0  0  0  0  0
    4.7339   -0.9986   -6.7429 C   0  0  0  0  0  0  0  0  0  0  0  0
    5.2309   -1.5611   -7.9187 C   0  0  0  0  0  0  0  0  0  0  0  0
    6.2673   -2.5024   -7.8641 C   0  0  0  0  0  0  0  0  0  0  0  0
    6.8067   -2.8800   -6.6185 C   0  0  0  0  0  0  0  0  0  0  0  0
    6.2757   -2.3146   -5.4568 C   0  0  0  0  0  0  0  0  0  0  0  0
    7.9687   -3.8457   -6.6195 C   0  0  0  0  0  0  0  0  0  0  0  0
    7.8389   -4.8648   -7.7570 C   0  0  0  0  0  0  0  0  0  0  0  0
    7.5655   -4.2121   -9.1045 C   0  0  0  0  0  0  0  0  0  0  0  0
    7.9529   -4.6558  -10.1672 O   0  0  0  0  0  0  0  0  0  0  0  0
    6.7901   -3.0709   -9.0362 N   0  0  0  0  0  0  0  0  0  0  0  0
    6.7854    1.8017   -5.2822 C   0  0  0  0  0  0  0  0  0  0  0  0
   10.0374    3.5547   -7.5960 H   0  0  0  0  0  0  0  0  0  0  0  0
   10.6338    2.4579   -6.3106 H   0  0  0  0  0  0  0  0  0  0  0  0
   10.0487    4.1023   -5.8897 H   0  0  0  0  0  0  0  0  0  0  0  0
    9.8889    2.6014   -4.0702 H   0  0  0  0  0  0  0  0  0  0  0  0
    8.8537    1.7143   -2.0088 H   0  0  0  0  0  0  0  0  0  0  0  0
    6.5122    0.8913   -2.0111 H   0  0  0  0  0  0  0  0  0  0  0  0
    4.2149    1.2010   -4.9684 H   0  0  0  0  0  0  0  0  0  0  0  0
    4.2697    1.0792   -3.2064 H   0  0  0  0  0  0  0  0  0  0  0  0
    5.2826   -1.1881   -3.3706 H   0  0  0  0  0  0  0  0  0  0  0  0
    2.7128   -1.0240   -4.7825 H   0  0  0  0  0  0  0  0  0  0  0  0
    2.8968   -0.8609   -3.1668 H   0  0  0  0  0  0  0  0  0  0  0  0
    3.9296   -0.2613   -6.8177 H   0  0  0  0  0  0  0  0  0  0  0  0
    4.8144   -1.2695   -8.8869 H   0  0  0  0  0  0  0  0  0  0  0  0
    6.6913   -2.6160   -4.4907 H   0  0  0  0  0  0  0  0  0  0  0  0
    8.0487   -4.3572   -5.6482 H   0  0  0  0  0  0  0  0  0  0  0  0
    8.9093   -3.2769   -6.7493 H   0  0  0  0  0  0  0  0  0  0  0  0
    6.9927   -5.5479   -7.5574 H   0  0  0  0  0  0  0  0  0  0  0  0
    8.7367   -5.4875   -7.8706 H   0  0  0  0  0  0  0  0  0  0  0  0
    6.5248   -2.6786   -9.9348 H   0  0  0  0  0  0  0  0  0  0  0  0
    6.2317    1.8397   -6.2226 H   0  0  0  0  0  0  0  0  0  0  0  0
  1  2  1  0
  1 23  1  0
  1 24  1  0
  1 25  1  0
  2  3  1  0
  3  4  2  0
  3 22  1  0
  4  5  1  0
  4 26  1  0
  5  6  2  0
  5 27  1  0
  6  7  1  0
  6 28  1  0
  7  8  1  0
  7 22  2  0
  8  9  1  0
  8 29  1  0
  8 30  1  0
  9 10  1  0
  9 11  1  0
  9 31  1  1
 10 32  1  0
 10 33  1  0
 11 12  2  0
 11 16  1  0
 12 13  1  0
 12 34  1  0
 13 14  2  0
 13 35  1  0
 14 15  1  0
 14 21  1  0
 15 16  2  0
 15 17  1  0
 16 36  1  0
 17 18  1  0
 17 37  1  0
 17 38  1  0
 18 19  1  0
 18 39  1  0
 18 40  1  0
 19 20  2  0
 19 21  1  0
 21 41  1  0
 22 42  1  0
M  END

