
     RDKit          3D

 50 52  0  0  0  0  0  0  0  0999 V2000
    4.8937   -2.9369   -1.3253 C   0  0  0  0  0  0  0  0  0  0  0  0
    3.6442   -2.3996   -0.9570 O   0  0  0  0  0  0  0  0  0  0  0  0
    3.0650   -1.4452   -1.7415 C   0  0  0  0  0  0  0  0  0  0  0  0
    3.6605   -0.9195   -2.8960 C   0  0  0  0  0  0  0  0  0  0  0  0
    2.9949    0.0644   -3.6373 C   0  0  0  0  0  0  0  0  0  0  0  0
    1.7417    0.5225   -3.2353 C   0  0  0  0  0  0  0  0  0  0  0  0
    1.1535   -0.0134   -2.0831 C   0  0  0  0  0  0  0  0  0  0  0  0
    1.7894   -0.9984   -1.3213 C   0  0  0  0  0  0  0  0  0  0  0  0
    1.1579   -1.5631   -0.0709 C   0  0  0  0  0  0  0  0  0  0  0  0
    1.7438   -0.9572    1.2207 C   0  0  0  0  0  0  0  0  0  0  0  0
    1.1635   -1.5131    2.4318 N   0  0  0  0  0  0  0  0  0  0  0  0
    0.0518   -0.9893    3.0107 C   0  0  0  0  0  0  0  0  0  0  0  0
   -0.5192    0.0127    2.6123 O   0  0  0  0  0  0  0  0  0  0  0  0
   -0.4680   -1.7002    4.2810 C   0  0  1  0  0  0  0  0  0  0  0  0
   -0.1543   -3.5209    4.3602 S   0  0  0  0  0  0  0  0  0  0  0  0
   -1.2098   -4.2062    3.0914 C   0  0  0  0  0  0  0  0  0  0  0  0
   -1.2165   -5.6103    2.9935 C   0  0  0  0  0  0  0  0  0  0  0  0
   -2.0106   -6.2470    2.0403 C   0  0  0  0  0  0  0  0  0  0  0  0
   -2.8132   -5.4982    1.1721 C   0  0  0  0  0  0  0  0  0  0  0  0
   -2.8088   -4.1057    1.2693 C   0  0  0  0  0  0  0  0  0  0  0  0
   -2.0134   -3.4543    2.2193 C   0  0  0  0  0  0  0  0  0  0  0  0
    0.0917   -1.0918    5.5576 C   0  0  0  0  0  0  0  0  0  0  0  0
   -0.7700   -0.8284    6.6339 C   0  0  0  0  0  0  0  0  0  0  0  0
   -0.2801   -0.2913    7.8260 C   0  0  0  0  0  0  0  0  0  0  0  0
    1.0832   -0.0117    7.9613 C   0  0  0  0  0  0  0  0  0  0  0  0
    1.9499   -0.2716    6.8964 C   0  0  0  0  0  0  0  0  0  0  0  0
    1.4588   -0.8084    5.7032 C   0  0  0  0  0  0  0  0  0  0  0  0
    5.1473   -3.6904   -0.5672 H   0  0  0  0  0  0  0  0  0  0  0  0
    5.6857   -2.1664   -1.3413 H   0  0  0  0  0  0  0  0  0  0  0  0
    4.8554   -3.4255   -2.3156 H   0  0  0  0  0  0  0  0  0  0  0  0
    4.6403   -1.2662   -3.2248 H   0  0  0  0  0  0  0  0  0  0  0  0
    3.4689    0.4691   -4.5353 H   0  0  0  0  0  0  0  0  0  0  0  0
    1.2201    1.2896   -3.8121 H   0  0  0  0  0  0  0  0  0  0  0  0
    0.1678    0.3378   -1.7642 H   0  0  0  0  0  0  0  0  0  0  0  0
    1.3004   -2.6555   -0.0430 H   0  0  0  0  0  0  0  0  0  0  0  0
    0.0747   -1.3694   -0.0851 H   0  0  0  0  0  0  0  0  0  0  0  0
    1.5602    0.1265    1.2352 H   0  0  0  0  0  0  0  0  0  0  0  0
    2.8313   -1.1226    1.2463 H   0  0  0  0  0  0  0  0  0  0  0  0
    1.4598   -2.4314    2.7524 H   0  0  0  0  0  0  0  0  0  0  0  0
   -1.5552   -1.5476    4.2771 H   0  0  0  0  0  0  0  0  0  0  0  0
   -0.5979   -6.2036    3.6725 H   0  0  0  0  0  0  0  0  0  0  0  0
   -2.0041   -7.3385    1.9787 H   0  0  0  0  0  0  0  0  0  0  0  0
   -3.4362   -5.9980    0.4267 H   0  0  0  0  0  0  0  0  0  0  0  0
   -3.4296   -3.5070    0.5976 H   0  0  0  0  0  0  0  0  0  0  0  0
   -2.0315   -2.3648    2.2608 H   0  0  0  0  0  0  0  0  0  0  0  0
   -1.8367   -1.0468    6.5343 H   0  0  0  0  0  0  0  0  0  0  0  0
   -0.9668   -0.0883    8.6517 H   0  0  0  0  0  0  0  0  0  0  0  0
    1.4679    0.4104    8.8931 H   0  0  0  0  0  0  0  0  0  0  0  0
    3.0165   -0.0524    6.9915 H   0  0  0  0  0  0  0  0  0  0  0  0
    2.1425   -0.9989    4.8735 H   0  0  0  0  0  0  0  0  0  0  0  0
  1  2  1  0
  1 28  1  0
  1 29  1  0
  1 30  1  0
  2  3  1  0
  3  4  2  0
  3  8  1  0
  4  5  1  0
  4 31  1  0
  5  6  2  0
  5 32  1  0
  6  7  1  0
  6 33  1  0
  7  8  2  0
  7 34  1  0
  8  9  1  0
  9 10  1  0
  9 35  1  0
  9 36  1  0
 10 11  1  0
 10 37  1  0
 10 38  1  0
 11 12  1  0
 11 39  1  0
 12 13  2  0
 12 14  1  0
 14 15  1  0
 14 22  1  0
 14 40  1  1
 15 16  1  0
 16 17  2  0
 16 21  1  0
 17 18  1  0
 17 41  1  0
 18 19  2  0
 18 42  1  0
 19 20  1  0
 19 43  1  0
 20 21  2  0
 20 44  1  0
 21 45  1  0
 22 23  2  0
 22 27  1  0
 23 24  1  0
 23 46  1  0
 24 25  2  0
 24 47  1  0
 25 26  1  0
 25 48  1  0
 26 27  2  0
 26 49  1  0
 27 50  1  0
M  END

