
     RDKit          3D

 38 39  0  0  0  0  0  0  0  0999 V2000
    1.3040    0.5925    0.5155 C   0  0  0  0  0  0  0  0  0  0  0  0
    2.6274    0.2004   -0.1321 C   0  0  0  0  0  0  0  0  0  0  0  0
    2.8951   -1.2238    0.0157 N   0  0  0  0  0  0  0  0  0  0  0  0
    4.1396   -1.7326    0.1843 C   0  0  0  0  0  0  0  0  0  0  0  0
    5.2163   -1.0088    0.3375 N   0  0  0  0  0  0  0  0  0  0  0  0
    6.3252   -1.7933    0.5198 C   0  0  0  0  0  0  0  0  0  0  0  0
    7.5254   -1.2092    0.7036 N   0  0  0  0  0  0  0  0  0  0  0  0
    6.1178   -3.1806    0.4993 C   0  0  0  0  0  0  0  0  0  0  0  0
    7.1742   -4.1644    0.6483 C   0  0  0  0  0  0  0  0  0  0  0  0
    8.3499   -3.8151    0.8181 O   0  0  0  0  0  0  0  0  0  0  0  0
    6.7911   -5.4955    0.5892 N   0  0  0  0  0  0  0  0  0  0  0  0
    7.5723   -6.6601    0.6968 C   0  0  0  0  0  0  0  0  0  0  0  0
    8.9621   -6.6347    0.8991 C   0  0  0  0  0  0  0  0  0  0  0  0
    9.6795   -7.8286    0.9970 C   0  0  0  0  0  0  0  0  0  0  0  0
    9.0530   -9.0761    0.8996 C   0  0  0  0  0  0  0  0  0  0  0  0
    9.8244  -10.3688    1.0152 C   0  0  0  0  0  0  0  0  0  0  0  0
    7.6644   -9.0824    0.6962 C   0  0  0  0  0  0  0  0  0  0  0  0
    6.9087   -7.9112    0.5925 C   0  0  0  0  0  0  0  0  0  0  0  0
    5.4160   -7.9823    0.3729 C   0  0  0  0  0  0  0  0  0  0  0  0
    4.3848   -3.4812    0.2405 S   0  0  0  0  0  0  0  0  0  0  0  0
    1.1169    1.6692    0.3808 H   0  0  0  0  0  0  0  0  0  0  0  0
    1.3093    0.3739    1.5947 H   0  0  0  0  0  0  0  0  0  0  0  0
    0.4551    0.0531    0.0616 H   0  0  0  0  0  0  0  0  0  0  0  0
    3.4695    0.7312    0.3328 H   0  0  0  0  0  0  0  0  0  0  0  0
    2.6279    0.4846   -1.2024 H   0  0  0  0  0  0  0  0  0  0  0  0
    2.1477   -1.8716   -0.2021 H   0  0  0  0  0  0  0  0  0  0  0  0
    7.5983   -0.2033    0.6597 H   0  0  0  0  0  0  0  0  0  0  0  0
    8.3263   -1.8294    0.8047 H   0  0  0  0  0  0  0  0  0  0  0  0
    5.8040   -5.6615    0.4461 H   0  0  0  0  0  0  0  0  0  0  0  0
    9.4620   -5.6727    0.9759 H   0  0  0  0  0  0  0  0  0  0  0  0
   10.7612   -7.7790    1.1538 H   0  0  0  0  0  0  0  0  0  0  0  0
   10.9077  -10.1862    1.0771 H   0  0  0  0  0  0  0  0  0  0  0  0
    9.6446  -11.0281    0.1494 H   0  0  0  0  0  0  0  0  0  0  0  0
    9.5317  -10.9365    1.9156 H   0  0  0  0  0  0  0  0  0  0  0  0
    7.1435  -10.0421    0.6136 H   0  0  0  0  0  0  0  0  0  0  0  0
    5.0758   -9.0258    0.3154 H   0  0  0  0  0  0  0  0  0  0  0  0
    5.1095   -7.4880   -0.5671 H   0  0  0  0  0  0  0  0  0  0  0  0
    4.8513   -7.5011    1.1923 H   0  0  0  0  0  0  0  0  0  0  0  0
  1  2  1  0
  1 21  1  0
  1 22  1  0
  1 23  1  0
  2  3  1  0
  2 24  1  0
  2 25  1  0
  3  4  1  0
  3 26  1  0
  4  5  2  0
  4 20  1  0
  5  6  1  0
  6  7  1  0
  6  8  2  0
  7 27  1  0
  7 28  1  0
  8  9  1  0
  8 20  1  0
  9 10  2  0
  9 11  1  0
 11 12  1  0
 11 29  1  0
 12 13  2  0
 12 18  1  0
 13 14  1  0
 13 30  1  0
 14 15  2  0
 14 31  1  0
 15 16  1  0
 15 17  1  0
 16 32  1  0
 16 33  1  0
 16 34  1  0
 17 18  2  0
 17 35  1  0
 18 19  1  0
 19 36  1  0
 19 37  1  0
 19 38  1  0
M  END

