
     RDKit          3D

 74 76  0  0  0  0  0  0  0  0999 V2000
    5.3423    5.6073    0.7650 C   0  0  0  0  0  0  0  0  0  0  0  0
    4.0134    5.0067    1.1911 C   0  0  0  0  0  0  0  0  0  0  0  0
    4.1721    3.6540    1.6622 O   0  0  0  0  0  0  0  0  0  0  0  0
    4.5045    3.4781    2.9484 C   0  0  0  0  0  0  0  0  0  0  0  0
    4.6288    4.3758    3.7494 O   0  0  0  0  0  0  0  0  0  0  0  0
    4.7625    2.0057    3.2700 C   0  0  2  0  0  0  0  0  0  0  0  0
    4.2654    1.4083    2.4921 H   0  0  0  0  0  0  0  0  0  0  0  0
    4.1995    1.6264    4.6597 C   0  0  0  0  0  0  0  0  0  0  0  0
    2.6892    1.6448    4.7491 C   0  0  0  0  0  0  0  0  0  0  0  0
    1.9329    0.5071    4.4420 C   0  0  0  0  0  0  0  0  0  0  0  0
    0.5337    0.5113    4.4917 C   0  0  0  0  0  0  0  0  0  0  0  0
   -0.1407    1.6841    4.8582 C   0  0  0  0  0  0  0  0  0  0  0  0
   -1.4965    1.8007    4.9421 O   0  0  0  0  0  0  0  0  0  0  0  0
   -2.3086    0.6919    4.6427 C   0  0  0  0  0  0  0  0  0  0  0  0
   -3.7689    1.0572    4.7996 C   0  0  0  0  0  0  0  0  0  0  0  0
   -4.7396    0.0873    4.5087 C   0  0  0  0  0  0  0  0  0  0  0  0
   -6.0914    0.4002    4.6509 C   0  0  0  0  0  0  0  0  0  0  0  0
   -7.2974   -0.8122    4.2870 Cl  0  0  0  0  0  0  0  0  0  0  0  0
   -6.5058    1.6653    5.0782 C   0  0  0  0  0  0  0  0  0  0  0  0
   -5.5239    2.6158    5.3616 C   0  0  0  0  0  0  0  0  0  0  0  0
   -6.0130    4.2063    5.8972 Cl  0  0  0  0  0  0  0  0  0  0  0  0
   -4.1619    2.3286    5.2283 C   0  0  0  0  0  0  0  0  0  0  0  0
    0.6007    2.8352    5.1702 C   0  0  0  0  0  0  0  0  0  0  0  0
    1.9908    2.8117    5.1139 C   0  0  0  0  0  0  0  0  0  0  0  0
    6.2061    1.8197    3.1421 N   0  0  0  0  0  0  0  0  0  0  0  0
    6.6605    0.4709    2.8128 C   0  0  1  0  0  0  0  0  0  0  0  0
    6.5856    0.2053    1.2984 C   0  0  0  0  0  0  0  0  0  0  0  0
    6.5675   -1.2724    0.8614 C   0  0  1  0  0  0  0  0  0  0  0  0
    5.2523   -1.9743    1.2289 C   0  0  0  0  0  0  0  0  0  0  0  0
    6.8313   -1.3805   -0.6458 C   0  0  0  0  0  0  0  0  0  0  0  0
    8.0802    0.2521    3.3454 C   0  0  0  0  0  0  0  0  0  0  0  0
    8.9520   -0.3494    2.7672 O   0  0  0  0  0  0  0  0  0  0  0  0
    8.2277    0.7811    4.5754 O   0  0  0  0  0  0  0  0  0  0  0  0
    9.5125    0.6327    5.2320 C   0  0  0  0  0  0  0  0  0  0  0  0
   10.4343    1.7913    4.9427 C   0  0  0  0  0  0  0  0  0  0  0  0
   10.4389    2.9185    5.7786 C   0  0  0  0  0  0  0  0  0  0  0  0
   11.2770    4.0032    5.5077 C   0  0  0  0  0  0  0  0  0  0  0  0
   12.1221    3.9714    4.3945 C   0  0  0  0  0  0  0  0  0  0  0  0
   12.1251    2.8525    3.5553 C   0  0  0  0  0  0  0  0  0  0  0  0
   11.2864    1.7687    3.8263 C   0  0  0  0  0  0  0  0  0  0  0  0
    5.1803    6.6096    0.3366 H   0  0  0  0  0  0  0  0  0  0  0  0
    5.8313    4.9803    0.0036 H   0  0  0  0  0  0  0  0  0  0  0  0
    6.0195    5.7082    1.6260 H   0  0  0  0  0  0  0  0  0  0  0  0
    3.3191    4.9259    0.3422 H   0  0  0  0  0  0  0  0  0  0  0  0
    3.5440    5.6068    1.9844 H   0  0  0  0  0  0  0  0  0  0  0  0
    4.6304    2.3261    5.3935 H   0  0  0  0  0  0  0  0  0  0  0  0
    4.5726    0.6198    4.9084 H   0  0  0  0  0  0  0  0  0  0  0  0
    2.4430   -0.4195    4.1608 H   0  0  0  0  0  0  0  0  0  0  0  0
   -0.0094   -0.4021    4.2486 H   0  0  0  0  0  0  0  0  0  0  0  0
   -2.0689   -0.1573    5.3128 H   0  0  0  0  0  0  0  0  0  0  0  0
   -2.1260    0.3443    3.6069 H   0  0  0  0  0  0  0  0  0  0  0  0
   -4.4518   -0.9108    4.1717 H   0  0  0  0  0  0  0  0  0  0  0  0
   -7.5640    1.9014    5.1858 H   0  0  0  0  0  0  0  0  0  0  0  0
   -3.4123    3.0845    5.4542 H   0  0  0  0  0  0  0  0  0  0  0  0
    0.0626    3.7408    5.4578 H   0  0  0  0  0  0  0  0  0  0  0  0
    2.5535    3.7174    5.3530 H   0  0  0  0  0  0  0  0  0  0  0  0
    6.6780    2.1690    3.9729 H   0  0  0  0  0  0  0  0  0  0  0  0
    6.0575   -0.2990    3.3468 H   0  0  0  0  0  0  0  0  0  0  0  0
    7.4360    0.7233    0.8278 H   0  0  0  0  0  0  0  0  0  0  0  0
    5.6785    0.7037    0.9161 H   0  0  0  0  0  0  0  0  0  0  0  0
    7.3942   -1.7851    1.3811 H   0  0  0  0  0  0  0  0  0  0  0  0
    4.3965   -1.5063    0.7115 H   0  0  0  0  0  0  0  0  0  0  0  0
    5.0444   -1.9420    2.3110 H   0  0  0  0  0  0  0  0  0  0  0  0
    5.2754   -3.0366    0.9362 H   0  0  0  0  0  0  0  0  0  0  0  0
    6.0560   -0.8476   -1.2239 H   0  0  0  0  0  0  0  0  0  0  0  0
    6.8301   -2.4312   -0.9787 H   0  0  0  0  0  0  0  0  0  0  0  0
    7.8068   -0.9439   -0.9133 H   0  0  0  0  0  0  0  0  0  0  0  0
    9.9567   -0.3191    4.9116 H   0  0  0  0  0  0  0  0  0  0  0  0
    9.2676    0.5846    6.3014 H   0  0  0  0  0  0  0  0  0  0  0  0
    9.7814    2.9454    6.6526 H   0  0  0  0  0  0  0  0  0  0  0  0
   11.2720    4.8739    6.1683 H   0  0  0  0  0  0  0  0  0  0  0  0
   12.7801    4.8180    4.1820 H   0  0  0  0  0  0  0  0  0  0  0  0
   12.7854    2.8232    2.6847 H   0  0  0  0  0  0  0  0  0  0  0  0
   11.2784    0.8982    3.1664 H   0  0  0  0  0  0  0  0  0  0  0  0
  1  2  1  0
  1 41  1  0
  1 42  1  0
  1 43  1  0
  2  3  1  0
  2 44  1  0
  2 45  1  0
  3  4  1  0
  4  5  2  0
  4  6  1  0
  6  7  1  6
  6  8  1  0
  6 25  1  0
  8  9  1  0
  8 46  1  0
  8 47  1  0
  9 10  2  0
  9 24  1  0
 10 11  1  0
 10 48  1  0
 11 12  2  0
 11 49  1  0
 12 13  1  0
 12 23  1  0
 13 14  1  0
 14 15  1  0
 14 50  1  0
 14 51  1  0
 15 16  2  0
 15 22  1  0
 16 17  1  0
 16 52  1  0
 17 18  1  0
 17 19  2  0
 19 20  1  0
 19 53  1  0
 20 21  1  0
 20 22  2  0
 22 54  1  0
 23 24  2  0
 23 55  1  0
 24 56  1  0
 25 26  1  0
 25 57  1  0
 26 27  1  0
 26 31  1  0
 26 58  1  1
 27 28  1  0
 27 59  1  0
 27 60  1  0
 28 29  1  0
 28 30  1  0
 28 61  1  1
 29 62  1  0
 29 63  1  0
 29 64  1  0
 30 65  1  0
 30 66  1  0
 30 67  1  0
 31 32  2  0
 31 33  1  0
 33 34  1  0
 34 35  1  0
 34 68  1  0
 34 69  1  0
 35 36  2  0
 35 40  1  0
 36 37  1  0
 36 70  1  0
 37 38  2  0
 37 71  1  0
 38 39  1  0
 38 72  1  0
 39 40  2  0
 39 73  1  0
 40 74  1  0
M  END

