
     RDKit          3D

 43 45  0  0  0  0  0  0  0  0999 V2000
    1.1084   -0.2696    0.5080 C   0  0  0  0  0  0  0  0  0  0  0  0
    2.5565   -0.1314    0.3467 N   0  0  0  0  0  0  0  0  0  0  0  0
    3.3585   -1.3042    0.5181 C   0  0  0  0  0  0  0  0  0  0  0  0
    2.8588   -2.3774    0.7847 O   0  0  0  0  0  0  0  0  0  0  0  0
    4.7670   -1.0229    0.3305 C   0  0  0  0  0  0  0  0  0  0  0  0
    5.8242   -1.8996    0.4159 N   0  0  0  0  0  0  0  0  0  0  0  0
    6.8819   -1.1909    0.1500 C   0  0  0  0  0  0  0  0  0  0  0  0
    8.5556   -1.7668    0.1427 S   0  0  0  0  0  0  0  0  0  0  0  0
    8.2428   -3.5686    0.2556 C   0  0  0  0  0  0  0  0  0  0  0  0
    7.9241   -4.2208   -1.0916 C   0  0  0  0  0  0  0  0  0  0  0  0
    7.7117   -5.6471   -0.9506 N   0  0  0  0  0  0  0  0  0  0  0  0
    6.4410   -6.0520   -0.3500 C   0  0  0  0  0  0  0  0  0  0  0  0
    6.3959   -7.5750   -0.5736 C   0  0  0  0  0  0  0  0  0  0  0  0
    7.3283   -7.8169   -1.7930 C   0  0  0  0  0  0  0  0  0  0  0  0
    7.8043   -6.4096   -2.1905 C   0  0  0  0  0  0  0  0  0  0  0  0
    6.5852    0.1508   -0.1234 N   0  0  0  0  0  0  0  0  0  0  0  0
    7.5702    1.1589   -0.4868 C   0  0  0  0  0  0  0  0  0  0  0  0
    5.2141    0.2470    0.0106 C   0  0  0  0  0  0  0  0  0  0  0  0
    4.3847    1.3396   -0.1239 N   0  0  0  0  0  0  0  0  0  0  0  0
    4.8461    2.6960   -0.3975 C   0  0  0  0  0  0  0  0  0  0  0  0
    2.9961    1.1540    0.0465 C   0  0  0  0  0  0  0  0  0  0  0  0
    2.2196    2.0859   -0.0634 O   0  0  0  0  0  0  0  0  0  0  0  0
    0.9054   -1.3199    0.7403 H   0  0  0  0  0  0  0  0  0  0  0  0
    0.5912    0.0272   -0.4157 H   0  0  0  0  0  0  0  0  0  0  0  0
    0.7506    0.3802    1.3195 H   0  0  0  0  0  0  0  0  0  0  0  0
    7.4236   -3.6974    0.9752 H   0  0  0  0  0  0  0  0  0  0  0  0
    9.1630   -3.9923    0.6839 H   0  0  0  0  0  0  0  0  0  0  0  0
    8.7772   -4.0609   -1.7712 H   0  0  0  0  0  0  0  0  0  0  0  0
    7.0466   -3.7097   -1.5471 H   0  0  0  0  0  0  0  0  0  0  0  0
    5.5818   -5.5556   -0.8561 H   0  0  0  0  0  0  0  0  0  0  0  0
    6.3871   -5.7733    0.7135 H   0  0  0  0  0  0  0  0  0  0  0  0
    5.3670   -7.9221   -0.7504 H   0  0  0  0  0  0  0  0  0  0  0  0
    6.7709   -8.1097    0.3119 H   0  0  0  0  0  0  0  0  0  0  0  0
    6.8187   -8.3231   -2.6267 H   0  0  0  0  0  0  0  0  0  0  0  0
    8.1856   -8.4437   -1.5049 H   0  0  0  0  0  0  0  0  0  0  0  0
    7.1383   -5.9878   -2.9804 H   0  0  0  0  0  0  0  0  0  0  0  0
    8.8325   -6.3917   -2.5885 H   0  0  0  0  0  0  0  0  0  0  0  0
    8.4965    0.6427   -0.7711 H   0  0  0  0  0  0  0  0  0  0  0  0
    7.7922    1.8387    0.3502 H   0  0  0  0  0  0  0  0  0  0  0  0
    7.2345    1.7432   -1.3521 H   0  0  0  0  0  0  0  0  0  0  0  0
    5.2429    2.7925   -1.4202 H   0  0  0  0  0  0  0  0  0  0  0  0
    5.6140    3.0051    0.3262 H   0  0  0  0  0  0  0  0  0  0  0  0
    3.9742    3.3521   -0.3008 H   0  0  0  0  0  0  0  0  0  0  0  0
  1  2  1  0
  1 23  1  0
  1 24  1  0
  1 25  1  0
  2  3  1  0
  2 21  1  0
  3  4  2  0
  3  5  1  0
  5  6  1  0
  5 18  2  0
  6  7  2  0
  7  8  1  0
  7 16  1  0
  8  9  1  0
  9 10  1  0
  9 26  1  0
  9 27  1  0
 10 11  1  0
 10 28  1  0
 10 29  1  0
 11 12  1  0
 11 15  1  0
 12 13  1  0
 12 30  1  0
 12 31  1  0
 13 14  1  0
 13 32  1  0
 13 33  1  0
 14 15  1  0
 14 34  1  0
 14 35  1  0
 15 36  1  0
 15 37  1  0
 16 17  1  0
 16 18  1  0
 17 38  1  0
 17 39  1  0
 17 40  1  0
 18 19  1  0
 19 20  1  0
 19 21  1  0
 20 41  1  0
 20 42  1  0
 20 43  1  0
 21 22  2  0
M  END

