
     RDKit          3D

 45 48  0  0  0  0  0  0  0  0999 V2000
    4.6762    8.3322   -3.6883 C   0  0  0  0  0  0  0  0  0  0  0  0
    5.5627    7.3613   -2.9430 C   0  0  0  0  0  0  0  0  0  0  0  0
    6.9554    7.5209   -2.9294 C   0  0  0  0  0  0  0  0  0  0  0  0
    7.7901    6.6239   -2.2477 C   0  0  0  0  0  0  0  0  0  0  0  0
    7.2059    5.5701   -1.5552 C   0  0  0  0  0  0  0  0  0  0  0  0
    5.7923    5.3956   -1.5017 C   0  0  0  0  0  0  0  0  0  0  0  0
    4.9955    6.2847   -2.2327 C   0  0  0  0  0  0  0  0  0  0  0  0
    5.5536    4.1761   -0.7218 C   0  0  0  0  0  0  0  0  0  0  0  0
    4.4892    3.4421   -0.2621 C   0  0  0  0  0  0  0  0  0  0  0  0
    3.1555    3.6753   -0.2032 N   0  0  0  0  0  0  0  0  0  0  0  0
    2.5287    4.9889   -0.2014 C   0  0  0  0  0  0  0  0  0  0  0  0
    1.2754    4.9879   -1.0738 C   0  0  0  0  0  0  0  0  0  0  0  0
    0.3582    3.9248   -0.6631 N   0  0  0  0  0  0  0  0  0  0  0  0
   -0.9895    4.0212   -1.0790 C   0  0  0  0  0  0  0  0  0  0  0  0
   -1.6605    2.9585   -1.7155 C   0  0  0  0  0  0  0  0  0  0  0  0
   -3.0073    3.0659   -2.0781 C   0  0  0  0  0  0  0  0  0  0  0  0
   -3.6921    4.2477   -1.8251 C   0  0  0  0  0  0  0  0  0  0  0  0
   -4.9834    4.3582   -2.1784 F   0  0  0  0  0  0  0  0  0  0  0  0
   -3.0569    5.3226   -1.2042 C   0  0  0  0  0  0  0  0  0  0  0  0
   -1.7210    5.2030   -0.8289 C   0  0  0  0  0  0  0  0  0  0  0  0
    0.9879    2.6138   -0.6510 C   0  0  0  0  0  0  0  0  0  0  0  0
    2.2393    2.6279    0.2307 C   0  0  0  0  0  0  0  0  0  0  0  0
    6.8984    3.6125   -0.3808 C   0  0  0  0  0  0  0  0  0  0  0  0
    7.1754    2.5861    0.2157 O   0  0  0  0  0  0  0  0  0  0  0  0
    7.8222    4.5286   -0.8722 N   0  0  0  0  0  0  0  0  0  0  0  0
    5.2324    8.8663   -4.4736 H   0  0  0  0  0  0  0  0  0  0  0  0
    4.2518    9.0966   -3.0129 H   0  0  0  0  0  0  0  0  0  0  0  0
    3.8269    7.8198   -4.1684 H   0  0  0  0  0  0  0  0  0  0  0  0
    7.4056    8.3526   -3.4786 H   0  0  0  0  0  0  0  0  0  0  0  0
    8.8760    6.7427   -2.2759 H   0  0  0  0  0  0  0  0  0  0  0  0
    3.9153    6.1441   -2.2944 H   0  0  0  0  0  0  0  0  0  0  0  0
    4.7890    2.4720    0.1560 H   0  0  0  0  0  0  0  0  0  0  0  0
    3.2412    5.7472   -0.5379 H   0  0  0  0  0  0  0  0  0  0  0  0
    2.2412    5.2408    0.8381 H   0  0  0  0  0  0  0  0  0  0  0  0
    1.5720    4.8640   -2.1385 H   0  0  0  0  0  0  0  0  0  0  0  0
    0.7789    5.9628   -0.9851 H   0  0  0  0  0  0  0  0  0  0  0  0
   -1.1359    2.0318   -1.9480 H   0  0  0  0  0  0  0  0  0  0  0  0
   -3.5255    2.2400   -2.5697 H   0  0  0  0  0  0  0  0  0  0  0  0
   -3.6209    6.2359   -1.0040 H   0  0  0  0  0  0  0  0  0  0  0  0
   -1.2436    6.0352   -0.3083 H   0  0  0  0  0  0  0  0  0  0  0  0
    1.2712    2.2742   -1.6716 H   0  0  0  0  0  0  0  0  0  0  0  0
    0.2800    1.8794   -0.2394 H   0  0  0  0  0  0  0  0  0  0  0  0
    2.7456    1.6546    0.1735 H   0  0  0  0  0  0  0  0  0  0  0  0
    1.9351    2.8018    1.2813 H   0  0  0  0  0  0  0  0  0  0  0  0
    8.8205    4.3835   -0.7909 H   0  0  0  0  0  0  0  0  0  0  0  0
  1  2  1  0
  1 26  1  0
  1 27  1  0
  1 28  1  0
  2  3  2  0
  2  7  1  0
  3  4  1  0
  3 29  1  0
  4  5  2  0
  4 30  1  0
  5  6  1  0
  5 25  1  0
  6  7  2  0
  6  8  1  0
  7 31  1  0
  8  9  2  0
  8 23  1  0
  9 10  1  0
  9 32  1  0
 10 11  1  0
 10 22  1  0
 11 12  1  0
 11 33  1  0
 11 34  1  0
 12 13  1  0
 12 35  1  0
 12 36  1  0
 13 14  1  0
 13 21  1  0
 14 15  2  0
 14 20  1  0
 15 16  1  0
 15 37  1  0
 16 17  2  0
 16 38  1  0
 17 18  1  0
 17 19  1  0
 19 20  2  0
 19 39  1  0
 20 40  1  0
 21 22  1  0
 21 41  1  0
 21 42  1  0
 22 43  1  0
 22 44  1  0
 23 24  2  0
 23 25  1  0
 25 45  1  0
M  END

