
     RDKit          3D

 24 25  0  0  0  0  0  0  0  0999 V2000
    0.9207   -0.6956    0.5455 F   0  0  0  0  0  0  0  0  0  0  0  0
    2.2472   -0.4839    0.3722 C   0  0  0  0  0  0  0  0  0  0  0  0
    2.7385    0.8198    0.4060 C   0  0  0  0  0  0  0  0  0  0  0  0
    4.1070    1.0601    0.2498 C   0  0  0  0  0  0  0  0  0  0  0  0
    4.9911   -0.0156    0.0707 C   0  0  0  0  0  0  0  0  0  0  0  0
    4.4896   -1.3114    0.0365 C   0  0  0  0  0  0  0  0  0  0  0  0
    3.1097   -1.5683    0.1787 C   0  0  0  0  0  0  0  0  0  0  0  0
    2.8397   -2.9314    0.1222 N   0  0  0  0  0  0  0  0  0  0  0  0
    1.5274   -3.5024   -0.1232 C   0  0  0  0  0  0  0  0  0  0  0  0
    0.8209   -3.8145    1.1946 C   0  0  0  0  0  0  0  0  0  0  0  0
   -1.1143   -4.7882    0.8697 I   0  0  0  0  0  0  0  0  0  0  0  0
    4.0455   -3.6293   -0.3485 C   0  0  0  0  0  0  0  0  0  0  0  0
    5.2006   -2.6456   -0.0622 C   0  0  0  0  0  0  0  0  0  0  0  0
    2.0274    1.6354    0.5537 H   0  0  0  0  0  0  0  0  0  0  0  0
    4.4823    2.0853    0.2720 H   0  0  0  0  0  0  0  0  0  0  0  0
    6.0636    0.1642   -0.0407 H   0  0  0  0  0  0  0  0  0  0  0  0
    1.6573   -4.4288   -0.7045 H   0  0  0  0  0  0  0  0  0  0  0  0
    0.9050   -2.8251   -0.7297 H   0  0  0  0  0  0  0  0  0  0  0  0
    0.5942   -2.9005    1.7551 H   0  0  0  0  0  0  0  0  0  0  0  0
    1.4002   -4.5067    1.8180 H   0  0  0  0  0  0  0  0  0  0  0  0
    3.9652   -3.8360   -1.4358 H   0  0  0  0  0  0  0  0  0  0  0  0
    4.1694   -4.5966    0.1632 H   0  0  0  0  0  0  0  0  0  0  0  0
    5.9777   -2.6749   -0.8407 H   0  0  0  0  0  0  0  0  0  0  0  0
    5.6917   -2.8845    0.8982 H   0  0  0  0  0  0  0  0  0  0  0  0
  1  2  1  0
  2  3  2  0
  2  7  1  0
  3  4  1  0
  3 14  1  0
  4  5  2  0
  4 15  1  0
  5  6  1  0
  5 16  1  0
  6  7  2  0
  6 13  1  0
  7  8  1  0
  8  9  1  0
  8 12  1  0
  9 10  1  0
  9 17  1  0
  9 18  1  0
 10 11  1  0
 10 19  1  0
 10 20  1  0
 12 13  1  0
 12 21  1  0
 12 22  1  0
 13 23  1  0
 13 24  1  0
M  END

