
     RDKit          3D

 85 88  0  0  0  0  0  0  0  0999 V2000
   -0.7526    7.0706    0.9542 C   0  0  0  0  0  0  0  0  0  0  0  0
    0.6676    7.0984    0.3874 C   0  0  0  0  0  0  0  0  0  0  0  0
    1.7465    6.7518    1.4182 C   0  0  0  0  0  0  0  0  0  0  0  0
    3.1717    6.7774    0.8584 C   0  0  0  0  0  0  0  0  0  0  0  0
    4.2494    6.4311    1.8898 C   0  0  0  0  0  0  0  0  0  0  0  0
    5.6741    6.4570    1.3278 C   0  0  0  0  0  0  0  0  0  0  0  0
    6.7457    6.1107    2.3647 C   0  0  0  0  0  0  0  0  0  0  0  0
    8.1552    6.1393    1.7943 C   0  0  0  0  0  0  0  0  0  0  0  0
    9.0619    5.8066    2.8323 O   0  0  0  0  0  0  0  0  0  0  0  0
   10.3940    5.7703    2.5815 C   0  0  0  0  0  0  0  0  0  0  0  0
   10.9801    6.0332    1.3339 C   0  0  0  0  0  0  0  0  0  0  0  0
   12.3693    5.9669    1.1899 C   0  0  0  0  0  0  0  0  0  0  0  0
   13.2148    5.6418    2.2629 C   0  0  0  0  0  0  0  0  0  0  0  0
   14.6890    5.5743    2.0957 C   0  0  0  0  0  0  0  0  0  0  0  0
   15.3694    6.4538    1.2295 C   0  0  0  0  0  0  0  0  0  0  0  0
   16.7500    6.3881    1.0713 C   0  0  0  0  0  0  0  0  0  0  0  0
   17.4933    5.4379    1.7823 C   0  0  0  0  0  0  0  0  0  0  0  0
   18.8555    5.4854    1.5228 O   0  0  0  0  0  0  0  0  0  0  0  0
   19.8072    4.7324    2.1061 C   0  0  0  0  0  0  0  0  0  0  0  0
   19.6197    3.8857    2.9497 O   0  0  0  0  0  0  0  0  0  0  0  0
   21.1567    5.0537    1.5949 C   0  0  0  0  0  0  0  0  0  0  0  0
   22.4569    4.1135    2.3155 S   0  0  0  0  0  0  0  0  0  0  0  0
   23.6433    4.9410    1.3367 C   0  0  0  0  0  0  0  0  0  0  0  0
   25.0305    4.7408    1.3273 C   0  0  0  0  0  0  0  0  0  0  0  0
   25.8169    5.5023    0.4711 C   0  0  0  0  0  0  0  0  0  0  0  0
   25.2419    6.4732   -0.3901 C   0  0  0  0  0  0  0  0  0  0  0  0
   25.9829    7.2284   -1.2295 O   0  0  0  0  0  0  0  0  0  0  0  0
   27.6140    7.3175   -1.7135 Si  0  0  1  0  0  4  0  0  0  0  0  0
   28.6850    7.7785   -0.2315 C   0  0  0  0  0  0  0  0  0  0  0  0
   28.1451    5.6543   -2.4245 C   0  0  0  0  0  0  0  0  0  0  0  0
   27.5910    8.6979   -3.0383 C   0  0  1  0  0  0  0  0  0  0  0  0
   27.0859   10.0111   -2.4052 C   0  0  0  0  0  0  0  0  0  0  0  0
   29.0143    8.9109   -3.5956 C   0  0  0  0  0  0  0  0  0  0  0  0
   26.6452    8.2938   -4.1883 C   0  0  0  0  0  0  0  0  0  0  0  0
   23.8615    6.6728   -0.3795 C   0  0  0  0  0  0  0  0  0  0  0  0
   23.0556    5.9086    0.4835 C   0  0  0  0  0  0  0  0  0  0  0  0
   21.6244    5.9493    0.6559 C   0  0  0  0  0  0  0  0  0  0  0  0
   20.6699    7.0529   -0.2769 Cl  0  0  0  0  0  0  0  0  0  0  0  0
   16.8517    4.5493    2.6530 C   0  0  0  0  0  0  0  0  0  0  0  0
   15.4636    4.6308    2.7939 C   0  0  0  0  0  0  0  0  0  0  0  0
   12.6032    5.3810    3.5077 C   0  0  0  0  0  0  0  0  0  0  0  0
   11.2245    5.4429    3.6682 C   0  0  0  0  0  0  0  0  0  0  0  0
   -1.5009    7.3243    0.1864 H   0  0  0  0  0  0  0  0  0  0  0  0
   -0.8683    7.7906    1.7818 H   0  0  0  0  0  0  0  0  0  0  0  0
   -1.0071    6.0728    1.3496 H   0  0  0  0  0  0  0  0  0  0  0  0
    0.8771    8.0986   -0.0341 H   0  0  0  0  0  0  0  0  0  0  0  0
    0.7394    6.3955   -0.4627 H   0  0  0  0  0  0  0  0  0  0  0  0
    1.5382    5.7508    1.8407 H   0  0  0  0  0  0  0  0  0  0  0  0
    1.6759    7.4548    2.2694 H   0  0  0  0  0  0  0  0  0  0  0  0
    3.3795    7.7783    0.4360 H   0  0  0  0  0  0  0  0  0  0  0  0
    3.2418    6.0743    0.0075 H   0  0  0  0  0  0  0  0  0  0  0  0
    4.0434    5.4303    2.3124 H   0  0  0  0  0  0  0  0  0  0  0  0
    4.1813    7.1342    2.7404 H   0  0  0  0  0  0  0  0  0  0  0  0
    5.8792    7.4582    0.9050 H   0  0  0  0  0  0  0  0  0  0  0  0
    5.7416    5.7528    0.4776 H   0  0  0  0  0  0  0  0  0  0  0  0
    6.5589    5.1075    2.7852 H   0  0  0  0  0  0  0  0  0  0  0  0
    6.6972    6.8155    3.2126 H   0  0  0  0  0  0  0  0  0  0  0  0
    8.3907    7.1430    1.3902 H   0  0  0  0  0  0  0  0  0  0  0  0
    8.2508    5.4185    0.9592 H   0  0  0  0  0  0  0  0  0  0  0  0
   10.3681    6.2795    0.4661 H   0  0  0  0  0  0  0  0  0  0  0  0
   12.7991    6.1505    0.2022 H   0  0  0  0  0  0  0  0  0  0  0  0
   14.8111    7.2203    0.6876 H   0  0  0  0  0  0  0  0  0  0  0  0
   17.2784    7.0742    0.4072 H   0  0  0  0  0  0  0  0  0  0  0  0
   25.4931    3.9988    1.9821 H   0  0  0  0  0  0  0  0  0  0  0  0
   26.8974    5.3506    0.4651 H   0  0  0  0  0  0  0  0  0  0  0  0
   28.7157    6.9727    0.5190 H   0  0  0  0  0  0  0  0  0  0  0  0
   28.3085    8.6853    0.2677 H   0  0  0  0  0  0  0  0  0  0  0  0
   29.7237    7.9724   -0.5464 H   0  0  0  0  0  0  0  0  0  0  0  0
   28.1299    4.8611   -1.6603 H   0  0  0  0  0  0  0  0  0  0  0  0
   29.1724    5.7092   -2.8209 H   0  0  0  0  0  0  0  0  0  0  0  0
   27.4819    5.3388   -3.2454 H   0  0  0  0  0  0  0  0  0  0  0  0
   27.7520   10.3677   -1.6024 H   0  0  0  0  0  0  0  0  0  0  0  0
   26.0774    9.8942   -1.9786 H   0  0  0  0  0  0  0  0  0  0  0  0
   27.0375   10.8100   -3.1672 H   0  0  0  0  0  0  0  0  0  0  0  0
   29.7272    9.2208   -2.8135 H   0  0  0  0  0  0  0  0  0  0  0  0
   29.0096    9.7064   -4.3623 H   0  0  0  0  0  0  0  0  0  0  0  0
   29.4155    8.0027   -4.0753 H   0  0  0  0  0  0  0  0  0  0  0  0
   25.6207    8.1142   -3.8269 H   0  0  0  0  0  0  0  0  0  0  0  0
   26.9855    7.3807   -4.7038 H   0  0  0  0  0  0  0  0  0  0  0  0
   26.5981    9.0971   -4.9456 H   0  0  0  0  0  0  0  0  0  0  0  0
   23.4189    7.4192   -1.0398 H   0  0  0  0  0  0  0  0  0  0  0  0
   17.4243    3.8067    3.2010 H   0  0  0  0  0  0  0  0  0  0  0  0
   14.9702    3.9151    3.4553 H   0  0  0  0  0  0  0  0  0  0  0  0
   13.2249    5.1487    4.3755 H   0  0  0  0  0  0  0  0  0  0  0  0
   10.7582    5.2506    4.6366 H   0  0  0  0  0  0  0  0  0  0  0  0
  1  2  1  0
  1 43  1  0
  1 44  1  0
  1 45  1  0
  2  3  1  0
  2 46  1  0
  2 47  1  0
  3  4  1  0
  3 48  1  0
  3 49  1  0
  4  5  1  0
  4 50  1  0
  4 51  1  0
  5  6  1  0
  5 52  1  0
  5 53  1  0
  6  7  1  0
  6 54  1  0
  6 55  1  0
  7  8  1  0
  7 56  1  0
  7 57  1  0
  8  9  1  0
  8 58  1  0
  8 59  1  0
  9 10  1  0
 10 11  2  0
 10 42  1  0
 11 12  1  0
 11 60  1  0
 12 13  2  0
 12 61  1  0
 13 14  1  0
 13 41  1  0
 14 15  2  0
 14 40  1  0
 15 16  1  0
 15 62  1  0
 16 17  2  0
 16 63  1  0
 17 18  1  0
 17 39  1  0
 18 19  1  0
 19 20  2  0
 19 21  1  0
 21 22  1  0
 21 37  2  0
 22 23  1  0
 23 24  2  0
 23 36  1  0
 24 25  1  0
 24 64  1  0
 25 26  2  0
 25 65  1  0
 26 27  1  0
 26 35  1  0
 28 27  1  1
 28 29  1  0
 28 30  1  0
 28 31  1  0
 29 66  1  0
 29 67  1  0
 29 68  1  0
 30 69  1  0
 30 70  1  0
 30 71  1  0
 31 32  1  1
 31 33  1  0
 31 34  1  0
 32 72  1  0
 32 73  1  0
 32 74  1  0
 33 75  1  0
 33 76  1  0
 33 77  1  0
 34 78  1  0
 34 79  1  0
 34 80  1  0
 35 36  2  0
 35 81  1  0
 36 37  1  0
 37 38  1  0
 39 40  2  0
 39 82  1  0
 40 83  1  0
 41 42  2  0
 41 84  1  0
 42 85  1  0
M  END

