
     RDKit          3D

 38 39  0  0  0  0  0  0  0  0999 V2000
    1.0648   -0.0555   -0.0408 C   0  0  0  0  0  0  0  0  0  0  0  0
    2.5723    0.0082    0.0098 C   0  0  0  0  0  0  0  0  0  0  0  0
    3.2552    1.2245   -0.0839 C   0  0  0  0  0  0  0  0  0  0  0  0
    4.6557    1.3073   -0.0407 C   0  0  0  0  0  0  0  0  0  0  0  0
    5.3389    2.6415   -0.1876 C   0  0  0  0  0  0  0  0  0  0  0  0
    5.3861    0.1143    0.1274 C   0  0  0  0  0  0  0  0  0  0  0  0
    6.8124    0.1291    0.1633 N   0  0  0  0  0  0  0  0  0  0  0  0
    7.5851    0.7652    1.1044 C   0  0  0  0  0  0  0  0  0  0  0  0
    7.1451    1.4754    1.9866 O   0  0  0  0  0  0  0  0  0  0  0  0
    9.0968    0.4967    0.9604 C   0  0  0  0  0  0  0  0  0  0  0  0
    9.5068   -0.8431    1.5276 C   0  0  0  0  0  0  0  0  0  0  0  0
    9.9273   -0.9955    2.8577 C   0  0  0  0  0  0  0  0  0  0  0  0
   10.2901   -2.2391    3.3790 C   0  0  0  0  0  0  0  0  0  0  0  0
   10.2327   -3.3686    2.5571 C   0  0  0  0  0  0  0  0  0  0  0  0
   10.6882   -4.9304    3.1895 Cl  0  0  0  0  0  0  0  0  0  0  0  0
    9.8116   -3.2647    1.2286 C   0  0  0  0  0  0  0  0  0  0  0  0
    9.4559   -2.0076    0.7539 C   0  0  0  0  0  0  0  0  0  0  0  0
    9.0287   -1.9104   -0.5285 F   0  0  0  0  0  0  0  0  0  0  0  0
    4.7276   -1.1328    0.2191 C   0  0  0  0  0  0  0  0  0  0  0  0
    5.5145   -2.4085    0.4009 C   0  0  0  0  0  0  0  0  0  0  0  0
    3.3319   -1.1623    0.1521 C   0  0  0  0  0  0  0  0  0  0  0  0
    0.6229    0.9378   -0.2078 H   0  0  0  0  0  0  0  0  0  0  0  0
    0.6496   -0.4525    0.9011 H   0  0  0  0  0  0  0  0  0  0  0  0
    0.7167   -0.7202   -0.8491 H   0  0  0  0  0  0  0  0  0  0  0  0
    2.6832    2.1486   -0.2104 H   0  0  0  0  0  0  0  0  0  0  0  0
    4.6434    3.4001   -0.5749 H   0  0  0  0  0  0  0  0  0  0  0  0
    6.1972    2.5746   -0.8757 H   0  0  0  0  0  0  0  0  0  0  0  0
    5.7370    2.9834    0.7805 H   0  0  0  0  0  0  0  0  0  0  0  0
    7.2902   -0.5409   -0.4313 H   0  0  0  0  0  0  0  0  0  0  0  0
    9.5993    1.3029    1.5092 H   0  0  0  0  0  0  0  0  0  0  0  0
    9.3877    0.5622   -0.0994 H   0  0  0  0  0  0  0  0  0  0  0  0
    9.9706   -0.1119    3.4991 H   0  0  0  0  0  0  0  0  0  0  0  0
   10.6173   -2.3367    4.4148 H   0  0  0  0  0  0  0  0  0  0  0  0
    9.7566   -4.1342    0.5735 H   0  0  0  0  0  0  0  0  0  0  0  0
    6.1461   -2.3663    1.3037 H   0  0  0  0  0  0  0  0  0  0  0  0
    6.1906   -2.6106   -0.4483 H   0  0  0  0  0  0  0  0  0  0  0  0
    4.8434   -3.2738    0.4969 H   0  0  0  0  0  0  0  0  0  0  0  0
    2.8217   -2.1278    0.2250 H   0  0  0  0  0  0  0  0  0  0  0  0
  1  2  1  0
  1 22  1  0
  1 23  1  0
  1 24  1  0
  2  3  2  0
  2 21  1  0
  3  4  1  0
  3 25  1  0
  4  5  1  0
  4  6  2  0
  5 26  1  0
  5 27  1  0
  5 28  1  0
  6  7  1  0
  6 19  1  0
  7  8  1  0
  7 29  1  0
  8  9  2  0
  8 10  1  0
 10 11  1  0
 10 30  1  0
 10 31  1  0
 11 12  2  0
 11 17  1  0
 12 13  1  0
 12 32  1  0
 13 14  2  0
 13 33  1  0
 14 15  1  0
 14 16  1  0
 16 17  2  0
 16 34  1  0
 17 18  1  0
 19 20  1  0
 19 21  2  0
 20 35  1  0
 20 36  1  0
 20 37  1  0
 21 38  1  0
M  END

