
     RDKit          3D

 25 26  0  0  0  0  0  0  0  0999 V2000
    0.9978   -0.0941   -0.0755 C   0  0  0  0  0  0  0  0  0  0  0  0
    2.5047   -0.0440   -0.1095 C   0  0  0  0  0  0  0  0  0  0  0  0
    3.2034    1.1691   -0.1999 C   0  0  0  0  0  0  0  0  0  0  0  0
    4.6028    1.2171   -0.2245 C   0  0  0  0  0  0  0  0  0  0  0  0
    5.3805    0.0534   -0.1556 C   0  0  0  0  0  0  0  0  0  0  0  0
    6.8865    0.0994   -0.1641 C   0  0  0  0  0  0  0  0  0  0  0  0
    4.6800   -1.1635   -0.0733 C   0  0  0  0  0  0  0  0  0  0  0  0
    3.2767   -1.2144   -0.0522 C   0  0  0  0  0  0  0  0  0  0  0  0
    2.8018   -2.6470    0.0518 C   0  0  0  0  0  0  0  0  0  0  0  0
    4.0556   -3.4566   -0.3389 C   0  0  0  0  0  0  0  0  0  0  0  0
    5.2405   -2.5497    0.0166 C   0  0  2  0  0  0  0  0  0  0  0  0
    5.8822   -2.9307    1.9083 Br  0  0  0  0  0  0  0  0  0  0  0  0
    0.5606    0.9143   -0.1179 H   0  0  0  0  0  0  0  0  0  0  0  0
    0.6299   -0.5818    0.8433 H   0  0  0  0  0  0  0  0  0  0  0  0
    0.5917   -0.6716   -0.9238 H   0  0  0  0  0  0  0  0  0  0  0  0
    2.6391    2.1049   -0.2534 H   0  0  0  0  0  0  0  0  0  0  0  0
    5.1017    2.1877   -0.2971 H   0  0  0  0  0  0  0  0  0  0  0  0
    7.2559    1.1347   -0.1967 H   0  0  0  0  0  0  0  0  0  0  0  0
    7.3032   -0.4322   -1.0372 H   0  0  0  0  0  0  0  0  0  0  0  0
    7.3027   -0.3884    0.7327 H   0  0  0  0  0  0  0  0  0  0  0  0
    1.9366   -2.8690   -0.5929 H   0  0  0  0  0  0  0  0  0  0  0  0
    2.4915   -2.8725    1.0887 H   0  0  0  0  0  0  0  0  0  0  0  0
    4.0717   -3.5970   -1.4343 H   0  0  0  0  0  0  0  0  0  0  0  0
    4.1162   -4.4505    0.1243 H   0  0  0  0  0  0  0  0  0  0  0  0
    6.1479   -2.7338   -0.5687 H   0  0  0  0  0  0  0  0  0  0  0  0
  1  2  1  0
  1 13  1  0
  1 14  1  0
  1 15  1  0
  2  3  2  0
  2  8  1  0
  3  4  1  0
  3 16  1  0
  4  5  2  0
  4 17  1  0
  5  6  1  0
  5  7  1  0
  6 18  1  0
  6 19  1  0
  6 20  1  0
  7  8  2  0
  7 11  1  0
  8  9  1  0
  9 10  1  0
  9 21  1  0
  9 22  1  0
 10 11  1  0
 10 23  1  0
 10 24  1  0
 11 12  1  0
 11 25  1  6
M  END

