
     RDKit          3D

 37 36  0  0  0  0  0  0  0  0999 V2000
    0.5121   -1.9066   -1.3473 C   0  0  0  0  0  0  0  0  0  0  0  0
    1.9999   -1.7208   -1.4069 C   0  0  0  0  0  0  0  0  0  0  0  0
    2.7088   -0.6743   -0.9484 C   0  0  0  0  0  0  0  0  0  0  0  0
    2.0651    0.5161   -0.2540 C   0  0  0  0  0  0  0  0  0  0  0  0
    1.7423    0.3065    1.2351 C   0  0  0  0  0  0  0  0  0  0  0  0
    4.2569   -0.6815   -1.0597 C   0  0  1  0  0  0  0  0  0  0  0  0
    4.7434    0.6694   -1.4162 C   0  0  0  0  0  0  0  0  0  0  0  0
    5.1563    1.7267   -1.6493 N   0  0  0  0  0  0  0  0  0  0  0  0
    4.9572   -1.0730    0.2868 C   0  0  0  0  0  0  0  0  0  0  0  0
    4.4886   -2.3696    0.9536 C   0  0  0  0  0  0  0  0  0  0  0  0
    5.2812   -2.6688    2.2281 C   0  0  0  0  0  0  0  0  0  0  0  0
    4.7257   -1.6233   -2.2031 C   0  0  0  0  0  0  0  0  0  0  0  0
    5.2855   -2.6776   -2.0333 O   0  0  0  0  0  0  0  0  0  0  0  0
    4.4305   -1.1096   -3.3996 O   0  0  0  0  0  0  0  0  0  0  0  0
    4.8248   -1.8489   -4.5745 C   0  0  0  0  0  0  0  0  0  0  0  0
    6.2465   -1.5134   -4.9900 C   0  0  0  0  0  0  0  0  0  0  0  0
    0.1114   -2.1431   -2.3481 H   0  0  0  0  0  0  0  0  0  0  0  0
   -0.0225   -1.0259   -0.9665 H   0  0  0  0  0  0  0  0  0  0  0  0
    0.2502   -2.7628   -0.7005 H   0  0  0  0  0  0  0  0  0  0  0  0
    2.5367   -2.5557   -1.8712 H   0  0  0  0  0  0  0  0  0  0  0  0
    1.1330    0.7699   -0.7840 H   0  0  0  0  0  0  0  0  0  0  0  0
    2.7098    1.4016   -0.3611 H   0  0  0  0  0  0  0  0  0  0  0  0
    1.0644   -0.5485    1.3849 H   0  0  0  0  0  0  0  0  0  0  0  0
    1.2528    1.2014    1.6518 H   0  0  0  0  0  0  0  0  0  0  0  0
    2.6483    0.1190    1.8314 H   0  0  0  0  0  0  0  0  0  0  0  0
    4.8216   -0.2312    0.9856 H   0  0  0  0  0  0  0  0  0  0  0  0
    6.0395   -1.1319    0.0869 H   0  0  0  0  0  0  0  0  0  0  0  0
    4.5971   -3.2028    0.2443 H   0  0  0  0  0  0  0  0  0  0  0  0
    3.4159   -2.2969    1.1952 H   0  0  0  0  0  0  0  0  0  0  0  0
    6.3559   -2.7925    2.0143 H   0  0  0  0  0  0  0  0  0  0  0  0
    4.9295   -3.5968    2.7061 H   0  0  0  0  0  0  0  0  0  0  0  0
    5.1838   -1.8564    2.9683 H   0  0  0  0  0  0  0  0  0  0  0  0
    4.0996   -1.5479   -5.3437 H   0  0  0  0  0  0  0  0  0  0  0  0
    4.7122   -2.9242   -4.3717 H   0  0  0  0  0  0  0  0  0  0  0  0
    6.3656   -0.4298   -5.1423 H   0  0  0  0  0  0  0  0  0  0  0  0
    6.4882   -2.0251   -5.9354 H   0  0  0  0  0  0  0  0  0  0  0  0
    6.9676   -1.8457   -4.2285 H   0  0  0  0  0  0  0  0  0  0  0  0
  1  2  1  0
  1 17  1  0
  1 18  1  0
  1 19  1  0
  2  3  2  0
  2 20  1  0
  3  4  1  0
  3  6  1  0
  4  5  1  0
  4 21  1  0
  4 22  1  0
  5 23  1  0
  5 24  1  0
  5 25  1  0
  6  7  1  6
  6  9  1  0
  6 12  1  0
  7  8  3  0
  9 10  1  0
  9 26  1  0
  9 27  1  0
 10 11  1  0
 10 28  1  0
 10 29  1  0
 11 30  1  0
 11 31  1  0
 11 32  1  0
 12 13  2  0
 12 14  1  0
 14 15  1  0
 15 16  1  0
 15 33  1  0
 15 34  1  0
 16 35  1  0
 16 36  1  0
 16 37  1  0
M  END

