
     RDKit          3D

 37 39  0  0  0  0  0  0  0  0999 V2000
    2.7317    0.1773    0.9004 C   0  0  0  0  0  0  0  0  0  0  0  0
    2.8518   -0.7510   -0.1540 O   0  0  0  0  0  0  0  0  0  0  0  0
    3.4464   -0.3715   -1.3114 C   0  0  0  0  0  0  0  0  0  0  0  0
    3.5322   -1.3493   -2.3183 C   0  0  0  0  0  0  0  0  0  0  0  0
    4.1246   -1.0534   -3.5386 C   0  0  0  0  0  0  0  0  0  0  0  0
    4.6546    0.2261   -3.8038 C   0  0  0  0  0  0  0  0  0  0  0  0
    5.2804    0.5147   -5.1099 C   0  0  0  0  0  0  0  0  0  0  0  0
    5.8518    1.7130   -5.5016 C   0  0  0  0  0  0  0  0  0  0  0  0
    6.4622    1.6077   -7.1079 S   0  0  0  0  0  0  0  0  0  0  0  0
    5.9121   -0.0598   -7.1697 C   0  0  0  0  0  0  0  0  0  0  0  0
    6.1062   -0.8961   -8.3674 C   0  0  0  0  0  0  0  0  0  0  0  0
    6.7650   -0.2728   -9.4776 C   0  0  0  0  0  0  0  0  0  0  0  0
    7.3016    0.2589  -10.3610 N   0  0  0  0  0  0  0  0  0  0  0  0
    5.6648   -2.1906   -8.3731 C   0  0  0  0  0  0  0  0  0  0  0  0
    5.7146   -3.2326   -9.3876 C   0  0  0  0  0  0  0  0  0  0  0  0
    6.2802   -3.0974  -10.6776 C   0  0  0  0  0  0  0  0  0  0  0  0
    6.2771   -4.1590  -11.5771 C   0  0  0  0  0  0  0  0  0  0  0  0
    5.7073   -5.3841  -11.2084 C   0  0  0  0  0  0  0  0  0  0  0  0
    5.7057   -6.7108  -12.3387 Cl  0  0  0  0  0  0  0  0  0  0  0  0
    5.1397   -5.5517   -9.9411 C   0  0  0  0  0  0  0  0  0  0  0  0
    5.1481   -4.4839   -9.0491 C   0  0  0  0  0  0  0  0  0  0  0  0
    5.3318   -0.4624   -6.0734 N   0  0  0  0  0  0  0  0  0  0  0  0
    4.5615    1.1919   -2.7897 C   0  0  0  0  0  0  0  0  0  0  0  0
    3.9684    0.9088   -1.5574 C   0  0  0  0  0  0  0  0  0  0  0  0
    2.2263   -0.3466    1.7228 H   0  0  0  0  0  0  0  0  0  0  0  0
    2.1255    1.0544    0.6098 H   0  0  0  0  0  0  0  0  0  0  0  0
    3.7180    0.5289    1.2537 H   0  0  0  0  0  0  0  0  0  0  0  0
    3.1222   -2.3403   -2.1131 H   0  0  0  0  0  0  0  0  0  0  0  0
    4.1877   -1.8166   -4.3150 H   0  0  0  0  0  0  0  0  0  0  0  0
    5.9447    2.6375   -4.9371 H   0  0  0  0  0  0  0  0  0  0  0  0
    5.1871   -2.4847   -7.4342 H   0  0  0  0  0  0  0  0  0  0  0  0
    6.7299   -2.1560  -10.9901 H   0  0  0  0  0  0  0  0  0  0  0  0
    6.7161   -4.0436  -12.5692 H   0  0  0  0  0  0  0  0  0  0  0  0
    4.6984   -6.5102   -9.6639 H   0  0  0  0  0  0  0  0  0  0  0  0
    4.7044   -4.6154   -8.0589 H   0  0  0  0  0  0  0  0  0  0  0  0
    4.9569    2.1972   -2.9508 H   0  0  0  0  0  0  0  0  0  0  0  0
    3.9189    1.6914   -0.8004 H   0  0  0  0  0  0  0  0  0  0  0  0
  1  2  1  0
  1 25  1  0
  1 26  1  0
  1 27  1  0
  2  3  1  0
  3  4  2  0
  3 24  1  0
  4  5  1  0
  4 28  1  0
  5  6  2  0
  5 29  1  0
  6  7  1  0
  6 23  1  0
  7  8  2  0
  7 22  1  0
  8  9  1  0
  8 30  1  0
  9 10  1  0
 10 11  1  0
 10 22  2  0
 11 12  1  0
 11 14  2  0
 12 13  3  0
 14 15  1  0
 14 31  1  0
 15 16  2  0
 15 21  1  0
 16 17  1  0
 16 32  1  0
 17 18  2  0
 17 33  1  0
 18 19  1  0
 18 20  1  0
 20 21  2  0
 20 34  1  0
 21 35  1  0
 23 24  2  0
 23 36  1  0
 24 37  1  0
M  END

