
     RDKit          3D

 47 50  0  0  0  0  0  0  0  0999 V2000
    2.6503   -1.5706    0.7400 O   0  0  0  0  0  0  0  0  0  0  0  0
    2.1139   -0.3724    0.0860 S   0  0  1  0  0  0  0  0  0  0  0  0
    0.7256    0.0585    0.2781 O   0  0  0  0  0  0  0  0  0  0  0  0
    3.1496    1.0052    0.5954 C   0  0  0  0  0  0  0  0  0  0  0  0
    2.6113    2.2902    0.6868 C   0  0  0  0  0  0  0  0  0  0  0  0
    3.4646    3.3248    1.0718 C   0  0  0  0  0  0  0  0  0  0  0  0
    4.8024    3.0210    1.3477 C   0  0  0  0  0  0  0  0  0  0  0  0
    5.3097    1.7866    1.2775 N   0  0  0  0  0  0  0  0  0  0  0  0
    4.4978    0.7941    0.9139 C   0  0  0  0  0  0  0  0  0  0  0  0
    2.3784   -0.5436   -1.5457 N   0  0  0  0  0  0  0  0  0  0  0  0
    1.5023    0.0312   -2.5672 C   0  0  0  0  0  0  0  0  0  0  0  0
    1.1273   -1.1607   -3.4833 C   0  0  2  0  0  0  0  0  0  0  0  0
    1.1403   -0.8520   -4.5400 H   0  0  0  0  0  0  0  0  0  0  0  0
   -0.1628   -1.6740   -3.2150 O   0  0  0  0  0  0  0  0  0  0  0  0
   -0.0538   -2.7168   -2.2593 C   0  0  0  0  0  0  0  0  0  0  0  0
    1.2472   -3.4497   -2.6245 C   0  0  2  0  0  0  0  0  0  0  0  0
    1.0251   -4.0813   -3.5024 H   0  0  0  0  0  0  0  0  0  0  0  0
    1.8268   -4.3401   -1.5229 C   0  0  0  0  0  0  0  0  0  0  0  0
    0.9336   -5.5316   -1.2072 C   0  0  0  0  0  0  0  0  0  0  0  0
    1.6113   -6.3288   -0.2370 O   0  0  0  0  0  0  0  0  0  0  0  0
    1.0013   -7.4381    0.2202 C   0  0  0  0  0  0  0  0  0  0  0  0
    1.6901   -8.1965    1.1913 C   0  0  0  0  0  0  0  0  0  0  0  0
    1.0743   -9.3433    1.6709 C   0  0  0  0  0  0  0  0  0  0  0  0
   -0.1922   -9.7028    1.1814 C   0  0  0  0  0  0  0  0  0  0  0  0
   -0.7766   -8.8782    0.2246 C   0  0  0  0  0  0  0  0  0  0  0  0
   -0.1945   -7.7677   -0.2493 N   0  0  0  0  0  0  0  0  0  0  0  0
    2.1572   -2.2941   -3.1415 C   0  0  2  0  0  0  0  0  0  0  0  0
    2.7117   -2.6243   -4.0314 H   0  0  0  0  0  0  0  0  0  0  0  0
    3.1327   -1.6551   -2.1299 C   0  0  0  0  0  0  0  0  0  0  0  0
    1.5532    2.4583    0.4763 H   0  0  0  0  0  0  0  0  0  0  0  0
    3.0994    4.3500    1.1638 H   0  0  0  0  0  0  0  0  0  0  0  0
    5.4956    3.8156    1.6476 H   0  0  0  0  0  0  0  0  0  0  0  0
    4.9178   -0.2167    0.8844 H   0  0  0  0  0  0  0  0  0  0  0  0
    2.0441    0.8072   -3.1390 H   0  0  0  0  0  0  0  0  0  0  0  0
    0.6045    0.4749   -2.1196 H   0  0  0  0  0  0  0  0  0  0  0  0
   -0.9539   -3.3440   -2.3448 H   0  0  0  0  0  0  0  0  0  0  0  0
   -0.0127   -2.3154   -1.2276 H   0  0  0  0  0  0  0  0  0  0  0  0
    2.8143   -4.7251   -1.8309 H   0  0  0  0  0  0  0  0  0  0  0  0
    1.9845   -3.7610   -0.5987 H   0  0  0  0  0  0  0  0  0  0  0  0
    0.7281   -6.1367   -2.1075 H   0  0  0  0  0  0  0  0  0  0  0  0
   -0.0461   -5.2203   -0.8079 H   0  0  0  0  0  0  0  0  0  0  0  0
    2.6712   -7.8665    1.5359 H   0  0  0  0  0  0  0  0  0  0  0  0
    1.5735   -9.9585    2.4244 H   0  0  0  0  0  0  0  0  0  0  0  0
   -0.7078  -10.5974    1.5356 H   0  0  0  0  0  0  0  0  0  0  0  0
   -1.7644   -9.1177   -0.1862 H   0  0  0  0  0  0  0  0  0  0  0  0
    4.0197   -1.2605   -2.6586 H   0  0  0  0  0  0  0  0  0  0  0  0
    3.4825   -2.3359   -1.3462 H   0  0  0  0  0  0  0  0  0  0  0  0
  1  2  2  0
  2  3  2  0
  2  4  1  1
  2 10  1  0
  4  5  2  0
  4  9  1  0
  5  6  1  0
  5 30  1  0
  6  7  2  0
  6 31  1  0
  7  8  1  0
  7 32  1  0
  8  9  2  0
  9 33  1  0
 10 11  1  0
 10 29  1  0
 11 12  1  0
 11 34  1  0
 11 35  1  0
 12 13  1  6
 12 14  1  0
 12 27  1  0
 14 15  1  0
 15 16  1  0
 15 36  1  0
 15 37  1  0
 16 17  1  6
 16 18  1  0
 16 27  1  0
 18 19  1  0
 18 38  1  0
 18 39  1  0
 19 20  1  0
 19 40  1  0
 19 41  1  0
 20 21  1  0
 21 22  2  0
 21 26  1  0
 22 23  1  0
 22 42  1  0
 23 24  2  0
 23 43  1  0
 24 25  1  0
 24 44  1  0
 25 26  2  0
 25 45  1  0
 27 28  1  6
 27 29  1  0
 29 46  1  0
 29 47  1  0
M  END

