
     RDKit          3D

 30 31  0  0  0  0  0  0  0  0999 V2000
    1.2921    0.4135   -1.3773 O   0  0  0  0  0  0  0  0  0  0  0  0
    2.1593    0.0904   -0.5762 C   0  0  0  0  0  0  0  0  0  0  0  0
    2.4571   -1.1915   -0.2462 N   0  0  0  0  0  0  0  0  0  0  0  0
    1.7381   -2.3017   -0.8509 C   0  0  1  0  0  0  0  0  0  0  0  0
    2.4031   -2.8069   -2.1534 C   0  0  0  0  0  0  0  0  0  0  0  0
    3.7815   -3.4515   -1.9515 C   0  0  0  0  0  0  0  0  0  0  0  0
    3.7391   -4.6850   -1.0453 C   0  0  0  0  0  0  0  0  0  0  0  0
    3.0874   -4.2697    0.5975 S   0  0  2  0  0  0  0  0  0  0  0  0
    3.9748   -3.2373    1.1745 O   0  0  0  0  0  0  0  0  0  0  0  0
    2.7965   -5.5019    1.3366 O   0  0  0  0  0  0  0  0  0  0  0  0
    1.5300   -3.4379    0.1632 C   0  0  0  0  0  0  0  0  0  0  0  0
    2.9915    1.1341    0.1313 C   0  0  0  0  0  0  0  0  0  0  0  0
    2.7601    2.4935   -0.1107 C   0  0  0  0  0  0  0  0  0  0  0  0
    3.4812    3.4379    0.5022 N   0  0  0  0  0  0  0  0  0  0  0  0
    4.4254    3.0409    1.3470 C   0  0  0  0  0  0  0  0  0  0  0  0
    4.6516    1.6697    1.5819 C   0  0  0  0  0  0  0  0  0  0  0  0
    5.9013    1.1872    2.6955 Cl  0  0  0  0  0  0  0  0  0  0  0  0
    3.9449    0.7350    0.9829 N   0  0  0  0  0  0  0  0  0  0  0  0
    3.2084   -1.3763    0.4214 H   0  0  0  0  0  0  0  0  0  0  0  0
    0.7457   -1.9087   -1.1220 H   0  0  0  0  0  0  0  0  0  0  0  0
    2.4835   -1.9529   -2.8426 H   0  0  0  0  0  0  0  0  0  0  0  0
    1.7196   -3.5318   -2.6311 H   0  0  0  0  0  0  0  0  0  0  0  0
    4.4815   -2.7181   -1.5197 H   0  0  0  0  0  0  0  0  0  0  0  0
    4.2011   -3.7501   -2.9261 H   0  0  0  0  0  0  0  0  0  0  0  0
    4.7354   -5.1051   -0.8390 H   0  0  0  0  0  0  0  0  0  0  0  0
    3.0924   -5.4873   -1.4340 H   0  0  0  0  0  0  0  0  0  0  0  0
    1.1281   -3.0795    1.1229 H   0  0  0  0  0  0  0  0  0  0  0  0
    0.8648   -4.2191   -0.2329 H   0  0  0  0  0  0  0  0  0  0  0  0
    1.9783    2.7990   -0.8104 H   0  0  0  0  0  0  0  0  0  0  0  0
    5.0261    3.7999    1.8579 H   0  0  0  0  0  0  0  0  0  0  0  0
  1  2  2  0
  2  3  1  0
  2 12  1  0
  3  4  1  0
  3 19  1  0
  4  5  1  0
  4 11  1  0
  4 20  1  6
  5  6  1  0
  5 21  1  0
  5 22  1  0
  6  7  1  0
  6 23  1  0
  6 24  1  0
  8  7  1  6
  7 25  1  0
  7 26  1  0
  8  9  2  0
  8 10  2  0
  8 11  1  0
 11 27  1  0
 11 28  1  0
 12 13  2  0
 12 18  1  0
 13 14  1  0
 13 29  1  0
 14 15  2  0
 15 16  1  0
 15 30  1  0
 16 17  1  0
 16 18  2  0
M  END

