
     RDKit          3D

 54 60  0  0  0  0  0  0  0  0999 V2000
    0.8883   -0.0834    0.8310 F   0  0  0  0  0  0  0  0  0  0  0  0
    2.2499   -0.0732    0.5745 B   0  0  1  0  0  0  0  0  0  0  0  0
    2.5059   -0.1865   -0.7895 F   0  0  0  0  0  0  0  0  0  0  0  0
    2.8906    1.2583    1.0994 N   0  0  0  0  0  0  0  0  0  0  0  0
    2.6570    2.5412    0.7082 C   0  0  0  0  0  0  0  0  0  0  0  0
    1.6914    3.0147   -0.2622 C   0  0  0  0  0  0  0  0  0  0  0  0
    1.7708    4.2540   -0.8951 C   0  0  0  0  0  0  0  0  0  0  0  0
    0.6908    4.5171   -1.7693 C   0  0  0  0  0  0  0  0  0  0  0  0
   -0.2175    3.4817   -1.7944 C   0  0  0  0  0  0  0  0  0  0  0  0
    0.2350    2.1801   -0.7669 S   0  0  0  0  0  0  0  0  0  0  0  0
    3.5552    3.4045    1.4009 C   0  0  0  0  0  0  0  0  0  0  0  0
    4.3613    2.6370    2.2312 C   0  0  0  0  0  0  0  0  0  0  0  0
    5.4144    3.1171    3.1352 C   0  0  0  0  0  0  0  0  0  0  0  0
    5.3682    4.4374    3.6313 C   0  0  0  0  0  0  0  0  0  0  0  0
    6.3683    4.9248    4.4716 C   0  0  0  0  0  0  0  0  0  0  0  0
    7.4410    4.1045    4.8376 C   0  0  0  0  0  0  0  0  0  0  0  0
    7.5004    2.7934    4.3556 C   0  0  0  0  0  0  0  0  0  0  0  0
    6.5008    2.3013    3.5149 C   0  0  0  0  0  0  0  0  0  0  0  0
    3.9272    1.2744    2.0299 C   0  0  0  0  0  0  0  0  0  0  0  0
    4.3907    0.1943    2.6305 N   0  0  0  0  0  0  0  0  0  0  0  0
    3.9124   -1.0017    2.3418 C   0  0  0  0  0  0  0  0  0  0  0  0
    4.2893   -2.2576    2.9481 C   0  0  0  0  0  0  0  0  0  0  0  0
    5.2837   -2.4814    4.0051 C   0  0  0  0  0  0  0  0  0  0  0  0
    5.9133   -3.7391    4.1220 C   0  0  0  0  0  0  0  0  0  0  0  0
    6.8439   -3.9861    5.1302 C   0  0  0  0  0  0  0  0  0  0  0  0
    7.1691   -2.9820    6.0486 C   0  0  0  0  0  0  0  0  0  0  0  0
    6.5548   -1.7302    5.9457 C   0  0  0  0  0  0  0  0  0  0  0  0
    5.6234   -1.4784    4.9373 C   0  0  0  0  0  0  0  0  0  0  0  0
    3.5186   -3.2189    2.3067 C   0  0  0  0  0  0  0  0  0  0  0  0
    2.6974   -2.5756    1.3378 C   0  0  0  0  0  0  0  0  0  0  0  0
    1.7525   -3.2543    0.4794 C   0  0  0  0  0  0  0  0  0  0  0  0
    1.1566   -2.8644   -0.7121 C   0  0  0  0  0  0  0  0  0  0  0  0
    0.3004   -3.8552   -1.2564 C   0  0  0  0  0  0  0  0  0  0  0  0
    0.2402   -4.9949   -0.4872 C   0  0  0  0  0  0  0  0  0  0  0  0
    1.2299   -4.8761    0.9157 S   0  0  0  0  0  0  0  0  0  0  0  0
    2.9440   -1.2351    1.3672 N   0  0  0  0  0  0  0  0  0  0  0  0
    2.6063    4.9382   -0.7470 H   0  0  0  0  0  0  0  0  0  0  0  0
    0.5888    5.4287   -2.3594 H   0  0  0  0  0  0  0  0  0  0  0  0
   -1.1397    3.4163   -2.3714 H   0  0  0  0  0  0  0  0  0  0  0  0
    3.5841    4.4842    1.2858 H   0  0  0  0  0  0  0  0  0  0  0  0
    4.5245    5.0808    3.3727 H   0  0  0  0  0  0  0  0  0  0  0  0
    6.3072    5.9488    4.8489 H   0  0  0  0  0  0  0  0  0  0  0  0
    8.2259    4.4862    5.4955 H   0  0  0  0  0  0  0  0  0  0  0  0
    8.3367    2.1460    4.6318 H   0  0  0  0  0  0  0  0  0  0  0  0
    6.5574    1.2801    3.1397 H   0  0  0  0  0  0  0  0  0  0  0  0
    5.6860   -4.5248    3.3984 H   0  0  0  0  0  0  0  0  0  0  0  0
    7.3232   -4.9663    5.1963 H   0  0  0  0  0  0  0  0  0  0  0  0
    7.8977   -3.1753    6.8401 H   0  0  0  0  0  0  0  0  0  0  0  0
    6.7981   -0.9405    6.6613 H   0  0  0  0  0  0  0  0  0  0  0  0
    5.1456   -0.5019    4.8674 H   0  0  0  0  0  0  0  0  0  0  0  0
    3.5213   -4.2897    2.4968 H   0  0  0  0  0  0  0  0  0  0  0  0
    1.3624   -1.9044   -1.1801 H   0  0  0  0  0  0  0  0  0  0  0  0
   -0.2517   -3.7319   -2.1892 H   0  0  0  0  0  0  0  0  0  0  0  0
   -0.3429   -5.8973   -0.6670 H   0  0  0  0  0  0  0  0  0  0  0  0
  2  1  1  6
  2  3  1  0
  2  4  1  0
  2 36  1  0
  4  5  1  0
  4 19  1  0
  5  6  2  0
  5 11  1  0
  6  7  1  0
  6 10  1  0
  7  8  2  0
  7 37  1  0
  8  9  1  0
  8 38  1  0
  9 10  2  0
  9 39  1  0
 11 12  2  0
 11 40  1  0
 12 13  1  0
 12 19  1  0
 13 14  2  0
 13 18  1  0
 14 15  1  0
 14 41  1  0
 15 16  2  0
 15 42  1  0
 16 17  1  0
 16 43  1  0
 17 18  2  0
 17 44  1  0
 18 45  1  0
 19 20  2  0
 20 21  1  0
 21 22  2  0
 21 36  1  0
 22 23  1  0
 22 29  1  0
 23 24  2  0
 23 28  1  0
 24 25  1  0
 24 46  1  0
 25 26  2  0
 25 47  1  0
 26 27  1  0
 26 48  1  0
 27 28  2  0
 27 49  1  0
 28 50  1  0
 29 30  2  0
 29 51  1  0
 30 31  1  0
 30 36  1  0
 31 32  2  0
 31 35  1  0
 32 33  1  0
 32 52  1  0
 33 34  2  0
 33 53  1  0
 34 35  1  0
 34 54  1  0
M  CHG  2   2  -1  10   1
M  END

