
     RDKit          3D

 56 60  0  0  0  0  0  0  0  0999 V2000
    2.5493   -1.8072   -1.1988 C   0  0  0  0  0  0  0  0  0  0  0  0
    2.6683   -0.6350   -0.4372 O   0  0  0  0  0  0  0  0  0  0  0  0
    3.7599    0.1791   -0.8102 C   0  0  0  0  0  0  0  0  0  0  0  0
    3.7982    1.3218    0.2180 C   0  0  1  0  0  0  0  0  0  0  0  0
    4.3884    0.8923    1.5628 C   0  0  0  0  0  0  0  0  0  0  0  0
    4.4250    2.5599   -0.3079 N   0  0  0  0  0  0  0  0  0  0  0  0
    5.6900    2.4278   -0.9020 C   0  0  0  0  0  0  0  0  0  0  0  0
    6.2824    1.3630   -0.9208 O   0  0  0  0  0  0  0  0  0  0  0  0
    6.2310    3.6457   -1.5013 C   0  0  0  0  0  0  0  0  0  0  0  0
    7.3772    3.9158   -2.2456 C   0  0  0  0  0  0  0  0  0  0  0  0
    8.3852    2.9738   -2.7501 C   0  0  0  0  0  0  0  0  0  0  0  0
    9.6716    3.2119   -2.6454 N   0  0  0  0  0  0  0  0  0  0  0  0
   10.2530    2.1164   -3.2648 O   0  0  0  0  0  0  0  0  0  0  0  0
    9.2555    1.3192   -3.6791 C   0  0  0  0  0  0  0  0  0  0  0  0
    9.6066    0.0652   -4.4440 C   0  0  1  0  0  0  0  0  0  0  0  0
   10.7986   -0.5205   -3.9404 O   0  0  0  0  0  0  0  0  0  0  0  0
   10.7915   -0.9759   -2.6058 C   0  0  0  0  0  0  0  0  0  0  0  0
    8.4363   -0.9337   -4.5315 C   0  0  0  0  0  0  0  0  0  0  0  0
    8.8390   -1.8712   -5.6858 C   0  0  0  0  0  0  0  0  0  0  0  0
    9.7399   -1.0190   -6.6266 C   0  0  0  0  0  0  0  0  0  0  0  0
    9.8917    0.3534   -5.9343 C   0  0  0  0  0  0  0  0  0  0  0  0
    8.0822    1.7940   -3.3920 N   0  0  0  0  0  0  0  0  0  0  0  0
    7.4498    5.2547   -2.5081 N   0  0  0  0  0  0  0  0  0  0  0  0
    6.3894    5.7997   -1.9557 C   0  0  0  0  0  0  0  0  0  0  0  0
    5.6041    4.8679   -1.3295 N   0  0  0  0  0  0  0  0  0  0  0  0
    4.4080    4.9992   -0.6028 C   0  0  0  0  0  0  0  0  0  0  0  0
    3.8210    6.2528   -0.3943 C   0  0  0  0  0  0  0  0  0  0  0  0
    2.6449    6.3700    0.3399 C   0  0  0  0  0  0  0  0  0  0  0  0
    2.0629    5.2192    0.8770 C   0  0  0  0  0  0  0  0  0  0  0  0
    2.6419    3.9684    0.6747 C   0  0  0  0  0  0  0  0  0  0  0  0
    3.8234    3.8147   -0.0814 C   0  0  0  0  0  0  0  0  0  0  0  0
    1.6809   -2.3670   -0.8211 H   0  0  0  0  0  0  0  0  0  0  0  0
    3.4489   -2.4497   -1.1157 H   0  0  0  0  0  0  0  0  0  0  0  0
    2.3871   -1.5893   -2.2741 H   0  0  0  0  0  0  0  0  0  0  0  0
    3.6133    0.5921   -1.8294 H   0  0  0  0  0  0  0  0  0  0  0  0
    4.7003   -0.3956   -0.8167 H   0  0  0  0  0  0  0  0  0  0  0  0
    2.7370    1.5535    0.3550 H   0  0  0  0  0  0  0  0  0  0  0  0
    5.4587    0.6635    1.4595 H   0  0  0  0  0  0  0  0  0  0  0  0
    3.8645   -0.0105    1.9103 H   0  0  0  0  0  0  0  0  0  0  0  0
    4.2656    1.6789    2.3236 H   0  0  0  0  0  0  0  0  0  0  0  0
   11.8113   -1.3235   -2.3867 H   0  0  0  0  0  0  0  0  0  0  0  0
   10.0955   -1.8200   -2.4461 H   0  0  0  0  0  0  0  0  0  0  0  0
   10.5385   -0.1742   -1.8878 H   0  0  0  0  0  0  0  0  0  0  0  0
    7.5234   -0.3674   -4.7674 H   0  0  0  0  0  0  0  0  0  0  0  0
    8.2452   -1.4517   -3.5804 H   0  0  0  0  0  0  0  0  0  0  0  0
    7.9555   -2.2785   -6.2008 H   0  0  0  0  0  0  0  0  0  0  0  0
    9.4051   -2.7309   -5.2969 H   0  0  0  0  0  0  0  0  0  0  0  0
    9.3059   -0.9094   -7.6322 H   0  0  0  0  0  0  0  0  0  0  0  0
   10.7232   -1.4946   -6.7518 H   0  0  0  0  0  0  0  0  0  0  0  0
    9.1432    1.0706   -6.3058 H   0  0  0  0  0  0  0  0  0  0  0  0
   10.8873    0.8049   -6.0508 H   0  0  0  0  0  0  0  0  0  0  0  0
    6.1402    6.8585   -1.9837 H   0  0  0  0  0  0  0  0  0  0  0  0
    4.2938    7.1433   -0.8096 H   0  0  0  0  0  0  0  0  0  0  0  0
    2.1936    7.3515    0.4970 H   0  0  0  0  0  0  0  0  0  0  0  0
    1.1475    5.2894    1.4687 H   0  0  0  0  0  0  0  0  0  0  0  0
    2.1638    3.1022    1.1259 H   0  0  0  0  0  0  0  0  0  0  0  0
  1  2  1  0
  1 32  1  0
  1 33  1  0
  1 34  1  0
  2  3  1  0
  3  4  1  0
  3 35  1  0
  3 36  1  0
  4  5  1  0
  4  6  1  0
  4 37  1  1
  5 38  1  0
  5 39  1  0
  5 40  1  0
  6  7  1  0
  6 31  1  0
  7  8  2  0
  7  9  1  0
  9 10  2  0
  9 25  1  0
 10 11  1  0
 10 23  1  0
 11 12  2  0
 11 22  1  0
 12 13  1  0
 13 14  1  0
 14 15  1  0
 14 22  2  0
 15 16  1  1
 15 18  1  0
 15 21  1  0
 16 17  1  0
 17 41  1  0
 17 42  1  0
 17 43  1  0
 18 19  1  0
 18 44  1  0
 18 45  1  0
 19 20  1  0
 19 46  1  0
 19 47  1  0
 20 21  1  0
 20 48  1  0
 20 49  1  0
 21 50  1  0
 21 51  1  0
 23 24  2  0
 24 25  1  0
 24 52  1  0
 25 26  1  0
 26 27  1  0
 26 31  2  0
 27 28  2  0
 27 53  1  0
 28 29  1  0
 28 54  1  0
 29 30  2  0
 29 55  1  0
 30 31  1  0
 30 56  1  0
M  END

