
     RDKit          3D

 52 53  0  0  0  0  0  0  0  0999 V2000
    0.9754    0.3755   -1.6039 C   0  0  0  0  0  0  0  0  0  0  0  0
    2.4415    0.6367   -1.2847 C   0  0  1  0  0  0  0  0  0  0  0  0
    2.6340    1.4722   -0.0209 C   0  0  0  0  0  0  0  0  0  0  0  0
    3.0436   -0.6573   -1.1327 O   0  0  0  0  0  0  0  0  0  0  0  0
    4.3733   -0.8494   -1.2590 C   0  0  0  0  0  0  0  0  0  0  0  0
    5.2809    0.1372   -1.6558 C   0  0  0  0  0  0  0  0  0  0  0  0
    6.6486   -0.1477   -1.7447 C   0  0  0  0  0  0  0  0  0  0  0  0
    7.4812    0.8949   -2.0491 O   0  0  0  0  0  0  0  0  0  0  0  0
    8.1181    0.9286   -3.3444 C   0  0  1  0  0  0  0  0  0  0  0  0
    7.1168    1.3194   -4.4282 C   0  0  0  0  0  0  0  0  0  0  0  0
    9.2753    1.9078   -3.2218 C   0  0  0  0  0  0  0  0  0  0  0  0
    7.1496   -1.4346   -1.4740 C   0  0  0  0  0  0  0  0  0  0  0  0
    8.6218   -1.6948   -1.4555 C   0  0  0  0  0  0  0  0  0  0  0  0
    9.4309   -1.0343   -0.5144 C   0  0  0  0  0  0  0  0  0  0  0  0
   10.8105   -1.2537   -0.4727 C   0  0  0  0  0  0  0  0  0  0  0  0
   11.4107   -2.1371   -1.3748 C   0  0  0  0  0  0  0  0  0  0  0  0
   10.6195   -2.7965   -2.3201 C   0  0  0  0  0  0  0  0  0  0  0  0
    9.2400   -2.5763   -2.3584 C   0  0  0  0  0  0  0  0  0  0  0  0
    6.2291   -2.4514   -1.0994 C   0  0  0  0  0  0  0  0  0  0  0  0
    6.7678   -3.6524   -0.7717 O   0  0  0  0  0  0  0  0  0  0  0  0
    6.3691   -4.9232   -1.3442 C   0  0  1  0  0  0  0  0  0  0  0  0
    6.1195   -4.8449   -2.8458 C   0  0  0  0  0  0  0  0  0  0  0  0
    7.4842   -5.8894   -0.9711 C   0  0  0  0  0  0  0  0  0  0  0  0
    4.8610   -2.1441   -0.9672 C   0  0  0  0  0  0  0  0  0  0  0  0
    3.6130   -3.4035   -0.2629 Br  0  0  0  0  0  0  0  0  0  0  0  0
    0.4400    1.3253   -1.7559 H   0  0  0  0  0  0  0  0  0  0  0  0
    0.4948   -0.1695   -0.7766 H   0  0  0  0  0  0  0  0  0  0  0  0
    0.8801   -0.2318   -2.5162 H   0  0  0  0  0  0  0  0  0  0  0  0
    2.9054    1.1487   -2.1468 H   0  0  0  0  0  0  0  0  0  0  0  0
    2.1646    0.9698    0.8394 H   0  0  0  0  0  0  0  0  0  0  0  0
    2.1685    2.4631   -0.1422 H   0  0  0  0  0  0  0  0  0  0  0  0
    3.6992    1.6219    0.2088 H   0  0  0  0  0  0  0  0  0  0  0  0
    4.9646    1.1535   -1.8805 H   0  0  0  0  0  0  0  0  0  0  0  0
    8.5169   -0.0765   -3.5657 H   0  0  0  0  0  0  0  0  0  0  0  0
    6.7133    2.3277   -4.2394 H   0  0  0  0  0  0  0  0  0  0  0  0
    6.2748    0.6114   -4.4694 H   0  0  0  0  0  0  0  0  0  0  0  0
    7.6041    1.3216   -5.4163 H   0  0  0  0  0  0  0  0  0  0  0  0
    8.9025    2.9070   -2.9444 H   0  0  0  0  0  0  0  0  0  0  0  0
    9.8145    1.9903   -4.1783 H   0  0  0  0  0  0  0  0  0  0  0  0
    9.9822    1.5741   -2.4484 H   0  0  0  0  0  0  0  0  0  0  0  0
    8.9679   -0.3428    0.1927 H   0  0  0  0  0  0  0  0  0  0  0  0
   11.4188   -0.7336    0.2720 H   0  0  0  0  0  0  0  0  0  0  0  0
   12.4895   -2.3100   -1.3424 H   0  0  0  0  0  0  0  0  0  0  0  0
   11.0785   -3.4852   -3.0346 H   0  0  0  0  0  0  0  0  0  0  0  0
    8.6326   -3.0870   -3.1077 H   0  0  0  0  0  0  0  0  0  0  0  0
    5.4390   -5.2463   -0.8521 H   0  0  0  0  0  0  0  0  0  0  0  0
    7.0320   -4.5640   -3.3939 H   0  0  0  0  0  0  0  0  0  0  0  0
    5.3279   -4.1208   -3.0890 H   0  0  0  0  0  0  0  0  0  0  0  0
    5.7930   -5.8308   -3.2124 H   0  0  0  0  0  0  0  0  0  0  0  0
    8.4316   -5.6032   -1.4537 H   0  0  0  0  0  0  0  0  0  0  0  0
    7.2220   -6.9126   -1.2827 H   0  0  0  0  0  0  0  0  0  0  0  0
    7.6406   -5.8864    0.1179 H   0  0  0  0  0  0  0  0  0  0  0  0
  1  2  1  0
  1 26  1  0
  1 27  1  0
  1 28  1  0
  2  3  1  0
  2  4  1  0
  2 29  1  6
  3 30  1  0
  3 31  1  0
  3 32  1  0
  4  5  1  0
  5  6  2  0
  5 24  1  0
  6  7  1  0
  6 33  1  0
  7  8  1  0
  7 12  2  0
  8  9  1  0
  9 10  1  0
  9 11  1  0
  9 34  1  6
 10 35  1  0
 10 36  1  0
 10 37  1  0
 11 38  1  0
 11 39  1  0
 11 40  1  0
 12 13  1  0
 12 19  1  0
 13 14  2  0
 13 18  1  0
 14 15  1  0
 14 41  1  0
 15 16  2  0
 15 42  1  0
 16 17  1  0
 16 43  1  0
 17 18  2  0
 17 44  1  0
 18 45  1  0
 19 20  1  0
 19 24  2  0
 20 21  1  0
 21 22  1  0
 21 23  1  0
 21 46  1  1
 22 47  1  0
 22 48  1  0
 22 49  1  0
 23 50  1  0
 23 51  1  0
 23 52  1  0
 24 25  1  0
M  END

