
     RDKit          3D

 41 42  0  0  0  0  0  0  0  0999 V2000
    5.7278   -5.7322   -1.2241 C   0  0  0  0  0  0  0  0  0  0  0  0
    5.5117   -4.9481    0.0710 C   0  0  0  0  0  0  0  0  0  0  0  0
    6.3551   -3.6726    0.1623 C   0  0  0  0  0  0  0  0  0  0  0  0
    6.1439   -2.8833    1.4578 C   0  0  0  0  0  0  0  0  0  0  0  0
    6.9857   -1.6053    1.5245 C   0  0  0  0  0  0  0  0  0  0  0  0
    6.7654   -0.7454    2.7726 C   0  0  2  0  0  0  0  0  0  0  0  0
    5.6832   -0.5583    2.8846 H   0  0  0  0  0  0  0  0  0  0  0  0
    7.4646    0.6475    2.6572 C   0  0  1  0  0  0  0  0  0  0  0  0
    8.4010    0.5588    2.0794 H   0  0  0  0  0  0  0  0  0  0  0  0
    6.5656    1.6373    1.9116 C   0  0  0  0  0  0  0  0  0  0  0  0
    6.5409    1.7188    0.7135 O   0  0  0  0  0  0  0  0  0  0  0  0
    5.7547    2.3615    2.7014 O   0  0  0  0  0  0  0  0  0  0  0  0
    7.6941    1.0176    4.0443 N   0  0  0  0  0  0  0  0  0  0  0  0
    7.7331   -0.0668    4.9136 C   0  0  0  0  0  0  0  0  0  0  0  0
    8.0865   -0.0185    6.0651 O   0  0  0  0  0  0  0  0  0  0  0  0
    7.2892   -1.3102    4.1177 C   0  0  1  0  0  0  0  0  0  0  0  0
    8.2296   -1.8590    3.9261 H   0  0  0  0  0  0  0  0  0  0  0  0
    6.3648   -2.2161    4.9050 C   0  0  0  0  0  0  0  0  0  0  0  0
    6.7818   -3.4971    5.2935 C   0  0  0  0  0  0  0  0  0  0  0  0
    5.9412   -4.3333    6.0341 C   0  0  0  0  0  0  0  0  0  0  0  0
    4.6658   -3.8977    6.4013 C   0  0  0  0  0  0  0  0  0  0  0  0
    4.2404   -2.6189    6.0275 C   0  0  0  0  0  0  0  0  0  0  0  0
    5.0836   -1.7870    5.2881 C   0  0  0  0  0  0  0  0  0  0  0  0
    5.1059   -6.6411   -1.2559 H   0  0  0  0  0  0  0  0  0  0  0  0
    6.7799   -6.0454   -1.3329 H   0  0  0  0  0  0  0  0  0  0  0  0
    5.4734   -5.1240   -2.1083 H   0  0  0  0  0  0  0  0  0  0  0  0
    5.7383   -5.5957    0.9376 H   0  0  0  0  0  0  0  0  0  0  0  0
    4.4432   -4.6831    0.1682 H   0  0  0  0  0  0  0  0  0  0  0  0
    6.1288   -3.0217   -0.7027 H   0  0  0  0  0  0  0  0  0  0  0  0
    7.4252   -3.9360    0.0649 H   0  0  0  0  0  0  0  0  0  0  0  0
    6.3690   -3.5319    2.3217 H   0  0  0  0  0  0  0  0  0  0  0  0
    5.0751   -2.6189    1.5553 H   0  0  0  0  0  0  0  0  0  0  0  0
    6.7654   -0.9801    0.6422 H   0  0  0  0  0  0  0  0  0  0  0  0
    8.0595   -1.8613    1.4546 H   0  0  0  0  0  0  0  0  0  0  0  0
    5.9692    2.1445    3.6279 H   0  0  0  0  0  0  0  0  0  0  0  0
    8.2604    1.8269    4.2889 H   0  0  0  0  0  0  0  0  0  0  0  0
    7.7807   -3.8444    5.0148 H   0  0  0  0  0  0  0  0  0  0  0  0
    6.2866   -5.3284    6.3259 H   0  0  0  0  0  0  0  0  0  0  0  0
    4.0065   -4.5492    6.9802 H   0  0  0  0  0  0  0  0  0  0  0  0
    3.2477   -2.2650    6.3170 H   0  0  0  0  0  0  0  0  0  0  0  0
    4.7373   -0.7858    5.0155 H   0  0  0  0  0  0  0  0  0  0  0  0
  1  2  1  0
  1 24  1  0
  1 25  1  0
  1 26  1  0
  2  3  1  0
  2 27  1  0
  2 28  1  0
  3  4  1  0
  3 29  1  0
  3 30  1  0
  4  5  1  0
  4 31  1  0
  4 32  1  0
  5  6  1  0
  5 33  1  0
  5 34  1  0
  6  7  1  1
  6  8  1  0
  6 16  1  0
  8  9  1  6
  8 10  1  0
  8 13  1  0
 10 11  2  0
 10 12  1  0
 12 35  1  0
 13 14  1  0
 13 36  1  0
 14 15  2  0
 14 16  1  0
 16 17  1  6
 16 18  1  0
 18 19  2  0
 18 23  1  0
 19 20  1  0
 19 37  1  0
 20 21  2  0
 20 38  1  0
 21 22  1  0
 21 39  1  0
 22 23  2  0
 22 40  1  0
 23 41  1  0
M  END

