
     RDKit          3D

 89 92  0  0  0  0  0  0  0  0999 V2000
   -5.7669    5.2859   -5.9881 C   0  0  0  0  0  0  0  0  0  0  0  0
   -5.6897    4.3332   -4.8146 C   0  0  0  0  0  0  0  0  0  0  0  0
   -6.8191    3.5687   -4.4751 C   0  0  0  0  0  0  0  0  0  0  0  0
   -6.8070    2.6792   -3.4000 C   0  0  0  0  0  0  0  0  0  0  0  0
   -5.6479    2.5402   -2.6329 C   0  0  0  0  0  0  0  0  0  0  0  0
   -4.5170    3.2914   -2.9539 C   0  0  0  0  0  0  0  0  0  0  0  0
   -4.5186    4.1864   -4.0372 C   0  0  0  0  0  0  0  0  0  0  0  0
   -3.2540    4.9796   -4.3300 C   0  0  0  0  0  0  0  0  0  0  0  0
   -2.0858    4.1305   -4.5235 N   0  0  0  0  0  0  0  0  0  0  0  0
   -1.0124    4.1486   -3.6913 C   0  0  0  0  0  0  0  0  0  0  0  0
   -0.8716    4.9299   -2.7624 O   0  0  0  0  0  0  0  0  0  0  0  0
    0.0416    3.0537   -3.9595 C   0  0  2  0  0  0  0  0  0  0  0  0
    0.8934    3.2718   -3.3047 H   0  0  0  0  0  0  0  0  0  0  0  0
    0.4784    2.9217   -5.4407 C   0  0  1  0  0  0  0  0  0  0  0  0
    0.3388    3.8685   -5.9826 H   0  0  0  0  0  0  0  0  0  0  0  0
    1.9072    2.4208   -5.6152 C   0  0  0  0  0  0  0  0  0  0  0  0
   -0.4991    2.0096   -5.9654 O   0  0  0  0  0  0  0  0  0  0  0  0
   -0.6891    1.0060   -5.0011 C   0  0  0  0  0  0  0  0  0  0  0  0
   -0.4990    1.7098   -3.7207 N   0  0  0  0  0  0  0  0  0  0  0  0
   -0.8565    1.1249   -2.5614 C   0  0  0  0  0  0  0  0  0  0  0  0
   -1.3449   -0.0097   -2.5348 O   0  0  0  0  0  0  0  0  0  0  0  0
   -0.6503    1.8332   -1.2140 C   0  0  1  0  0  0  0  0  0  0  0  0
   -0.5243    2.9198   -1.3237 H   0  0  0  0  0  0  0  0  0  0  0  0
   -1.8133    1.6142   -0.4497 O   0  0  0  0  0  0  0  0  0  0  0  0
    0.6096    1.2304   -0.5194 C   0  0  2  0  0  0  0  0  0  0  0  0
    0.4934    0.1375   -0.5491 H   0  0  0  0  0  0  0  0  0  0  0  0
    0.7225    1.6421    0.9687 C   0  0  0  0  0  0  0  0  0  0  0  0
    1.0008    3.1113    1.2052 C   0  0  0  0  0  0  0  0  0  0  0  0
   -0.0485    4.0466    1.2469 C   0  0  0  0  0  0  0  0  0  0  0  0
    0.2134    5.4053    1.4386 C   0  0  0  0  0  0  0  0  0  0  0  0
    1.5286    5.8543    1.5958 C   0  0  0  0  0  0  0  0  0  0  0  0
    2.5810    4.9354    1.5623 C   0  0  0  0  0  0  0  0  0  0  0  0
    2.3173    3.5756    1.3683 C   0  0  0  0  0  0  0  0  0  0  0  0
    1.8051    1.5875   -1.2719 N   0  0  0  0  0  0  0  0  0  0  0  0
    2.6767    0.8317   -1.9942 C   0  0  0  0  0  0  0  0  0  0  0  0
    3.5939    1.3722   -2.6094 O   0  0  0  0  0  0  0  0  0  0  0  0
    2.4934   -0.7030   -2.0303 C   0  0  1  0  0  0  0  0  0  0  0  0
    2.1646   -1.0540   -1.0321 H   0  0  0  0  0  0  0  0  0  0  0  0
    1.5387   -1.0330   -3.0958 N   0  0  0  0  0  0  0  0  0  0  0  0
    3.8396   -1.3804   -2.3385 C   0  0  0  0  0  0  0  0  0  0  0  0
    4.8694   -1.2861   -1.2101 C   0  0  0  0  0  0  0  0  0  0  0  0
    4.9971   -2.1607   -0.3869 O   0  0  0  0  0  0  0  0  0  0  0  0
    5.6161   -0.1084   -1.2374 N   0  0  0  0  0  0  0  0  0  0  0  0
    6.6245    0.2544   -0.3518 C   0  0  0  0  0  0  0  0  0  0  0  0
    7.0915   -0.4170    0.5302 O   0  0  0  0  0  0  0  0  0  0  0  0
    7.0134    1.5148   -0.6625 O   0  0  0  0  0  0  0  0  0  0  0  0
    8.0617    2.0948    0.1401 C   0  0  0  0  0  0  0  0  0  0  0  0
    7.5147    2.9017    1.2941 C   0  0  0  0  0  0  0  0  0  0  0  0
    7.1188    2.2697    2.4855 C   0  0  0  0  0  0  0  0  0  0  0  0
    6.5983    3.0185    3.5439 C   0  0  0  0  0  0  0  0  0  0  0  0
    6.4713    4.4073    3.4292 C   0  0  0  0  0  0  0  0  0  0  0  0
    6.8656    5.0449    2.2489 C   0  0  0  0  0  0  0  0  0  0  0  0
    7.3815    4.2939    1.1882 C   0  0  0  0  0  0  0  0  0  0  0  0
   -6.7501    5.2219   -6.4763 H   0  0  0  0  0  0  0  0  0  0  0  0
   -5.0055    5.0655   -6.7551 H   0  0  0  0  0  0  0  0  0  0  0  0
   -5.6209    6.3352   -5.6818 H   0  0  0  0  0  0  0  0  0  0  0  0
   -7.7282    3.6764   -5.0736 H   0  0  0  0  0  0  0  0  0  0  0  0
   -7.7015    2.0979   -3.1622 H   0  0  0  0  0  0  0  0  0  0  0  0
   -5.6224    1.8527   -1.7838 H   0  0  0  0  0  0  0  0  0  0  0  0
   -3.6169    3.1794   -2.3426 H   0  0  0  0  0  0  0  0  0  0  0  0
   -3.0069    5.6377   -3.4831 H   0  0  0  0  0  0  0  0  0  0  0  0
   -3.3879    5.6235   -5.2108 H   0  0  0  0  0  0  0  0  0  0  0  0
   -2.1038    3.4312   -5.2619 H   0  0  0  0  0  0  0  0  0  0  0  0
    2.6218    3.1847   -5.2725 H   0  0  0  0  0  0  0  0  0  0  0  0
    2.0987    2.2152   -6.6792 H   0  0  0  0  0  0  0  0  0  0  0  0
    2.1019    1.5067   -5.0347 H   0  0  0  0  0  0  0  0  0  0  0  0
    0.0494    0.1879   -5.0795 H   0  0  0  0  0  0  0  0  0  0  0  0
   -1.7054    0.5944   -5.0855 H   0  0  0  0  0  0  0  0  0  0  0  0
   -2.1207    0.7225   -0.6942 H   0  0  0  0  0  0  0  0  0  0  0  0
    1.5259    1.0352    1.4157 H   0  0  0  0  0  0  0  0  0  0  0  0
   -0.2204    1.3529    1.4540 H   0  0  0  0  0  0  0  0  0  0  0  0
   -1.0786    3.7010    1.1270 H   0  0  0  0  0  0  0  0  0  0  0  0
   -0.6154    6.1173    1.4646 H   0  0  0  0  0  0  0  0  0  0  0  0
    1.7314    6.9176    1.7472 H   0  0  0  0  0  0  0  0  0  0  0  0
    3.6131    5.2700    1.6934 H   0  0  0  0  0  0  0  0  0  0  0  0
    3.1481    2.8641    1.3591 H   0  0  0  0  0  0  0  0  0  0  0  0
    2.0662    2.5728   -1.2482 H   0  0  0  0  0  0  0  0  0  0  0  0
    0.5698   -0.9732   -2.7770 H   0  0  0  0  0  0  0  0  0  0  0  0
    1.6819   -1.9955   -3.3999 H   0  0  0  0  0  0  0  0  0  0  0  0
    4.2313   -0.9631   -3.2775 H   0  0  0  0  0  0  0  0  0  0  0  0
    3.6544   -2.4563   -2.4692 H   0  0  0  0  0  0  0  0  0  0  0  0
    5.3110    0.6074   -1.9013 H   0  0  0  0  0  0  0  0  0  0  0  0
    8.6219    2.7389   -0.5515 H   0  0  0  0  0  0  0  0  0  0  0  0
    8.7147    1.2872    0.4991 H   0  0  0  0  0  0  0  0  0  0  0  0
    7.2170    1.1849    2.5705 H   0  0  0  0  0  0  0  0  0  0  0  0
    6.2952    2.5161    4.4662 H   0  0  0  0  0  0  0  0  0  0  0  0
    6.0691    4.9918    4.2607 H   0  0  0  0  0  0  0  0  0  0  0  0
    6.7757    6.1304    2.1549 H   0  0  0  0  0  0  0  0  0  0  0  0
    7.6891    4.7963    0.2664 H   0  0  0  0  0  0  0  0  0  0  0  0
  1  2  1  0
  1 54  1  0
  1 55  1  0
  1 56  1  0
  2  3  2  0
  2  7  1  0
  3  4  1  0
  3 57  1  0
  4  5  2  0
  4 58  1  0
  5  6  1  0
  5 59  1  0
  6  7  2  0
  6 60  1  0
  7  8  1  0
  8  9  1  0
  8 61  1  0
  8 62  1  0
  9 10  1  0
  9 63  1  0
 10 11  2  0
 10 12  1  0
 12 13  1  1
 12 14  1  0
 12 19  1  0
 14 15  1  6
 14 16  1  0
 14 17  1  0
 16 64  1  0
 16 65  1  0
 16 66  1  0
 17 18  1  0
 18 19  1  0
 18 67  1  0
 18 68  1  0
 19 20  1  0
 20 21  2  0
 20 22  1  0
 22 23  1  6
 22 24  1  0
 22 25  1  0
 24 69  1  0
 25 26  1  1
 25 27  1  0
 25 34  1  0
 27 28  1  0
 27 70  1  0
 27 71  1  0
 28 29  2  0
 28 33  1  0
 29 30  1  0
 29 72  1  0
 30 31  2  0
 30 73  1  0
 31 32  1  0
 31 74  1  0
 32 33  2  0
 32 75  1  0
 33 76  1  0
 34 35  1  0
 34 77  1  0
 35 36  2  0
 35 37  1  0
 37 38  1  1
 37 39  1  0
 37 40  1  0
 39 78  1  0
 39 79  1  0
 40 41  1  0
 40 80  1  0
 40 81  1  0
 41 42  2  0
 41 43  1  0
 43 44  1  0
 43 82  1  0
 44 45  2  0
 44 46  1  0
 46 47  1  0
 47 48  1  0
 47 83  1  0
 47 84  1  0
 48 49  2  0
 48 53  1  0
 49 50  1  0
 49 85  1  0
 50 51  2  0
 50 86  1  0
 51 52  1  0
 51 87  1  0
 52 53  2  0
 52 88  1  0
 53 89  1  0
M  END

