
     RDKit          3D

 43 42  0  0  0  0  0  0  0  0999 V2000
    5.1406    2.7873    5.7452 C   0  0  0  0  0  0  0  0  0  0  0  0
    4.7333    2.3592    4.3350 C   0  0  0  0  0  0  0  0  0  0  0  0
    5.1910    1.0251    3.9881 N   0  0  0  0  0  0  0  0  0  0  0  0
    4.3546   -0.0335    3.8404 C   0  0  0  0  0  0  0  0  0  0  0  0
    3.1409    0.0276    3.9518 O   0  0  0  0  0  0  0  0  0  0  0  0
    5.0321   -1.3791    3.4490 C   0  0  1  0  0  0  0  0  0  0  0  0
    4.4144   -2.5141    4.2693 C   0  0  0  0  0  0  0  0  0  0  0  0
    4.7908   -1.5822    1.9364 C   0  0  0  0  0  0  0  0  0  0  0  0
    6.5022   -1.2369    3.6180 N   0  0  0  0  0  0  0  0  0  0  0  0
    7.1020   -2.2696    3.9256 N   0  0  0  0  0  0  0  0  0  0  0  0
    8.5801   -2.1618    4.0515 C   0  0  1  0  0  0  0  0  0  0  0  0
    9.1514   -0.7531    3.8462 C   0  0  0  0  0  0  0  0  0  0  0  0
    8.9292   -2.7181    5.4358 C   0  0  0  0  0  0  0  0  0  0  0  0
    9.1631   -3.1191    2.9632 C   0  0  0  0  0  0  0  0  0  0  0  0
   10.0897   -3.8750    3.1917 O   0  0  0  0  0  0  0  0  0  0  0  0
    8.5714   -3.0054    1.7416 N   0  0  0  0  0  0  0  0  0  0  0  0
    8.8221   -3.9349    0.6521 C   0  0  0  0  0  0  0  0  0  0  0  0
    8.0012   -5.2223    0.8073 C   0  0  0  0  0  0  0  0  0  0  0  0
    6.6277   -4.9594    1.0293 O   0  0  0  0  0  0  0  0  0  0  0  0
    4.7844    3.8084    5.9566 H   0  0  0  0  0  0  0  0  0  0  0  0
    6.2367    2.7838    5.8680 H   0  0  0  0  0  0  0  0  0  0  0  0
    4.7110    2.1110    6.5006 H   0  0  0  0  0  0  0  0  0  0  0  0
    5.1235    3.0794    3.5938 H   0  0  0  0  0  0  0  0  0  0  0  0
    3.6384    2.3481    4.2377 H   0  0  0  0  0  0  0  0  0  0  0  0
    6.1826    0.8322    3.8809 H   0  0  0  0  0  0  0  0  0  0  0  0
    3.3216   -2.4504    4.1890 H   0  0  0  0  0  0  0  0  0  0  0  0
    4.6921   -2.4252    5.3307 H   0  0  0  0  0  0  0  0  0  0  0  0
    4.7547   -3.4947    3.9115 H   0  0  0  0  0  0  0  0  0  0  0  0
    3.7093   -1.5820    1.7399 H   0  0  0  0  0  0  0  0  0  0  0  0
    5.2135   -2.5428    1.6002 H   0  0  0  0  0  0  0  0  0  0  0  0
    5.2481   -0.7683    1.3521 H   0  0  0  0  0  0  0  0  0  0  0  0
    8.7649   -0.0635    4.6121 H   0  0  0  0  0  0  0  0  0  0  0  0
    8.8961   -0.3441    2.8588 H   0  0  0  0  0  0  0  0  0  0  0  0
   10.2473   -0.7914    3.9345 H   0  0  0  0  0  0  0  0  0  0  0  0
    8.5780   -2.0305    6.2205 H   0  0  0  0  0  0  0  0  0  0  0  0
   10.0165   -2.8464    5.5189 H   0  0  0  0  0  0  0  0  0  0  0  0
    8.4570   -3.6986    5.5890 H   0  0  0  0  0  0  0  0  0  0  0  0
    7.7496   -2.4198    1.6645 H   0  0  0  0  0  0  0  0  0  0  0  0
    9.8959   -4.1744    0.6287 H   0  0  0  0  0  0  0  0  0  0  0  0
    8.5575   -3.4300   -0.2900 H   0  0  0  0  0  0  0  0  0  0  0  0
    8.4303   -5.8306    1.6247 H   0  0  0  0  0  0  0  0  0  0  0  0
    8.0766   -5.8144   -0.1195 H   0  0  0  0  0  0  0  0  0  0  0  0
    6.5209   -4.7211    1.9600 H   0  0  0  0  0  0  0  0  0  0  0  0
  1  2  1  0
  1 20  1  0
  1 21  1  0
  1 22  1  0
  2  3  1  0
  2 23  1  0
  2 24  1  0
  3  4  1  0
  3 25  1  0
  4  5  2  0
  4  6  1  0
  6  7  1  0
  6  8  1  0
  6  9  1  6
  7 26  1  0
  7 27  1  0
  7 28  1  0
  8 29  1  0
  8 30  1  0
  8 31  1  0
  9 10  2  0
 11 10  1  1
 11 12  1  0
 11 13  1  0
 11 14  1  0
 12 32  1  0
 12 33  1  0
 12 34  1  0
 13 35  1  0
 13 36  1  0
 13 37  1  0
 14 15  2  0
 14 16  1  0
 16 17  1  0
 16 38  1  0
 17 18  1  0
 17 39  1  0
 17 40  1  0
 18 19  1  0
 18 41  1  0
 18 42  1  0
 19 43  1  0
M  END

