
     RDKit          3D

 26 26  0  0  0  0  0  0  0  0999 V2000
    0.9742   -0.4752   -0.1739 O   0  0  0  0  0  0  0  0  0  0  0  0
    2.1546   -0.2436   -0.1351 C   0  0  0  0  0  0  0  0  0  0  0  0
    2.8976   -0.7084    0.8938 O   0  0  0  0  0  0  0  0  0  0  0  0
    2.9199    0.5699   -1.1782 C   0  0  1  0  0  0  0  0  0  0  0  0
    2.0825    0.8496   -2.4367 C   0  0  0  0  0  0  0  0  0  0  0  0
    0.9870    1.8902   -2.1854 C   0  0  2  0  0  0  0  0  0  0  0  0
    0.2313    2.1783   -3.3688 O   0  0  0  0  0  0  0  0  0  0  0  0
    1.5666    3.2155   -1.6574 C   0  0  2  0  0  0  0  0  0  0  0  0
    2.3620    4.0465   -2.6871 C   0  0  0  0  0  0  0  0  0  0  0  0
    3.3758    4.6449   -2.3938 O   0  0  0  0  0  0  0  0  0  0  0  0
    1.8447    4.1298   -3.9056 O   0  0  0  0  0  0  0  0  0  0  0  0
    2.3890    2.9404   -0.3870 C   0  0  0  0  0  0  0  0  0  0  0  0
    3.4956    1.8925   -0.5903 C   0  0  2  0  0  0  0  0  0  0  0  0
    4.5217    2.3144   -1.4545 O   0  0  0  0  0  0  0  0  0  0  0  0
    3.8304   -0.4759    0.7775 H   0  0  0  0  0  0  0  0  0  0  0  0
    3.8017   -0.0271   -1.4705 H   0  0  0  0  0  0  0  0  0  0  0  0
    1.6217   -0.0878   -2.7891 H   0  0  0  0  0  0  0  0  0  0  0  0
    2.7556    1.2137   -3.2291 H   0  0  0  0  0  0  0  0  0  0  0  0
    0.3044    1.4951   -1.4168 H   0  0  0  0  0  0  0  0  0  0  0  0
   -0.0864    1.3553   -3.7640 H   0  0  0  0  0  0  0  0  0  0  0  0
    0.7090    3.8610   -1.3923 H   0  0  0  0  0  0  0  0  0  0  0  0
    1.0896    3.4979   -3.9805 H   0  0  0  0  0  0  0  0  0  0  0  0
    1.7107    2.5859    0.4061 H   0  0  0  0  0  0  0  0  0  0  0  0
    2.8382    3.8783   -0.0285 H   0  0  0  0  0  0  0  0  0  0  0  0
    3.9264    1.6753    0.4094 H   0  0  0  0  0  0  0  0  0  0  0  0
    4.4146    3.2636   -1.6479 H   0  0  0  0  0  0  0  0  0  0  0  0
  1  2  2  0
  2  3  1  0
  2  4  1  0
  3 15  1  0
  4  5  1  0
  4 13  1  0
  4 16  1  6
  5  6  1  0
  5 17  1  0
  5 18  1  0
  6  7  1  0
  6  8  1  0
  6 19  1  1
  7 20  1  0
  8  9  1  0
  8 12  1  0
  8 21  1  1
  9 10  2  0
  9 11  1  0
 11 22  1  0
 12 13  1  0
 12 23  1  0
 12 24  1  0
 13 14  1  0
 13 25  1  1
 14 26  1  0
M  END

