
     RDKit          3D

 43 43  0  0  0  0  0  0  0  0999 V2000
    4.5528   -2.0627    1.2281 C   0  0  0  0  0  0  0  0  0  0  0  0
    3.7411   -2.6313    0.1638 N   0  0  0  0  0  0  0  0  0  0  0  0
    3.0563   -1.6720   -0.6813 C   0  0  0  0  0  0  0  0  0  0  0  0
    3.9820   -0.9561   -1.6809 C   0  0  0  0  0  0  0  0  0  0  0  0
    4.7808   -1.8507   -2.5108 N   0  0  0  0  0  0  0  0  0  0  0  0
    4.0786   -2.6940   -3.4703 C   0  0  0  0  0  0  0  0  0  0  0  0
    3.3888   -1.9193   -4.5815 C   0  0  0  0  0  0  0  0  0  0  0  0
    4.0635   -0.9013   -5.2743 C   0  0  0  0  0  0  0  0  0  0  0  0
    3.4432   -0.2203   -6.3237 C   0  0  0  0  0  0  0  0  0  0  0  0
    2.1356   -0.5473   -6.7007 C   0  0  0  0  0  0  0  0  0  0  0  0
    1.4541   -1.5573   -6.0175 C   0  0  0  0  0  0  0  0  0  0  0  0
    2.0775   -2.2339   -4.9634 C   0  0  0  0  0  0  0  0  0  0  0  0
    6.1104   -2.0041   -2.1977 C   0  0  0  0  0  0  0  0  0  0  0  0
    6.6804   -1.3710   -1.3256 O   0  0  0  0  0  0  0  0  0  0  0  0
    6.7116   -2.9155   -2.9940 O   0  0  0  0  0  0  0  0  0  0  0  0
    8.1338   -3.2412   -2.8657 C   0  0  1  0  0  0  0  0  0  0  0  0
    8.4207   -3.8230   -1.4774 C   0  0  0  0  0  0  0  0  0  0  0  0
    8.3371   -4.3047   -3.9475 C   0  0  0  0  0  0  0  0  0  0  0  0
    8.9868   -2.0024   -3.1600 C   0  0  0  0  0  0  0  0  0  0  0  0
    4.9429   -2.8722    1.8650 H   0  0  0  0  0  0  0  0  0  0  0  0
    4.0036   -1.3480    1.8828 H   0  0  0  0  0  0  0  0  0  0  0  0
    5.4216   -1.5378    0.8026 H   0  0  0  0  0  0  0  0  0  0  0  0
    3.0664   -3.2871    0.5500 H   0  0  0  0  0  0  0  0  0  0  0  0
    2.5321   -0.8711   -0.1077 H   0  0  0  0  0  0  0  0  0  0  0  0
    2.2691   -2.2105   -1.2353 H   0  0  0  0  0  0  0  0  0  0  0  0
    4.6832   -0.2994   -1.1519 H   0  0  0  0  0  0  0  0  0  0  0  0
    3.3608   -0.3190   -2.3332 H   0  0  0  0  0  0  0  0  0  0  0  0
    3.3357   -3.3195   -2.9448 H   0  0  0  0  0  0  0  0  0  0  0  0
    4.8124   -3.3823   -3.9056 H   0  0  0  0  0  0  0  0  0  0  0  0
    5.0838   -0.6410   -4.9807 H   0  0  0  0  0  0  0  0  0  0  0  0
    3.9830    0.5700   -6.8523 H   0  0  0  0  0  0  0  0  0  0  0  0
    1.6501   -0.0136   -7.5218 H   0  0  0  0  0  0  0  0  0  0  0  0
    0.4306   -1.8169   -6.3004 H   0  0  0  0  0  0  0  0  0  0  0  0
    1.5357   -3.0205   -4.4292 H   0  0  0  0  0  0  0  0  0  0  0  0
    7.7536   -4.6757   -1.2756 H   0  0  0  0  0  0  0  0  0  0  0  0
    8.2748   -3.0680   -0.6954 H   0  0  0  0  0  0  0  0  0  0  0  0
    9.4604   -4.1842   -1.4348 H   0  0  0  0  0  0  0  0  0  0  0  0
    7.6982   -5.1803   -3.7562 H   0  0  0  0  0  0  0  0  0  0  0  0
    9.3863   -4.6364   -3.9636 H   0  0  0  0  0  0  0  0  0  0  0  0
    8.0837   -3.9021   -4.9401 H   0  0  0  0  0  0  0  0  0  0  0  0
    8.8265   -1.2260   -2.4017 H   0  0  0  0  0  0  0  0  0  0  0  0
    8.7354   -1.5908   -4.1503 H   0  0  0  0  0  0  0  0  0  0  0  0
   10.0530   -2.2787   -3.1672 H   0  0  0  0  0  0  0  0  0  0  0  0
  1  2  1  0
  1 20  1  0
  1 21  1  0
  1 22  1  0
  2  3  1  0
  2 23  1  0
  3  4  1  0
  3 24  1  0
  3 25  1  0
  4  5  1  0
  4 26  1  0
  4 27  1  0
  5  6  1  0
  5 13  1  0
  6  7  1  0
  6 28  1  0
  6 29  1  0
  7  8  2  0
  7 12  1  0
  8  9  1  0
  8 30  1  0
  9 10  2  0
  9 31  1  0
 10 11  1  0
 10 32  1  0
 11 12  2  0
 11 33  1  0
 12 34  1  0
 13 14  2  0
 13 15  1  0
 16 15  1  1
 16 17  1  0
 16 18  1  0
 16 19  1  0
 17 35  1  0
 17 36  1  0
 17 37  1  0
 18 38  1  0
 18 39  1  0
 18 40  1  0
 19 41  1  0
 19 42  1  0
 19 43  1  0
M  END

