
     RDKit          3D

 32 33  0  0  0  0  0  0  0  0999 V2000
    0.7823    1.8916   -1.2473 C   0  0  0  0  0  0  0  0  0  0  0  0
    2.2572    2.2687   -1.1975 C   0  0  0  0  0  0  0  0  0  0  0  0
    3.0986    1.0840   -1.2055 N   0  0  0  0  0  0  0  0  0  0  0  0
    4.4602    1.1439   -1.3227 C   0  0  0  0  0  0  0  0  0  0  0  0
    5.3240    2.5865   -1.7731 S   0  0  0  0  0  0  0  0  0  0  0  0
    6.8794    1.7342   -1.6969 C   0  0  0  0  0  0  0  0  0  0  0  0
    8.0320    2.5363   -2.0558 C   0  0  0  0  0  0  0  0  0  0  0  0
    7.9245    3.7476   -2.2469 O   0  0  0  0  0  0  0  0  0  0  0  0
    9.3709    1.8615   -2.2074 C   0  0  1  0  0  0  0  0  0  0  0  0
   10.4454    2.6216   -2.9525 C   0  0  0  0  0  0  0  0  0  0  0  0
   10.5554    2.4775   -1.4705 C   0  0  0  0  0  0  0  0  0  0  0  0
    6.7010    0.4084   -1.2849 C   0  0  0  0  0  0  0  0  0  0  0  0
    7.6665   -0.5577   -1.0676 N   0  0  0  0  0  0  0  0  0  0  0  0
    5.3259    0.0841   -1.0930 C   0  0  0  0  0  0  0  0  0  0  0  0
    4.9016   -1.1575   -0.6739 O   0  0  0  0  0  0  0  0  0  0  0  0
    4.6127   -2.0707   -1.7318 C   0  0  0  0  0  0  0  0  0  0  0  0
    0.1536    2.7946   -1.2527 H   0  0  0  0  0  0  0  0  0  0  0  0
    0.4932    1.2931   -0.3666 H   0  0  0  0  0  0  0  0  0  0  0  0
    0.5548    1.3037   -2.1502 H   0  0  0  0  0  0  0  0  0  0  0  0
    2.4597    2.9044   -0.3109 H   0  0  0  0  0  0  0  0  0  0  0  0
    2.5179    2.8769   -2.0804 H   0  0  0  0  0  0  0  0  0  0  0  0
    2.7794    0.3023   -0.6385 H   0  0  0  0  0  0  0  0  0  0  0  0
    9.3625    0.7765   -2.3301 H   0  0  0  0  0  0  0  0  0  0  0  0
   10.1404    3.5973   -3.3381 H   0  0  0  0  0  0  0  0  0  0  0  0
   11.1195    2.0425   -3.5894 H   0  0  0  0  0  0  0  0  0  0  0  0
   10.3348    3.3581   -0.8606 H   0  0  0  0  0  0  0  0  0  0  0  0
   11.3071    1.8001   -1.0542 H   0  0  0  0  0  0  0  0  0  0  0  0
    8.5754   -0.2246   -0.7683 H   0  0  0  0  0  0  0  0  0  0  0  0
    7.3263   -1.3320   -0.5037 H   0  0  0  0  0  0  0  0  0  0  0  0
    4.2900   -3.0138   -1.2670 H   0  0  0  0  0  0  0  0  0  0  0  0
    5.5045   -2.2588   -2.3547 H   0  0  0  0  0  0  0  0  0  0  0  0
    3.8041   -1.6898   -2.3795 H   0  0  0  0  0  0  0  0  0  0  0  0
  1  2  1  0
  1 17  1  0
  1 18  1  0
  1 19  1  0
  2  3  1  0
  2 20  1  0
  2 21  1  0
  3  4  1  0
  3 22  1  0
  4  5  2  0
  4 14  1  0
  5  6  1  0
  6  7  2  0
  6 12  1  0
  7  8  1  0
  7  9  1  0
  9 10  1  0
  9 11  1  0
  9 23  1  6
 10 11  1  0
 10 24  1  0
 10 25  1  0
 11 26  1  0
 11 27  1  0
 12 13  1  0
 12 14  2  0
 13 28  1  0
 13 29  1  0
 14 15  1  0
 15 16  1  0
 16 30  1  0
 16 31  1  0
 16 32  1  0
M  CHG  2   5   1   8  -1
M  END

