
     RDKit          3D

185194  0  0  0  0  0  0  0  0999 V2000
    2.2623    7.1680    4.0505 C   0  0  0  0  0  0  0  0  0  0  0  0
    3.0877    7.3169    2.7717 C   0  0  0  0  0  0  0  0  0  0  0  0
    4.4802    6.6856    2.8650 C   0  0  0  0  0  0  0  0  0  0  0  0
    5.3129    6.8307    1.5877 C   0  0  0  0  0  0  0  0  0  0  0  0
    6.7027    6.1972    1.6899 C   0  0  0  0  0  0  0  0  0  0  0  0
    7.5196    6.3470    0.4159 C   0  0  0  0  0  0  0  0  0  0  0  0
    8.7791    5.7303    0.6207 O   0  0  0  0  0  0  0  0  0  0  0  0
    9.6971    5.7188   -0.3786 C   0  0  0  0  0  0  0  0  0  0  0  0
    9.5129    6.3029   -1.6413 C   0  0  0  0  0  0  0  0  0  0  0  0
   10.5253    6.2239   -2.6032 C   0  0  0  0  0  0  0  0  0  0  0  0
   11.7411    5.5847   -2.3283 C   0  0  0  0  0  0  0  0  0  0  0  0
   12.7760    5.5328   -3.3071 N   0  0  0  0  0  0  0  0  0  0  0  0
   13.1460    6.7366   -3.9729 C   0  0  0  0  0  0  0  0  0  0  0  0
   13.3790    7.9140   -3.2498 C   0  0  0  0  0  0  0  0  0  0  0  0
   13.7173    9.1079   -3.8953 C   0  0  0  0  0  0  0  0  0  0  0  0
   13.8483    9.1384   -5.2921 C   0  0  0  0  0  0  0  0  0  0  0  0
   14.1806   10.2387   -6.0146 O   0  0  0  0  0  0  0  0  0  0  0  0
   14.4325   11.4667   -5.3538 C   0  0  0  0  0  0  0  0  0  0  0  0
   14.7824   12.5106   -6.4032 C   0  0  0  0  0  0  0  0  0  0  0  0
   15.0764   13.8875   -5.8025 C   0  0  0  0  0  0  0  0  0  0  0  0
   15.4330   14.9474   -6.8490 C   0  0  0  0  0  0  0  0  0  0  0  0
   15.7289   16.3283   -6.2559 C   0  0  0  0  0  0  0  0  0  0  0  0
   16.0853   17.3811   -7.3062 C   0  0  0  0  0  0  0  0  0  0  0  0
   13.6213    7.9581   -6.0232 C   0  0  0  0  0  0  0  0  0  0  0  0
   13.2662    6.7809   -5.3758 C   0  0  0  0  0  0  0  0  0  0  0  0
   13.4212    4.3197   -3.6039 C   0  0  0  0  0  0  0  0  0  0  0  0
   12.7462    3.0849   -3.4955 C   0  0  0  0  0  0  0  0  0  0  0  0
   13.3847    1.8847   -3.7825 C   0  0  0  0  0  0  0  0  0  0  0  0
   14.7347    1.8483   -4.2033 C   0  0  0  0  0  0  0  0  0  0  0  0
   15.4073    0.5933   -4.5202 C   0  0  0  0  0  0  0  0  0  0  0  0
   16.9536    0.5881   -5.3188 S   0  0  0  0  0  0  0  0  0  0  0  0
   17.1277   -1.1429   -5.3705 C   0  0  0  0  0  0  0  0  0  0  0  0
   18.3117   -1.7566   -5.9619 C   0  0  0  0  0  0  0  0  0  0  0  0
   18.6017   -3.1309   -5.7938 C   0  0  0  0  0  0  0  0  0  0  0  0
   19.7407   -3.7048   -6.3454 C   0  0  0  0  0  0  0  0  0  0  0  0
   20.6533   -2.9413   -7.1041 C   0  0  0  0  0  0  0  0  0  0  0  0
   21.8052   -3.5232   -7.6643 N   0  0  0  0  0  0  0  0  0  0  0  0
   21.8012   -4.8828   -8.0895 C   0  0  0  0  0  0  0  0  0  0  0  0
   20.7698   -5.3876   -8.8932 C   0  0  0  0  0  0  0  0  0  0  0  0
   20.7634   -6.7217   -9.3126 C   0  0  0  0  0  0  0  0  0  0  0  0
   21.8150   -7.5775   -8.9493 C   0  0  0  0  0  0  0  0  0  0  0  0
   21.9103   -8.8828   -9.3101 O   0  0  0  0  0  0  0  0  0  0  0  0
   20.9027   -9.4675  -10.1168 C   0  0  0  0  0  0  0  0  0  0  0  0
   21.2691  -10.9240  -10.3568 C   0  0  0  0  0  0  0  0  0  0  0  0
   20.2458  -11.6639  -11.2221 C   0  0  0  0  0  0  0  0  0  0  0  0
   20.6033  -13.1324  -11.4700 C   0  0  0  0  0  0  0  0  0  0  0  0
   19.5845  -13.8805  -12.3351 C   0  0  0  0  0  0  0  0  0  0  0  0
   19.9478  -15.3460  -12.5779 C   0  0  0  0  0  0  0  0  0  0  0  0
   22.8598   -7.0728   -8.1544 C   0  0  0  0  0  0  0  0  0  0  0  0
   22.8482   -5.7511   -7.7251 C   0  0  0  0  0  0  0  0  0  0  0  0
   23.0012   -2.7651   -7.8193 C   0  0  0  0  0  0  0  0  0  0  0  0
   23.5129   -1.9959   -6.7651 C   0  0  0  0  0  0  0  0  0  0  0  0
   24.6856   -1.2487   -6.9146 C   0  0  0  0  0  0  0  0  0  0  0  0
   25.3875   -1.2782   -8.1298 C   0  0  0  0  0  0  0  0  0  0  0  0
   26.5368   -0.5991   -8.3761 O   0  0  0  0  0  0  0  0  0  0  0  0
   27.1096    0.2094   -7.3629 C   0  0  0  0  0  0  0  0  0  0  0  0
   28.3742    0.8463   -7.9181 C   0  0  0  0  0  0  0  0  0  0  0  0
   29.0832    1.7492   -6.9055 C   0  0  0  0  0  0  0  0  0  0  0  0
   30.3582    2.3980   -7.4526 C   0  0  0  0  0  0  0  0  0  0  0  0
   31.0735    3.3035   -6.4453 C   0  0  0  0  0  0  0  0  0  0  0  0
   32.3453    3.9481   -6.9982 C   0  0  0  0  0  0  0  0  0  0  0  0
   24.8867   -2.0600   -9.1863 C   0  0  0  0  0  0  0  0  0  0  0  0
   23.7097   -2.7835   -9.0362 C   0  0  0  0  0  0  0  0  0  0  0  0
   20.3673   -1.5707   -7.2836 C   0  0  0  0  0  0  0  0  0  0  0  0
   19.2309   -1.0008   -6.7253 C   0  0  0  0  0  0  0  0  0  0  0  0
   15.9939   -1.7153   -4.7656 C   0  0  0  0  0  0  0  0  0  0  0  0
   15.7734   -3.0387   -4.5720 N   0  0  0  0  0  0  0  0  0  0  0  0
   14.6623   -3.4249   -3.9831 C   0  0  0  0  0  0  0  0  0  0  0  0
   14.5584   -4.8841   -3.6915 C   0  0  0  0  0  0  0  0  0  0  0  0
   14.1003   -5.3637   -2.4501 C   0  0  0  0  0  0  0  0  0  0  0  0
   14.0806   -6.7297   -2.1812 C   0  0  0  0  0  0  0  0  0  0  0  0
   14.5074   -7.6516   -3.1494 C   0  0  0  0  0  0  0  0  0  0  0  0
   14.4543   -9.1035   -2.8092 C   0  0  0  0  0  0  0  0  0  0  0  0
   14.0671   -9.5475   -1.7524 O   0  0  0  0  0  0  0  0  0  0  0  0
   14.8895   -9.8877   -3.8167 O   0  0  0  0  0  0  0  0  0  0  0  0
   14.8745  -11.2918   -3.5711 C   0  0  0  0  0  0  0  0  0  0  0  0
   14.9710   -7.1811   -4.3887 C   0  0  0  0  0  0  0  0  0  0  0  0
   15.0035   -5.8134   -4.6502 C   0  0  0  0  0  0  0  0  0  0  0  0
   13.6392   -2.4479   -3.6051 C   0  0  0  0  0  0  0  0  0  0  0  0
   12.2853   -2.8218   -3.1033 C   0  0  0  0  0  0  0  0  0  0  0  0
   11.7006   -2.0718   -2.0652 C   0  0  0  0  0  0  0  0  0  0  0  0
   10.4176   -2.3643   -1.6125 C   0  0  0  0  0  0  0  0  0  0  0  0
    9.6779   -3.4034   -2.1993 C   0  0  0  0  0  0  0  0  0  0  0  0
    8.3059   -3.6726   -1.6774 C   0  0  0  0  0  0  0  0  0  0  0  0
    7.7819   -3.0588   -0.7759 O   0  0  0  0  0  0  0  0  0  0  0  0
    7.6967   -4.6877   -2.3229 O   0  0  0  0  0  0  0  0  0  0  0  0
    6.3798   -5.0122   -1.8838 C   0  0  0  0  0  0  0  0  0  0  0  0
   10.2454   -4.1429   -3.2485 C   0  0  0  0  0  0  0  0  0  0  0  0
   11.5361   -3.8578   -3.6904 C   0  0  0  0  0  0  0  0  0  0  0  0
   13.8610   -1.1584   -3.7414 N   0  0  0  0  0  0  0  0  0  0  0  0
   15.0238   -0.7425   -4.3001 C   0  0  0  0  0  0  0  0  0  0  0  0
   15.4023    3.0901   -4.3087 C   0  0  0  0  0  0  0  0  0  0  0  0
   14.7711    4.2918   -4.0169 C   0  0  0  0  0  0  0  0  0  0  0  0
   11.9218    5.0132   -1.0536 C   0  0  0  0  0  0  0  0  0  0  0  0
   10.9139    5.0702   -0.0989 C   0  0  0  0  0  0  0  0  0  0  0  0
    1.2686    7.6325    3.9478 H   0  0  0  0  0  0  0  0  0  0  0  0
    2.7646    7.6436    4.9097 H   0  0  0  0  0  0  0  0  0  0  0  0
    2.1082    6.1064    4.3069 H   0  0  0  0  0  0  0  0  0  0  0  0
    3.1914    8.3888    2.5220 H   0  0  0  0  0  0  0  0  0  0  0  0
    2.5405    6.8644    1.9245 H   0  0  0  0  0  0  0  0  0  0  0  0
    4.3790    5.6128    3.1135 H   0  0  0  0  0  0  0  0  0  0  0  0
    5.0301    7.1376    3.7114 H   0  0  0  0  0  0  0  0  0  0  0  0
    5.4134    7.9040    1.3400 H   0  0  0  0  0  0  0  0  0  0  0  0
    4.7621    6.3779    0.7423 H   0  0  0  0  0  0  0  0  0  0  0  0
    6.6151    5.1223    1.9243 H   0  0  0  0  0  0  0  0  0  0  0  0
    7.2677    6.6505    2.5227 H   0  0  0  0  0  0  0  0  0  0  0  0
    7.6550    7.4172    0.1649 H   0  0  0  0  0  0  0  0  0  0  0  0
    6.9976    5.8734   -0.4382 H   0  0  0  0  0  0  0  0  0  0  0  0
    8.5828    6.8117   -1.8946 H   0  0  0  0  0  0  0  0  0  0  0  0
   10.3675    6.6725   -3.5862 H   0  0  0  0  0  0  0  0  0  0  0  0
   13.2896    7.8995   -2.1617 H   0  0  0  0  0  0  0  0  0  0  0  0
   13.8863   10.0021   -3.2953 H   0  0  0  0  0  0  0  0  0  0  0  0
   15.2641   11.3482   -4.6321 H   0  0  0  0  0  0  0  0  0  0  0  0
   13.5404   11.7799   -4.7770 H   0  0  0  0  0  0  0  0  0  0  0  0
   13.9467   12.5785   -7.1210 H   0  0  0  0  0  0  0  0  0  0  0  0
   15.6542   12.1510   -6.9766 H   0  0  0  0  0  0  0  0  0  0  0  0
   15.9049   13.8033   -5.0746 H   0  0  0  0  0  0  0  0  0  0  0  0
   14.2005   14.2315   -5.2214 H   0  0  0  0  0  0  0  0  0  0  0  0
   14.6056   15.0325   -7.5778 H   0  0  0  0  0  0  0  0  0  0  0  0
   16.3089   14.6045   -7.4306 H   0  0  0  0  0  0  0  0  0  0  0  0
   16.5548   16.2402   -5.5265 H   0  0  0  0  0  0  0  0  0  0  0  0
   14.8523   16.6687   -5.6747 H   0  0  0  0  0  0  0  0  0  0  0  0
   16.9810   17.0884   -7.8796 H   0  0  0  0  0  0  0  0  0  0  0  0
   16.2916   18.3601   -6.8449 H   0  0  0  0  0  0  0  0  0  0  0  0
   15.2640   17.5206   -8.0291 H   0  0  0  0  0  0  0  0  0  0  0  0
   13.7164    7.9959   -7.1104 H   0  0  0  0  0  0  0  0  0  0  0  0
   13.0793    5.8769   -5.9591 H   0  0  0  0  0  0  0  0  0  0  0  0
   11.6990    3.0707   -3.1894 H   0  0  0  0  0  0  0  0  0  0  0  0
   12.8357    0.9481   -3.6964 H   0  0  0  0  0  0  0  0  0  0  0  0
   17.9198   -3.7434   -5.2056 H   0  0  0  0  0  0  0  0  0  0  0  0
   19.9372   -4.7651   -6.1786 H   0  0  0  0  0  0  0  0  0  0  0  0
   19.9531   -4.7281   -9.1939 H   0  0  0  0  0  0  0  0  0  0  0  0
   19.9401   -7.0752   -9.9335 H   0  0  0  0  0  0  0  0  0  0  0  0
   20.8204   -8.9244  -11.0784 H   0  0  0  0  0  0  0  0  0  0  0  0
   19.9191   -9.3926   -9.6132 H   0  0  0  0  0  0  0  0  0  0  0  0
   21.3731  -11.4238   -9.3782 H   0  0  0  0  0  0  0  0  0  0  0  0
   22.2655  -10.9603  -10.8301 H   0  0  0  0  0  0  0  0  0  0  0  0
   20.1414  -11.1468  -12.1941 H   0  0  0  0  0  0  0  0  0  0  0  0
   19.2497  -11.6086  -10.7445 H   0  0  0  0  0  0  0  0  0  0  0  0
   20.7081  -13.6506  -10.4986 H   0  0  0  0  0  0  0  0  0  0  0  0
   21.5993  -13.1891  -11.9474 H   0  0  0  0  0  0  0  0  0  0  0  0
   19.4809  -13.3603  -13.3050 H   0  0  0  0  0  0  0  0  0  0  0  0
   18.5896  -13.8212  -11.8568 H   0  0  0  0  0  0  0  0  0  0  0  0
   20.9206  -15.4386  -13.0895 H   0  0  0  0  0  0  0  0  0  0  0  0
   19.1946  -15.8521  -13.2027 H   0  0  0  0  0  0  0  0  0  0  0  0
   20.0217  -15.9035  -11.6290 H   0  0  0  0  0  0  0  0  0  0  0  0
   23.6706   -7.7486   -7.8747 H   0  0  0  0  0  0  0  0  0  0  0  0
   23.6610   -5.3768   -7.0995 H   0  0  0  0  0  0  0  0  0  0  0  0
   22.9838   -1.9761   -5.8102 H   0  0  0  0  0  0  0  0  0  0  0  0
   25.0470   -0.6607   -6.0709 H   0  0  0  0  0  0  0  0  0  0  0  0
   27.3434   -0.4043   -6.4713 H   0  0  0  0  0  0  0  0  0  0  0  0
   26.3902    0.9889   -7.0446 H   0  0  0  0  0  0  0  0  0  0  0  0
   28.1079    1.4222   -8.8212 H   0  0  0  0  0  0  0  0  0  0  0  0
   29.0527    0.0426   -8.2526 H   0  0  0  0  0  0  0  0  0  0  0  0
   29.3333    1.1642   -6.0009 H   0  0  0  0  0  0  0  0  0  0  0  0
   28.3892    2.5415   -6.5680 H   0  0  0  0  0  0  0  0  0  0  0  0
   30.1095    2.9833   -8.3574 H   0  0  0  0  0  0  0  0  0  0  0  0
   31.0533    1.6070   -7.7905 H   0  0  0  0  0  0  0  0  0  0  0  0
   31.3200    2.7167   -5.5415 H   0  0  0  0  0  0  0  0  0  0  0  0
   30.3764    4.0924   -6.1081 H   0  0  0  0  0  0  0  0  0  0  0  0
   33.0789    3.1854   -7.3093 H   0  0  0  0  0  0  0  0  0  0  0  0
   32.8326    4.5912   -6.2481 H   0  0  0  0  0  0  0  0  0  0  0  0
   32.1272    4.5729   -7.8807 H   0  0  0  0  0  0  0  0  0  0  0  0
   25.4393   -2.0729  -10.1280 H   0  0  0  0  0  0  0  0  0  0  0  0
   23.3279   -3.3772   -9.8691 H   0  0  0  0  0  0  0  0  0  0  0  0
   21.0414   -0.9530   -7.8786 H   0  0  0  0  0  0  0  0  0  0  0  0
   19.0418    0.0601   -6.9102 H   0  0  0  0  0  0  0  0  0  0  0  0
   13.7735   -4.6618   -1.6811 H   0  0  0  0  0  0  0  0  0  0  0  0
   13.7375   -7.1070   -1.2161 H   0  0  0  0  0  0  0  0  0  0  0  0
   15.2537  -11.7672   -4.4843 H   0  0  0  0  0  0  0  0  0  0  0  0
   13.8535  -11.6417   -3.3543 H   0  0  0  0  0  0  0  0  0  0  0  0
   15.5157  -11.5473   -2.7136 H   0  0  0  0  0  0  0  0  0  0  0  0
   15.3073   -7.8947   -5.1417 H   0  0  0  0  0  0  0  0  0  0  0  0
   15.3761   -5.4445   -5.6074 H   0  0  0  0  0  0  0  0  0  0  0  0
   12.2712   -1.2559   -1.6179 H   0  0  0  0  0  0  0  0  0  0  0  0
    9.9634   -1.7947   -0.7995 H   0  0  0  0  0  0  0  0  0  0  0  0
    6.0445   -5.8476   -2.5109 H   0  0  0  0  0  0  0  0  0  0  0  0
    5.7037   -4.1514   -2.0008 H   0  0  0  0  0  0  0  0  0  0  0  0
    6.3815   -5.3078   -0.8234 H   0  0  0  0  0  0  0  0  0  0  0  0
    9.6680   -4.9407   -3.7167 H   0  0  0  0  0  0  0  0  0  0  0  0
   11.9587   -4.4368   -4.5133 H   0  0  0  0  0  0  0  0  0  0  0  0
   16.4545    3.1189   -4.6041 H   0  0  0  0  0  0  0  0  0  0  0  0
   15.3305    5.2251   -4.0957 H   0  0  0  0  0  0  0  0  0  0  0  0
   12.8652    4.5169   -0.8170 H   0  0  0  0  0  0  0  0  0  0  0  0
   11.0488    4.6266    0.8897 H   0  0  0  0  0  0  0  0  0  0  0  0
  1  2  1  0
  1 96  1  0
  1 97  1  0
  1 98  1  0
  2  3  1  0
  2 99  1  0
  2100  1  0
  3  4  1  0
  3101  1  0
  3102  1  0
  4  5  1  0
  4103  1  0
  4104  1  0
  5  6  1  0
  5105  1  0
  5106  1  0
  6  7  1  0
  6107  1  0
  6108  1  0
  7  8  1  0
  8  9  2  0
  8 95  1  0
  9 10  1  0
  9109  1  0
 10 11  2  0
 10110  1  0
 11 12  1  0
 11 94  1  0
 12 13  1  0
 12 26  1  0
 13 14  2  0
 13 25  1  0
 14 15  1  0
 14111  1  0
 15 16  2  0
 15112  1  0
 16 17  1  0
 16 24  1  0
 17 18  1  0
 18 19  1  0
 18113  1  0
 18114  1  0
 19 20  1  0
 19115  1  0
 19116  1  0
 20 21  1  0
 20117  1  0
 20118  1  0
 21 22  1  0
 21119  1  0
 21120  1  0
 22 23  1  0
 22121  1  0
 22122  1  0
 23123  1  0
 23124  1  0
 23125  1  0
 24 25  2  0
 24126  1  0
 25127  1  0
 26 27  2  0
 26 93  1  0
 27 28  1  0
 27128  1  0
 28 29  2  0
 28129  1  0
 29 30  1  0
 29 92  1  0
 30 31  2  0
 30 91  1  0
 31 32  1  0
 32 33  1  0
 32 66  2  0
 33 34  2  0
 33 65  1  0
 34 35  1  0
 34130  1  0
 35 36  2  0
 35131  1  0
 36 37  1  0
 36 64  1  0
 37 38  1  0
 37 51  1  0
 38 39  2  0
 38 50  1  0
 39 40  1  0
 39132  1  0
 40 41  2  0
 40133  1  0
 41 42  1  0
 41 49  1  0
 42 43  1  0
 43 44  1  0
 43134  1  0
 43135  1  0
 44 45  1  0
 44136  1  0
 44137  1  0
 45 46  1  0
 45138  1  0
 45139  1  0
 46 47  1  0
 46140  1  0
 46141  1  0
 47 48  1  0
 47142  1  0
 47143  1  0
 48144  1  0
 48145  1  0
 48146  1  0
 49 50  2  0
 49147  1  0
 50148  1  0
 51 52  2  0
 51 63  1  0
 52 53  1  0
 52149  1  0
 53 54  2  0
 53150  1  0
 54 55  1  0
 54 62  1  0
 55 56  1  0
 56 57  1  0
 56151  1  0
 56152  1  0
 57 58  1  0
 57153  1  0
 57154  1  0
 58 59  1  0
 58155  1  0
 58156  1  0
 59 60  1  0
 59157  1  0
 59158  1  0
 60 61  1  0
 60159  1  0
 60160  1  0
 61161  1  0
 61162  1  0
 61163  1  0
 62 63  2  0
 62164  1  0
 63165  1  0
 64 65  2  0
 64166  1  0
 65167  1  0
 66 67  1  0
 66 91  1  0
 67 68  2  0
 68 69  1  0
 68 79  1  0
 69 70  2  0
 69 78  1  0
 70 71  1  0
 70168  1  0
 71 72  2  0
 71169  1  0
 72 73  1  0
 72 77  1  0
 73 74  2  0
 73 75  1  0
 75 76  1  0
 76170  1  0
 76171  1  0
 76172  1  0
 77 78  2  0
 77173  1  0
 78174  1  0
 79 80  2  0
 79 90  1  0
 80 81  1  0
 80 89  1  0
 81 82  2  0
 81175  1  0
 82 83  1  0
 82176  1  0
 83 84  2  0
 83 88  1  0
 84 85  1  0
 84 86  1  0
 86 87  1  0
 87177  1  0
 87178  1  0
 87179  1  0
 88 89  2  0
 88180  1  0
 89181  1  0
 90 91  2  0
 92 93  2  0
 92182  1  0
 93183  1  0
 94 95  2  0
 94184  1  0
 95185  1  0
M  CHG  2  31   1  85  -1
M  END

