
     RDKit          3D

 34 34  0  0  0  0  0  0  0  0999 V2000
    3.1113   -1.9304    2.6863 C   0  0  0  0  0  0  0  0  0  0  0  0
    3.2116   -0.8595    1.6340 C   0  0  0  0  0  0  0  0  0  0  0  0
    3.7119    0.3254    1.9772 N   0  0  0  0  0  0  0  0  0  0  0  0
    3.8115    1.2945    1.0589 C   0  0  0  0  0  0  0  0  0  0  0  0
    3.4117    1.1230   -0.2632 C   0  0  0  0  0  0  0  0  0  0  0  0
    2.8823   -0.1133   -0.6523 C   0  0  0  0  0  0  0  0  0  0  0  0
    2.7775   -1.1237    0.3075 C   0  0  0  0  0  0  0  0  0  0  0  0
    2.2866   -2.3683    0.0764 O   0  0  0  0  0  0  0  0  0  0  0  0
    1.8400   -2.7192   -1.2260 C   0  0  0  0  0  0  0  0  0  0  0  0
    1.3633   -4.1648   -1.2030 C   0  0  0  0  0  0  0  0  0  0  0  0
    0.1723   -4.4625   -0.2704 C   0  0  1  0  0  0  0  0  0  0  0  0
   -1.1009   -3.7263   -0.7094 C   0  0  0  0  0  0  0  0  0  0  0  0
   -0.1012   -5.9785   -0.1690 C   0  0  0  0  0  0  0  0  0  0  0  0
    0.9809   -6.7835    0.5523 C   0  0  0  0  0  0  0  0  0  0  0  0
    0.6441   -8.5874    0.6483 S   0  0  0  0  0  0  0  0  0  0  0  0
    3.5182   -1.5453    3.6299 H   0  0  0  0  0  0  0  0  0  0  0  0
    3.6654   -2.8360    2.3893 H   0  0  0  0  0  0  0  0  0  0  0  0
    2.0645   -2.2409    2.8419 H   0  0  0  0  0  0  0  0  0  0  0  0
    4.2305    2.2492    1.3966 H   0  0  0  0  0  0  0  0  0  0  0  0
    3.5091    1.9370   -0.9856 H   0  0  0  0  0  0  0  0  0  0  0  0
    2.5630   -0.2724   -1.6827 H   0  0  0  0  0  0  0  0  0  0  0  0
    2.6699   -2.6088   -1.9489 H   0  0  0  0  0  0  0  0  0  0  0  0
    1.0339   -2.0326   -1.5441 H   0  0  0  0  0  0  0  0  0  0  0  0
    2.2258   -4.7902   -0.9211 H   0  0  0  0  0  0  0  0  0  0  0  0
    1.0982   -4.4469   -2.2383 H   0  0  0  0  0  0  0  0  0  0  0  0
    0.4451   -4.0995    0.7367 H   0  0  0  0  0  0  0  0  0  0  0  0
   -1.4183   -4.0474   -1.7168 H   0  0  0  0  0  0  0  0  0  0  0  0
   -0.9641   -2.6340   -0.7327 H   0  0  0  0  0  0  0  0  0  0  0  0
   -1.9336   -3.9332   -0.0185 H   0  0  0  0  0  0  0  0  0  0  0  0
   -0.2552   -6.4003   -1.1782 H   0  0  0  0  0  0  0  0  0  0  0  0
   -1.0552   -6.1252    0.3671 H   0  0  0  0  0  0  0  0  0  0  0  0
    1.1539   -6.3928    1.5677 H   0  0  0  0  0  0  0  0  0  0  0  0
    1.9458   -6.7296    0.0250 H   0  0  0  0  0  0  0  0  0  0  0  0
   -0.4679   -8.5009    1.4157 H   0  0  0  0  0  0  0  0  0  0  0  0
  1  2  1  0
  1 16  1  0
  1 17  1  0
  1 18  1  0
  2  3  2  0
  2  7  1  0
  3  4  1  0
  4  5  2  0
  4 19  1  0
  5  6  1  0
  5 20  1  0
  6  7  2  0
  6 21  1  0
  7  8  1  0
  8  9  1  0
  9 10  1  0
  9 22  1  0
  9 23  1  0
 10 11  1  0
 10 24  1  0
 10 25  1  0
 11 12  1  0
 11 13  1  0
 11 26  1  1
 12 27  1  0
 12 28  1  0
 12 29  1  0
 13 14  1  0
 13 30  1  0
 13 31  1  0
 14 15  1  0
 14 32  1  0
 14 33  1  0
 15 34  1  0
M  END

