
     RDKit          3D

 34 35  0  0  0  0  0  0  0  0999 V2000
    1.4959   -0.8519    0.4486 C   0  0  0  0  0  0  0  0  0  0  0  0
    2.4296    0.0858   -0.0818 O   0  0  0  0  0  0  0  0  0  0  0  0
    3.0317    0.9247    0.7707 C   0  0  0  0  0  0  0  0  0  0  0  0
    3.9513    1.8574    0.2405 C   0  0  0  0  0  0  0  0  0  0  0  0
    4.5478    2.7103    1.1415 C   0  0  0  0  0  0  0  0  0  0  0  0
    4.2176    2.5876    2.5131 C   0  0  0  0  0  0  0  0  0  0  0  0
    4.7894    3.5396    3.5572 C   0  0  1  0  0  0  0  0  0  0  0  0
    3.7683    4.3987    4.1825 N   0  0  0  0  0  0  0  0  0  0  0  0
    2.7651    3.7658    4.9530 N   0  0  0  0  0  0  0  0  0  0  0  0
    5.6620    2.8781    4.6256 C   0  0  0  0  0  0  0  0  0  0  0  0
    6.0521    3.6350    5.7418 C   0  0  0  0  0  0  0  0  0  0  0  0
    6.8909    3.0959    6.7179 C   0  0  0  0  0  0  0  0  0  0  0  0
    7.3769    1.7824    6.6169 C   0  0  0  0  0  0  0  0  0  0  0  0
    8.3078    1.2071    7.6568 C   0  0  0  0  0  0  0  0  0  0  0  0
    6.9823    1.0300    5.5014 C   0  0  0  0  0  0  0  0  0  0  0  0
    6.1398    1.5653    4.5228 C   0  0  0  0  0  0  0  0  0  0  0  0
    3.3438    1.6686    2.9269 N   0  0  0  0  0  0  0  0  0  0  0  0
    2.7486    0.8524    2.0639 N   0  0  0  0  0  0  0  0  0  0  0  0
    1.1319   -1.4282   -0.4117 H   0  0  0  0  0  0  0  0  0  0  0  0
    0.6593   -0.3401    0.9482 H   0  0  0  0  0  0  0  0  0  0  0  0
    1.9754   -1.5186    1.1814 H   0  0  0  0  0  0  0  0  0  0  0  0
    4.1541    1.8781   -0.8319 H   0  0  0  0  0  0  0  0  0  0  0  0
    5.2654    3.4663    0.8130 H   0  0  0  0  0  0  0  0  0  0  0  0
    5.4409    4.2424    3.0050 H   0  0  0  0  0  0  0  0  0  0  0  0
    3.3167    4.9750    3.4752 H   0  0  0  0  0  0  0  0  0  0  0  0
    3.1485    3.5930    5.8828 H   0  0  0  0  0  0  0  0  0  0  0  0
    2.5272    2.8504    4.5534 H   0  0  0  0  0  0  0  0  0  0  0  0
    5.6778    4.6568    5.8382 H   0  0  0  0  0  0  0  0  0  0  0  0
    7.1734    3.7088    7.5793 H   0  0  0  0  0  0  0  0  0  0  0  0
    8.2063    1.7253    8.6224 H   0  0  0  0  0  0  0  0  0  0  0  0
    9.3627    1.3025    7.3438 H   0  0  0  0  0  0  0  0  0  0  0  0
    8.1165    0.1353    7.8230 H   0  0  0  0  0  0  0  0  0  0  0  0
    7.3337   -0.0009    5.3960 H   0  0  0  0  0  0  0  0  0  0  0  0
    5.8467    0.9387    3.6791 H   0  0  0  0  0  0  0  0  0  0  0  0
  1  2  1  0
  1 19  1  0
  1 20  1  0
  1 21  1  0
  2  3  1  0
  3  4  2  0
  3 18  1  0
  4  5  1  0
  4 22  1  0
  5  6  2  0
  5 23  1  0
  6  7  1  0
  6 17  1  0
  7  8  1  0
  7 10  1  0
  7 24  1  6
  8  9  1  0
  8 25  1  0
  9 26  1  0
  9 27  1  0
 10 11  2  0
 10 16  1  0
 11 12  1  0
 11 28  1  0
 12 13  2  0
 12 29  1  0
 13 14  1  0
 13 15  1  0
 14 30  1  0
 14 31  1  0
 14 32  1  0
 15 16  2  0
 15 33  1  0
 16 34  1  0
 17 18  2  0
M  END

