
     RDKit          3D

 63 67  0  0  0  0  0  0  0  0999 V2000
    4.7545    0.7376   -1.0151 C   0  0  0  0  0  0  0  0  0  0  0  0
    3.8641    0.6153    0.2258 C   0  0  0  0  0  0  0  0  0  0  0  0
    3.7922   -0.7728    0.8921 C   0  0  2  0  0  0  0  0  0  0  0  0
    5.1394   -1.2638    1.4499 C   0  0  0  0  0  0  0  0  0  0  0  0
    5.0103   -2.6269    2.1366 C   0  0  0  0  0  0  0  0  0  0  0  0
    4.4150   -3.6054    1.2279 N   0  0  0  0  0  0  0  0  0  0  0  0
    4.9303   -4.8838    1.2118 C   0  0  0  0  0  0  0  0  0  0  0  0
    5.8070   -5.2400    1.9880 O   0  0  0  0  0  0  0  0  0  0  0  0
    4.4207   -5.8549    0.1728 C   0  0  0  0  0  0  0  0  0  0  0  0
    4.2569   -5.5179   -1.1807 C   0  0  0  0  0  0  0  0  0  0  0  0
    3.8876   -6.5086   -2.0926 C   0  0  0  0  0  0  0  0  0  0  0  0
    3.6669   -7.8274   -1.6900 C   0  0  0  0  0  0  0  0  0  0  0  0
    3.8407   -8.1758   -0.3369 C   0  0  0  0  0  0  0  0  0  0  0  0
    3.6689   -9.4698    0.1749 N   0  0  0  0  0  0  0  0  0  0  0  0
    3.2357  -10.6400   -0.3986 C   0  0  0  0  0  0  0  0  0  0  0  0
    2.8638  -10.6857   -1.6709 N   0  0  0  0  0  0  0  0  0  0  0  0
    2.4325  -11.8680   -2.1955 C   0  0  0  0  0  0  0  0  0  0  0  0
    2.0624  -11.8411   -3.5039 N   0  0  0  0  0  0  0  0  0  0  0  0
    1.6211  -13.0336   -4.2252 C   0  0  0  0  0  0  0  0  0  0  0  0
    1.6110  -12.5753   -5.6896 C   0  0  0  0  0  0  0  0  0  0  0  0
    1.2908  -11.0768   -5.5873 C   0  0  0  0  0  0  0  0  0  0  0  0
    2.0567  -10.6365   -4.3313 C   0  0  0  0  0  0  0  0  0  0  0  0
    2.3377  -13.0422   -1.5552 N   0  0  0  0  0  0  0  0  0  0  0  0
    2.7226  -12.9727   -0.2785 C   0  0  0  0  0  0  0  0  0  0  0  0
    3.1861  -11.8217    0.3974 C   0  0  0  0  0  0  0  0  0  0  0  0
    3.4606  -12.2763    1.7222 C   0  0  0  0  0  0  0  0  0  0  0  0
    3.1936  -13.5633    1.8449 N   0  0  0  0  0  0  0  0  0  0  0  0
    2.7456  -13.9863    0.6328 N   0  0  0  0  0  0  0  0  0  0  0  0
    2.3624  -15.3623    0.4215 C   0  0  0  0  0  0  0  0  0  0  0  0
    4.2314   -7.1792    0.5759 C   0  0  0  0  0  0  0  0  0  0  0  0
    3.1056   -3.2083    0.7145 C   0  0  0  0  0  0  0  0  0  0  0  0
    3.1810   -1.8602   -0.0090 C   0  0  0  0  0  0  0  0  0  0  0  0
    4.7322    1.7675   -1.4056 H   0  0  0  0  0  0  0  0  0  0  0  0
    4.4242    0.0749   -1.8310 H   0  0  0  0  0  0  0  0  0  0  0  0
    5.8069    0.4963   -0.7964 H   0  0  0  0  0  0  0  0  0  0  0  0
    2.8366    0.9234   -0.0392 H   0  0  0  0  0  0  0  0  0  0  0  0
    4.2066    1.3418    0.9843 H   0  0  0  0  0  0  0  0  0  0  0  0
    3.1112   -0.6632    1.7589 H   0  0  0  0  0  0  0  0  0  0  0  0
    5.5422   -0.5321    2.1711 H   0  0  0  0  0  0  0  0  0  0  0  0
    5.8780   -1.3507    0.6346 H   0  0  0  0  0  0  0  0  0  0  0  0
    4.3784   -2.5324    3.0427 H   0  0  0  0  0  0  0  0  0  0  0  0
    5.9817   -3.0185    2.4610 H   0  0  0  0  0  0  0  0  0  0  0  0
    4.4459   -4.4985   -1.5225 H   0  0  0  0  0  0  0  0  0  0  0  0
    3.7733   -6.2537   -3.1496 H   0  0  0  0  0  0  0  0  0  0  0  0
    3.3742   -8.5963   -2.3989 H   0  0  0  0  0  0  0  0  0  0  0  0
    3.9028   -9.5556    1.1563 H   0  0  0  0  0  0  0  0  0  0  0  0
    0.6168  -13.3489   -3.8840 H   0  0  0  0  0  0  0  0  0  0  0  0
    2.2985  -13.8792   -4.0326 H   0  0  0  0  0  0  0  0  0  0  0  0
    0.8901  -13.1362   -6.3030 H   0  0  0  0  0  0  0  0  0  0  0  0
    2.6096  -12.7190   -6.1357 H   0  0  0  0  0  0  0  0  0  0  0  0
    0.2078  -10.9316   -5.4367 H   0  0  0  0  0  0  0  0  0  0  0  0
    1.5810  -10.5040   -6.4807 H   0  0  0  0  0  0  0  0  0  0  0  0
    1.5775   -9.7976   -3.8044 H   0  0  0  0  0  0  0  0  0  0  0  0
    3.0888  -10.3188   -4.5737 H   0  0  0  0  0  0  0  0  0  0  0  0
    3.8399  -11.7248    2.5838 H   0  0  0  0  0  0  0  0  0  0  0  0
    3.2166  -16.0342    0.5992 H   0  0  0  0  0  0  0  0  0  0  0  0
    2.0269  -15.4610   -0.6190 H   0  0  0  0  0  0  0  0  0  0  0  0
    1.5436  -15.6437    1.1017 H   0  0  0  0  0  0  0  0  0  0  0  0
    4.4116   -7.4319    1.6243 H   0  0  0  0  0  0  0  0  0  0  0  0
    2.4031   -3.1198    1.5686 H   0  0  0  0  0  0  0  0  0  0  0  0
    2.7089   -3.9897    0.0572 H   0  0  0  0  0  0  0  0  0  0  0  0
    2.1678   -1.5643   -0.3312 H   0  0  0  0  0  0  0  0  0  0  0  0
    3.7876   -1.9805   -0.9233 H   0  0  0  0  0  0  0  0  0  0  0  0
  1  2  1  0
  1 33  1  0
  1 34  1  0
  1 35  1  0
  2  3  1  0
  2 36  1  0
  2 37  1  0
  3  4  1  0
  3 32  1  0
  3 38  1  1
  4  5  1  0
  4 39  1  0
  4 40  1  0
  5  6  1  0
  5 41  1  0
  5 42  1  0
  6  7  1  0
  6 31  1  0
  7  8  2  0
  7  9  1  0
  9 10  2  0
  9 30  1  0
 10 11  1  0
 10 43  1  0
 11 12  2  0
 11 44  1  0
 12 13  1  0
 12 45  1  0
 13 14  1  0
 13 30  2  0
 14 15  1  0
 14 46  1  0
 15 16  2  0
 15 25  1  0
 16 17  1  0
 17 18  1  0
 17 23  2  0
 18 19  1  0
 18 22  1  0
 19 20  1  0
 19 47  1  0
 19 48  1  0
 20 21  1  0
 20 49  1  0
 20 50  1  0
 21 22  1  0
 21 51  1  0
 21 52  1  0
 22 53  1  0
 22 54  1  0
 23 24  1  0
 24 25  2  0
 24 28  1  0
 25 26  1  0
 26 27  2  0
 26 55  1  0
 27 28  1  0
 28 29  1  0
 29 56  1  0
 29 57  1  0
 29 58  1  0
 30 59  1  0
 31 32  1  0
 31 60  1  0
 31 61  1  0
 32 62  1  0
 32 63  1  0
M  END

