
     RDKit          3D

 52 54  0  0  0  0  0  0  0  0999 V2000
    5.6684   -4.6861    0.6506 C   0  0  0  0  0  0  0  0  0  0  0  0
    5.0238   -3.8464   -0.4046 C   0  0  0  0  0  0  0  0  0  0  0  0
    5.6020   -3.6888   -1.5725 N   0  0  0  0  0  0  0  0  0  0  0  0
    4.7699   -2.8566   -2.3141 O   0  0  0  0  0  0  0  0  0  0  0  0
    3.7009   -2.5074   -1.5932 C   0  0  0  0  0  0  0  0  0  0  0  0
    2.6910   -1.6063   -2.2095 C   0  0  0  0  0  0  0  0  0  0  0  0
    3.7874   -3.1151   -0.3633 C   0  0  0  0  0  0  0  0  0  0  0  0
    2.6482   -2.9008    0.9812 S   0  0  1  0  0  0  0  0  0  0  0  0
    3.0331   -3.8680    2.0152 O   0  0  0  0  0  0  0  0  0  0  0  0
    2.5739   -1.4661    1.2494 O   0  0  0  0  0  0  0  0  0  0  0  0
    1.1352   -3.3086    0.4396 N   0  0  0  0  0  0  0  0  0  0  0  0
    0.5987   -4.6505    0.1982 C   0  0  1  0  0  0  0  0  0  0  0  0
   -0.5334   -4.3917   -0.8411 C   0  0  0  0  0  0  0  0  0  0  0  0
   -0.4635   -3.4353   -1.6083 O   0  0  0  0  0  0  0  0  0  0  0  0
   -1.5590   -5.2736   -0.8788 N   0  0  0  0  0  0  0  0  0  0  0  0
   -2.6589   -5.1550   -1.8448 C   0  0  1  0  0  0  0  0  0  0  0  0
   -3.2494   -6.5416   -2.1509 C   0  0  0  0  0  0  0  0  0  0  0  0
   -4.0645   -7.1158   -0.9813 C   0  0  0  0  0  0  0  0  0  0  0  0
   -5.1492   -6.1357   -0.5129 C   0  0  0  0  0  0  0  0  0  0  0  0
   -4.5583   -4.7590   -0.1777 C   0  0  0  0  0  0  0  0  0  0  0  0
   -3.7564   -4.1884   -1.3541 C   0  0  0  0  0  0  0  0  0  0  0  0
    1.5976   -5.6958   -0.3863 C   0  0  0  0  0  0  0  0  0  0  0  0
    0.9811   -7.0639   -0.0671 C   0  0  0  0  0  0  0  0  0  0  0  0
    0.2297   -6.8714    1.2801 C   0  0  0  0  0  0  0  0  0  0  0  0
    0.1275   -5.3412    1.5081 C   0  0  0  0  0  0  0  0  0  0  0  0
    6.6637   -5.0007    0.3095 H   0  0  0  0  0  0  0  0  0  0  0  0
    5.0624   -5.5792    0.8672 H   0  0  0  0  0  0  0  0  0  0  0  0
    5.7543   -4.1288    1.5941 H   0  0  0  0  0  0  0  0  0  0  0  0
    3.0719   -1.2036   -3.1574 H   0  0  0  0  0  0  0  0  0  0  0  0
    2.4671   -0.7762   -1.5219 H   0  0  0  0  0  0  0  0  0  0  0  0
    1.7491   -2.1474   -2.4017 H   0  0  0  0  0  0  0  0  0  0  0  0
    0.7440   -2.6046   -0.1886 H   0  0  0  0  0  0  0  0  0  0  0  0
   -1.6142   -5.9943   -0.1710 H   0  0  0  0  0  0  0  0  0  0  0  0
   -2.2083   -4.7329   -2.7548 H   0  0  0  0  0  0  0  0  0  0  0  0
   -2.4449   -7.2342   -2.4499 H   0  0  0  0  0  0  0  0  0  0  0  0
   -3.9109   -6.4345   -3.0275 H   0  0  0  0  0  0  0  0  0  0  0  0
   -3.3969   -7.3546   -0.1307 H   0  0  0  0  0  0  0  0  0  0  0  0
   -4.5136   -8.0778   -1.2785 H   0  0  0  0  0  0  0  0  0  0  0  0
   -5.6870   -6.5478    0.3571 H   0  0  0  0  0  0  0  0  0  0  0  0
   -5.9003   -6.0211   -1.3162 H   0  0  0  0  0  0  0  0  0  0  0  0
   -3.9021   -4.8466    0.7080 H   0  0  0  0  0  0  0  0  0  0  0  0
   -5.3584   -4.0567    0.1083 H   0  0  0  0  0  0  0  0  0  0  0  0
   -3.2963   -3.2220   -1.0957 H   0  0  0  0  0  0  0  0  0  0  0  0
   -4.4372   -3.9944   -2.2023 H   0  0  0  0  0  0  0  0  0  0  0  0
    2.5449   -5.5852    0.1600 H   0  0  0  0  0  0  0  0  0  0  0  0
    1.8042   -5.5356   -1.4549 H   0  0  0  0  0  0  0  0  0  0  0  0
    1.7462   -7.8527   -0.0121 H   0  0  0  0  0  0  0  0  0  0  0  0
    0.2822   -7.3627   -0.8638 H   0  0  0  0  0  0  0  0  0  0  0  0
    0.7774   -7.3419    2.1102 H   0  0  0  0  0  0  0  0  0  0  0  0
   -0.7570   -7.3653    1.2620 H   0  0  0  0  0  0  0  0  0  0  0  0
    0.8306   -5.0246    2.2893 H   0  0  0  0  0  0  0  0  0  0  0  0
   -0.8713   -4.9984    1.8199 H   0  0  0  0  0  0  0  0  0  0  0  0
  1  2  1  0
  1 26  1  0
  1 27  1  0
  1 28  1  0
  2  3  2  0
  2  7  1  0
  3  4  1  0
  4  5  1  0
  5  6  1  0
  5  7  2  0
  6 29  1  0
  6 30  1  0
  6 31  1  0
  7  8  1  0
  8  9  2  0
  8 10  2  0
  8 11  1  6
 11 12  1  0
 11 32  1  0
 12 13  1  6
 12 22  1  0
 12 25  1  0
 13 14  2  0
 13 15  1  0
 15 16  1  0
 15 33  1  0
 16 17  1  0
 16 21  1  0
 16 34  1  6
 17 18  1  0
 17 35  1  0
 17 36  1  0
 18 19  1  0
 18 37  1  0
 18 38  1  0
 19 20  1  0
 19 39  1  0
 19 40  1  0
 20 21  1  0
 20 41  1  0
 20 42  1  0
 21 43  1  0
 21 44  1  0
 22 23  1  0
 22 45  1  0
 22 46  1  0
 23 24  1  0
 23 47  1  0
 23 48  1  0
 24 25  1  0
 24 49  1  0
 24 50  1  0
 25 51  1  0
 25 52  1  0
M  END

