
     RDKit          3D

 36 36  0  0  0  0  0  0  0  0999 V2000
    3.5350    0.8335   -0.8040 C   0  0  0  0  0  0  0  0  0  0  0  0
    2.4951    0.0211    0.0019 C   0  0  1  0  0  0  0  0  0  0  0  0
    2.2296    0.7260    1.3522 C   0  0  0  0  0  0  0  0  0  0  0  0
    1.1782    0.0057   -0.7956 C   0  0  0  0  0  0  0  0  0  0  0  0
    3.0404   -1.3985    0.2614 C   0  0  0  0  0  0  0  0  0  0  0  0
    4.2357   -1.5739    0.9741 C   0  0  0  0  0  0  0  0  0  0  0  0
    4.7551   -2.8509    1.2204 C   0  0  0  0  0  0  0  0  0  0  0  0
    4.0863   -3.9854    0.7631 C   0  0  0  0  0  0  0  0  0  0  0  0
    4.5110   -5.2791    0.9384 O   0  0  0  0  0  0  0  0  0  0  0  0
    5.7021   -5.5183    1.6585 C   0  0  0  0  0  0  0  0  0  0  0  0
    5.8988   -7.0247    1.7251 C   0  0  0  0  0  0  0  0  0  0  0  0
    7.1629   -7.4107    2.4777 C   0  0  0  0  0  0  0  0  0  0  0  0
    7.9336   -6.6213    2.9503 O   0  0  0  0  0  0  0  0  0  0  0  0
    7.3864   -8.7400    2.5914 O   0  0  0  0  0  0  0  0  0  0  0  0
    2.8756   -3.8458    0.0437 C   0  0  0  0  0  0  0  0  0  0  0  0
    2.1921   -4.9858   -0.3614 N   0  0  0  0  0  0  0  0  0  0  0  0
    2.3821   -2.5536   -0.1921 C   0  0  0  0  0  0  0  0  0  0  0  0
    3.1647    1.8544   -0.9965 H   0  0  0  0  0  0  0  0  0  0  0  0
    3.7408    0.3566   -1.7756 H   0  0  0  0  0  0  0  0  0  0  0  0
    4.4913    0.9212   -0.2664 H   0  0  0  0  0  0  0  0  0  0  0  0
    1.8427    1.7457    1.1875 H   0  0  0  0  0  0  0  0  0  0  0  0
    3.1450    0.8102    1.9571 H   0  0  0  0  0  0  0  0  0  0  0  0
    1.4866    0.1713    1.9470 H   0  0  0  0  0  0  0  0  0  0  0  0
    0.8274    1.0374   -0.9572 H   0  0  0  0  0  0  0  0  0  0  0  0
    0.3805   -0.5341   -0.2616 H   0  0  0  0  0  0  0  0  0  0  0  0
    1.3030   -0.4589   -1.7863 H   0  0  0  0  0  0  0  0  0  0  0  0
    4.7887   -0.7109    1.3498 H   0  0  0  0  0  0  0  0  0  0  0  0
    5.6909   -2.9463    1.7725 H   0  0  0  0  0  0  0  0  0  0  0  0
    5.6393   -5.0990    2.6783 H   0  0  0  0  0  0  0  0  0  0  0  0
    6.5689   -5.0434    1.1653 H   0  0  0  0  0  0  0  0  0  0  0  0
    5.9452   -7.4418    0.7031 H   0  0  0  0  0  0  0  0  0  0  0  0
    5.0253   -7.4942    2.2116 H   0  0  0  0  0  0  0  0  0  0  0  0
    6.6790   -9.2449    2.1655 H   0  0  0  0  0  0  0  0  0  0  0  0
    2.7609   -5.8232   -0.4128 H   0  0  0  0  0  0  0  0  0  0  0  0
    1.5684   -4.8700   -1.1516 H   0  0  0  0  0  0  0  0  0  0  0  0
    1.4458   -2.4739   -0.7465 H   0  0  0  0  0  0  0  0  0  0  0  0
  2  1  1  6
  1 18  1  0
  1 19  1  0
  1 20  1  0
  2  3  1  0
  2  4  1  0
  2  5  1  0
  3 21  1  0
  3 22  1  0
  3 23  1  0
  4 24  1  0
  4 25  1  0
  4 26  1  0
  5  6  2  0
  5 17  1  0
  6  7  1  0
  6 27  1  0
  7  8  2  0
  7 28  1  0
  8  9  1  0
  8 15  1  0
  9 10  1  0
 10 11  1  0
 10 29  1  0
 10 30  1  0
 11 12  1  0
 11 31  1  0
 11 32  1  0
 12 13  2  0
 12 14  1  0
 14 33  1  0
 15 16  1  0
 15 17  2  0
 16 34  1  0
 16 35  1  0
 17 36  1  0
M  END

