
     RDKit          3D

 23 23  0  0  0  0  0  0  0  0999 V2000
    1.4462   -1.0595   -1.4108 F   0  0  0  0  0  0  0  0  0  0  0  0
    2.2859   -0.4135   -0.5436 C   0  0  1  0  0  0  0  0  0  0  0  0
    3.1445   -1.3012    0.0623 O   0  0  0  0  0  0  0  0  0  0  0  0
    2.6240   -2.0872    1.0723 C   0  0  0  0  0  0  0  0  0  0  0  0
    2.1495   -3.3663    0.7732 C   0  0  0  0  0  0  0  0  0  0  0  0
    1.6728   -4.1927    1.7927 C   0  0  0  0  0  0  0  0  0  0  0  0
    1.6673   -3.7380    3.1149 C   0  0  0  0  0  0  0  0  0  0  0  0
    2.1370   -2.4586    3.4210 C   0  0  0  0  0  0  0  0  0  0  0  0
    2.6135   -1.6307    2.4006 C   0  0  0  0  0  0  0  0  0  0  0  0
    3.2005   -0.0303    2.7720 Cl  0  0  0  0  0  0  0  0  0  0  0  0
    3.1442    0.5776   -1.3484 C   0  0  1  0  0  0  0  0  0  0  0  0
    3.9626    1.2477   -0.5175 F   0  0  0  0  0  0  0  0  0  0  0  0
    3.9066   -0.0679   -2.2417 F   0  0  0  0  0  0  0  0  0  0  0  0
    2.2727    1.4473   -1.9879 O   0  0  0  0  0  0  0  0  0  0  0  0
    2.7149    2.6250   -2.5372 C   0  0  1  0  0  0  0  0  0  0  0  0
    3.8567    2.4774   -3.2058 F   0  0  0  0  0  0  0  0  0  0  0  0
    1.7727    3.0390   -3.3700 F   0  0  0  0  0  0  0  0  0  0  0  0
    2.8978    3.5573   -1.6027 F   0  0  0  0  0  0  0  0  0  0  0  0
    1.6679    0.1428    0.1819 H   0  0  0  0  0  0  0  0  0  0  0  0
    2.1707   -3.6939   -0.2675 H   0  0  0  0  0  0  0  0  0  0  0  0
    1.3058   -5.1930    1.5525 H   0  0  0  0  0  0  0  0  0  0  0  0
    1.2978   -4.3810    3.9170 H   0  0  0  0  0  0  0  0  0  0  0  0
    2.1407   -2.0901    4.4482 H   0  0  0  0  0  0  0  0  0  0  0  0
  1  2  1  0
  2  3  1  0
  2 11  1  0
  2 19  1  1
  3  4  1  0
  4  5  2  0
  4  9  1  0
  5  6  1  0
  5 20  1  0
  6  7  2  0
  6 21  1  0
  7  8  1  0
  7 22  1  0
  8  9  2  0
  8 23  1  0
  9 10  1  0
 11 12  1  1
 11 13  1  0
 11 14  1  0
 14 15  1  0
 15 16  1  6
 15 17  1  0
 15 18  1  0
M  END

