
     RDKit          3D

 44 46  0  0  0  0  0  0  0  0999 V2000
    1.6501   -2.6593    2.9398 O   0  0  0  0  0  0  0  0  0  0  0  0
    0.9909   -3.6219    2.6538 C   0  0  0  0  0  0  0  0  0  0  0  0
   -0.2324   -3.7889    3.2127 O   0  0  0  0  0  0  0  0  0  0  0  0
    1.4357   -4.7387    1.6986 C   0  0  1  0  0  0  0  0  0  0  0  0
    0.4172   -4.9944    0.5595 C   0  0  0  0  0  0  0  0  0  0  0  0
    0.4694   -3.8835   -0.5065 C   0  0  0  0  0  0  0  0  0  0  0  0
    1.8062   -3.6621   -1.0525 N   0  0  0  0  0  0  0  0  0  0  0  0
    2.2365   -4.6608   -2.0253 C   0  0  0  0  0  0  0  0  0  0  0  0
    1.5055   -4.5443   -3.3524 C   0  0  0  0  0  0  0  0  0  0  0  0
    1.1002   -3.3002   -3.8526 C   0  0  0  0  0  0  0  0  0  0  0  0
    0.4337   -3.1852   -5.0753 C   0  0  0  0  0  0  0  0  0  0  0  0
    0.1595   -4.3330   -5.8224 C   0  0  0  0  0  0  0  0  0  0  0  0
    0.5554   -5.5874   -5.3514 C   0  0  0  0  0  0  0  0  0  0  0  0
    1.2253   -5.6842   -4.1276 C   0  0  0  0  0  0  0  0  0  0  0  0
    1.6830   -6.8944   -3.6314 O   0  0  0  0  0  0  0  0  0  0  0  0
    1.1594   -8.0788   -4.0710 C   0  0  0  0  0  0  0  0  0  0  0  0
    1.8977   -8.8752   -4.9531 C   0  0  0  0  0  0  0  0  0  0  0  0
    1.4270  -10.1241   -5.3614 C   0  0  0  0  0  0  0  0  0  0  0  0
    0.1986  -10.5667   -4.8760 C   0  0  0  0  0  0  0  0  0  0  0  0
   -0.2677  -11.7616   -5.2596 F   0  0  0  0  0  0  0  0  0  0  0  0
   -0.5613   -9.8026   -3.9931 C   0  0  0  0  0  0  0  0  0  0  0  0
   -0.0742   -8.5568   -3.5909 C   0  0  0  0  0  0  0  0  0  0  0  0
   -0.9977   -7.6005   -2.4636 Cl  0  0  0  0  0  0  0  0  0  0  0  0
    2.7666   -3.3739    0.0114 C   0  0  0  0  0  0  0  0  0  0  0  0
    2.8283   -4.4524    1.1093 C   0  0  0  0  0  0  0  0  0  0  0  0
   -0.6378   -4.6100    2.9000 H   0  0  0  0  0  0  0  0  0  0  0  0
    1.4891   -5.6481    2.3274 H   0  0  0  0  0  0  0  0  0  0  0  0
   -0.6149   -5.0870    0.9424 H   0  0  0  0  0  0  0  0  0  0  0  0
    0.6458   -5.9673    0.0947 H   0  0  0  0  0  0  0  0  0  0  0  0
    0.1177   -2.9342   -0.0620 H   0  0  0  0  0  0  0  0  0  0  0  0
   -0.2217   -4.1214   -1.3296 H   0  0  0  0  0  0  0  0  0  0  0  0
    2.1479   -5.7046   -1.6680 H   0  0  0  0  0  0  0  0  0  0  0  0
    3.3150   -4.5016   -2.2041 H   0  0  0  0  0  0  0  0  0  0  0  0
    1.3070   -2.4185   -3.2420 H   0  0  0  0  0  0  0  0  0  0  0  0
    0.1265   -2.2026   -5.4412 H   0  0  0  0  0  0  0  0  0  0  0  0
   -0.3640   -4.2591   -6.7790 H   0  0  0  0  0  0  0  0  0  0  0  0
    0.3472   -6.4870   -5.9327 H   0  0  0  0  0  0  0  0  0  0  0  0
    2.8575   -8.4948   -5.3080 H   0  0  0  0  0  0  0  0  0  0  0  0
    1.9958  -10.7547   -6.0465 H   0  0  0  0  0  0  0  0  0  0  0  0
   -1.5143  -10.1791   -3.6207 H   0  0  0  0  0  0  0  0  0  0  0  0
    2.4868   -2.4154    0.4785 H   0  0  0  0  0  0  0  0  0  0  0  0
    3.7631   -3.2324   -0.4368 H   0  0  0  0  0  0  0  0  0  0  0  0
    3.5122   -4.1296    1.9084 H   0  0  0  0  0  0  0  0  0  0  0  0
    3.2307   -5.3911    0.6922 H   0  0  0  0  0  0  0  0  0  0  0  0
  1  2  2  0
  2  3  1  0
  2  4  1  0
  3 26  1  0
  4  5  1  0
  4 25  1  0
  4 27  1  1
  5  6  1  0
  5 28  1  0
  5 29  1  0
  6  7  1  0
  6 30  1  0
  6 31  1  0
  7  8  1  0
  7 24  1  0
  8  9  1  0
  8 32  1  0
  8 33  1  0
  9 10  2  0
  9 14  1  0
 10 11  1  0
 10 34  1  0
 11 12  2  0
 11 35  1  0
 12 13  1  0
 12 36  1  0
 13 14  2  0
 13 37  1  0
 14 15  1  0
 15 16  1  0
 16 17  2  0
 16 22  1  0
 17 18  1  0
 17 38  1  0
 18 19  2  0
 18 39  1  0
 19 20  1  0
 19 21  1  0
 21 22  2  0
 21 40  1  0
 22 23  1  0
 24 25  1  0
 24 41  1  0
 24 42  1  0
 25 43  1  0
 25 44  1  0
M  END

