
     RDKit          3D

 69 74  0  0  0  0  0  0  0  0999 V2000
    4.9379   -2.5288   -2.1777 C   0  0  0  0  0  0  0  0  0  0  0  0
    4.6712   -1.3605   -1.2628 C   0  0  0  0  0  0  0  0  0  0  0  0
    5.5286   -0.2487   -1.2593 C   0  0  0  0  0  0  0  0  0  0  0  0
    5.3013    0.8529   -0.4329 C   0  0  0  0  0  0  0  0  0  0  0  0
    4.1933    0.8680    0.4177 C   0  0  0  0  0  0  0  0  0  0  0  0
    3.3281   -0.2251    0.4386 C   0  0  0  0  0  0  0  0  0  0  0  0
    3.5694   -1.3285   -0.3859 C   0  0  0  0  0  0  0  0  0  0  0  0
    2.6650   -2.4521   -0.3199 N   0  0  0  0  0  0  0  0  0  0  0  0
    3.2308   -3.6130    0.0434 N   0  0  0  0  0  0  0  0  0  0  0  0
    2.4952   -4.6921    0.1628 C   0  0  0  0  0  0  0  0  0  0  0  0
    3.1416   -5.9466    0.5800 C   0  0  0  0  0  0  0  0  0  0  0  0
    4.2404   -6.2012    1.4758 C   0  0  0  0  0  0  0  0  0  0  0  0
    5.0159   -5.2774    2.3328 C   0  0  0  0  0  0  0  0  0  0  0  0
    4.4462   -4.1326    2.9167 C   0  0  0  0  0  0  0  0  0  0  0  0
    5.1916   -3.3044    3.7565 C   0  0  0  0  0  0  0  0  0  0  0  0
    6.5215   -3.6260    4.0163 C   0  0  0  0  0  0  0  0  0  0  0  0
    7.2445   -2.8298    4.8202 F   0  0  0  0  0  0  0  0  0  0  0  0
    7.1168   -4.7573    3.4632 C   0  0  0  0  0  0  0  0  0  0  0  0
    6.3596   -5.5765    2.6260 C   0  0  0  0  0  0  0  0  0  0  0  0
    4.5356   -7.4996    1.5132 N   0  0  0  0  0  0  0  0  0  0  0  0
    3.6813   -8.0972    0.6565 N   0  0  0  0  0  0  0  0  0  0  0  0
    2.8191   -7.2182    0.0859 C   0  0  0  0  0  0  0  0  0  0  0  0
    1.8694   -7.6594   -0.8185 N   0  0  0  0  0  0  0  0  0  0  0  0
    1.7411   -9.0962   -1.0340 C   0  0  0  0  0  0  0  0  0  0  0  0
    3.0934   -9.8573   -0.9579 C   0  0  2  0  0  0  0  0  0  0  0  0
    4.0526   -9.4318   -2.0980 C   0  0  0  0  0  0  0  0  0  0  0  0
    3.6287   -9.9885   -3.4673 C   0  0  0  0  0  0  0  0  0  0  0  0
    3.4512  -11.4386   -3.4890 N   0  0  0  0  0  0  0  0  0  0  0  0
    4.6775  -12.2381   -3.5687 C   0  0  0  0  0  0  0  0  0  0  0  0
    4.4267  -13.5013   -4.3985 C   0  0  0  0  0  0  0  0  0  0  0  0
    3.8628  -13.1711   -5.6396 O   0  0  0  0  0  0  0  0  0  0  0  0
    2.4987  -11.8632   -2.4627 C   0  0  0  0  0  0  0  0  0  0  0  0
    2.8603  -11.3826   -1.0451 C   0  0  0  0  0  0  0  0  0  0  0  0
    3.7016   -9.5285    0.4215 C   0  0  0  0  0  0  0  0  0  0  0  0
    1.0775   -4.6478   -0.1107 C   0  0  0  0  0  0  0  0  0  0  0  0
    0.5065   -3.4798   -0.5008 C   0  0  0  0  0  0  0  0  0  0  0  0
    1.2926   -2.2583   -0.6353 C   0  0  0  0  0  0  0  0  0  0  0  0
    0.8561   -1.1723   -0.9741 O   0  0  0  0  0  0  0  0  0  0  0  0
    5.6858   -2.2627   -2.9387 H   0  0  0  0  0  0  0  0  0  0  0  0
    4.0217   -2.8527   -2.6970 H   0  0  0  0  0  0  0  0  0  0  0  0
    5.3083   -3.3986   -1.6129 H   0  0  0  0  0  0  0  0  0  0  0  0
    6.3917   -0.2509   -1.9308 H   0  0  0  0  0  0  0  0  0  0  0  0
    5.9876    1.7030   -0.4586 H   0  0  0  0  0  0  0  0  0  0  0  0
    4.0010    1.7274    1.0643 H   0  0  0  0  0  0  0  0  0  0  0  0
    2.4537   -0.2264    1.0906 H   0  0  0  0  0  0  0  0  0  0  0  0
    3.4014   -3.8870    2.7265 H   0  0  0  0  0  0  0  0  0  0  0  0
    4.7558   -2.4144    4.2143 H   0  0  0  0  0  0  0  0  0  0  0  0
    8.1612   -4.9799    3.6909 H   0  0  0  0  0  0  0  0  0  0  0  0
    6.8064   -6.4700    2.1873 H   0  0  0  0  0  0  0  0  0  0  0  0
    1.7233   -7.0594   -1.6221 H   0  0  0  0  0  0  0  0  0  0  0  0
    1.2476   -9.2488   -2.0031 H   0  0  0  0  0  0  0  0  0  0  0  0
    1.0661   -9.5241   -0.2692 H   0  0  0  0  0  0  0  0  0  0  0  0
    5.0657   -9.7993   -1.8599 H   0  0  0  0  0  0  0  0  0  0  0  0
    4.1312   -8.3337   -2.1515 H   0  0  0  0  0  0  0  0  0  0  0  0
    2.6758   -9.5244   -3.7820 H   0  0  0  0  0  0  0  0  0  0  0  0
    4.3694   -9.7091   -4.2324 H   0  0  0  0  0  0  0  0  0  0  0  0
    5.1021  -12.5085   -2.5793 H   0  0  0  0  0  0  0  0  0  0  0  0
    5.4368  -11.6332   -4.0892 H   0  0  0  0  0  0  0  0  0  0  0  0
    3.7835  -14.2072   -3.8278 H   0  0  0  0  0  0  0  0  0  0  0  0
    5.3829  -14.0228   -4.5733 H   0  0  0  0  0  0  0  0  0  0  0  0
    3.2344  -12.4573   -5.4331 H   0  0  0  0  0  0  0  0  0  0  0  0
    2.4196  -12.9609   -2.4732 H   0  0  0  0  0  0  0  0  0  0  0  0
    1.4990  -11.4861   -2.7429 H   0  0  0  0  0  0  0  0  0  0  0  0
    3.7792  -11.8955   -0.7110 H   0  0  0  0  0  0  0  0  0  0  0  0
    2.0673  -11.6863   -0.3396 H   0  0  0  0  0  0  0  0  0  0  0  0
    4.7479   -9.8601    0.4878 H   0  0  0  0  0  0  0  0  0  0  0  0
    3.1379  -10.0484    1.2176 H   0  0  0  0  0  0  0  0  0  0  0  0
    0.4831   -5.5565    0.0089 H   0  0  0  0  0  0  0  0  0  0  0  0
   -0.5599   -3.3860   -0.7153 H   0  0  0  0  0  0  0  0  0  0  0  0
  1  2  1  0
  1 39  1  0
  1 40  1  0
  1 41  1  0
  2  3  2  0
  2  7  1  0
  3  4  1  0
  3 42  1  0
  4  5  2  0
  4 43  1  0
  5  6  1  0
  5 44  1  0
  6  7  2  0
  6 45  1  0
  7  8  1  0
  8  9  1  0
  8 37  1  0
  9 10  2  0
 10 11  1  0
 10 35  1  0
 11 12  1  0
 11 22  2  0
 12 13  1  0
 12 20  2  0
 13 14  2  0
 13 19  1  0
 14 15  1  0
 14 46  1  0
 15 16  2  0
 15 47  1  0
 16 17  1  0
 16 18  1  0
 18 19  2  0
 18 48  1  0
 19 49  1  0
 20 21  1  0
 21 22  1  0
 21 34  1  0
 22 23  1  0
 23 24  1  0
 23 50  1  0
 25 24  1  6
 24 51  1  0
 24 52  1  0
 25 26  1  0
 25 33  1  0
 25 34  1  0
 26 27  1  0
 26 53  1  0
 26 54  1  0
 27 28  1  0
 27 55  1  0
 27 56  1  0
 28 29  1  0
 28 32  1  0
 29 30  1  0
 29 57  1  0
 29 58  1  0
 30 31  1  0
 30 59  1  0
 30 60  1  0
 31 61  1  0
 32 33  1  0
 32 62  1  0
 32 63  1  0
 33 64  1  0
 33 65  1  0
 34 66  1  0
 34 67  1  0
 35 36  2  0
 35 68  1  0
 36 37  1  0
 36 69  1  0
 37 38  2  0
M  END

