
     RDKit          3D

 45 46  0  0  0  0  0  0  0  0999 V2000
    0.8386    1.1429    0.8138 C   0  0  0  0  0  0  0  0  0  0  0  0
    2.0309    0.6726    0.2250 O   0  0  0  0  0  0  0  0  0  0  0  0
    3.0787    1.5249    0.0718 C   0  0  0  0  0  0  0  0  0  0  0  0
    3.0769    2.8584    0.4981 C   0  0  0  0  0  0  0  0  0  0  0  0
    4.2005    3.6631    0.2746 C   0  0  0  0  0  0  0  0  0  0  0  0
    5.3137    3.1470   -0.3738 C   0  0  0  0  0  0  0  0  0  0  0  0
    5.3478    1.8048   -0.8196 C   0  0  0  0  0  0  0  0  0  0  0  0
    6.5600    1.3614   -1.5137 C   0  0  0  0  0  0  0  0  0  0  0  0
    6.8030    0.2346   -2.2133 C   0  0  0  0  0  0  0  0  0  0  0  0
    8.1345    0.0463   -2.8547 C   0  0  0  0  0  0  0  0  0  0  0  0
    9.0587    0.8446   -2.7614 O   0  0  0  0  0  0  0  0  0  0  0  0
    8.2587   -1.1138   -3.5798 N   0  0  0  0  0  0  0  0  0  0  0  0
    9.4706   -1.4343   -4.3040 C   0  0  0  0  0  0  0  0  0  0  0  0
   10.5539   -2.0246   -3.4012 C   0  0  0  0  0  0  0  0  0  0  0  0
   11.6494   -2.3632   -4.2318 O   0  0  0  0  0  0  0  0  0  0  0  0
   12.7804   -2.8752   -3.6851 C   0  0  0  0  0  0  0  0  0  0  0  0
   13.8154   -3.1940   -4.5823 C   0  0  0  0  0  0  0  0  0  0  0  0
   15.0142   -3.7277   -4.1204 C   0  0  0  0  0  0  0  0  0  0  0  0
   15.1924   -3.9499   -2.7490 C   0  0  0  0  0  0  0  0  0  0  0  0
   16.7010   -4.6229   -2.1650 Cl  0  0  0  0  0  0  0  0  0  0  0  0
   14.1745   -3.6370   -1.8494 C   0  0  0  0  0  0  0  0  0  0  0  0
   12.9677   -3.1002   -2.3128 C   0  0  0  0  0  0  0  0  0  0  0  0
    4.2195    0.9892   -0.5771 C   0  0  0  0  0  0  0  0  0  0  0  0
    4.2070   -0.3047   -1.0126 O   0  0  0  0  0  0  0  0  0  0  0  0
    4.1852   -1.3291   -0.0239 C   0  0  0  0  0  0  0  0  0  0  0  0
    0.1355    0.2992    0.8106 H   0  0  0  0  0  0  0  0  0  0  0  0
    0.3993    1.9768    0.2377 H   0  0  0  0  0  0  0  0  0  0  0  0
    0.9951    1.4742    1.8563 H   0  0  0  0  0  0  0  0  0  0  0  0
    2.2039    3.2776    0.9983 H   0  0  0  0  0  0  0  0  0  0  0  0
    4.1928    4.7024    0.6108 H   0  0  0  0  0  0  0  0  0  0  0  0
    6.1866    3.7787   -0.5532 H   0  0  0  0  0  0  0  0  0  0  0  0
    7.3945    2.0717   -1.4800 H   0  0  0  0  0  0  0  0  0  0  0  0
    6.0362   -0.5306   -2.3379 H   0  0  0  0  0  0  0  0  0  0  0  0
    7.4722   -1.7488   -3.6277 H   0  0  0  0  0  0  0  0  0  0  0  0
    9.8655   -0.5179   -4.7684 H   0  0  0  0  0  0  0  0  0  0  0  0
    9.2353   -2.1505   -5.1060 H   0  0  0  0  0  0  0  0  0  0  0  0
   10.1714   -2.9213   -2.8766 H   0  0  0  0  0  0  0  0  0  0  0  0
   10.8456   -1.2760   -2.6443 H   0  0  0  0  0  0  0  0  0  0  0  0
   13.6549   -3.0115   -5.6468 H   0  0  0  0  0  0  0  0  0  0  0  0
   15.8161   -3.9738   -4.8186 H   0  0  0  0  0  0  0  0  0  0  0  0
   14.3218   -3.8109   -0.7821 H   0  0  0  0  0  0  0  0  0  0  0  0
   12.1863   -2.8590   -1.5921 H   0  0  0  0  0  0  0  0  0  0  0  0
    4.2624   -2.2851   -0.5609 H   0  0  0  0  0  0  0  0  0  0  0  0
    3.2494   -1.3136    0.5542 H   0  0  0  0  0  0  0  0  0  0  0  0
    5.0438   -1.2339    0.6642 H   0  0  0  0  0  0  0  0  0  0  0  0
  1  2  1  0
  1 26  1  0
  1 27  1  0
  1 28  1  0
  2  3  1  0
  3  4  2  0
  3 23  1  0
  4  5  1  0
  4 29  1  0
  5  6  2  0
  5 30  1  0
  6  7  1  0
  6 31  1  0
  7  8  1  0
  7 23  2  0
  8  9  2  0
  8 32  1  0
  9 10  1  0
  9 33  1  0
 10 11  2  0
 10 12  1  0
 12 13  1  0
 12 34  1  0
 13 14  1  0
 13 35  1  0
 13 36  1  0
 14 15  1  0
 14 37  1  0
 14 38  1  0
 15 16  1  0
 16 17  2  0
 16 22  1  0
 17 18  1  0
 17 39  1  0
 18 19  2  0
 18 40  1  0
 19 20  1  0
 19 21  1  0
 21 22  2  0
 21 41  1  0
 22 42  1  0
 23 24  1  0
 24 25  1  0
 25 43  1  0
 25 44  1  0
 25 45  1  0
M  END

