
     RDKit          3D

 42 44  0  0  0  0  0  0  0  0999 V2000
    1.3030    0.0774    1.2109 O   0  0  0  0  0  0  0  0  0  0  0  0
    2.3670   -0.0604    0.6271 C   0  0  0  0  0  0  0  0  0  0  0  0
    2.6526   -1.3933   -0.0775 C   0  0  0  0  0  0  0  0  0  0  0  0
    2.9307   -1.1787   -1.4510 O   0  0  0  0  0  0  0  0  0  0  0  0
    3.0807   -2.2463   -2.2749 C   0  0  0  0  0  0  0  0  0  0  0  0
    3.0037   -3.5836   -1.8566 C   0  0  0  0  0  0  0  0  0  0  0  0
    3.1733   -4.6336   -2.7648 C   0  0  0  0  0  0  0  0  0  0  0  0
    3.4216   -4.3420   -4.0999 C   0  0  0  0  0  0  0  0  0  0  0  0
    3.5861   -5.3404   -4.9797 F   0  0  0  0  0  0  0  0  0  0  0  0
    3.5040   -3.0251   -4.5508 C   0  0  0  0  0  0  0  0  0  0  0  0
    3.3335   -1.9849   -3.6393 C   0  0  0  0  0  0  0  0  0  0  0  0
    3.4397   -0.1889   -4.2527 Br  0  0  0  0  0  0  0  0  0  0  0  0
    3.3323    0.9080    0.5967 N   0  0  0  0  0  0  0  0  0  0  0  0
    4.6765    0.7859    0.0412 C   0  0  0  0  0  0  0  0  0  0  0  0
    4.9935    1.9789   -0.8594 C   0  0  0  0  0  0  0  0  0  0  0  0
    4.7834    3.2365   -0.1374 N   0  0  0  0  0  0  0  0  0  0  0  0
    5.4206    4.3910   -0.6324 C   0  0  0  0  0  0  0  0  0  0  0  0
    4.6935    5.4848   -1.1446 C   0  0  0  0  0  0  0  0  0  0  0  0
    5.3268    6.6407   -1.6046 C   0  0  0  0  0  0  0  0  0  0  0  0
    6.7190    6.7353   -1.5836 C   0  0  0  0  0  0  0  0  0  0  0  0
    7.4691    5.6703   -1.0790 C   0  0  0  0  0  0  0  0  0  0  0  0
    6.8309    4.5254   -0.6006 C   0  0  0  0  0  0  0  0  0  0  0  0
    7.8304    3.2681    0.1090 Cl  0  0  0  0  0  0  0  0  0  0  0  0
    3.4152    3.3548    0.3488 C   0  0  0  0  0  0  0  0  0  0  0  0
    3.0839    2.1794    1.2691 C   0  0  0  0  0  0  0  0  0  0  0  0
    1.7391   -1.9931    0.0520 H   0  0  0  0  0  0  0  0  0  0  0  0
    3.4941   -1.9200    0.4138 H   0  0  0  0  0  0  0  0  0  0  0  0
    2.8073   -3.8199   -0.8111 H   0  0  0  0  0  0  0  0  0  0  0  0
    3.1126   -5.6740   -2.4411 H   0  0  0  0  0  0  0  0  0  0  0  0
    3.6985   -2.8228   -5.6045 H   0  0  0  0  0  0  0  0  0  0  0  0
    4.7672   -0.1357   -0.5418 H   0  0  0  0  0  0  0  0  0  0  0  0
    5.4124    0.7626    0.8667 H   0  0  0  0  0  0  0  0  0  0  0  0
    4.3463    1.9308   -1.7599 H   0  0  0  0  0  0  0  0  0  0  0  0
    6.0371    1.9104   -1.1892 H   0  0  0  0  0  0  0  0  0  0  0  0
    3.6057    5.4200   -1.1944 H   0  0  0  0  0  0  0  0  0  0  0  0
    4.7243    7.4652   -1.9939 H   0  0  0  0  0  0  0  0  0  0  0  0
    7.2243    7.6328   -1.9473 H   0  0  0  0  0  0  0  0  0  0  0  0
    8.5580    5.7248   -1.0294 H   0  0  0  0  0  0  0  0  0  0  0  0
    2.6757    3.3789   -0.4812 H   0  0  0  0  0  0  0  0  0  0  0  0
    3.3129    4.2917    0.9164 H   0  0  0  0  0  0  0  0  0  0  0  0
    2.0305    2.1986    1.5741 H   0  0  0  0  0  0  0  0  0  0  0  0
    3.7128    2.2430    2.1765 H   0  0  0  0  0  0  0  0  0  0  0  0
  1  2  2  0
  2  3  1  0
  2 13  1  0
  3  4  1  0
  3 26  1  0
  3 27  1  0
  4  5  1  0
  5  6  2  0
  5 11  1  0
  6  7  1  0
  6 28  1  0
  7  8  2  0
  7 29  1  0
  8  9  1  0
  8 10  1  0
 10 11  2  0
 10 30  1  0
 11 12  1  0
 13 14  1  0
 13 25  1  0
 14 15  1  0
 14 31  1  0
 14 32  1  0
 15 16  1  0
 15 33  1  0
 15 34  1  0
 16 17  1  0
 16 24  1  0
 17 18  2  0
 17 22  1  0
 18 19  1  0
 18 35  1  0
 19 20  2  0
 19 36  1  0
 20 21  1  0
 20 37  1  0
 21 22  2  0
 21 38  1  0
 22 23  1  0
 24 25  1  0
 24 39  1  0
 24 40  1  0
 25 41  1  0
 25 42  1  0
M  END

