
     RDKit          3D

 46 48  0  0  0  0  0  0  0  0999 V2000
    5.0673    1.7137   -4.0060 C   0  0  0  0  0  0  0  0  0  0  0  0
    4.9723   -0.0080   -4.5730 S   0  0  0  0  0  0  0  0  0  0  0  0
    4.3852   -0.8905   -3.1457 C   0  0  0  0  0  0  0  0  0  0  0  0
    4.0858   -0.3020   -1.9069 C   0  0  0  0  0  0  0  0  0  0  0  0
    3.6302   -1.1069   -0.8589 C   0  0  0  0  0  0  0  0  0  0  0  0
    3.4614   -2.4839   -1.0006 C   0  0  0  0  0  0  0  0  0  0  0  0
    3.7601   -3.0746   -2.2425 C   0  0  0  0  0  0  0  0  0  0  0  0
    3.6174   -4.4537   -2.4985 N   0  0  0  0  0  0  0  0  0  0  0  0
    3.2333   -5.4581   -1.6415 C   0  0  0  0  0  0  0  0  0  0  0  0
    2.9829   -5.2959   -0.4594 O   0  0  0  0  0  0  0  0  0  0  0  0
    3.1505   -6.8322   -2.2664 C   0  0  0  0  0  0  0  0  0  0  0  0
    3.2791   -7.9321   -1.4031 C   0  0  0  0  0  0  0  0  0  0  0  0
    3.2033   -9.2344   -1.8940 C   0  0  0  0  0  0  0  0  0  0  0  0
    2.9652   -9.4366   -3.2590 C   0  0  0  0  0  0  0  0  0  0  0  0
    2.8165  -11.1154   -3.8963 S   0  0  1  0  0  0  0  0  0  0  0  0
    3.0688  -11.0577   -5.3368 O   0  0  0  0  0  0  0  0  0  0  0  0
    3.5692  -11.9874   -2.9974 O   0  0  0  0  0  0  0  0  0  0  0  0
    1.2002  -11.5494   -3.7223 N   0  0  0  0  0  0  0  0  0  0  0  0
    0.2115  -11.0626   -4.6750 C   0  0  0  0  0  0  0  0  0  0  0  0
   -0.8272  -12.1592   -4.8755 C   0  0  0  0  0  0  0  0  0  0  0  0
   -1.3334  -12.6091   -3.5883 N   0  0  0  0  0  0  0  0  0  0  0  0
   -0.6552  -12.5879   -2.4032 C   0  0  0  0  0  0  0  0  0  0  0  0
   -1.0983  -13.0670   -1.3776 O   0  0  0  0  0  0  0  0  0  0  0  0
    0.6945  -11.8630   -2.3902 C   0  0  0  0  0  0  0  0  0  0  0  0
    2.8249   -8.3563   -4.1352 C   0  0  0  0  0  0  0  0  0  0  0  0
    2.9167   -7.0569   -3.6330 C   0  0  0  0  0  0  0  0  0  0  0  0
    4.2180   -2.2752   -3.3011 C   0  0  0  0  0  0  0  0  0  0  0  0
    5.4312    2.2859   -4.8710 H   0  0  0  0  0  0  0  0  0  0  0  0
    5.7809    1.8319   -3.1773 H   0  0  0  0  0  0  0  0  0  0  0  0
    4.0808    2.1028   -3.7134 H   0  0  0  0  0  0  0  0  0  0  0  0
    4.2030    0.7697   -1.7481 H   0  0  0  0  0  0  0  0  0  0  0  0
    3.3999   -0.6438    0.1043 H   0  0  0  0  0  0  0  0  0  0  0  0
    3.1133   -3.1022   -0.1780 H   0  0  0  0  0  0  0  0  0  0  0  0
    3.9062   -4.7432   -3.4248 H   0  0  0  0  0  0  0  0  0  0  0  0
    3.4462   -7.7413   -0.3416 H   0  0  0  0  0  0  0  0  0  0  0  0
    3.3459  -10.0918   -1.2341 H   0  0  0  0  0  0  0  0  0  0  0  0
    0.7119  -10.8490   -5.6277 H   0  0  0  0  0  0  0  0  0  0  0  0
   -0.2769  -10.1355   -4.3114 H   0  0  0  0  0  0  0  0  0  0  0  0
   -0.3666  -12.9921   -5.4384 H   0  0  0  0  0  0  0  0  0  0  0  0
   -1.6647  -11.7694   -5.4768 H   0  0  0  0  0  0  0  0  0  0  0  0
   -2.2025  -13.1345   -3.5582 H   0  0  0  0  0  0  0  0  0  0  0  0
    1.4061  -12.5181   -1.8715 H   0  0  0  0  0  0  0  0  0  0  0  0
    0.5525  -10.9576   -1.7643 H   0  0  0  0  0  0  0  0  0  0  0  0
    2.6622   -8.5369   -5.1989 H   0  0  0  0  0  0  0  0  0  0  0  0
    2.7785   -6.2199   -4.3221 H   0  0  0  0  0  0  0  0  0  0  0  0
    4.4492   -2.7376   -4.2660 H   0  0  0  0  0  0  0  0  0  0  0  0
  1  2  1  0
  1 28  1  0
  1 29  1  0
  1 30  1  0
  2  3  1  0
  3  4  2  0
  3 27  1  0
  4  5  1  0
  4 31  1  0
  5  6  2  0
  5 32  1  0
  6  7  1  0
  6 33  1  0
  7  8  1  0
  7 27  2  0
  8  9  1  0
  8 34  1  0
  9 10  2  0
  9 11  1  0
 11 12  2  0
 11 26  1  0
 12 13  1  0
 12 35  1  0
 13 14  2  0
 13 36  1  0
 15 14  1  1
 14 25  1  0
 15 16  2  0
 15 17  2  0
 15 18  1  0
 18 19  1  0
 18 24  1  0
 19 20  1  0
 19 37  1  0
 19 38  1  0
 20 21  1  0
 20 39  1  0
 20 40  1  0
 21 22  1  0
 21 41  1  0
 22 23  2  0
 22 24  1  0
 24 42  1  0
 24 43  1  0
 25 26  2  0
 25 44  1  0
 26 45  1  0
 27 46  1  0
M  END

