
     RDKit          3D

 41 43  0  0  0  0  0  0  0  0999 V2000
    3.6446    1.8635   -1.2102 C   0  0  0  0  0  0  0  0  0  0  0  0
    4.2472    1.1307   -0.0286 C   0  0  1  0  0  0  0  0  0  0  0  0
    3.2856    1.1189    1.0260 O   0  0  0  0  0  0  0  0  0  0  0  0
    3.6344    0.3942    2.1252 C   0  0  0  0  0  0  0  0  0  0  0  0
    3.1695    0.7921    3.3786 C   0  0  0  0  0  0  0  0  0  0  0  0
    3.4775    0.0355    4.5123 C   0  0  0  0  0  0  0  0  0  0  0  0
    4.2580   -1.1154    4.3846 C   0  0  0  0  0  0  0  0  0  0  0  0
    4.7274   -1.5188    3.1303 C   0  0  0  0  0  0  0  0  0  0  0  0
    4.4215   -0.7688    1.9835 C   0  0  0  0  0  0  0  0  0  0  0  0
    4.8189   -1.1540    0.6797 N   0  0  0  0  0  0  0  0  0  0  0  0
    5.3702   -2.4845    0.4338 C   0  0  0  0  0  0  0  0  0  0  0  0
    4.3042   -3.5891    0.4108 C   0  0  0  0  0  0  0  0  0  0  0  0
    4.9363   -4.9587    0.6445 C   0  0  0  0  0  0  0  0  0  0  0  0
    5.7825   -5.1294    1.5074 O   0  0  0  0  0  0  0  0  0  0  0  0
    4.4657   -5.9625   -0.1596 N   0  0  0  0  0  0  0  0  0  0  0  0
    4.8484   -7.3102   -0.1033 C   0  0  0  0  0  0  0  0  0  0  0  0
    5.7843   -7.9500    0.7536 C   0  0  0  0  0  0  0  0  0  0  0  0
    5.8652   -9.2488    0.4742 N   0  0  0  0  0  0  0  0  0  0  0  0
    5.0196   -9.4631   -0.5377 N   0  0  0  0  0  0  0  0  0  0  0  0
    4.8040  -10.8075   -1.0289 C   0  0  0  0  0  0  0  0  0  0  0  0
    4.3719   -8.3263   -0.9234 C   0  0  0  0  0  0  0  0  0  0  0  0
    4.6941   -0.2914   -0.3909 C   0  0  0  0  0  0  0  0  0  0  0  0
    4.9700   -0.6090   -1.5341 O   0  0  0  0  0  0  0  0  0  0  0  0
    3.3902    2.8933   -0.9214 H   0  0  0  0  0  0  0  0  0  0  0  0
    2.7307    1.3534   -1.5492 H   0  0  0  0  0  0  0  0  0  0  0  0
    4.3603    1.8807   -2.0422 H   0  0  0  0  0  0  0  0  0  0  0  0
    5.1539    1.6664    0.3257 H   0  0  0  0  0  0  0  0  0  0  0  0
    2.5621    1.6975    3.4375 H   0  0  0  0  0  0  0  0  0  0  0  0
    3.1099    0.3491    5.4920 H   0  0  0  0  0  0  0  0  0  0  0  0
    4.5042   -1.7156    5.2633 H   0  0  0  0  0  0  0  0  0  0  0  0
    5.3110   -2.4361    3.0499 H   0  0  0  0  0  0  0  0  0  0  0  0
    6.1174   -2.7222    1.2023 H   0  0  0  0  0  0  0  0  0  0  0  0
    5.8839   -2.4365   -0.5340 H   0  0  0  0  0  0  0  0  0  0  0  0
    3.7251   -3.5455   -0.5252 H   0  0  0  0  0  0  0  0  0  0  0  0
    3.5943   -3.4288    1.2408 H   0  0  0  0  0  0  0  0  0  0  0  0
    3.7731   -5.7148   -0.8554 H   0  0  0  0  0  0  0  0  0  0  0  0
    6.3849   -7.4960    1.5357 H   0  0  0  0  0  0  0  0  0  0  0  0
    5.7526  -11.3565   -0.9666 H   0  0  0  0  0  0  0  0  0  0  0  0
    4.4724  -10.7714   -2.0762 H   0  0  0  0  0  0  0  0  0  0  0  0
    4.0461  -11.3393   -0.4294 H   0  0  0  0  0  0  0  0  0  0  0  0
    3.6455   -8.3195   -1.7336 H   0  0  0  0  0  0  0  0  0  0  0  0
  1  2  1  0
  1 24  1  0
  1 25  1  0
  1 26  1  0
  2  3  1  0
  2 22  1  0
  2 27  1  1
  3  4  1  0
  4  5  1  0
  4  9  2  0
  5  6  2  0
  5 28  1  0
  6  7  1  0
  6 29  1  0
  7  8  2  0
  7 30  1  0
  8  9  1  0
  8 31  1  0
  9 10  1  0
 10 11  1  0
 10 22  1  0
 11 12  1  0
 11 32  1  0
 11 33  1  0
 12 13  1  0
 12 34  1  0
 12 35  1  0
 13 14  2  0
 13 15  1  0
 15 16  1  0
 15 36  1  0
 16 17  1  0
 16 21  2  0
 17 18  2  0
 17 37  1  0
 18 19  1  0
 19 20  1  0
 19 21  1  0
 20 38  1  0
 20 39  1  0
 20 40  1  0
 21 41  1  0
 22 23  2  0
M  END

