
     RDKit          3D

 65 67  0  0  0  0  0  0  0  0999 V2000
    1.1657    0.2051    0.6332 N   0  0  0  0  0  0  0  0  0  0  0  0
    2.4995    0.2882    0.4453 C   0  0  0  0  0  0  0  0  0  0  0  0
    3.0483    1.4830    0.3763 N   0  0  0  0  0  0  0  0  0  0  0  0
    4.3870    1.6555    0.2053 C   0  0  0  0  0  0  0  0  0  0  0  0
    4.9589    2.7252    0.0964 O   0  0  0  0  0  0  0  0  0  0  0  0
    5.1931    0.4589    0.1667 N   0  0  0  0  0  0  0  0  0  0  0  0
    6.6620    0.6273    0.0340 C   0  0  1  0  0  0  0  0  0  0  0  0
    6.8389    1.1493   -0.9200 H   0  0  0  0  0  0  0  0  0  0  0  0
    7.3064    1.3796    1.2117 C   0  0  0  0  0  0  0  0  0  0  0  0
    8.6503    0.6561    1.3788 C   0  0  2  0  0  0  0  0  0  0  0  0
    9.0307    0.7203    2.4163 H   0  0  0  0  0  0  0  0  0  0  0  0
    9.6176    1.0928    0.4457 O   0  0  0  0  0  0  0  0  0  0  0  0
    8.2757   -0.7827    1.0027 C   0  0  1  0  0  0  0  0  0  0  0  0
    9.1286   -1.2931    0.5316 H   0  0  0  0  0  0  0  0  0  0  0  0
    7.7984   -1.5666    2.2191 C   0  0  0  0  0  0  0  0  0  0  0  0
    7.2830   -2.8553    1.8100 O   0  0  0  0  0  0  0  0  0  0  0  0
    5.9355   -3.4582    2.4376 P   0  0  1  0  0  0  0  0  0  0  0  0
    5.2092   -2.5873    3.3829 O   0  0  0  0  0  0  0  0  0  0  0  0
    5.1109   -4.0405    1.1931 O   0  0  0  0  0  0  0  0  0  0  0  0
    6.4360   -4.9125    3.0232 O   0  0  0  0  0  0  0  0  0  0  0  0
    7.5363   -5.4222    4.0821 P   0  0  1  0  0  0  0  0  0  0  0  0
    7.1177   -6.6157    4.8332 O   0  0  0  0  0  0  0  0  0  0  0  0
    8.9008   -5.5574    3.2406 O   0  0  0  0  0  0  0  0  0  0  0  0
    7.7962   -4.0640    4.9344 O   0  0  0  0  0  0  0  0  0  0  0  0
    9.1122   -3.3507    5.6099 P   0  0  1  0  0  0  0  0  0  0  0  0
    9.7977   -2.3472    4.7768 O   0  0  0  0  0  0  0  0  0  0  0  0
    8.4768   -2.7810    6.9561 O   0  0  0  0  0  0  0  0  0  0  0  0
    9.9987   -4.6278    6.0382 O   0  0  0  0  0  0  0  0  0  0  0  0
    7.2605   -0.6466    0.0012 O   0  0  0  0  0  0  0  0  0  0  0  0
    4.6340   -0.7621    0.1696 C   0  0  0  0  0  0  0  0  0  0  0  0
    3.2745   -0.9374    0.3091 C   0  0  0  0  0  0  0  0  0  0  0  0
    2.7032   -2.2408    0.3532 C   0  0  0  0  0  0  0  0  0  0  0  0
    2.2243   -3.3631    0.4071 C   0  0  0  0  0  0  0  0  0  0  0  0
    1.6977   -4.7348    0.4208 C   0  0  0  0  0  0  0  0  0  0  0  0
    2.2033   -5.5517    1.5114 N   0  0  0  0  0  0  0  0  0  0  0  0
    1.3565   -6.0922    2.4445 C   0  0  0  0  0  0  0  0  0  0  0  0
    0.1457   -5.9370    2.3872 O   0  0  0  0  0  0  0  0  0  0  0  0
    1.9927   -6.9158    3.5366 C   0  0  0  0  0  0  0  0  0  0  0  0
    3.3599   -6.8652    3.8669 C   0  0  0  0  0  0  0  0  0  0  0  0
    3.8704   -7.6484    4.9006 C   0  0  0  0  0  0  0  0  0  0  0  0
    3.0127   -8.4983    5.6196 C   0  0  0  0  0  0  0  0  0  0  0  0
    3.5384   -9.3421    6.7242 C   0  0  0  0  0  0  0  0  0  0  0  0
    4.6916   -9.3721    7.0846 O   0  0  0  0  0  0  0  0  0  0  0  0
    1.6470   -8.5447    5.2980 C   0  0  0  0  0  0  0  0  0  0  0  0
    1.1388   -7.7553    4.2695 C   0  0  0  0  0  0  0  0  0  0  0  0
    0.6463    1.0655    0.7538 H   0  0  0  0  0  0  0  0  0  0  0  0
    0.7069   -0.6877    0.7513 H   0  0  0  0  0  0  0  0  0  0  0  0
    6.6875    1.2731    2.1155 H   0  0  0  0  0  0  0  0  0  0  0  0
    7.4067    2.4527    1.0079 H   0  0  0  0  0  0  0  0  0  0  0  0
    9.7922    2.0299    0.6027 H   0  0  0  0  0  0  0  0  0  0  0  0
    8.6409   -1.7361    2.9061 H   0  0  0  0  0  0  0  0  0  0  0  0
    7.0084   -1.0278    2.7637 H   0  0  0  0  0  0  0  0  0  0  0  0
    4.2814   -3.5352    1.0247 H   0  0  0  0  0  0  0  0  0  0  0  0
    9.1711   -6.4861    3.1676 H   0  0  0  0  0  0  0  0  0  0  0  0
    7.8492   -3.3753    7.3963 H   0  0  0  0  0  0  0  0  0  0  0  0
   10.9024   -4.5555    5.6942 H   0  0  0  0  0  0  0  0  0  0  0  0
    5.3265   -1.5955    0.0582 H   0  0  0  0  0  0  0  0  0  0  0  0
    1.9099   -5.2168   -0.5514 H   0  0  0  0  0  0  0  0  0  0  0  0
    0.6022   -4.7156    0.5380 H   0  0  0  0  0  0  0  0  0  0  0  0
    3.1971   -5.7446    1.5476 H   0  0  0  0  0  0  0  0  0  0  0  0
    4.0438   -6.1954    3.3414 H   0  0  0  0  0  0  0  0  0  0  0  0
    4.9308   -7.6013    5.1617 H   0  0  0  0  0  0  0  0  0  0  0  0
    2.7614   -9.9785    7.2254 H   0  0  0  0  0  0  0  0  0  0  0  0
    0.9813   -9.2036    5.8638 H   0  0  0  0  0  0  0  0  0  0  0  0
    0.0786   -7.7659    4.0117 H   0  0  0  0  0  0  0  0  0  0  0  0
  1  2  1  0
  1 46  1  0
  1 47  1  0
  2  3  2  0
  2 31  1  0
  3  4  1  0
  4  5  2  0
  4  6  1  0
  6  7  1  0
  6 30  1  0
  7  8  1  6
  7  9  1  0
  7 29  1  0
  9 10  1  0
  9 48  1  0
  9 49  1  0
 10 11  1  1
 10 12  1  0
 10 13  1  0
 12 50  1  0
 13 14  1  6
 13 15  1  0
 13 29  1  0
 15 16  1  0
 15 51  1  0
 15 52  1  0
 17 16  1  6
 17 18  2  0
 17 19  1  0
 17 20  1  0
 19 53  1  0
 21 20  1  6
 21 22  2  0
 21 23  1  0
 21 24  1  0
 23 54  1  0
 25 24  1  6
 25 26  2  0
 25 27  1  0
 25 28  1  0
 27 55  1  0
 28 56  1  0
 30 31  2  0
 30 57  1  0
 31 32  1  0
 32 33  3  0
 33 34  1  0
 34 35  1  0
 34 58  1  0
 34 59  1  0
 35 36  1  0
 35 60  1  0
 36 37  2  0
 36 38  1  0
 38 39  2  0
 38 45  1  0
 39 40  1  0
 39 61  1  0
 40 41  2  0
 40 62  1  0
 41 42  1  0
 41 44  1  0
 42 43  2  0
 42 63  1  0
 44 45  2  0
 44 64  1  0
 45 65  1  0
M  END

