
     RDKit          3D

 40 41  0  0  0  0  0  0  0  0999 V2000
    4.4533   -0.8591    3.8619 C   0  0  0  0  0  0  0  0  0  0  0  0
    5.1856   -2.0174    3.5334 O   0  0  0  0  0  0  0  0  0  0  0  0
    5.0751   -2.5429    2.2874 C   0  0  0  0  0  0  0  0  0  0  0  0
    5.8462   -3.6928    2.0299 C   0  0  0  0  0  0  0  0  0  0  0  0
    5.8036   -4.3033    0.7831 C   0  0  0  0  0  0  0  0  0  0  0  0
    4.9898   -3.7922   -0.2482 C   0  0  0  0  0  0  0  0  0  0  0  0
    4.9338   -4.4784   -1.5988 C   0  0  0  0  0  0  0  0  0  0  0  0
    4.2475   -5.7673   -1.5862 N   0  0  0  0  0  0  0  0  0  0  0  0
    4.9512   -6.9440   -1.4565 C   0  0  0  0  0  0  0  0  0  0  0  0
    6.1699   -6.9969   -1.4550 O   0  0  0  0  0  0  0  0  0  0  0  0
    4.1268   -8.0638   -1.3541 N   0  0  0  0  0  0  0  0  0  0  0  0
    4.4942   -9.4035   -1.1921 C   0  0  0  0  0  0  0  0  0  0  0  0
    5.8309   -9.8424   -1.1152 C   0  0  0  0  0  0  0  0  0  0  0  0
    6.1049  -11.1995   -0.9479 C   0  0  0  0  0  0  0  0  0  0  0  0
    5.0623  -12.1235   -0.8530 C   0  0  0  0  0  0  0  0  0  0  0  0
    5.4242  -13.8593   -0.6421 S   0  0  1  0  0  0  0  0  0  0  0  0
    5.2299  -14.1020    1.0256 N   0  0  0  0  0  0  0  0  0  0  0  0
    4.3491  -14.6348   -1.2675 O   0  0  0  0  0  0  0  0  0  0  0  0
    6.8344  -14.0633   -0.9860 O   0  0  0  0  0  0  0  0  0  0  0  0
    3.7307  -11.7053   -0.9420 C   0  0  0  0  0  0  0  0  0  0  0  0
    3.4535  -10.3542   -1.1075 C   0  0  0  0  0  0  0  0  0  0  0  0
    4.2306   -2.6501    0.0199 C   0  0  0  0  0  0  0  0  0  0  0  0
    4.2639   -2.0195    1.2713 C   0  0  0  0  0  0  0  0  0  0  0  0
    4.6991   -0.6177    4.9048 H   0  0  0  0  0  0  0  0  0  0  0  0
    3.3632   -1.0235    3.7812 H   0  0  0  0  0  0  0  0  0  0  0  0
    4.7300   -0.0014    3.2221 H   0  0  0  0  0  0  0  0  0  0  0  0
    6.4783   -4.0808    2.8314 H   0  0  0  0  0  0  0  0  0  0  0  0
    6.4129   -5.1906    0.5913 H   0  0  0  0  0  0  0  0  0  0  0  0
    5.9481   -4.6809   -1.9696 H   0  0  0  0  0  0  0  0  0  0  0  0
    4.4343   -3.8234   -2.3307 H   0  0  0  0  0  0  0  0  0  0  0  0
    3.2687   -5.7548   -1.3215 H   0  0  0  0  0  0  0  0  0  0  0  0
    3.1306   -7.9073   -1.4516 H   0  0  0  0  0  0  0  0  0  0  0  0
    6.6348   -9.1154   -1.1983 H   0  0  0  0  0  0  0  0  0  0  0  0
    7.1378  -11.5496   -0.9055 H   0  0  0  0  0  0  0  0  0  0  0  0
    4.7041  -14.9663    1.1628 H   0  0  0  0  0  0  0  0  0  0  0  0
    6.1395  -14.1455    1.4861 H   0  0  0  0  0  0  0  0  0  0  0  0
    2.9236  -12.4383   -0.8935 H   0  0  0  0  0  0  0  0  0  0  0  0
    2.4127  -10.0241   -1.1787 H   0  0  0  0  0  0  0  0  0  0  0  0
    3.5959   -2.2268   -0.7651 H   0  0  0  0  0  0  0  0  0  0  0  0
    3.6586   -1.1279    1.4362 H   0  0  0  0  0  0  0  0  0  0  0  0
  1  2  1  0
  1 24  1  0
  1 25  1  0
  1 26  1  0
  2  3  1  0
  3  4  2  0
  3 23  1  0
  4  5  1  0
  4 27  1  0
  5  6  2  0
  5 28  1  0
  6  7  1  0
  6 22  1  0
  7  8  1  0
  7 29  1  0
  7 30  1  0
  8  9  1  0
  8 31  1  0
  9 10  2  0
  9 11  1  0
 11 12  1  0
 11 32  1  0
 12 13  2  0
 12 21  1  0
 13 14  1  0
 13 33  1  0
 14 15  2  0
 14 34  1  0
 15 16  1  0
 15 20  1  0
 16 17  1  1
 16 18  2  0
 16 19  2  0
 17 35  1  0
 17 36  1  0
 20 21  2  0
 20 37  1  0
 21 38  1  0
 22 23  2  0
 22 39  1  0
 23 40  1  0
M  END

