
     RDKit          3D

 61 65  0  0  0  0  0  0  0  0999 V2000
   -1.6739   -5.7012    6.3723 C   0  0  0  0  0  0  0  0  0  0  0  0
   -1.2231   -4.5032    5.7792 O   0  0  0  0  0  0  0  0  0  0  0  0
   -1.1221   -4.4265    4.4298 C   0  0  0  0  0  0  0  0  0  0  0  0
   -1.4400   -5.4678    3.5448 C   0  0  0  0  0  0  0  0  0  0  0  0
   -1.2997   -5.2815    2.1650 C   0  0  0  0  0  0  0  0  0  0  0  0
   -0.8323   -4.0728    1.6398 C   0  0  0  0  0  0  0  0  0  0  0  0
   -0.7160   -3.8170    0.1478 C   0  0  0  0  0  0  0  0  0  0  0  0
   -0.3520   -4.9810   -0.6582 N   0  0  0  0  0  0  0  0  0  0  0  0
   -1.3003   -5.8796   -1.0027 N   0  0  0  0  0  0  0  0  0  0  0  0
   -0.7306   -6.7702   -1.7343 N   0  0  0  0  0  0  0  0  0  0  0  0
    0.5752   -6.4856   -1.9062 N   0  0  0  0  0  0  0  0  0  0  0  0
    0.8130   -5.3725   -1.2343 C   0  0  0  0  0  0  0  0  0  0  0  0
    2.1881   -4.7474   -1.1565 C   0  0  2  0  0  0  0  0  0  0  0  0
    2.7396   -5.2845   -1.9513 H   0  0  0  0  0  0  0  0  0  0  0  0
    2.8600   -5.1369    0.1640 C   0  0  0  0  0  0  0  0  0  0  0  0
    2.6978   -4.3905    1.3406 C   0  0  0  0  0  0  0  0  0  0  0  0
    3.2801   -4.8037    2.5403 C   0  0  0  0  0  0  0  0  0  0  0  0
    4.0259   -5.9802    2.5584 C   0  0  0  0  0  0  0  0  0  0  0  0
    4.5872   -6.3821    3.7073 F   0  0  0  0  0  0  0  0  0  0  0  0
    4.2043   -6.7459    1.4089 C   0  0  0  0  0  0  0  0  0  0  0  0
    3.6183   -6.3163    0.2165 C   0  0  0  0  0  0  0  0  0  0  0  0
    2.1401   -3.2950   -1.3840 N   0  0  0  0  0  0  0  0  0  0  0  0
    3.4400   -2.6165   -1.3353 C   0  0  0  0  0  0  0  0  0  0  0  0
    4.3141   -2.8329   -2.5783 C   0  0  0  0  0  0  0  0  0  0  0  0
    3.5958   -2.4711   -3.7911 N   0  0  0  0  0  0  0  0  0  0  0  0
    4.3273   -2.2399   -4.9711 C   0  0  0  0  0  0  0  0  0  0  0  0
    5.7203   -2.4581   -5.0434 C   0  0  0  0  0  0  0  0  0  0  0  0
    6.4333   -2.1771   -6.2128 C   0  0  0  0  0  0  0  0  0  0  0  0
    5.7877   -1.6874   -7.3483 C   0  0  0  0  0  0  0  0  0  0  0  0
    4.4055   -1.4758   -7.2927 C   0  0  0  0  0  0  0  0  0  0  0  0
    3.6866   -1.7424   -6.1296 C   0  0  0  0  0  0  0  0  0  0  0  0
    2.2865   -3.1150   -3.8911 C   0  0  0  0  0  0  0  0  0  0  0  0
    1.4614   -2.8855   -2.6205 C   0  0  0  0  0  0  0  0  0  0  0  0
   -0.5193   -3.0367    2.5372 C   0  0  0  0  0  0  0  0  0  0  0  0
   -0.6627   -3.2030    3.9104 C   0  0  0  0  0  0  0  0  0  0  0  0
   -1.6719   -5.5326    7.4575 H   0  0  0  0  0  0  0  0  0  0  0  0
   -1.0067   -6.5510    6.1412 H   0  0  0  0  0  0  0  0  0  0  0  0
   -2.6999   -5.9579    6.0524 H   0  0  0  0  0  0  0  0  0  0  0  0
   -1.8011   -6.4279    3.9136 H   0  0  0  0  0  0  0  0  0  0  0  0
   -1.5659   -6.0984    1.4911 H   0  0  0  0  0  0  0  0  0  0  0  0
    0.0395   -3.0456   -0.0518 H   0  0  0  0  0  0  0  0  0  0  0  0
   -1.6789   -3.4653   -0.2571 H   0  0  0  0  0  0  0  0  0  0  0  0
    2.1163   -3.4686    1.3216 H   0  0  0  0  0  0  0  0  0  0  0  0
    3.1571   -4.2300    3.4607 H   0  0  0  0  0  0  0  0  0  0  0  0
    4.7958   -7.6621    1.4587 H   0  0  0  0  0  0  0  0  0  0  0  0
    3.7465   -6.9164   -0.6881 H   0  0  0  0  0  0  0  0  0  0  0  0
    3.9956   -2.9323   -0.4426 H   0  0  0  0  0  0  0  0  0  0  0  0
    3.2411   -1.5357   -1.2356 H   0  0  0  0  0  0  0  0  0  0  0  0
    4.6825   -3.8825   -2.6121 H   0  0  0  0  0  0  0  0  0  0  0  0
    5.2018   -2.1910   -2.4794 H   0  0  0  0  0  0  0  0  0  0  0  0
    6.2621   -2.8627   -4.1890 H   0  0  0  0  0  0  0  0  0  0  0  0
    7.5114   -2.3590   -6.2316 H   0  0  0  0  0  0  0  0  0  0  0  0
    6.3481   -1.4739   -8.2612 H   0  0  0  0  0  0  0  0  0  0  0  0
    3.8759   -1.0858   -8.1663 H   0  0  0  0  0  0  0  0  0  0  0  0
    2.6154   -1.5361   -6.1148 H   0  0  0  0  0  0  0  0  0  0  0  0
    2.3952   -4.2040   -4.0857 H   0  0  0  0  0  0  0  0  0  0  0  0
    1.7274   -2.7036   -4.7406 H   0  0  0  0  0  0  0  0  0  0  0  0
    0.4978   -3.4065   -2.7180 H   0  0  0  0  0  0  0  0  0  0  0  0
    1.2447   -1.8068   -2.5342 H   0  0  0  0  0  0  0  0  0  0  0  0
   -0.1572   -2.0775    2.1542 H   0  0  0  0  0  0  0  0  0  0  0  0
   -0.4202   -2.3999    4.6093 H   0  0  0  0  0  0  0  0  0  0  0  0
  1  2  1  0
  1 36  1  0
  1 37  1  0
  1 38  1  0
  2  3  1  0
  3  4  2  0
  3 35  1  0
  4  5  1  0
  4 39  1  0
  5  6  2  0
  5 40  1  0
  6  7  1  0
  6 34  1  0
  7  8  1  0
  7 41  1  0
  7 42  1  0
  8  9  1  0
  8 12  1  0
  9 10  2  0
 10 11  1  0
 11 12  2  0
 12 13  1  0
 13 14  1  6
 13 15  1  0
 13 22  1  0
 15 16  2  0
 15 21  1  0
 16 17  1  0
 16 43  1  0
 17 18  2  0
 17 44  1  0
 18 19  1  0
 18 20  1  0
 20 21  2  0
 20 45  1  0
 21 46  1  0
 22 23  1  0
 22 33  1  0
 23 24  1  0
 23 47  1  0
 23 48  1  0
 24 25  1  0
 24 49  1  0
 24 50  1  0
 25 26  1  0
 25 32  1  0
 26 27  2  0
 26 31  1  0
 27 28  1  0
 27 51  1  0
 28 29  2  0
 28 52  1  0
 29 30  1  0
 29 53  1  0
 30 31  2  0
 30 54  1  0
 31 55  1  0
 32 33  1  0
 32 56  1  0
 32 57  1  0
 33 58  1  0
 33 59  1  0
 34 35  2  0
 34 60  1  0
 35 61  1  0
M  END

