
     RDKit          3D

 68 73  0  0  0  0  0  0  0  0999 V2000
    7.5751   -2.8798    3.2094 C   0  0  0  0  0  0  0  0  0  0  0  0
    6.7599   -1.8240    2.6966 O   0  0  0  0  0  0  0  0  0  0  0  0
    7.2875   -0.5933    2.7283 C   0  0  0  0  0  0  0  0  0  0  0  0
    8.3876   -0.3399    3.1575 O   0  0  0  0  0  0  0  0  0  0  0  0
    6.3255    0.4267    2.1577 C   0  0  0  0  0  0  0  0  0  0  0  0
    6.9174    1.7360    2.2037 N   0  0  0  0  0  0  0  0  0  0  0  0
    6.2292    2.8188    1.7447 C   0  0  0  0  0  0  0  0  0  0  0  0
    5.0973    2.7009    1.2859 O   0  0  0  0  0  0  0  0  0  0  0  0
    6.8983    4.1608    1.8164 C   0  0  0  0  0  0  0  0  0  0  0  0
    6.1730    5.2665    1.3327 C   0  0  0  0  0  0  0  0  0  0  0  0
    6.6749    6.5583    1.3413 C   0  0  0  0  0  0  0  0  0  0  0  0
    7.9748    6.8276    1.8478 C   0  0  0  0  0  0  0  0  0  0  0  0
    8.4862    8.0992    1.8367 N   0  0  0  0  0  0  0  0  0  0  0  0
    7.6801    9.3041    1.6068 C   0  0  0  0  0  0  0  0  0  0  0  0
    8.6187   10.4117    2.1209 C   0  0  2  0  0  0  0  0  0  0  0  0
    8.3501   11.4124    1.7572 H   0  0  0  0  0  0  0  0  0  0  0  0
    9.9940    9.8573    1.7060 C   0  0  0  0  0  0  0  0  0  0  0  0
    9.7661    8.5197    2.4279 C   0  0  1  0  0  0  0  0  0  0  0  0
   10.5472    7.7600    2.3054 H   0  0  0  0  0  0  0  0  0  0  0  0
    9.5030    8.9807    3.8802 C   0  0  0  0  0  0  0  0  0  0  0  0
    8.6996   10.2978    3.6725 C   0  0  1  0  0  0  0  0  0  0  0  0
    7.6864   10.2484    4.1173 H   0  0  0  0  0  0  0  0  0  0  0  0
    9.4247   11.3594    4.2648 O   0  0  0  0  0  0  0  0  0  0  0  0
    8.7009   12.5691    4.4201 C   0  0  0  0  0  0  0  0  0  0  0  0
    9.5701   13.6055    5.0584 C   0  0  0  0  0  0  0  0  0  0  0  0
    9.8011   14.9532    4.6278 C   0  0  0  0  0  0  0  0  0  0  0  0
    9.2550   15.6347    3.4263 C   0  0  0  0  0  0  0  0  0  0  0  0
    7.9041   16.0291    3.3553 C   0  0  0  0  0  0  0  0  0  0  0  0
    6.8366   15.7089    4.7050 Cl  0  0  0  0  0  0  0  0  0  0  0  0
    7.3761   16.6787    2.2374 C   0  0  0  0  0  0  0  0  0  0  0  0
    8.2074   16.9446    1.1490 C   0  0  0  0  0  0  0  0  0  0  0  0
    9.5478   16.5601    1.1733 C   0  0  0  0  0  0  0  0  0  0  0  0
   10.0585   15.9099    2.3006 C   0  0  0  0  0  0  0  0  0  0  0  0
   11.7322   15.4176    2.2764 Cl  0  0  0  0  0  0  0  0  0  0  0  0
   10.6071   15.5976    5.4405 N   0  0  0  0  0  0  0  0  0  0  0  0
   10.9401   14.6875    6.4251 O   0  0  0  0  0  0  0  0  0  0  0  0
   10.3255   13.5109    6.2018 C   0  0  0  0  0  0  0  0  0  0  0  0
   10.5615   12.4150    7.1522 C   0  0  1  0  0  0  0  0  0  0  0  0
   11.8850   12.3070    7.8885 C   0  0  0  0  0  0  0  0  0  0  0  0
   10.6528   12.6966    8.6436 C   0  0  0  0  0  0  0  0  0  0  0  0
    8.7177    5.7301    2.3441 C   0  0  0  0  0  0  0  0  0  0  0  0
    8.1763    4.4537    2.3137 C   0  0  0  0  0  0  0  0  0  0  0  0
    8.9558    3.4638    2.8090 F   0  0  0  0  0  0  0  0  0  0  0  0
    6.9863   -3.7989    3.1027 H   0  0  0  0  0  0  0  0  0  0  0  0
    7.8212   -2.7044    4.2676 H   0  0  0  0  0  0  0  0  0  0  0  0
    8.5141   -2.9593    2.6412 H   0  0  0  0  0  0  0  0  0  0  0  0
    5.3771    0.3793    2.7234 H   0  0  0  0  0  0  0  0  0  0  0  0
    6.0569    0.1275    1.1281 H   0  0  0  0  0  0  0  0  0  0  0  0
    7.8537    1.8148    2.5876 H   0  0  0  0  0  0  0  0  0  0  0  0
    5.1760    5.0585    0.9390 H   0  0  0  0  0  0  0  0  0  0  0  0
    6.0660    7.3686    0.9400 H   0  0  0  0  0  0  0  0  0  0  0  0
    6.7258    9.2697    2.1637 H   0  0  0  0  0  0  0  0  0  0  0  0
    7.4353    9.4379    0.5371 H   0  0  0  0  0  0  0  0  0  0  0  0
   10.8282   10.4375    2.1242 H   0  0  0  0  0  0  0  0  0  0  0  0
   10.1215    9.7444    0.6193 H   0  0  0  0  0  0  0  0  0  0  0  0
   10.4390    9.2174    4.4084 H   0  0  0  0  0  0  0  0  0  0  0  0
    8.9541    8.2270    4.4624 H   0  0  0  0  0  0  0  0  0  0  0  0
    7.7959   12.3825    5.0350 H   0  0  0  0  0  0  0  0  0  0  0  0
    8.3422   12.9514    3.4465 H   0  0  0  0  0  0  0  0  0  0  0  0
    6.3257   16.9718    2.2329 H   0  0  0  0  0  0  0  0  0  0  0  0
    7.8050   17.4552    0.2709 H   0  0  0  0  0  0  0  0  0  0  0  0
   10.2066   16.7561    0.3266 H   0  0  0  0  0  0  0  0  0  0  0  0
   10.0881   11.4830    6.8391 H   0  0  0  0  0  0  0  0  0  0  0  0
   12.6275   13.0834    7.6871 H   0  0  0  0  0  0  0  0  0  0  0  0
   12.2952   11.3032    8.0281 H   0  0  0  0  0  0  0  0  0  0  0  0
   10.5548   13.7390    8.9581 H   0  0  0  0  0  0  0  0  0  0  0  0
   10.1924   11.9685    9.3171 H   0  0  0  0  0  0  0  0  0  0  0  0
    9.7167    5.8443    2.7618 H   0  0  0  0  0  0  0  0  0  0  0  0
  1  2  1  0
  1 44  1  0
  1 45  1  0
  1 46  1  0
  2  3  1  0
  3  4  2  0
  3  5  1  0
  5  6  1  0
  5 47  1  0
  5 48  1  0
  6  7  1  0
  6 49  1  0
  7  8  2  0
  7  9  1  0
  9 10  2  0
  9 42  1  0
 10 11  1  0
 10 50  1  0
 11 12  2  0
 11 51  1  0
 12 13  1  0
 12 41  1  0
 13 14  1  0
 13 18  1  0
 14 15  1  0
 14 52  1  0
 14 53  1  0
 15 16  1  1
 15 17  1  0
 15 21  1  0
 17 18  1  0
 17 54  1  0
 17 55  1  0
 18 19  1  1
 18 20  1  0
 20 21  1  0
 20 56  1  0
 20 57  1  0
 21 22  1  1
 21 23  1  0
 23 24  1  0
 24 25  1  0
 24 58  1  0
 24 59  1  0
 25 26  1  0
 25 37  2  0
 26 27  1  0
 26 35  2  0
 27 28  2  0
 27 33  1  0
 28 29  1  0
 28 30  1  0
 30 31  2  0
 30 60  1  0
 31 32  1  0
 31 61  1  0
 32 33  2  0
 32 62  1  0
 33 34  1  0
 35 36  1  0
 36 37  1  0
 37 38  1  0
 38 39  1  0
 38 40  1  0
 38 63  1  1
 39 40  1  0
 39 64  1  0
 39 65  1  0
 40 66  1  0
 40 67  1  0
 41 42  2  0
 41 68  1  0
 42 43  1  0
M  END

