
     RDKit          3D

 39 38  0  0  0  0  0  0  0  0999 V2000
    2.7528   -0.1987    1.5944 C   0  0  0  0  0  0  0  0  0  0  0  0
    2.6173    0.0144    0.0846 C   0  0  0  0  0  0  0  0  0  0  0  0
    2.9234   -1.2046   -0.8326 C   0  0  1  0  0  0  0  0  0  0  0  0
    2.0820   -2.4560   -0.4257 C   0  0  0  0  0  0  0  0  0  0  0  0
    0.5664   -2.2646   -0.3182 C   0  0  0  0  0  0  0  0  0  0  0  0
    2.5602   -0.8679   -2.2938 C   0  0  0  0  0  0  0  0  0  0  0  0
    3.5096    0.6954   -3.0677 Br  0  0  0  0  0  0  0  0  0  0  0  0
    4.4367   -1.5118   -0.7128 C   0  0  0  0  0  0  0  0  0  0  0  0
    5.0064   -3.1038   -1.4128 S   0  0  1  0  0  0  0  0  0  0  0  0
    4.8526   -4.1430   -0.3794 O   0  0  0  0  0  0  0  0  0  0  0  0
    4.4046   -3.3121   -2.7468 O   0  0  0  0  0  0  0  0  0  0  0  0
    6.7847   -2.8282   -1.6694 C   0  0  0  0  0  0  0  0  0  0  0  0
    7.4439   -4.1249   -2.1346 C   0  0  0  0  0  0  0  0  0  0  0  0
    8.9401   -3.9587   -2.3608 C   0  0  0  0  0  0  0  0  0  0  0  0
    9.5408   -3.5233   -1.1653 O   0  0  0  0  0  0  0  0  0  0  0  0
   10.9288   -3.3422   -1.2552 C   0  0  0  0  0  0  0  0  0  0  0  0
    2.5286    0.7389    2.1271 H   0  0  0  0  0  0  0  0  0  0  0  0
    3.7712   -0.4970    1.8906 H   0  0  0  0  0  0  0  0  0  0  0  0
    2.0611   -0.9650    1.9768 H   0  0  0  0  0  0  0  0  0  0  0  0
    3.2681    0.8479   -0.2250 H   0  0  0  0  0  0  0  0  0  0  0  0
    1.5911    0.3515   -0.1392 H   0  0  0  0  0  0  0  0  0  0  0  0
    2.4707   -2.8289    0.5353 H   0  0  0  0  0  0  0  0  0  0  0  0
    2.2885   -3.2604   -1.1481 H   0  0  0  0  0  0  0  0  0  0  0  0
    0.2841   -1.5262    0.4481 H   0  0  0  0  0  0  0  0  0  0  0  0
    0.0930   -3.2189   -0.0391 H   0  0  0  0  0  0  0  0  0  0  0  0
    0.1103   -1.9485   -1.2695 H   0  0  0  0  0  0  0  0  0  0  0  0
    1.5000   -0.6088   -2.3869 H   0  0  0  0  0  0  0  0  0  0  0  0
    2.8126   -1.6969   -2.9622 H   0  0  0  0  0  0  0  0  0  0  0  0
    4.7518   -1.5769    0.3371 H   0  0  0  0  0  0  0  0  0  0  0  0
    5.0195   -0.7266   -1.2172 H   0  0  0  0  0  0  0  0  0  0  0  0
    7.2109   -2.4883   -0.7146 H   0  0  0  0  0  0  0  0  0  0  0  0
    6.8654   -2.0258   -2.4191 H   0  0  0  0  0  0  0  0  0  0  0  0
    6.9714   -4.4645   -3.0700 H   0  0  0  0  0  0  0  0  0  0  0  0
    7.2714   -4.9044   -1.3763 H   0  0  0  0  0  0  0  0  0  0  0  0
    9.1300   -3.2293   -3.1783 H   0  0  0  0  0  0  0  0  0  0  0  0
    9.3737   -4.9265   -2.6889 H   0  0  0  0  0  0  0  0  0  0  0  0
   11.2894   -3.0039   -0.2728 H   0  0  0  0  0  0  0  0  0  0  0  0
   11.2006   -2.5793   -2.0132 H   0  0  0  0  0  0  0  0  0  0  0  0
   11.4537   -4.2831   -1.5180 H   0  0  0  0  0  0  0  0  0  0  0  0
  1  2  1  0
  1 17  1  0
  1 18  1  0
  1 19  1  0
  3  2  1  1
  2 20  1  0
  2 21  1  0
  3  4  1  0
  3  6  1  0
  3  8  1  0
  4  5  1  0
  4 22  1  0
  4 23  1  0
  5 24  1  0
  5 25  1  0
  5 26  1  0
  6  7  1  0
  6 27  1  0
  6 28  1  0
  9  8  1  1
  8 29  1  0
  8 30  1  0
  9 10  2  0
  9 11  2  0
  9 12  1  0
 12 13  1  0
 12 31  1  0
 12 32  1  0
 13 14  1  0
 13 33  1  0
 13 34  1  0
 14 15  1  0
 14 35  1  0
 14 36  1  0
 15 16  1  0
 16 37  1  0
 16 38  1  0
 16 39  1  0
M  END

