
     RDKit          3D

 54 55  0  0  0  0  0  0  0  0999 V2000
    0.4531   -1.6119   -7.7916 C   0  0  0  0  0  0  0  0  0  0  0  0
    0.7379   -1.1780   -6.4813 O   0  0  0  0  0  0  0  0  0  0  0  0
    1.6974   -1.8148   -5.7627 C   0  0  0  0  0  0  0  0  0  0  0  0
    1.9348   -1.3208   -4.4695 C   0  0  0  0  0  0  0  0  0  0  0  0
    2.9019   -1.9134   -3.6610 C   0  0  0  0  0  0  0  0  0  0  0  0
    3.6592   -3.0081   -4.1100 C   0  0  0  0  0  0  0  0  0  0  0  0
    4.7066   -3.6641   -3.2323 C   0  0  0  0  0  0  0  0  0  0  0  0
    4.3152   -4.9875   -2.7272 N   0  0  0  0  0  0  0  0  0  0  0  0
    3.4012   -4.9945   -1.5993 C   0  0  0  0  0  0  0  0  0  0  0  0
    4.8297   -6.0993   -3.3384 C   0  0  0  0  0  0  0  0  0  0  0  0
    5.5607   -6.0237   -4.3192 O   0  0  0  0  0  0  0  0  0  0  0  0
    4.4650   -7.4795   -2.7403 C   0  0  0  0  0  0  0  0  0  0  0  0
    5.1097   -8.6149   -3.3702 N   0  0  0  0  0  0  0  0  0  0  0  0
    4.6649   -8.9070   -4.7292 C   0  0  0  0  0  0  0  0  0  0  0  0
    6.5484   -8.6916   -3.1447 C   0  0  0  0  0  0  0  0  0  0  0  0
    6.9459   -9.3096   -1.7922 C   0  0  0  0  0  0  0  0  0  0  0  0
    8.0620   -9.1451   -1.3319 O   0  0  0  0  0  0  0  0  0  0  0  0
    5.9493  -10.0623   -1.2316 N   0  0  0  0  0  0  0  0  0  0  0  0
    5.9521  -10.8102   -0.0428 C   0  0  0  0  0  0  0  0  0  0  0  0
    7.0658  -10.8979    0.8093 C   0  0  0  0  0  0  0  0  0  0  0  0
    6.9854  -11.6636    1.9756 C   0  0  0  0  0  0  0  0  0  0  0  0
    5.8232  -12.3591    2.3369 C   0  0  0  0  0  0  0  0  0  0  0  0
    5.7480  -13.1799    3.6018 C   0  0  0  0  0  0  0  0  0  0  0  0
    4.7196  -12.2618    1.4726 C   0  0  0  0  0  0  0  0  0  0  0  0
    4.7780  -11.5039    0.3060 C   0  0  0  0  0  0  0  0  0  0  0  0
    3.4155   -3.4888   -5.4045 C   0  0  0  0  0  0  0  0  0  0  0  0
    2.4478   -2.9075   -6.2287 C   0  0  0  0  0  0  0  0  0  0  0  0
   -0.3434   -0.9582   -8.1720 H   0  0  0  0  0  0  0  0  0  0  0  0
    0.0960   -2.6577   -7.8118 H   0  0  0  0  0  0  0  0  0  0  0  0
    1.3327   -1.5258   -8.4552 H   0  0  0  0  0  0  0  0  0  0  0  0
    1.3477   -0.4677   -4.1237 H   0  0  0  0  0  0  0  0  0  0  0  0
    3.0784   -1.5081   -2.6599 H   0  0  0  0  0  0  0  0  0  0  0  0
    4.9240   -3.0206   -2.3636 H   0  0  0  0  0  0  0  0  0  0  0  0
    5.6381   -3.8074   -3.7947 H   0  0  0  0  0  0  0  0  0  0  0  0
    2.5533   -4.3190   -1.8004 H   0  0  0  0  0  0  0  0  0  0  0  0
    3.8979   -4.6504   -0.6733 H   0  0  0  0  0  0  0  0  0  0  0  0
    2.9887   -5.9922   -1.4146 H   0  0  0  0  0  0  0  0  0  0  0  0
    3.3711   -7.6157   -2.8036 H   0  0  0  0  0  0  0  0  0  0  0  0
    4.7116   -7.4813   -1.6645 H   0  0  0  0  0  0  0  0  0  0  0  0
    3.5632   -8.9459   -4.7522 H   0  0  0  0  0  0  0  0  0  0  0  0
    5.0344   -9.9001   -5.0305 H   0  0  0  0  0  0  0  0  0  0  0  0
    5.0008   -8.1617   -5.4718 H   0  0  0  0  0  0  0  0  0  0  0  0
    7.0667   -7.7213   -3.2260 H   0  0  0  0  0  0  0  0  0  0  0  0
    6.9969   -9.3363   -3.9181 H   0  0  0  0  0  0  0  0  0  0  0  0
    5.0966  -10.0563   -1.7918 H   0  0  0  0  0  0  0  0  0  0  0  0
    7.9779  -10.3666    0.5458 H   0  0  0  0  0  0  0  0  0  0  0  0
    7.8644  -11.7190    2.6248 H   0  0  0  0  0  0  0  0  0  0  0  0
    6.7103  -13.1873    4.1349 H   0  0  0  0  0  0  0  0  0  0  0  0
    5.4749  -14.2273    3.3891 H   0  0  0  0  0  0  0  0  0  0  0  0
    4.9858  -12.7852    4.2955 H   0  0  0  0  0  0  0  0  0  0  0  0
    3.7935  -12.7914    1.7162 H   0  0  0  0  0  0  0  0  0  0  0  0
    3.9036  -11.4475   -0.3497 H   0  0  0  0  0  0  0  0  0  0  0  0
    4.0021   -4.3334   -5.7757 H   0  0  0  0  0  0  0  0  0  0  0  0
    2.2928   -3.3077   -7.2309 H   0  0  0  0  0  0  0  0  0  0  0  0
  1  2  1  0
  1 28  1  0
  1 29  1  0
  1 30  1  0
  2  3  1  0
  3  4  2  0
  3 27  1  0
  4  5  1  0
  4 31  1  0
  5  6  2  0
  5 32  1  0
  6  7  1  0
  6 26  1  0
  7  8  1  0
  7 33  1  0
  7 34  1  0
  8  9  1  0
  8 10  1  0
  9 35  1  0
  9 36  1  0
  9 37  1  0
 10 11  2  0
 10 12  1  0
 12 13  1  0
 12 38  1  0
 12 39  1  0
 13 14  1  0
 13 15  1  0
 14 40  1  0
 14 41  1  0
 14 42  1  0
 15 16  1  0
 15 43  1  0
 15 44  1  0
 16 17  2  0
 16 18  1  0
 18 19  1  0
 18 45  1  0
 19 20  2  0
 19 25  1  0
 20 21  1  0
 20 46  1  0
 21 22  2  0
 21 47  1  0
 22 23  1  0
 22 24  1  0
 23 48  1  0
 23 49  1  0
 23 50  1  0
 24 25  2  0
 24 51  1  0
 25 52  1  0
 26 27  2  0
 26 53  1  0
 27 54  1  0
M  END

