
     RDKit          3D

 35 35  0  0  0  0  0  0  0  0999 V2000
    0.8261    0.3429    0.7342 C   0  0  0  0  0  0  0  0  0  0  0  0
    2.1128   -0.0338   -0.0023 C   0  0  0  0  0  0  0  0  0  0  0  0
    3.0347   -1.0084    0.7663 C   0  0  1  0  0  0  0  0  0  0  0  0
    2.4179   -2.4039    0.9455 C   0  0  0  0  0  0  0  0  0  0  0  0
    2.3506   -3.1026   -0.3299 N   0  0  0  0  0  0  0  0  0  0  0  0
    1.5672   -4.3199   -0.3317 C   0  0  0  0  0  0  0  0  0  0  0  0
    0.0813   -4.1192   -0.0637 C   0  0  0  0  0  0  0  0  0  0  0  0
   -0.4558   -3.2102   -0.9989 O   0  0  0  0  0  0  0  0  0  0  0  0
   -1.8250   -3.0028   -0.8715 C   0  0  0  0  0  0  0  0  0  0  0  0
   -2.2373   -1.8733   -1.7992 C   0  0  1  0  0  0  0  0  0  0  0  0
   -1.6198   -0.7235   -1.4911 F   0  0  0  0  0  0  0  0  0  0  0  0
   -1.9716   -2.1521   -3.0807 F   0  0  0  0  0  0  0  0  0  0  0  0
   -3.5632   -1.6676   -1.6887 F   0  0  0  0  0  0  0  0  0  0  0  0
    3.6779   -3.2700   -0.9040 C   0  0  0  0  0  0  0  0  0  0  0  0
    4.3495   -1.9123   -1.0959 C   0  0  0  0  0  0  0  0  0  0  0  0
    4.3609   -1.1895    0.1697 N   0  0  0  0  0  0  0  0  0  0  0  0
    0.2780    1.1309    0.1947 H   0  0  0  0  0  0  0  0  0  0  0  0
    1.0312    0.7152    1.7530 H   0  0  0  0  0  0  0  0  0  0  0  0
    0.1416   -0.5155    0.8162 H   0  0  0  0  0  0  0  0  0  0  0  0
    2.6968    0.8824   -0.2071 H   0  0  0  0  0  0  0  0  0  0  0  0
    1.8505   -0.4712   -0.9783 H   0  0  0  0  0  0  0  0  0  0  0  0
    3.1924   -0.5947    1.7798 H   0  0  0  0  0  0  0  0  0  0  0  0
    1.4081   -2.3040    1.3670 H   0  0  0  0  0  0  0  0  0  0  0  0
    3.0301   -2.9686    1.6863 H   0  0  0  0  0  0  0  0  0  0  0  0
    1.9342   -5.0745    0.4070 H   0  0  0  0  0  0  0  0  0  0  0  0
    1.6693   -4.7820   -1.3274 H   0  0  0  0  0  0  0  0  0  0  0  0
   -0.0996   -3.7530    0.9674 H   0  0  0  0  0  0  0  0  0  0  0  0
   -0.4217   -5.1054   -0.1399 H   0  0  0  0  0  0  0  0  0  0  0  0
   -2.1164   -2.7064    0.1563 H   0  0  0  0  0  0  0  0  0  0  0  0
   -2.4212   -3.8972   -1.1452 H   0  0  0  0  0  0  0  0  0  0  0  0
    3.5869   -3.7762   -1.8789 H   0  0  0  0  0  0  0  0  0  0  0  0
    4.3252   -3.9068   -0.2553 H   0  0  0  0  0  0  0  0  0  0  0  0
    3.8239   -1.3766   -1.9151 H   0  0  0  0  0  0  0  0  0  0  0  0
    5.3903   -2.0681   -1.4254 H   0  0  0  0  0  0  0  0  0  0  0  0
    4.8344   -0.2937    0.0701 H   0  0  0  0  0  0  0  0  0  0  0  0
  1  2  1  0
  1 17  1  0
  1 18  1  0
  1 19  1  0
  2  3  1  0
  2 20  1  0
  2 21  1  0
  3  4  1  0
  3 16  1  0
  3 22  1  1
  4  5  1  0
  4 23  1  0
  4 24  1  0
  5  6  1  0
  5 14  1  0
  6  7  1  0
  6 25  1  0
  6 26  1  0
  7  8  1  0
  7 27  1  0
  7 28  1  0
  8  9  1  0
  9 10  1  0
  9 29  1  0
  9 30  1  0
 10 11  1  1
 10 12  1  0
 10 13  1  0
 14 15  1  0
 14 31  1  0
 14 32  1  0
 15 16  1  0
 15 33  1  0
 15 34  1  0
 16 35  1  0
M  END

