
     RDKit          3D

 53 55  0  0  0  0  0  0  0  0999 V2000
    7.9130    1.0607   -4.3013 C   0  0  0  0  0  0  0  0  0  0  0  0
    8.0250    0.1040   -5.3287 O   0  0  0  0  0  0  0  0  0  0  0  0
    7.1458   -0.9305   -5.3718 C   0  0  0  0  0  0  0  0  0  0  0  0
    7.3117   -1.8402   -6.4339 C   0  0  0  0  0  0  0  0  0  0  0  0
    6.4619   -2.9306   -6.5663 C   0  0  0  0  0  0  0  0  0  0  0  0
    5.4197   -3.1552   -5.6434 C   0  0  0  0  0  0  0  0  0  0  0  0
    4.5035   -4.3524   -5.7996 C   0  0  0  0  0  0  0  0  0  0  0  0
    5.1613   -5.6470   -5.5728 N   0  0  0  0  0  0  0  0  0  0  0  0
    5.3913   -5.9963   -4.1704 C   0  0  0  0  0  0  0  0  0  0  0  0
    6.5976   -6.8985   -3.9109 C   0  0  0  0  0  0  0  0  0  0  0  0
    6.3302   -8.3802   -4.1852 C   0  0  0  0  0  0  0  0  0  0  0  0
    5.5454   -8.5755   -5.3924 N   0  0  0  0  0  0  0  0  0  0  0  0
    5.2497   -9.9740   -5.6812 C   0  0  0  0  0  0  0  0  0  0  0  0
    4.2701  -10.6493   -4.7019 C   0  0  1  0  0  0  0  0  0  0  0  0
    2.9462   -9.8758   -4.5305 C   0  0  0  0  0  0  0  0  0  0  0  0
    2.0305   -9.9999   -5.7578 C   0  0  0  0  0  0  0  0  0  0  0  0
    1.8337  -11.4741   -6.1454 C   0  0  0  0  0  0  0  0  0  0  0  0
    3.0808  -12.2147   -6.3078 N   0  0  0  0  0  0  0  0  0  0  0  0
    3.9657  -12.0987   -5.1555 C   0  0  0  0  0  0  0  0  0  0  0  0
    6.0358   -7.8147   -6.5279 C   0  0  0  0  0  0  0  0  0  0  0  0
    5.5200   -6.3747   -6.6761 C   0  0  0  0  0  0  0  0  0  0  0  0
    5.4350   -5.9159   -7.8104 O   0  0  0  0  0  0  0  0  0  0  0  0
    5.2648   -2.2436   -4.5955 C   0  0  0  0  0  0  0  0  0  0  0  0
    6.1119   -1.1356   -4.4489 C   0  0  0  0  0  0  0  0  0  0  0  0
    8.7135    1.7946   -4.4666 H   0  0  0  0  0  0  0  0  0  0  0  0
    8.0439    0.6097   -3.3005 H   0  0  0  0  0  0  0  0  0  0  0  0
    6.9392    1.5831   -4.3279 H   0  0  0  0  0  0  0  0  0  0  0  0
    8.1177   -1.6579   -7.1480 H   0  0  0  0  0  0  0  0  0  0  0  0
    6.5876   -3.6268   -7.3995 H   0  0  0  0  0  0  0  0  0  0  0  0
    4.0968   -4.3828   -6.8188 H   0  0  0  0  0  0  0  0  0  0  0  0
    3.6598   -4.2699   -5.0940 H   0  0  0  0  0  0  0  0  0  0  0  0
    4.4799   -6.4439   -3.7290 H   0  0  0  0  0  0  0  0  0  0  0  0
    5.5633   -5.0431   -3.6455 H   0  0  0  0  0  0  0  0  0  0  0  0
    6.8965   -6.7889   -2.8559 H   0  0  0  0  0  0  0  0  0  0  0  0
    7.4499   -6.5286   -4.5042 H   0  0  0  0  0  0  0  0  0  0  0  0
    5.7736   -8.8064   -3.3348 H   0  0  0  0  0  0  0  0  0  0  0  0
    7.3019   -8.9275   -4.2305 H   0  0  0  0  0  0  0  0  0  0  0  0
    6.1815  -10.5869   -5.7165 H   0  0  0  0  0  0  0  0  0  0  0  0
    4.8212  -10.0147   -6.6948 H   0  0  0  0  0  0  0  0  0  0  0  0
    4.7627  -10.7185   -3.7158 H   0  0  0  0  0  0  0  0  0  0  0  0
    3.1567   -8.8165   -4.3161 H   0  0  0  0  0  0  0  0  0  0  0  0
    2.4172  -10.2840   -3.6500 H   0  0  0  0  0  0  0  0  0  0  0  0
    2.4639   -9.4494   -6.6122 H   0  0  0  0  0  0  0  0  0  0  0  0
    1.0544   -9.5268   -5.5528 H   0  0  0  0  0  0  0  0  0  0  0  0
    1.2449  -11.5621   -7.0735 H   0  0  0  0  0  0  0  0  0  0  0  0
    1.2438  -11.9770   -5.3550 H   0  0  0  0  0  0  0  0  0  0  0  0
    3.5559  -11.9294   -7.1627 H   0  0  0  0  0  0  0  0  0  0  0  0
    4.9036  -12.6380   -5.3731 H   0  0  0  0  0  0  0  0  0  0  0  0
    3.4899  -12.6318   -4.3118 H   0  0  0  0  0  0  0  0  0  0  0  0
    5.7017   -8.2912   -7.4588 H   0  0  0  0  0  0  0  0  0  0  0  0
    7.1467   -7.7876   -6.5937 H   0  0  0  0  0  0  0  0  0  0  0  0
    4.4571   -2.3865   -3.8707 H   0  0  0  0  0  0  0  0  0  0  0  0
    5.9528   -0.4481   -3.6178 H   0  0  0  0  0  0  0  0  0  0  0  0
  1  2  1  0
  1 25  1  0
  1 26  1  0
  1 27  1  0
  2  3  1  0
  3  4  2  0
  3 24  1  0
  4  5  1  0
  4 28  1  0
  5  6  2  0
  5 29  1  0
  6  7  1  0
  6 23  1  0
  7  8  1  0
  7 30  1  0
  7 31  1  0
  8  9  1  0
  8 21  1  0
  9 10  1  0
  9 32  1  0
  9 33  1  0
 10 11  1  0
 10 34  1  0
 10 35  1  0
 11 12  1  0
 11 36  1  0
 11 37  1  0
 12 13  1  0
 12 20  1  0
 13 14  1  0
 13 38  1  0
 13 39  1  0
 14 15  1  0
 14 19  1  0
 14 40  1  1
 15 16  1  0
 15 41  1  0
 15 42  1  0
 16 17  1  0
 16 43  1  0
 16 44  1  0
 17 18  1  0
 17 45  1  0
 17 46  1  0
 18 19  1  0
 18 47  1  0
 19 48  1  0
 19 49  1  0
 20 21  1  0
 20 50  1  0
 20 51  1  0
 21 22  2  0
 23 24  2  0
 23 52  1  0
 24 53  1  0
M  END

