
     RDKit          3D

 44 48  0  0  0  0  0  0  0  0999 V2000
    1.0671   -1.0870    0.8359 C   0  0  0  0  0  0  0  0  0  0  0  0
    2.3591   -0.5045    0.3503 C   0  0  0  0  0  0  0  0  0  0  0  0
    3.5000   -1.1890   -0.0750 C   0  0  0  0  0  0  0  0  0  0  0  0
    4.4792   -0.2336   -0.4343 C   0  0  0  0  0  0  0  0  0  0  0  0
    5.8639   -0.4732   -0.9369 C   0  0  0  0  0  0  0  0  0  0  0  0
    3.9731    1.0063   -0.2467 N   0  0  0  0  0  0  0  0  0  0  0  0
    2.6746    0.8803    0.2364 C   0  0  0  0  0  0  0  0  0  0  0  0
    1.9093    2.0185    0.5020 C   0  0  0  0  0  0  0  0  0  0  0  0
    2.3968    3.3017    0.3030 C   0  0  0  0  0  0  0  0  0  0  0  0
    1.7520    4.5782    0.4422 C   0  0  0  0  0  0  0  0  0  0  0  0
    0.4784    4.9721    0.8927 C   0  0  0  0  0  0  0  0  0  0  0  0
    0.1846    6.3290    0.9452 C   0  0  0  0  0  0  0  0  0  0  0  0
    1.1404    7.3034    0.5690 C   0  0  0  0  0  0  0  0  0  0  0  0
    2.3995    6.9298    0.1189 C   0  0  0  0  0  0  0  0  0  0  0  0
    2.7034    5.5557    0.0342 C   0  0  0  0  0  0  0  0  0  0  0  0
    3.9029    4.8454   -0.3434 C   0  0  0  0  0  0  0  0  0  0  0  0
    5.1601    5.4332   -0.7787 C   0  0  0  0  0  0  0  0  0  0  0  0
    6.4422    5.2688   -0.2561 C   0  0  0  0  0  0  0  0  0  0  0  0
    7.2987    6.1697   -0.9319 C   0  0  0  0  0  0  0  0  0  0  0  0
    6.5269    6.8455   -1.8606 C   0  0  0  0  0  0  0  0  0  0  0  0
    5.2267    6.4214   -1.7603 N   0  0  0  0  0  0  0  0  0  0  0  0
    4.2379    6.6675   -2.7986 C   0  0  0  0  0  0  0  0  0  0  0  0
    3.6952    3.5245   -0.1629 N   0  0  0  0  0  0  0  0  0  0  0  0
    4.7321    2.3542   -0.4572 B   0  0  2  0  0  0  0  0  0  0  0  0
    5.1782    2.4589   -1.7630 F   0  0  0  0  0  0  0  0  0  0  0  0
    5.7830    2.4296    0.4517 F   0  0  0  0  0  0  0  0  0  0  0  0
    1.0602   -2.1800    0.7159 H   0  0  0  0  0  0  0  0  0  0  0  0
    0.2011   -0.6856    0.2833 H   0  0  0  0  0  0  0  0  0  0  0  0
    0.8972   -0.8705    1.9047 H   0  0  0  0  0  0  0  0  0  0  0  0
    3.6302   -2.2690   -0.1300 H   0  0  0  0  0  0  0  0  0  0  0  0
    6.0608   -1.5495   -1.0331 H   0  0  0  0  0  0  0  0  0  0  0  0
    6.6057   -0.0327   -0.2511 H   0  0  0  0  0  0  0  0  0  0  0  0
    6.0151    0.0126   -1.9135 H   0  0  0  0  0  0  0  0  0  0  0  0
    0.8842    1.8970    0.8573 H   0  0  0  0  0  0  0  0  0  0  0  0
   -0.2631    4.2325    1.2050 H   0  0  0  0  0  0  0  0  0  0  0  0
   -0.7983    6.6544    1.2953 H   0  0  0  0  0  0  0  0  0  0  0  0
    0.8830    8.3625    0.6450 H   0  0  0  0  0  0  0  0  0  0  0  0
    3.1432    7.6834   -0.1493 H   0  0  0  0  0  0  0  0  0  0  0  0
    6.6969    4.5824    0.5456 H   0  0  0  0  0  0  0  0  0  0  0  0
    8.3624    6.3167   -0.7558 H   0  0  0  0  0  0  0  0  0  0  0  0
    6.8087    7.5820   -2.6111 H   0  0  0  0  0  0  0  0  0  0  0  0
    4.4016    7.6691   -3.2212 H   0  0  0  0  0  0  0  0  0  0  0  0
    3.2216    6.6278   -2.3898 H   0  0  0  0  0  0  0  0  0  0  0  0
    4.3189    5.9230   -3.6082 H   0  0  0  0  0  0  0  0  0  0  0  0
  1  2  1  0
  1 27  1  0
  1 28  1  0
  1 29  1  0
  2  3  1  0
  2  7  2  0
  3  4  2  0
  3 30  1  0
  4  5  1  0
  4  6  1  0
  5 31  1  0
  5 32  1  0
  5 33  1  0
  6  7  1  0
  6 24  1  0
  7  8  1  0
  8  9  2  0
  8 34  1  0
  9 10  1  0
  9 23  1  0
 10 11  2  0
 10 15  1  0
 11 12  1  0
 11 35  1  0
 12 13  2  0
 12 36  1  0
 13 14  1  0
 13 37  1  0
 14 15  2  0
 14 38  1  0
 15 16  1  0
 16 17  1  0
 16 23  2  0
 17 18  2  0
 17 21  1  0
 18 19  1  0
 18 39  1  0
 19 20  2  0
 19 40  1  0
 20 21  1  0
 20 41  1  0
 21 22  1  0
 22 42  1  0
 22 43  1  0
 22 44  1  0
 23 24  1  0
 24 25  1  6
 24 26  1  0
M  CHG  2  23   1  24  -1
M  END

