
     RDKit          3D

 45 48  0  0  0  0  0  0  0  0999 V2000
    1.9497   -0.0855   -1.3553 C   0  0  0  0  0  0  0  0  0  0  0  0
    3.3398    0.0736   -1.1580 O   0  0  0  0  0  0  0  0  0  0  0  0
    3.7875    0.9556   -0.2405 C   0  0  0  0  0  0  0  0  0  0  0  0
    2.9631    1.7583    0.5647 C   0  0  0  0  0  0  0  0  0  0  0  0
    3.5426    2.6366    1.4809 C   0  0  0  0  0  0  0  0  0  0  0  0
    4.9380    2.7480    1.6289 C   0  0  0  0  0  0  0  0  0  0  0  0
    5.4730    3.6855    2.6053 C   0  0  0  0  0  0  0  0  0  0  0  0
    6.7709    3.9307    2.9068 C   0  0  0  0  0  0  0  0  0  0  0  0
    7.1116    4.9592    3.9061 C   0  0  0  0  0  0  0  0  0  0  0  0
    6.3183    5.7258    4.4060 O   0  0  0  0  0  0  0  0  0  0  0  0
    8.5057    5.0350    4.2452 N   0  0  0  0  0  0  0  0  0  0  0  0
    9.2274    6.1942    4.5939 C   0  0  0  0  0  0  0  0  0  0  0  0
    8.7902    7.5784    4.3287 C   0  0  0  0  0  0  0  0  0  0  0  0
    9.2490    8.5897    5.1927 C   0  0  0  0  0  0  0  0  0  0  0  0
    8.9189    9.9245    4.9603 C   0  0  0  0  0  0  0  0  0  0  0  0
    8.1362   10.2734    3.8550 C   0  0  0  0  0  0  0  0  0  0  0  0
    7.6920    9.2772    2.9804 C   0  0  0  0  0  0  0  0  0  0  0  0
    8.0148    7.9398    3.2134 C   0  0  0  0  0  0  0  0  0  0  0  0
   10.3977    5.9144    5.1074 N   0  0  0  0  0  0  0  0  0  0  0  0
   10.4955    4.5390    5.1379 C   0  0  0  0  0  0  0  0  0  0  0  0
   11.5388    3.7337    5.6167 C   0  0  0  0  0  0  0  0  0  0  0  0
   11.3802    2.3506    5.5614 C   0  0  0  0  0  0  0  0  0  0  0  0
   10.1995    1.7764    5.0512 C   0  0  0  0  0  0  0  0  0  0  0  0
    9.1494    2.5623    4.5695 C   0  0  0  0  0  0  0  0  0  0  0  0
    9.3239    3.9512    4.5990 C   0  0  0  0  0  0  0  0  0  0  0  0
    5.7487    1.9288    0.8056 C   0  0  0  0  0  0  0  0  0  0  0  0
    5.1895    1.0524   -0.1078 C   0  0  0  0  0  0  0  0  0  0  0  0
    1.8318   -0.8448   -2.1393 H   0  0  0  0  0  0  0  0  0  0  0  0
    1.4750    0.8536   -1.6903 H   0  0  0  0  0  0  0  0  0  0  0  0
    1.4447   -0.4352   -0.4376 H   0  0  0  0  0  0  0  0  0  0  0  0
    1.8773    1.7070    0.4862 H   0  0  0  0  0  0  0  0  0  0  0  0
    2.8926    3.2574    2.1033 H   0  0  0  0  0  0  0  0  0  0  0  0
    4.7343    4.2692    3.1662 H   0  0  0  0  0  0  0  0  0  0  0  0
    7.5910    3.4116    2.4084 H   0  0  0  0  0  0  0  0  0  0  0  0
    9.8696    8.3068    6.0443 H   0  0  0  0  0  0  0  0  0  0  0  0
    9.2754   10.6977    5.6457 H   0  0  0  0  0  0  0  0  0  0  0  0
    7.8772   11.3195    3.6722 H   0  0  0  0  0  0  0  0  0  0  0  0
    7.0918    9.5427    2.1064 H   0  0  0  0  0  0  0  0  0  0  0  0
    7.6745    7.1808    2.5074 H   0  0  0  0  0  0  0  0  0  0  0  0
   12.4387    4.1967    6.0261 H   0  0  0  0  0  0  0  0  0  0  0  0
   12.1764    1.6984    5.9285 H   0  0  0  0  0  0  0  0  0  0  0  0
   10.0958    0.6885    5.0357 H   0  0  0  0  0  0  0  0  0  0  0  0
    8.2342    2.0966    4.2036 H   0  0  0  0  0  0  0  0  0  0  0  0
    6.8365    1.9829    0.8849 H   0  0  0  0  0  0  0  0  0  0  0  0
    5.8118    0.4200   -0.7439 H   0  0  0  0  0  0  0  0  0  0  0  0
  1  2  1  0
  1 28  1  0
  1 29  1  0
  1 30  1  0
  2  3  1  0
  3  4  2  0
  3 27  1  0
  4  5  1  0
  4 31  1  0
  5  6  2  0
  5 32  1  0
  6  7  1  0
  6 26  1  0
  7  8  2  0
  7 33  1  0
  8  9  1  0
  8 34  1  0
  9 10  2  0
  9 11  1  0
 11 12  1  0
 11 25  1  0
 12 13  1  0
 12 19  2  0
 13 14  2  0
 13 18  1  0
 14 15  1  0
 14 35  1  0
 15 16  2  0
 15 36  1  0
 16 17  1  0
 16 37  1  0
 17 18  2  0
 17 38  1  0
 18 39  1  0
 19 20  1  0
 20 21  2  0
 20 25  1  0
 21 22  1  0
 21 40  1  0
 22 23  2  0
 22 41  1  0
 23 24  1  0
 23 42  1  0
 24 25  2  0
 24 43  1  0
 26 27  2  0
 26 44  1  0
 27 45  1  0
M  END

