
     RDKit          3D

 66 70  0  0  0  0  0  0  0  0999 V2000
    7.3295   -0.4312   -4.4393 C   0  0  0  0  0  0  0  0  0  0  0  0
    6.4776   -1.0225   -3.3408 C   0  0  0  0  0  0  0  0  0  0  0  0
    5.1072   -1.2855   -3.5424 C   0  0  0  0  0  0  0  0  0  0  0  0
    4.2822   -1.8319   -2.5577 C   0  0  0  0  0  0  0  0  0  0  0  0
    2.8200   -2.0989   -2.8130 C   0  0  0  0  0  0  0  0  0  0  0  0
    4.8619   -2.1303   -1.3028 C   0  0  0  0  0  0  0  0  0  0  0  0
    4.1165   -2.6749   -0.2725 N   0  0  0  0  0  0  0  0  0  0  0  0
    3.1280   -2.8602   -0.4109 H   0  0  0  0  0  0  0  0  0  0  0  0
    4.5782   -3.0038    0.9972 C   0  0  0  0  0  0  0  0  0  0  0  0
    3.8195   -3.4735    1.8379 O   0  0  0  0  0  0  0  0  0  0  0  0
    6.0076   -2.7373    1.2239 C   0  0  0  0  0  0  0  0  0  0  0  0
    6.5218   -3.0711    2.6061 C   0  0  0  0  0  0  0  0  0  0  0  0
    7.9701   -3.0135    2.7208 N   0  0  0  0  0  0  0  0  0  0  0  0
    8.4873   -2.5462    4.0002 C   0  0  0  0  0  0  0  0  0  0  0  0
    8.3751   -1.0215    4.1806 C   0  0  0  0  0  0  0  0  0  0  0  0
    8.9539   -0.5522    5.4969 C   0  0  0  0  0  0  0  0  0  0  0  0
   10.3098   -0.1995    5.5993 C   0  0  0  0  0  0  0  0  0  0  0  0
   10.8599    0.1972    6.8214 C   0  0  0  0  0  0  0  0  0  0  0  0
   10.0613    0.2466    7.9680 C   0  0  0  0  0  0  0  0  0  0  0  0
    8.7100   -0.1013    7.8816 C   0  0  0  0  0  0  0  0  0  0  0  0
    8.1641   -0.4966    6.6570 C   0  0  0  0  0  0  0  0  0  0  0  0
    8.6424   -4.1829    2.1976 C   0  0  0  0  0  0  0  0  0  0  0  0
   10.0071   -3.8659    1.6516 C   0  0  0  0  0  0  0  0  0  0  0  0
   10.3437   -2.7877    0.9646 N   0  0  0  0  0  0  0  0  0  0  0  0
   11.6419   -2.9349    0.6294 N   0  0  0  0  0  0  0  0  0  0  0  0
   12.1125   -4.0444    1.0777 N   0  0  0  0  0  0  0  0  0  0  0  0
   11.1044   -4.6567    1.7359 N   0  0  0  0  0  0  0  0  0  0  0  0
   11.3034   -5.9756    2.3287 C   0  0  0  0  0  0  0  0  0  0  0  0
   10.7780   -7.1138    1.4740 C   0  0  0  0  0  0  0  0  0  0  0  0
   11.1917   -7.2479    0.1388 C   0  0  0  0  0  0  0  0  0  0  0  0
   10.7248   -8.3079   -0.6404 C   0  0  0  0  0  0  0  0  0  0  0  0
    9.8437   -9.2488   -0.0950 C   0  0  0  0  0  0  0  0  0  0  0  0
    9.4298   -9.1229    1.2330 C   0  0  0  0  0  0  0  0  0  0  0  0
    9.8934   -8.0577    2.0123 C   0  0  0  0  0  0  0  0  0  0  0  0
    6.7735   -2.1975    0.2354 C   0  0  0  0  0  0  0  0  0  0  0  0
    6.2361   -1.8772   -1.0645 C   0  0  0  0  0  0  0  0  0  0  0  0
    7.0225   -1.3260   -2.0948 C   0  0  0  0  0  0  0  0  0  0  0  0
    6.7441   -0.2526   -5.3534 H   0  0  0  0  0  0  0  0  0  0  0  0
    8.1669   -1.0986   -4.7028 H   0  0  0  0  0  0  0  0  0  0  0  0
    7.7718    0.5311   -4.1317 H   0  0  0  0  0  0  0  0  0  0  0  0
    4.6647   -1.0523   -4.5158 H   0  0  0  0  0  0  0  0  0  0  0  0
    2.5387   -1.8098   -3.8352 H   0  0  0  0  0  0  0  0  0  0  0  0
    2.1706   -1.5329   -2.1213 H   0  0  0  0  0  0  0  0  0  0  0  0
    2.5689   -3.1680   -2.6931 H   0  0  0  0  0  0  0  0  0  0  0  0
    6.1022   -4.0536    2.9120 H   0  0  0  0  0  0  0  0  0  0  0  0
    6.0775   -2.3551    3.3169 H   0  0  0  0  0  0  0  0  0  0  0  0
    9.5553   -2.8120    4.0542 H   0  0  0  0  0  0  0  0  0  0  0  0
    8.0007   -3.0622    4.8582 H   0  0  0  0  0  0  0  0  0  0  0  0
    7.3172   -0.7190    4.1139 H   0  0  0  0  0  0  0  0  0  0  0  0
    8.8976   -0.5451    3.3366 H   0  0  0  0  0  0  0  0  0  0  0  0
   10.9400   -0.2282    4.7052 H   0  0  0  0  0  0  0  0  0  0  0  0
   11.9161    0.4739    6.8770 H   0  0  0  0  0  0  0  0  0  0  0  0
   10.4890    0.5601    8.9238 H   0  0  0  0  0  0  0  0  0  0  0  0
    8.0757   -0.0601    8.7712 H   0  0  0  0  0  0  0  0  0  0  0  0
    7.1035   -0.7594    6.5981 H   0  0  0  0  0  0  0  0  0  0  0  0
    8.0440   -4.5910    1.3664 H   0  0  0  0  0  0  0  0  0  0  0  0
    8.7231   -5.0077    2.9405 H   0  0  0  0  0  0  0  0  0  0  0  0
   10.8306   -5.9879    3.3215 H   0  0  0  0  0  0  0  0  0  0  0  0
   12.3901   -6.0625    2.4753 H   0  0  0  0  0  0  0  0  0  0  0  0
   11.8810   -6.5149   -0.2893 H   0  0  0  0  0  0  0  0  0  0  0  0
   11.0522   -8.4022   -1.6788 H   0  0  0  0  0  0  0  0  0  0  0  0
    9.4799  -10.0781   -0.7066 H   0  0  0  0  0  0  0  0  0  0  0  0
    8.7400   -9.8521    1.6653 H   0  0  0  0  0  0  0  0  0  0  0  0
    9.5633   -7.9627    3.0510 H   0  0  0  0  0  0  0  0  0  0  0  0
    7.8335   -2.0034    0.4269 H   0  0  0  0  0  0  0  0  0  0  0  0
    8.0818   -1.1404   -1.8945 H   0  0  0  0  0  0  0  0  0  0  0  0
  1  2  1  0
  1 38  1  0
  1 39  1  0
  1 40  1  0
  2  3  2  0
  2 37  1  0
  3  4  1  0
  3 41  1  0
  4  5  1  0
  4  6  2  0
  5 42  1  0
  5 43  1  0
  5 44  1  0
  6  7  1  0
  6 36  1  0
  7  8  1  0
  7  9  1  0
  9 10  2  0
  9 11  1  0
 11 12  1  0
 11 35  2  0
 12 13  1  0
 12 45  1  0
 12 46  1  0
 13 14  1  0
 13 22  1  0
 14 15  1  0
 14 47  1  0
 14 48  1  0
 15 16  1  0
 15 49  1  0
 15 50  1  0
 16 17  2  0
 16 21  1  0
 17 18  1  0
 17 51  1  0
 18 19  2  0
 18 52  1  0
 19 20  1  0
 19 53  1  0
 20 21  2  0
 20 54  1  0
 21 55  1  0
 22 23  1  0
 22 56  1  0
 22 57  1  0
 23 24  2  0
 23 27  1  0
 24 25  1  0
 25 26  2  0
 26 27  1  0
 27 28  1  0
 28 29  1  0
 28 58  1  0
 28 59  1  0
 29 30  2  0
 29 34  1  0
 30 31  1  0
 30 60  1  0
 31 32  2  0
 31 61  1  0
 32 33  1  0
 32 62  1  0
 33 34  2  0
 33 63  1  0
 34 64  1  0
 35 36  1  0
 35 65  1  0
 36 37  2  0
 37 66  1  0
M  END

