
     RDKit          3D

 22 23  0  0  0  0  0  0  0  0999 V2000
    1.1885   -0.2511    0.0409 C   0  0  0  0  0  0  0  0  0  0  0  0
    2.6886   -0.1327    0.0538 C   0  0  0  0  0  0  0  0  0  0  0  0
    3.2204    1.0992    0.0827 N   0  0  0  0  0  0  0  0  0  0  0  0
    4.5364    1.1829    0.0961 C   0  0  0  0  0  0  0  0  0  0  0  0
    5.2970    2.9374    0.1349 Br  0  0  0  0  0  0  0  0  0  0  0  0
    5.3806    0.0740    0.0810 C   0  0  0  0  0  0  0  0  0  0  0  0
    4.7354   -1.1715    0.0507 C   0  0  0  0  0  0  0  0  0  0  0  0
    5.5254   -2.4372    0.0312 C   0  0  0  0  0  0  0  0  0  0  0  0
    4.8773   -3.6816   -0.0003 C   0  0  0  0  0  0  0  0  0  0  0  0
    5.6566   -4.8388   -0.0177 C   0  0  0  0  0  0  0  0  0  0  0  0
    7.0479   -4.7163   -0.0033 C   0  0  0  0  0  0  0  0  0  0  0  0
    7.5984   -3.4288    0.0281 C   0  0  0  0  0  0  0  0  0  0  0  0
    6.8618   -2.3210    0.0447 N   0  0  0  0  0  0  0  0  0  0  0  0
    3.3982   -1.2645    0.0369 N   0  0  0  0  0  0  0  0  0  0  0  0
    0.7243    0.7431    0.0434 H   0  0  0  0  0  0  0  0  0  0  0  0
    0.8463   -0.8196    0.9209 H   0  0  0  0  0  0  0  0  0  0  0  0
    0.8601   -0.8108   -0.8496 H   0  0  0  0  0  0  0  0  0  0  0  0
    6.4669    0.1406    0.0918 H   0  0  0  0  0  0  0  0  0  0  0  0
    3.7877   -3.7123   -0.0101 H   0  0  0  0  0  0  0  0  0  0  0  0
    5.1824   -5.8237   -0.0422 H   0  0  0  0  0  0  0  0  0  0  0  0
    7.6980   -5.5948   -0.0161 H   0  0  0  0  0  0  0  0  0  0  0  0
    8.6868   -3.2920    0.0404 H   0  0  0  0  0  0  0  0  0  0  0  0
  1  2  1  0
  1 15  1  0
  1 16  1  0
  1 17  1  0
  2  3  2  0
  2 14  1  0
  3  4  1  0
  4  5  1  0
  4  6  2  0
  6  7  1  0
  6 18  1  0
  7  8  1  0
  7 14  2  0
  8  9  2  0
  8 13  1  0
  9 10  1  0
  9 19  1  0
 10 11  2  0
 10 20  1  0
 11 12  1  0
 11 21  1  0
 12 13  2  0
 12 22  1  0
M  END

