
     RDKit          3D

 43 45  0  0  0  0  0  0  0  0999 V2000
    1.1004    0.5359   -0.5509 C   0  0  0  0  0  0  0  0  0  0  0  0
    2.3521    1.2822   -0.9831 C   0  0  0  0  0  0  0  0  0  0  0  0
    3.2569    1.5370   -0.2055 O   0  0  0  0  0  0  0  0  0  0  0  0
    2.3946    1.6479   -2.3028 N   0  0  0  0  0  0  0  0  0  0  0  0
    3.5818    2.2690   -2.8750 C   0  0  0  0  0  0  0  0  0  0  0  0
    4.6076    1.2872   -3.3855 C   0  0  0  0  0  0  0  0  0  0  0  0
    5.5508    0.6045   -2.6469 C   0  0  0  0  0  0  0  0  0  0  0  0
    6.3185   -0.2994   -3.4312 C   0  0  0  0  0  0  0  0  0  0  0  0
    5.9566   -0.3094   -4.7652 C   0  0  0  0  0  0  0  0  0  0  0  0
    6.5598   -0.9588   -5.9671 C   0  0  0  0  0  0  0  0  0  0  0  0
    6.5338   -0.3641   -7.0390 O   0  0  0  0  0  0  0  0  0  0  0  0
    7.1634   -2.1923   -5.8242 N   0  0  0  0  0  0  0  0  0  0  0  0
    6.8626   -3.1729   -4.7790 C   0  0  0  0  0  0  0  0  0  0  0  0
    6.1547   -4.4067   -5.3577 C   0  0  0  0  0  0  0  0  0  0  0  0
    6.9416   -5.0146   -6.5225 C   0  0  0  0  0  0  0  0  0  0  0  0
    7.2487   -3.9417   -7.5741 C   0  0  0  0  0  0  0  0  0  0  0  0
    7.9428   -2.7068   -6.9679 C   0  0  2  0  0  0  0  0  0  0  0  0
    9.3844   -2.9391   -6.5656 C   0  0  0  0  0  0  0  0  0  0  0  0
   10.1675   -2.1522   -5.6749 C   0  0  0  0  0  0  0  0  0  0  0  0
   11.4200   -2.5885   -5.5870 N   0  0  0  0  0  0  0  0  0  0  0  0
   11.4660   -3.6427   -6.4087 N   0  0  0  0  0  0  0  0  0  0  0  0
   12.3337   -4.1546   -6.5134 H   0  0  0  0  0  0  0  0  0  0  0  0
   10.2773   -3.9012   -7.0185 C   0  0  0  0  0  0  0  0  0  0  0  0
    4.6791    0.8374   -5.0595 S   0  0  0  0  0  0  0  0  0  0  0  0
    0.7501    0.9618    0.4000 H   0  0  0  0  0  0  0  0  0  0  0  0
    1.3640   -0.5165   -0.3593 H   0  0  0  0  0  0  0  0  0  0  0  0
    0.2858    0.5703   -1.2893 H   0  0  0  0  0  0  0  0  0  0  0  0
    1.6824    1.2991   -2.9328 H   0  0  0  0  0  0  0  0  0  0  0  0
    4.0381    2.8692   -2.0754 H   0  0  0  0  0  0  0  0  0  0  0  0
    3.2692    2.9548   -3.6773 H   0  0  0  0  0  0  0  0  0  0  0  0
    5.6711    0.7530   -1.5727 H   0  0  0  0  0  0  0  0  0  0  0  0
    7.1359   -0.8978   -3.0272 H   0  0  0  0  0  0  0  0  0  0  0  0
    6.2291   -2.7074   -4.0178 H   0  0  0  0  0  0  0  0  0  0  0  0
    7.8037   -3.4791   -4.2874 H   0  0  0  0  0  0  0  0  0  0  0  0
    5.1494   -4.1079   -5.7048 H   0  0  0  0  0  0  0  0  0  0  0  0
    6.0090   -5.1469   -4.5529 H   0  0  0  0  0  0  0  0  0  0  0  0
    6.3764   -5.8447   -6.9778 H   0  0  0  0  0  0  0  0  0  0  0  0
    7.8829   -5.4472   -6.1411 H   0  0  0  0  0  0  0  0  0  0  0  0
    6.3070   -3.6000   -8.0359 H   0  0  0  0  0  0  0  0  0  0  0  0
    7.8643   -4.3504   -8.3919 H   0  0  0  0  0  0  0  0  0  0  0  0
    7.9118   -1.8998   -7.7129 H   0  0  0  0  0  0  0  0  0  0  0  0
    9.8506   -1.2835   -5.0984 H   0  0  0  0  0  0  0  0  0  0  0  0
   10.1636   -4.7273   -7.7169 H   0  0  0  0  0  0  0  0  0  0  0  0
  1  2  1  0
  1 25  1  0
  1 26  1  0
  1 27  1  0
  2  3  2  0
  2  4  1  0
  4  5  1  0
  4 28  1  0
  5  6  1  0
  5 29  1  0
  5 30  1  0
  6  7  2  0
  6 24  1  0
  7  8  1  0
  7 31  1  0
  8  9  2  0
  8 32  1  0
  9 10  1  0
  9 24  1  0
 10 11  2  0
 10 12  1  0
 12 13  1  0
 12 17  1  0
 13 14  1  0
 13 33  1  0
 13 34  1  0
 14 15  1  0
 14 35  1  0
 14 36  1  0
 15 16  1  0
 15 37  1  0
 15 38  1  0
 16 17  1  0
 16 39  1  0
 16 40  1  0
 17 18  1  0
 17 41  1  6
 18 19  1  0
 18 23  2  0
 19 20  2  0
 19 42  1  0
 20 21  1  0
 21 22  1  0
 21 23  1  0
 23 43  1  0
M  END

