
     RDKit          3D

 52 54  0  0  0  0  0  0  0  0999 V2000
    0.6915   -2.8271   -2.8080 C   0  0  0  0  0  0  0  0  0  0  0  0
    0.9885   -1.4925   -2.1284 C   0  0  0  0  0  0  0  0  0  0  0  0
    1.7425   -0.5806   -2.9749 N   0  0  0  0  0  0  0  0  0  0  0  0
    3.0478   -0.2177   -2.8662 C   0  0  0  0  0  0  0  0  0  0  0  0
    3.3331    0.6119   -3.9413 C   0  0  0  0  0  0  0  0  0  0  0  0
    4.6438    1.2620   -4.2863 C   0  0  0  0  0  0  0  0  0  0  0  0
    4.6224    2.7262   -4.1862 N   0  0  0  0  0  0  0  0  0  0  0  0
    4.5478    3.2681   -2.8412 C   0  0  0  0  0  0  0  0  0  0  0  0
    4.8121    3.4591   -5.3361 C   0  0  0  0  0  0  0  0  0  0  0  0
    5.1034    2.9341   -6.4044 O   0  0  0  0  0  0  0  0  0  0  0  0
    4.6248    4.9575   -5.2845 C   0  0  0  0  0  0  0  0  0  0  0  0
    3.4995    5.5656   -4.7072 C   0  0  0  0  0  0  0  0  0  0  0  0
    3.3344    6.9498   -4.8006 C   0  0  0  0  0  0  0  0  0  0  0  0
    4.2877    7.7328   -5.4528 C   0  0  0  0  0  0  0  0  0  0  0  0
    5.4210    7.1449   -6.0477 C   0  0  0  0  0  0  0  0  0  0  0  0
    6.4359    7.9715   -6.7577 C   0  0  0  0  0  0  0  0  0  0  0  0
    7.0567    7.5015   -7.9255 C   0  0  0  0  0  0  0  0  0  0  0  0
    8.0054    8.2924   -8.5834 C   0  0  0  0  0  0  0  0  0  0  0  0
    8.3503    9.5486   -8.0951 C   0  0  0  0  0  0  0  0  0  0  0  0
    7.7374   10.0315   -6.9256 C   0  0  0  0  0  0  0  0  0  0  0  0
    8.1361   11.2616   -6.5090 O   0  0  0  0  0  0  0  0  0  0  0  0
    7.5666   11.8188   -5.3476 C   0  0  0  0  0  0  0  0  0  0  0  0
    6.7852    9.2452   -6.2635 C   0  0  0  0  0  0  0  0  0  0  0  0
    5.5598    5.7496   -5.9641 C   0  0  0  0  0  0  0  0  0  0  0  0
    2.0991    0.6901   -4.6560 C   0  0  0  0  0  0  0  0  0  0  0  0
    1.7995    1.4714   -5.8992 C   0  0  0  0  0  0  0  0  0  0  0  0
    1.1585   -0.0389   -4.0565 N   0  0  0  0  0  0  0  0  0  0  0  0
    0.0885   -3.4679   -2.1454 H   0  0  0  0  0  0  0  0  0  0  0  0
    1.6217   -3.3624   -3.0556 H   0  0  0  0  0  0  0  0  0  0  0  0
    0.1305   -2.6605   -3.7392 H   0  0  0  0  0  0  0  0  0  0  0  0
    1.5729   -1.6388   -1.2069 H   0  0  0  0  0  0  0  0  0  0  0  0
    0.0496   -0.9891   -1.8472 H   0  0  0  0  0  0  0  0  0  0  0  0
    3.6762   -0.5762   -2.0521 H   0  0  0  0  0  0  0  0  0  0  0  0
    4.9370    1.0327   -5.3193 H   0  0  0  0  0  0  0  0  0  0  0  0
    5.4355    0.8723   -3.6221 H   0  0  0  0  0  0  0  0  0  0  0  0
    5.2902    2.7631   -2.1973 H   0  0  0  0  0  0  0  0  0  0  0  0
    3.5538    3.1111   -2.3875 H   0  0  0  0  0  0  0  0  0  0  0  0
    4.7729    4.3398   -2.8366 H   0  0  0  0  0  0  0  0  0  0  0  0
    2.7410    4.9597   -4.2066 H   0  0  0  0  0  0  0  0  0  0  0  0
    2.4465    7.4214   -4.3714 H   0  0  0  0  0  0  0  0  0  0  0  0
    4.1345    8.8113   -5.5334 H   0  0  0  0  0  0  0  0  0  0  0  0
    6.7797    6.5294   -8.3374 H   0  0  0  0  0  0  0  0  0  0  0  0
    8.4773    7.9224   -9.4974 H   0  0  0  0  0  0  0  0  0  0  0  0
    9.0895   10.1779   -8.5944 H   0  0  0  0  0  0  0  0  0  0  0  0
    8.0285   12.8066   -5.2149 H   0  0  0  0  0  0  0  0  0  0  0  0
    7.7726   11.2060   -4.4510 H   0  0  0  0  0  0  0  0  0  0  0  0
    6.4729   11.9469   -5.4441 H   0  0  0  0  0  0  0  0  0  0  0  0
    6.3241    9.5979   -5.3416 H   0  0  0  0  0  0  0  0  0  0  0  0
    6.4161    5.2562   -6.4265 H   0  0  0  0  0  0  0  0  0  0  0  0
    2.6519    1.4692   -6.5952 H   0  0  0  0  0  0  0  0  0  0  0  0
    1.5823    2.5287   -5.6684 H   0  0  0  0  0  0  0  0  0  0  0  0
    0.9176    1.0528   -6.4046 H   0  0  0  0  0  0  0  0  0  0  0  0
  1  2  1  0
  1 28  1  0
  1 29  1  0
  1 30  1  0
  2  3  1  0
  2 31  1  0
  2 32  1  0
  3  4  1  0
  3 27  1  0
  4  5  2  0
  4 33  1  0
  5  6  1  0
  5 25  1  0
  6  7  1  0
  6 34  1  0
  6 35  1  0
  7  8  1  0
  7  9  1  0
  8 36  1  0
  8 37  1  0
  8 38  1  0
  9 10  2  0
  9 11  1  0
 11 12  2  0
 11 24  1  0
 12 13  1  0
 12 39  1  0
 13 14  2  0
 13 40  1  0
 14 15  1  0
 14 41  1  0
 15 16  1  0
 15 24  2  0
 16 17  2  0
 16 23  1  0
 17 18  1  0
 17 42  1  0
 18 19  2  0
 18 43  1  0
 19 20  1  0
 19 44  1  0
 20 21  1  0
 20 23  2  0
 21 22  1  0
 22 45  1  0
 22 46  1  0
 22 47  1  0
 23 48  1  0
 24 49  1  0
 25 26  1  0
 25 27  2  0
 26 50  1  0
 26 51  1  0
 26 52  1  0
M  END

