
     RDKit          3D

 51 53  0  0  0  0  0  0  0  0999 V2000
    1.5764   -4.3915    0.6421 C   0  0  0  0  0  0  0  0  0  0  0  0
    2.9592   -3.8800    0.3226 C   0  0  0  0  0  0  0  0  0  0  0  0
    3.1874   -2.5156    0.1038 C   0  0  0  0  0  0  0  0  0  0  0  0
    4.4497   -1.9985   -0.1948 C   0  0  0  0  0  0  0  0  0  0  0  0
    5.5408   -2.8766   -0.2808 C   0  0  0  0  0  0  0  0  0  0  0  0
    6.8508   -2.4610   -0.5744 N   0  0  0  0  0  0  0  0  0  0  0  0
    7.3228   -1.1995   -0.8296 C   0  0  0  0  0  0  0  0  0  0  0  0
    6.6542   -0.1779   -0.8464 O   0  0  0  0  0  0  0  0  0  0  0  0
    8.7923   -1.1621   -1.1002 C   0  0  0  0  0  0  0  0  0  0  0  0
    9.5525   -0.0112   -1.4093 C   0  0  0  0  0  0  0  0  0  0  0  0
   10.8506   -0.4670   -1.5798 C   0  0  0  0  0  0  0  0  0  0  0  0
   12.1220    0.2853   -1.8909 C   0  0  1  0  0  0  0  0  0  0  0  0
   11.8208    1.6198   -2.5865 C   0  0  0  0  0  0  0  0  0  0  0  0
   12.9775    0.5051   -0.6268 C   0  0  0  0  0  0  0  0  0  0  0  0
   10.7970   -1.8278   -1.3647 N   0  0  0  0  0  0  0  0  0  0  0  0
   11.8710   -2.8044   -1.4533 C   0  0  1  0  0  0  0  0  0  0  0  0
   12.7909   -2.2552   -1.6938 H   0  0  0  0  0  0  0  0  0  0  0  0
   12.0641   -3.5897   -0.1311 C   0  0  0  0  0  0  0  0  0  0  0  0
   12.9736   -4.8003   -0.3927 C   0  0  0  0  0  0  0  0  0  0  0  0
   12.9610   -5.0729   -2.2200 S   0  0  2  0  0  0  0  0  0  0  0  0
   12.5301   -6.4315   -2.5576 O   0  0  0  0  0  0  0  0  0  0  0  0
   14.2080   -4.5066   -2.7577 O   0  0  0  0  0  0  0  0  0  0  0  0
   11.6419   -3.8529   -2.5473 C   0  0  0  0  0  0  0  0  0  0  0  0
    9.5564   -2.2531   -1.0799 N   0  0  0  0  0  0  0  0  0  0  0  0
    5.3253   -4.2497   -0.0634 C   0  0  0  0  0  0  0  0  0  0  0  0
    4.0608   -4.7641    0.2351 C   0  0  0  0  0  0  0  0  0  0  0  0
    3.8790   -6.2454    0.4596 C   0  0  0  0  0  0  0  0  0  0  0  0
    0.8449   -3.5707    0.6696 H   0  0  0  0  0  0  0  0  0  0  0  0
    1.5424   -4.9018    1.6204 H   0  0  0  0  0  0  0  0  0  0  0  0
    1.2267   -5.1254   -0.1046 H   0  0  0  0  0  0  0  0  0  0  0  0
    2.3435   -1.8223    0.1684 H   0  0  0  0  0  0  0  0  0  0  0  0
    4.6006   -0.9347   -0.3612 H   0  0  0  0  0  0  0  0  0  0  0  0
    7.5585   -3.1890   -0.6076 H   0  0  0  0  0  0  0  0  0  0  0  0
    9.1775    1.0040   -1.4947 H   0  0  0  0  0  0  0  0  0  0  0  0
   12.7137   -0.3258   -2.5964 H   0  0  0  0  0  0  0  0  0  0  0  0
   11.2666    2.2999   -1.9202 H   0  0  0  0  0  0  0  0  0  0  0  0
   11.2216    1.4752   -3.4979 H   0  0  0  0  0  0  0  0  0  0  0  0
   12.7585    2.1231   -2.8679 H   0  0  0  0  0  0  0  0  0  0  0  0
   12.4324    1.1199    0.1069 H   0  0  0  0  0  0  0  0  0  0  0  0
   13.9157    1.0237   -0.8800 H   0  0  0  0  0  0  0  0  0  0  0  0
   13.2426   -0.4438   -0.1347 H   0  0  0  0  0  0  0  0  0  0  0  0
   11.0696   -3.9211    0.2002 H   0  0  0  0  0  0  0  0  0  0  0  0
   12.4731   -2.9345    0.6521 H   0  0  0  0  0  0  0  0  0  0  0  0
   12.6253   -5.7285    0.0783 H   0  0  0  0  0  0  0  0  0  0  0  0
   14.0301   -4.6294   -0.1458 H   0  0  0  0  0  0  0  0  0  0  0  0
   10.6677   -4.3490   -2.4369 H   0  0  0  0  0  0  0  0  0  0  0  0
   11.7818   -3.4863   -3.5726 H   0  0  0  0  0  0  0  0  0  0  0  0
    6.1746   -4.9376   -0.1307 H   0  0  0  0  0  0  0  0  0  0  0  0
    4.8293   -6.7893    0.3564 H   0  0  0  0  0  0  0  0  0  0  0  0
    3.1636   -6.6800   -0.2593 H   0  0  0  0  0  0  0  0  0  0  0  0
    3.4777   -6.4575    1.4653 H   0  0  0  0  0  0  0  0  0  0  0  0
  1  2  1  0
  1 28  1  0
  1 29  1  0
  1 30  1  0
  2  3  2  0
  2 26  1  0
  3  4  1  0
  3 31  1  0
  4  5  2  0
  4 32  1  0
  5  6  1  0
  5 25  1  0
  6  7  1  0
  6 33  1  0
  7  8  2  0
  7  9  1  0
  9 10  1  0
  9 24  2  0
 10 11  2  0
 10 34  1  0
 11 12  1  0
 11 15  1  0
 12 13  1  0
 12 14  1  0
 12 35  1  6
 13 36  1  0
 13 37  1  0
 13 38  1  0
 14 39  1  0
 14 40  1  0
 14 41  1  0
 15 16  1  0
 15 24  1  0
 16 17  1  6
 16 18  1  0
 16 23  1  0
 18 19  1  0
 18 42  1  0
 18 43  1  0
 20 19  1  1
 19 44  1  0
 19 45  1  0
 20 21  2  0
 20 22  2  0
 20 23  1  0
 23 46  1  0
 23 47  1  0
 25 26  2  0
 25 48  1  0
 26 27  1  0
 27 49  1  0
 27 50  1  0
 27 51  1  0
M  END

