
     RDKit          3D

 51 56  0  0  0  0  0  0  0  0999 V2000
    9.9219    1.8044    6.3846 C   0  0  0  0  0  0  0  0  0  0  0  0
    9.4889    1.2929    5.0333 C   0  0  0  0  0  0  0  0  0  0  0  0
    8.1308    1.1991    4.6884 C   0  0  0  0  0  0  0  0  0  0  0  0
    7.7370    0.7140    3.4420 C   0  0  0  0  0  0  0  0  0  0  0  0
    8.6980    0.3105    2.5036 C   0  0  0  0  0  0  0  0  0  0  0  0
    8.2256   -0.1998    1.1847 C   0  0  0  0  0  0  0  0  0  0  0  0
    7.0575   -0.3101    0.8781 O   0  0  0  0  0  0  0  0  0  0  0  0
    9.2475   -0.5314    0.3700 O   0  0  0  0  0  0  0  0  0  0  0  0
    8.9563   -1.0092   -0.9626 C   0  0  0  0  0  0  0  0  0  0  0  0
    9.6271   -2.3353   -1.2125 C   0  0  0  0  0  0  0  0  0  0  0  0
   10.7971   -2.3709   -1.9486 C   0  0  0  0  0  0  0  0  0  0  0  0
   11.4734   -3.5761   -2.2008 C   0  0  0  0  0  0  0  0  0  0  0  0
   11.0040   -4.7943   -1.7182 C   0  0  0  0  0  0  0  0  0  0  0  0
   11.7164   -6.0627   -1.9771 C   0  0  0  0  0  0  0  0  0  0  0  0
   12.8991   -6.1120   -2.7141 C   0  0  0  0  0  0  0  0  0  0  0  0
   13.5754   -7.3230   -2.9578 C   0  0  0  0  0  0  0  0  0  0  0  0
   13.0760   -8.5094   -2.4646 C   0  0  0  0  0  0  0  0  0  0  0  0
   11.8750   -8.5217   -1.7064 C   0  0  0  0  0  0  0  0  0  0  0  0
   11.3494   -9.7368   -1.1916 C   0  0  0  0  0  0  0  0  0  0  0  0
   10.1833   -9.7328   -0.4572 C   0  0  0  0  0  0  0  0  0  0  0  0
    9.5021   -8.5247   -0.2110 C   0  0  0  0  0  0  0  0  0  0  0  0
    9.9693   -7.3019   -0.6912 C   0  0  0  0  0  0  0  0  0  0  0  0
    9.2566   -6.0317   -0.4357 C   0  0  0  0  0  0  0  0  0  0  0  0
    8.0712   -5.9914    0.2960 C   0  0  0  0  0  0  0  0  0  0  0  0
    7.3929   -4.7846    0.5368 C   0  0  0  0  0  0  0  0  0  0  0  0
    7.8887   -3.5916    0.0538 C   0  0  0  0  0  0  0  0  0  0  0  0
    9.0953   -3.5641   -0.6983 C   0  0  0  0  0  0  0  0  0  0  0  0
    9.7897   -4.8017   -0.9510 C   0  0  0  0  0  0  0  0  0  0  0  0
   11.1820   -7.2873   -1.4565 C   0  0  0  0  0  0  0  0  0  0  0  0
   10.0600    0.4008    2.8361 C   0  0  0  0  0  0  0  0  0  0  0  0
   10.4438    0.8856    4.0843 C   0  0  0  0  0  0  0  0  0  0  0  0
    9.0712    2.1896    6.9654 H   0  0  0  0  0  0  0  0  0  0  0  0
   10.6634    2.6142    6.2873 H   0  0  0  0  0  0  0  0  0  0  0  0
   10.3978    1.0041    6.9768 H   0  0  0  0  0  0  0  0  0  0  0  0
    7.3707    1.5119    5.4096 H   0  0  0  0  0  0  0  0  0  0  0  0
    6.6813    0.6403    3.1739 H   0  0  0  0  0  0  0  0  0  0  0  0
    9.3588   -0.2552   -1.6553 H   0  0  0  0  0  0  0  0  0  0  0  0
    7.8666   -1.0503   -1.0873 H   0  0  0  0  0  0  0  0  0  0  0  0
   11.2104   -1.4399   -2.3465 H   0  0  0  0  0  0  0  0  0  0  0  0
   12.3891   -3.5330   -2.7898 H   0  0  0  0  0  0  0  0  0  0  0  0
   13.3289   -5.1971   -3.1217 H   0  0  0  0  0  0  0  0  0  0  0  0
   14.4995   -7.3127   -3.5411 H   0  0  0  0  0  0  0  0  0  0  0  0
   13.5941   -9.4541   -2.6485 H   0  0  0  0  0  0  0  0  0  0  0  0
   11.8848  -10.6693   -1.3879 H   0  0  0  0  0  0  0  0  0  0  0  0
    9.7776  -10.6665   -0.0598 H   0  0  0  0  0  0  0  0  0  0  0  0
    8.5842   -8.5681    0.3749 H   0  0  0  0  0  0  0  0  0  0  0  0
    7.6430   -6.9095    0.6976 H   0  0  0  0  0  0  0  0  0  0  0  0
    6.4642   -4.7955    1.1125 H   0  0  0  0  0  0  0  0  0  0  0  0
    7.3454   -2.6675    0.2535 H   0  0  0  0  0  0  0  0  0  0  0  0
   10.8099    0.0870    2.1092 H   0  0  0  0  0  0  0  0  0  0  0  0
   11.5076    0.9507    4.3311 H   0  0  0  0  0  0  0  0  0  0  0  0
  1  2  1  0
  1 32  1  0
  1 33  1  0
  1 34  1  0
  2  3  2  0
  2 31  1  0
  3  4  1  0
  3 35  1  0
  4  5  2  0
  4 36  1  0
  5  6  1  0
  5 30  1  0
  6  7  2  0
  6  8  1  0
  8  9  1  0
  9 10  1  0
  9 37  1  0
  9 38  1  0
 10 11  2  0
 10 27  1  0
 11 12  1  0
 11 39  1  0
 12 13  2  0
 12 40  1  0
 13 14  1  0
 13 28  1  0
 14 15  2  0
 14 29  1  0
 15 16  1  0
 15 41  1  0
 16 17  2  0
 16 42  1  0
 17 18  1  0
 17 43  1  0
 18 19  1  0
 18 29  2  0
 19 20  2  0
 19 44  1  0
 20 21  1  0
 20 45  1  0
 21 22  2  0
 21 46  1  0
 22 23  1  0
 22 29  1  0
 23 24  1  0
 23 28  2  0
 24 25  2  0
 24 47  1  0
 25 26  1  0
 25 48  1  0
 26 27  2  0
 26 49  1  0
 27 28  1  0
 30 31  2  0
 30 50  1  0
 31 51  1  0
M  END

