
     RDKit          3D

 63 67  0  0  0  0  0  0  0  0999 V2000
    1.6147   -0.5107    1.9817 C   0  0  0  0  0  0  0  0  0  0  0  0
    2.9407   -0.4462    1.2638 C   0  0  0  0  0  0  0  0  0  0  0  0
    4.1106   -0.0493    1.9254 C   0  0  0  0  0  0  0  0  0  0  0  0
    5.3293   -0.0161    1.2488 C   0  0  0  0  0  0  0  0  0  0  0  0
    5.3955   -0.3756   -0.0973 C   0  0  0  0  0  0  0  0  0  0  0  0
    6.6754   -0.3112   -0.7694 N   0  0  0  0  0  0  0  0  0  0  0  0
    7.2179    0.9399   -1.0999 C   0  0  0  0  0  0  0  0  0  0  0  0
    6.6289    1.9737   -0.8601 O   0  0  0  0  0  0  0  0  0  0  0  0
    8.5537    0.9034   -1.7622 C   0  0  0  0  0  0  0  0  0  0  0  0
    9.1412    2.1258   -2.1202 C   0  0  0  0  0  0  0  0  0  0  0  0
   10.3855    2.1606   -2.7412 C   0  0  0  0  0  0  0  0  0  0  0  0
   11.0534    0.9596   -3.0098 C   0  0  0  0  0  0  0  0  0  0  0  0
   10.4894   -0.2677   -2.6635 C   0  0  0  0  0  0  0  0  0  0  0  0
    9.2353   -0.3016   -2.0365 C   0  0  0  0  0  0  0  0  0  0  0  0
    8.5883   -1.4912   -1.6525 N   0  0  0  0  0  0  0  0  0  0  0  0
    8.8953   -2.8529   -1.7267 C   0  0  0  0  0  0  0  0  0  0  0  0
   10.3879   -3.5209   -2.3873 S   0  0  0  0  0  0  0  0  0  0  0  0
   10.0634   -5.3347   -2.1282 C   0  0  1  0  0  0  0  0  0  0  0  0
    9.0607   -5.9158   -3.1253 C   0  0  0  0  0  0  0  0  0  0  0  0
   11.4242   -6.0528   -2.1496 C   0  0  0  0  0  0  0  0  0  0  0  0
   11.7825   -6.7446   -1.2188 O   0  0  0  0  0  0  0  0  0  0  0  0
   12.1490   -5.8837   -3.3069 N   0  0  0  0  0  0  0  0  0  0  0  0
   13.4546   -6.4061   -3.5555 C   0  0  0  0  0  0  0  0  0  0  0  0
   13.6770   -7.8001   -3.5749 C   0  0  0  0  0  0  0  0  0  0  0  0
   12.5633   -8.7867   -3.3424 C   0  0  0  0  0  0  0  0  0  0  0  0
   14.9791   -8.2533   -3.8361 C   0  0  0  0  0  0  0  0  0  0  0  0
   16.0208   -7.3629   -4.0915 C   0  0  0  0  0  0  0  0  0  0  0  0
   15.7764   -5.9891   -4.0902 C   0  0  0  0  0  0  0  0  0  0  0  0
   14.4969   -5.4891   -3.8186 C   0  0  0  0  0  0  0  0  0  0  0  0
   14.2412   -4.0015   -3.8017 C   0  0  0  0  0  0  0  0  0  0  0  0
    7.9241   -3.5553   -1.2109 N   0  0  0  0  0  0  0  0  0  0  0  0
    6.9392   -2.7011   -0.7715 N   0  0  0  0  0  0  0  0  0  0  0  0
    7.3459   -1.4907   -1.0350 C   0  0  0  0  0  0  0  0  0  0  0  0
    4.2427   -0.7716   -0.7995 C   0  0  0  0  0  0  0  0  0  0  0  0
    4.2959   -1.1731   -2.2505 C   0  0  0  0  0  0  0  0  0  0  0  0
    3.0343   -0.7980   -0.0912 C   0  0  0  0  0  0  0  0  0  0  0  0
    1.6618   -0.0191    2.9645 H   0  0  0  0  0  0  0  0  0  0  0  0
    1.3042   -1.5568    2.1472 H   0  0  0  0  0  0  0  0  0  0  0  0
    0.8163   -0.0269    1.3964 H   0  0  0  0  0  0  0  0  0  0  0  0
    4.0708    0.2371    2.9795 H   0  0  0  0  0  0  0  0  0  0  0  0
    6.2393    0.2955    1.7650 H   0  0  0  0  0  0  0  0  0  0  0  0
    8.5843    3.0362   -1.8915 H   0  0  0  0  0  0  0  0  0  0  0  0
   10.8374    3.1158   -3.0167 H   0  0  0  0  0  0  0  0  0  0  0  0
   12.0313    0.9736   -3.4970 H   0  0  0  0  0  0  0  0  0  0  0  0
   11.0267   -1.1880   -2.8839 H   0  0  0  0  0  0  0  0  0  0  0  0
    9.6837   -5.4297   -1.1042 H   0  0  0  0  0  0  0  0  0  0  0  0
    9.3862   -5.7786   -4.1677 H   0  0  0  0  0  0  0  0  0  0  0  0
    8.0788   -5.4440   -2.9874 H   0  0  0  0  0  0  0  0  0  0  0  0
    8.9506   -6.9963   -2.9363 H   0  0  0  0  0  0  0  0  0  0  0  0
   11.8036   -5.1927   -3.9665 H   0  0  0  0  0  0  0  0  0  0  0  0
   11.6572   -8.5048   -3.9026 H   0  0  0  0  0  0  0  0  0  0  0  0
   12.2828   -8.8129   -2.2779 H   0  0  0  0  0  0  0  0  0  0  0  0
   12.8622   -9.7971   -3.6560 H   0  0  0  0  0  0  0  0  0  0  0  0
   15.1685   -9.3300   -3.8508 H   0  0  0  0  0  0  0  0  0  0  0  0
   17.0257   -7.7402   -4.2973 H   0  0  0  0  0  0  0  0  0  0  0  0
   16.5908   -5.2881   -4.2914 H   0  0  0  0  0  0  0  0  0  0  0  0
   15.1814   -3.4415   -3.9061 H   0  0  0  0  0  0  0  0  0  0  0  0
   13.7549   -3.6835   -2.8652 H   0  0  0  0  0  0  0  0  0  0  0  0
   13.5815   -3.6834   -4.6296 H   0  0  0  0  0  0  0  0  0  0  0  0
    4.8848   -0.4607   -2.8497 H   0  0  0  0  0  0  0  0  0  0  0  0
    3.2863   -1.2268   -2.6820 H   0  0  0  0  0  0  0  0  0  0  0  0
    4.7679   -2.1639   -2.3572 H   0  0  0  0  0  0  0  0  0  0  0  0
    2.1281   -1.1035   -0.6233 H   0  0  0  0  0  0  0  0  0  0  0  0
  1  2  1  0
  1 37  1  0
  1 38  1  0
  1 39  1  0
  2  3  2  0
  2 36  1  0
  3  4  1  0
  3 40  1  0
  4  5  2  0
  4 41  1  0
  5  6  1  0
  5 34  1  0
  6  7  1  0
  6 33  1  0
  7  8  2  0
  7  9  1  0
  9 10  2  0
  9 14  1  0
 10 11  1  0
 10 42  1  0
 11 12  2  0
 11 43  1  0
 12 13  1  0
 12 44  1  0
 13 14  2  0
 13 45  1  0
 14 15  1  0
 15 16  1  0
 15 33  1  0
 16 17  1  0
 16 31  2  0
 17 18  1  0
 18 19  1  0
 18 20  1  0
 18 46  1  1
 19 47  1  0
 19 48  1  0
 19 49  1  0
 20 21  2  0
 20 22  1  0
 22 23  1  0
 22 50  1  0
 23 24  2  0
 23 29  1  0
 24 25  1  0
 24 26  1  0
 25 51  1  0
 25 52  1  0
 25 53  1  0
 26 27  2  0
 26 54  1  0
 27 28  1  0
 27 55  1  0
 28 29  2  0
 28 56  1  0
 29 30  1  0
 30 57  1  0
 30 58  1  0
 30 59  1  0
 31 32  1  0
 32 33  2  0
 34 35  1  0
 34 36  2  0
 35 60  1  0
 35 61  1  0
 35 62  1  0
 36 63  1  0
M  END

