
     RDKit          3D

 47 49  0  0  0  0  0  0  0  0999 V2000
    0.8174   -1.0904    0.7494 C   0  0  0  0  0  0  0  0  0  0  0  0
    2.1707   -0.4214    0.4197 C   0  0  1  0  0  0  0  0  0  0  0  0
    3.1799   -0.7104    1.5726 C   0  0  0  0  0  0  0  0  0  0  0  0
    2.8104   -0.1183    2.8389 N   0  0  0  0  0  0  0  0  0  0  0  0
    3.4857    0.9360    3.3864 C   0  0  0  0  0  0  0  0  0  0  0  0
    4.4465    1.4663    2.8567 O   0  0  0  0  0  0  0  0  0  0  0  0
    2.9868    1.4165    4.7617 C   0  0  0  0  0  0  0  0  0  0  0  0
    1.6437    0.9149    5.2368 C   0  0  0  0  0  0  0  0  0  0  0  0
    1.5407   -0.2050    6.0809 C   0  0  0  0  0  0  0  0  0  0  0  0
    0.2952   -0.6718    6.5053 C   0  0  0  0  0  0  0  0  0  0  0  0
   -0.8774   -0.0360    6.0907 C   0  0  0  0  0  0  0  0  0  0  0  0
   -0.7911    1.0749    5.2247 C   0  0  0  0  0  0  0  0  0  0  0  0
    0.4607    1.5398    4.8135 C   0  0  0  0  0  0  0  0  0  0  0  0
   -1.9101    1.7197    4.7779 O   0  0  0  0  0  0  0  0  0  0  0  0
   -3.1231    1.0079    4.9735 C   0  0  0  0  0  0  0  0  0  0  0  0
   -3.1615    0.4016    6.3659 C   0  0  0  0  0  0  0  0  0  0  0  0
   -2.0815   -0.5036    6.5364 O   0  0  0  0  0  0  0  0  0  0  0  0
    2.6967   -1.1670   -0.8370 C   0  0  0  0  0  0  0  0  0  0  0  0
    3.2923   -2.2095   -0.7755 O   0  0  0  0  0  0  0  0  0  0  0  0
    2.3829   -0.6246   -2.0280 O   0  0  0  0  0  0  0  0  0  0  0  0
    2.0485    1.0873    0.1594 C   0  0  0  0  0  0  0  0  0  0  0  0
    3.1936    1.8219   -0.2080 C   0  0  0  0  0  0  0  0  0  0  0  0
    3.1256    3.1925   -0.4574 C   0  0  0  0  0  0  0  0  0  0  0  0
    1.9079    3.8702   -0.3387 C   0  0  0  0  0  0  0  0  0  0  0  0
    0.7635    3.1611    0.0283 C   0  0  0  0  0  0  0  0  0  0  0  0
    0.8336    1.7845    0.2735 C   0  0  0  0  0  0  0  0  0  0  0  0
    0.9661   -2.1697    0.8988 H   0  0  0  0  0  0  0  0  0  0  0  0
    0.0880   -0.9614   -0.0644 H   0  0  0  0  0  0  0  0  0  0  0  0
    0.3802   -0.6671    1.6662 H   0  0  0  0  0  0  0  0  0  0  0  0
    4.1720   -0.3173    1.3164 H   0  0  0  0  0  0  0  0  0  0  0  0
    3.2763   -1.8019    1.6695 H   0  0  0  0  0  0  0  0  0  0  0  0
    2.0447   -0.5153    3.3707 H   0  0  0  0  0  0  0  0  0  0  0  0
    3.0048    2.5155    4.7046 H   0  0  0  0  0  0  0  0  0  0  0  0
    3.7777    1.1396    5.4783 H   0  0  0  0  0  0  0  0  0  0  0  0
    2.4476   -0.7087    6.4258 H   0  0  0  0  0  0  0  0  0  0  0  0
    0.2062   -1.5281    7.1773 H   0  0  0  0  0  0  0  0  0  0  0  0
    0.4880    2.4062    4.1482 H   0  0  0  0  0  0  0  0  0  0  0  0
   -3.2187    0.2080    4.2149 H   0  0  0  0  0  0  0  0  0  0  0  0
   -3.9432    1.7265    4.8299 H   0  0  0  0  0  0  0  0  0  0  0  0
   -4.0877   -0.1696    6.5246 H   0  0  0  0  0  0  0  0  0  0  0  0
   -3.1066    1.2037    7.1259 H   0  0  0  0  0  0  0  0  0  0  0  0
    1.9785    0.2485   -1.8919 H   0  0  0  0  0  0  0  0  0  0  0  0
    4.1586    1.3177   -0.2945 H   0  0  0  0  0  0  0  0  0  0  0  0
    4.0320    3.7351   -0.7363 H   0  0  0  0  0  0  0  0  0  0  0  0
    1.8540    4.9448   -0.5299 H   0  0  0  0  0  0  0  0  0  0  0  0
   -0.1949    3.6774    0.1273 H   0  0  0  0  0  0  0  0  0  0  0  0
   -0.0782    1.2601    0.5608 H   0  0  0  0  0  0  0  0  0  0  0  0
  1  2  1  0
  1 27  1  0
  1 28  1  0
  1 29  1  0
  2  3  1  0
  2 18  1  6
  2 21  1  0
  3  4  1  0
  3 30  1  0
  3 31  1  0
  4  5  1  0
  4 32  1  0
  5  6  2  0
  5  7  1  0
  7  8  1  0
  7 33  1  0
  7 34  1  0
  8  9  2  0
  8 13  1  0
  9 10  1  0
  9 35  1  0
 10 11  2  0
 10 36  1  0
 11 12  1  0
 11 17  1  0
 12 13  2  0
 12 14  1  0
 13 37  1  0
 14 15  1  0
 15 16  1  0
 15 38  1  0
 15 39  1  0
 16 17  1  0
 16 40  1  0
 16 41  1  0
 18 19  2  0
 18 20  1  0
 20 42  1  0
 21 22  2  0
 21 26  1  0
 22 23  1  0
 22 43  1  0
 23 24  2  0
 23 44  1  0
 24 25  1  0
 24 45  1  0
 25 26  2  0
 25 46  1  0
 26 47  1  0
M  END

