
     RDKit          3D

 53 55  0  0  0  0  0  0  0  0999 V2000
    2.8560   -5.9657    0.1531 C   0  0  0  0  0  0  0  0  0  0  0  0
    3.3245   -5.0970   -0.9730 C   0  0  0  0  0  0  0  0  0  0  0  0
    4.5628   -5.2015   -1.4339 N   0  0  0  0  0  0  0  0  0  0  0  0
    4.6940   -4.2847   -2.4161 N   0  0  0  0  0  0  0  0  0  0  0  0
    5.9911   -4.1699   -3.1025 C   0  0  1  0  0  0  0  0  0  0  0  0
    7.0757   -3.7235   -2.1183 C   0  0  0  0  0  0  0  0  0  0  0  0
    6.3354   -5.4844   -3.8080 C   0  0  0  0  0  0  0  0  0  0  0  0
    3.5663   -3.5598   -2.6183 C   0  0  0  0  0  0  0  0  0  0  0  0
    3.4482   -2.4637   -3.6297 C   0  0  0  0  0  0  0  0  0  0  0  0
    2.6411   -4.0643   -1.6924 C   0  0  0  0  0  0  0  0  0  0  0  0
    0.9790   -3.5202   -1.4740 S   0  0  1  0  0  0  0  0  0  0  0  0
    0.5344   -4.0107   -0.1666 O   0  0  0  0  0  0  0  0  0  0  0  0
    0.8812   -2.1081   -1.8457 O   0  0  0  0  0  0  0  0  0  0  0  0
    0.0161   -4.3152   -2.6106 N   0  0  0  0  0  0  0  0  0  0  0  0
   -0.0743   -5.7705   -2.6055 C   0  0  0  0  0  0  0  0  0  0  0  0
   -1.0939   -6.2562   -1.5676 C   0  0  0  0  0  0  0  0  0  0  0  0
   -1.0414   -8.0599   -1.4455 S   0  0  1  0  0  0  0  0  0  0  0  0
   -1.4079   -8.5986   -2.7560 O   0  0  0  0  0  0  0  0  0  0  0  0
    0.2077   -8.4436   -0.7866 O   0  0  0  0  0  0  0  0  0  0  0  0
   -2.2418   -8.4822   -0.3322 N   0  0  0  0  0  0  0  0  0  0  0  0
   -3.6271   -8.2463   -0.4713 C   0  0  0  0  0  0  0  0  0  0  0  0
   -4.2812   -8.4969   -1.7244 C   0  0  0  0  0  0  0  0  0  0  0  0
   -5.6307   -8.3084   -1.8346 C   0  0  0  0  0  0  0  0  0  0  0  0
   -6.3557   -7.8989   -0.7522 N   0  0  0  0  0  0  0  0  0  0  0  0
   -7.6854   -7.6924   -0.7551 N   0  0  0  0  0  0  0  0  0  0  0  0
   -7.9631   -7.3148    0.4955 C   0  0  0  0  0  0  0  0  0  0  0  0
   -6.8273   -7.2699    1.3264 C   0  0  0  0  0  0  0  0  0  0  0  0
   -5.7707   -7.6568    0.4959 C   0  0  0  0  0  0  0  0  0  0  0  0
   -4.3675   -7.8244    0.6173 C   0  0  0  0  0  0  0  0  0  0  0  0
    3.7098   -6.5451    0.5298 H   0  0  0  0  0  0  0  0  0  0  0  0
    2.0731   -6.6741   -0.1622 H   0  0  0  0  0  0  0  0  0  0  0  0
    2.4341   -5.3568    0.9650 H   0  0  0  0  0  0  0  0  0  0  0  0
    5.8541   -3.3856   -3.8614 H   0  0  0  0  0  0  0  0  0  0  0  0
    7.1980   -4.4711   -1.3209 H   0  0  0  0  0  0  0  0  0  0  0  0
    6.8156   -2.7611   -1.6511 H   0  0  0  0  0  0  0  0  0  0  0  0
    8.0370   -3.6049   -2.6415 H   0  0  0  0  0  0  0  0  0  0  0  0
    6.4288   -6.2983   -3.0745 H   0  0  0  0  0  0  0  0  0  0  0  0
    7.2889   -5.3849   -4.3490 H   0  0  0  0  0  0  0  0  0  0  0  0
    5.5548   -5.7623   -4.5330 H   0  0  0  0  0  0  0  0  0  0  0  0
    4.2431   -1.7120   -3.5004 H   0  0  0  0  0  0  0  0  0  0  0  0
    2.4867   -1.9522   -3.5040 H   0  0  0  0  0  0  0  0  0  0  0  0
    3.5195   -2.8495   -4.6606 H   0  0  0  0  0  0  0  0  0  0  0  0
    0.0881   -3.8716   -3.5229 H   0  0  0  0  0  0  0  0  0  0  0  0
    0.9056   -6.2454   -2.4148 H   0  0  0  0  0  0  0  0  0  0  0  0
   -0.3904   -6.0954   -3.6070 H   0  0  0  0  0  0  0  0  0  0  0  0
   -2.1195   -5.9726   -1.8452 H   0  0  0  0  0  0  0  0  0  0  0  0
   -0.8533   -5.8577   -0.5729 H   0  0  0  0  0  0  0  0  0  0  0  0
   -1.8670   -8.4578    0.6134 H   0  0  0  0  0  0  0  0  0  0  0  0
   -3.7050   -8.8458   -2.5789 H   0  0  0  0  0  0  0  0  0  0  0  0
   -6.2055   -8.4776   -2.7454 H   0  0  0  0  0  0  0  0  0  0  0  0
   -8.9945   -7.0830    0.7627 H   0  0  0  0  0  0  0  0  0  0  0  0
   -6.7708   -6.9963    2.3765 H   0  0  0  0  0  0  0  0  0  0  0  0
   -3.8924   -7.6203    1.5790 H   0  0  0  0  0  0  0  0  0  0  0  0
  1  2  1  0
  1 30  1  0
  1 31  1  0
  1 32  1  0
  2  3  2  0
  2 10  1  0
  3  4  1  0
  4  5  1  0
  4  8  1  0
  5  6  1  0
  5  7  1  0
  5 33  1  6
  6 34  1  0
  6 35  1  0
  6 36  1  0
  7 37  1  0
  7 38  1  0
  7 39  1  0
  8  9  1  0
  8 10  2  0
  9 40  1  0
  9 41  1  0
  9 42  1  0
 10 11  1  0
 11 12  2  0
 11 13  2  0
 11 14  1  6
 14 15  1  0
 14 43  1  0
 15 16  1  0
 15 44  1  0
 15 45  1  0
 16 17  1  0
 16 46  1  0
 16 47  1  0
 17 18  2  0
 17 19  2  0
 17 20  1  1
 20 21  1  0
 20 48  1  0
 21 22  1  0
 21 29  2  0
 22 23  2  0
 22 49  1  0
 23 24  1  0
 23 50  1  0
 24 25  1  0
 24 28  1  0
 25 26  2  0
 26 27  1  0
 26 51  1  0
 27 28  2  0
 27 52  1  0
 28 29  1  0
 29 53  1  0
M  END

