
     RDKit          3D

 62 68  0  0  0  0  0  0  0  0999 V2000
    2.4358   -1.0878    1.1975 C   0  0  0  0  0  0  0  0  0  0  0  0
    3.9416   -0.7825    1.1283 C   0  0  0  0  0  0  0  0  0  0  0  0
    4.3227    0.5592    1.6928 C   0  0  0  0  0  0  0  0  0  0  0  0
    4.3968    1.7741    0.9930 C   0  0  0  0  0  0  0  0  0  0  0  0
    4.1340    1.9919   -0.4657 C   0  0  0  0  0  0  0  0  0  0  0  0
    4.7429    2.7728    1.9448 C   0  0  0  0  0  0  0  0  0  0  0  0
    4.8879    4.1602    1.7831 C   0  0  0  0  0  0  0  0  0  0  0  0
    5.1111    4.9975    2.8665 C   0  0  0  0  0  0  0  0  0  0  0  0
    5.0459    6.4257    3.0506 C   0  0  0  0  0  0  0  0  0  0  0  0
    4.9189    7.4966    2.1503 C   0  0  0  0  0  0  0  0  0  0  0  0
    4.8320    8.7876    2.6587 C   0  0  0  0  0  0  0  0  0  0  0  0
    4.8519    9.0250    4.0508 C   0  0  0  0  0  0  0  0  0  0  0  0
    4.9680    7.9757    4.9555 C   0  0  0  0  0  0  0  0  0  0  0  0
    5.0815    6.6614    4.4625 C   0  0  0  0  0  0  0  0  0  0  0  0
    5.1934    5.3592    5.0934 C   0  0  0  0  0  0  0  0  0  0  0  0
    5.2465    4.4352    4.1247 N   0  0  0  0  0  0  0  0  0  0  0  0
    5.4817    2.9190    4.4298 B   0  0  1  0  0  0  0  0  0  0  0  0
    7.0643    2.5838    4.6064 C   0  0  0  0  0  0  0  0  0  0  0  0
    8.0107    2.9357    3.6187 C   0  0  0  0  0  0  0  0  0  0  0  0
    9.3638    2.6395    3.7451 C   0  0  0  0  0  0  0  0  0  0  0  0
    9.8355    1.9644    4.8846 C   0  0  0  0  0  0  0  0  0  0  0  0
   11.1735    1.7153    4.9258 O   0  0  0  0  0  0  0  0  0  0  0  0
   11.7123    1.0538    6.0444 C   0  0  0  0  0  0  0  0  0  0  0  0
    8.9248    1.5974    5.8833 C   0  0  0  0  0  0  0  0  0  0  0  0
    7.5658    1.9107    5.7307 C   0  0  0  0  0  0  0  0  0  0  0  0
    4.7118    2.6479    5.6629 O   0  0  0  0  0  0  0  0  0  0  0  0
    4.7784    3.5218    6.6721 C   0  0  0  0  0  0  0  0  0  0  0  0
    4.4852    3.0770    7.9738 C   0  0  0  0  0  0  0  0  0  0  0  0
    4.5813    3.9435    9.0584 C   0  0  0  0  0  0  0  0  0  0  0  0
    4.9650    5.2814    8.8735 C   0  0  0  0  0  0  0  0  0  0  0  0
    5.2156    5.7484    7.5888 C   0  0  0  0  0  0  0  0  0  0  0  0
    5.1098    4.8997    6.4667 C   0  0  0  0  0  0  0  0  0  0  0  0
    4.8765    2.1661    3.1974 N   0  0  0  0  0  0  0  0  0  0  0  0
    4.6362    0.8426    3.0490 C   0  0  0  0  0  0  0  0  0  0  0  0
    4.7192   -0.1135    4.1927 C   0  0  0  0  0  0  0  0  0  0  0  0
    2.2088   -2.0745    0.7615 H   0  0  0  0  0  0  0  0  0  0  0  0
    1.8500   -0.3328    0.6491 H   0  0  0  0  0  0  0  0  0  0  0  0
    2.0768   -1.0871    2.2392 H   0  0  0  0  0  0  0  0  0  0  0  0
    4.2715   -0.8380    0.0770 H   0  0  0  0  0  0  0  0  0  0  0  0
    4.4956   -1.5792    1.6530 H   0  0  0  0  0  0  0  0  0  0  0  0
    4.6493    1.2362   -1.0811 H   0  0  0  0  0  0  0  0  0  0  0  0
    4.4769    2.9798   -0.8063 H   0  0  0  0  0  0  0  0  0  0  0  0
    3.0587    1.9166   -0.7052 H   0  0  0  0  0  0  0  0  0  0  0  0
    4.7530    4.5929    0.7906 H   0  0  0  0  0  0  0  0  0  0  0  0
    4.8908    7.3218    1.0719 H   0  0  0  0  0  0  0  0  0  0  0  0
    4.7409    9.6336    1.9727 H   0  0  0  0  0  0  0  0  0  0  0  0
    4.7701   10.0496    4.4213 H   0  0  0  0  0  0  0  0  0  0  0  0
    4.9628    8.1816    6.0260 H   0  0  0  0  0  0  0  0  0  0  0  0
    7.6829    3.4618    2.7167 H   0  0  0  0  0  0  0  0  0  0  0  0
   10.0854    2.9200    2.9743 H   0  0  0  0  0  0  0  0  0  0  0  0
   12.7937    0.9672    5.8692 H   0  0  0  0  0  0  0  0  0  0  0  0
   11.2901    0.0394    6.1698 H   0  0  0  0  0  0  0  0  0  0  0  0
   11.5473    1.6195    6.9800 H   0  0  0  0  0  0  0  0  0  0  0  0
    9.2548    1.0737    6.7814 H   0  0  0  0  0  0  0  0  0  0  0  0
    6.8791    1.6141    6.5279 H   0  0  0  0  0  0  0  0  0  0  0  0
    4.2033    2.0304    8.1053 H   0  0  0  0  0  0  0  0  0  0  0  0
    4.3678    3.5714   10.0640 H   0  0  0  0  0  0  0  0  0  0  0  0
    5.0611    5.9522    9.7298 H   0  0  0  0  0  0  0  0  0  0  0  0
    5.5113    6.7877    7.4441 H   0  0  0  0  0  0  0  0  0  0  0  0
    4.0081    0.1603    4.9871 H   0  0  0  0  0  0  0  0  0  0  0  0
    5.7228   -0.0922    4.6485 H   0  0  0  0  0  0  0  0  0  0  0  0
    4.5077   -1.1397    3.8650 H   0  0  0  0  0  0  0  0  0  0  0  0
  1  2  1  0
  1 36  1  0
  1 37  1  0
  1 38  1  0
  2  3  1  0
  2 39  1  0
  2 40  1  0
  3  4  2  0
  3 34  1  0
  4  5  1  0
  4  6  1  0
  5 41  1  0
  5 42  1  0
  5 43  1  0
  6  7  2  0
  6 33  1  0
  7  8  1  0
  7 44  1  0
  8  9  2  0
  8 16  1  0
  9 10  1  0
  9 14  1  0
 10 11  2  0
 10 45  1  0
 11 12  1  0
 11 46  1  0
 12 13  2  0
 12 47  1  0
 13 14  1  0
 13 48  1  0
 14 15  2  0
 15 16  1  0
 15 32  1  0
 16 17  1  0
 17 18  1  1
 17 26  1  0
 17 33  1  0
 18 19  2  0
 18 25  1  0
 19 20  1  0
 19 49  1  0
 20 21  2  0
 20 50  1  0
 21 22  1  0
 21 24  1  0
 22 23  1  0
 23 51  1  0
 23 52  1  0
 23 53  1  0
 24 25  2  0
 24 54  1  0
 25 55  1  0
 26 27  1  0
 27 28  1  0
 27 32  2  0
 28 29  2  0
 28 56  1  0
 29 30  1  0
 29 57  1  0
 30 31  2  0
 30 58  1  0
 31 32  1  0
 31 59  1  0
 33 34  2  0
 34 35  1  0
 35 60  1  0
 35 61  1  0
 35 62  1  0
M  CHG  2  17  -1  33   1
M  END

