
     RDKit          3D

 78 80  0  0  0  0  0  0  0  0999 V2000
    4.5387   -2.3563    2.5131 C   0  0  0  0  0  0  0  0  0  0  0  0
    3.4890   -1.8993    1.5131 C   0  0  0  0  0  0  0  0  0  0  0  0
    3.9022   -2.1360    0.1587 O   0  0  0  0  0  0  0  0  0  0  0  0
    4.6326   -1.1760   -0.4611 C   0  0  0  0  0  0  0  0  0  0  0  0
    4.9387   -0.1439    0.1121 O   0  0  0  0  0  0  0  0  0  0  0  0
    4.9718   -1.5878   -1.8363 C   0  0  0  0  0  0  0  0  0  0  0  0
    5.5056   -0.7436   -2.7839 C   0  0  0  0  0  0  0  0  0  0  0  0
    5.6453    0.7589   -2.5777 C   0  0  0  0  0  0  0  0  0  0  0  0
    7.0354    1.2169   -2.5973 N   0  0  0  0  0  0  0  0  0  0  0  0
    7.1979    2.6565   -2.8188 C   0  0  0  0  0  0  0  0  0  0  0  0
    7.0642    3.4909   -1.5362 C   0  0  0  0  0  0  0  0  0  0  0  0
    8.0145    3.0153   -0.5228 N   0  0  0  0  0  0  0  0  0  0  0  0
    9.2691    3.6380   -0.5781 C   0  0  0  0  0  0  0  0  0  0  0  0
    9.5053    4.5169   -1.4034 O   0  0  0  0  0  0  0  0  0  0  0  0
   10.1978    3.2429    0.3571 N   0  0  0  0  0  0  0  0  0  0  0  0
   11.5270    3.8703    0.5233 C   0  0  1  0  0  0  0  0  0  0  0  0
   11.3925    5.3623    0.8877 C   0  0  0  0  0  0  0  0  0  0  0  0
   12.2119    3.1150    1.6739 C   0  0  0  0  0  0  0  0  0  0  0  0
   12.3571    3.7033   -0.7620 C   0  0  0  0  0  0  0  0  0  0  0  0
    7.7222    1.5933   -0.2013 C   0  0  2  0  0  0  0  0  0  0  0  0
    6.6558    1.5804    0.0697 H   0  0  0  0  0  0  0  0  0  0  0  0
    8.4509    0.9499    0.9766 C   0  0  0  0  0  0  0  0  0  0  0  0
    7.8697    0.7504   -1.4903 C   0  0  0  0  0  0  0  0  0  0  0  0
    5.9073   -1.2434   -4.0152 N   0  0  0  0  0  0  0  0  0  0  0  0
    6.2504   -0.3790   -5.1593 C   0  0  0  0  0  0  0  0  0  0  0  0
    5.0475   -0.0560   -6.0443 C   0  0  0  0  0  0  0  0  0  0  0  0
    6.0835   -2.6358   -4.2377 C   0  0  0  0  0  0  0  0  0  0  0  0
    6.5810   -3.0596   -5.2653 O   0  0  0  0  0  0  0  0  0  0  0  0
    5.7048   -3.4308   -3.1996 N   0  0  0  0  0  0  0  0  0  0  0  0
    4.6975   -3.0288   -2.2198 C   0  0  2  0  0  0  0  0  0  0  0  0
    4.8508   -3.6643   -1.3387 H   0  0  0  0  0  0  0  0  0  0  0  0
    3.2730   -3.3137   -2.7181 C   0  0  0  0  0  0  0  0  0  0  0  0
    2.3348   -2.3178   -2.9899 C   0  0  0  0  0  0  0  0  0  0  0  0
    1.0479   -2.6277   -3.4487 C   0  0  0  0  0  0  0  0  0  0  0  0
    0.6904   -3.9607   -3.6371 C   0  0  0  0  0  0  0  0  0  0  0  0
    1.6090   -4.9840   -3.3721 C   0  0  0  0  0  0  0  0  0  0  0  0
    2.8932   -4.6623   -2.9172 C   0  0  0  0  0  0  0  0  0  0  0  0
    3.8559   -5.5930   -2.6421 O   0  0  0  0  0  0  0  0  0  0  0  0
    3.5524   -6.9668   -2.7632 C   0  0  0  0  0  0  0  0  0  0  0  0
    4.1587   -2.2308    3.5399 H   0  0  0  0  0  0  0  0  0  0  0  0
    5.4581   -1.7603    2.4148 H   0  0  0  0  0  0  0  0  0  0  0  0
    4.7880   -3.4191    2.3670 H   0  0  0  0  0  0  0  0  0  0  0  0
    3.2683   -0.8294    1.6386 H   0  0  0  0  0  0  0  0  0  0  0  0
    2.5579   -2.4743    1.6247 H   0  0  0  0  0  0  0  0  0  0  0  0
    5.0952    1.0303   -1.6666 H   0  0  0  0  0  0  0  0  0  0  0  0
    5.1313    1.2509   -3.4190 H   0  0  0  0  0  0  0  0  0  0  0  0
    6.4714    2.9892   -3.5789 H   0  0  0  0  0  0  0  0  0  0  0  0
    8.2066    2.8380   -3.2276 H   0  0  0  0  0  0  0  0  0  0  0  0
    6.0469    3.4070   -1.1167 H   0  0  0  0  0  0  0  0  0  0  0  0
    7.2713    4.5459   -1.7488 H   0  0  0  0  0  0  0  0  0  0  0  0
    9.8406    2.7690    1.1744 H   0  0  0  0  0  0  0  0  0  0  0  0
   10.8208    5.4833    1.8225 H   0  0  0  0  0  0  0  0  0  0  0  0
   10.8705    5.9023    0.0866 H   0  0  0  0  0  0  0  0  0  0  0  0
   12.3856    5.8170    1.0344 H   0  0  0  0  0  0  0  0  0  0  0  0
   11.6369    3.2060    2.6114 H   0  0  0  0  0  0  0  0  0  0  0  0
   13.2146    3.5285    1.8593 H   0  0  0  0  0  0  0  0  0  0  0  0
   12.3223    2.0446    1.4368 H   0  0  0  0  0  0  0  0  0  0  0  0
   11.8728    4.2160   -1.6026 H   0  0  0  0  0  0  0  0  0  0  0  0
   12.4632    2.6364   -1.0157 H   0  0  0  0  0  0  0  0  0  0  0  0
   13.3645    4.1258   -0.6197 H   0  0  0  0  0  0  0  0  0  0  0  0
    8.3747    1.5660    1.8877 H   0  0  0  0  0  0  0  0  0  0  0  0
    9.5098    0.7401    0.7682 H   0  0  0  0  0  0  0  0  0  0  0  0
    7.9553   -0.0072    1.1996 H   0  0  0  0  0  0  0  0  0  0  0  0
    7.6289   -0.3026   -1.2788 H   0  0  0  0  0  0  0  0  0  0  0  0
    8.9281    0.7874   -1.8103 H   0  0  0  0  0  0  0  0  0  0  0  0
    6.9933   -0.9353   -5.7429 H   0  0  0  0  0  0  0  0  0  0  0  0
    6.7433    0.5185   -4.7704 H   0  0  0  0  0  0  0  0  0  0  0  0
    4.6098   -0.9766   -6.4602 H   0  0  0  0  0  0  0  0  0  0  0  0
    5.3619    0.5799   -6.8876 H   0  0  0  0  0  0  0  0  0  0  0  0
    4.2567    0.4807   -5.4950 H   0  0  0  0  0  0  0  0  0  0  0  0
    5.7456   -4.4221   -3.4125 H   0  0  0  0  0  0  0  0  0  0  0  0
    2.6150   -1.2744   -2.8303 H   0  0  0  0  0  0  0  0  0  0  0  0
    0.3325   -1.8281   -3.6542 H   0  0  0  0  0  0  0  0  0  0  0  0
   -0.3099   -4.2194   -3.9938 H   0  0  0  0  0  0  0  0  0  0  0  0
    1.3150   -6.0224   -3.5255 H   0  0  0  0  0  0  0  0  0  0  0  0
    4.4580   -7.5143   -2.4694 H   0  0  0  0  0  0  0  0  0  0  0  0
    3.2904   -7.2383   -3.8011 H   0  0  0  0  0  0  0  0  0  0  0  0
    2.7228   -7.2608   -2.0964 H   0  0  0  0  0  0  0  0  0  0  0  0
  1  2  1  0
  1 40  1  0
  1 41  1  0
  1 42  1  0
  2  3  1  0
  2 43  1  0
  2 44  1  0
  3  4  1  0
  4  5  2  0
  4  6  1  0
  6  7  2  0
  6 30  1  0
  7  8  1  0
  7 24  1  0
  8  9  1  0
  8 45  1  0
  8 46  1  0
  9 10  1  0
  9 23  1  0
 10 11  1  0
 10 47  1  0
 10 48  1  0
 11 12  1  0
 11 49  1  0
 11 50  1  0
 12 13  1  0
 12 20  1  0
 13 14  2  0
 13 15  1  0
 16 15  1  6
 15 51  1  0
 16 17  1  0
 16 18  1  0
 16 19  1  0
 17 52  1  0
 17 53  1  0
 17 54  1  0
 18 55  1  0
 18 56  1  0
 18 57  1  0
 19 58  1  0
 19 59  1  0
 19 60  1  0
 20 21  1  1
 20 22  1  0
 20 23  1  0
 22 61  1  0
 22 62  1  0
 22 63  1  0
 23 64  1  0
 23 65  1  0
 24 25  1  0
 24 27  1  0
 25 26  1  0
 25 66  1  0
 25 67  1  0
 26 68  1  0
 26 69  1  0
 26 70  1  0
 27 28  2  0
 27 29  1  0
 29 30  1  0
 29 71  1  0
 30 31  1  1
 30 32  1  0
 32 33  2  0
 32 37  1  0
 33 34  1  0
 33 72  1  0
 34 35  2  0
 34 73  1  0
 35 36  1  0
 35 74  1  0
 36 37  2  0
 36 75  1  0
 37 38  1  0
 38 39  1  0
 39 76  1  0
 39 77  1  0
 39 78  1  0
M  END

