
     RDKit          3D

 38 40  0  0  0  0  0  0  0  0999 V2000
    0.7242    0.8615    0.8745 C   0  0  0  0  0  0  0  0  0  0  0  0
    2.1711    1.3157    0.7937 C   0  0  0  0  0  0  0  0  0  0  0  0
    2.4767    2.4887    0.6711 O   0  0  0  0  0  0  0  0  0  0  0  0
    3.0991    0.3010    0.8634 N   0  0  0  0  0  0  0  0  0  0  0  0
    4.4869    0.4152    0.8056 C   0  0  0  0  0  0  0  0  0  0  0  0
    5.2196    1.5599    0.6709 C   0  0  0  0  0  0  0  0  0  0  0  0
    6.6557    1.4871    0.6299 C   0  0  0  0  0  0  0  0  0  0  0  0
    7.5031    2.6111    0.4943 C   0  0  0  0  0  0  0  0  0  0  0  0
    8.8792    2.4734    0.4618 C   0  0  0  0  0  0  0  0  0  0  0  0
    9.4683    1.1925    0.5647 C   0  0  0  0  0  0  0  0  0  0  0  0
   10.8210    1.1582    0.5242 O   0  0  0  0  0  0  0  0  0  0  0  0
   11.4945   -0.0823    0.6110 C   0  0  0  0  0  0  0  0  0  0  0  0
   12.9884    0.1302    0.5176 C   0  0  0  0  0  0  0  0  0  0  0  0
   13.8543   -0.8901    0.9387 C   0  0  0  0  0  0  0  0  0  0  0  0
   15.2367   -0.7340    0.8224 C   0  0  0  0  0  0  0  0  0  0  0  0
   15.7772    0.4412    0.2933 C   0  0  0  0  0  0  0  0  0  0  0  0
   14.9081    1.4544   -0.1177 C   0  0  0  0  0  0  0  0  0  0  0  0
   15.5644    2.9365   -0.7773 Cl  0  0  0  0  0  0  0  0  0  0  0  0
   13.5217    1.3102   -0.0132 C   0  0  0  0  0  0  0  0  0  0  0  0
    8.6588    0.0594    0.7009 C   0  0  0  0  0  0  0  0  0  0  0  0
    7.2709    0.2262    0.7306 C   0  0  0  0  0  0  0  0  0  0  0  0
    6.5161   -0.9034    0.8644 O   0  0  0  0  0  0  0  0  0  0  0  0
    5.1509   -0.8973    0.9101 C   0  0  0  0  0  0  0  0  0  0  0  0
    4.5571   -1.9445    1.0312 O   0  0  0  0  0  0  0  0  0  0  0  0
    0.2181    1.1305   -0.0655 H   0  0  0  0  0  0  0  0  0  0  0  0
    0.2259    1.4205    1.6805 H   0  0  0  0  0  0  0  0  0  0  0  0
    0.6038   -0.2168    1.0516 H   0  0  0  0  0  0  0  0  0  0  0  0
    2.7858   -0.6613    0.9667 H   0  0  0  0  0  0  0  0  0  0  0  0
    4.7100    2.5193    0.5957 H   0  0  0  0  0  0  0  0  0  0  0  0
    7.0514    3.6029    0.4145 H   0  0  0  0  0  0  0  0  0  0  0  0
    9.5356    3.3389    0.3587 H   0  0  0  0  0  0  0  0  0  0  0  0
   11.1598   -0.7484   -0.2086 H   0  0  0  0  0  0  0  0  0  0  0  0
   11.2462   -0.5886    1.5625 H   0  0  0  0  0  0  0  0  0  0  0  0
   13.4461   -1.8118    1.3629 H   0  0  0  0  0  0  0  0  0  0  0  0
   15.9053   -1.5326    1.1532 H   0  0  0  0  0  0  0  0  0  0  0  0
   16.8559    0.5769    0.2024 H   0  0  0  0  0  0  0  0  0  0  0  0
   12.8612    2.1141   -0.3355 H   0  0  0  0  0  0  0  0  0  0  0  0
    9.0569   -0.9500    0.7862 H   0  0  0  0  0  0  0  0  0  0  0  0
  1  2  1  0
  1 25  1  0
  1 26  1  0
  1 27  1  0
  2  3  2  0
  2  4  1  0
  4  5  1  0
  4 28  1  0
  5  6  2  0
  5 23  1  0
  6  7  1  0
  6 29  1  0
  7  8  2  0
  7 21  1  0
  8  9  1  0
  8 30  1  0
  9 10  2  0
  9 31  1  0
 10 11  1  0
 10 20  1  0
 11 12  1  0
 12 13  1  0
 12 32  1  0
 12 33  1  0
 13 14  2  0
 13 19  1  0
 14 15  1  0
 14 34  1  0
 15 16  2  0
 15 35  1  0
 16 17  1  0
 16 36  1  0
 17 18  1  0
 17 19  2  0
 19 37  1  0
 20 21  2  0
 20 38  1  0
 21 22  1  0
 22 23  1  0
 23 24  2  0
M  END

