
     RDKit          3D

 35 36  0  0  0  0  0  0  0  0999 V2000
    3.2944   -1.0783    0.8161 C   0  0  0  0  0  0  0  0  0  0  0  0
    2.5748   -0.0054   -0.0145 C   0  0  1  0  0  0  0  0  0  0  0  0
    3.0706    0.0227   -1.4889 C   0  0  0  0  0  0  0  0  0  0  0  0
    4.5866    0.1849   -1.7089 C   0  0  0  0  0  0  0  0  0  0  0  0
    4.9424    0.2958   -3.1759 C   0  0  0  0  0  0  0  0  0  0  0  0
    4.9873    1.5462   -3.8167 C   0  0  0  0  0  0  0  0  0  0  0  0
    5.2871    1.6568   -5.1732 C   0  0  0  0  0  0  0  0  0  0  0  0
    5.5413    0.5036   -5.9227 C   0  0  0  0  0  0  0  0  0  0  0  0
    5.8126    0.6900   -7.2646 O   0  0  0  0  0  0  0  0  0  0  0  0
    6.6380   -0.1858   -7.9084 C   0  0  1  0  0  0  0  0  0  0  0  0
    5.9639   -1.3068   -8.2793 F   0  0  0  0  0  0  0  0  0  0  0  0
    7.0609    0.4157   -9.0261 F   0  0  0  0  0  0  0  0  0  0  0  0
    5.4901   -0.7561   -5.3165 C   0  0  0  0  0  0  0  0  0  0  0  0
    5.2001   -0.8435   -3.9508 C   0  0  0  0  0  0  0  0  0  0  0  0
    1.0313   -0.1500    0.0189 C   0  0  0  0  0  0  0  0  0  0  0  0
    0.4776    1.2022    0.4521 C   0  0  0  0  0  0  0  0  0  0  0  0
   -0.6733    1.5519    0.5171 O   0  0  0  0  0  0  0  0  0  0  0  0
    1.5753    1.9891    0.7937 N   0  0  0  0  0  0  0  0  0  0  0  0
    2.8113    1.3827    0.6190 C   0  0  0  0  0  0  0  0  0  0  0  0
    3.8721    1.8849    0.9070 O   0  0  0  0  0  0  0  0  0  0  0  0
    3.1916   -2.0677    0.3418 H   0  0  0  0  0  0  0  0  0  0  0  0
    2.8700   -1.1421    1.8306 H   0  0  0  0  0  0  0  0  0  0  0  0
    4.3638   -0.8473    0.9191 H   0  0  0  0  0  0  0  0  0  0  0  0
    2.5431    0.8346   -2.0202 H   0  0  0  0  0  0  0  0  0  0  0  0
    2.7355   -0.9144   -1.9674 H   0  0  0  0  0  0  0  0  0  0  0  0
    5.1155   -0.6775   -1.2733 H   0  0  0  0  0  0  0  0  0  0  0  0
    4.9413    1.0747   -1.1679 H   0  0  0  0  0  0  0  0  0  0  0  0
    4.7971    2.4547   -3.2379 H   0  0  0  0  0  0  0  0  0  0  0  0
    5.3355    2.6281   -5.6692 H   0  0  0  0  0  0  0  0  0  0  0  0
    7.5014   -0.4930   -7.2893 H   0  0  0  0  0  0  0  0  0  0  0  0
    5.6505   -1.6617   -5.9025 H   0  0  0  0  0  0  0  0  0  0  0  0
    5.1701   -1.8319   -3.4827 H   0  0  0  0  0  0  0  0  0  0  0  0
    0.6943   -0.9011    0.7518 H   0  0  0  0  0  0  0  0  0  0  0  0
    0.5870   -0.4306   -0.9478 H   0  0  0  0  0  0  0  0  0  0  0  0
    1.4778    2.9338    1.1577 H   0  0  0  0  0  0  0  0  0  0  0  0
  2  1  1  1
  1 21  1  0
  1 22  1  0
  1 23  1  0
  2  3  1  0
  2 15  1  0
  2 19  1  0
  3  4  1  0
  3 24  1  0
  3 25  1  0
  4  5  1  0
  4 26  1  0
  4 27  1  0
  5  6  2  0
  5 14  1  0
  6  7  1  0
  6 28  1  0
  7  8  2  0
  7 29  1  0
  8  9  1  0
  8 13  1  0
  9 10  1  0
 10 11  1  0
 10 12  1  0
 10 30  1  1
 13 14  2  0
 13 31  1  0
 14 32  1  0
 15 16  1  0
 15 33  1  0
 15 34  1  0
 16 17  2  0
 16 18  1  0
 18 19  1  0
 18 35  1  0
 19 20  2  0
M  END

