
     RDKit          3D

 40 43  0  0  0  0  0  0  0  0999 V2000
    2.0410    1.6850    0.1291 C   0  0  0  0  0  0  0  0  0  0  0  0
    3.3209    0.9083   -0.0306 C   0  0  0  0  0  0  0  0  0  0  0  0
    3.6321    0.2289   -1.2182 C   0  0  0  0  0  0  0  0  0  0  0  0
    4.8090   -0.4992   -1.3971 C   0  0  0  0  0  0  0  0  0  0  0  0
    5.7428   -0.5685   -0.3491 C   0  0  0  0  0  0  0  0  0  0  0  0
    6.9552   -1.2755   -0.4263 N   0  0  0  0  0  0  0  0  0  0  0  0
    7.4709   -1.9930   -1.4770 C   0  0  0  0  0  0  0  0  0  0  0  0
    6.9108   -2.1257   -2.5542 O   0  0  0  0  0  0  0  0  0  0  0  0
    8.8221   -2.6409   -1.2021 C   0  0  1  0  0  0  0  0  0  0  0  0
    9.4989   -2.3879    0.1035 C   0  0  0  0  0  0  0  0  0  0  0  0
    9.5708   -3.2433    1.1828 C   0  0  0  0  0  0  0  0  0  0  0  0
   10.2756   -2.6512    2.2116 N   0  0  0  0  0  0  0  0  0  0  0  0
   10.4768   -3.0826    3.1036 H   0  0  0  0  0  0  0  0  0  0  0  0
   10.6783   -1.3924    1.8268 C   0  0  0  0  0  0  0  0  0  0  0  0
   11.4143   -0.4226    2.5241 C   0  0  0  0  0  0  0  0  0  0  0  0
   11.6618    0.7636    1.8491 C   0  0  0  0  0  0  0  0  0  0  0  0
   12.3623    1.7254    2.4726 F   0  0  0  0  0  0  0  0  0  0  0  0
   11.2127    1.0111    0.5385 C   0  0  0  0  0  0  0  0  0  0  0  0
   10.4847    0.0401   -0.1395 C   0  0  0  0  0  0  0  0  0  0  0  0
   10.2051   -1.1842    0.4990 C   0  0  0  0  0  0  0  0  0  0  0  0
    8.9918   -3.9983   -1.8778 C   0  0  0  0  0  0  0  0  0  0  0  0
    9.6830   -2.8087   -2.4521 C   0  0  0  0  0  0  0  0  0  0  0  0
    5.4621    0.1031    0.8536 C   0  0  0  0  0  0  0  0  0  0  0  0
    4.2761    0.8196    0.9971 C   0  0  0  0  0  0  0  0  0  0  0  0
    3.9862    1.6344    2.5260 Cl  0  0  0  0  0  0  0  0  0  0  0  0
    1.4300    1.6252   -0.7829 H   0  0  0  0  0  0  0  0  0  0  0  0
    2.2399    2.7482    0.3427 H   0  0  0  0  0  0  0  0  0  0  0  0
    1.4419    1.3042    0.9726 H   0  0  0  0  0  0  0  0  0  0  0  0
    2.9162    0.2724   -2.0440 H   0  0  0  0  0  0  0  0  0  0  0  0
    5.0167   -1.0129   -2.3321 H   0  0  0  0  0  0  0  0  0  0  0  0
    7.5314   -1.2566    0.4089 H   0  0  0  0  0  0  0  0  0  0  0  0
    9.1693   -4.2493    1.2910 H   0  0  0  0  0  0  0  0  0  0  0  0
   11.7839   -0.5664    3.5406 H   0  0  0  0  0  0  0  0  0  0  0  0
   11.4504    1.9725    0.0796 H   0  0  0  0  0  0  0  0  0  0  0  0
   10.1336    0.2280   -1.1566 H   0  0  0  0  0  0  0  0  0  0  0  0
    8.1186   -4.3783   -2.4126 H   0  0  0  0  0  0  0  0  0  0  0  0
    9.5878   -4.7450   -1.3476 H   0  0  0  0  0  0  0  0  0  0  0  0
    9.2760   -2.3870   -3.3739 H   0  0  0  0  0  0  0  0  0  0  0  0
   10.7630   -2.7139   -2.3142 H   0  0  0  0  0  0  0  0  0  0  0  0
    6.1693    0.0726    1.6854 H   0  0  0  0  0  0  0  0  0  0  0  0
  1  2  1  0
  1 26  1  0
  1 27  1  0
  1 28  1  0
  2  3  2  0
  2 24  1  0
  3  4  1  0
  3 29  1  0
  4  5  2  0
  4 30  1  0
  5  6  1  0
  5 23  1  0
  6  7  1  0
  6 31  1  0
  7  8  2  0
  9  7  1  6
  9 10  1  0
  9 21  1  0
  9 22  1  0
 10 11  2  0
 10 20  1  0
 11 12  1  0
 11 32  1  0
 12 13  1  0
 12 14  1  0
 14 15  1  0
 14 20  2  0
 15 16  2  0
 15 33  1  0
 16 17  1  0
 16 18  1  0
 18 19  2  0
 18 34  1  0
 19 20  1  0
 19 35  1  0
 21 22  1  0
 21 36  1  0
 21 37  1  0
 22 38  1  0
 22 39  1  0
 23 24  2  0
 23 40  1  0
 24 25  1  0
M  END

