
     RDKit          3D

 70 74  0  0  0  0  0  0  0  0999 V2000
    3.6311   -5.0547    2.9228 C   0  0  0  0  0  0  0  0  0  0  0  0
    2.7186   -4.2799    1.9716 C   0  0  0  0  0  0  0  0  0  0  0  0
    3.2864   -3.9726    0.5744 C   0  0  1  0  0  0  0  0  0  0  0  0
    2.2000   -3.3032   -0.2774 C   0  0  0  0  0  0  0  0  0  0  0  0
    1.2613   -2.6993    0.1648 O   0  0  0  0  0  0  0  0  0  0  0  0
    2.3719   -3.3932   -1.6208 O   0  0  0  0  0  0  0  0  0  0  0  0
    4.5709   -3.0909    0.4999 C   0  0  1  0  0  0  0  0  0  0  0  0
    4.5491   -1.7864    1.3378 C   0  0  0  0  0  0  0  0  0  0  0  0
    6.0346   -1.4354    1.5772 C   0  0  0  0  0  0  0  0  0  0  0  0
    6.7225   -2.7809    1.5130 C   0  0  0  0  0  0  0  0  0  0  0  0
    8.0148   -3.1208    1.9173 C   0  0  0  0  0  0  0  0  0  0  0  0
    8.4864   -4.4272    1.7083 C   0  0  0  0  0  0  0  0  0  0  0  0
    9.7220   -4.8358    2.1007 O   0  0  0  0  0  0  0  0  0  0  0  0
   10.5642   -3.9608    2.8301 C   0  0  0  0  0  0  0  0  0  0  0  0
   11.8419   -4.7231    3.1721 C   0  0  0  0  0  0  0  0  0  0  0  0
   12.8228   -3.8709    3.9159 C   0  0  0  0  0  0  0  0  0  0  0  0
   13.3026   -2.6875    3.3773 N   0  0  0  0  0  0  0  0  0  0  0  0
   14.1201   -2.2045    4.2672 C   0  0  0  0  0  0  0  0  0  0  0  0
   14.9026   -0.9707    4.2066 C   0  0  0  0  0  0  0  0  0  0  0  0
   14.8149   -0.1550    3.0631 C   0  0  0  0  0  0  0  0  0  0  0  0
   15.5524    1.0254    2.9869 C   0  0  0  0  0  0  0  0  0  0  0  0
   16.3848    1.4074    4.0459 C   0  0  0  0  0  0  0  0  0  0  0  0
   16.4755    0.5998    5.1841 C   0  0  0  0  0  0  0  0  0  0  0  0
   15.7402   -0.5835    5.2680 C   0  0  0  0  0  0  0  0  0  0  0  0
   14.2205   -2.9884    5.3727 O   0  0  0  0  0  0  0  0  0  0  0  0
   13.3877   -4.0537    5.1510 C   0  0  0  0  0  0  0  0  0  0  0  0
   13.2979   -5.0908    6.2105 C   0  0  0  0  0  0  0  0  0  0  0  0
    7.6634   -5.4022    1.0786 C   0  0  0  0  0  0  0  0  0  0  0  0
    8.1223   -6.8009    0.8512 C   0  0  0  0  0  0  0  0  0  0  0  0
    7.2782   -7.8831    1.1540 C   0  0  0  0  0  0  0  0  0  0  0  0
    7.6689   -9.2016    0.9048 C   0  0  0  0  0  0  0  0  0  0  0  0
    8.9180   -9.4948    0.3420 C   0  0  0  0  0  0  0  0  0  0  0  0
    9.3521  -10.9148    0.0713 C   0  0  0  0  0  0  0  0  0  0  0  0
    9.7632   -8.4131    0.0392 C   0  0  0  0  0  0  0  0  0  0  0  0
    9.3798   -7.0973    0.2898 C   0  0  0  0  0  0  0  0  0  0  0  0
    6.3687   -5.0216    0.6872 C   0  0  0  0  0  0  0  0  0  0  0  0
    5.8910   -3.7300    0.9095 C   0  0  0  0  0  0  0  0  0  0  0  0
    3.0913   -5.2919    3.8536 H   0  0  0  0  0  0  0  0  0  0  0  0
    4.5344   -4.4900    3.1962 H   0  0  0  0  0  0  0  0  0  0  0  0
    3.9651   -6.0086    2.4825 H   0  0  0  0  0  0  0  0  0  0  0  0
    2.3925   -3.3359    2.4346 H   0  0  0  0  0  0  0  0  0  0  0  0
    1.7874   -4.8512    1.8219 H   0  0  0  0  0  0  0  0  0  0  0  0
    3.5326   -4.9328    0.0810 H   0  0  0  0  0  0  0  0  0  0  0  0
    3.1486   -3.9321   -1.8272 H   0  0  0  0  0  0  0  0  0  0  0  0
    4.6819   -2.8002   -0.5642 H   0  0  0  0  0  0  0  0  0  0  0  0
    4.0655   -1.9818    2.3073 H   0  0  0  0  0  0  0  0  0  0  0  0
    3.9825   -0.9788    0.8517 H   0  0  0  0  0  0  0  0  0  0  0  0
    6.2037   -0.9015    2.5262 H   0  0  0  0  0  0  0  0  0  0  0  0
    6.4200   -0.7794    0.7741 H   0  0  0  0  0  0  0  0  0  0  0  0
    8.6488   -2.3719    2.3924 H   0  0  0  0  0  0  0  0  0  0  0  0
   10.0580   -3.6217    3.7533 H   0  0  0  0  0  0  0  0  0  0  0  0
   10.8141   -3.0642    2.2362 H   0  0  0  0  0  0  0  0  0  0  0  0
   12.2951   -5.0751    2.2297 H   0  0  0  0  0  0  0  0  0  0  0  0
   11.5842   -5.6185    3.7574 H   0  0  0  0  0  0  0  0  0  0  0  0
   14.1628   -0.4663    2.2451 H   0  0  0  0  0  0  0  0  0  0  0  0
   15.4790    1.6532    2.0952 H   0  0  0  0  0  0  0  0  0  0  0  0
   16.9619    2.3334    3.9833 H   0  0  0  0  0  0  0  0  0  0  0  0
   17.1241    0.8936    6.0134 H   0  0  0  0  0  0  0  0  0  0  0  0
   15.8099   -1.2148    6.1556 H   0  0  0  0  0  0  0  0  0  0  0  0
   12.9552   -4.6602    7.1664 H   0  0  0  0  0  0  0  0  0  0  0  0
   14.2775   -5.5635    6.3950 H   0  0  0  0  0  0  0  0  0  0  0  0
   12.5898   -5.8766    5.9146 H   0  0  0  0  0  0  0  0  0  0  0  0
    6.3041   -7.6919    1.6113 H   0  0  0  0  0  0  0  0  0  0  0  0
    6.9882  -10.0190    1.1606 H   0  0  0  0  0  0  0  0  0  0  0  0
    8.5648  -11.6365    0.3352 H   0  0  0  0  0  0  0  0  0  0  0  0
   10.2544  -11.1764    0.6497 H   0  0  0  0  0  0  0  0  0  0  0  0
    9.6014  -11.0627   -0.9930 H   0  0  0  0  0  0  0  0  0  0  0  0
   10.7437   -8.6069   -0.4069 H   0  0  0  0  0  0  0  0  0  0  0  0
   10.0595   -6.2822    0.0389 H   0  0  0  0  0  0  0  0  0  0  0  0
    5.7435   -5.7684    0.1907 H   0  0  0  0  0  0  0  0  0  0  0  0
  1  2  1  0
  1 38  1  0
  1 39  1  0
  1 40  1  0
  2  3  1  0
  2 41  1  0
  2 42  1  0
  3  4  1  0
  3  7  1  0
  3 43  1  6
  4  5  2  0
  4  6  1  0
  6 44  1  0
  7  8  1  0
  7 37  1  0
  7 45  1  6
  8  9  1  0
  8 46  1  0
  8 47  1  0
  9 10  1  0
  9 48  1  0
  9 49  1  0
 10 11  2  0
 10 37  1  0
 11 12  1  0
 11 50  1  0
 12 13  1  0
 12 28  2  0
 13 14  1  0
 14 15  1  0
 14 51  1  0
 14 52  1  0
 15 16  1  0
 15 53  1  0
 15 54  1  0
 16 17  1  0
 16 26  2  0
 17 18  2  0
 18 19  1  0
 18 25  1  0
 19 20  2  0
 19 24  1  0
 20 21  1  0
 20 55  1  0
 21 22  2  0
 21 56  1  0
 22 23  1  0
 22 57  1  0
 23 24  2  0
 23 58  1  0
 24 59  1  0
 25 26  1  0
 26 27  1  0
 27 60  1  0
 27 61  1  0
 27 62  1  0
 28 29  1  0
 28 36  1  0
 29 30  2  0
 29 35  1  0
 30 31  1  0
 30 63  1  0
 31 32  2  0
 31 64  1  0
 32 33  1  0
 32 34  1  0
 33 65  1  0
 33 66  1  0
 33 67  1  0
 34 35  2  0
 34 68  1  0
 35 69  1  0
 36 37  2  0
 36 70  1  0
M  END

