
     RDKit          3D

 31 32  0  0  0  0  0  0  0  0999 V2000
    3.1187   -0.1844   -1.2935 O   0  0  0  0  0  0  0  0  0  0  0  0
    2.8113   -0.2691   -0.1140 C   0  0  0  0  0  0  0  0  0  0  0  0
    3.4592    0.6495    0.9308 C   0  0  0  0  0  0  0  0  0  0  0  0
    2.4752    1.3502    1.7222 N   0  0  0  0  0  0  0  0  0  0  0  0
    2.7709    2.1024    2.8351 C   0  0  0  0  0  0  0  0  0  0  0  0
    4.0695    2.1943    3.3802 C   0  0  0  0  0  0  0  0  0  0  0  0
    4.3293    2.9351    4.5342 C   0  0  0  0  0  0  0  0  0  0  0  0
    3.2950    3.6208    5.1714 C   0  0  0  0  0  0  0  0  0  0  0  0
    3.6432    4.6414    6.7450 Br  0  0  0  0  0  0  0  0  0  0  0  0
    1.9962    3.5662    4.6569 C   0  0  0  0  0  0  0  0  0  0  0  0
    1.7486    2.8165    3.5115 C   0  0  0  0  0  0  0  0  0  0  0  0
    0.1093    2.7399    2.8800 Cl  0  0  0  0  0  0  0  0  0  0  0  0
    1.8925   -1.1742    0.3295 N   0  0  0  0  0  0  0  0  0  0  0  0
    1.2553   -2.0810   -0.6366 C   0  0  0  0  0  0  0  0  0  0  0  0
    0.2519   -2.8681    0.2140 C   0  0  0  0  0  0  0  0  0  0  0  0
    0.9171   -2.9035    1.5973 C   0  0  0  0  0  0  0  0  0  0  0  0
    1.5379   -1.5054    1.7183 C   0  0  0  0  0  0  0  0  0  0  0  0
    4.1290    1.3215    0.3648 H   0  0  0  0  0  0  0  0  0  0  0  0
    4.0954    0.0347    1.5942 H   0  0  0  0  0  0  0  0  0  0  0  0
    1.5935    1.5700    1.2727 H   0  0  0  0  0  0  0  0  0  0  0  0
    4.8975    1.6838    2.8872 H   0  0  0  0  0  0  0  0  0  0  0  0
    5.3454    2.9839    4.9291 H   0  0  0  0  0  0  0  0  0  0  0  0
    1.1762    4.0971    5.1407 H   0  0  0  0  0  0  0  0  0  0  0  0
    2.0161   -2.7365   -1.0972 H   0  0  0  0  0  0  0  0  0  0  0  0
    0.7942   -1.5102   -1.4568 H   0  0  0  0  0  0  0  0  0  0  0  0
    0.0443   -3.8670   -0.1968 H   0  0  0  0  0  0  0  0  0  0  0  0
   -0.7072   -2.3261    0.2702 H   0  0  0  0  0  0  0  0  0  0  0  0
    1.7092   -3.6710    1.6173 H   0  0  0  0  0  0  0  0  0  0  0  0
    0.2179   -3.1233    2.4177 H   0  0  0  0  0  0  0  0  0  0  0  0
    2.4202   -1.4874    2.3761 H   0  0  0  0  0  0  0  0  0  0  0  0
    0.8147   -0.7794    2.1283 H   0  0  0  0  0  0  0  0  0  0  0  0
  1  2  2  0
  2  3  1  0
  2 13  1  0
  3  4  1  0
  3 18  1  0
  3 19  1  0
  4  5  1  0
  4 20  1  0
  5  6  2  0
  5 11  1  0
  6  7  1  0
  6 21  1  0
  7  8  2  0
  7 22  1  0
  8  9  1  0
  8 10  1  0
 10 11  2  0
 10 23  1  0
 11 12  1  0
 13 14  1  0
 13 17  1  0
 14 15  1  0
 14 24  1  0
 14 25  1  0
 15 16  1  0
 15 26  1  0
 15 27  1  0
 16 17  1  0
 16 28  1  0
 16 29  1  0
 17 30  1  0
 17 31  1  0
M  END

