
     RDKit          3D

 35 37  0  0  0  0  0  0  0  0999 V2000
    6.5775    3.3865   -2.0986 C   0  0  0  0  0  0  0  0  0  0  0  0
    6.0708    2.1795   -1.5725 O   0  0  0  0  0  0  0  0  0  0  0  0
    5.1334    2.2093   -0.6064 C   0  0  0  0  0  0  0  0  0  0  0  0
    4.5605    3.3863   -0.0980 C   0  0  0  0  0  0  0  0  0  0  0  0
    3.5522    3.3311    0.8690 C   0  0  0  0  0  0  0  0  0  0  0  0
    3.0935    2.1035    1.3476 C   0  0  0  0  0  0  0  0  0  0  0  0
    3.6648    0.9250    0.8642 C   0  0  0  0  0  0  0  0  0  0  0  0
    4.6821    0.9682   -0.0915 C   0  0  0  0  0  0  0  0  0  0  0  0
    5.2324   -0.2596   -0.5577 N   0  0  0  0  0  0  0  0  0  0  0  0
    6.5139   -0.4465   -0.7545 N   0  0  0  0  0  0  0  0  0  0  0  0
    6.6165   -1.7355   -1.1126 C   0  0  0  0  0  0  0  0  0  0  0  0
    7.8743   -2.3288   -1.4116 C   0  0  0  0  0  0  0  0  0  0  0  0
    8.8921   -2.8336   -1.6572 N   0  0  0  0  0  0  0  0  0  0  0  0
    5.2959   -2.3079   -1.1004 C   0  0  0  0  0  0  0  0  0  0  0  0
    4.8755   -3.5645   -1.3838 N   0  0  0  0  0  0  0  0  0  0  0  0
    3.4683   -3.9484   -1.2674 C   0  0  0  0  0  0  0  0  0  0  0  0
    3.5098   -5.4743   -1.4176 C   0  0  0  0  0  0  0  0  0  0  0  0
    4.7250   -5.7080   -2.3278 C   0  0  0  0  0  0  0  0  0  0  0  0
    5.7338   -4.6526   -1.8531 C   0  0  0  0  0  0  0  0  0  0  0  0
    4.4474   -1.3393   -0.7417 N   0  0  0  0  0  0  0  0  0  0  0  0
    7.3308    3.1039   -2.8454 H   0  0  0  0  0  0  0  0  0  0  0  0
    7.0595    4.0014   -1.3182 H   0  0  0  0  0  0  0  0  0  0  0  0
    5.7889    3.9839   -2.5906 H   0  0  0  0  0  0  0  0  0  0  0  0
    4.8920    4.3552   -0.4702 H   0  0  0  0  0  0  0  0  0  0  0  0
    3.1219    4.2633    1.2431 H   0  0  0  0  0  0  0  0  0  0  0  0
    2.3016    2.0583    2.0978 H   0  0  0  0  0  0  0  0  0  0  0  0
    3.3312   -0.0516    1.2160 H   0  0  0  0  0  0  0  0  0  0  0  0
    2.8636   -3.4693   -2.0612 H   0  0  0  0  0  0  0  0  0  0  0  0
    3.0495   -3.6148   -0.3042 H   0  0  0  0  0  0  0  0  0  0  0  0
    2.5743   -5.8828   -1.8274 H   0  0  0  0  0  0  0  0  0  0  0  0
    3.6767   -5.9452   -0.4344 H   0  0  0  0  0  0  0  0  0  0  0  0
    4.4521   -5.5188   -3.3794 H   0  0  0  0  0  0  0  0  0  0  0  0
    5.1280   -6.7295   -2.2671 H   0  0  0  0  0  0  0  0  0  0  0  0
    6.4064   -4.3190   -2.6589 H   0  0  0  0  0  0  0  0  0  0  0  0
    6.3725   -5.0409   -1.0370 H   0  0  0  0  0  0  0  0  0  0  0  0
  1  2  1  0
  1 21  1  0
  1 22  1  0
  1 23  1  0
  2  3  1  0
  3  4  2  0
  3  8  1  0
  4  5  1  0
  4 24  1  0
  5  6  2  0
  5 25  1  0
  6  7  1  0
  6 26  1  0
  7  8  2  0
  7 27  1  0
  8  9  1  0
  9 10  1  0
  9 20  1  0
 10 11  2  0
 11 12  1  0
 11 14  1  0
 12 13  3  0
 14 15  1  0
 14 20  2  0
 15 16  1  0
 15 19  1  0
 16 17  1  0
 16 28  1  0
 16 29  1  0
 17 18  1  0
 17 30  1  0
 17 31  1  0
 18 19  1  0
 18 32  1  0
 18 33  1  0
 19 34  1  0
 19 35  1  0
M  END

