
     RDKit          3D

 39 39  0  0  0  0  0  0  0  0999 V2000
   11.3396    4.7965    4.1335 C   0  0  0  0  0  0  0  0  0  0  0  0
   10.1491    4.2337    4.6404 O   0  0  0  0  0  0  0  0  0  0  0  0
    8.9799    4.4465    3.9947 C   0  0  0  0  0  0  0  0  0  0  0  0
    8.8567    5.2095    2.8157 C   0  0  0  0  0  0  0  0  0  0  0  0
    7.5945    5.3823    2.2545 C   0  0  0  0  0  0  0  0  0  0  0  0
    6.4333    4.8210    2.8142 C   0  0  0  0  0  0  0  0  0  0  0  0
    5.0649    4.9551    2.2442 C   0  0  0  0  0  0  0  0  0  0  0  0
    4.2715    3.9934    2.3792 O   0  0  0  0  0  0  0  0  0  0  0  0
    4.6386    6.0781    1.5944 N   0  0  0  0  0  0  0  0  0  0  0  0
    3.2981    6.0088    0.9802 C   0  0  0  0  0  0  0  0  0  0  0  0
    3.2677    5.2997   -0.3546 C   0  0  0  0  0  0  0  0  0  0  0  0
    3.3448    3.9428   -0.3652 N   0  0  0  0  0  0  0  0  0  0  0  0
    3.1463    6.0517   -1.3992 N   0  0  0  0  0  0  0  0  0  0  0  0
    3.1428    5.2533   -2.5654 O   0  0  0  0  0  0  0  0  0  0  0  0
    5.2850    7.4096    1.6631 C   0  0  1  0  0  0  0  0  0  0  0  0
    5.6974    7.9129    0.2757 C   0  0  0  0  0  0  0  0  0  0  0  0
    4.4128    8.4281    2.4144 C   0  0  0  0  0  0  0  0  0  0  0  0
    6.5934    3.9687    3.9538 C   0  0  0  0  0  0  0  0  0  0  0  0
    5.5704    3.2908    4.4814 O   0  0  0  0  0  0  0  0  0  0  0  0
    7.8526    3.8303    4.5473 C   0  0  0  0  0  0  0  0  0  0  0  0
   12.1425    4.4965    4.8200 H   0  0  0  0  0  0  0  0  0  0  0  0
   11.2913    5.8995    4.1001 H   0  0  0  0  0  0  0  0  0  0  0  0
   11.5751    4.4191    3.1224 H   0  0  0  0  0  0  0  0  0  0  0  0
    9.7244    5.6564    2.3328 H   0  0  0  0  0  0  0  0  0  0  0  0
    7.5216    5.9506    1.3267 H   0  0  0  0  0  0  0  0  0  0  0  0
    2.9380    7.0265    0.8084 H   0  0  0  0  0  0  0  0  0  0  0  0
    2.6158    5.5036    1.6794 H   0  0  0  0  0  0  0  0  0  0  0  0
    3.5827    3.4654    0.4970 H   0  0  0  0  0  0  0  0  0  0  0  0
    3.4491    3.4847   -1.2611 H   0  0  0  0  0  0  0  0  0  0  0  0
    3.0284    5.9050   -3.2665 H   0  0  0  0  0  0  0  0  0  0  0  0
    6.1850    7.2740    2.2716 H   0  0  0  0  0  0  0  0  0  0  0  0
    4.8306    8.0032   -0.3964 H   0  0  0  0  0  0  0  0  0  0  0  0
    6.4061    7.2206   -0.2052 H   0  0  0  0  0  0  0  0  0  0  0  0
    6.1810    8.8992    0.3584 H   0  0  0  0  0  0  0  0  0  0  0  0
    3.5166    8.7236    1.8475 H   0  0  0  0  0  0  0  0  0  0  0  0
    4.9975    9.3435    2.5957 H   0  0  0  0  0  0  0  0  0  0  0  0
    4.0923    8.0310    3.3898 H   0  0  0  0  0  0  0  0  0  0  0  0
    4.8365    3.3405    3.8171 H   0  0  0  0  0  0  0  0  0  0  0  0
    7.9584    3.1990    5.4301 H   0  0  0  0  0  0  0  0  0  0  0  0
  1  2  1  0
  1 21  1  0
  1 22  1  0
  1 23  1  0
  2  3  1  0
  3  4  2  0
  3 20  1  0
  4  5  1  0
  4 24  1  0
  5  6  2  0
  5 25  1  0
  6  7  1  0
  6 18  1  0
  7  8  2  0
  7  9  1  0
  9 10  1  0
  9 15  1  0
 10 11  1  0
 10 26  1  0
 10 27  1  0
 11 12  1  0
 11 13  2  0
 12 28  1  0
 12 29  1  0
 13 14  1  0
 14 30  1  0
 15 16  1  0
 15 17  1  0
 15 31  1  1
 16 32  1  0
 16 33  1  0
 16 34  1  0
 17 35  1  0
 17 36  1  0
 17 37  1  0
 18 19  1  0
 18 20  2  0
 19 38  1  0
 20 39  1  0
M  END

