
     RDKit          3D

 46 47  0  0  0  0  0  0  0  0999 V2000
    2.6512    0.1227   -1.5485 C   0  0  0  0  0  0  0  0  0  0  0  0
    2.8188   -0.5535   -0.3242 O   0  0  0  0  0  0  0  0  0  0  0  0
    2.9525    0.1689    0.8153 C   0  0  0  0  0  0  0  0  0  0  0  0
    2.9175    1.5621    0.8890 C   0  0  0  0  0  0  0  0  0  0  0  0
    3.0643    2.2364    2.1170 C   0  0  0  0  0  0  0  0  0  0  0  0
    3.0744    3.7544    2.1407 C   0  0  0  0  0  0  0  0  0  0  0  0
    2.4578    4.3229    3.3197 N   0  0  0  0  0  0  0  0  0  0  0  0
    3.0724    5.2752    4.1007 C   0  0  0  0  0  0  0  0  0  0  0  0
    4.1924    5.6956    3.8332 O   0  0  0  0  0  0  0  0  0  0  0  0
    2.2411    5.7047    5.2612 C   0  0  0  0  0  0  0  0  0  0  0  0
    2.5530    6.6296    6.1960 C   0  0  0  0  0  0  0  0  0  0  0  0
    3.8359    7.4142    6.2379 C   0  0  0  0  0  0  0  0  0  0  0  0
    1.5792    6.9381    7.3043 C   0  0  0  0  0  0  0  0  0  0  0  0
    3.2371    1.4831    3.2768 C   0  0  0  0  0  0  0  0  0  0  0  0
    3.2689    0.0810    3.2226 C   0  0  0  0  0  0  0  0  0  0  0  0
    3.1312   -0.5869    2.0061 C   0  0  0  0  0  0  0  0  0  0  0  0
    3.1460   -1.9347    1.8457 O   0  0  0  0  0  0  0  0  0  0  0  0
    3.3247   -2.7714    2.9607 C   0  0  0  0  0  0  0  0  0  0  0  0
    3.3080   -4.2146    2.5149 C   0  0  0  0  0  0  0  0  0  0  0  0
    3.4645   -5.2447    3.4523 C   0  0  0  0  0  0  0  0  0  0  0  0
    3.4452   -6.5692    3.0106 C   0  0  0  0  0  0  0  0  0  0  0  0
    3.2842   -6.9196    1.7312 N   0  0  0  0  0  0  0  0  0  0  0  0
    3.1357   -5.9352    0.8424 C   0  0  0  0  0  0  0  0  0  0  0  0
    3.1395   -4.5759    1.1747 C   0  0  0  0  0  0  0  0  0  0  0  0
    2.5760   -0.6502   -2.3251 H   0  0  0  0  0  0  0  0  0  0  0  0
    3.5109    0.7782   -1.7781 H   0  0  0  0  0  0  0  0  0  0  0  0
    1.7287    0.7317   -1.5604 H   0  0  0  0  0  0  0  0  0  0  0  0
    2.7733    2.1488   -0.0195 H   0  0  0  0  0  0  0  0  0  0  0  0
    2.5891    4.1350    1.2225 H   0  0  0  0  0  0  0  0  0  0  0  0
    4.1065    4.1412    2.1314 H   0  0  0  0  0  0  0  0  0  0  0  0
    1.5252    4.0137    3.5655 H   0  0  0  0  0  0  0  0  0  0  0  0
    1.2683    5.2079    5.3517 H   0  0  0  0  0  0  0  0  0  0  0  0
    4.5021    7.1556    5.4089 H   0  0  0  0  0  0  0  0  0  0  0  0
    4.3536    7.2311    7.1965 H   0  0  0  0  0  0  0  0  0  0  0  0
    3.6133    8.4958    6.2115 H   0  0  0  0  0  0  0  0  0  0  0  0
    0.6572    6.3425    7.2362 H   0  0  0  0  0  0  0  0  0  0  0  0
    1.3045    8.0077    7.2914 H   0  0  0  0  0  0  0  0  0  0  0  0
    2.0422    6.7517    8.2895 H   0  0  0  0  0  0  0  0  0  0  0  0
    3.3502    1.9855    4.2397 H   0  0  0  0  0  0  0  0  0  0  0  0
    3.4060   -0.4832    4.1455 H   0  0  0  0  0  0  0  0  0  0  0  0
    2.5237   -2.6049    3.7085 H   0  0  0  0  0  0  0  0  0  0  0  0
    4.2856   -2.5501    3.4666 H   0  0  0  0  0  0  0  0  0  0  0  0
    3.6005   -5.0248    4.5154 H   0  0  0  0  0  0  0  0  0  0  0  0
    3.5663   -7.3872    3.7312 H   0  0  0  0  0  0  0  0  0  0  0  0
    3.0049   -6.2378   -0.2038 H   0  0  0  0  0  0  0  0  0  0  0  0
    3.0147   -3.8055    0.4131 H   0  0  0  0  0  0  0  0  0  0  0  0
  1  2  1  0
  1 25  1  0
  1 26  1  0
  1 27  1  0
  2  3  1  0
  3  4  2  0
  3 16  1  0
  4  5  1  0
  4 28  1  0
  5  6  1  0
  5 14  2  0
  6  7  1  0
  6 29  1  0
  6 30  1  0
  7  8  1  0
  7 31  1  0
  8  9  2  0
  8 10  1  0
 10 11  2  0
 10 32  1  0
 11 12  1  0
 11 13  1  0
 12 33  1  0
 12 34  1  0
 12 35  1  0
 13 36  1  0
 13 37  1  0
 13 38  1  0
 14 15  1  0
 14 39  1  0
 15 16  2  0
 15 40  1  0
 16 17  1  0
 17 18  1  0
 18 19  1  0
 18 41  1  0
 18 42  1  0
 19 20  2  0
 19 24  1  0
 20 21  1  0
 20 43  1  0
 21 22  2  0
 21 44  1  0
 22 23  1  0
 23 24  2  0
 23 45  1  0
 24 46  1  0
M  END

