
     RDKit          3D

 40 41  0  0  0  0  0  0  0  0999 V2000
    2.5096    2.0401   -0.6406 C   0  0  0  0  0  0  0  0  0  0  0  0
    3.0882    0.6970   -0.3137 C   0  0  0  0  0  0  0  0  0  0  0  0
    2.4711   -0.3729    0.3012 C   0  0  0  0  0  0  0  0  0  0  0  0
    3.3136   -1.5047    0.4608 C   0  0  0  0  0  0  0  0  0  0  0  0
    4.5927   -1.3136   -0.0328 C   0  0  0  0  0  0  0  0  0  0  0  0
    5.7367   -2.2016   -0.0651 C   0  0  0  0  0  0  0  0  0  0  0  0
    5.7944   -3.4705    0.3907 C   0  0  0  0  0  0  0  0  0  0  0  0
    7.0638   -4.2444    0.2814 C   0  0  0  0  0  0  0  0  0  0  0  0
    8.0854   -3.7797   -0.2122 O   0  0  0  0  0  0  0  0  0  0  0  0
    6.9876   -5.5173    0.7786 N   0  0  0  0  0  0  0  0  0  0  0  0
    8.1043   -6.4393    0.7677 C   0  0  0  0  0  0  0  0  0  0  0  0
    7.7968   -7.7957    0.1081 C   0  0  2  0  0  0  0  0  0  0  0  0
    7.3727   -7.6763   -1.3660 C   0  0  0  0  0  0  0  0  0  0  0  0
    7.1517   -9.0514   -2.0114 C   0  0  0  0  0  0  0  0  0  0  0  0
    6.1529   -9.8994   -1.2129 C   0  0  0  0  0  0  0  0  0  0  0  0
    6.5659  -10.0162    0.2623 C   0  0  0  0  0  0  0  0  0  0  0  0
    6.7828   -8.6428    0.9128 C   0  0  2  0  0  0  0  0  0  0  0  0
    5.5366   -7.9616    1.1063 O   0  0  0  0  0  0  0  0  0  0  0  0
    4.7350    0.2996   -0.7013 S   0  0  0  0  0  0  0  0  0  0  0  0
    1.4604    2.0858   -0.3136 H   0  0  0  0  0  0  0  0  0  0  0  0
    2.5353    2.2474   -1.7236 H   0  0  0  0  0  0  0  0  0  0  0  0
    3.0556    2.8569   -0.1394 H   0  0  0  0  0  0  0  0  0  0  0  0
    1.4307   -0.3395    0.6309 H   0  0  0  0  0  0  0  0  0  0  0  0
    2.9908   -2.4361    0.9286 H   0  0  0  0  0  0  0  0  0  0  0  0
    6.6641   -1.8158   -0.5036 H   0  0  0  0  0  0  0  0  0  0  0  0
    4.9253   -3.9533    0.8494 H   0  0  0  0  0  0  0  0  0  0  0  0
    6.1146   -5.8728    1.1538 H   0  0  0  0  0  0  0  0  0  0  0  0
    8.4579   -6.6219    1.8010 H   0  0  0  0  0  0  0  0  0  0  0  0
    8.9193   -5.9316    0.2322 H   0  0  0  0  0  0  0  0  0  0  0  0
    8.7469   -8.3622    0.1366 H   0  0  0  0  0  0  0  0  0  0  0  0
    8.1310   -7.1031   -1.9240 H   0  0  0  0  0  0  0  0  0  0  0  0
    6.4444   -7.0802   -1.4313 H   0  0  0  0  0  0  0  0  0  0  0  0
    8.1174   -9.5874   -2.0617 H   0  0  0  0  0  0  0  0  0  0  0  0
    6.8087   -8.9343   -3.0529 H   0  0  0  0  0  0  0  0  0  0  0  0
    6.0510  -10.9035   -1.6561 H   0  0  0  0  0  0  0  0  0  0  0  0
    5.1453   -9.4450   -1.2872 H   0  0  0  0  0  0  0  0  0  0  0  0
    7.5071  -10.5890    0.3319 H   0  0  0  0  0  0  0  0  0  0  0  0
    5.8100  -10.5715    0.8417 H   0  0  0  0  0  0  0  0  0  0  0  0
    7.1762   -8.7833    1.9335 H   0  0  0  0  0  0  0  0  0  0  0  0
    5.0432   -7.9894    0.2755 H   0  0  0  0  0  0  0  0  0  0  0  0
  1  2  1  0
  1 20  1  0
  1 21  1  0
  1 22  1  0
  2  3  2  0
  2 19  1  0
  3  4  1  0
  3 23  1  0
  4  5  2  0
  4 24  1  0
  5  6  1  0
  5 19  1  0
  6  7  2  0
  6 25  1  0
  7  8  1  0
  7 26  1  0
  8  9  2  0
  8 10  1  0
 10 11  1  0
 10 27  1  0
 11 12  1  0
 11 28  1  0
 11 29  1  0
 12 13  1  0
 12 17  1  0
 12 30  1  6
 13 14  1  0
 13 31  1  0
 13 32  1  0
 14 15  1  0
 14 33  1  0
 14 34  1  0
 15 16  1  0
 15 35  1  0
 15 36  1  0
 16 17  1  0
 16 37  1  0
 16 38  1  0
 17 18  1  0
 17 39  1  1
 18 40  1  0
M  END

