
     RDKit          3D

 33 33  0  0  0  0  0  0  0  0999 V2000
    1.2523    0.2383    0.4024 C   0  0  0  0  0  0  0  0  0  0  0  0
    2.7463    0.1002    0.0704 C   0  0  0  0  0  0  0  0  0  0  0  0
    3.0035   -0.3731   -1.3442 C   0  0  0  0  0  0  0  0  0  0  0  0
    3.1583    0.5371   -2.3994 C   0  0  0  0  0  0  0  0  0  0  0  0
    3.3561    0.0963   -3.7115 C   0  0  0  0  0  0  0  0  0  0  0  0
    3.4070   -1.2701   -4.0194 C   0  0  0  0  0  0  0  0  0  0  0  0
    3.6640   -1.7455   -5.4462 C   0  0  1  0  0  0  0  0  0  0  0  0
    4.9745   -2.4188   -5.5893 N   0  0  0  0  0  0  0  0  0  0  0  0
    2.5405   -2.6426   -6.0282 C   0  0  1  0  0  0  0  0  0  0  0  0
    1.1684   -1.9687   -5.9232 C   0  0  0  0  0  0  0  0  0  0  0  0
    2.8286   -3.0337   -7.4933 C   0  0  0  0  0  0  0  0  0  0  0  0
    3.9428   -3.8661   -7.6632 O   0  0  0  0  0  0  0  0  0  0  0  0
    3.2522   -2.1830   -2.9622 C   0  0  0  0  0  0  0  0  0  0  0  0
    3.0549   -1.7430   -1.6529 C   0  0  0  0  0  0  0  0  0  0  0  0
    1.1070    0.5822    1.4393 H   0  0  0  0  0  0  0  0  0  0  0  0
    0.7287   -0.7245    0.2880 H   0  0  0  0  0  0  0  0  0  0  0  0
    0.7617    0.9625   -0.2676 H   0  0  0  0  0  0  0  0  0  0  0  0
    3.2123   -0.6035    0.7809 H   0  0  0  0  0  0  0  0  0  0  0  0
    3.2443    1.0720    0.2259 H   0  0  0  0  0  0  0  0  0  0  0  0
    3.1286    1.6113   -2.1924 H   0  0  0  0  0  0  0  0  0  0  0  0
    3.4760    0.8319   -4.5129 H   0  0  0  0  0  0  0  0  0  0  0  0
    3.7123   -0.8472   -6.0871 H   0  0  0  0  0  0  0  0  0  0  0  0
    5.0395   -3.1941   -4.9262 H   0  0  0  0  0  0  0  0  0  0  0  0
    5.7256   -1.7746   -5.3385 H   0  0  0  0  0  0  0  0  0  0  0  0
    2.5199   -3.5855   -5.4488 H   0  0  0  0  0  0  0  0  0  0  0  0
    1.1428   -1.0286   -6.5011 H   0  0  0  0  0  0  0  0  0  0  0  0
    0.9048   -1.7256   -4.8837 H   0  0  0  0  0  0  0  0  0  0  0  0
    0.3811   -2.6255   -6.3259 H   0  0  0  0  0  0  0  0  0  0  0  0
    2.9109   -2.0956   -8.0905 H   0  0  0  0  0  0  0  0  0  0  0  0
    1.9504   -3.5725   -7.8901 H   0  0  0  0  0  0  0  0  0  0  0  0
    4.6610   -3.4296   -7.1611 H   0  0  0  0  0  0  0  0  0  0  0  0
    3.2846   -3.2590   -3.1598 H   0  0  0  0  0  0  0  0  0  0  0  0
    2.9403   -2.4787   -0.8509 H   0  0  0  0  0  0  0  0  0  0  0  0
  1  2  1  0
  1 15  1  0
  1 16  1  0
  1 17  1  0
  2  3  1  0
  2 18  1  0
  2 19  1  0
  3  4  2  0
  3 14  1  0
  4  5  1  0
  4 20  1  0
  5  6  2  0
  5 21  1  0
  6  7  1  0
  6 13  1  0
  7  8  1  0
  7  9  1  0
  7 22  1  6
  8 23  1  0
  8 24  1  0
  9 10  1  0
  9 11  1  0
  9 25  1  1
 10 26  1  0
 10 27  1  0
 10 28  1  0
 11 12  1  0
 11 29  1  0
 11 30  1  0
 12 31  1  0
 13 14  2  0
 13 32  1  0
 14 33  1  0
M  END

