
     RDKit          3D

 76 80  0  0  0  0  0  0  0  0999 V2000
    4.0510    0.8768   -3.6370 C   0  0  0  0  0  0  0  0  0  0  0  0
    4.0304    0.3936   -2.1862 C   0  0  0  0  0  0  0  0  0  0  0  0
    4.5788   -1.0254   -2.0079 C   0  0  0  0  0  0  0  0  0  0  0  0
    4.5458   -1.5157   -0.5477 C   0  0  0  0  0  0  0  0  0  0  0  0
    5.0720   -2.9229   -0.3545 C   0  0  0  0  0  0  0  0  0  0  0  0
    4.1706   -3.9835   -0.3229 C   0  0  0  0  0  0  0  0  0  0  0  0
    4.5456   -5.3342   -0.2081 C   0  0  0  0  0  0  0  0  0  0  0  0
    3.4678   -6.3787   -0.2195 C   0  0  0  0  0  0  0  0  0  0  0  0
    3.6956   -7.5742   -0.3296 O   0  0  0  0  0  0  0  0  0  0  0  0
    1.9973   -5.9568   -0.1269 C   0  0  0  0  0  0  0  0  0  0  0  0
    1.3402   -5.8245   -1.5136 C   0  0  0  0  0  0  0  0  0  0  0  0
   -0.1597   -5.5374   -1.4388 C   0  0  0  0  0  0  0  0  0  0  0  0
    5.9379   -5.6451   -0.0980 C   0  0  0  0  0  0  0  0  0  0  0  0
    6.4368   -6.9883    0.0172 C   0  0  0  0  0  0  0  0  0  0  0  0
    7.7719   -7.2476    0.1325 C   0  0  0  0  0  0  0  0  0  0  0  0
    8.7558   -6.2070    0.1574 C   0  0  0  0  0  0  0  0  0  0  0  0
   10.1452   -6.4723    0.2750 C   0  0  0  0  0  0  0  0  0  0  0  0
   10.6959   -7.8820    0.3194 C   0  0  0  0  0  0  0  0  0  0  0  0
   10.8629   -8.5292   -1.0690 C   0  0  0  0  0  0  0  0  0  0  0  0
   11.4434   -9.9456   -1.0127 C   0  0  0  0  0  0  0  0  0  0  0  0
   11.6176  -10.5865   -2.3903 C   0  0  0  0  0  0  0  0  0  0  0  0
   11.0398   -5.4001    0.3427 C   0  0  0  0  0  0  0  0  0  0  0  0
   10.6279   -4.0610    0.2843 C   0  0  0  0  0  0  0  0  0  0  0  0
   11.5506   -2.9951    0.4050 N   0  0  0  0  0  0  0  0  0  0  0  0
   12.9233   -3.2299   -0.0332 C   0  0  0  0  0  0  0  0  0  0  0  0
   13.6519   -1.9014   -0.2599 C   0  0  0  0  0  0  0  0  0  0  0  0
   13.6174   -1.0280    0.9984 C   0  0  0  0  0  0  0  0  0  0  0  0
   12.1773   -0.8605    1.4947 C   0  0  0  0  0  0  0  0  0  0  0  0
   11.4883   -2.2170    1.6511 C   0  0  0  0  0  0  0  0  0  0  0  0
    9.2463   -3.7792    0.0896 C   0  0  0  0  0  0  0  0  0  0  0  0
    8.7764   -2.4432   -0.1175 C   0  0  0  0  0  0  0  0  0  0  0  0
    7.4481   -2.1709   -0.2688 C   0  0  0  0  0  0  0  0  0  0  0  0
    6.4570   -3.2090   -0.2332 C   0  0  0  0  0  0  0  0  0  0  0  0
    6.8939   -4.5699   -0.0877 C   0  0  0  0  0  0  0  0  0  0  0  0
    8.2995   -4.8522    0.0589 C   0  0  0  0  0  0  0  0  0  0  0  0
    3.6515    1.8995   -3.7289 H   0  0  0  0  0  0  0  0  0  0  0  0
    3.4444    0.2230   -4.2859 H   0  0  0  0  0  0  0  0  0  0  0  0
    5.0763    0.8821   -4.0433 H   0  0  0  0  0  0  0  0  0  0  0  0
    2.9965    0.4351   -1.7972 H   0  0  0  0  0  0  0  0  0  0  0  0
    4.6135    1.0903   -1.5563 H   0  0  0  0  0  0  0  0  0  0  0  0
    5.6139   -1.0719   -2.3903 H   0  0  0  0  0  0  0  0  0  0  0  0
    3.9994   -1.7277   -2.6337 H   0  0  0  0  0  0  0  0  0  0  0  0
    3.5029   -1.4790   -0.1901 H   0  0  0  0  0  0  0  0  0  0  0  0
    5.1008   -0.8039    0.0861 H   0  0  0  0  0  0  0  0  0  0  0  0
    3.1124   -3.7356   -0.4073 H   0  0  0  0  0  0  0  0  0  0  0  0
    1.8544   -5.0339    0.4547 H   0  0  0  0  0  0  0  0  0  0  0  0
    1.4990   -6.7706    0.4227 H   0  0  0  0  0  0  0  0  0  0  0  0
    1.5163   -6.7614   -2.0684 H   0  0  0  0  0  0  0  0  0  0  0  0
    1.8431   -5.0289   -2.0911 H   0  0  0  0  0  0  0  0  0  0  0  0
   -0.6931   -6.3376   -0.8993 H   0  0  0  0  0  0  0  0  0  0  0  0
   -0.6030   -5.4595   -2.4444 H   0  0  0  0  0  0  0  0  0  0  0  0
   -0.3641   -4.5909   -0.9105 H   0  0  0  0  0  0  0  0  0  0  0  0
    5.7180   -7.8017   -0.0028 H   0  0  0  0  0  0  0  0  0  0  0  0
    8.0943   -8.2866    0.2121 H   0  0  0  0  0  0  0  0  0  0  0  0
   10.0572   -8.5279    0.9442 H   0  0  0  0  0  0  0  0  0  0  0  0
   11.6793   -7.8616    0.8183 H   0  0  0  0  0  0  0  0  0  0  0  0
   11.5143   -7.8862   -1.6878 H   0  0  0  0  0  0  0  0  0  0  0  0
    9.8867   -8.5501   -1.5846 H   0  0  0  0  0  0  0  0  0  0  0  0
   10.7885  -10.5818   -0.3896 H   0  0  0  0  0  0  0  0  0  0  0  0
   12.4177   -9.9191   -0.4909 H   0  0  0  0  0  0  0  0  0  0  0  0
   10.6543  -10.6613   -2.9220 H   0  0  0  0  0  0  0  0  0  0  0  0
   12.0350  -11.6032   -2.3137 H   0  0  0  0  0  0  0  0  0  0  0  0
   12.2980   -9.9942   -3.0250 H   0  0  0  0  0  0  0  0  0  0  0  0
   12.0990   -5.6238    0.4805 H   0  0  0  0  0  0  0  0  0  0  0  0
   12.8983   -3.8132   -0.9657 H   0  0  0  0  0  0  0  0  0  0  0  0
   13.4959   -3.8290    0.7113 H   0  0  0  0  0  0  0  0  0  0  0  0
   13.1644   -1.3698   -1.0955 H   0  0  0  0  0  0  0  0  0  0  0  0
   14.6915   -2.1047   -0.5666 H   0  0  0  0  0  0  0  0  0  0  0  0
   14.0802   -0.0462    0.8042 H   0  0  0  0  0  0  0  0  0  0  0  0
   14.2212   -1.5077    1.7910 H   0  0  0  0  0  0  0  0  0  0  0  0
   11.6058   -0.2483    0.7748 H   0  0  0  0  0  0  0  0  0  0  0  0
   12.1553   -0.3275    2.4600 H   0  0  0  0  0  0  0  0  0  0  0  0
   10.4374   -2.0862    1.9421 H   0  0  0  0  0  0  0  0  0  0  0  0
   11.9770   -2.7847    2.4755 H   0  0  0  0  0  0  0  0  0  0  0  0
    9.5123   -1.6416   -0.1855 H   0  0  0  0  0  0  0  0  0  0  0  0
    7.1337   -1.1408   -0.4369 H   0  0  0  0  0  0  0  0  0  0  0  0
  1  2  1  0
  1 36  1  0
  1 37  1  0
  1 38  1  0
  2  3  1  0
  2 39  1  0
  2 40  1  0
  3  4  1  0
  3 41  1  0
  3 42  1  0
  4  5  1  0
  4 43  1  0
  4 44  1  0
  5  6  2  0
  5 33  1  0
  6  7  1  0
  6 45  1  0
  7  8  1  0
  7 13  2  0
  8  9  2  0
  8 10  1  0
 10 11  1  0
 10 46  1  0
 10 47  1  0
 11 12  1  0
 11 48  1  0
 11 49  1  0
 12 50  1  0
 12 51  1  0
 12 52  1  0
 13 14  1  0
 13 34  1  0
 14 15  2  0
 14 53  1  0
 15 16  1  0
 15 54  1  0
 16 17  2  0
 16 35  1  0
 17 18  1  0
 17 22  1  0
 18 19  1  0
 18 55  1  0
 18 56  1  0
 19 20  1  0
 19 57  1  0
 19 58  1  0
 20 21  1  0
 20 59  1  0
 20 60  1  0
 21 61  1  0
 21 62  1  0
 21 63  1  0
 22 23  2  0
 22 64  1  0
 23 24  1  0
 23 30  1  0
 24 25  1  0
 24 29  1  0
 25 26  1  0
 25 65  1  0
 25 66  1  0
 26 27  1  0
 26 67  1  0
 26 68  1  0
 27 28  1  0
 27 69  1  0
 27 70  1  0
 28 29  1  0
 28 71  1  0
 28 72  1  0
 29 73  1  0
 29 74  1  0
 30 31  2  0
 30 35  1  0
 31 32  1  0
 31 75  1  0
 32 33  2  0
 32 76  1  0
 33 34  1  0
 34 35  2  0
M  END

