
     RDKit          3D

 41 41  0  0  0  0  0  0  0  0999 V2000
    0.8307    2.0966    0.5329 C   0  0  0  0  0  0  0  0  0  0  0  0
    2.0997    1.2779    0.2308 C   0  0  1  0  0  0  0  0  0  0  0  0
    1.7903    0.2498   -0.0265 H   0  0  0  0  0  0  0  0  0  0  0  0
    2.8543    1.8169   -0.8789 N   0  0  0  0  0  0  0  0  0  0  0  0
    2.5186    1.5672   -2.1763 C   0  0  0  0  0  0  0  0  0  0  0  0
    1.5176    0.9247   -2.4642 O   0  0  0  0  0  0  0  0  0  0  0  0
    3.4825    2.1407   -3.2457 C   0  0  1  0  0  0  0  0  0  0  0  0
    4.8712    1.4852   -3.0828 C   0  0  0  0  0  0  0  0  0  0  0  0
    2.9150    1.8130   -4.6341 C   0  0  0  0  0  0  0  0  0  0  0  0
    3.5994    3.6708   -3.0796 C   0  0  0  0  0  0  0  0  0  0  0  0
    3.0443    1.2396    1.4437 C   0  0  0  0  0  0  0  0  0  0  0  0
    4.0822    1.8897    1.4640 O   0  0  0  0  0  0  0  0  0  0  0  0
    2.6342    0.4579    2.4768 N   0  0  0  0  0  0  0  0  0  0  0  0
    3.3521    0.3807    3.7449 C   0  0  0  0  0  0  0  0  0  0  0  0
    2.7320    1.2179    4.8481 C   0  0  0  0  0  0  0  0  0  0  0  0
    2.0694    0.6161    5.9264 C   0  0  0  0  0  0  0  0  0  0  0  0
    1.4851    1.3946    6.9318 C   0  0  0  0  0  0  0  0  0  0  0  0
    1.5572    2.7879    6.8667 C   0  0  0  0  0  0  0  0  0  0  0  0
    2.2186    3.3990    5.7947 C   0  0  0  0  0  0  0  0  0  0  0  0
    2.8028    2.6207    4.7938 C   0  0  0  0  0  0  0  0  0  0  0  0
    0.1947    2.1090   -0.3633 H   0  0  0  0  0  0  0  0  0  0  0  0
    1.0942    3.1313    0.8015 H   0  0  0  0  0  0  0  0  0  0  0  0
    0.2516    1.6594    1.3618 H   0  0  0  0  0  0  0  0  0  0  0  0
    3.7153    2.2902   -0.6190 H   0  0  0  0  0  0  0  0  0  0  0  0
    4.8060    0.3898   -3.1804 H   0  0  0  0  0  0  0  0  0  0  0  0
    5.3279    1.7095   -2.1059 H   0  0  0  0  0  0  0  0  0  0  0  0
    5.5586    1.8525   -3.8624 H   0  0  0  0  0  0  0  0  0  0  0  0
    2.8029    0.7279   -4.7698 H   0  0  0  0  0  0  0  0  0  0  0  0
    3.5856    2.1996   -5.4183 H   0  0  0  0  0  0  0  0  0  0  0  0
    1.9200    2.2608   -4.7717 H   0  0  0  0  0  0  0  0  0  0  0  0
    4.0378    3.9554   -2.1102 H   0  0  0  0  0  0  0  0  0  0  0  0
    2.6138    4.1563   -3.1595 H   0  0  0  0  0  0  0  0  0  0  0  0
    4.2458    4.0888   -3.8685 H   0  0  0  0  0  0  0  0  0  0  0  0
    1.7331   -0.0009    2.4091 H   0  0  0  0  0  0  0  0  0  0  0  0
    4.3750    0.7236    3.5348 H   0  0  0  0  0  0  0  0  0  0  0  0
    3.4061   -0.6742    4.0577 H   0  0  0  0  0  0  0  0  0  0  0  0
    2.0130   -0.4753    5.9847 H   0  0  0  0  0  0  0  0  0  0  0  0
    0.9736    0.9098    7.7674 H   0  0  0  0  0  0  0  0  0  0  0  0
    1.1027    3.3985    7.6511 H   0  0  0  0  0  0  0  0  0  0  0  0
    2.2842    4.4890    5.7429 H   0  0  0  0  0  0  0  0  0  0  0  0
    3.3270    3.0971    3.9607 H   0  0  0  0  0  0  0  0  0  0  0  0
  1  2  1  0
  1 21  1  0
  1 22  1  0
  1 23  1  0
  2  3  1  6
  2  4  1  0
  2 11  1  0
  4  5  1  0
  4 24  1  0
  5  6  2  0
  7  5  1  1
  7  8  1  0
  7  9  1  0
  7 10  1  0
  8 25  1  0
  8 26  1  0
  8 27  1  0
  9 28  1  0
  9 29  1  0
  9 30  1  0
 10 31  1  0
 10 32  1  0
 10 33  1  0
 11 12  2  0
 11 13  1  0
 13 14  1  0
 13 34  1  0
 14 15  1  0
 14 35  1  0
 14 36  1  0
 15 16  2  0
 15 20  1  0
 16 17  1  0
 16 37  1  0
 17 18  2  0
 17 38  1  0
 18 19  1  0
 18 39  1  0
 19 20  2  0
 19 40  1  0
 20 41  1  0
M  END

