
     RDKit          3D

 39 39  0  0  0  0  0  0  0  0999 V2000
    0.9369    0.2688   -0.1664 C   0  0  0  0  0  0  0  0  0  0  0  0
    2.4528    0.3310   -0.0254 C   0  0  0  0  0  0  0  0  0  0  0  0
    2.9077    0.3046    1.7426 S   0  0  1  0  0  0  0  0  0  0  0  0
    2.3900    1.5509    2.3345 O   0  0  0  0  0  0  0  0  0  0  0  0
    2.4969   -1.0091    2.2690 O   0  0  0  0  0  0  0  0  0  0  0  0
    4.6920    0.3772    1.7635 C   0  0  0  0  0  0  0  0  0  0  0  0
    5.3407    1.6132    1.8220 C   0  0  0  0  0  0  0  0  0  0  0  0
    6.7317    1.6791    1.8461 C   0  0  0  0  0  0  0  0  0  0  0  0
    7.5154    0.4993    1.8206 C   0  0  0  0  0  0  0  0  0  0  0  0
    8.8906    0.4705    1.8630 N   0  0  0  0  0  0  0  0  0  0  0  0
    9.8801    1.5591    1.7421 C   0  0  1  0  0  0  0  0  0  0  0  0
    9.7468    2.2816    0.3847 C   0  0  0  0  0  0  0  0  0  0  0  0
    9.7622    2.5732    2.9010 C   0  0  0  0  0  0  0  0  0  0  0  0
   11.2739    0.8832    1.7882 C   0  0  0  0  0  0  0  0  0  0  0  0
   11.6714    0.1733    3.0869 C   0  0  0  0  0  0  0  0  0  0  0  0
   12.9767   -0.3607    3.0128 O   0  0  0  0  0  0  0  0  0  0  0  0
    6.8262   -0.7431    1.7748 C   0  0  0  0  0  0  0  0  0  0  0  0
    5.4415   -0.8070    1.7515 C   0  0  0  0  0  0  0  0  0  0  0  0
    0.6533    0.2834   -1.2303 H   0  0  0  0  0  0  0  0  0  0  0  0
    0.4675    1.1290    0.3331 H   0  0  0  0  0  0  0  0  0  0  0  0
    0.5449   -0.6529    0.2881 H   0  0  0  0  0  0  0  0  0  0  0  0
    2.8792    1.2581   -0.4371 H   0  0  0  0  0  0  0  0  0  0  0  0
    2.9568   -0.5328   -0.4843 H   0  0  0  0  0  0  0  0  0  0  0  0
    4.7468    2.5285    1.8672 H   0  0  0  0  0  0  0  0  0  0  0  0
    7.2031    2.6574    1.8983 H   0  0  0  0  0  0  0  0  0  0  0  0
    9.2767   -0.4547    1.7246 H   0  0  0  0  0  0  0  0  0  0  0  0
    8.7495    2.7254    0.2556 H   0  0  0  0  0  0  0  0  0  0  0  0
    9.9118    1.5782   -0.4466 H   0  0  0  0  0  0  0  0  0  0  0  0
   10.4894    3.0907    0.3022 H   0  0  0  0  0  0  0  0  0  0  0  0
    8.8859    3.2268    2.7971 H   0  0  0  0  0  0  0  0  0  0  0  0
   10.6502    3.2241    2.9206 H   0  0  0  0  0  0  0  0  0  0  0  0
    9.6828    2.0638    3.8721 H   0  0  0  0  0  0  0  0  0  0  0  0
   12.0396    1.6454    1.5741 H   0  0  0  0  0  0  0  0  0  0  0  0
   11.3304    0.1549    0.9554 H   0  0  0  0  0  0  0  0  0  0  0  0
   10.9260   -0.6026    3.3549 H   0  0  0  0  0  0  0  0  0  0  0  0
   11.6875    0.8881    3.9232 H   0  0  0  0  0  0  0  0  0  0  0  0
   12.9936   -1.0327    2.3186 H   0  0  0  0  0  0  0  0  0  0  0  0
    7.4069   -1.6705    1.7727 H   0  0  0  0  0  0  0  0  0  0  0  0
    4.9278   -1.7705    1.7428 H   0  0  0  0  0  0  0  0  0  0  0  0
  1  2  1  0
  1 19  1  0
  1 20  1  0
  1 21  1  0
  3  2  1  6
  2 22  1  0
  2 23  1  0
  3  4  2  0
  3  5  2  0
  3  6  1  0
  6  7  2  0
  6 18  1  0
  7  8  1  0
  7 24  1  0
  8  9  2  0
  8 25  1  0
  9 10  1  0
  9 17  1  0
 11 10  1  1
 10 26  1  0
 11 12  1  0
 11 13  1  0
 11 14  1  0
 12 27  1  0
 12 28  1  0
 12 29  1  0
 13 30  1  0
 13 31  1  0
 13 32  1  0
 14 15  1  0
 14 33  1  0
 14 34  1  0
 15 16  1  0
 15 35  1  0
 15 36  1  0
 16 37  1  0
 17 18  2  0
 17 38  1  0
 18 39  1  0
M  END

