
     RDKit          3D

 50 52  0  0  0  0  0  0  0  0999 V2000
    0.6305    0.1638   -0.6764 C   0  0  0  0  0  0  0  0  0  0  0  0
    2.1192   -0.0896   -0.7030 C   0  0  0  0  0  0  0  0  0  0  0  0
    3.0430    0.9603   -0.6673 C   0  0  0  0  0  0  0  0  0  0  0  0
    4.4150    0.6942   -0.6965 C   0  0  0  0  0  0  0  0  0  0  0  0
    4.9160   -0.6095   -0.7530 C   0  0  0  0  0  0  0  0  0  0  0  0
    6.4037   -0.8620   -0.7781 C   0  0  0  0  0  0  0  0  0  0  0  0
    3.9797   -1.6779   -0.7772 C   0  0  0  0  0  0  0  0  0  0  0  0
    4.5070   -2.9844   -0.8648 N   0  0  0  0  0  0  0  0  0  0  0  0
    4.0444   -4.1832   -0.4347 C   0  0  0  0  0  0  0  0  0  0  0  0
    2.5611   -4.4127    0.3714 S   0  0  0  0  0  0  0  0  0  0  0  0
    4.9472   -5.3051   -0.7187 C   0  0  0  0  0  0  0  0  0  0  0  0
    6.2344   -5.1898   -1.3303 C   0  0  0  0  0  0  0  0  0  0  0  0
    6.6877   -4.1085   -1.7695 O   0  0  0  0  0  0  0  0  0  0  0  0
    7.1510   -6.3887   -1.4691 C   0  0  0  0  0  0  0  0  0  0  0  0
    7.9255   -6.4848   -2.6373 C   0  0  0  0  0  0  0  0  0  0  0  0
    8.8346   -7.5251   -2.8059 C   0  0  0  0  0  0  0  0  0  0  0  0
    9.0139   -8.4806   -1.7978 C   0  0  0  0  0  0  0  0  0  0  0  0
   10.1607   -9.7666   -2.0326 Cl  0  0  0  0  0  0  0  0  0  0  0  0
    8.2697   -8.3755   -0.6116 C   0  0  0  0  0  0  0  0  0  0  0  0
    8.4805   -9.5189    0.6875 Cl  0  0  0  0  0  0  0  0  0  0  0  0
    7.3453   -7.3375   -0.4567 C   0  0  0  0  0  0  0  0  0  0  0  0
    4.4048   -6.6075   -0.4502 N   0  0  0  0  0  0  0  0  0  0  0  0
    3.9546   -6.8768    0.8037 C   0  0  0  0  0  0  0  0  0  0  0  0
    3.3130   -8.0874    1.0741 C   0  0  0  0  0  0  0  0  0  0  0  0
    3.1067   -9.0005    0.0492 C   0  0  0  0  0  0  0  0  0  0  0  0
    3.5441   -8.6993   -1.2557 C   0  0  0  0  0  0  0  0  0  0  0  0
    3.3537   -9.6594   -2.4164 C   0  0  0  0  0  0  0  0  0  0  0  0
    3.4081   -9.0388   -3.6761 O   0  0  0  0  0  0  0  0  0  0  0  0
    4.1671   -7.4799   -1.4649 C   0  0  0  0  0  0  0  0  0  0  0  0
    2.6046   -1.4042   -0.7636 C   0  0  0  0  0  0  0  0  0  0  0  0
    0.4025    1.2398   -0.7087 H   0  0  0  0  0  0  0  0  0  0  0  0
    0.1716   -0.2504    0.2374 H   0  0  0  0  0  0  0  0  0  0  0  0
    0.1254   -0.3147   -1.5319 H   0  0  0  0  0  0  0  0  0  0  0  0
    2.6923    1.9950   -0.6189 H   0  0  0  0  0  0  0  0  0  0  0  0
    5.1237    1.5270   -0.6698 H   0  0  0  0  0  0  0  0  0  0  0  0
    6.9586    0.0786   -0.6516 H   0  0  0  0  0  0  0  0  0  0  0  0
    6.7354   -1.3201   -1.7253 H   0  0  0  0  0  0  0  0  0  0  0  0
    6.7165   -1.5542    0.0209 H   0  0  0  0  0  0  0  0  0  0  0  0
    5.4358   -3.0746   -1.3170 H   0  0  0  0  0  0  0  0  0  0  0  0
    7.8110   -5.7207   -3.4078 H   0  0  0  0  0  0  0  0  0  0  0  0
    9.4260   -7.6084   -3.7194 H   0  0  0  0  0  0  0  0  0  0  0  0
    6.8011   -7.2757    0.4856 H   0  0  0  0  0  0  0  0  0  0  0  0
    4.2314   -6.1678    1.5777 H   0  0  0  0  0  0  0  0  0  0  0  0
    2.9876   -8.2944    2.0945 H   0  0  0  0  0  0  0  0  0  0  0  0
    2.6036   -9.9502    0.2518 H   0  0  0  0  0  0  0  0  0  0  0  0
    2.4155  -10.2286   -2.2650 H   0  0  0  0  0  0  0  0  0  0  0  0
    4.1713  -10.4012   -2.4047 H   0  0  0  0  0  0  0  0  0  0  0  0
    2.6179   -8.4917   -3.7860 H   0  0  0  0  0  0  0  0  0  0  0  0
    4.4859   -7.1638   -2.4566 H   0  0  0  0  0  0  0  0  0  0  0  0
    1.9044   -2.2369   -0.7998 H   0  0  0  0  0  0  0  0  0  0  0  0
  1  2  1  0
  1 31  1  0
  1 32  1  0
  1 33  1  0
  2  3  2  0
  2 30  1  0
  3  4  1  0
  3 34  1  0
  4  5  2  0
  4 35  1  0
  5  6  1  0
  5  7  1  0
  6 36  1  0
  6 37  1  0
  6 38  1  0
  7  8  1  0
  7 30  2  0
  8  9  1  0
  8 39  1  0
  9 10  2  0
  9 11  1  0
 11 12  2  0
 11 22  1  0
 12 13  1  0
 12 14  1  0
 14 15  2  0
 14 21  1  0
 15 16  1  0
 15 40  1  0
 16 17  2  0
 16 41  1  0
 17 18  1  0
 17 19  1  0
 19 20  1  0
 19 21  2  0
 21 42  1  0
 22 23  2  0
 22 29  1  0
 23 24  1  0
 23 43  1  0
 24 25  2  0
 24 44  1  0
 25 26  1  0
 25 45  1  0
 26 27  1  0
 26 29  2  0
 27 28  1  0
 27 46  1  0
 27 47  1  0
 28 48  1  0
 29 49  1  0
 30 50  1  0
M  CHG  2  13  -1  22   1
M  END

