
     RDKit          3D

 58 61  0  0  0  0  0  0  0  0999 V2000
    0.8198    0.3684   -0.0511 C   0  0  0  0  0  0  0  0  0  0  0  0
    2.2129    0.1990   -0.1842 O   0  0  0  0  0  0  0  0  0  0  0  0
    2.9245    1.1568   -0.8169 C   0  0  0  0  0  0  0  0  0  0  0  0
    2.4027    2.3143   -1.3575 C   0  0  0  0  0  0  0  0  0  0  0  0
    3.2495    3.2592   -2.0025 C   0  0  0  0  0  0  0  0  0  0  0  0
    2.7241    4.3790   -2.5547 N   0  0  0  0  0  0  0  0  0  0  0  0
    3.5181    5.2465   -3.1495 C   0  0  0  0  0  0  0  0  0  0  0  0
    2.8654    6.4366   -3.8077 C   0  0  0  0  0  0  0  0  0  0  0  0
    4.9438    5.0053   -3.1867 C   0  0  0  0  0  0  0  0  0  0  0  0
    5.8399    5.8619   -3.8461 N   0  0  0  0  0  0  0  0  0  0  0  0
    5.9728    7.2810   -3.5079 C   0  0  0  0  0  0  0  0  0  0  0  0
    6.4424    8.0619   -4.7463 C   0  0  1  0  0  0  0  0  0  0  0  0
    7.4925    7.7617   -4.9575 H   0  0  0  0  0  0  0  0  0  0  0  0
    5.6195    7.7513   -5.8483 O   0  0  0  0  0  0  0  0  0  0  0  0
    6.3999    9.5700   -4.5061 C   0  0  0  0  0  0  0  0  0  0  0  0
    7.0805   10.3480   -5.5267 N   0  0  0  0  0  0  0  0  0  0  0  0
    8.5252   10.4057   -5.3723 C   0  0  0  0  0  0  0  0  0  0  0  0
    9.1697   10.8890   -6.6697 C   0  0  0  0  0  0  0  0  0  0  0  0
    8.5152   12.1503   -7.1887 C   0  0  0  0  0  0  0  0  0  0  0  0
    9.1628   12.9695   -8.1274 C   0  0  0  0  0  0  0  0  0  0  0  0
    8.5534   14.1219   -8.6228 C   0  0  0  0  0  0  0  0  0  0  0  0
    7.2735   14.4728   -8.1787 C   0  0  0  0  0  0  0  0  0  0  0  0
    6.6226   13.6663   -7.2457 C   0  0  0  0  0  0  0  0  0  0  0  0
    7.2290   12.5040   -6.7443 C   0  0  0  0  0  0  0  0  0  0  0  0
    6.5058   11.6707   -5.7049 C   0  0  0  0  0  0  0  0  0  0  0  0
    5.4683    3.9055   -2.6800 N   0  0  0  0  0  0  0  0  0  0  0  0
    4.6489    3.0054   -2.0881 C   0  0  0  0  0  0  0  0  0  0  0  0
    5.1758    1.8052   -1.5350 C   0  0  0  0  0  0  0  0  0  0  0  0
    4.3446    0.8962   -0.9098 C   0  0  0  0  0  0  0  0  0  0  0  0
    4.7434   -0.2649   -0.3508 O   0  0  0  0  0  0  0  0  0  0  0  0
    6.1104   -0.6075   -0.3965 C   0  0  0  0  0  0  0  0  0  0  0  0
    0.4474   -0.5137    0.4866 H   0  0  0  0  0  0  0  0  0  0  0  0
    0.3197    0.4301   -1.0344 H   0  0  0  0  0  0  0  0  0  0  0  0
    0.5719    1.2761    0.5282 H   0  0  0  0  0  0  0  0  0  0  0  0
    1.3396    2.5464   -1.3166 H   0  0  0  0  0  0  0  0  0  0  0  0
    1.8418    6.1610   -4.0959 H   0  0  0  0  0  0  0  0  0  0  0  0
    3.4203    6.7875   -4.6888 H   0  0  0  0  0  0  0  0  0  0  0  0
    2.7858    7.2894   -3.1105 H   0  0  0  0  0  0  0  0  0  0  0  0
    6.7470    5.3965   -3.8631 H   0  0  0  0  0  0  0  0  0  0  0  0
    6.6750    7.4348   -2.6658 H   0  0  0  0  0  0  0  0  0  0  0  0
    4.9981    7.6701   -3.1861 H   0  0  0  0  0  0  0  0  0  0  0  0
    5.5107    6.7858   -5.8186 H   0  0  0  0  0  0  0  0  0  0  0  0
    6.7946    9.7906   -3.4860 H   0  0  0  0  0  0  0  0  0  0  0  0
    5.3360    9.8568   -4.5019 H   0  0  0  0  0  0  0  0  0  0  0  0
    8.9045    9.4026   -5.1247 H   0  0  0  0  0  0  0  0  0  0  0  0
    8.8195   11.0735   -4.5260 H   0  0  0  0  0  0  0  0  0  0  0  0
    9.0714   10.0917   -7.4279 H   0  0  0  0  0  0  0  0  0  0  0  0
   10.2499   11.0543   -6.5199 H   0  0  0  0  0  0  0  0  0  0  0  0
   10.1641   12.6936   -8.4722 H   0  0  0  0  0  0  0  0  0  0  0  0
    9.0742   14.7468   -9.3529 H   0  0  0  0  0  0  0  0  0  0  0  0
    6.7842   15.3724   -8.5609 H   0  0  0  0  0  0  0  0  0  0  0  0
    5.6211   13.9390   -6.8983 H   0  0  0  0  0  0  0  0  0  0  0  0
    5.4494   11.5580   -6.0014 H   0  0  0  0  0  0  0  0  0  0  0  0
    6.4976   12.2464   -4.7448 H   0  0  0  0  0  0  0  0  0  0  0  0
    6.2492    1.6439   -1.6207 H   0  0  0  0  0  0  0  0  0  0  0  0
    6.2060   -1.5786    0.1071 H   0  0  0  0  0  0  0  0  0  0  0  0
    6.7356    0.1359    0.1301 H   0  0  0  0  0  0  0  0  0  0  0  0
    6.4732   -0.7017   -1.4358 H   0  0  0  0  0  0  0  0  0  0  0  0
  1  2  1  0
  1 32  1  0
  1 33  1  0
  1 34  1  0
  2  3  1  0
  3  4  2  0
  3 29  1  0
  4  5  1  0
  4 35  1  0
  5  6  2  0
  5 27  1  0
  6  7  1  0
  7  8  1  0
  7  9  2  0
  8 36  1  0
  8 37  1  0
  8 38  1  0
  9 10  1  0
  9 26  1  0
 10 11  1  0
 10 39  1  0
 11 12  1  0
 11 40  1  0
 11 41  1  0
 12 13  1  6
 12 14  1  0
 12 15  1  0
 14 42  1  0
 15 16  1  0
 15 43  1  0
 15 44  1  0
 16 17  1  0
 16 25  1  0
 17 18  1  0
 17 45  1  0
 17 46  1  0
 18 19  1  0
 18 47  1  0
 18 48  1  0
 19 20  2  0
 19 24  1  0
 20 21  1  0
 20 49  1  0
 21 22  2  0
 21 50  1  0
 22 23  1  0
 22 51  1  0
 23 24  2  0
 23 52  1  0
 24 25  1  0
 25 53  1  0
 25 54  1  0
 26 27  2  0
 27 28  1  0
 28 29  2  0
 28 55  1  0
 29 30  1  0
 30 31  1  0
 31 56  1  0
 31 57  1  0
 31 58  1  0
M  END

