
     RDKit          3D

 57 60  0  0  0  0  0  0  0  0999 V2000
    4.3550    1.3175    8.2381 C   0  0  0  0  0  0  0  0  0  0  0  0
    3.9797    0.5721    6.9567 C   0  0  0  0  0  0  0  0  0  0  0  0
    4.6416    1.1478    5.7010 C   0  0  0  0  0  0  0  0  0  0  0  0
    4.2629    0.4045    4.4168 C   0  0  0  0  0  0  0  0  0  0  0  0
    4.9234    0.9687    3.1507 C   0  0  0  0  0  0  0  0  0  0  0  0
    6.3870    0.8986    3.1749 N   0  0  0  0  0  0  0  0  0  0  0  0
    7.0187   -0.3672    3.2587 C   0  0  0  0  0  0  0  0  0  0  0  0
    6.4056   -1.5366    2.7754 C   0  0  0  0  0  0  0  0  0  0  0  0
    7.0461   -2.7747    2.8749 C   0  0  0  0  0  0  0  0  0  0  0  0
    8.3237   -2.8689    3.4300 C   0  0  0  0  0  0  0  0  0  0  0  0
    8.9591   -1.7112    3.8866 C   0  0  0  0  0  0  0  0  0  0  0  0
    8.3087   -0.4757    3.8189 C   0  0  0  0  0  0  0  0  0  0  0  0
    9.0711    0.9758    4.5130 S   0  0  0  0  0  0  0  0  0  0  0  0
    8.4698    2.1668    3.3340 C   0  0  0  0  0  0  0  0  0  0  0  0
    9.2553    3.2626    2.9977 C   0  0  0  0  0  0  0  0  0  0  0  0
    8.7640    4.2934    2.1653 C   0  0  0  0  0  0  0  0  0  0  0  0
    9.5374    5.4735    1.8040 C   0  0  0  0  0  0  0  0  0  0  0  0
   10.8026    5.7805    2.1927 C   0  0  0  0  0  0  0  0  0  0  0  0
   11.5248    6.9690    1.8012 C   0  0  0  0  0  0  0  0  0  0  0  0
   11.1347    8.0320    0.9778 C   0  0  0  0  0  0  0  0  0  0  0  0
   12.1170    9.0194    0.8257 C   0  0  0  0  0  0  0  0  0  0  0  0
   13.2979    8.7490    1.5280 C   0  0  0  0  0  0  0  0  0  0  0  0
   14.5182    9.4764    1.6435 C   0  0  0  0  0  0  0  0  0  0  0  0
   14.8883   10.6738    1.0826 C   0  0  0  0  0  0  0  0  0  0  0  0
   14.0540   11.4488    0.2279 C   0  0  0  0  0  0  0  0  0  0  0  0
   13.4151   12.1249   -0.4741 N   0  0  0  0  0  0  0  0  0  0  0  0
   16.2659   11.1960    1.3951 C   0  0  0  0  0  0  0  0  0  0  0  0
   17.0389   10.6090    2.1075 O   0  0  0  0  0  0  0  0  0  0  0  0
   16.6003   12.3716    0.8318 O   0  0  0  0  0  0  0  0  0  0  0  0
   13.1407    7.2246    2.3823 S   0  0  0  0  0  0  0  0  0  0  0  0
    7.4566    4.1435    1.6626 C   0  0  0  0  0  0  0  0  0  0  0  0
    6.6766    3.0310    1.9672 C   0  0  0  0  0  0  0  0  0  0  0  0
    7.1536    2.0223    2.8259 C   0  0  0  0  0  0  0  0  0  0  0  0
    3.8662    0.8757    9.1211 H   0  0  0  0  0  0  0  0  0  0  0  0
    4.0555    2.3779    8.1880 H   0  0  0  0  0  0  0  0  0  0  0  0
    5.4437    1.2914    8.4116 H   0  0  0  0  0  0  0  0  0  0  0  0
    2.8814    0.5847    6.8301 H   0  0  0  0  0  0  0  0  0  0  0  0
    4.2573   -0.4932    7.0550 H   0  0  0  0  0  0  0  0  0  0  0  0
    5.7388    1.1287    5.8224 H   0  0  0  0  0  0  0  0  0  0  0  0
    4.3679    2.2150    5.5999 H   0  0  0  0  0  0  0  0  0  0  0  0
    3.1702    0.4562    4.2622 H   0  0  0  0  0  0  0  0  0  0  0  0
    4.5010   -0.6666    4.5249 H   0  0  0  0  0  0  0  0  0  0  0  0
    4.6540    2.0295    3.0706 H   0  0  0  0  0  0  0  0  0  0  0  0
    4.5108    0.4758    2.2505 H   0  0  0  0  0  0  0  0  0  0  0  0
    5.4176   -1.4847    2.3175 H   0  0  0  0  0  0  0  0  0  0  0  0
    6.5408   -3.6691    2.5027 H   0  0  0  0  0  0  0  0  0  0  0  0
    8.8286   -3.8346    3.5029 H   0  0  0  0  0  0  0  0  0  0  0  0
    9.9644   -1.7603    4.3117 H   0  0  0  0  0  0  0  0  0  0  0  0
   10.2649    3.3182    3.4094 H   0  0  0  0  0  0  0  0  0  0  0  0
    9.0159    6.1744    1.1438 H   0  0  0  0  0  0  0  0  0  0  0  0
   11.3408    5.0938    2.8526 H   0  0  0  0  0  0  0  0  0  0  0  0
   10.1560    8.0840    0.5003 H   0  0  0  0  0  0  0  0  0  0  0  0
   11.9796    9.9142    0.2190 H   0  0  0  0  0  0  0  0  0  0  0  0
   15.3044    9.0400    2.2696 H   0  0  0  0  0  0  0  0  0  0  0  0
   15.8786   12.7240    0.2865 H   0  0  0  0  0  0  0  0  0  0  0  0
    7.0483    4.9103    0.9990 H   0  0  0  0  0  0  0  0  0  0  0  0
    5.6859    2.9436    1.5205 H   0  0  0  0  0  0  0  0  0  0  0  0
  1  2  1  0
  1 34  1  0
  1 35  1  0
  1 36  1  0
  2  3  1  0
  2 37  1  0
  2 38  1  0
  3  4  1  0
  3 39  1  0
  3 40  1  0
  4  5  1  0
  4 41  1  0
  4 42  1  0
  5  6  1  0
  5 43  1  0
  5 44  1  0
  6  7  1  0
  6 33  1  0
  7  8  1  0
  7 12  2  0
  8  9  2  0
  8 45  1  0
  9 10  1  0
  9 46  1  0
 10 11  2  0
 10 47  1  0
 11 12  1  0
 11 48  1  0
 12 13  1  0
 13 14  1  0
 14 15  1  0
 14 33  2  0
 15 16  2  0
 15 49  1  0
 16 17  1  0
 16 31  1  0
 17 18  2  0
 17 50  1  0
 18 19  1  0
 18 51  1  0
 19 20  2  0
 19 30  1  0
 20 21  1  0
 20 52  1  0
 21 22  2  0
 21 53  1  0
 22 23  1  0
 22 30  1  0
 23 24  2  0
 23 54  1  0
 24 25  1  0
 24 27  1  0
 25 26  3  0
 27 28  2  0
 27 29  1  0
 29 55  1  0
 31 32  2  0
 31 56  1  0
 32 33  1  0
 32 57  1  0
M  END

