
     RDKit          3D

 69 71  0  0  0  0  0  0  0  0999 V2000
    0.8770    2.2626    0.9294 N   0  0  0  0  0  0  0  0  0  0  0  0
    2.0313    2.3340    1.0040 C   0  0  0  0  0  0  0  0  0  0  0  0
    3.4934    2.4037    1.0796 C   0  0  0  0  0  0  0  0  0  0  0  0
    4.1365    1.0254    0.8059 C   0  0  0  0  0  0  0  0  0  0  0  0
    5.6836    0.9422    0.5833 C   0  0  1  0  0  0  0  0  0  0  0  0
    6.4988    1.4010    1.9176 C   0  0  1  0  0  0  0  0  0  0  0  0
    5.6414    0.9669    3.1370 C   0  0  0  0  0  0  0  0  0  0  0  0
    4.9506    1.7109    3.7827 O   0  0  0  0  0  0  0  0  0  0  0  0
    5.6835   -0.3430    3.4758 O   0  0  0  0  0  0  0  0  0  0  0  0
    7.9070    0.7443    2.1205 C   0  0  0  0  0  0  0  0  0  0  0  0
    9.0647    1.3695    1.3326 C   0  0  0  0  0  0  0  0  0  0  0  0
    9.2576    2.8637    1.6558 C   0  0  2  0  0  0  0  0  0  0  0  0
    9.7806    3.1635    3.0952 C   0  0  1  0  0  0  0  0  0  0  0  0
   10.9320    2.2499    3.5730 C   0  0  0  0  0  0  0  0  0  0  0  0
   12.2614    2.5252    2.8546 C   0  0  0  0  0  0  0  0  0  0  0  0
   12.7251    3.9916    2.9978 C   0  0  2  0  0  0  0  0  0  0  0  0
   13.2559    4.3472    4.4028 C   0  0  0  0  0  0  0  0  0  0  0  0
   14.5219    3.5936    4.8215 C   0  0  0  0  0  0  0  0  0  0  0  0
   15.0680    4.0647    6.1579 C   0  0  0  0  0  0  0  0  0  0  0  0
   16.1933    3.3364    6.5003 F   0  0  0  0  0  0  0  0  0  0  0  0
   11.5811    4.9309    2.5593 C   0  0  0  0  0  0  0  0  0  0  0  0
   10.2421    4.6329    3.2545 C   0  0  0  0  0  0  0  0  0  0  0  0
    7.9197    3.5708    1.3509 C   0  0  0  0  0  0  0  0  0  0  0  0
    6.6953    2.9468    2.0480 C   0  0  0  0  0  0  0  0  0  0  0  0
    5.9953   -0.5450    0.2235 C   0  0  0  0  0  0  0  0  0  0  0  0
    5.3831   -1.0431   -1.0971 C   0  0  0  0  0  0  0  0  0  0  0  0
    5.7779   -0.1454   -2.2730 C   0  0  0  0  0  0  0  0  0  0  0  0
    5.4520    1.3224   -1.9813 C   0  0  0  0  0  0  0  0  0  0  0  0
    6.0798    1.7925   -0.6583 C   0  0  0  0  0  0  0  0  0  0  0  0
    3.7648    2.7722    2.0797 H   0  0  0  0  0  0  0  0  0  0  0  0
    3.8237    3.1548    0.3440 H   0  0  0  0  0  0  0  0  0  0  0  0
    3.6487    0.6178   -0.0883 H   0  0  0  0  0  0  0  0  0  0  0  0
    3.8448    0.3435    1.6195 H   0  0  0  0  0  0  0  0  0  0  0  0
    6.3151   -0.8200    2.9199 H   0  0  0  0  0  0  0  0  0  0  0  0
    7.8851   -0.3379    1.9174 H   0  0  0  0  0  0  0  0  0  0  0  0
    8.1495    0.8311    3.1934 H   0  0  0  0  0  0  0  0  0  0  0  0
    8.8874    1.2634    0.2501 H   0  0  0  0  0  0  0  0  0  0  0  0
    9.9821    0.7963    1.5351 H   0  0  0  0  0  0  0  0  0  0  0  0
   10.0031    3.2522    0.9422 H   0  0  0  0  0  0  0  0  0  0  0  0
    8.9389    3.0120    3.7925 H   0  0  0  0  0  0  0  0  0  0  0  0
   10.6657    1.1859    3.4745 H   0  0  0  0  0  0  0  0  0  0  0  0
   11.0645    2.4126    4.6568 H   0  0  0  0  0  0  0  0  0  0  0  0
   12.1533    2.2977    1.7794 H   0  0  0  0  0  0  0  0  0  0  0  0
   13.0372    1.8355    3.2251 H   0  0  0  0  0  0  0  0  0  0  0  0
   13.5682    4.1458    2.2999 H   0  0  0  0  0  0  0  0  0  0  0  0
   12.4715    4.1895    5.1639 H   0  0  0  0  0  0  0  0  0  0  0  0
   13.4674    5.4320    4.4179 H   0  0  0  0  0  0  0  0  0  0  0  0
   15.3097    3.7190    4.0579 H   0  0  0  0  0  0  0  0  0  0  0  0
   14.3305    2.5103    4.8980 H   0  0  0  0  0  0  0  0  0  0  0  0
   14.3170    3.9375    6.9591 H   0  0  0  0  0  0  0  0  0  0  0  0
   15.3465    5.1337    6.1196 H   0  0  0  0  0  0  0  0  0  0  0  0
   11.4546    4.8430    1.4663 H   0  0  0  0  0  0  0  0  0  0  0  0
   11.8664    5.9811    2.7426 H   0  0  0  0  0  0  0  0  0  0  0  0
    9.4731    5.3283    2.8823 H   0  0  0  0  0  0  0  0  0  0  0  0
   10.3340    4.8492    4.3327 H   0  0  0  0  0  0  0  0  0  0  0  0
    7.7810    3.5849    0.2607 H   0  0  0  0  0  0  0  0  0  0  0  0
    7.9653    4.6299    1.6503 H   0  0  0  0  0  0  0  0  0  0  0  0
    5.7932    3.4778    1.7195 H   0  0  0  0  0  0  0  0  0  0  0  0
    6.7611    3.1646    3.1239 H   0  0  0  0  0  0  0  0  0  0  0  0
    5.6668   -1.2125    1.0382 H   0  0  0  0  0  0  0  0  0  0  0  0
    7.0857   -0.6645    0.1313 H   0  0  0  0  0  0  0  0  0  0  0  0
    4.2845   -1.1020   -1.0223 H   0  0  0  0  0  0  0  0  0  0  0  0
    5.7240   -2.0769   -1.2744 H   0  0  0  0  0  0  0  0  0  0  0  0
    5.2789   -0.4783   -3.1981 H   0  0  0  0  0  0  0  0  0  0  0  0
    6.8647   -0.2434   -2.4537 H   0  0  0  0  0  0  0  0  0  0  0  0
    4.3581    1.4665   -1.9669 H   0  0  0  0  0  0  0  0  0  0  0  0
    5.8258    1.9641   -2.7967 H   0  0  0  0  0  0  0  0  0  0  0  0
    5.8336    2.8519   -0.4978 H   0  0  0  0  0  0  0  0  0  0  0  0
    7.1723    1.7506   -0.7786 H   0  0  0  0  0  0  0  0  0  0  0  0
  1  2  3  0
  2  3  1  0
  3  4  1  0
  3 30  1  0
  3 31  1  0
  5  4  1  1
  4 32  1  0
  4 33  1  0
  5  6  1  0
  5 25  1  0
  5 29  1  0
  6  7  1  1
  6 10  1  0
  6 24  1  0
  7  8  2  0
  7  9  1  0
  9 34  1  0
 10 11  1  0
 10 35  1  0
 10 36  1  0
 11 12  1  0
 11 37  1  0
 11 38  1  0
 12 13  1  0
 12 23  1  0
 12 39  1  6
 13 14  1  0
 13 22  1  0
 13 40  1  1
 14 15  1  0
 14 41  1  0
 14 42  1  0
 15 16  1  0
 15 43  1  0
 15 44  1  0
 16 17  1  0
 16 21  1  0
 16 45  1  6
 17 18  1  0
 17 46  1  0
 17 47  1  0
 18 19  1  0
 18 48  1  0
 18 49  1  0
 19 20  1  0
 19 50  1  0
 19 51  1  0
 21 22  1  0
 21 52  1  0
 21 53  1  0
 22 54  1  0
 22 55  1  0
 23 24  1  0
 23 56  1  0
 23 57  1  0
 24 58  1  0
 24 59  1  0
 25 26  1  0
 25 60  1  0
 25 61  1  0
 26 27  1  0
 26 62  1  0
 26 63  1  0
 27 28  1  0
 27 64  1  0
 27 65  1  0
 28 29  1  0
 28 66  1  0
 28 67  1  0
 29 68  1  0
 29 69  1  0
M  END

