
     RDKit          3D

 40 43  0  0  0  0  0  0  0  0999 V2000
    1.2295   -0.4731   -2.4731 C   0  0  0  0  0  0  0  0  0  0  0  0
    2.6492   -0.5029   -2.3510 O   0  0  0  0  0  0  0  0  0  0  0  0
    3.1289   -0.7457   -1.1206 C   0  0  0  0  0  0  0  0  0  0  0  0
    2.4620   -1.1416   -0.1972 O   0  0  0  0  0  0  0  0  0  0  0  0
    4.6283   -0.6022   -1.0851 C   0  0  0  0  0  0  0  0  0  0  0  0
    5.3702   -1.7346   -0.8655 C   0  0  0  0  0  0  0  0  0  0  0  0
    6.7961   -1.7032   -0.9010 C   0  0  0  0  0  0  0  0  0  0  0  0
    7.5711   -2.8706   -0.6940 C   0  0  0  0  0  0  0  0  0  0  0  0
    8.9522   -2.8510   -0.7442 C   0  0  0  0  0  0  0  0  0  0  0  0
    9.6260   -1.6331   -1.0117 C   0  0  0  0  0  0  0  0  0  0  0  0
   10.9747   -1.5119   -1.0847 O   0  0  0  0  0  0  0  0  0  0  0  0
   11.7918   -2.6457   -0.8859 C   0  0  0  0  0  0  0  0  0  0  0  0
    8.8896   -0.4711   -1.2176 C   0  0  0  0  0  0  0  0  0  0  0  0
    7.4780   -0.4742   -1.1661 C   0  0  0  0  0  0  0  0  0  0  0  0
    6.6770    0.7168   -1.3531 C   0  0  0  0  0  0  0  0  0  0  0  0
    7.3059    1.9191   -1.5755 N   0  0  0  0  0  0  0  0  0  0  0  0
    8.3164    1.9355   -1.6074 H   0  0  0  0  0  0  0  0  0  0  0  0
    6.6425    3.1142   -1.7495 C   0  0  0  0  0  0  0  0  0  0  0  0
    7.3539    4.3045   -2.0122 C   0  0  0  0  0  0  0  0  0  0  0  0
    6.6639    5.4976   -2.1737 C   0  0  0  0  0  0  0  0  0  0  0  0
    5.2594    5.5363   -2.0749 C   0  0  0  0  0  0  0  0  0  0  0  0
    4.5597    4.3676   -1.8113 C   0  0  0  0  0  0  0  0  0  0  0  0
    5.2343    3.1426   -1.6497 C   0  0  0  0  0  0  0  0  0  0  0  0
    4.4774    1.9067   -1.3539 C   0  0  0  0  0  0  0  0  0  0  0  0
    3.2664    1.9238   -1.1521 O   0  0  0  0  0  0  0  0  0  0  0  0
    5.2760    0.6618   -1.2927 C   0  0  0  0  0  0  0  0  0  0  0  0
    1.0152   -0.3320   -3.5401 H   0  0  0  0  0  0  0  0  0  0  0  0
    0.8220    0.3675   -1.8908 H   0  0  0  0  0  0  0  0  0  0  0  0
    0.7794   -1.4100   -2.1118 H   0  0  0  0  0  0  0  0  0  0  0  0
    4.8667   -2.6866   -0.6830 H   0  0  0  0  0  0  0  0  0  0  0  0
    7.0536   -3.8115   -0.4901 H   0  0  0  0  0  0  0  0  0  0  0  0
    9.5094   -3.7731   -0.5786 H   0  0  0  0  0  0  0  0  0  0  0  0
   12.8296   -2.3028   -0.9920 H   0  0  0  0  0  0  0  0  0  0  0  0
   11.5976   -3.4307   -1.6385 H   0  0  0  0  0  0  0  0  0  0  0  0
   11.6606   -3.0766    0.1227 H   0  0  0  0  0  0  0  0  0  0  0  0
    9.4701    0.4311   -1.4198 H   0  0  0  0  0  0  0  0  0  0  0  0
    8.4448    4.2789   -2.0869 H   0  0  0  0  0  0  0  0  0  0  0  0
    7.2214    6.4151   -2.3786 H   0  0  0  0  0  0  0  0  0  0  0  0
    4.7287    6.4823   -2.2029 H   0  0  0  0  0  0  0  0  0  0  0  0
    3.4719    4.3540   -1.7181 H   0  0  0  0  0  0  0  0  0  0  0  0
  1  2  1  0
  1 27  1  0
  1 28  1  0
  1 29  1  0
  2  3  1  0
  3  4  2  0
  3  5  1  0
  5  6  2  0
  5 26  1  0
  6  7  1  0
  6 30  1  0
  7  8  2  0
  7 14  1  0
  8  9  1  0
  8 31  1  0
  9 10  2  0
  9 32  1  0
 10 11  1  0
 10 13  1  0
 11 12  1  0
 12 33  1  0
 12 34  1  0
 12 35  1  0
 13 14  2  0
 13 36  1  0
 14 15  1  0
 15 16  1  0
 15 26  2  0
 16 17  1  0
 16 18  1  0
 18 19  1  0
 18 23  2  0
 19 20  2  0
 19 37  1  0
 20 21  1  0
 20 38  1  0
 21 22  2  0
 21 39  1  0
 22 23  1  0
 22 40  1  0
 23 24  1  0
 24 25  2  0
 24 26  1  0
M  END

