
     RDKit          3D

 49 51  0  0  0  0  0  0  0  0999 V2000
    2.2833    1.2157    0.2236 C   0  0  0  0  0  0  0  0  0  0  0  0
    3.4835    0.2791    0.3524 C   0  0  0  0  0  0  0  0  0  0  0  0
    3.5083   -0.7768   -0.6721 N   0  0  0  0  0  0  0  0  0  0  0  0
    4.2368   -0.4997   -1.8351 C   0  0  0  0  0  0  0  0  0  0  0  0
    4.8109    0.5654   -1.9963 O   0  0  0  0  0  0  0  0  0  0  0  0
    4.2675   -1.5913   -2.8513 C   0  0  0  0  0  0  0  0  0  0  0  0
    5.0690   -1.3146   -4.0853 C   0  0  0  0  0  0  0  0  0  0  0  0
    3.6466   -2.7135   -2.7025 N   0  0  0  0  0  0  0  0  0  0  0  0
    2.9118   -2.9391   -1.5544 C   0  0  0  0  0  0  0  0  0  0  0  0
    2.2382   -4.1621   -1.4212 C   0  0  0  0  0  0  0  0  0  0  0  0
    1.4776   -4.4473   -0.2868 C   0  0  0  0  0  0  0  0  0  0  0  0
    0.7901   -5.7592   -0.2075 C   0  0  0  0  0  0  0  0  0  0  0  0
    0.8434   -6.6163   -1.0707 O   0  0  0  0  0  0  0  0  0  0  0  0
    0.0858   -5.9117    0.9285 O   0  0  0  0  0  0  0  0  0  0  0  0
   -0.5189   -7.1879    1.1938 C   0  0  0  0  0  0  0  0  0  0  0  0
   -1.9181   -7.3490    0.5700 C   0  0  0  0  0  0  0  0  0  0  0  0
   -2.9031   -7.4333    1.2810 O   0  0  0  0  0  0  0  0  0  0  0  0
   -1.9120   -7.4098   -0.7974 N   0  0  0  0  0  0  0  0  0  0  0  0
   -3.0052   -7.5221   -1.6759 C   0  0  0  0  0  0  0  0  0  0  0  0
   -4.3371   -7.6427   -1.2468 C   0  0  0  0  0  0  0  0  0  0  0  0
   -5.3513   -7.7488   -2.1991 C   0  0  0  0  0  0  0  0  0  0  0  0
   -5.0554   -7.7376   -3.5628 C   0  0  0  0  0  0  0  0  0  0  0  0
   -6.5011   -7.8898   -4.8087 Br  0  0  0  0  0  0  0  0  0  0  0  0
   -3.7312   -7.6186   -4.0245 C   0  0  0  0  0  0  0  0  0  0  0  0
   -3.3825   -7.6033   -5.4898 C   0  0  0  0  0  0  0  0  0  0  0  0
   -2.7275   -7.5113   -3.0542 C   0  0  0  0  0  0  0  0  0  0  0  0
    1.3872   -3.4820    0.7380 C   0  0  0  0  0  0  0  0  0  0  0  0
    2.0430   -2.2648    0.6287 C   0  0  0  0  0  0  0  0  0  0  0  0
    2.8214   -1.9704   -0.5133 C   0  0  0  0  0  0  0  0  0  0  0  0
    2.3223    1.9827    1.0129 H   0  0  0  0  0  0  0  0  0  0  0  0
    1.3267    0.6784    0.3171 H   0  0  0  0  0  0  0  0  0  0  0  0
    2.3002    1.7296   -0.7490 H   0  0  0  0  0  0  0  0  0  0  0  0
    3.5194   -0.1999    1.3408 H   0  0  0  0  0  0  0  0  0  0  0  0
    4.4123    0.8479    0.2204 H   0  0  0  0  0  0  0  0  0  0  0  0
    6.1145   -1.0840   -3.8232 H   0  0  0  0  0  0  0  0  0  0  0  0
    4.6830   -0.4216   -4.6036 H   0  0  0  0  0  0  0  0  0  0  0  0
    5.0309   -2.1829   -4.7546 H   0  0  0  0  0  0  0  0  0  0  0  0
    2.3233   -4.8895   -2.2292 H   0  0  0  0  0  0  0  0  0  0  0  0
   -0.6512   -7.2344    2.2799 H   0  0  0  0  0  0  0  0  0  0  0  0
    0.1548   -7.9894    0.8517 H   0  0  0  0  0  0  0  0  0  0  0  0
   -0.9895   -7.3405   -1.2295 H   0  0  0  0  0  0  0  0  0  0  0  0
   -4.5648   -7.6528   -0.1837 H   0  0  0  0  0  0  0  0  0  0  0  0
   -6.3885   -7.8429   -1.8727 H   0  0  0  0  0  0  0  0  0  0  0  0
   -3.7144   -8.5288   -5.9878 H   0  0  0  0  0  0  0  0  0  0  0  0
   -2.2978   -7.5007   -5.6367 H   0  0  0  0  0  0  0  0  0  0  0  0
   -3.8839   -6.7712   -6.0102 H   0  0  0  0  0  0  0  0  0  0  0  0
   -1.6892   -7.4134   -3.3849 H   0  0  0  0  0  0  0  0  0  0  0  0
    0.7886   -3.6965    1.6237 H   0  0  0  0  0  0  0  0  0  0  0  0
    1.9428   -1.5375    1.4328 H   0  0  0  0  0  0  0  0  0  0  0  0
  1  2  1  0
  1 30  1  0
  1 31  1  0
  1 32  1  0
  2  3  1  0
  2 33  1  0
  2 34  1  0
  3  4  1  0
  3 29  1  0
  4  5  2  0
  4  6  1  0
  6  7  1  0
  6  8  2  0
  7 35  1  0
  7 36  1  0
  7 37  1  0
  8  9  1  0
  9 10  1  0
  9 29  2  0
 10 11  2  0
 10 38  1  0
 11 12  1  0
 11 27  1  0
 12 13  2  0
 12 14  1  0
 14 15  1  0
 15 16  1  0
 15 39  1  0
 15 40  1  0
 16 17  2  0
 16 18  1  0
 18 19  1  0
 18 41  1  0
 19 20  2  0
 19 26  1  0
 20 21  1  0
 20 42  1  0
 21 22  2  0
 21 43  1  0
 22 23  1  0
 22 24  1  0
 24 25  1  0
 24 26  2  0
 25 44  1  0
 25 45  1  0
 25 46  1  0
 26 47  1  0
 27 28  2  0
 27 48  1  0
 28 29  1  0
 28 49  1  0
M  END

