
     RDKit          3D

 24 25  0  0  0  0  0  0  0  0999 V2000
    0.8794    0.2349   -0.1108 C   0  0  0  0  0  0  0  0  0  0  0  0
    2.3830    0.1401   -0.1379 C   0  0  0  0  0  0  0  0  0  0  0  0
    3.1427    1.3187   -0.1862 C   0  0  0  0  0  0  0  0  0  0  0  0
    4.5474    1.3407   -0.2267 C   0  0  0  0  0  0  0  0  0  0  0  0
    5.3469    2.7055   -0.2880 B   0  0  0  0  0  0  0  0  0  0  0  0
    6.5398    2.8132   -0.9374 O   0  0  0  0  0  0  0  0  0  0  0  0
    4.8839    3.8412    0.3051 O   0  0  0  0  0  0  0  0  0  0  0  0
    5.2096    0.0999   -0.2116 C   0  0  0  0  0  0  0  0  0  0  0  0
    4.4933   -1.0912   -0.1526 C   0  0  0  0  0  0  0  0  0  0  0  0
    3.0859   -1.0929   -0.1180 C   0  0  0  0  0  0  0  0  0  0  0  0
    2.4240   -2.4085   -0.0620 C   0  0  0  0  0  0  0  0  0  0  0  0
    3.1481   -3.5912   -0.0429 N   0  0  0  0  0  0  0  0  0  0  0  0
    2.2198   -4.4857    0.0071 C   0  0  0  0  0  0  0  0  0  0  0  0
    0.9851   -3.9828    0.0261 O   0  0  0  0  0  0  0  0  0  0  0  0
    1.1214   -2.6014   -0.0182 N   0  0  0  0  0  0  0  0  0  0  0  0
    0.5592    1.2865   -0.1361 H   0  0  0  0  0  0  0  0  0  0  0  0
    0.4584   -0.2416    0.7877 H   0  0  0  0  0  0  0  0  0  0  0  0
    0.4236   -0.2929   -0.9624 H   0  0  0  0  0  0  0  0  0  0  0  0
    2.5953    2.2672   -0.2102 H   0  0  0  0  0  0  0  0  0  0  0  0
    6.7807    2.0140   -1.4188 H   0  0  0  0  0  0  0  0  0  0  0  0
    4.0884    3.6951    0.8286 H   0  0  0  0  0  0  0  0  0  0  0  0
    6.3034    0.0583   -0.2276 H   0  0  0  0  0  0  0  0  0  0  0  0
    5.0115   -2.0507   -0.1306 H   0  0  0  0  0  0  0  0  0  0  0  0
    2.3185   -5.5711    0.0373 H   0  0  0  0  0  0  0  0  0  0  0  0
  1  2  1  0
  1 16  1  0
  1 17  1  0
  1 18  1  0
  2  3  2  0
  2 10  1  0
  3  4  1  0
  3 19  1  0
  4  5  1  0
  4  8  2  0
  5  6  1  0
  5  7  1  0
  6 20  1  0
  7 21  1  0
  8  9  1  0
  8 22  1  0
  9 10  2  0
  9 23  1  0
 10 11  1  0
 11 12  1  0
 11 15  2  0
 12 13  2  0
 13 14  1  0
 13 24  1  0
 14 15  1  0
M  END

