
     RDKit          3D

 57 61  0  0  0  0  0  0  0  0999 V2000
    1.3701    0.4686   -0.5768 O   0  0  0  0  0  0  0  0  0  0  0  0
    1.9776   -0.4836   -0.1094 C   0  0  0  0  0  0  0  0  0  0  0  0
    1.8376   -0.8559    1.3693 C   0  0  0  0  0  0  0  0  0  0  0  0
    0.9003    0.0896    2.1209 C   0  0  0  0  0  0  0  0  0  0  0  0
    0.7021   -0.2760    3.5930 C   0  0  1  0  0  0  0  0  0  0  0  0
    1.9706   -0.1971    4.4859 C   0  0  0  0  0  0  0  0  0  0  0  0
    1.4164    0.0717    5.8679 C   0  0  0  0  0  0  0  0  0  0  0  0
    2.0340   -0.0655    7.1122 C   0  0  0  0  0  0  0  0  0  0  0  0
    1.3180    0.2636    8.2706 C   0  0  0  0  0  0  0  0  0  0  0  0
    0.0002    0.7273    8.1808 C   0  0  0  0  0  0  0  0  0  0  0  0
   -0.6186    0.8681    6.9319 C   0  0  0  0  0  0  0  0  0  0  0  0
    0.0934    0.5373    5.7776 C   0  0  0  0  0  0  0  0  0  0  0  0
   -0.3328    0.6151    4.3290 C   0  0  0  0  0  0  0  0  0  0  0  0
    2.8089   -1.2612   -0.8846 N   0  0  0  0  0  0  0  0  0  0  0  0
    3.6094   -2.3913   -0.4328 C   0  0  0  0  0  0  0  0  0  0  0  0
    3.3681   -3.6150   -1.3256 C   0  0  0  0  0  0  0  0  0  0  0  0
    3.6190   -3.2645   -2.7138 N   0  0  0  0  0  0  0  0  0  0  0  0
    4.0532   -4.2272   -3.6530 C   0  0  0  0  0  0  0  0  0  0  0  0
    4.9576   -3.8439   -4.6603 C   0  0  0  0  0  0  0  0  0  0  0  0
    5.4021   -4.7524   -5.6216 C   0  0  0  0  0  0  0  0  0  0  0  0
    4.9892   -6.0839   -5.5765 C   0  0  0  0  0  0  0  0  0  0  0  0
    4.1035   -6.4948   -4.5768 C   0  0  0  0  0  0  0  0  0  0  0  0
    3.6049   -5.5683   -3.6370 C   0  0  0  0  0  0  0  0  0  0  0  0
    2.6719   -5.9455   -2.7017 O   0  0  0  0  0  0  0  0  0  0  0  0
    2.0232   -7.1770   -2.9712 C   0  0  0  0  0  0  0  0  0  0  0  0
    3.0445   -8.2212   -3.3841 C   0  0  0  0  0  0  0  0  0  0  0  0
    3.7090   -7.8057   -4.5639 O   0  0  0  0  0  0  0  0  0  0  0  0
    2.7960   -2.1510   -3.1759 C   0  0  0  0  0  0  0  0  0  0  0  0
    3.0050   -0.9227   -2.2907 C   0  0  0  0  0  0  0  0  0  0  0  0
    2.8385   -0.8578    1.8350 H   0  0  0  0  0  0  0  0  0  0  0  0
    1.4688   -1.8944    1.4492 H   0  0  0  0  0  0  0  0  0  0  0  0
   -0.0742    0.1034    1.6068 H   0  0  0  0  0  0  0  0  0  0  0  0
    1.2853    1.1204    2.0404 H   0  0  0  0  0  0  0  0  0  0  0  0
    0.3309   -1.3167    3.6511 H   0  0  0  0  0  0  0  0  0  0  0  0
    2.6143    0.6452    4.1641 H   0  0  0  0  0  0  0  0  0  0  0  0
    2.5926   -1.1058    4.4401 H   0  0  0  0  0  0  0  0  0  0  0  0
    3.0627   -0.4301    7.1869 H   0  0  0  0  0  0  0  0  0  0  0  0
    1.7893    0.1532    9.2509 H   0  0  0  0  0  0  0  0  0  0  0  0
   -0.5507    0.9766    9.0917 H   0  0  0  0  0  0  0  0  0  0  0  0
   -1.6494    1.2282    6.8665 H   0  0  0  0  0  0  0  0  0  0  0  0
   -0.2646    1.6591    3.9671 H   0  0  0  0  0  0  0  0  0  0  0  0
   -1.3720    0.2905    4.1577 H   0  0  0  0  0  0  0  0  0  0  0  0
    3.3633   -2.6449    0.6047 H   0  0  0  0  0  0  0  0  0  0  0  0
    4.6833   -2.1238   -0.4710 H   0  0  0  0  0  0  0  0  0  0  0  0
    2.3322   -3.9747   -1.1629 H   0  0  0  0  0  0  0  0  0  0  0  0
    4.0476   -4.4257   -1.0269 H   0  0  0  0  0  0  0  0  0  0  0  0
    5.3200   -2.8140   -4.6624 H   0  0  0  0  0  0  0  0  0  0  0  0
    6.1010   -4.4268   -6.3955 H   0  0  0  0  0  0  0  0  0  0  0  0
    5.3403   -6.8266   -6.2952 H   0  0  0  0  0  0  0  0  0  0  0  0
    1.2767   -7.0451   -3.7773 H   0  0  0  0  0  0  0  0  0  0  0  0
    1.4982   -7.4710   -2.0503 H   0  0  0  0  0  0  0  0  0  0  0  0
    2.5634   -9.1850   -3.6076 H   0  0  0  0  0  0  0  0  0  0  0  0
    3.7751   -8.3733   -2.5667 H   0  0  0  0  0  0  0  0  0  0  0  0
    1.7178   -2.4245   -3.1677 H   0  0  0  0  0  0  0  0  0  0  0  0
    3.0638   -1.9057   -4.2133 H   0  0  0  0  0  0  0  0  0  0  0  0
    2.2982   -0.1228   -2.5430 H   0  0  0  0  0  0  0  0  0  0  0  0
    4.0345   -0.5431   -2.4360 H   0  0  0  0  0  0  0  0  0  0  0  0
  1  2  2  0
  2  3  1  0
  2 14  1  0
  3  4  1  0
  3 30  1  0
  3 31  1  0
  4  5  1  0
  4 32  1  0
  4 33  1  0
  5  6  1  0
  5 13  1  0
  5 34  1  6
  6  7  1  0
  6 35  1  0
  6 36  1  0
  7  8  1  0
  7 12  2  0
  8  9  2  0
  8 37  1  0
  9 10  1  0
  9 38  1  0
 10 11  2  0
 10 39  1  0
 11 12  1  0
 11 40  1  0
 12 13  1  0
 13 41  1  0
 13 42  1  0
 14 15  1  0
 14 29  1  0
 15 16  1  0
 15 43  1  0
 15 44  1  0
 16 17  1  0
 16 45  1  0
 16 46  1  0
 17 18  1  0
 17 28  1  0
 18 19  2  0
 18 23  1  0
 19 20  1  0
 19 47  1  0
 20 21  2  0
 20 48  1  0
 21 22  1  0
 21 49  1  0
 22 23  2  0
 22 27  1  0
 23 24  1  0
 24 25  1  0
 25 26  1  0
 25 50  1  0
 25 51  1  0
 26 27  1  0
 26 52  1  0
 26 53  1  0
 28 29  1  0
 28 54  1  0
 28 55  1  0
 29 56  1  0
 29 57  1  0
M  END

