
     RDKit          3D

 43 46  0  0  0  0  0  0  0  0999 V2000
    0.2678    0.8861   -0.0996 C   0  0  0  0  0  0  0  0  0  0  0  0
    1.6629    0.2557   -0.0925 C   0  0  1  0  0  0  0  0  0  0  0  0
    1.7130   -0.9251   -1.0922 C   0  0  0  0  0  0  0  0  0  0  0  0
    1.6038   -0.7035   -2.2900 O   0  0  0  0  0  0  0  0  0  0  0  0
    1.8570   -2.1839   -0.5959 N   0  0  0  0  0  0  0  0  0  0  0  0
    1.8451   -3.3243   -1.5190 C   0  0  0  0  0  0  0  0  0  0  0  0
    2.4443   -4.5161   -0.7318 C   0  0  1  0  0  0  0  0  0  0  0  0
    3.7208   -5.0940   -1.3662 C   0  0  0  0  0  0  0  0  0  0  0  0
    4.8082   -4.0859   -0.9673 C   0  0  0  0  0  0  0  0  0  0  0  0
    4.4557   -3.7137    0.4873 C   0  0  0  0  0  0  0  0  0  0  0  0
    2.9137   -3.9074    0.6282 C   0  0  1  0  0  0  0  0  0  0  0  0
    2.1035   -2.6129    0.7825 C   0  0  0  0  0  0  0  0  0  0  0  0
    2.7418    1.1927   -0.4237 N   0  0  0  0  0  0  0  0  0  0  0  0
    2.7046    2.2807   -1.3284 C   0  0  0  0  0  0  0  0  0  0  0  0
    1.7382    2.7229   -1.8960 O   0  0  0  0  0  0  0  0  0  0  0  0
    4.1127    2.7870   -1.3945 C   0  0  0  0  0  0  0  0  0  0  0  0
    4.6500    3.8486   -2.1125 C   0  0  0  0  0  0  0  0  0  0  0  0
    6.0213    4.1044   -1.9753 C   0  0  0  0  0  0  0  0  0  0  0  0
    6.8108    3.3064   -1.1320 C   0  0  0  0  0  0  0  0  0  0  0  0
    8.6690    3.6876   -0.9724 Br  0  0  0  0  0  0  0  0  0  0  0  0
    6.2695    2.2360   -0.4040 C   0  0  0  0  0  0  0  0  0  0  0  0
    4.9091    2.0026   -0.5603 C   0  0  0  0  0  0  0  0  0  0  0  0
    4.0372    0.9576    0.0562 C   0  0  0  0  0  0  0  0  0  0  0  0
    4.3491    0.0668    0.8178 O   0  0  0  0  0  0  0  0  0  0  0  0
   -0.4543    0.1465    0.2801 H   0  0  0  0  0  0  0  0  0  0  0  0
   -0.0236    1.1843   -1.1130 H   0  0  0  0  0  0  0  0  0  0  0  0
    0.2332    1.7694    0.5554 H   0  0  0  0  0  0  0  0  0  0  0  0
    1.8921   -0.0862    0.9235 H   0  0  0  0  0  0  0  0  0  0  0  0
    2.4215   -3.0605   -2.4189 H   0  0  0  0  0  0  0  0  0  0  0  0
    0.8158   -3.5320   -1.8599 H   0  0  0  0  0  0  0  0  0  0  0  0
    1.6760   -5.2906   -0.5876 H   0  0  0  0  0  0  0  0  0  0  0  0
    3.6320   -5.2410   -2.4549 H   0  0  0  0  0  0  0  0  0  0  0  0
    3.9387   -6.0811   -0.9222 H   0  0  0  0  0  0  0  0  0  0  0  0
    4.7479   -3.1945   -1.6143 H   0  0  0  0  0  0  0  0  0  0  0  0
    5.8286   -4.4864   -1.0738 H   0  0  0  0  0  0  0  0  0  0  0  0
    4.7699   -2.6906    0.7437 H   0  0  0  0  0  0  0  0  0  0  0  0
    4.9729   -4.3922    1.1848 H   0  0  0  0  0  0  0  0  0  0  0  0
    2.6934   -4.5833    1.4678 H   0  0  0  0  0  0  0  0  0  0  0  0
    2.6588   -1.8502    1.3425 H   0  0  0  0  0  0  0  0  0  0  0  0
    1.1500   -2.8105    1.3095 H   0  0  0  0  0  0  0  0  0  0  0  0
    4.0230    4.4607   -2.7643 H   0  0  0  0  0  0  0  0  0  0  0  0
    6.4852    4.9259   -2.5237 H   0  0  0  0  0  0  0  0  0  0  0  0
    6.8830    1.6164    0.2515 H   0  0  0  0  0  0  0  0  0  0  0  0
  1  2  1  0
  1 25  1  0
  1 26  1  0
  1 27  1  0
  2  3  1  0
  2 13  1  0
  2 28  1  1
  3  4  2  0
  3  5  1  0
  5  6  1  0
  5 12  1  0
  6  7  1  0
  6 29  1  0
  6 30  1  0
  7  8  1  0
  7 11  1  0
  7 31  1  1
  8  9  1  0
  8 32  1  0
  8 33  1  0
  9 10  1  0
  9 34  1  0
  9 35  1  0
 10 11  1  0
 10 36  1  0
 10 37  1  0
 11 12  1  0
 11 38  1  1
 12 39  1  0
 12 40  1  0
 13 14  1  0
 13 23  1  0
 14 15  2  0
 14 16  1  0
 16 17  1  0
 16 22  2  0
 17 18  2  0
 17 41  1  0
 18 19  1  0
 18 42  1  0
 19 20  1  0
 19 21  2  0
 21 22  1  0
 21 43  1  0
 22 23  1  0
 23 24  2  0
M  END

