
     RDKit          3D

 50 53  0  0  0  0  0  0  0  0999 V2000
    1.0100    0.2394   -0.2733 C   0  0  0  0  0  0  0  0  0  0  0  0
    2.5062    0.1139   -0.4391 C   0  0  0  0  0  0  0  0  0  0  0  0
    3.2809    1.2423   -0.7374 C   0  0  0  0  0  0  0  0  0  0  0  0
    4.6730    1.1200   -0.8999 C   0  0  0  0  0  0  0  0  0  0  0  0
    5.5304    2.1961   -1.1859 N   0  0  0  0  0  0  0  0  0  0  0  0
    5.3079    3.5267   -1.3988 C   0  0  0  0  0  0  0  0  0  0  0  0
    6.4308    4.2456   -1.6393 N   0  0  0  0  0  0  0  0  0  0  0  0
    6.2775    5.5417   -1.8504 C   0  0  0  0  0  0  0  0  0  0  0  0
    5.0242    6.1759   -1.8335 C   0  0  0  0  0  0  0  0  0  0  0  0
    3.9444    5.3364   -1.5795 C   0  0  0  0  0  0  0  0  0  0  0  0
    2.5150    5.8600   -1.5396 C   0  0  1  0  0  0  0  0  0  0  0  0
    2.4783    7.1931   -1.7017 F   0  0  0  0  0  0  0  0  0  0  0  0
    1.7766    5.3104   -2.5129 F   0  0  0  0  0  0  0  0  0  0  0  0
    1.9290    5.5734   -0.3706 F   0  0  0  0  0  0  0  0  0  0  0  0
    4.0675    4.0306   -1.3641 N   0  0  0  0  0  0  0  0  0  0  0  0
    5.2774   -0.1393   -0.7573 C   0  0  0  0  0  0  0  0  0  0  0  0
    4.5129   -1.2811   -0.4680 C   0  0  0  0  0  0  0  0  0  0  0  0
    5.1669   -2.5931   -0.3481 C   0  0  0  0  0  0  0  0  0  0  0  0
    6.3521   -3.0246   -0.9056 C   0  0  0  0  0  0  0  0  0  0  0  0
    6.7310   -4.3058   -0.6211 N   0  0  0  0  0  0  0  0  0  0  0  0
    5.8686   -4.9031    0.1554 C   0  0  0  0  0  0  0  0  0  0  0  0
    6.0092   -6.3284    0.6032 C   0  0  0  0  0  0  0  0  0  0  0  0
    5.9477   -6.5237    2.1375 C   0  0  1  0  0  0  0  0  0  0  0  0
    4.7074   -6.1048    2.6385 O   0  0  0  0  0  0  0  0  0  0  0  0
    6.2015   -7.9838    2.4981 C   0  0  0  0  0  0  0  0  0  0  0  0
    7.4647   -8.5859    2.4120 C   0  0  0  0  0  0  0  0  0  0  0  0
    7.5937   -9.9345    2.7380 C   0  0  0  0  0  0  0  0  0  0  0  0
    6.4506  -10.6343    3.1382 C   0  0  0  0  0  0  0  0  0  0  0  0
    6.5474  -12.4741    3.6007 Br  0  0  0  0  0  0  0  0  0  0  0  0
    5.2282   -9.9594    3.2016 C   0  0  0  0  0  0  0  0  0  0  0  0
    5.1222   -8.6677    2.8864 N   0  0  0  0  0  0  0  0  0  0  0  0
    4.5048   -3.8967    0.6104 S   0  0  0  0  0  0  0  0  0  0  0  0
    3.1235   -1.1368   -0.3092 C   0  0  0  0  0  0  0  0  0  0  0  0
    0.6844    1.2885   -0.3183 H   0  0  0  0  0  0  0  0  0  0  0  0
    0.6788   -0.1800    0.6908 H   0  0  0  0  0  0  0  0  0  0  0  0
    0.4758   -0.3135   -1.0644 H   0  0  0  0  0  0  0  0  0  0  0  0
    2.8155    2.2191   -0.8412 H   0  0  0  0  0  0  0  0  0  0  0  0
    6.5168    1.9678   -1.2509 H   0  0  0  0  0  0  0  0  0  0  0  0
    7.1894    6.1193   -2.0442 H   0  0  0  0  0  0  0  0  0  0  0  0
    4.9071    7.2442   -2.0064 H   0  0  0  0  0  0  0  0  0  0  0  0
    6.3627   -0.2257   -0.8506 H   0  0  0  0  0  0  0  0  0  0  0  0
    6.9756   -2.4199   -1.5670 H   0  0  0  0  0  0  0  0  0  0  0  0
    6.9704   -6.6825    0.2013 H   0  0  0  0  0  0  0  0  0  0  0  0
    5.2110   -6.9505    0.1611 H   0  0  0  0  0  0  0  0  0  0  0  0
    6.7443   -5.9068    2.5946 H   0  0  0  0  0  0  0  0  0  0  0  0
    4.2223   -6.9278    2.8446 H   0  0  0  0  0  0  0  0  0  0  0  0
    8.3371   -8.0062    2.1010 H   0  0  0  0  0  0  0  0  0  0  0  0
    8.5621  -10.4360    2.6880 H   0  0  0  0  0  0  0  0  0  0  0  0
    4.3188  -10.4801    3.5175 H   0  0  0  0  0  0  0  0  0  0  0  0
    2.5122   -2.0173   -0.0952 H   0  0  0  0  0  0  0  0  0  0  0  0
  1  2  1  0
  1 34  1  0
  1 35  1  0
  1 36  1  0
  2  3  2  0
  2 33  1  0
  3  4  1  0
  3 37  1  0
  4  5  1  0
  4 16  2  0
  5  6  1  0
  5 38  1  0
  6  7  2  0
  6 15  1  0
  7  8  1  0
  8  9  2  0
  8 39  1  0
  9 10  1  0
  9 40  1  0
 10 11  1  0
 10 15  2  0
 11 12  1  6
 11 13  1  0
 11 14  1  0
 16 17  1  0
 16 41  1  0
 17 18  1  0
 17 33  2  0
 18 19  2  0
 18 32  1  0
 19 20  1  0
 19 42  1  0
 20 21  2  0
 21 22  1  0
 21 32  1  0
 22 23  1  0
 22 43  1  0
 22 44  1  0
 23 24  1  0
 23 25  1  0
 23 45  1  1
 24 46  1  0
 25 26  2  0
 25 31  1  0
 26 27  1  0
 26 47  1  0
 27 28  2  0
 27 48  1  0
 28 29  1  0
 28 30  1  0
 30 31  2  0
 30 49  1  0
 33 50  1  0
M  END

