
     RDKit          3D

 42 43  0  0  0  0  0  0  0  0999 V2000
    9.1705    1.5323   -2.5980 C   0  0  0  0  0  0  0  0  0  0  0  0
    8.5422    0.4844   -1.8959 O   0  0  0  0  0  0  0  0  0  0  0  0
    7.2120    0.2906   -2.0654 C   0  0  0  0  0  0  0  0  0  0  0  0
    6.3894    1.0634   -2.8853 C   0  0  0  0  0  0  0  0  0  0  0  0
    5.0112    0.7866   -3.0075 C   0  0  0  0  0  0  0  0  0  0  0  0
    4.1521    1.6598   -3.9004 C   0  0  0  0  0  0  0  0  0  0  0  0
    3.8991    3.0048   -3.3636 N   0  0  0  0  0  0  0  0  0  0  0  0
    2.8649    3.0928   -2.3484 C   0  0  0  0  0  0  0  0  0  0  0  0
    4.6862    4.0384   -3.8026 C   0  0  0  0  0  0  0  0  0  0  0  0
    5.6370    3.8385   -4.5548 O   0  0  0  0  0  0  0  0  0  0  0  0
    4.3725    5.4579   -3.3234 C   0  0  1  0  0  0  0  0  0  0  0  0
    5.2427    5.8576   -2.1037 C   0  0  0  0  0  0  0  0  0  0  0  0
    5.4631    7.3628   -2.3311 C   0  0  0  0  0  0  0  0  0  0  0  0
    5.6220    7.5180   -3.7746 N   0  0  0  0  0  0  0  0  0  0  0  0
    4.7171    6.5400   -4.4114 C   0  0  2  0  0  0  0  0  0  0  0  0
    3.4635    7.2202   -4.9654 C   0  0  0  0  0  0  0  0  0  0  0  0
    4.4732   -0.2847   -2.2950 C   0  0  0  0  0  0  0  0  0  0  0  0
    5.2926   -1.0694   -1.4689 C   0  0  0  0  0  0  0  0  0  0  0  0
    6.6524   -0.7967   -1.3416 C   0  0  0  0  0  0  0  0  0  0  0  0
    7.4926   -1.5205   -0.5591 O   0  0  0  0  0  0  0  0  0  0  0  0
   10.2318    1.5043   -2.3165 H   0  0  0  0  0  0  0  0  0  0  0  0
    8.7523    2.5190   -2.3278 H   0  0  0  0  0  0  0  0  0  0  0  0
    9.0846    1.4047   -3.6922 H   0  0  0  0  0  0  0  0  0  0  0  0
    6.7981    1.8983   -3.4549 H   0  0  0  0  0  0  0  0  0  0  0  0
    3.1752    1.1754   -4.0641 H   0  0  0  0  0  0  0  0  0  0  0  0
    4.6369    1.7952   -4.8758 H   0  0  0  0  0  0  0  0  0  0  0  0
    1.8515    3.0208   -2.7860 H   0  0  0  0  0  0  0  0  0  0  0  0
    2.9330    4.0271   -1.7812 H   0  0  0  0  0  0  0  0  0  0  0  0
    2.9837    2.2651   -1.6300 H   0  0  0  0  0  0  0  0  0  0  0  0
    3.3096    5.5542   -3.0591 H   0  0  0  0  0  0  0  0  0  0  0  0
    6.2102    5.3302   -2.1497 H   0  0  0  0  0  0  0  0  0  0  0  0
    4.7733    5.6156   -1.1363 H   0  0  0  0  0  0  0  0  0  0  0  0
    6.3331    7.7677   -1.7908 H   0  0  0  0  0  0  0  0  0  0  0  0
    4.5782    7.9298   -1.9871 H   0  0  0  0  0  0  0  0  0  0  0  0
    6.5819    7.2848   -4.0229 H   0  0  0  0  0  0  0  0  0  0  0  0
    5.2546    6.0498   -5.2349 H   0  0  0  0  0  0  0  0  0  0  0  0
    2.9143    7.7559   -4.1730 H   0  0  0  0  0  0  0  0  0  0  0  0
    2.7776    6.4842   -5.4180 H   0  0  0  0  0  0  0  0  0  0  0  0
    3.7378    7.9566   -5.7358 H   0  0  0  0  0  0  0  0  0  0  0  0
    3.4107   -0.5279   -2.3835 H   0  0  0  0  0  0  0  0  0  0  0  0
    4.8665   -1.9117   -0.9138 H   0  0  0  0  0  0  0  0  0  0  0  0
    6.9915   -2.2285   -0.1338 H   0  0  0  0  0  0  0  0  0  0  0  0
  1  2  1  0
  1 21  1  0
  1 22  1  0
  1 23  1  0
  2  3  1  0
  3  4  2  0
  3 19  1  0
  4  5  1  0
  4 24  1  0
  5  6  1  0
  5 17  2  0
  6  7  1  0
  6 25  1  0
  6 26  1  0
  7  8  1  0
  7  9  1  0
  8 27  1  0
  8 28  1  0
  8 29  1  0
  9 10  2  0
  9 11  1  0
 11 12  1  0
 11 15  1  0
 11 30  1  1
 12 13  1  0
 12 31  1  0
 12 32  1  0
 13 14  1  0
 13 33  1  0
 13 34  1  0
 14 15  1  0
 14 35  1  0
 15 16  1  0
 15 36  1  6
 16 37  1  0
 16 38  1  0
 16 39  1  0
 17 18  1  0
 17 40  1  0
 18 19  2  0
 18 41  1  0
 19 20  1  0
 20 42  1  0
M  END

