
     RDKit          3D

 32 33  0  0  0  0  0  0  0  0999 V2000
    3.3884   -5.5017    1.3050 N   0  0  0  0  0  0  0  0  0  0  0  0
    2.6144   -4.4106    1.1242 C   0  0  0  0  0  0  0  0  0  0  0  0
    0.9421   -4.5980    1.1800 S   0  0  0  0  0  0  0  0  0  0  0  0
    3.3538   -3.1322    0.9453 C   0  0  0  0  0  0  0  0  0  0  0  0
    4.6049   -3.0050    1.5943 C   0  0  0  0  0  0  0  0  0  0  0  0
    5.4099   -1.8834    1.4500 C   0  0  0  0  0  0  0  0  0  0  0  0
    4.9731   -0.8446    0.6191 C   0  0  0  0  0  0  0  0  0  0  0  0
    3.7422   -0.9146   -0.0207 C   0  0  0  0  0  0  0  0  0  0  0  0
    2.8949   -2.0343    0.1446 C   0  0  0  0  0  0  0  0  0  0  0  0
    1.6445   -2.0913   -0.4488 N   0  0  0  0  0  0  0  0  0  0  0  0
    1.0708   -1.2165   -1.3685 C   0  0  0  0  0  0  0  0  0  0  0  0
    1.6284   -0.2422   -1.8479 O   0  0  0  0  0  0  0  0  0  0  0  0
   -0.2197   -1.5770   -1.6883 N   0  0  0  0  0  0  0  0  0  0  0  0
   -1.0293   -0.8366   -2.6180 C   0  0  1  0  0  0  0  0  0  0  0  0
   -1.6815   -1.5678   -3.8226 C   0  0  0  0  0  0  0  0  0  0  0  0
   -2.9254   -0.6607   -3.6349 C   0  0  0  0  0  0  0  0  0  0  0  0
   -2.4432   -0.3571   -2.1925 C   0  0  0  0  0  0  0  0  0  0  0  0
    2.9301   -6.3942    1.4511 H   0  0  0  0  0  0  0  0  0  0  0  0
    4.3879   -5.4798    1.1437 H   0  0  0  0  0  0  0  0  0  0  0  0
    4.9320   -3.8028    2.2646 H   0  0  0  0  0  0  0  0  0  0  0  0
    6.3608   -1.8154    1.9828 H   0  0  0  0  0  0  0  0  0  0  0  0
    5.5935    0.0446    0.4791 H   0  0  0  0  0  0  0  0  0  0  0  0
    3.3945   -0.1069   -0.6601 H   0  0  0  0  0  0  0  0  0  0  0  0
    1.0617   -2.8565   -0.0918 H   0  0  0  0  0  0  0  0  0  0  0  0
   -0.6210   -2.4055   -1.2628 H   0  0  0  0  0  0  0  0  0  0  0  0
   -0.4129    0.0070   -2.9575 H   0  0  0  0  0  0  0  0  0  0  0  0
   -1.9066   -2.6183   -3.5732 H   0  0  0  0  0  0  0  0  0  0  0  0
   -1.1483   -1.5437   -4.7856 H   0  0  0  0  0  0  0  0  0  0  0  0
   -3.9151   -1.1263   -3.7515 H   0  0  0  0  0  0  0  0  0  0  0  0
   -2.8826    0.2320   -4.2779 H   0  0  0  0  0  0  0  0  0  0  0  0
   -2.8929   -1.0502   -1.4619 H   0  0  0  0  0  0  0  0  0  0  0  0
   -2.5406    0.6692   -1.8059 H   0  0  0  0  0  0  0  0  0  0  0  0
  1  2  1  0
  1 18  1  0
  1 19  1  0
  2  3  2  0
  2  4  1  0
  4  5  2  0
  4  9  1  0
  5  6  1  0
  5 20  1  0
  6  7  2  0
  6 21  1  0
  7  8  1  0
  7 22  1  0
  8  9  2  0
  8 23  1  0
  9 10  1  0
 10 11  1  0
 10 24  1  0
 11 12  2  0
 11 13  1  0
 13 14  1  0
 13 25  1  0
 14 15  1  0
 14 17  1  0
 14 26  1  6
 15 16  1  0
 15 27  1  0
 15 28  1  0
 16 17  1  0
 16 29  1  0
 16 30  1  0
 17 31  1  0
 17 32  1  0
M  END

