
     RDKit          3D

 23 25  0  0  0  0  0  0  0  0999 V2000
    2.1788   -0.5694    0.8586 C   0  0  0  0  0  0  0  0  0  0  0  0
    3.1822   -0.5151   -0.2842 C   0  0  1  0  0  0  0  0  0  0  0  0
    4.3069   -1.7102   -0.2225 C   0  0  0  0  0  0  0  0  0  0  0  0
    4.3298   -2.3824   -1.6898 C   0  0  1  0  0  0  0  0  0  0  0  0
    4.8187   -3.3660   -1.7061 H   0  0  0  0  0  0  0  0  0  0  0  0
    2.8284   -2.3169   -1.9779 C   0  0  0  0  0  0  0  0  0  0  0  0
    2.7682   -0.8178   -1.7357 C   0  0  2  0  0  0  0  0  0  0  0  0
    1.9120   -0.2520   -2.1278 H   0  0  0  0  0  0  0  0  0  0  0  0
    4.1273   -0.2398   -2.2051 C   0  0  2  0  0  0  0  0  0  0  0  0
    4.8457   -0.3587   -1.3952 H   0  0  0  0  0  0  0  0  0  0  0  0
    3.9550    1.1790   -1.9304 O   0  0  0  0  0  0  0  0  0  0  0  0
    3.5982    1.0190   -0.5679 C   0  0  0  0  0  0  0  0  0  0  0  0
    3.5040    1.9459    0.1726 O   0  0  0  0  0  0  0  0  0  0  0  0
    4.9208   -1.3737   -2.8226 C   0  0  2  0  0  0  0  0  0  0  0  0
    6.0067   -1.2374   -2.7619 H   0  0  0  0  0  0  0  0  0  0  0  0
    4.6505   -2.0610   -4.9112 I   0  0  0  0  0  0  0  0  0  0  0  0
    1.7355   -1.5735    0.9475 H   0  0  0  0  0  0  0  0  0  0  0  0
    1.3663    0.1576    0.7093 H   0  0  0  0  0  0  0  0  0  0  0  0
    2.6656   -0.3245    1.8157 H   0  0  0  0  0  0  0  0  0  0  0  0
    3.9582   -2.4767    0.4888 H   0  0  0  0  0  0  0  0  0  0  0  0
    5.2970   -1.3799    0.1315 H   0  0  0  0  0  0  0  0  0  0  0  0
    2.2258   -2.9018   -1.2663 H   0  0  0  0  0  0  0  0  0  0  0  0
    2.5532   -2.6115   -2.9984 H   0  0  0  0  0  0  0  0  0  0  0  0
  2  1  1  1
  1 17  1  0
  1 18  1  0
  1 19  1  0
  2  3  1  0
  2  7  1  0
  2 12  1  0
  3  4  1  0
  3 20  1  0
  3 21  1  0
  4  5  1  1
  4  6  1  0
  4 14  1  0
  6  7  1  0
  6 22  1  0
  6 23  1  0
  7  8  1  6
  7  9  1  0
  9 10  1  1
  9 11  1  0
  9 14  1  0
 11 12  1  0
 12 13  2  0
 14 15  1  1
 14 16  1  0
M  END

