
     RDKit          3D

 48 49  0  0  0  0  0  0  0  0999 V2000
   -0.3088   -1.1922   -1.0773 C   0  0  0  0  0  0  0  0  0  0  0  0
    1.1637   -0.8788   -0.8690 C   0  0  1  0  0  0  0  0  0  0  0  0
    1.3499    0.4319   -0.2713 O   0  0  0  0  0  0  0  0  0  0  0  0
    1.0274    0.6215    1.0138 C   0  0  0  0  0  0  0  0  0  0  0  0
    0.6357   -0.2399    1.7640 O   0  0  0  0  0  0  0  0  0  0  0  0
    1.2093    2.0736    1.4098 C   0  0  0  0  0  0  0  0  0  0  0  0
    0.9652    2.2185    2.8201 N   0  0  0  0  0  0  0  0  0  0  0  0
    1.1601    3.4124    3.4499 C   0  0  0  0  0  0  0  0  0  0  0  0
    1.5441    4.4022    2.8416 O   0  0  0  0  0  0  0  0  0  0  0  0
    0.8741    3.4497    4.9283 C   0  0  0  0  0  0  0  0  0  0  0  0
    0.7464    2.3057    5.7318 C   0  0  0  0  0  0  0  0  0  0  0  0
    0.4908    2.4169    7.1001 C   0  0  0  0  0  0  0  0  0  0  0  0
    0.3623    3.6868    7.6697 C   0  0  0  0  0  0  0  0  0  0  0  0
    0.0083    3.8469    9.5349 Br  0  0  0  0  0  0  0  0  0  0  0  0
    0.4966    4.8406    6.8901 C   0  0  0  0  0  0  0  0  0  0  0  0
    0.7574    4.7135    5.5266 C   0  0  0  0  0  0  0  0  0  0  0  0
    1.8940   -2.0144   -0.1111 C   0  0  0  0  0  0  0  0  0  0  0  0
    1.3085   -3.0650    0.0992 O   0  0  0  0  0  0  0  0  0  0  0  0
    3.1982   -1.8141    0.2581 N   0  0  0  0  0  0  0  0  0  0  0  0
    4.0546   -0.7168   -0.1609 C   0  0  0  0  0  0  0  0  0  0  0  0
    3.8390   -2.8461    1.0811 C   0  0  0  0  0  0  0  0  0  0  0  0
    4.7098   -3.8102    0.2954 C   0  0  0  0  0  0  0  0  0  0  0  0
    6.1056   -3.8005    0.4305 C   0  0  0  0  0  0  0  0  0  0  0  0
    6.8986   -4.6915   -0.3022 C   0  0  0  0  0  0  0  0  0  0  0  0
    6.3105   -5.6020   -1.1812 C   0  0  0  0  0  0  0  0  0  0  0  0
    4.9207   -5.6014   -1.3054 C   0  0  0  0  0  0  0  0  0  0  0  0
    4.3463   -6.4773   -2.1436 F   0  0  0  0  0  0  0  0  0  0  0  0
    4.1128   -4.7281   -0.5854 C   0  0  0  0  0  0  0  0  0  0  0  0
   -0.7894   -0.3672   -1.6240 H   0  0  0  0  0  0  0  0  0  0  0  0
   -0.8149   -1.3514   -0.1167 H   0  0  0  0  0  0  0  0  0  0  0  0
   -0.4072   -2.1151   -1.6643 H   0  0  0  0  0  0  0  0  0  0  0  0
    1.6538   -0.7622   -1.8486 H   0  0  0  0  0  0  0  0  0  0  0  0
    0.5265    2.6917    0.7962 H   0  0  0  0  0  0  0  0  0  0  0  0
    2.2245    2.4096    1.1394 H   0  0  0  0  0  0  0  0  0  0  0  0
    0.5455    1.4202    3.2844 H   0  0  0  0  0  0  0  0  0  0  0  0
    0.8700    1.3055    5.3091 H   0  0  0  0  0  0  0  0  0  0  0  0
    0.3984    1.5239    7.7202 H   0  0  0  0  0  0  0  0  0  0  0  0
    0.4001    5.8264    7.3479 H   0  0  0  0  0  0  0  0  0  0  0  0
    0.8788    5.5955    4.8949 H   0  0  0  0  0  0  0  0  0  0  0  0
    3.5781   -0.0983   -0.9277 H   0  0  0  0  0  0  0  0  0  0  0  0
    4.9928   -1.1179   -0.5791 H   0  0  0  0  0  0  0  0  0  0  0  0
    4.3157   -0.0617    0.6902 H   0  0  0  0  0  0  0  0  0  0  0  0
    3.0341   -3.3961    1.5859 H   0  0  0  0  0  0  0  0  0  0  0  0
    4.4466   -2.3385    1.8479 H   0  0  0  0  0  0  0  0  0  0  0  0
    6.5780   -3.0961    1.1207 H   0  0  0  0  0  0  0  0  0  0  0  0
    7.9853   -4.6766   -0.1874 H   0  0  0  0  0  0  0  0  0  0  0  0
    6.9022   -6.3092   -1.7656 H   0  0  0  0  0  0  0  0  0  0  0  0
    3.0277   -4.7650   -0.7008 H   0  0  0  0  0  0  0  0  0  0  0  0
  1  2  1  0
  1 29  1  0
  1 30  1  0
  1 31  1  0
  2  3  1  0
  2 17  1  0
  2 32  1  6
  3  4  1  0
  4  5  2  0
  4  6  1  0
  6  7  1  0
  6 33  1  0
  6 34  1  0
  7  8  1  0
  7 35  1  0
  8  9  2  0
  8 10  1  0
 10 11  2  0
 10 16  1  0
 11 12  1  0
 11 36  1  0
 12 13  2  0
 12 37  1  0
 13 14  1  0
 13 15  1  0
 15 16  2  0
 15 38  1  0
 16 39  1  0
 17 18  2  0
 17 19  1  0
 19 20  1  0
 19 21  1  0
 20 40  1  0
 20 41  1  0
 20 42  1  0
 21 22  1  0
 21 43  1  0
 21 44  1  0
 22 23  2  0
 22 28  1  0
 23 24  1  0
 23 45  1  0
 24 25  2  0
 24 46  1  0
 25 26  1  0
 25 47  1  0
 26 27  1  0
 26 28  2  0
 28 48  1  0
M  END

