
     RDKit          3D

 45 49  0  0  0  0  0  0  0  0999 V2000
    2.9556   -1.1240    0.6812 C   0  0  0  0  0  0  0  0  0  0  0  0
    4.3272   -0.6259    0.3443 C   0  0  0  0  0  0  0  0  0  0  0  0
    4.6721    0.5632   -0.2972 C   0  0  0  0  0  0  0  0  0  0  0  0
    6.0841    0.6150   -0.4004 C   0  0  0  0  0  0  0  0  0  0  0  0
    6.9279    1.6837   -1.0099 C   0  0  0  0  0  0  0  0  0  0  0  0
    6.6082   -0.4980    0.1560 N   0  0  0  0  0  0  0  0  0  0  0  0
    5.5613   -1.2874    0.6252 C   0  0  0  0  0  0  0  0  0  0  0  0
    5.8177   -2.5057    1.2542 C   0  0  0  0  0  0  0  0  0  0  0  0
    7.1112   -2.9806    1.4446 C   0  0  0  0  0  0  0  0  0  0  0  0
    7.5925   -4.1858    2.0680 C   0  0  0  0  0  0  0  0  0  0  0  0
    6.9570   -5.2815    2.6807 C   0  0  0  0  0  0  0  0  0  0  0  0
    7.7489   -6.3018    3.1940 C   0  0  0  0  0  0  0  0  0  0  0  0
    9.1617   -6.2538    3.1106 C   0  0  0  0  0  0  0  0  0  0  0  0
    9.8041   -5.1796    2.5098 C   0  0  0  0  0  0  0  0  0  0  0  0
    9.0127   -4.1417    1.9862 C   0  0  0  0  0  0  0  0  0  0  0  0
    9.3504   -2.9108    1.3153 C   0  0  0  0  0  0  0  0  0  0  0  0
   10.6399   -2.4397    1.0168 C   0  0  0  0  0  0  0  0  0  0  0  0
   11.7704   -2.0468    0.7711 C   0  0  0  0  0  0  0  0  0  0  0  0
   13.0569   -1.5263    0.4570 C   0  0  0  0  0  0  0  0  0  0  0  0
   14.2325   -2.2530    0.7493 C   0  0  0  0  0  0  0  0  0  0  0  0
   15.4821   -1.7233    0.4328 C   0  0  0  0  0  0  0  0  0  0  0  0
   15.5822   -0.4673   -0.1768 C   0  0  0  0  0  0  0  0  0  0  0  0
   14.4231    0.2609   -0.4699 C   0  0  0  0  0  0  0  0  0  0  0  0
   13.1681   -0.2583   -0.1584 C   0  0  0  0  0  0  0  0  0  0  0  0
    8.2101   -2.2514    1.0085 N   0  0  0  0  0  0  0  0  0  0  0  0
    8.1273   -0.8606    0.2451 B   0  0  1  0  0  0  0  0  0  0  0  0
    8.6593   -1.0037   -1.0249 F   0  0  0  0  0  0  0  0  0  0  0  0
    8.8084    0.1022    0.9703 F   0  0  0  0  0  0  0  0  0  0  0  0
    2.8225   -1.2520    1.7689 H   0  0  0  0  0  0  0  0  0  0  0  0
    2.7484   -2.1011    0.2129 H   0  0  0  0  0  0  0  0  0  0  0  0
    2.1863   -0.4195    0.3336 H   0  0  0  0  0  0  0  0  0  0  0  0
    3.9900    1.3298   -0.6620 H   0  0  0  0  0  0  0  0  0  0  0  0
    7.5424    1.2712   -1.8261 H   0  0  0  0  0  0  0  0  0  0  0  0
    6.3033    2.4966   -1.4036 H   0  0  0  0  0  0  0  0  0  0  0  0
    7.6305    2.0926   -0.2665 H   0  0  0  0  0  0  0  0  0  0  0  0
    4.9789   -3.1055    1.6122 H   0  0  0  0  0  0  0  0  0  0  0  0
    5.8680   -5.3350    2.7541 H   0  0  0  0  0  0  0  0  0  0  0  0
    7.2738   -7.1615    3.6734 H   0  0  0  0  0  0  0  0  0  0  0  0
    9.7494   -7.0757    3.5264 H   0  0  0  0  0  0  0  0  0  0  0  0
   10.8934   -5.1352    2.4419 H   0  0  0  0  0  0  0  0  0  0  0  0
   14.1508   -3.2327    1.2246 H   0  0  0  0  0  0  0  0  0  0  0  0
   16.3858   -2.2933    0.6626 H   0  0  0  0  0  0  0  0  0  0  0  0
   16.5642   -0.0558   -0.4233 H   0  0  0  0  0  0  0  0  0  0  0  0
   14.4991    1.2419   -0.9455 H   0  0  0  0  0  0  0  0  0  0  0  0
   12.2581    0.3020   -0.3818 H   0  0  0  0  0  0  0  0  0  0  0  0
  1  2  1  0
  1 29  1  0
  1 30  1  0
  1 31  1  0
  2  3  1  0
  2  7  2  0
  3  4  2  0
  3 32  1  0
  4  5  1  0
  4  6  1  0
  5 33  1  0
  5 34  1  0
  5 35  1  0
  6  7  1  0
  6 26  1  0
  7  8  1  0
  8  9  2  0
  8 36  1  0
  9 10  1  0
  9 25  1  0
 10 11  2  0
 10 15  1  0
 11 12  1  0
 11 37  1  0
 12 13  2  0
 12 38  1  0
 13 14  1  0
 13 39  1  0
 14 15  2  0
 14 40  1  0
 15 16  1  0
 16 17  1  0
 16 25  2  0
 17 18  3  0
 18 19  1  0
 19 20  2  0
 19 24  1  0
 20 21  1  0
 20 41  1  0
 21 22  2  0
 21 42  1  0
 22 23  1  0
 22 43  1  0
 23 24  2  0
 23 44  1  0
 24 45  1  0
 25 26  1  0
 26 27  1  6
 26 28  1  0
M  CHG  2  25   1  26  -1
M  END

