
     RDKit          3D

 20 20  0  0  0  0  0  0  0  0999 V2000
    0.8985   -0.1843   -0.0969 O   0  0  0  0  0  0  0  0  0  0  0  0
    2.0023    0.1061    0.2854 C   0  0  0  0  0  0  0  0  0  0  0  0
    2.9903   -0.8711    0.9138 C   0  0  1  0  0  0  0  0  0  0  0  0
    2.5575   -2.3383    0.7567 C   0  0  0  0  0  0  0  0  0  0  0  0
    2.7729   -2.8560   -0.6730 C   0  0  0  0  0  0  0  0  0  0  0  0
    4.2139   -2.6333   -1.1516 C   0  0  0  0  0  0  0  0  0  0  0  0
    4.6239   -1.1799   -0.9918 C   0  0  2  0  0  0  0  0  0  0  0  0
    3.8753   -0.4069   -1.8574 F   0  0  0  0  0  0  0  0  0  0  0  0
    5.9278   -1.0145   -1.3670 F   0  0  0  0  0  0  0  0  0  0  0  0
    4.4282   -0.6359    0.4150 C   0  0  0  0  0  0  0  0  0  0  0  0
    2.3662    1.1674    0.2430 H   0  0  0  0  0  0  0  0  0  0  0  0
    2.9699   -0.5965    1.9875 H   0  0  0  0  0  0  0  0  0  0  0  0
    1.4968   -2.4326    1.0323 H   0  0  0  0  0  0  0  0  0  0  0  0
    3.1365   -2.9546    1.4667 H   0  0  0  0  0  0  0  0  0  0  0  0
    2.0806   -2.3378   -1.3546 H   0  0  0  0  0  0  0  0  0  0  0  0
    2.5257   -3.9280   -0.7280 H   0  0  0  0  0  0  0  0  0  0  0  0
    4.3407   -2.9084   -2.2103 H   0  0  0  0  0  0  0  0  0  0  0  0
    4.9220   -3.2421   -0.5649 H   0  0  0  0  0  0  0  0  0  0  0  0
    4.6897    0.4350    0.4066 H   0  0  0  0  0  0  0  0  0  0  0  0
    5.1462   -1.1430    1.0778 H   0  0  0  0  0  0  0  0  0  0  0  0
  1  2  2  0
  2  3  1  0
  2 11  1  0
  3  4  1  0
  3 10  1  0
  3 12  1  1
  4  5  1  0
  4 13  1  0
  4 14  1  0
  5  6  1  0
  5 15  1  0
  5 16  1  0
  6  7  1  0
  6 17  1  0
  6 18  1  0
  7  8  1  6
  7  9  1  0
  7 10  1  0
 10 19  1  0
 10 20  1  0
M  END

