
     RDKit          3D

 43 45  0  0  0  0  0  0  0  0999 V2000
    5.2218   -3.3488    2.7262 C   0  0  0  0  0  0  0  0  0  0  0  0
    4.7366   -2.9521    1.4179 N   0  0  0  0  0  0  0  0  0  0  0  0
    5.5048   -2.7409    0.2872 C   0  0  0  0  0  0  0  0  0  0  0  0
    4.6229   -2.3624   -0.6980 C   0  0  0  0  0  0  0  0  0  0  0  0
    3.3442   -2.3316   -0.2036 N   0  0  0  0  0  0  0  0  0  0  0  0
    3.4373   -2.6902    1.0591 C   0  0  0  0  0  0  0  0  0  0  0  0
    2.2691   -2.7343    2.0179 C   0  0  0  0  0  0  0  0  0  0  0  0
    0.9867   -2.8204    1.3615 N   0  0  0  0  0  0  0  0  0  0  0  0
    0.5108   -3.9990    0.7970 C   0  0  0  0  0  0  0  0  0  0  0  0
    1.0234   -5.2734    1.1111 C   0  0  0  0  0  0  0  0  0  0  0  0
    0.4635   -6.4311    0.5626 C   0  0  0  0  0  0  0  0  0  0  0  0
   -0.6107   -6.3423   -0.3108 C   0  0  0  0  0  0  0  0  0  0  0  0
   -1.1272   -7.4608   -0.8476 F   0  0  0  0  0  0  0  0  0  0  0  0
   -1.1276   -5.0863   -0.6494 C   0  0  0  0  0  0  0  0  0  0  0  0
   -2.5549   -4.9316   -1.7362 S   0  0  1  0  0  0  0  0  0  0  0  0
   -3.6409   -5.7327   -1.1723 O   0  0  0  0  0  0  0  0  0  0  0  0
   -2.7210   -3.4986   -2.0009 O   0  0  0  0  0  0  0  0  0  0  0  0
   -2.0537   -5.6870   -3.1475 N   0  0  0  0  0  0  0  0  0  0  0  0
   -1.4633   -4.8776   -4.2146 C   0  0  0  0  0  0  0  0  0  0  0  0
   -0.5582   -5.7770   -5.0563 C   0  0  0  0  0  0  0  0  0  0  0  0
   -1.2482   -6.9155   -5.5269 O   0  0  0  0  0  0  0  0  0  0  0  0
   -1.7657   -7.6964   -4.4670 C   0  0  0  0  0  0  0  0  0  0  0  0
   -2.7397   -6.8968   -3.6057 C   0  0  0  0  0  0  0  0  0  0  0  0
   -0.5775   -3.9322   -0.0996 C   0  0  0  0  0  0  0  0  0  0  0  0
    6.2985   -3.5536    2.6646 H   0  0  0  0  0  0  0  0  0  0  0  0
    4.7196   -4.2646    3.0761 H   0  0  0  0  0  0  0  0  0  0  0  0
    5.0633   -2.5548    3.4739 H   0  0  0  0  0  0  0  0  0  0  0  0
    6.5830   -2.8839    0.2911 H   0  0  0  0  0  0  0  0  0  0  0  0
    4.8458   -2.1142   -1.7350 H   0  0  0  0  0  0  0  0  0  0  0  0
    2.2689   -1.8185    2.6377 H   0  0  0  0  0  0  0  0  0  0  0  0
    2.3777   -3.5637    2.7348 H   0  0  0  0  0  0  0  0  0  0  0  0
    0.7843   -2.0023    0.7959 H   0  0  0  0  0  0  0  0  0  0  0  0
    1.8746   -5.3791    1.7839 H   0  0  0  0  0  0  0  0  0  0  0  0
    0.8657   -7.4172    0.8043 H   0  0  0  0  0  0  0  0  0  0  0  0
   -0.8834   -4.0523   -3.7782 H   0  0  0  0  0  0  0  0  0  0  0  0
   -2.2518   -4.4338   -4.8522 H   0  0  0  0  0  0  0  0  0  0  0  0
    0.3191   -6.0809   -4.4485 H   0  0  0  0  0  0  0  0  0  0  0  0
   -0.1971   -5.2300   -5.9407 H   0  0  0  0  0  0  0  0  0  0  0  0
   -0.9434   -8.0720   -3.8247 H   0  0  0  0  0  0  0  0  0  0  0  0
   -2.2779   -8.5573   -4.9231 H   0  0  0  0  0  0  0  0  0  0  0  0
   -3.0623   -7.4825   -2.7361 H   0  0  0  0  0  0  0  0  0  0  0  0
   -3.6372   -6.6377   -4.2005 H   0  0  0  0  0  0  0  0  0  0  0  0
   -1.0112   -2.9699   -0.3788 H   0  0  0  0  0  0  0  0  0  0  0  0
  1  2  1  0
  1 25  1  0
  1 26  1  0
  1 27  1  0
  2  3  1  0
  2  6  1  0
  3  4  2  0
  3 28  1  0
  4  5  1  0
  4 29  1  0
  5  6  2  0
  6  7  1  0
  7  8  1  0
  7 30  1  0
  7 31  1  0
  8  9  1  0
  8 32  1  0
  9 10  2  0
  9 24  1  0
 10 11  1  0
 10 33  1  0
 11 12  2  0
 11 34  1  0
 12 13  1  0
 12 14  1  0
 15 14  1  1
 14 24  2  0
 15 16  2  0
 15 17  2  0
 15 18  1  0
 18 19  1  0
 18 23  1  0
 19 20  1  0
 19 35  1  0
 19 36  1  0
 20 21  1  0
 20 37  1  0
 20 38  1  0
 21 22  1  0
 22 23  1  0
 22 39  1  0
 22 40  1  0
 23 41  1  0
 23 42  1  0
 24 43  1  0
M  END

