
     RDKit          3D

 38 37  0  0  0  0  0  0  0  0999 V2000
    5.6860   -1.6522   -0.4089 C   0  0  0  0  0  0  0  0  0  0  0  0
    4.6589   -1.1012    0.5862 C   0  0  1  0  0  0  0  0  0  0  0  0
    4.4467   -2.0393    1.7799 C   0  0  0  0  0  0  0  0  0  0  0  0
    5.0307    0.2373    1.0346 N   0  0  0  0  0  0  0  0  0  0  0  0
    4.2598    1.3454    0.8311 C   0  0  0  0  0  0  0  0  0  0  0  0
    3.1869    1.3206    0.2481 O   0  0  0  0  0  0  0  0  0  0  0  0
    4.7883    2.6635    1.4525 C   0  0  1  0  0  0  0  0  0  0  0  0
    4.0761    2.8863    2.7935 C   0  0  0  0  0  0  0  0  0  0  0  0
    6.2224    2.8054    1.6257 N   0  0  0  0  0  0  0  0  0  0  0  0
    7.1177    2.7676    0.4699 C   0  0  1  0  0  0  0  0  0  0  0  0
    6.7648    3.8730   -0.5325 C   0  0  0  0  0  0  0  0  0  0  0  0
    8.5966    2.8483    0.9368 C   0  0  1  0  0  0  0  0  0  0  0  0
    8.9340    4.1391    1.6953 C   0  0  0  0  0  0  0  0  0  0  0  0
    9.0146    1.6101    1.7455 C   0  0  0  0  0  0  0  0  0  0  0  0
    5.3822   -2.6455   -0.7758 H   0  0  0  0  0  0  0  0  0  0  0  0
    6.6788   -1.7619    0.0619 H   0  0  0  0  0  0  0  0  0  0  0  0
    5.7910   -0.9829   -1.2763 H   0  0  0  0  0  0  0  0  0  0  0  0
    3.6981   -0.9605    0.0683 H   0  0  0  0  0  0  0  0  0  0  0  0
    5.3803   -2.1713    2.3544 H   0  0  0  0  0  0  0  0  0  0  0  0
    4.1206   -3.0362    1.4425 H   0  0  0  0  0  0  0  0  0  0  0  0
    3.6798   -1.6401    2.4610 H   0  0  0  0  0  0  0  0  0  0  0  0
    5.9217    0.3586    1.5026 H   0  0  0  0  0  0  0  0  0  0  0  0
    4.4342    3.4388    0.7558 H   0  0  0  0  0  0  0  0  0  0  0  0
    4.3733    2.1181    3.5285 H   0  0  0  0  0  0  0  0  0  0  0  0
    2.9864    2.8263    2.6628 H   0  0  0  0  0  0  0  0  0  0  0  0
    4.3398    3.8735    3.2010 H   0  0  0  0  0  0  0  0  0  0  0  0
    6.5707    2.2614    2.4106 H   0  0  0  0  0  0  0  0  0  0  0  0
    7.0302    1.8043   -0.0825 H   0  0  0  0  0  0  0  0  0  0  0  0
    6.7266    4.8588   -0.0439 H   0  0  0  0  0  0  0  0  0  0  0  0
    5.7880    3.6934   -1.0061 H   0  0  0  0  0  0  0  0  0  0  0  0
    7.5140    3.9089   -1.3392 H   0  0  0  0  0  0  0  0  0  0  0  0
    9.1931    2.8344    0.0068 H   0  0  0  0  0  0  0  0  0  0  0  0
    8.3215    4.2358    2.6050 H   0  0  0  0  0  0  0  0  0  0  0  0
    8.7561    5.0344    1.0808 H   0  0  0  0  0  0  0  0  0  0  0  0
    9.9949    4.1488    1.9937 H   0  0  0  0  0  0  0  0  0  0  0  0
    8.5374    1.5779    2.7408 H   0  0  0  0  0  0  0  0  0  0  0  0
   10.1018    1.6071    1.9233 H   0  0  0  0  0  0  0  0  0  0  0  0
    8.7634    0.6757    1.2156 H   0  0  0  0  0  0  0  0  0  0  0  0
  1  2  1  0
  1 15  1  0
  1 16  1  0
  1 17  1  0
  2  3  1  0
  2  4  1  0
  2 18  1  6
  3 19  1  0
  3 20  1  0
  3 21  1  0
  4  5  1  0
  4 22  1  0
  5  6  2  0
  5  7  1  0
  7  8  1  0
  7  9  1  0
  7 23  1  6
  8 24  1  0
  8 25  1  0
  8 26  1  0
  9 10  1  0
  9 27  1  0
 10 11  1  0
 10 12  1  0
 10 28  1  6
 11 29  1  0
 11 30  1  0
 11 31  1  0
 12 13  1  0
 12 14  1  0
 12 32  1  6
 13 33  1  0
 13 34  1  0
 13 35  1  0
 14 36  1  0
 14 37  1  0
 14 38  1  0
M  END

