
     RDKit          3D

 39 41  0  0  0  0  0  0  0  0999 V2000
    3.5815   -0.0979   -1.4479 O   0  0  0  0  0  0  0  0  0  0  0  0
    3.6021    0.8130   -0.3004 S   0  0  1  0  0  0  0  0  0  0  0  0
    2.9851    2.1427   -0.3450 O   0  0  0  0  0  0  0  0  0  0  0  0
    2.9724   -0.0734    0.9743 N   0  0  0  0  0  0  0  0  0  0  0  0
    2.2424    0.5798    2.0771 C   0  0  2  0  0  0  0  0  0  0  0  0
    2.3779   -0.2709    3.3572 C   0  0  0  0  0  0  0  0  0  0  0  0
    1.5385   -1.5613    3.3249 C   0  0  0  0  0  0  0  0  0  0  0  0
    0.0817   -1.2275    3.0080 C   0  0  2  0  0  0  0  0  0  0  0  0
   -0.9260   -2.3688    2.8123 C   0  0  0  0  0  0  0  0  0  0  0  0
   -2.0979   -1.7224    2.0152 C   0  0  0  0  0  0  0  0  0  0  0  0
   -1.5653   -0.3554    1.4925 C   0  0  0  0  0  0  0  0  0  0  0  0
   -0.0458   -0.4325    1.6976 C   0  0  1  0  0  0  0  0  0  0  0  0
    0.7605    0.8639    1.7354 C   0  0  0  0  0  0  0  0  0  0  0  0
    5.3209    1.0629    0.1588 C   0  0  0  0  0  0  0  0  0  0  0  0
    6.2445    0.0295   -0.0191 C   0  0  0  0  0  0  0  0  0  0  0  0
    7.5669    0.2744    0.3440 C   0  0  0  0  0  0  0  0  0  0  0  0
    7.8970    1.5350    0.8598 C   0  0  0  0  0  0  0  0  0  0  0  0
    7.0156    2.5251    1.0126 N   0  0  0  0  0  0  0  0  0  0  0  0
    5.7475    2.2965    0.6620 C   0  0  0  0  0  0  0  0  0  0  0  0
    2.5759   -0.9345    0.6019 H   0  0  0  0  0  0  0  0  0  0  0  0
    2.7520    1.5408    2.2441 H   0  0  0  0  0  0  0  0  0  0  0  0
    2.0421    0.3482    4.2074 H   0  0  0  0  0  0  0  0  0  0  0  0
    3.4422   -0.4981    3.5264 H   0  0  0  0  0  0  0  0  0  0  0  0
    1.6290   -2.0890    4.2894 H   0  0  0  0  0  0  0  0  0  0  0  0
    1.9348   -2.2553    2.5595 H   0  0  0  0  0  0  0  0  0  0  0  0
   -0.2960   -0.5716    3.8186 H   0  0  0  0  0  0  0  0  0  0  0  0
   -1.2528   -2.8203    3.7621 H   0  0  0  0  0  0  0  0  0  0  0  0
   -0.4566   -3.1743    2.2210 H   0  0  0  0  0  0  0  0  0  0  0  0
   -2.9852   -1.5806    2.6513 H   0  0  0  0  0  0  0  0  0  0  0  0
   -2.4137   -2.3732    1.1852 H   0  0  0  0  0  0  0  0  0  0  0  0
   -1.9727    0.4736    2.0965 H   0  0  0  0  0  0  0  0  0  0  0  0
   -1.8471   -0.1571    0.4469 H   0  0  0  0  0  0  0  0  0  0  0  0
    0.3632   -1.0735    0.8892 H   0  0  0  0  0  0  0  0  0  0  0  0
    0.3444    1.5291    2.5137 H   0  0  0  0  0  0  0  0  0  0  0  0
    0.7119    1.4145    0.7835 H   0  0  0  0  0  0  0  0  0  0  0  0
    5.9285   -0.9268   -0.4413 H   0  0  0  0  0  0  0  0  0  0  0  0
    8.3350   -0.4931    0.2260 H   0  0  0  0  0  0  0  0  0  0  0  0
    8.9298    1.7517    1.1573 H   0  0  0  0  0  0  0  0  0  0  0  0
    5.0335    3.1192    0.7680 H   0  0  0  0  0  0  0  0  0  0  0  0
  1  2  2  0
  2  3  2  0
  2  4  1  1
  2 14  1  0
  4  5  1  0
  4 20  1  0
  5  6  1  0
  5 13  1  0
  5 21  1  1
  6  7  1  0
  6 22  1  0
  6 23  1  0
  7  8  1  0
  7 24  1  0
  7 25  1  0
  8  9  1  0
  8 12  1  0
  8 26  1  1
  9 10  1  0
  9 27  1  0
  9 28  1  0
 10 11  1  0
 10 29  1  0
 10 30  1  0
 11 12  1  0
 11 31  1  0
 11 32  1  0
 12 13  1  0
 12 33  1  6
 13 34  1  0
 13 35  1  0
 14 15  2  0
 14 19  1  0
 15 16  1  0
 15 36  1  0
 16 17  2  0
 16 37  1  0
 17 18  1  0
 17 38  1  0
 18 19  2  0
 19 39  1  0
M  END

