
     RDKit          3D

 44 47  0  0  0  0  0  0  0  0999 V2000
    1.3143    0.3377    1.5236 C   0  0  0  0  0  0  0  0  0  0  0  0
    2.6096    0.1742    0.7639 C   0  0  0  0  0  0  0  0  0  0  0  0
    3.2104    1.2590    0.1109 C   0  0  0  0  0  0  0  0  0  0  0  0
    4.4211    1.1222   -0.5858 C   0  0  0  0  0  0  0  0  0  0  0  0
    5.0641    2.3019   -1.2755 C   0  0  0  0  0  0  0  0  0  0  0  0
    5.0279   -0.1381   -0.6368 C   0  0  0  0  0  0  0  0  0  0  0  0
    4.4368   -1.2349    0.0026 C   0  0  0  0  0  0  0  0  0  0  0  0
    5.0952   -2.4962   -0.0564 N   0  0  0  0  0  0  0  0  0  0  0  0
    6.4425   -2.5235    0.0197 N   0  0  0  0  0  0  0  0  0  0  0  0
    6.7766   -3.8018   -0.0661 C   0  0  0  0  0  0  0  0  0  0  0  0
    5.6401   -4.6386   -0.2050 C   0  0  0  0  0  0  0  0  0  0  0  0
    5.6344   -6.1354   -0.3380 C   0  0  0  0  0  0  0  0  0  0  0  0
    6.7233   -6.7320    0.4268 N   0  0  0  0  0  0  0  0  0  0  0  0
    6.8296   -8.1578    0.3179 C   0  0  1  0  0  0  0  0  0  0  0  0
    7.3179   -8.9661    1.4801 C   0  0  0  0  0  0  0  0  0  0  0  0
    5.8812   -9.1128    1.0238 C   0  0  0  0  0  0  0  0  0  0  0  0
    4.5583   -3.7619   -0.2060 C   0  0  0  0  0  0  0  0  0  0  0  0
    3.1095   -4.0495   -0.3770 C   0  0  1  0  0  0  0  0  0  0  0  0
    2.3236   -3.4532   -1.5250 C   0  0  0  0  0  0  0  0  0  0  0  0
    2.6388   -4.9215   -1.5225 C   0  0  0  0  0  0  0  0  0  0  0  0
    3.2407   -1.0768    0.7107 C   0  0  0  0  0  0  0  0  0  0  0  0
    0.9923    1.3889    1.5526 H   0  0  0  0  0  0  0  0  0  0  0  0
    1.4120   -0.0140    2.5640 H   0  0  0  0  0  0  0  0  0  0  0  0
    0.5019   -0.2484    1.0612 H   0  0  0  0  0  0  0  0  0  0  0  0
    2.7276    2.2398    0.1530 H   0  0  0  0  0  0  0  0  0  0  0  0
    4.4805    3.2231   -1.1316 H   0  0  0  0  0  0  0  0  0  0  0  0
    5.1577    2.1283   -2.3606 H   0  0  0  0  0  0  0  0  0  0  0  0
    6.0816    2.4821   -0.8911 H   0  0  0  0  0  0  0  0  0  0  0  0
    5.9738   -0.2860   -1.1597 H   0  0  0  0  0  0  0  0  0  0  0  0
    7.8217   -4.1050   -0.0158 H   0  0  0  0  0  0  0  0  0  0  0  0
    5.7819   -6.4240   -1.3969 H   0  0  0  0  0  0  0  0  0  0  0  0
    4.6355   -6.5341   -0.0600 H   0  0  0  0  0  0  0  0  0  0  0  0
    6.6778   -6.4358    1.4004 H   0  0  0  0  0  0  0  0  0  0  0  0
    7.1732   -8.4786   -0.6743 H   0  0  0  0  0  0  0  0  0  0  0  0
    7.5011   -8.4395    2.4230 H   0  0  0  0  0  0  0  0  0  0  0  0
    8.0192   -9.7838    1.2916 H   0  0  0  0  0  0  0  0  0  0  0  0
    5.1048   -8.6748    1.6594 H   0  0  0  0  0  0  0  0  0  0  0  0
    5.5831  -10.0376    0.5201 H   0  0  0  0  0  0  0  0  0  0  0  0
    2.5457   -4.1735    0.5564 H   0  0  0  0  0  0  0  0  0  0  0  0
    2.8634   -2.8132   -2.2277 H   0  0  0  0  0  0  0  0  0  0  0  0
    1.2972   -3.1341   -1.3258 H   0  0  0  0  0  0  0  0  0  0  0  0
    3.3905   -5.2820   -2.2296 H   0  0  0  0  0  0  0  0  0  0  0  0
    1.8322   -5.6316   -1.3216 H   0  0  0  0  0  0  0  0  0  0  0  0
    2.8086   -1.9231    1.2455 H   0  0  0  0  0  0  0  0  0  0  0  0
  1  2  1  0
  1 22  1  0
  1 23  1  0
  1 24  1  0
  2  3  2  0
  2 21  1  0
  3  4  1  0
  3 25  1  0
  4  5  1  0
  4  6  2  0
  5 26  1  0
  5 27  1  0
  5 28  1  0
  6  7  1  0
  6 29  1  0
  7  8  1  0
  7 21  2  0
  8  9  1  0
  8 17  1  0
  9 10  2  0
 10 11  1  0
 10 30  1  0
 11 12  1  0
 11 17  2  0
 12 13  1  0
 12 31  1  0
 12 32  1  0
 13 14  1  0
 13 33  1  0
 14 15  1  0
 14 16  1  0
 14 34  1  6
 15 16  1  0
 15 35  1  0
 15 36  1  0
 16 37  1  0
 16 38  1  0
 17 18  1  0
 18 19  1  0
 18 20  1  0
 18 39  1  1
 19 20  1  0
 19 40  1  0
 19 41  1  0
 20 42  1  0
 20 43  1  0
 21 44  1  0
M  END

