
     RDKit          3D

 45 47  0  0  0  0  0  0  0  0999 V2000
    4.8918   -0.9352    4.4332 C   0  0  0  0  0  0  0  0  0  0  0  0
    3.8503   -1.8578    3.7862 C   0  0  1  0  0  0  0  0  0  0  0  0
    4.5400   -2.8412    2.8250 C   0  0  0  0  0  0  0  0  0  0  0  0
    3.0596   -2.5948    4.8797 C   0  0  0  0  0  0  0  0  0  0  0  0
    2.8968   -1.0134    2.9945 N   0  0  0  0  0  0  0  0  0  0  0  0
    3.0970    0.3183    2.8440 N   0  0  0  0  0  0  0  0  0  0  0  0
    2.1575    0.7724    2.1032 N   0  0  0  0  0  0  0  0  0  0  0  0
    1.3111   -0.2144    1.7473 N   0  0  0  0  0  0  0  0  0  0  0  0
    1.7745   -1.3276    2.2970 C   0  0  0  0  0  0  0  0  0  0  0  0
    1.0375   -2.9162    2.1343 S   0  0  0  0  0  0  0  0  0  0  0  0
   -0.0119   -2.6568    0.6407 C   0  0  0  0  0  0  0  0  0  0  0  0
   -1.4420   -2.1655    0.9101 C   0  0  0  0  0  0  0  0  0  0  0  0
   -2.3952   -2.8749    0.6809 O   0  0  0  0  0  0  0  0  0  0  0  0
   -1.5157   -0.8861    1.4215 N   0  0  0  0  0  0  0  0  0  0  0  0
   -2.7378   -0.2139    1.6256 C   0  0  0  0  0  0  0  0  0  0  0  0
   -3.2867    0.9190    0.4007 S   0  0  0  0  0  0  0  0  0  0  0  0
   -4.7370    1.2210    1.2880 C   0  0  0  0  0  0  0  0  0  0  0  0
   -4.7998    0.4861    2.4413 C   0  0  0  0  0  0  0  0  0  0  0  0
   -3.6508   -0.3438    2.6622 C   0  0  0  0  0  0  0  0  0  0  0  0
   -3.5463   -1.2025    3.8885 C   0  0  0  0  0  0  0  0  0  0  0  0
   -2.3384   -1.7806    4.1434 N   0  0  0  0  0  0  0  0  0  0  0  0
   -4.5028   -1.3487    4.6356 O   0  0  0  0  0  0  0  0  0  0  0  0
   -6.0555    0.8108    3.2110 C   0  0  0  0  0  0  0  0  0  0  0  0
   -6.8919    1.6154    2.1741 C   0  0  0  0  0  0  0  0  0  0  0  0
   -5.8946    2.1629    1.1093 C   0  0  0  0  0  0  0  0  0  0  0  0
    5.5825   -1.5568    5.0222 H   0  0  0  0  0  0  0  0  0  0  0  0
    4.4221   -0.2014    5.1023 H   0  0  0  0  0  0  0  0  0  0  0  0
    5.4693   -0.3835    3.6801 H   0  0  0  0  0  0  0  0  0  0  0  0
    5.2496   -3.4669    3.3867 H   0  0  0  0  0  0  0  0  0  0  0  0
    5.1006   -2.2958    2.0508 H   0  0  0  0  0  0  0  0  0  0  0  0
    3.8175   -3.5062    2.3302 H   0  0  0  0  0  0  0  0  0  0  0  0
    3.7522   -3.1948    5.4886 H   0  0  0  0  0  0  0  0  0  0  0  0
    2.3070   -3.2807    4.4634 H   0  0  0  0  0  0  0  0  0  0  0  0
    2.5505   -1.8796    5.5436 H   0  0  0  0  0  0  0  0  0  0  0  0
   -0.0966   -3.6537    0.1904 H   0  0  0  0  0  0  0  0  0  0  0  0
    0.5309   -1.9855   -0.0403 H   0  0  0  0  0  0  0  0  0  0  0  0
   -0.6384   -0.3473    1.4440 H   0  0  0  0  0  0  0  0  0  0  0  0
   -1.5479   -1.6774    3.5222 H   0  0  0  0  0  0  0  0  0  0  0  0
   -2.2768   -2.3903    4.9492 H   0  0  0  0  0  0  0  0  0  0  0  0
   -5.8130    1.4112    4.1063 H   0  0  0  0  0  0  0  0  0  0  0  0
   -6.5695   -0.0875    3.5794 H   0  0  0  0  0  0  0  0  0  0  0  0
   -7.4870    2.4169    2.6370 H   0  0  0  0  0  0  0  0  0  0  0  0
   -7.5995    0.9324    1.6772 H   0  0  0  0  0  0  0  0  0  0  0  0
   -5.5923    3.2048    1.3250 H   0  0  0  0  0  0  0  0  0  0  0  0
   -6.3196    2.1604    0.0925 H   0  0  0  0  0  0  0  0  0  0  0  0
  2  1  1  1
  1 26  1  0
  1 27  1  0
  1 28  1  0
  2  3  1  0
  2  4  1  0
  2  5  1  0
  3 29  1  0
  3 30  1  0
  3 31  1  0
  4 32  1  0
  4 33  1  0
  4 34  1  0
  5  6  1  0
  5  9  1  0
  6  7  2  0
  7  8  1  0
  8  9  2  0
  9 10  1  0
 10 11  1  0
 11 12  1  0
 11 35  1  0
 11 36  1  0
 12 13  2  0
 12 14  1  0
 14 15  1  0
 14 37  1  0
 15 16  2  0
 15 19  1  0
 16 17  1  0
 17 18  2  0
 17 25  1  0
 18 19  1  0
 18 23  1  0
 19 20  2  0
 20 21  1  0
 20 22  1  0
 21 38  1  0
 21 39  1  0
 23 24  1  0
 23 40  1  0
 23 41  1  0
 24 25  1  0
 24 42  1  0
 24 43  1  0
 25 44  1  0
 25 45  1  0
M  CHG  2  16   1  22  -1
M  END

