
     RDKit          3D

 80 84  0  0  0  0  0  0  0  0999 V2000
   12.4768   14.1538    4.9206 O   0  0  0  0  0  0  0  0  0  0  0  0
   13.5071   13.6588    4.4914 C   0  0  0  0  0  0  0  0  0  0  0  0
   13.9441   13.8255    3.0363 C   0  0  0  0  0  0  0  0  0  0  0  0
   12.7585   13.8486    2.0702 C   0  0  0  0  0  0  0  0  0  0  0  0
   13.1478   14.1941    0.6306 C   0  0  0  0  0  0  0  0  0  0  0  0
   11.9506   14.1933   -0.3301 C   0  0  0  0  0  0  0  0  0  0  0  0
   12.3164   14.5108   -1.7842 C   0  0  1  0  0  0  0  0  0  0  0  0
   13.1349   13.8416   -2.0933 H   0  0  0  0  0  0  0  0  0  0  0  0
   10.9115   14.1392   -2.9549 S   0  0  0  0  0  0  0  0  0  0  0  0
   10.7919   15.8568   -3.5677 C   0  0  0  0  0  0  0  0  0  0  0  0
   12.1936   16.4789   -3.4023 C   0  0  1  0  0  0  0  0  0  0  0  0
   12.8383   16.1934   -4.2475 H   0  0  0  0  0  0  0  0  0  0  0  0
   12.1851   17.9123   -3.1803 N   0  0  0  0  0  0  0  0  0  0  0  0
   12.0714   18.1981   -1.8238 C   0  0  0  0  0  0  0  0  0  0  0  0
   11.8514   19.2772   -1.3213 O   0  0  0  0  0  0  0  0  0  0  0  0
   12.2675   16.9903   -1.1568 N   0  0  0  0  0  0  0  0  0  0  0  0
   12.7748   15.9647   -2.0567 C   0  0  1  0  0  0  0  0  0  0  0  0
   13.8810   15.9877   -2.0920 H   0  0  0  0  0  0  0  0  0  0  0  0
   14.3678   12.9536    5.2850 N   0  0  0  0  0  0  0  0  0  0  0  0
   14.1103   12.7273    6.6968 C   0  0  0  0  0  0  0  0  0  0  0  0
   13.3305   11.4382    6.9835 C   0  0  0  0  0  0  0  0  0  0  0  0
   13.0799   11.2205    8.4780 C   0  0  0  0  0  0  0  0  0  0  0  0
   12.2855    9.9381    8.7581 C   0  0  0  0  0  0  0  0  0  0  0  0
   12.0519    9.6001   10.2345 C   0  0  2  0  0  0  0  0  0  0  0  0
   11.4049    8.7050   10.2884 H   0  0  0  0  0  0  0  0  0  0  0  0
   11.3395   10.6888   10.9113 N   0  0  0  0  0  0  0  0  0  0  0  0
   10.6369   10.5123   12.0532 C   0  0  0  0  0  0  0  0  0  0  0  0
   10.6732    9.4870   12.7295 O   0  0  0  0  0  0  0  0  0  0  0  0
    9.9038   11.5916   12.3624 O   0  0  0  0  0  0  0  0  0  0  0  0
    9.1681   11.5632   13.5992 C   0  0  0  0  0  0  0  0  0  0  0  0
   10.0292   11.9771   14.8019 C   0  0  2  0  0  0  0  0  0  0  0  0
    9.2339   11.9152   16.0972 C   0  0  0  0  0  0  0  0  0  0  0  0
    8.5713   10.8330   16.6729 C   0  0  0  0  0  0  0  0  0  0  0  0
    7.8913   11.0192   17.8847 C   0  0  0  0  0  0  0  0  0  0  0  0
    7.8786   12.2739   18.5079 C   0  0  0  0  0  0  0  0  0  0  0  0
    8.5448   13.3625   17.9350 C   0  0  0  0  0  0  0  0  0  0  0  0
    9.2230   13.1801   16.7253 C   0  0  0  0  0  0  0  0  0  0  0  0
   10.0088   14.1155   15.9067 C   0  0  0  0  0  0  0  0  0  0  0  0
   10.3099   15.4681   16.0976 C   0  0  0  0  0  0  0  0  0  0  0  0
   11.1034   16.1243   15.1511 C   0  0  0  0  0  0  0  0  0  0  0  0
   11.5919   15.4384   14.0315 C   0  0  0  0  0  0  0  0  0  0  0  0
   11.2927   14.0827   13.8382 C   0  0  0  0  0  0  0  0  0  0  0  0
   10.4985   13.4240   14.7755 C   0  0  0  0  0  0  0  0  0  0  0  0
   13.3631    9.1974   10.9655 C   0  0  0  0  0  0  0  0  0  0  0  0
   14.4294    9.1437   10.4063 O   0  0  0  0  0  0  0  0  0  0  0  0
   13.2194    8.8653   12.2462 O   0  0  0  0  0  0  0  0  0  0  0  0
   14.6700   13.0432    2.7532 H   0  0  0  0  0  0  0  0  0  0  0  0
   14.4885   14.7865    2.9774 H   0  0  0  0  0  0  0  0  0  0  0  0
   12.0205   14.5720    2.4526 H   0  0  0  0  0  0  0  0  0  0  0  0
   12.2530   12.8666    2.0888 H   0  0  0  0  0  0  0  0  0  0  0  0
   13.9055   13.4755    0.2662 H   0  0  0  0  0  0  0  0  0  0  0  0
   13.6515   15.1793    0.6216 H   0  0  0  0  0  0  0  0  0  0  0  0
   11.1812   14.9058    0.0100 H   0  0  0  0  0  0  0  0  0  0  0  0
   11.4764   13.1980   -0.3025 H   0  0  0  0  0  0  0  0  0  0  0  0
   10.0535   16.4259   -2.9824 H   0  0  0  0  0  0  0  0  0  0  0  0
   10.4671   15.8373   -4.6187 H   0  0  0  0  0  0  0  0  0  0  0  0
   11.7656   18.5601   -3.8374 H   0  0  0  0  0  0  0  0  0  0  0  0
   12.5676   17.0495   -0.1910 H   0  0  0  0  0  0  0  0  0  0  0  0
   15.1754   12.5146    4.8605 H   0  0  0  0  0  0  0  0  0  0  0  0
   13.5367   13.5926    7.0621 H   0  0  0  0  0  0  0  0  0  0  0  0
   15.0741   12.7150    7.2332 H   0  0  0  0  0  0  0  0  0  0  0  0
   13.8862   10.5750    6.5747 H   0  0  0  0  0  0  0  0  0  0  0  0
   12.3716   11.4840    6.4390 H   0  0  0  0  0  0  0  0  0  0  0  0
   12.5446   12.1054    8.8722 H   0  0  0  0  0  0  0  0  0  0  0  0
   14.0406   11.1674    9.0134 H   0  0  0  0  0  0  0  0  0  0  0  0
   12.8225    9.0847    8.3174 H   0  0  0  0  0  0  0  0  0  0  0  0
   11.3031    9.9897    8.2571 H   0  0  0  0  0  0  0  0  0  0  0  0
   11.2446   11.5802   10.4378 H   0  0  0  0  0  0  0  0  0  0  0  0
    8.7666   10.5520   13.7491 H   0  0  0  0  0  0  0  0  0  0  0  0
    8.3409   12.2707   13.4541 H   0  0  0  0  0  0  0  0  0  0  0  0
   10.8882   11.2837   14.8499 H   0  0  0  0  0  0  0  0  0  0  0  0
    8.5850    9.8479   16.1983 H   0  0  0  0  0  0  0  0  0  0  0  0
    7.3702   10.1780   18.3484 H   0  0  0  0  0  0  0  0  0  0  0  0
    7.3449   12.4024   19.4531 H   0  0  0  0  0  0  0  0  0  0  0  0
    8.5343   14.3372   18.4293 H   0  0  0  0  0  0  0  0  0  0  0  0
    9.9358   16.0065   16.9721 H   0  0  0  0  0  0  0  0  0  0  0  0
   11.3477   17.1808   15.2876 H   0  0  0  0  0  0  0  0  0  0  0  0
   12.2145   15.9644   13.3033 H   0  0  0  0  0  0  0  0  0  0  0  0
   11.6799   13.5534   12.9653 H   0  0  0  0  0  0  0  0  0  0  0  0
   12.2729    8.9284   12.5324 H   0  0  0  0  0  0  0  0  0  0  0  0
  1  2  2  0
  2  3  1  0
  2 19  1  0
  3  4  1  0
  3 47  1  0
  3 48  1  0
  4  5  1  0
  4 49  1  0
  4 50  1  0
  5  6  1  0
  5 51  1  0
  5 52  1  0
  6  7  1  0
  6 53  1  0
  6 54  1  0
  7  8  1  6
  7  9  1  0
  7 17  1  0
  9 10  1  0
 10 11  1  0
 10 55  1  0
 10 56  1  0
 11 12  1  6
 11 13  1  0
 11 17  1  0
 13 14  1  0
 13 57  1  0
 14 15  2  0
 14 16  1  0
 16 17  1  0
 16 58  1  0
 17 18  1  6
 19 20  1  0
 19 59  1  0
 20 21  1  0
 20 60  1  0
 20 61  1  0
 21 22  1  0
 21 62  1  0
 21 63  1  0
 22 23  1  0
 22 64  1  0
 22 65  1  0
 23 24  1  0
 23 66  1  0
 23 67  1  0
 24 25  1  6
 24 26  1  0
 24 44  1  0
 26 27  1  0
 26 68  1  0
 27 28  2  0
 27 29  1  0
 29 30  1  0
 30 31  1  0
 30 69  1  0
 30 70  1  0
 31 32  1  0
 31 43  1  0
 31 71  1  1
 32 33  2  0
 32 37  1  0
 33 34  1  0
 33 72  1  0
 34 35  2  0
 34 73  1  0
 35 36  1  0
 35 74  1  0
 36 37  2  0
 36 75  1  0
 37 38  1  0
 38 39  2  0
 38 43  1  0
 39 40  1  0
 39 76  1  0
 40 41  2  0
 40 77  1  0
 41 42  1  0
 41 78  1  0
 42 43  2  0
 42 79  1  0
 44 45  2  0
 44 46  1  0
 46 80  1  0
M  END

