
     RDKit          3D

 39 39  0  0  0  0  0  0  0  0999 V2000
    2.9502   -2.5012    1.4661 C   0  0  0  0  0  0  0  0  0  0  0  0
    3.5059   -1.3016    0.8694 N   0  0  0  0  0  0  0  0  0  0  0  0
    4.3768   -0.5997    1.7942 C   0  0  0  0  0  0  0  0  0  0  0  0
    4.1146   -1.5446   -0.4320 C   0  0  0  0  0  0  0  0  0  0  0  0
    4.1922   -0.2741   -1.2991 C   0  0  0  0  0  0  0  0  0  0  0  0
    4.6947   -0.5036   -2.6463 N   0  0  0  0  0  0  0  0  0  0  0  0
    3.7590   -0.9954   -3.6531 C   0  0  0  0  0  0  0  0  0  0  0  0
    2.3798   -0.3304   -3.6418 C   0  0  0  0  0  0  0  0  0  0  0  0
    1.5649   -0.6826   -4.8922 C   0  0  0  0  0  0  0  0  0  0  0  0
    2.2233   -0.2204   -6.1105 N   0  0  0  0  0  0  0  0  0  0  0  0
    6.0671   -0.6997   -2.8473 C   0  0  0  0  0  0  0  0  0  0  0  0
    7.0280   -0.2468   -1.9077 C   0  0  0  0  0  0  0  0  0  0  0  0
    8.3969   -0.3964   -2.1260 C   0  0  0  0  0  0  0  0  0  0  0  0
    8.8499   -1.0129   -3.2880 C   0  0  0  0  0  0  0  0  0  0  0  0
   10.1729   -1.1586   -3.4973 F   0  0  0  0  0  0  0  0  0  0  0  0
    7.9424   -1.4890   -4.2259 C   0  0  0  0  0  0  0  0  0  0  0  0
    6.5709   -1.3430   -4.0054 C   0  0  0  0  0  0  0  0  0  0  0  0
    2.4216   -2.2480    2.3995 H   0  0  0  0  0  0  0  0  0  0  0  0
    3.7184   -3.2704    1.7157 H   0  0  0  0  0  0  0  0  0  0  0  0
    2.2211   -2.9658    0.7834 H   0  0  0  0  0  0  0  0  0  0  0  0
    3.8275   -0.3554    2.7175 H   0  0  0  0  0  0  0  0  0  0  0  0
    4.7272    0.3501    1.3633 H   0  0  0  0  0  0  0  0  0  0  0  0
    5.2769   -1.1920    2.0830 H   0  0  0  0  0  0  0  0  0  0  0  0
    3.4892   -2.2791   -0.9657 H   0  0  0  0  0  0  0  0  0  0  0  0
    5.1257   -2.0042   -0.3456 H   0  0  0  0  0  0  0  0  0  0  0  0
    4.8041    0.4949   -0.8076 H   0  0  0  0  0  0  0  0  0  0  0  0
    3.1846    0.1573   -1.3548 H   0  0  0  0  0  0  0  0  0  0  0  0
    3.6277   -2.0989   -3.5911 H   0  0  0  0  0  0  0  0  0  0  0  0
    4.1807   -0.7948   -4.6463 H   0  0  0  0  0  0  0  0  0  0  0  0
    2.5074    0.7663   -3.5877 H   0  0  0  0  0  0  0  0  0  0  0  0
    1.7912   -0.6218   -2.7565 H   0  0  0  0  0  0  0  0  0  0  0  0
    0.5344   -0.2897   -4.7573 H   0  0  0  0  0  0  0  0  0  0  0  0
    1.4647   -1.7807   -4.9581 H   0  0  0  0  0  0  0  0  0  0  0  0
    2.1952    0.7987   -6.1673 H   0  0  0  0  0  0  0  0  0  0  0  0
    1.7425   -0.5689   -6.9390 H   0  0  0  0  0  0  0  0  0  0  0  0
    6.7140    0.2415   -0.9866 H   0  0  0  0  0  0  0  0  0  0  0  0
    9.1212   -0.0349   -1.3927 H   0  0  0  0  0  0  0  0  0  0  0  0
    8.3112   -1.9850   -5.1264 H   0  0  0  0  0  0  0  0  0  0  0  0
    5.8930   -1.7479   -4.7539 H   0  0  0  0  0  0  0  0  0  0  0  0
  1  2  1  0
  1 18  1  0
  1 19  1  0
  1 20  1  0
  2  3  1  0
  2  4  1  0
  3 21  1  0
  3 22  1  0
  3 23  1  0
  4  5  1  0
  4 24  1  0
  4 25  1  0
  5  6  1  0
  5 26  1  0
  5 27  1  0
  6  7  1  0
  6 11  1  0
  7  8  1  0
  7 28  1  0
  7 29  1  0
  8  9  1  0
  8 30  1  0
  8 31  1  0
  9 10  1  0
  9 32  1  0
  9 33  1  0
 10 34  1  0
 10 35  1  0
 11 12  2  0
 11 17  1  0
 12 13  1  0
 12 36  1  0
 13 14  2  0
 13 37  1  0
 14 15  1  0
 14 16  1  0
 16 17  2  0
 16 38  1  0
 17 39  1  0
M  END

