
     RDKit          3D

 52 53  0  0  0  0  0  0  0  0999 V2000
    1.5994    0.1412   -1.6587 C   0  0  0  0  0  0  0  0  0  0  0  0
    2.7908    0.2606   -0.8304 N   0  0  0  0  0  0  0  0  0  0  0  0
    3.4697   -0.9369   -0.3925 C   0  0  0  0  0  0  0  0  0  0  0  0
    2.7152   -1.7133    0.7060 C   0  0  0  0  0  0  0  0  0  0  0  0
    1.6909   -1.2502    1.1947 O   0  0  0  0  0  0  0  0  0  0  0  0
    3.2377   -2.9132    1.1005 N   0  0  0  0  0  0  0  0  0  0  0  0
    2.5811   -3.6652    2.1712 C   0  0  0  0  0  0  0  0  0  0  0  0
    2.4535   -5.1431    1.7728 C   0  0  0  0  0  0  0  0  0  0  0  0
    3.7128   -5.7489    1.3605 N   0  0  0  0  0  0  0  0  0  0  0  0
    4.5759   -6.2010    2.4285 C   0  0  0  0  0  0  0  0  0  0  0  0
    5.5523   -7.3070    1.9755 C   0  0  0  0  0  0  0  0  0  0  0  0
    5.6651   -7.6068    0.7978 O   0  0  0  0  0  0  0  0  0  0  0  0
    6.3041   -7.9089    2.9574 N   0  0  0  0  0  0  0  0  0  0  0  0
    7.2465   -8.9656    2.5857 C   0  0  0  0  0  0  0  0  0  0  0  0
    8.6544   -8.6616    3.1069 C   0  0  0  0  0  0  0  0  0  0  0  0
    8.6392   -8.3918    4.6164 C   0  0  0  0  0  0  0  0  0  0  0  0
    7.6161   -7.3037    4.9627 C   0  0  0  0  0  0  0  0  0  0  0  0
    6.2316   -7.6390    4.3904 C   0  0  0  0  0  0  0  0  0  0  0  0
    4.3358   -4.9722    0.2958 C   0  0  0  0  0  0  0  0  0  0  0  0
    4.5087   -3.4849    0.6533 C   0  0  0  0  0  0  0  0  0  0  0  0
    3.1112    1.7224   -0.0641 S   0  0  1  0  0  0  0  0  0  0  0  0
    1.9147    1.9021    1.2703 C   0  0  0  0  0  0  0  0  0  0  0  0
    4.4352    1.5770    0.5497 O   0  0  0  0  0  0  0  0  0  0  0  0
    2.8300    2.7869   -1.0287 O   0  0  0  0  0  0  0  0  0  0  0  0
    0.7588   -0.3264   -1.1176 H   0  0  0  0  0  0  0  0  0  0  0  0
    1.8336   -0.4665   -2.5495 H   0  0  0  0  0  0  0  0  0  0  0  0
    1.3074    1.1401   -2.0082 H   0  0  0  0  0  0  0  0  0  0  0  0
    4.4669   -0.6548   -0.0234 H   0  0  0  0  0  0  0  0  0  0  0  0
    3.6246   -1.5821   -1.2748 H   0  0  0  0  0  0  0  0  0  0  0  0
    1.6006   -3.2062    2.3498 H   0  0  0  0  0  0  0  0  0  0  0  0
    3.1725   -3.5670    3.1027 H   0  0  0  0  0  0  0  0  0  0  0  0
    1.7446   -5.2139    0.9277 H   0  0  0  0  0  0  0  0  0  0  0  0
    2.0210   -5.7186    2.6071 H   0  0  0  0  0  0  0  0  0  0  0  0
    3.9348   -6.6070    3.2273 H   0  0  0  0  0  0  0  0  0  0  0  0
    5.1777   -5.3958    2.9108 H   0  0  0  0  0  0  0  0  0  0  0  0
    7.2238   -9.0548    1.4932 H   0  0  0  0  0  0  0  0  0  0  0  0
    6.8921   -9.9254    3.0111 H   0  0  0  0  0  0  0  0  0  0  0  0
    9.0505   -7.7792    2.5741 H   0  0  0  0  0  0  0  0  0  0  0  0
    9.3223   -9.5058    2.8678 H   0  0  0  0  0  0  0  0  0  0  0  0
    9.6421   -8.1043    4.9724 H   0  0  0  0  0  0  0  0  0  0  0  0
    8.3734   -9.3229    5.1508 H   0  0  0  0  0  0  0  0  0  0  0  0
    7.9473   -6.3361    4.5455 H   0  0  0  0  0  0  0  0  0  0  0  0
    7.5357   -7.1733    6.0548 H   0  0  0  0  0  0  0  0  0  0  0  0
    5.5334   -6.8189    4.5913 H   0  0  0  0  0  0  0  0  0  0  0  0
    5.8309   -8.5344    4.9069 H   0  0  0  0  0  0  0  0  0  0  0  0
    3.6934   -5.0419   -0.6006 H   0  0  0  0  0  0  0  0  0  0  0  0
    5.3002   -5.4248    0.0335 H   0  0  0  0  0  0  0  0  0  0  0  0
    4.8924   -2.9406   -0.2175 H   0  0  0  0  0  0  0  0  0  0  0  0
    5.2615   -3.3697    1.4580 H   0  0  0  0  0  0  0  0  0  0  0  0
    1.9893    1.0331    1.9331 H   0  0  0  0  0  0  0  0  0  0  0  0
    0.9100    1.9690    0.8340 H   0  0  0  0  0  0  0  0  0  0  0  0
    2.1753    2.8393    1.7810 H   0  0  0  0  0  0  0  0  0  0  0  0
  1  2  1  0
  1 25  1  0
  1 26  1  0
  1 27  1  0
  2  3  1  0
 21  2  1  6
  3  4  1  0
  3 28  1  0
  3 29  1  0
  4  5  2  0
  4  6  1  0
  6  7  1  0
  6 20  1  0
  7  8  1  0
  7 30  1  0
  7 31  1  0
  8  9  1  0
  8 32  1  0
  8 33  1  0
  9 10  1  0
  9 19  1  0
 10 11  1  0
 10 34  1  0
 10 35  1  0
 11 12  2  0
 11 13  1  0
 13 14  1  0
 13 18  1  0
 14 15  1  0
 14 36  1  0
 14 37  1  0
 15 16  1  0
 15 38  1  0
 15 39  1  0
 16 17  1  0
 16 40  1  0
 16 41  1  0
 17 18  1  0
 17 42  1  0
 17 43  1  0
 18 44  1  0
 18 45  1  0
 19 20  1  0
 19 46  1  0
 19 47  1  0
 20 48  1  0
 20 49  1  0
 21 22  1  0
 21 23  2  0
 21 24  2  0
 22 50  1  0
 22 51  1  0
 22 52  1  0
M  END

