
     RDKit          3D

 38 40  0  0  0  0  0  0  0  0999 V2000
    3.1708   -1.2949   -0.8998 O   0  0  0  0  0  0  0  0  0  0  0  0
    2.5079   -0.9686    0.0592 C   0  0  0  0  0  0  0  0  0  0  0  0
    3.0299   -0.5281    1.2104 O   0  0  0  0  0  0  0  0  0  0  0  0
    4.4727   -0.3867    1.2925 C   0  0  1  0  0  0  0  0  0  0  0  0
    4.8729    1.0138    0.8467 C   0  0  0  0  0  0  0  0  0  0  0  0
    4.7313    2.1171    1.7026 C   0  0  0  0  0  0  0  0  0  0  0  0
    5.0705    3.3991    1.2665 C   0  0  0  0  0  0  0  0  0  0  0  0
    5.5610    3.5943   -0.0295 C   0  0  0  0  0  0  0  0  0  0  0  0
    5.7054    2.5013   -0.8877 C   0  0  0  0  0  0  0  0  0  0  0  0
    5.3596    1.2181   -0.4527 C   0  0  0  0  0  0  0  0  0  0  0  0
    4.9082   -0.7446    2.7026 C   0  0  0  0  0  0  0  0  0  0  0  0
    4.0053   -0.8424    3.7695 C   0  0  0  0  0  0  0  0  0  0  0  0
    4.4613   -1.1662    5.0528 C   0  0  0  0  0  0  0  0  0  0  0  0
    5.8190   -1.3962    5.2843 C   0  0  0  0  0  0  0  0  0  0  0  0
    6.7250   -1.3025    4.2219 C   0  0  0  0  0  0  0  0  0  0  0  0
    6.2717   -0.9806    2.9420 C   0  0  0  0  0  0  0  0  0  0  0  0
    1.0088   -1.0971    0.0802 C   0  0  0  0  0  0  0  0  0  0  0  0
    0.4953   -2.0588   -0.8124 C   0  0  0  0  0  0  0  0  0  0  0  0
   -0.8676   -2.3227   -0.9059 C   0  0  0  0  0  0  0  0  0  0  0  0
   -1.7614   -1.6041   -0.1076 C   0  0  0  0  0  0  0  0  0  0  0  0
   -1.2844   -0.6271    0.7662 C   0  0  0  0  0  0  0  0  0  0  0  0
    0.0893   -0.3712    0.8658 C   0  0  0  0  0  0  0  0  0  0  0  0
    0.5761    1.0463    2.0509 Br  0  0  0  0  0  0  0  0  0  0  0  0
    4.9087   -1.1067    0.5862 H   0  0  0  0  0  0  0  0  0  0  0  0
    4.3589    1.9680    2.7187 H   0  0  0  0  0  0  0  0  0  0  0  0
    4.9565    4.2507    1.9424 H   0  0  0  0  0  0  0  0  0  0  0  0
    5.8309    4.5979   -0.3683 H   0  0  0  0  0  0  0  0  0  0  0  0
    6.0862    2.6464   -1.9020 H   0  0  0  0  0  0  0  0  0  0  0  0
    5.4521    0.3661   -1.1304 H   0  0  0  0  0  0  0  0  0  0  0  0
    2.9433   -0.6695    3.5921 H   0  0  0  0  0  0  0  0  0  0  0  0
    3.7455   -1.2401    5.8758 H   0  0  0  0  0  0  0  0  0  0  0  0
    6.1719   -1.6505    6.2870 H   0  0  0  0  0  0  0  0  0  0  0  0
    7.7894   -1.4852    4.3906 H   0  0  0  0  0  0  0  0  0  0  0  0
    6.9858   -0.9081    2.1166 H   0  0  0  0  0  0  0  0  0  0  0  0
    1.2134   -2.5960   -1.4341 H   0  0  0  0  0  0  0  0  0  0  0  0
   -1.2312   -3.0829   -1.6008 H   0  0  0  0  0  0  0  0  0  0  0  0
   -2.8361   -1.7937   -0.1671 H   0  0  0  0  0  0  0  0  0  0  0  0
   -1.9784   -0.0474    1.3765 H   0  0  0  0  0  0  0  0  0  0  0  0
  1  2  2  0
  2  3  1  0
  2 17  1  0
  3  4  1  0
  4  5  1  0
  4 11  1  0
  4 24  1  6
  5  6  2  0
  5 10  1  0
  6  7  1  0
  6 25  1  0
  7  8  2  0
  7 26  1  0
  8  9  1  0
  8 27  1  0
  9 10  2  0
  9 28  1  0
 10 29  1  0
 11 12  2  0
 11 16  1  0
 12 13  1  0
 12 30  1  0
 13 14  2  0
 13 31  1  0
 14 15  1  0
 14 32  1  0
 15 16  2  0
 15 33  1  0
 16 34  1  0
 17 18  2  0
 17 22  1  0
 18 19  1  0
 18 35  1  0
 19 20  2  0
 19 36  1  0
 20 21  1  0
 20 37  1  0
 21 22  2  0
 21 38  1  0
 22 23  1  0
M  END

