
     RDKit          3D

 36 38  0  0  0  0  0  0  0  0999 V2000
    0.6695   -0.5526    1.3088 C   0  0  0  0  0  0  0  0  0  0  0  0
    2.0804   -0.6703    1.1820 O   0  0  0  0  0  0  0  0  0  0  0  0
    2.8501    0.1476    1.9201 C   0  0  0  0  0  0  0  0  0  0  0  0
    4.2490    0.0259    1.7736 C   0  0  0  0  0  0  0  0  0  0  0  0
    5.0535    0.8685    2.5215 C   0  0  0  0  0  0  0  0  0  0  0  0
    4.4735    1.8053    3.4100 C   0  0  0  0  0  0  0  0  0  0  0  0
    5.2840    2.7415    4.2107 C   0  0  0  0  0  0  0  0  0  0  0  0
    5.3169    4.1432    4.2054 C   0  0  0  0  0  0  0  0  0  0  0  0
    4.5580    5.0454    3.2589 C   0  0  1  0  0  0  0  0  0  0  0  0
    3.9339    6.2580    3.9542 C   0  0  0  0  0  0  0  0  0  0  0  0
    5.3845    5.4534    2.1689 O   0  0  0  0  0  0  0  0  0  0  0  0
    6.2831    4.5664    5.1513 C   0  0  0  0  0  0  0  0  0  0  0  0
    6.8379    3.4278    5.7360 C   0  0  0  0  0  0  0  0  0  0  0  0
    7.8193    3.2017    6.7360 C   0  0  0  0  0  0  0  0  0  0  0  0
    8.1344    1.9212    7.1226 C   0  0  0  0  0  0  0  0  0  0  0  0
    7.4594    0.8160    6.5191 C   0  0  0  0  0  0  0  0  0  0  0  0
    6.5138    1.0259    5.5543 C   0  0  0  0  0  0  0  0  0  0  0  0
    6.2099    2.3073    5.1477 N   0  0  0  0  0  0  0  0  0  0  0  0
    3.0733    1.8163    3.4701 C   0  0  0  0  0  0  0  0  0  0  0  0
    2.2836    1.0188    2.7420 N   0  0  0  0  0  0  0  0  0  0  0  0
    0.2427   -1.2961    0.6229 H   0  0  0  0  0  0  0  0  0  0  0  0
    0.3260    0.4573    1.0351 H   0  0  0  0  0  0  0  0  0  0  0  0
    0.3418   -0.7559    2.3404 H   0  0  0  0  0  0  0  0  0  0  0  0
    4.6571   -0.7046    1.0736 H   0  0  0  0  0  0  0  0  0  0  0  0
    6.1403    0.8220    2.4133 H   0  0  0  0  0  0  0  0  0  0  0  0
    3.7510    4.4620    2.7892 H   0  0  0  0  0  0  0  0  0  0  0  0
    4.7066    6.8863    4.4279 H   0  0  0  0  0  0  0  0  0  0  0  0
    3.2220    5.9516    4.7372 H   0  0  0  0  0  0  0  0  0  0  0  0
    3.4044    6.8767    3.2141 H   0  0  0  0  0  0  0  0  0  0  0  0
    6.2266    5.7496    2.5402 H   0  0  0  0  0  0  0  0  0  0  0  0
    6.5587    5.5890    5.4016 H   0  0  0  0  0  0  0  0  0  0  0  0
    8.3077    4.0688    7.1854 H   0  0  0  0  0  0  0  0  0  0  0  0
    8.8899    1.7429    7.8904 H   0  0  0  0  0  0  0  0  0  0  0  0
    7.6840   -0.2078    6.8226 H   0  0  0  0  0  0  0  0  0  0  0  0
    5.9592    0.2227    5.0700 H   0  0  0  0  0  0  0  0  0  0  0  0
    2.5673    2.5109    4.1505 H   0  0  0  0  0  0  0  0  0  0  0  0
  1  2  1  0
  1 21  1  0
  1 22  1  0
  1 23  1  0
  2  3  1  0
  3  4  2  0
  3 20  1  0
  4  5  1  0
  4 24  1  0
  5  6  2  0
  5 25  1  0
  6  7  1  0
  6 19  1  0
  7  8  2  0
  7 18  1  0
  8  9  1  0
  8 12  1  0
  9 10  1  0
  9 11  1  0
  9 26  1  6
 10 27  1  0
 10 28  1  0
 10 29  1  0
 11 30  1  0
 12 13  2  0
 12 31  1  0
 13 14  1  0
 13 18  1  0
 14 15  2  0
 14 32  1  0
 15 16  1  0
 15 33  1  0
 16 17  2  0
 16 34  1  0
 17 18  1  0
 17 35  1  0
 19 20  2  0
 19 36  1  0
M  END

