
     RDKit          3D

 53 55  0  0  0  0  0  0  0  0999 V2000
    1.9035   -0.0762   -0.1573 C   0  0  0  0  0  0  0  0  0  0  0  0
    2.5587   -1.4115    0.1535 C   0  0  0  0  0  0  0  0  0  0  0  0
    3.2218   -1.3948    1.4320 O   0  0  0  0  0  0  0  0  0  0  0  0
    4.4888   -0.9417    1.4729 C   0  0  0  0  0  0  0  0  0  0  0  0
    5.0999   -0.5580    0.5047 O   0  0  0  0  0  0  0  0  0  0  0  0
    5.0327   -0.9842    2.8874 C   0  0  0  0  0  0  0  0  0  0  0  0
    6.4871   -0.5062    2.9846 C   0  0  0  0  0  0  0  0  0  0  0  0
    7.0246   -0.5465    4.3978 C   0  0  0  0  0  0  0  0  0  0  0  0
    7.6801   -1.6861    4.8846 C   0  0  0  0  0  0  0  0  0  0  0  0
    8.1300   -1.7243    6.2008 C   0  0  0  0  0  0  0  0  0  0  0  0
    8.7422   -2.8361    6.6502 F   0  0  0  0  0  0  0  0  0  0  0  0
    7.9698   -0.6479    7.0861 C   0  0  0  0  0  0  0  0  0  0  0  0
    8.3656   -0.6480    8.3816 O   0  0  0  0  0  0  0  0  0  0  0  0
    9.7081   -1.0592    8.6900 C   0  0  0  0  0  0  0  0  0  0  0  0
   10.1096   -0.4092    9.9782 C   0  0  0  0  0  0  0  0  0  0  0  0
   10.3732    0.9996   10.1122 C   0  0  0  0  0  0  0  0  0  0  0  0
   10.3821    2.0644    8.7363 Cl  0  0  0  0  0  0  0  0  0  0  0  0
   10.6232    1.4764   11.2980 N   0  0  0  0  0  0  0  0  0  0  0  0
   10.5634    0.2224   12.4009 S   0  0  0  0  0  0  0  0  0  0  0  0
   10.1743   -1.0033   11.2263 C   0  0  0  0  0  0  0  0  0  0  0  0
    9.9801   -2.4078   11.6310 C   0  0  0  0  0  0  0  0  0  0  0  0
    9.1410   -2.7312   12.7137 C   0  0  0  0  0  0  0  0  0  0  0  0
    8.9666   -4.0570   13.1090 C   0  0  0  0  0  0  0  0  0  0  0  0
    9.6204   -5.1082   12.4465 C   0  0  0  0  0  0  0  0  0  0  0  0
    9.3923   -6.5484   12.8493 C   0  0  0  0  0  0  0  0  0  0  0  0
    8.2213   -7.2067   12.1023 C   0  0  0  0  0  0  0  0  0  0  0  0
   10.4652   -4.7804   11.3739 C   0  0  0  0  0  0  0  0  0  0  0  0
   10.6486   -3.4572   10.9729 C   0  0  0  0  0  0  0  0  0  0  0  0
    7.3164    0.4863    6.5722 C   0  0  0  0  0  0  0  0  0  0  0  0
    7.1446    1.5348    7.3791 F   0  0  0  0  0  0  0  0  0  0  0  0
    6.8428    0.5414    5.2657 C   0  0  0  0  0  0  0  0  0  0  0  0
    1.3386   -0.1461   -1.1008 H   0  0  0  0  0  0  0  0  0  0  0  0
    2.6608    0.7135   -0.2715 H   0  0  0  0  0  0  0  0  0  0  0  0
    1.2037    0.2149    0.6415 H   0  0  0  0  0  0  0  0  0  0  0  0
    3.2890   -1.6814   -0.6238 H   0  0  0  0  0  0  0  0  0  0  0  0
    1.8105   -2.2132    0.2377 H   0  0  0  0  0  0  0  0  0  0  0  0
    4.9223   -2.0154    3.2634 H   0  0  0  0  0  0  0  0  0  0  0  0
    4.3680   -0.3742    3.5227 H   0  0  0  0  0  0  0  0  0  0  0  0
    6.5523    0.5175    2.5848 H   0  0  0  0  0  0  0  0  0  0  0  0
    7.1117   -1.1284    2.3254 H   0  0  0  0  0  0  0  0  0  0  0  0
    7.8490   -2.5616    4.2539 H   0  0  0  0  0  0  0  0  0  0  0  0
   10.3823   -0.7355    7.8791 H   0  0  0  0  0  0  0  0  0  0  0  0
    9.7540   -2.1536    8.7668 H   0  0  0  0  0  0  0  0  0  0  0  0
    8.6093   -1.9339   13.2388 H   0  0  0  0  0  0  0  0  0  0  0  0
    8.3058   -4.2803   13.9517 H   0  0  0  0  0  0  0  0  0  0  0  0
    9.2050   -6.5975   13.9351 H   0  0  0  0  0  0  0  0  0  0  0  0
   10.3126   -7.1278   12.6659 H   0  0  0  0  0  0  0  0  0  0  0  0
    7.2774   -6.6708   12.2907 H   0  0  0  0  0  0  0  0  0  0  0  0
    8.0880   -8.2525   12.4226 H   0  0  0  0  0  0  0  0  0  0  0  0
    8.3916   -7.2040   11.0138 H   0  0  0  0  0  0  0  0  0  0  0  0
   11.0030   -5.5760   10.8501 H   0  0  0  0  0  0  0  0  0  0  0  0
   11.3405   -3.2313   10.1586 H   0  0  0  0  0  0  0  0  0  0  0  0
    6.3474    1.4570    4.9348 H   0  0  0  0  0  0  0  0  0  0  0  0
  1  2  1  0
  1 32  1  0
  1 33  1  0
  1 34  1  0
  2  3  1  0
  2 35  1  0
  2 36  1  0
  3  4  1  0
  4  5  2  0
  4  6  1  0
  6  7  1  0
  6 37  1  0
  6 38  1  0
  7  8  1  0
  7 39  1  0
  7 40  1  0
  8  9  2  0
  8 31  1  0
  9 10  1  0
  9 41  1  0
 10 11  1  0
 10 12  2  0
 12 13  1  0
 12 29  1  0
 13 14  1  0
 14 15  1  0
 14 42  1  0
 14 43  1  0
 15 16  1  0
 15 20  2  0
 16 17  1  0
 16 18  2  0
 18 19  1  0
 19 20  1  0
 20 21  1  0
 21 22  2  0
 21 28  1  0
 22 23  1  0
 22 44  1  0
 23 24  2  0
 23 45  1  0
 24 25  1  0
 24 27  1  0
 25 26  1  0
 25 46  1  0
 25 47  1  0
 26 48  1  0
 26 49  1  0
 26 50  1  0
 27 28  2  0
 27 51  1  0
 28 52  1  0
 29 30  1  0
 29 31  2  0
 31 53  1  0
M  END

