
     RDKit          3D

 45 45  0  0  0  0  0  0  0  0999 V2000
    2.2499    8.5960    3.2676 C   0  0  0  0  0  0  0  0  0  0  0  0
    3.6270    7.9344    3.2220 C   0  0  0  0  0  0  0  0  0  0  0  0
    4.4026    8.2680    1.9379 C   0  0  0  0  0  0  0  0  0  0  0  0
    5.7197    7.6714    1.8480 N   0  0  0  0  0  0  0  0  0  0  0  0
    5.9979    6.3917    1.4521 C   0  0  0  0  0  0  0  0  0  0  0  0
    5.0166    5.4903    0.9801 C   0  0  0  0  0  0  0  0  0  0  0  0
    5.4118    4.2177    0.5709 C   0  0  0  0  0  0  0  0  0  0  0  0
    6.6662    3.7643    0.6047 N   0  0  0  0  0  0  0  0  0  0  0  0
    7.6039    4.6122    1.0590 C   0  0  0  0  0  0  0  0  0  0  0  0
    9.0687    4.2051    1.0323 C   0  0  0  0  0  0  0  0  0  0  0  0
    9.9144    5.0841    0.9037 O   0  0  0  0  0  0  0  0  0  0  0  0
    9.4085    2.8721    1.1047 N   0  0  0  0  0  0  0  0  0  0  0  0
    8.5648    1.8600    1.7650 C   0  0  0  0  0  0  0  0  0  0  0  0
    8.0594    0.7435    0.8574 C   0  0  0  0  0  0  0  0  0  0  0  0
   10.8341    2.5579    0.9510 C   0  0  0  0  0  0  0  0  0  0  0  0
   11.3198    2.2693   -0.4954 C   0  0  1  0  0  0  0  0  0  0  0  0
   11.1607    3.4750   -1.4300 C   0  0  0  0  0  0  0  0  0  0  0  0
   12.7849    1.8317   -0.4249 C   0  0  0  0  0  0  0  0  0  0  0  0
   10.6151    1.1529   -1.0415 O   0  0  0  0  0  0  0  0  0  0  0  0
    7.3267    5.9119    1.4760 C   0  0  0  0  0  0  0  0  0  0  0  0
    1.7165    8.3469    4.1979 H   0  0  0  0  0  0  0  0  0  0  0  0
    1.6169    8.2692    2.4254 H   0  0  0  0  0  0  0  0  0  0  0  0
    2.3276    9.6951    3.2139 H   0  0  0  0  0  0  0  0  0  0  0  0
    3.5244    6.8390    3.3069 H   0  0  0  0  0  0  0  0  0  0  0  0
    4.2304    8.2521    4.0905 H   0  0  0  0  0  0  0  0  0  0  0  0
    4.5256    9.3615    1.8586 H   0  0  0  0  0  0  0  0  0  0  0  0
    3.8099    7.9717    1.0549 H   0  0  0  0  0  0  0  0  0  0  0  0
    6.4968    8.2040    2.2176 H   0  0  0  0  0  0  0  0  0  0  0  0
    3.9634    5.7672    0.9265 H   0  0  0  0  0  0  0  0  0  0  0  0
    4.6538    3.5210    0.1926 H   0  0  0  0  0  0  0  0  0  0  0  0
    7.7108    2.3671    2.2260 H   0  0  0  0  0  0  0  0  0  0  0  0
    9.1618    1.4294    2.5896 H   0  0  0  0  0  0  0  0  0  0  0  0
    7.4367    1.1727    0.0581 H   0  0  0  0  0  0  0  0  0  0  0  0
    7.4351    0.0442    1.4376 H   0  0  0  0  0  0  0  0  0  0  0  0
    8.8891    0.1744    0.4136 H   0  0  0  0  0  0  0  0  0  0  0  0
   11.0406    1.6595    1.5510 H   0  0  0  0  0  0  0  0  0  0  0  0
   11.4205    3.3943    1.3608 H   0  0  0  0  0  0  0  0  0  0  0  0
   11.6812    4.3634   -1.0459 H   0  0  0  0  0  0  0  0  0  0  0  0
   10.0990    3.7452   -1.5445 H   0  0  0  0  0  0  0  0  0  0  0  0
   11.5557    3.2183   -2.4253 H   0  0  0  0  0  0  0  0  0  0  0  0
   13.4188    2.6289   -0.0076 H   0  0  0  0  0  0  0  0  0  0  0  0
   13.1489    1.5842   -1.4332 H   0  0  0  0  0  0  0  0  0  0  0  0
   12.8893    0.9326    0.2023 H   0  0  0  0  0  0  0  0  0  0  0  0
    9.6987    1.4281   -1.1810 H   0  0  0  0  0  0  0  0  0  0  0  0
    8.1545    6.5502    1.7907 H   0  0  0  0  0  0  0  0  0  0  0  0
  1  2  1  0
  1 21  1  0
  1 22  1  0
  1 23  1  0
  2  3  1  0
  2 24  1  0
  2 25  1  0
  3  4  1  0
  3 26  1  0
  3 27  1  0
  4  5  1  0
  4 28  1  0
  5  6  2  0
  5 20  1  0
  6  7  1  0
  6 29  1  0
  7  8  2  0
  7 30  1  0
  8  9  1  0
  9 10  1  0
  9 20  2  0
 10 11  2  0
 10 12  1  0
 12 13  1  0
 12 15  1  0
 13 14  1  0
 13 31  1  0
 13 32  1  0
 14 33  1  0
 14 34  1  0
 14 35  1  0
 15 16  1  0
 15 36  1  0
 15 37  1  0
 16 17  1  0
 16 18  1  0
 16 19  1  6
 17 38  1  0
 17 39  1  0
 17 40  1  0
 18 41  1  0
 18 42  1  0
 18 43  1  0
 19 44  1  0
 20 45  1  0
M  END

