
     RDKit          3D

 29 30  0  0  0  0  0  0  0  0999 V2000
    0.9699   -0.1446   -0.6627 O   0  0  0  0  0  0  0  0  0  0  0  0
    2.1725   -0.1681   -0.4586 C   0  0  0  0  0  0  0  0  0  0  0  0
    2.8220   -1.2538    0.4005 C   0  0  0  0  0  0  0  0  0  0  0  0
    1.8850   -1.7970    1.4678 C   0  0  1  0  0  0  0  0  0  0  0  0
    0.6644   -2.6563    1.0557 C   0  0  0  0  0  0  0  0  0  0  0  0
    0.9527   -3.5501    2.1947 N   0  0  0  0  0  0  0  0  0  0  0  0
    2.3292   -3.0366    2.2862 C   0  0  0  0  0  0  0  0  0  0  0  0
    3.0601    0.7355   -0.9912 N   0  0  0  0  0  0  0  0  0  0  0  0
    2.8163    1.8110   -1.8742 C   0  0  0  0  0  0  0  0  0  0  0  0
    1.5388    2.1490   -2.3501 C   0  0  0  0  0  0  0  0  0  0  0  0
    1.3836    3.2292   -3.2221 C   0  0  0  0  0  0  0  0  0  0  0  0
    2.4826    3.9916   -3.6366 C   0  0  0  0  0  0  0  0  0  0  0  0
    2.3747    5.0506   -4.4835 O   0  0  0  0  0  0  0  0  0  0  0  0
    3.7583    3.6561   -3.1618 C   0  0  0  0  0  0  0  0  0  0  0  0
    3.9173    2.5805   -2.2933 C   0  0  0  0  0  0  0  0  0  0  0  0
    3.7509   -0.8770    0.8650 H   0  0  0  0  0  0  0  0  0  0  0  0
    3.1271   -2.0707   -0.2804 H   0  0  0  0  0  0  0  0  0  0  0  0
    1.5677   -0.9836    2.1387 H   0  0  0  0  0  0  0  0  0  0  0  0
    0.8090   -3.1136    0.0560 H   0  0  0  0  0  0  0  0  0  0  0  0
   -0.3239   -2.1706    1.0693 H   0  0  0  0  0  0  0  0  0  0  0  0
    0.8519   -4.5500    2.0279 H   0  0  0  0  0  0  0  0  0  0  0  0
    3.0877   -3.6344    1.7376 H   0  0  0  0  0  0  0  0  0  0  0  0
    2.7034   -2.8680    3.3119 H   0  0  0  0  0  0  0  0  0  0  0  0
    4.0311    0.6101   -0.7317 H   0  0  0  0  0  0  0  0  0  0  0  0
    0.6797    1.5632   -2.0319 H   0  0  0  0  0  0  0  0  0  0  0  0
    0.3815    3.4810   -3.5847 H   0  0  0  0  0  0  0  0  0  0  0  0
    1.4485    5.1706   -4.7302 H   0  0  0  0  0  0  0  0  0  0  0  0
    4.6159    4.2498   -3.4839 H   0  0  0  0  0  0  0  0  0  0  0  0
    4.9203    2.3321   -1.9322 H   0  0  0  0  0  0  0  0  0  0  0  0
  1  2  2  0
  2  3  1  0
  2  8  1  0
  3  4  1  0
  3 16  1  0
  3 17  1  0
  4  5  1  0
  4  7  1  0
  4 18  1  1
  5  6  1  0
  5 19  1  0
  5 20  1  0
  6  7  1  0
  6 21  1  0
  7 22  1  0
  7 23  1  0
  8  9  1  0
  8 24  1  0
  9 10  2  0
  9 15  1  0
 10 11  1  0
 10 25  1  0
 11 12  2  0
 11 26  1  0
 12 13  1  0
 12 14  1  0
 13 27  1  0
 14 15  2  0
 14 28  1  0
 15 29  1  0
M  END

