
     RDKit          3D

 64 67  0  0  0  0  0  0  0  0999 V2000
   -1.0700    9.2700    1.1179 C   0  0  0  0  0  0  0  0  0  0  0  0
   -0.2869    8.7478    2.3359 C   0  0  1  0  0  0  0  0  0  0  0  0
    0.3260    9.9618    3.0721 C   0  0  0  0  0  0  0  0  0  0  0  0
   -1.2811    8.0267    3.2756 C   0  0  0  0  0  0  0  0  0  0  0  0
    0.8357    7.7717    1.9328 C   0  0  0  0  0  0  0  0  0  0  0  0
    1.1003    7.4162    0.6021 C   0  0  0  0  0  0  0  0  0  0  0  0
    2.1312    6.5265    0.2751 C   0  0  0  0  0  0  0  0  0  0  0  0
    2.9345    5.9508    1.2636 C   0  0  0  0  0  0  0  0  0  0  0  0
    4.0134    4.9404    0.9134 C   0  0  0  0  0  0  0  0  0  0  0  0
    5.2360    5.1158    1.6887 N   0  0  0  0  0  0  0  0  0  0  0  0
    6.1057    3.9455    1.7791 C   0  0  0  0  0  0  0  0  0  0  0  0
    7.0008    3.7655    0.5392 C   0  0  0  0  0  0  0  0  0  0  0  0
    7.7702    4.9672    0.2161 N   0  0  0  0  0  0  0  0  0  0  0  0
    8.9970    5.1624    0.9770 C   0  0  0  0  0  0  0  0  0  0  0  0
   10.0115    5.9438    0.1997 C   0  0  0  0  0  0  0  0  0  0  0  0
   10.4065    7.1673    0.3782 N   0  0  0  0  0  0  0  0  0  0  0  0
   11.3288    7.4056   -0.6312 C   0  0  0  0  0  0  0  0  0  0  0  0
   12.0474    8.6957   -0.8103 C   0  0  0  0  0  0  0  0  0  0  0  0
   12.8505    8.8641   -1.7152 O   0  0  0  0  0  0  0  0  0  0  0  0
   11.6961    9.6209    0.1388 N   0  0  0  0  0  0  0  0  0  0  0  0
   12.1536   10.9387    0.3015 C   0  0  0  0  0  0  0  0  0  0  0  0
   13.1027   11.5337   -0.5514 C   0  0  0  0  0  0  0  0  0  0  0  0
   13.5106   12.8502   -0.3280 C   0  0  0  0  0  0  0  0  0  0  0  0
   12.9783   13.5714    0.7370 C   0  0  0  0  0  0  0  0  0  0  0  0
   13.3763   14.8375    0.9448 F   0  0  0  0  0  0  0  0  0  0  0  0
   12.0383   13.0025    1.5930 C   0  0  0  0  0  0  0  0  0  0  0  0
   11.6300   11.6882    1.3715 C   0  0  0  0  0  0  0  0  0  0  0  0
   11.4441    6.2766   -1.3887 C   0  0  0  0  0  0  0  0  0  0  0  0
   10.6098    5.3451   -0.8642 O   0  0  0  0  0  0  0  0  0  0  0  0
    6.9036    6.1483    0.1303 C   0  0  0  0  0  0  0  0  0  0  0  0
    6.0083    6.3197    1.3717 C   0  0  0  0  0  0  0  0  0  0  0  0
    2.6811    6.3045    2.5982 C   0  0  0  0  0  0  0  0  0  0  0  0
    1.6572    7.1925    2.9208 C   0  0  0  0  0  0  0  0  0  0  0  0
   -1.8612    9.9602    1.4510 H   0  0  0  0  0  0  0  0  0  0  0  0
   -1.5567    8.4537    0.5614 H   0  0  0  0  0  0  0  0  0  0  0  0
   -0.4230    9.8226    0.4188 H   0  0  0  0  0  0  0  0  0  0  0  0
   -0.4639   10.6700    3.3726 H   0  0  0  0  0  0  0  0  0  0  0  0
    1.0362   10.4993    2.4236 H   0  0  0  0  0  0  0  0  0  0  0  0
    0.8666    9.6605    3.9823 H   0  0  0  0  0  0  0  0  0  0  0  0
   -2.0904    8.7112    3.5794 H   0  0  0  0  0  0  0  0  0  0  0  0
   -0.7911    7.6634    4.1917 H   0  0  0  0  0  0  0  0  0  0  0  0
   -1.7392    7.1590    2.7746 H   0  0  0  0  0  0  0  0  0  0  0  0
    0.5053    7.8356   -0.2096 H   0  0  0  0  0  0  0  0  0  0  0  0
    2.3083    6.2792   -0.7764 H   0  0  0  0  0  0  0  0  0  0  0  0
    4.1659    4.9592   -0.1879 H   0  0  0  0  0  0  0  0  0  0  0  0
    3.6322    3.9286    1.1412 H   0  0  0  0  0  0  0  0  0  0  0  0
    5.4894    3.0460    1.9439 H   0  0  0  0  0  0  0  0  0  0  0  0
    6.7459    4.0607    2.6746 H   0  0  0  0  0  0  0  0  0  0  0  0
    6.3705    3.5210   -0.3357 H   0  0  0  0  0  0  0  0  0  0  0  0
    7.6917    2.9170    0.6759 H   0  0  0  0  0  0  0  0  0  0  0  0
    9.4259    4.1720    1.1975 H   0  0  0  0  0  0  0  0  0  0  0  0
    8.8732    5.6864    1.9460 H   0  0  0  0  0  0  0  0  0  0  0  0
   11.0087    9.2872    0.8103 H   0  0  0  0  0  0  0  0  0  0  0  0
   13.5087   10.9561   -1.3788 H   0  0  0  0  0  0  0  0  0  0  0  0
   14.2458   13.3259   -0.9804 H   0  0  0  0  0  0  0  0  0  0  0  0
   11.6366   13.5901    2.4207 H   0  0  0  0  0  0  0  0  0  0  0  0
   10.8922   11.2349    2.0396 H   0  0  0  0  0  0  0  0  0  0  0  0
   12.0346    6.0074   -2.2587 H   0  0  0  0  0  0  0  0  0  0  0  0
    6.2754    6.0452   -0.7726 H   0  0  0  0  0  0  0  0  0  0  0  0
    7.5254    7.0451   -0.0214 H   0  0  0  0  0  0  0  0  0  0  0  0
    5.3186    7.1672    1.2353 H   0  0  0  0  0  0  0  0  0  0  0  0
    6.6367    6.5650    2.2478 H   0  0  0  0  0  0  0  0  0  0  0  0
    3.3100    5.8788    3.3839 H   0  0  0  0  0  0  0  0  0  0  0  0
    1.4957    7.4388    3.9733 H   0  0  0  0  0  0  0  0  0  0  0  0
  2  1  1  6
  1 34  1  0
  1 35  1  0
  1 36  1  0
  2  3  1  0
  2  4  1  0
  2  5  1  0
  3 37  1  0
  3 38  1  0
  3 39  1  0
  4 40  1  0
  4 41  1  0
  4 42  1  0
  5  6  2  0
  5 33  1  0
  6  7  1  0
  6 43  1  0
  7  8  2  0
  7 44  1  0
  8  9  1  0
  8 32  1  0
  9 10  1  0
  9 45  1  0
  9 46  1  0
 10 11  1  0
 10 31  1  0
 11 12  1  0
 11 47  1  0
 11 48  1  0
 12 13  1  0
 12 49  1  0
 12 50  1  0
 13 14  1  0
 13 30  1  0
 14 15  1  0
 14 51  1  0
 14 52  1  0
 15 16  2  0
 15 29  1  0
 16 17  1  0
 17 18  1  0
 17 28  2  0
 18 19  2  0
 18 20  1  0
 20 21  1  0
 20 53  1  0
 21 22  2  0
 21 27  1  0
 22 23  1  0
 22 54  1  0
 23 24  2  0
 23 55  1  0
 24 25  1  0
 24 26  1  0
 26 27  2  0
 26 56  1  0
 27 57  1  0
 28 29  1  0
 28 58  1  0
 30 31  1  0
 30 59  1  0
 30 60  1  0
 31 61  1  0
 31 62  1  0
 32 33  2  0
 32 63  1  0
 33 64  1  0
M  END

