
     RDKit          3D

 60 59  0  0  0  0  0  0  0  0999 V2000
    4.9879    3.0691   -0.7329 C   0  0  0  0  0  0  0  0  0  0  0  0
    4.3241    1.7818   -0.2772 C   0  0  0  0  0  0  0  0  0  0  0  0
    4.9947    0.6731   -0.8551 O   0  0  0  0  0  0  0  0  0  0  0  0
    4.6410   -0.9274   -0.6609 Si  0  0  1  0  0  4  0  0  0  0  0  0
    4.8663   -1.3448    0.7507 H   0  0  0  0  0  0  0  0  0  0  0  0
    3.0658   -1.1696   -1.0904 O   0  0  0  0  0  0  0  0  0  0  0  0
    2.3818   -2.4076   -1.2024 C   0  0  0  0  0  0  0  0  0  0  0  0
    0.9477   -2.1569   -1.6337 C   0  0  0  0  0  0  0  0  0  0  0  0
    5.6001   -1.7992   -1.6832 O   0  0  0  0  0  0  0  0  0  0  0  0
    7.0153   -1.7760   -1.7677 C   0  0  0  0  0  0  0  0  0  0  0  0
    7.4756   -2.6888   -2.8958 C   0  0  0  0  0  0  0  0  0  0  0  0
    8.9964   -2.7221   -3.0637 C   0  0  0  0  0  0  0  0  0  0  0  0
    9.4684   -3.6335   -4.2008 C   0  0  0  0  0  0  0  0  0  0  0  0
   10.9894   -3.6695   -4.3754 C   0  0  0  0  0  0  0  0  0  0  0  0
   11.4616   -4.5794   -5.5133 C   0  0  0  0  0  0  0  0  0  0  0  0
   12.9826   -4.6150   -5.6897 C   0  0  0  0  0  0  0  0  0  0  0  0
   13.4544   -5.5241   -6.8284 C   0  0  0  0  0  0  0  0  0  0  0  0
   14.9753   -5.5590   -7.0055 C   0  0  0  0  0  0  0  0  0  0  0  0
   15.4462   -6.4675   -8.1450 C   0  0  0  0  0  0  0  0  0  0  0  0
   16.9675   -6.5021   -8.3215 C   0  0  0  0  0  0  0  0  0  0  0  0
   17.4316   -7.4095   -9.4670 C   0  0  0  0  0  0  0  0  0  0  0  0
   18.9510   -7.4437   -9.6254 C   0  0  0  0  0  0  0  0  0  0  0  0
   19.5570   -8.4503  -11.0385 S   0  0  0  0  0  0  0  0  0  0  0  0
    4.4789    3.9434   -0.2963 H   0  0  0  0  0  0  0  0  0  0  0  0
    4.9506    3.1544   -1.8300 H   0  0  0  0  0  0  0  0  0  0  0  0
    6.0449    3.0905   -0.4243 H   0  0  0  0  0  0  0  0  0  0  0  0
    3.2598    1.7717   -0.5761 H   0  0  0  0  0  0  0  0  0  0  0  0
    4.3514    1.7123    0.8282 H   0  0  0  0  0  0  0  0  0  0  0  0
    2.3977   -2.9429   -0.2325 H   0  0  0  0  0  0  0  0  0  0  0  0
    2.8965   -3.0535   -1.9373 H   0  0  0  0  0  0  0  0  0  0  0  0
    0.4249   -1.5280   -0.8961 H   0  0  0  0  0  0  0  0  0  0  0  0
    0.4005   -3.1081   -1.7321 H   0  0  0  0  0  0  0  0  0  0  0  0
    0.9230   -1.6371   -2.6042 H   0  0  0  0  0  0  0  0  0  0  0  0
    7.4632   -2.1074   -0.8095 H   0  0  0  0  0  0  0  0  0  0  0  0
    7.3650   -0.7423   -1.9479 H   0  0  0  0  0  0  0  0  0  0  0  0
    6.9957   -2.3516   -3.8310 H   0  0  0  0  0  0  0  0  0  0  0  0
    7.0912   -3.7055   -2.7008 H   0  0  0  0  0  0  0  0  0  0  0  0
    9.4656   -3.0504   -2.1173 H   0  0  0  0  0  0  0  0  0  0  0  0
    9.3695   -1.6963   -3.2423 H   0  0  0  0  0  0  0  0  0  0  0  0
    8.9996   -3.3062   -5.1472 H   0  0  0  0  0  0  0  0  0  0  0  0
    9.0965   -4.6596   -4.0229 H   0  0  0  0  0  0  0  0  0  0  0  0
   11.4578   -3.9970   -3.4284 H   0  0  0  0  0  0  0  0  0  0  0  0
   11.3606   -2.6427   -4.5519 H   0  0  0  0  0  0  0  0  0  0  0  0
   10.9925   -4.2523   -6.4600 H   0  0  0  0  0  0  0  0  0  0  0  0
   11.0909   -5.6064   -5.3367 H   0  0  0  0  0  0  0  0  0  0  0  0
   13.4519   -4.9425   -4.7432 H   0  0  0  0  0  0  0  0  0  0  0  0
   13.3532   -3.5879   -5.8659 H   0  0  0  0  0  0  0  0  0  0  0  0
   12.9848   -5.1968   -7.7747 H   0  0  0  0  0  0  0  0  0  0  0  0
   13.0843   -6.5514   -6.6521 H   0  0  0  0  0  0  0  0  0  0  0  0
   15.4453   -5.8869   -6.0595 H   0  0  0  0  0  0  0  0  0  0  0  0
   15.3455   -4.5317   -7.1816 H   0  0  0  0  0  0  0  0  0  0  0  0
   14.9775   -6.1395   -9.0912 H   0  0  0  0  0  0  0  0  0  0  0  0
   15.0765   -7.4949   -7.9693 H   0  0  0  0  0  0  0  0  0  0  0  0
   17.4370   -6.8331   -7.3765 H   0  0  0  0  0  0  0  0  0  0  0  0
   17.3379   -5.4748   -8.4963 H   0  0  0  0  0  0  0  0  0  0  0  0
   16.9790   -7.0794  -10.4179 H   0  0  0  0  0  0  0  0  0  0  0  0
   17.0615   -8.4367   -9.2956 H   0  0  0  0  0  0  0  0  0  0  0  0
   19.4402   -7.7887   -8.7004 H   0  0  0  0  0  0  0  0  0  0  0  0
   19.3417   -6.4334   -9.8301 H   0  0  0  0  0  0  0  0  0  0  0  0
   19.1189   -9.6461  -10.5792 H   0  0  0  0  0  0  0  0  0  0  0  0
  1  2  1  0
  1 24  1  0
  1 25  1  0
  1 26  1  0
  2  3  1  0
  2 27  1  0
  2 28  1  0
  3  4  1  0
  4  5  1  1
  4  6  1  0
  4  9  1  0
  6  7  1  0
  7  8  1  0
  7 29  1  0
  7 30  1  0
  8 31  1  0
  8 32  1  0
  8 33  1  0
  9 10  1  0
 10 11  1  0
 10 34  1  0
 10 35  1  0
 11 12  1  0
 11 36  1  0
 11 37  1  0
 12 13  1  0
 12 38  1  0
 12 39  1  0
 13 14  1  0
 13 40  1  0
 13 41  1  0
 14 15  1  0
 14 42  1  0
 14 43  1  0
 15 16  1  0
 15 44  1  0
 15 45  1  0
 16 17  1  0
 16 46  1  0
 16 47  1  0
 17 18  1  0
 17 48  1  0
 17 49  1  0
 18 19  1  0
 18 50  1  0
 18 51  1  0
 19 20  1  0
 19 52  1  0
 19 53  1  0
 20 21  1  0
 20 54  1  0
 20 55  1  0
 21 22  1  0
 21 56  1  0
 21 57  1  0
 22 23  1  0
 22 58  1  0
 22 59  1  0
 23 60  1  0
M  END

