
     RDKit          3D

 53 57  0  0  0  0  0  0  0  0999 V2000
    0.6279    1.7614   -0.6489 C   0  0  0  0  0  0  0  0  0  0  0  0
   -0.5723    1.8224   -0.8752 C   0  0  0  0  0  0  0  0  0  0  0  0
   -1.9531    1.8804   -1.1458 C   0  0  0  0  0  0  0  0  0  0  0  0
   -2.9013    2.7583   -0.6383 C   0  0  0  0  0  0  0  0  0  0  0  0
   -4.2086    2.5176   -1.1391 C   0  0  0  0  0  0  0  0  0  0  0  0
   -4.2562    1.4639   -2.0218 C   0  0  0  0  0  0  0  0  0  0  0  0
   -2.7043    0.7467   -2.2570 S   0  0  0  0  0  0  0  0  0  0  0  0
    2.0244    1.7140   -0.3660 C   0  0  0  0  0  0  0  0  0  0  0  0
    2.4969    2.6934    0.5520 C   0  0  0  0  0  0  0  0  0  0  0  0
    2.8401    3.5588    1.3459 C   0  0  0  0  0  0  0  0  0  0  0  0
    3.2182    4.5602    2.2609 C   0  0  0  0  0  0  0  0  0  0  0  0
    4.4744    4.8392    2.7826 C   0  0  0  0  0  0  0  0  0  0  0  0
    4.4724    5.9341    3.6867 C   0  0  0  0  0  0  0  0  0  0  0  0
    3.2230    6.4855    3.8525 C   0  0  0  0  0  0  0  0  0  0  0  0
    2.0276    5.6775    2.9079 S   0  0  0  0  0  0  0  0  0  0  0  0
    2.8104    0.7521   -0.9788 C   0  0  0  0  0  0  0  0  0  0  0  0
    4.2147    0.5137   -0.8521 C   0  0  0  0  0  0  0  0  0  0  0  0
    5.2087    1.1507   -0.0994 C   0  0  0  0  0  0  0  0  0  0  0  0
    6.4871    0.5973   -0.2608 C   0  0  0  0  0  0  0  0  0  0  0  0
    6.5289   -0.4882   -1.1443 C   0  0  0  0  0  0  0  0  0  0  0  0
    7.6026   -1.3234   -1.5853 C   0  0  0  0  0  0  0  0  0  0  0  0
    8.9438   -1.2845   -1.2420 C   0  0  0  0  0  0  0  0  0  0  0  0
    9.5284   -0.3552   -0.3365 C   0  0  0  0  0  0  0  0  0  0  0  0
   10.0973    0.4099    0.4302 C   0  0  0  0  0  0  0  0  0  0  0  0
   10.7385    1.2975    1.3154 C   0  0  0  0  0  0  0  0  0  0  0  0
   12.0825    1.3595    1.6573 C   0  0  0  0  0  0  0  0  0  0  0  0
   12.3745    2.3916    2.5881 C   0  0  0  0  0  0  0  0  0  0  0  0
   11.2613    3.1119    2.9537 C   0  0  0  0  0  0  0  0  0  0  0  0
    9.8358    2.5411    2.1667 S   0  0  0  0  0  0  0  0  0  0  0  0
    9.8424   -2.2303   -1.8171 C   0  0  0  0  0  0  0  0  0  0  0  0
   10.6254   -3.0348   -2.3019 C   0  0  0  0  0  0  0  0  0  0  0  0
   11.5340   -3.9580   -2.8546 C   0  0  0  0  0  0  0  0  0  0  0  0
   11.2921   -4.9821   -3.7601 C   0  0  0  0  0  0  0  0  0  0  0  0
   12.4602   -5.7171   -4.0963 C   0  0  0  0  0  0  0  0  0  0  0  0
   13.5842   -5.2564   -3.4515 C   0  0  0  0  0  0  0  0  0  0  0  0
   13.2356   -3.9160   -2.4218 S   0  0  0  0  0  0  0  0  0  0  0  0
    4.9228   -0.7989   -1.7695 S   0  0  0  0  0  0  0  0  0  0  0  0
   -2.6455    3.5451    0.0717 H   0  0  0  0  0  0  0  0  0  0  0  0
   -5.0852    3.1028   -0.8572 H   0  0  0  0  0  0  0  0  0  0  0  0
   -5.1243    1.0693   -2.5485 H   0  0  0  0  0  0  0  0  0  0  0  0
    5.3613    4.2646    2.5136 H   0  0  0  0  0  0  0  0  0  0  0  0
    5.3628    6.3029    4.1978 H   0  0  0  0  0  0  0  0  0  0  0  0
    2.9413    7.3279    4.4832 H   0  0  0  0  0  0  0  0  0  0  0  0
    2.2733    0.0821   -1.6554 H   0  0  0  0  0  0  0  0  0  0  0  0
    4.9957    1.9980    0.5485 H   0  0  0  0  0  0  0  0  0  0  0  0
    7.3725    0.9701    0.2490 H   0  0  0  0  0  0  0  0  0  0  0  0
    7.3327   -2.1085   -2.2966 H   0  0  0  0  0  0  0  0  0  0  0  0
   12.8212    0.6745    1.2405 H   0  0  0  0  0  0  0  0  0  0  0  0
   13.3736    2.5963    2.9757 H   0  0  0  0  0  0  0  0  0  0  0  0
   11.2028    3.9505    3.6463 H   0  0  0  0  0  0  0  0  0  0  0  0
   10.2981   -5.1840   -4.1601 H   0  0  0  0  0  0  0  0  0  0  0  0
   12.4706   -6.5582   -4.7912 H   0  0  0  0  0  0  0  0  0  0  0  0
   14.6028   -5.6350   -3.5271 H   0  0  0  0  0  0  0  0  0  0  0  0
  1  2  3  0
  1  8  1  0
  2  3  1  0
  3  4  2  0
  3  7  1  0
  4  5  1  0
  4 38  1  0
  5  6  2  0
  5 39  1  0
  6  7  1  0
  6 40  1  0
  8  9  1  0
  8 16  2  0
  9 10  3  0
 10 11  1  0
 11 12  2  0
 11 15  1  0
 12 13  1  0
 12 41  1  0
 13 14  2  0
 13 42  1  0
 14 15  1  0
 14 43  1  0
 16 17  1  0
 16 44  1  0
 17 18  2  0
 17 37  1  0
 18 19  1  0
 18 45  1  0
 19 20  2  0
 19 46  1  0
 20 21  1  0
 20 37  1  0
 21 22  2  0
 21 47  1  0
 22 23  1  0
 22 30  1  0
 23 24  3  0
 24 25  1  0
 25 26  2  0
 25 29  1  0
 26 27  1  0
 26 48  1  0
 27 28  2  0
 27 49  1  0
 28 29  1  0
 28 50  1  0
 30 31  3  0
 31 32  1  0
 32 33  2  0
 32 36  1  0
 33 34  1  0
 33 51  1  0
 34 35  2  0
 34 52  1  0
 35 36  1  0
 35 53  1  0
M  END

