
     RDKit          3D

 63 69  0  0  0  0  0  0  0  0999 V2000
    1.0163   -0.2241    0.1113 C   0  0  0  0  0  0  0  0  0  0  0  0
    0.1809    0.7262   -0.0895 N   0  0  0  0  0  0  0  0  0  0  0  0
   -1.1926    0.5452    0.0861 C   0  0  0  0  0  0  0  0  0  0  0  0
   -1.9507    1.6401    0.5493 C   0  0  0  0  0  0  0  0  0  0  0  0
   -3.3216    1.5277    0.7475 C   0  0  0  0  0  0  0  0  0  0  0  0
   -4.0012    0.3264    0.4623 C   0  0  0  0  0  0  0  0  0  0  0  0
   -5.4506    0.1892    0.6512 C   0  0  0  0  0  0  0  0  0  0  0  0
   -6.3535    1.1355    1.1294 C   0  0  0  0  0  0  0  0  0  0  0  0
   -7.5733    0.4967    1.1081 N   0  0  0  0  0  0  0  0  0  0  0  0
   -8.8280    0.8551    1.4395 N   0  0  0  0  0  0  0  0  0  0  0  0
   -9.6409   -0.1411    1.2262 C   0  0  0  0  0  0  0  0  0  0  0  0
  -11.0646   -0.0791    1.4821 C   0  0  0  0  0  0  0  0  0  0  0  0
  -12.0198   -1.0628    1.2994 C   0  0  0  0  0  0  0  0  0  0  0  0
  -13.3274   -0.6381    1.6615 C   0  0  0  0  0  0  0  0  0  0  0  0
  -13.3506    0.6596    2.1139 C   0  0  0  0  0  0  0  0  0  0  0  0
  -11.7842    1.3847    2.1064 S   0  0  0  0  0  0  0  0  0  0  0  0
   -8.8821   -1.6288    0.5827 S   0  0  0  0  0  0  0  0  0  0  0  0
   -7.3517   -0.7783    0.6277 C   0  0  0  0  0  0  0  0  0  0  0  0
   -6.1016   -1.0007    0.3444 N   0  0  0  0  0  0  0  0  0  0  0  0
   -3.2501   -0.7563   -0.0319 C   0  0  0  0  0  0  0  0  0  0  0  0
   -1.8740   -0.6526   -0.2161 C   0  0  0  0  0  0  0  0  0  0  0  0
    2.4534   -0.0870   -0.1314 C   0  0  0  0  0  0  0  0  0  0  0  0
    3.0093    1.1068   -0.6352 C   0  0  0  0  0  0  0  0  0  0  0  0
    4.3729    1.2206   -0.8639 C   0  0  0  0  0  0  0  0  0  0  0  0
    5.2450    0.1419   -0.5899 C   0  0  0  0  0  0  0  0  0  0  0  0
    6.6314    0.2585   -0.8215 N   0  0  0  0  0  0  0  0  0  0  0  0
    7.2983    1.4972   -0.6054 C   0  0  0  0  0  0  0  0  0  0  0  0
    7.0479    2.2539    0.5533 C   0  0  0  0  0  0  0  0  0  0  0  0
    7.7054    3.4681    0.7579 C   0  0  0  0  0  0  0  0  0  0  0  0
    8.6342    3.9395   -0.1756 C   0  0  0  0  0  0  0  0  0  0  0  0
    8.8937    3.1844   -1.3239 C   0  0  0  0  0  0  0  0  0  0  0  0
    8.2283    1.9773   -1.5444 C   0  0  0  0  0  0  0  0  0  0  0  0
    7.3862   -0.8636   -1.2657 C   0  0  0  0  0  0  0  0  0  0  0  0
    6.9117   -1.6786   -2.3091 C   0  0  0  0  0  0  0  0  0  0  0  0
    7.6571   -2.7772   -2.7399 C   0  0  0  0  0  0  0  0  0  0  0  0
    8.8923   -3.0721   -2.1533 C   0  0  0  0  0  0  0  0  0  0  0  0
    9.3723   -2.2578   -1.1227 C   0  0  0  0  0  0  0  0  0  0  0  0
    8.6254   -1.1666   -0.6748 C   0  0  0  0  0  0  0  0  0  0  0  0
    4.6938   -1.0522   -0.0828 C   0  0  0  0  0  0  0  0  0  0  0  0
    3.3235   -1.1596    0.1352 C   0  0  0  0  0  0  0  0  0  0  0  0
    0.6922   -1.2106    0.4999 H   0  0  0  0  0  0  0  0  0  0  0  0
   -1.4289    2.5761    0.7588 H   0  0  0  0  0  0  0  0  0  0  0  0
   -3.8740    2.3937    1.1205 H   0  0  0  0  0  0  0  0  0  0  0  0
   -6.2473    2.1600    1.4703 H   0  0  0  0  0  0  0  0  0  0  0  0
  -11.7880   -2.0585    0.9172 H   0  0  0  0  0  0  0  0  0  0  0  0
  -14.2145   -1.2685    1.5897 H   0  0  0  0  0  0  0  0  0  0  0  0
  -14.2111    1.2345    2.4544 H   0  0  0  0  0  0  0  0  0  0  0  0
   -3.7733   -1.6821   -0.2768 H   0  0  0  0  0  0  0  0  0  0  0  0
   -1.3216   -1.4992   -0.6307 H   0  0  0  0  0  0  0  0  0  0  0  0
    2.3360    1.9380   -0.8543 H   0  0  0  0  0  0  0  0  0  0  0  0
    4.7800    2.1492   -1.2672 H   0  0  0  0  0  0  0  0  0  0  0  0
    6.3346    1.8842    1.2925 H   0  0  0  0  0  0  0  0  0  0  0  0
    7.4985    4.0437    1.6639 H   0  0  0  0  0  0  0  0  0  0  0  0
    9.1519    4.8871   -0.0092 H   0  0  0  0  0  0  0  0  0  0  0  0
    9.6131    3.5433   -2.0645 H   0  0  0  0  0  0  0  0  0  0  0  0
    8.4257    1.3977   -2.4482 H   0  0  0  0  0  0  0  0  0  0  0  0
    5.9551   -1.4446   -2.7803 H   0  0  0  0  0  0  0  0  0  0  0  0
    7.2738   -3.4000   -3.5524 H   0  0  0  0  0  0  0  0  0  0  0  0
    9.4764   -3.9288   -2.4977 H   0  0  0  0  0  0  0  0  0  0  0  0
   10.3336   -2.4793   -0.6519 H   0  0  0  0  0  0  0  0  0  0  0  0
    8.9993   -0.5406    0.1377 H   0  0  0  0  0  0  0  0  0  0  0  0
    5.3488   -1.8944    0.1449 H   0  0  0  0  0  0  0  0  0  0  0  0
    2.9178   -2.0938    0.5352 H   0  0  0  0  0  0  0  0  0  0  0  0
  1  2  2  0
  1 22  1  0
  1 41  1  0
  2  3  1  0
  3  4  2  0
  3 21  1  0
  4  5  1  0
  4 42  1  0
  5  6  2  0
  5 43  1  0
  6  7  1  0
  6 20  1  0
  7  8  2  0
  7 19  1  0
  8  9  1  0
  8 44  1  0
  9 10  1  0
  9 18  1  0
 10 11  2  0
 11 12  1  0
 11 17  1  0
 12 13  2  0
 12 16  1  0
 13 14  1  0
 13 45  1  0
 14 15  2  0
 14 46  1  0
 15 16  1  0
 15 47  1  0
 17 18  1  0
 18 19  2  0
 20 21  2  0
 20 48  1  0
 21 49  1  0
 22 23  2  0
 22 40  1  0
 23 24  1  0
 23 50  1  0
 24 25  2  0
 24 51  1  0
 25 26  1  0
 25 39  1  0
 26 27  1  0
 26 33  1  0
 27 28  2  0
 27 32  1  0
 28 29  1  0
 28 52  1  0
 29 30  2  0
 29 53  1  0
 30 31  1  0
 30 54  1  0
 31 32  2  0
 31 55  1  0
 32 56  1  0
 33 34  2  0
 33 38  1  0
 34 35  1  0
 34 57  1  0
 35 36  2  0
 35 58  1  0
 36 37  1  0
 36 59  1  0
 37 38  2  0
 37 60  1  0
 38 61  1  0
 39 40  2  0
 39 62  1  0
 40 63  1  0
M  END

