
     RDKit          3D

 75 81  0  0  0  0  0  0  0  0999 V2000
    6.9747    3.6920    2.8629 C   0  0  0  0  0  0  0  0  0  0  0  0
    5.6893    3.1820    3.5429 C   0  0  0  0  0  0  0  0  0  0  0  0
    5.0804    2.0097    2.8439 C   0  0  0  0  0  0  0  0  0  0  0  0
    4.0868    1.8990    1.9333 C   0  0  0  0  0  0  0  0  0  0  0  0
    3.3269    3.0557    1.4073 C   0  0  0  0  0  0  0  0  0  0  0  0
    2.3628    3.7917    2.0050 C   0  0  0  0  0  0  0  0  0  0  0  0
    1.7569    3.6388    3.3459 C   0  0  0  0  0  0  0  0  0  0  0  0
    0.8663    2.6743    3.6699 C   0  0  0  0  0  0  0  0  0  0  0  0
    0.2471    1.5632    2.8859 C   0  0  0  0  0  0  0  0  0  0  0  0
   -1.1636    1.9001    2.3661 C   0  0  0  0  0  0  0  0  0  0  0  0
    0.3286    2.8795    5.3951 S   0  0  1  0  0  0  0  0  0  0  0  0
   -1.0862    3.2722    5.4426 O   0  0  0  0  0  0  0  0  0  0  0  0
    0.7893    1.7325    6.1837 O   0  0  0  0  0  0  0  0  0  0  0  0
    1.3798    4.3146    5.6342 C   0  0  0  0  0  0  0  0  0  0  0  0
    1.5192    5.0598    6.7906 C   0  0  0  0  0  0  0  0  0  0  0  0
    2.3872    6.1748    6.7825 C   0  0  0  0  0  0  0  0  0  0  0  0
    2.5693    7.0055    8.0009 C   0  0  0  0  0  0  0  0  0  0  0  0
    3.8230    7.5635    8.3163 C   0  0  0  0  0  0  0  0  0  0  0  0
    3.9929    8.3434    9.4614 C   0  0  0  0  0  0  0  0  0  0  0  0
    2.9129    8.5844   10.3160 C   0  0  0  0  0  0  0  0  0  0  0  0
    1.6618    8.0373   10.0161 C   0  0  0  0  0  0  0  0  0  0  0  0
    1.4918    7.2554    8.8722 C   0  0  0  0  0  0  0  0  0  0  0  0
    3.0668    6.4748    5.5852 C   0  0  0  0  0  0  0  0  0  0  0  0
    2.9126    5.7064    4.4266 C   0  0  0  0  0  0  0  0  0  0  0  0
    2.0573    4.6007    4.4423 C   0  0  0  0  0  0  0  0  0  0  0  0
    1.8553    4.8735    1.0657 C   0  0  2  0  0  0  0  0  0  0  0  0
    1.6170    6.0512    1.6774 F   0  0  0  0  0  0  0  0  0  0  0  0
    0.6983    4.4865    0.4691 F   0  0  0  0  0  0  0  0  0  0  0  0
    2.9782    4.9962    0.0056 C   0  0  1  0  0  0  0  0  0  0  0  0
    2.5302    5.3621   -1.1992 F   0  0  0  0  0  0  0  0  0  0  0  0
    3.8855    5.9005    0.4336 F   0  0  0  0  0  0  0  0  0  0  0  0
    3.6258    3.5859    0.0132 C   0  0  2  0  0  0  0  0  0  0  0  0
    3.0589    2.8253   -0.9602 F   0  0  0  0  0  0  0  0  0  0  0  0
    4.9487    3.6423   -0.2392 F   0  0  0  0  0  0  0  0  0  0  0  0
    3.8532    0.5141    1.4368 C   0  0  0  0  0  0  0  0  0  0  0  0
    2.9219    0.0636    0.4963 C   0  0  0  0  0  0  0  0  0  0  0  0
    2.8591   -1.2993    0.1852 C   0  0  0  0  0  0  0  0  0  0  0  0
    3.7047   -2.2491    0.7909 C   0  0  0  0  0  0  0  0  0  0  0  0
    3.6174   -3.6914    0.4449 C   0  0  0  0  0  0  0  0  0  0  0  0
    4.7750   -4.4907    0.3841 C   0  0  0  0  0  0  0  0  0  0  0  0
    4.6941   -5.8455    0.0573 C   0  0  0  0  0  0  0  0  0  0  0  0
    3.4542   -6.4320   -0.2131 C   0  0  0  0  0  0  0  0  0  0  0  0
    2.2955   -5.6518   -0.1546 C   0  0  0  0  0  0  0  0  0  0  0  0
    2.3761   -4.2965    0.1699 C   0  0  0  0  0  0  0  0  0  0  0  0
    4.6470   -1.7880    1.7378 C   0  0  0  0  0  0  0  0  0  0  0  0
    4.6950   -0.4375    2.0283 C   0  0  0  0  0  0  0  0  0  0  0  0
    5.8100    0.3782    3.1731 S   0  0  1  0  0  0  0  0  0  0  0  0
    7.1877    0.3292    2.6656 O   0  0  0  0  0  0  0  0  0  0  0  0
    5.5357   -0.0053    4.5615 O   0  0  0  0  0  0  0  0  0  0  0  0
    7.4050    4.5233    3.4424 H   0  0  0  0  0  0  0  0  0  0  0  0
    6.7576    4.0519    1.8458 H   0  0  0  0  0  0  0  0  0  0  0  0
    7.7227    2.8902    2.7897 H   0  0  0  0  0  0  0  0  0  0  0  0
    4.9464    3.9901    3.6064 H   0  0  0  0  0  0  0  0  0  0  0  0
    5.9076    2.8774    4.5811 H   0  0  0  0  0  0  0  0  0  0  0  0
    0.2053    0.6747    3.5397 H   0  0  0  0  0  0  0  0  0  0  0  0
    0.9089    1.3026    2.0470 H   0  0  0  0  0  0  0  0  0  0  0  0
   -1.8327    2.1718    3.1945 H   0  0  0  0  0  0  0  0  0  0  0  0
   -1.5898    1.0325    1.8392 H   0  0  0  0  0  0  0  0  0  0  0  0
   -1.1228    2.7474    1.6648 H   0  0  0  0  0  0  0  0  0  0  0  0
    0.9841    4.7746    7.6983 H   0  0  0  0  0  0  0  0  0  0  0  0
    4.6824    7.3620    7.6725 H   0  0  0  0  0  0  0  0  0  0  0  0
    4.9775    8.7580    9.6921 H   0  0  0  0  0  0  0  0  0  0  0  0
    3.0460    9.1950   11.2124 H   0  0  0  0  0  0  0  0  0  0  0  0
    0.8091    8.2257   10.6733 H   0  0  0  0  0  0  0  0  0  0  0  0
    0.5022    6.8557    8.6389 H   0  0  0  0  0  0  0  0  0  0  0  0
    3.7164    7.3516    5.5491 H   0  0  0  0  0  0  0  0  0  0  0  0
    3.4392    5.9912    3.5140 H   0  0  0  0  0  0  0  0  0  0  0  0
    2.2634    0.7661   -0.0159 H   0  0  0  0  0  0  0  0  0  0  0  0
    2.1458   -1.6302   -0.5722 H   0  0  0  0  0  0  0  0  0  0  0  0
    5.7538   -4.0419    0.5684 H   0  0  0  0  0  0  0  0  0  0  0  0
    5.6068   -6.4445    0.0070 H   0  0  0  0  0  0  0  0  0  0  0  0
    3.3910   -7.4930   -0.4672 H   0  0  0  0  0  0  0  0  0  0  0  0
    1.3202   -6.1029   -0.3542 H   0  0  0  0  0  0  0  0  0  0  0  0
    1.4594   -3.7061    0.2379 H   0  0  0  0  0  0  0  0  0  0  0  0
    5.3118   -2.4860    2.2502 H   0  0  0  0  0  0  0  0  0  0  0  0
  1  2  1  0
  1 50  1  0
  1 51  1  0
  1 52  1  0
  2  3  1  0
  2 53  1  0
  2 54  1  0
  3  4  2  0
 47  3  1  1
  4  5  1  0
  4 35  1  0
  5  6  2  0
  5 32  1  0
  6  7  1  0
  6 26  1  0
  7  8  2  0
  7 25  1  0
  8  9  1  0
 11  8  1  6
  9 10  1  0
  9 55  1  0
  9 56  1  0
 10 57  1  0
 10 58  1  0
 10 59  1  0
 11 12  2  0
 11 13  2  0
 11 14  1  0
 14 15  1  0
 14 25  2  0
 15 16  2  0
 15 60  1  0
 16 17  1  0
 16 23  1  0
 17 18  2  0
 17 22  1  0
 18 19  1  0
 18 61  1  0
 19 20  2  0
 19 62  1  0
 20 21  1  0
 20 63  1  0
 21 22  2  0
 21 64  1  0
 22 65  1  0
 23 24  2  0
 23 66  1  0
 24 25  1  0
 24 67  1  0
 26 27  1  1
 26 28  1  0
 26 29  1  0
 29 30  1  6
 29 31  1  0
 29 32  1  0
 32 33  1  6
 32 34  1  0
 35 36  2  0
 35 46  1  0
 36 37  1  0
 36 68  1  0
 37 38  2  0
 37 69  1  0
 38 39  1  0
 38 45  1  0
 39 40  2  0
 39 44  1  0
 40 41  1  0
 40 70  1  0
 41 42  2  0
 41 71  1  0
 42 43  1  0
 42 72  1  0
 43 44  2  0
 43 73  1  0
 44 74  1  0
 45 46  2  0
 45 75  1  0
 46 47  1  0
 47 48  2  0
 47 49  2  0
M  END

