
     RDKit          3D

 51 54  0  0  0  0  0  0  0  0999 V2000
    1.3005    0.4035    2.3698 C   0  0  0  0  0  0  0  0  0  0  0  0
    2.7027    0.2569    2.1619 O   0  0  0  0  0  0  0  0  0  0  0  0
    3.2764    1.1276    1.3082 C   0  0  0  0  0  0  0  0  0  0  0  0
    2.6171    1.9871    0.7445 O   0  0  0  0  0  0  0  0  0  0  0  0
    4.7331    0.9129    1.1453 C   0  0  0  0  0  0  0  0  0  0  0  0
    5.3761   -0.1199    1.8663 C   0  0  0  0  0  0  0  0  0  0  0  0
    6.7355   -0.3888    1.6990 C   0  0  0  0  0  0  0  0  0  0  0  0
    7.3899   -1.4521    2.3629 N   0  0  0  0  0  0  0  0  0  0  0  0
    6.5733   -2.4112    3.0909 C   0  0  0  0  0  0  0  0  0  0  0  0
    7.3954   -3.6556    3.4224 C   0  0  0  0  0  0  0  0  0  0  0  0
    8.5715   -3.3345    4.1336 O   0  0  0  0  0  0  0  0  0  0  0  0
    9.3814   -2.4408    3.3998 C   0  0  0  0  0  0  0  0  0  0  0  0
    8.6349   -1.1518    3.0709 C   0  0  0  0  0  0  0  0  0  0  0  0
    7.4659    0.4354    0.8115 C   0  0  0  0  0  0  0  0  0  0  0  0
    6.8640    1.4748    0.1090 C   0  0  0  0  0  0  0  0  0  0  0  0
    7.5664    2.3574   -0.7251 N   0  0  0  0  0  0  0  0  0  0  0  0
    8.7727    2.1658   -1.3947 C   0  0  0  0  0  0  0  0  0  0  0  0
    9.1543    0.9179   -1.8801 C   0  0  0  0  0  0  0  0  0  0  0  0
   10.3480    0.7557   -2.6162 C   0  0  0  0  0  0  0  0  0  0  0  0
   11.1647    1.8307   -2.8942 C   0  0  0  0  0  0  0  0  0  0  0  0
   10.8198    3.1253   -2.4179 C   0  0  0  0  0  0  0  0  0  0  0  0
   11.6409    4.2575   -2.6855 C   0  0  0  0  0  0  0  0  0  0  0  0
   11.3209    5.5075   -2.2005 C   0  0  0  0  0  0  0  0  0  0  0  0
   10.1623    5.6804   -1.4060 C   0  0  0  0  0  0  0  0  0  0  0  0
    9.3411    4.6050   -1.1316 C   0  0  0  0  0  0  0  0  0  0  0  0
    9.6259    3.3053   -1.6375 C   0  0  0  0  0  0  0  0  0  0  0  0
    5.4639    1.7257    0.2481 C   0  0  0  0  0  0  0  0  0  0  0  0
    4.9169    2.7846   -0.4602 N   0  0  0  0  0  0  0  0  0  0  0  0
    1.0162   -0.3745    3.0893 H   0  0  0  0  0  0  0  0  0  0  0  0
    0.7469    0.2720    1.4276 H   0  0  0  0  0  0  0  0  0  0  0  0
    1.0641    1.4003    2.7724 H   0  0  0  0  0  0  0  0  0  0  0  0
    4.7696   -0.7006    2.5554 H   0  0  0  0  0  0  0  0  0  0  0  0
    5.7153   -2.7074    2.4681 H   0  0  0  0  0  0  0  0  0  0  0  0
    6.1695   -1.9813    4.0347 H   0  0  0  0  0  0  0  0  0  0  0  0
    7.6490   -4.1846    2.4803 H   0  0  0  0  0  0  0  0  0  0  0  0
    6.8100   -4.3387    4.0568 H   0  0  0  0  0  0  0  0  0  0  0  0
    9.7221   -2.9165    2.4566 H   0  0  0  0  0  0  0  0  0  0  0  0
   10.2654   -2.2222    4.0183 H   0  0  0  0  0  0  0  0  0  0  0  0
    9.2810   -0.5129    2.4534 H   0  0  0  0  0  0  0  0  0  0  0  0
    8.4286   -0.6006    4.0147 H   0  0  0  0  0  0  0  0  0  0  0  0
    8.5319    0.2619    0.6700 H   0  0  0  0  0  0  0  0  0  0  0  0
    7.2118    3.3069   -0.6950 H   0  0  0  0  0  0  0  0  0  0  0  0
    8.5049    0.0569   -1.7174 H   0  0  0  0  0  0  0  0  0  0  0  0
   10.6081   -0.2404   -2.9839 H   0  0  0  0  0  0  0  0  0  0  0  0
   12.0796    1.7050   -3.4781 H   0  0  0  0  0  0  0  0  0  0  0  0
   12.5422    4.1137   -3.2878 H   0  0  0  0  0  0  0  0  0  0  0  0
   11.9647    6.3637   -2.4176 H   0  0  0  0  0  0  0  0  0  0  0  0
    9.9232    6.6659   -0.9985 H   0  0  0  0  0  0  0  0  0  0  0  0
    8.4729    4.7639   -0.4880 H   0  0  0  0  0  0  0  0  0  0  0  0
    5.2528    2.8677   -1.4165 H   0  0  0  0  0  0  0  0  0  0  0  0
    3.9047    2.8560   -0.3619 H   0  0  0  0  0  0  0  0  0  0  0  0
  1  2  1  0
  1 29  1  0
  1 30  1  0
  1 31  1  0
  2  3  1  0
  3  4  2  0
  3  5  1  0
  5  6  2  0
  5 27  1  0
  6  7  1  0
  6 32  1  0
  7  8  1  0
  7 14  2  0
  8  9  1  0
  8 13  1  0
  9 10  1  0
  9 33  1  0
  9 34  1  0
 10 11  1  0
 10 35  1  0
 10 36  1  0
 11 12  1  0
 12 13  1  0
 12 37  1  0
 12 38  1  0
 13 39  1  0
 13 40  1  0
 14 15  1  0
 14 41  1  0
 15 16  1  0
 15 27  2  0
 16 17  1  0
 16 42  1  0
 17 18  2  0
 17 26  1  0
 18 19  1  0
 18 43  1  0
 19 20  2  0
 19 44  1  0
 20 21  1  0
 20 45  1  0
 21 22  1  0
 21 26  2  0
 22 23  2  0
 22 46  1  0
 23 24  1  0
 23 47  1  0
 24 25  2  0
 24 48  1  0
 25 26  1  0
 25 49  1  0
 27 28  1  0
 28 50  1  0
 28 51  1  0
M  END

