
     RDKit          3D

 37 38  0  0  0  0  0  0  0  0999 V2000
    7.6744   -5.6351   -0.3805 C   0  0  0  0  0  0  0  0  0  0  0  0
    6.9261   -4.5086   -0.7602 O   0  0  0  0  0  0  0  0  0  0  0  0
    7.1223   -3.3878    0.0880 C   0  0  0  0  0  0  0  0  0  0  0  0
    6.2966   -2.2099   -0.3655 C   0  0  0  0  0  0  0  0  0  0  0  0
    6.9122   -0.9685   -0.5607 C   0  0  0  0  0  0  0  0  0  0  0  0
    6.1718    0.1727   -0.8774 C   0  0  0  0  0  0  0  0  0  0  0  0
    4.7855    0.0675   -1.0043 C   0  0  0  0  0  0  0  0  0  0  0  0
    4.1438   -1.1601   -0.8327 C   0  0  0  0  0  0  0  0  0  0  0  0
    4.8908   -2.3114   -0.5238 C   0  0  0  0  0  0  0  0  0  0  0  0
    4.2956   -3.5762   -0.3738 N   0  0  0  0  0  0  0  0  0  0  0  0
    2.9698   -3.8679   -0.1866 C   0  0  0  0  0  0  0  0  0  0  0  0
    2.0655   -3.0523   -0.0866 O   0  0  0  0  0  0  0  0  0  0  0  0
    2.6913   -5.3382   -0.1032 C   0  0  0  0  0  0  0  0  0  0  0  0
    1.4312   -5.8352    0.1233 C   0  0  0  0  0  0  0  0  0  0  0  0
    1.4837   -7.5561    0.1534 S   0  0  0  0  0  0  0  0  0  0  0  0
    3.2098   -7.4934   -0.1538 C   0  0  0  0  0  0  0  0  0  0  0  0
    4.0462   -8.7416   -0.3287 C   0  0  1  0  0  0  0  0  0  0  0  0
    4.3758   -8.9518   -1.8205 C   0  0  0  0  0  0  0  0  0  0  0  0
    5.2096   -8.6439    0.5498 N   0  0  0  0  0  0  0  0  0  0  0  0
    3.6763   -6.2848   -0.2585 N   0  0  0  0  0  0  0  0  0  0  0  0
    7.4291   -6.4510   -1.0756 H   0  0  0  0  0  0  0  0  0  0  0  0
    7.4395   -5.9600    0.6535 H   0  0  0  0  0  0  0  0  0  0  0  0
    8.7637   -5.4396   -0.4352 H   0  0  0  0  0  0  0  0  0  0  0  0
    8.1927   -3.1059    0.1050 H   0  0  0  0  0  0  0  0  0  0  0  0
    6.8461   -3.6665    1.1287 H   0  0  0  0  0  0  0  0  0  0  0  0
    7.9980   -0.8969   -0.4489 H   0  0  0  0  0  0  0  0  0  0  0  0
    6.6738    1.1323   -1.0205 H   0  0  0  0  0  0  0  0  0  0  0  0
    4.1878    0.9503   -1.2462 H   0  0  0  0  0  0  0  0  0  0  0  0
    3.0635   -1.2440   -0.9234 H   0  0  0  0  0  0  0  0  0  0  0  0
    4.9222   -4.3760   -0.4810 H   0  0  0  0  0  0  0  0  0  0  0  0
    0.5193   -5.2605    0.2691 H   0  0  0  0  0  0  0  0  0  0  0  0
    3.4387   -9.5990    0.0107 H   0  0  0  0  0  0  0  0  0  0  0  0
    4.9451   -8.0926   -2.2093 H   0  0  0  0  0  0  0  0  0  0  0  0
    3.4626   -9.0606   -2.4280 H   0  0  0  0  0  0  0  0  0  0  0  0
    4.9811   -9.8641   -1.9502 H   0  0  0  0  0  0  0  0  0  0  0  0
    5.7041   -7.7731    0.3531 H   0  0  0  0  0  0  0  0  0  0  0  0
    5.8582   -9.4070    0.3552 H   0  0  0  0  0  0  0  0  0  0  0  0
  1  2  1  0
  1 21  1  0
  1 22  1  0
  1 23  1  0
  2  3  1  0
  3  4  1  0
  3 24  1  0
  3 25  1  0
  4  5  2  0
  4  9  1  0
  5  6  1  0
  5 26  1  0
  6  7  2  0
  6 27  1  0
  7  8  1  0
  7 28  1  0
  8  9  2  0
  8 29  1  0
  9 10  1  0
 10 11  1  0
 10 30  1  0
 11 12  2  0
 11 13  1  0
 13 14  2  0
 13 20  1  0
 14 15  1  0
 14 31  1  0
 15 16  1  0
 16 17  1  0
 16 20  2  0
 17 18  1  0
 17 19  1  0
 17 32  1  1
 18 33  1  0
 18 34  1  0
 18 35  1  0
 19 36  1  0
 19 37  1  0
M  END

