
     RDKit          3D

 35 36  0  0  0  0  0  0  0  0999 V2000
    2.5585    1.8224    1.3858 C   0  0  0  0  0  0  0  0  0  0  0  0
    3.9013    1.5711    2.0770 C   0  0  1  0  0  0  0  0  0  0  0  0
    3.7706    0.6446    3.3242 C   0  0  0  0  0  0  0  0  0  0  0  0
    4.7324   -0.5226    3.0529 C   0  0  0  0  0  0  0  0  0  0  0  0
    4.7988   -0.5778    1.5985 N   0  0  0  0  0  0  0  0  0  0  0  0
    5.7954   -1.4655    1.0302 C   0  0  0  0  0  0  0  0  0  0  0  0
    5.4891   -2.9629    1.2128 C   0  0  1  0  0  0  0  0  0  0  0  0
    4.1464   -3.3440    0.5793 C   0  0  0  0  0  0  0  0  0  0  0  0
    6.6316   -3.8086    0.6537 C   0  0  1  0  0  0  0  0  0  0  0  0
    8.0221   -3.7934    1.3438 C   0  0  0  0  0  0  0  0  0  0  0  0
    8.1086   -5.2490    1.1336 N   0  0  0  0  0  0  0  0  0  0  0  0
    6.6525   -5.3356    0.9256 C   0  0  0  0  0  0  0  0  0  0  0  0
    4.9052    0.8133    1.1770 C   0  0  0  0  0  0  0  0  0  0  0  0
    1.8305    2.2770    2.0778 H   0  0  0  0  0  0  0  0  0  0  0  0
    2.1312    0.8739    1.0204 H   0  0  0  0  0  0  0  0  0  0  0  0
    2.6680    2.5005    0.5235 H   0  0  0  0  0  0  0  0  0  0  0  0
    4.3345    2.5416    2.3683 H   0  0  0  0  0  0  0  0  0  0  0  0
    2.7374    0.2732    3.4117 H   0  0  0  0  0  0  0  0  0  0  0  0
    4.0103    1.1630    4.2648 H   0  0  0  0  0  0  0  0  0  0  0  0
    4.3806   -1.4742    3.4810 H   0  0  0  0  0  0  0  0  0  0  0  0
    5.7364   -0.3145    3.4960 H   0  0  0  0  0  0  0  0  0  0  0  0
    6.8082   -1.2439    1.4455 H   0  0  0  0  0  0  0  0  0  0  0  0
    5.8552   -1.2548   -0.0524 H   0  0  0  0  0  0  0  0  0  0  0  0
    5.4306   -3.1710    2.2979 H   0  0  0  0  0  0  0  0  0  0  0  0
    4.1783   -3.2067   -0.5156 H   0  0  0  0  0  0  0  0  0  0  0  0
    3.3381   -2.7083    0.9686 H   0  0  0  0  0  0  0  0  0  0  0  0
    3.8904   -4.3974    0.7768 H   0  0  0  0  0  0  0  0  0  0  0  0
    6.7423   -3.6159   -0.4273 H   0  0  0  0  0  0  0  0  0  0  0  0
    7.9432   -3.4817    2.4063 H   0  0  0  0  0  0  0  0  0  0  0  0
    8.8276   -3.2036    0.8721 H   0  0  0  0  0  0  0  0  0  0  0  0
    8.4901   -5.7967    1.9033 H   0  0  0  0  0  0  0  0  0  0  0  0
    6.0689   -5.5920    1.8345 H   0  0  0  0  0  0  0  0  0  0  0  0
    6.3342   -6.0099    0.1112 H   0  0  0  0  0  0  0  0  0  0  0  0
    4.6821    0.9154    0.1018 H   0  0  0  0  0  0  0  0  0  0  0  0
    5.9369    1.2073    1.3369 H   0  0  0  0  0  0  0  0  0  0  0  0
  1  2  1  0
  1 14  1  0
  1 15  1  0
  1 16  1  0
  2  3  1  0
  2 13  1  0
  2 17  1  1
  3  4  1  0
  3 18  1  0
  3 19  1  0
  4  5  1  0
  4 20  1  0
  4 21  1  0
  5  6  1  0
  5 13  1  0
  6  7  1  0
  6 22  1  0
  6 23  1  0
  7  8  1  0
  7  9  1  0
  7 24  1  1
  8 25  1  0
  8 26  1  0
  8 27  1  0
  9 10  1  0
  9 12  1  0
  9 28  1  6
 10 11  1  0
 10 29  1  0
 10 30  1  0
 11 12  1  0
 11 31  1  0
 12 32  1  0
 12 33  1  0
 13 34  1  0
 13 35  1  0
M  END

