
     RDKit          3D

 53 56  0  0  0  0  0  0  0  0999 V2000
    4.0630    7.3197    4.0878 C   0  0  0  0  0  0  0  0  0  0  0  0
    5.3636    6.6276    3.7191 C   0  0  0  0  0  0  0  0  0  0  0  0
    5.1516    5.2472    3.3477 O   0  0  0  0  0  0  0  0  0  0  0  0
    5.1014    4.3233    4.3569 C   0  0  0  0  0  0  0  0  0  0  0  0
    5.2722    4.6389    5.5116 O   0  0  0  0  0  0  0  0  0  0  0  0
    4.8497    2.9521    3.8690 C   0  0  0  0  0  0  0  0  0  0  0  0
    4.4520    2.6091    2.5631 C   0  0  0  0  0  0  0  0  0  0  0  0
    4.3271    3.4961    1.5129 N   0  0  0  0  0  0  0  0  0  0  0  0
    3.7540    3.3974    0.2779 C   0  0  0  0  0  0  0  0  0  0  0  0
    2.7338    2.6073   -0.1929 C   0  0  0  0  0  0  0  0  0  0  0  0
    1.8720    1.8231    0.6314 C   0  0  0  0  0  0  0  0  0  0  0  0
    1.1081    1.2188    1.2666 N   0  0  0  0  0  0  0  0  0  0  0  0
    2.4186    2.6742   -1.6293 C   0  0  0  0  0  0  0  0  0  0  0  0
    3.1295    3.3233   -2.5101 N   0  0  0  0  0  0  0  0  0  0  0  0
    2.5955    3.2549   -3.7755 C   0  0  0  0  0  0  0  0  0  0  0  0
    3.2793    3.9371   -4.8949 C   0  0  0  0  0  0  0  0  0  0  0  0
    2.6822    4.0508   -6.1621 C   0  0  0  0  0  0  0  0  0  0  0  0
    3.3266    4.6883   -7.2367 C   0  0  0  0  0  0  0  0  0  0  0  0
    4.5860    5.2102   -6.9966 C   0  0  0  0  0  0  0  0  0  0  0  0
    5.1876    5.1091   -5.7400 C   0  0  0  0  0  0  0  0  0  0  0  0
    4.5686    4.4857   -4.6758 C   0  0  0  0  0  0  0  0  0  0  0  0
    6.4178    5.7073   -5.7795 O   0  0  0  0  0  0  0  0  0  0  0  0
    6.5937    6.1935   -7.1067 C   0  0  0  0  0  0  0  0  0  0  0  0
    5.4201    5.8720   -7.8512 O   0  0  0  0  0  0  0  0  0  0  0  0
    1.4367    2.5068   -3.8530 C   0  0  0  0  0  0  0  0  0  0  0  0
    0.9993    1.8892   -2.3029 S   0  0  0  0  0  0  0  0  0  0  0  0
    4.2936    0.9012    2.3584 S   0  0  0  0  0  0  0  0  0  0  0  0
    4.7385    0.6222    4.0310 C   0  0  0  0  0  0  0  0  0  0  0  0
    4.7346   -0.8083    4.3892 C   0  0  0  0  0  0  0  0  0  0  0  0
    4.4988   -1.6814    3.5812 O   0  0  0  0  0  0  0  0  0  0  0  0
    5.0135   -1.0641    5.6811 O   0  0  0  0  0  0  0  0  0  0  0  0
    5.0154   -2.4427    6.0567 C   0  0  0  0  0  0  0  0  0  0  0  0
    5.0025    1.7946    4.7187 C   0  0  0  0  0  0  0  0  0  0  0  0
    5.4055    1.8768    6.1640 C   0  0  0  0  0  0  0  0  0  0  0  0
    4.2550    8.3847    4.2946 H   0  0  0  0  0  0  0  0  0  0  0  0
    3.6234    6.8708    4.9903 H   0  0  0  0  0  0  0  0  0  0  0  0
    3.3316    7.2566    3.2669 H   0  0  0  0  0  0  0  0  0  0  0  0
    6.0790    6.6573    4.5527 H   0  0  0  0  0  0  0  0  0  0  0  0
    5.8267    7.0839    2.8322 H   0  0  0  0  0  0  0  0  0  0  0  0
    4.7836    4.3851    1.7220 H   0  0  0  0  0  0  0  0  0  0  0  0
    4.1727    4.0951   -0.4532 H   0  0  0  0  0  0  0  0  0  0  0  0
    1.6824    3.6459   -6.3276 H   0  0  0  0  0  0  0  0  0  0  0  0
    2.8555    4.7746   -8.2168 H   0  0  0  0  0  0  0  0  0  0  0  0
    5.0428    4.4066   -3.6989 H   0  0  0  0  0  0  0  0  0  0  0  0
    7.4723    5.7077   -7.5699 H   0  0  0  0  0  0  0  0  0  0  0  0
    6.7328    7.2901   -7.0881 H   0  0  0  0  0  0  0  0  0  0  0  0
    0.8388    2.2692   -4.7293 H   0  0  0  0  0  0  0  0  0  0  0  0
    5.2581   -2.4645    7.1261 H   0  0  0  0  0  0  0  0  0  0  0  0
    5.7664   -3.0044    5.4812 H   0  0  0  0  0  0  0  0  0  0  0  0
    4.0295   -2.8972    5.8780 H   0  0  0  0  0  0  0  0  0  0  0  0
    5.5265    0.8798    6.5956 H   0  0  0  0  0  0  0  0  0  0  0  0
    4.6526    2.4369    6.7388 H   0  0  0  0  0  0  0  0  0  0  0  0
    6.3413    2.4448    6.2719 H   0  0  0  0  0  0  0  0  0  0  0  0
  1  2  1  0
  1 35  1  0
  1 36  1  0
  1 37  1  0
  2  3  1  0
  2 38  1  0
  2 39  1  0
  3  4  1  0
  4  5  2  0
  4  6  1  0
  6  7  1  0
  6 33  2  0
  7  8  1  0
  7 27  2  0
  8  9  1  0
  8 40  1  0
  9 10  2  0
  9 41  1  0
 10 11  1  0
 10 13  1  0
 11 12  3  0
 13 14  2  0
 13 26  1  0
 14 15  1  0
 15 16  1  0
 15 25  2  0
 16 17  2  0
 16 21  1  0
 17 18  1  0
 17 42  1  0
 18 19  2  0
 18 43  1  0
 19 20  1  0
 19 24  1  0
 20 21  2  0
 20 22  1  0
 21 44  1  0
 22 23  1  0
 23 24  1  0
 23 45  1  0
 23 46  1  0
 25 26  1  0
 25 47  1  0
 27 28  1  0
 28 29  2  0
 28 33  1  0
 29 30  1  0
 29 31  1  0
 31 32  1  0
 32 48  1  0
 32 49  1  0
 32 50  1  0
 33 34  1  0
 34 51  1  0
 34 52  1  0
 34 53  1  0
M  CHG  2  27   1  30  -1
M  END

