
     RDKit          3D

 67 73  0  0  0  0  0  0  0  0999 V2000
    2.9543   -0.1493   -1.5047 O   0  0  0  0  0  0  0  0  0  0  0  0
    2.0526   -0.0373   -0.6900 C   0  0  0  0  0  0  0  0  0  0  0  0
    2.3682    0.0559    0.7777 C   0  0  0  0  0  0  0  0  0  0  0  0
    1.9783    1.5170    1.6472 S   0  0  0  0  0  0  0  0  0  0  0  0
    2.8592    0.9942    3.0626 C   0  0  0  0  0  0  0  0  0  0  0  0
    2.9187    1.8245    4.2492 C   0  0  0  0  0  0  0  0  0  0  0  0
    2.1392    2.9177    4.5881 C   0  0  0  0  0  0  0  0  0  0  0  0
    2.4733    3.4838    5.8423 C   0  0  0  0  0  0  0  0  0  0  0  0
    3.5141    2.8337    6.4839 C   0  0  0  0  0  0  0  0  0  0  0  0
    4.1110    3.1207    7.7732 C   0  0  0  0  0  0  0  0  0  0  0  0
    4.9836    2.3547    8.5167 C   0  0  0  0  0  0  0  0  0  0  0  0
    5.4136    2.9580    9.7447 C   0  0  0  0  0  0  0  0  0  0  0  0
    6.3353    2.2845   10.6677 C   0  0  0  0  0  0  0  0  0  0  0  0
    7.3097    2.8084   11.4948 C   0  0  0  0  0  0  0  0  0  0  0  0
    8.0175    1.8115   12.2275 C   0  0  0  0  0  0  0  0  0  0  0  0
    7.5838    0.5376   11.9570 C   0  0  0  0  0  0  0  0  0  0  0  0
    6.2978    0.5357   10.8042 S   0  0  0  0  0  0  0  0  0  0  0  0
    4.8175    4.1994    9.9370 C   0  0  0  0  0  0  0  0  0  0  0  0
    5.0321    5.1891   11.0454 C   0  0  0  0  0  0  0  0  0  0  0  0
    6.1448    5.6514   11.2604 O   0  0  0  0  0  0  0  0  0  0  0  0
    3.9272    5.5886   11.7578 N   0  0  0  0  0  0  0  0  0  0  0  0
    4.0789    6.6317   12.7709 C   0  0  0  0  0  0  0  0  0  0  0  0
    2.8684    7.5621   12.7260 C   0  0  0  0  0  0  0  0  0  0  0  0
    1.6554    6.8466   12.8578 O   0  0  0  0  0  0  0  0  0  0  0  0
    1.5014    5.8765   11.8438 C   0  0  0  0  0  0  0  0  0  0  0  0
    2.6553    4.8742   11.8505 C   0  0  0  0  0  0  0  0  0  0  0  0
    3.7937    4.6325    8.5916 S   0  0  0  0  0  0  0  0  0  0  0  0
    4.1018    1.5118    5.4996 S   0  0  0  0  0  0  0  0  0  0  0  0
    3.4211   -0.2460    2.8406 C   0  0  0  0  0  0  0  0  0  0  0  0
    3.1626   -0.7912    1.5417 C   0  0  0  0  0  0  0  0  0  0  0  0
    3.6594   -2.1028    1.1172 C   0  0  0  0  0  0  0  0  0  0  0  0
    3.1235   -2.9987    0.2145 C   0  0  0  0  0  0  0  0  0  0  0  0
    3.8966   -4.1852    0.0664 C   0  0  0  0  0  0  0  0  0  0  0  0
    5.0179   -4.1898    0.8585 C   0  0  0  0  0  0  0  0  0  0  0  0
    5.1454   -2.7401    1.7876 S   0  0  0  0  0  0  0  0  0  0  0  0
    0.7293    0.0624   -1.0598 N   0  0  0  0  0  0  0  0  0  0  0  0
    0.3903    0.1485   -2.4793 C   0  0  0  0  0  0  0  0  0  0  0  0
   -0.5576   -0.9840   -2.8670 C   0  0  0  0  0  0  0  0  0  0  0  0
   -1.6977   -1.0093   -2.0287 O   0  0  0  0  0  0  0  0  0  0  0  0
   -1.3475   -1.1778   -0.6732 C   0  0  0  0  0  0  0  0  0  0  0  0
   -0.4295   -0.0548   -0.1797 C   0  0  0  0  0  0  0  0  0  0  0  0
    1.3317    3.2877    3.9543 H   0  0  0  0  0  0  0  0  0  0  0  0
    1.9511    4.3377    6.2769 H   0  0  0  0  0  0  0  0  0  0  0  0
    5.3325    1.3735    8.1910 H   0  0  0  0  0  0  0  0  0  0  0  0
    7.5072    3.8782   11.5487 H   0  0  0  0  0  0  0  0  0  0  0  0
    8.8266    2.0335   12.9252 H   0  0  0  0  0  0  0  0  0  0  0  0
    7.9461   -0.4020   12.3721 H   0  0  0  0  0  0  0  0  0  0  0  0
    5.0140    7.1720   12.5763 H   0  0  0  0  0  0  0  0  0  0  0  0
    4.1547    6.1699   13.7737 H   0  0  0  0  0  0  0  0  0  0  0  0
    2.8773    8.1312   11.7733 H   0  0  0  0  0  0  0  0  0  0  0  0
    2.9086    8.2817   13.5576 H   0  0  0  0  0  0  0  0  0  0  0  0
    1.4452    6.3615   10.8468 H   0  0  0  0  0  0  0  0  0  0  0  0
    0.5474    5.3607   12.0320 H   0  0  0  0  0  0  0  0  0  0  0  0
    2.5533    4.1632   11.0223 H   0  0  0  0  0  0  0  0  0  0  0  0
    2.6289    4.3016   12.7976 H   0  0  0  0  0  0  0  0  0  0  0  0
    3.9854   -0.7825    3.6051 H   0  0  0  0  0  0  0  0  0  0  0  0
    2.1911   -2.8170   -0.3199 H   0  0  0  0  0  0  0  0  0  0  0  0
    3.6287   -5.0065   -0.6000 H   0  0  0  0  0  0  0  0  0  0  0  0
    5.7812   -4.9619    0.9439 H   0  0  0  0  0  0  0  0  0  0  0  0
    1.3235    0.1036   -3.0550 H   0  0  0  0  0  0  0  0  0  0  0  0
   -0.1049    1.1184   -2.6720 H   0  0  0  0  0  0  0  0  0  0  0  0
   -0.0199   -1.9532   -2.8127 H   0  0  0  0  0  0  0  0  0  0  0  0
   -0.9191   -0.8482   -3.8975 H   0  0  0  0  0  0  0  0  0  0  0  0
   -0.8406   -2.1546   -0.5233 H   0  0  0  0  0  0  0  0  0  0  0  0
   -2.2837   -1.1841   -0.0939 H   0  0  0  0  0  0  0  0  0  0  0  0
   -0.1040   -0.2625    0.8472 H   0  0  0  0  0  0  0  0  0  0  0  0
   -0.9920    0.8976   -0.1748 H   0  0  0  0  0  0  0  0  0  0  0  0
  1  2  2  0
  2  3  1  0
  2 36  1  0
  3  4  2  0
  3 30  1  0
  4  5  1  0
  5  6  2  0
  5 29  1  0
  6  7  1  0
  6 28  1  0
  7  8  2  0
  7 42  1  0
  8  9  1  0
  8 43  1  0
  9 10  2  0
  9 28  1  0
 10 11  1  0
 10 27  1  0
 11 12  2  0
 11 44  1  0
 12 13  1  0
 12 18  1  0
 13 14  2  0
 13 17  1  0
 14 15  1  0
 14 45  1  0
 15 16  2  0
 15 46  1  0
 16 17  1  0
 16 47  1  0
 18 19  2  0
 18 27  1  0
 19 20  1  0
 19 21  1  0
 21 22  1  0
 21 26  1  0
 22 23  1  0
 22 48  1  0
 22 49  1  0
 23 24  1  0
 23 50  1  0
 23 51  1  0
 24 25  1  0
 25 26  1  0
 25 52  1  0
 25 53  1  0
 26 54  1  0
 26 55  1  0
 29 30  2  0
 29 56  1  0
 30 31  1  0
 31 32  2  0
 31 35  1  0
 32 33  1  0
 32 57  1  0
 33 34  2  0
 33 58  1  0
 34 35  1  0
 34 59  1  0
 36 37  1  0
 36 41  1  0
 37 38  1  0
 37 60  1  0
 37 61  1  0
 38 39  1  0
 38 62  1  0
 38 63  1  0
 39 40  1  0
 40 41  1  0
 40 64  1  0
 40 65  1  0
 41 66  1  0
 41 67  1  0
M  CHG  2   4   1  20  -1
M  END

