
     RDKit          3D

 30 31  0  0  0  0  0  0  0  0999 V2000
    1.1001    0.1285    0.4089 C   0  0  0  0  0  0  0  0  0  0  0  0
    2.5671    0.1189    0.0745 C   0  0  0  0  0  0  0  0  0  0  0  0
    3.2983    1.2854   -0.1999 C   0  0  0  0  0  0  0  0  0  0  0  0
    4.6576    1.2450   -0.5088 C   0  0  0  0  0  0  0  0  0  0  0  0
    5.3315    0.0136   -0.5515 C   0  0  0  0  0  0  0  0  0  0  0  0
    6.7636   -0.0591   -0.8740 C   0  0  0  0  0  0  0  0  0  0  0  0
    7.4948    1.0000   -1.1431 N   0  0  0  0  0  0  0  0  0  0  0  0
    8.7561    0.4762   -1.3816 O   0  0  0  0  0  0  0  0  0  0  0  0
    8.6657   -0.8521   -1.2307 C   0  0  0  0  0  0  0  0  0  0  0  0
    9.8846   -1.6771   -1.4643 C   0  0  0  0  0  0  0  0  0  0  0  0
    9.7752   -2.4622   -2.7855 C   0  0  1  0  0  0  0  0  0  0  0  0
    9.5192   -1.6377   -3.8873 O   0  0  0  0  0  0  0  0  0  0  0  0
   11.0346   -3.2985   -3.0330 C   0  0  1  0  0  0  0  0  0  0  0  0
   11.3213   -4.0805   -1.9790 F   0  0  0  0  0  0  0  0  0  0  0  0
   10.9026   -4.0809   -4.1049 F   0  0  0  0  0  0  0  0  0  0  0  0
   12.0969   -2.4905   -3.2439 F   0  0  0  0  0  0  0  0  0  0  0  0
    7.4707   -1.2433   -0.9166 N   0  0  0  0  0  0  0  0  0  0  0  0
    4.6252   -1.1687   -0.2812 C   0  0  0  0  0  0  0  0  0  0  0  0
    3.2730   -1.0906    0.0226 C   0  0  0  0  0  0  0  0  0  0  0  0
    2.6026   -2.2281    0.2804 F   0  0  0  0  0  0  0  0  0  0  0  0
    0.7060    1.1544    0.4316 H   0  0  0  0  0  0  0  0  0  0  0  0
    0.9111   -0.3375    1.3898 H   0  0  0  0  0  0  0  0  0  0  0  0
    0.5191   -0.4483   -0.3297 H   0  0  0  0  0  0  0  0  0  0  0  0
    2.7822    2.2487   -0.1686 H   0  0  0  0  0  0  0  0  0  0  0  0
    5.2059    2.1646   -0.7186 H   0  0  0  0  0  0  0  0  0  0  0  0
   10.0108   -2.3801   -0.6280 H   0  0  0  0  0  0  0  0  0  0  0  0
   10.7660   -1.0184   -1.4913 H   0  0  0  0  0  0  0  0  0  0  0  0
    8.9313   -3.1664   -2.7171 H   0  0  0  0  0  0  0  0  0  0  0  0
   10.2573   -1.0189   -3.9925 H   0  0  0  0  0  0  0  0  0  0  0  0
    5.1257   -2.1370   -0.3076 H   0  0  0  0  0  0  0  0  0  0  0  0
  1  2  1  0
  1 21  1  0
  1 22  1  0
  1 23  1  0
  2  3  2  0
  2 19  1  0
  3  4  1  0
  3 24  1  0
  4  5  2  0
  4 25  1  0
  5  6  1  0
  5 18  1  0
  6  7  2  0
  6 17  1  0
  7  8  1  0
  8  9  1  0
  9 10  1  0
  9 17  2  0
 10 11  1  0
 10 26  1  0
 10 27  1  0
 11 12  1  0
 11 13  1  0
 11 28  1  1
 12 29  1  0
 13 14  1  1
 13 15  1  0
 13 16  1  0
 18 19  2  0
 18 30  1  0
 19 20  1  0
M  END

