
     RDKit          3D

 47 49  0  0  0  0  0  0  0  0999 V2000
    3.5525   -0.6913   -3.4849 C   0  0  0  0  0  0  0  0  0  0  0  0
    2.8412   -1.2863   -2.4212 O   0  0  0  0  0  0  0  0  0  0  0  0
    3.4726   -2.1457   -1.5774 C   0  0  0  0  0  0  0  0  0  0  0  0
    4.8245   -2.4857   -1.6880 C   0  0  0  0  0  0  0  0  0  0  0  0
    5.4272   -3.3815   -0.7981 C   0  0  0  0  0  0  0  0  0  0  0  0
    4.6903   -3.9659    0.2355 C   0  0  0  0  0  0  0  0  0  0  0  0
    5.3164   -4.9258    1.2181 C   0  0  0  0  0  0  0  0  0  0  0  0
    3.3363   -3.6206    0.3423 C   0  0  0  0  0  0  0  0  0  0  0  0
    2.7009   -2.7259   -0.5328 C   0  0  0  0  0  0  0  0  0  0  0  0
    1.3382   -2.4761   -0.3143 N   0  0  0  0  0  0  0  0  0  0  0  0
    0.4648   -1.6287   -0.9263 C   0  0  0  0  0  0  0  0  0  0  0  0
   -0.8473   -1.4898   -0.5856 C   0  0  0  0  0  0  0  0  0  0  0  0
   -1.6737   -0.5347   -1.3299 C   0  0  0  0  0  0  0  0  0  0  0  0
   -1.2163    0.1456   -2.2467 O   0  0  0  0  0  0  0  0  0  0  0  0
   -3.1291   -0.3800   -0.9573 C   0  0  0  0  0  0  0  0  0  0  0  0
   -3.7795   -1.1188    0.0448 C   0  0  0  0  0  0  0  0  0  0  0  0
   -5.1303   -0.9133    0.3254 C   0  0  0  0  0  0  0  0  0  0  0  0
   -5.8866    0.0385   -0.3836 C   0  0  0  0  0  0  0  0  0  0  0  0
   -7.3260    0.2565   -0.0830 C   0  0  0  0  0  0  0  0  0  0  0  0
   -7.8131    0.1776    1.2361 C   0  0  0  0  0  0  0  0  0  0  0  0
   -9.1650    0.3830    1.5183 C   0  0  0  0  0  0  0  0  0  0  0  0
  -10.0645    0.6712    0.4874 C   0  0  0  0  0  0  0  0  0  0  0  0
   -9.5976    0.7528   -0.8279 C   0  0  0  0  0  0  0  0  0  0  0  0
   -8.2452    0.5489   -1.1091 C   0  0  0  0  0  0  0  0  0  0  0  0
   -5.2299    0.7761   -1.3892 C   0  0  0  0  0  0  0  0  0  0  0  0
   -3.8827    0.5702   -1.6681 C   0  0  0  0  0  0  0  0  0  0  0  0
    2.8343   -0.0534   -4.0164 H   0  0  0  0  0  0  0  0  0  0  0  0
    3.9500   -1.4486   -4.1838 H   0  0  0  0  0  0  0  0  0  0  0  0
    4.3875   -0.0674   -3.1194 H   0  0  0  0  0  0  0  0  0  0  0  0
    5.4248   -2.0482   -2.4854 H   0  0  0  0  0  0  0  0  0  0  0  0
    6.4862   -3.6226   -0.9194 H   0  0  0  0  0  0  0  0  0  0  0  0
    6.3478   -5.1776    0.9304 H   0  0  0  0  0  0  0  0  0  0  0  0
    4.7464   -5.8673    1.2841 H   0  0  0  0  0  0  0  0  0  0  0  0
    5.3499   -4.4974    2.2346 H   0  0  0  0  0  0  0  0  0  0  0  0
    2.7371   -4.0649    1.1444 H   0  0  0  0  0  0  0  0  0  0  0  0
    0.9514   -3.0187    0.4522 H   0  0  0  0  0  0  0  0  0  0  0  0
    0.8595   -1.0283   -1.7430 H   0  0  0  0  0  0  0  0  0  0  0  0
   -1.2730   -2.0777    0.2301 H   0  0  0  0  0  0  0  0  0  0  0  0
   -3.2413   -1.8771    0.6153 H   0  0  0  0  0  0  0  0  0  0  0  0
   -5.6136   -1.5227    1.0925 H   0  0  0  0  0  0  0  0  0  0  0  0
   -7.1182   -0.0220    2.0551 H   0  0  0  0  0  0  0  0  0  0  0  0
   -9.5164    0.3255    2.5519 H   0  0  0  0  0  0  0  0  0  0  0  0
  -11.1228    0.8317    0.7079 H   0  0  0  0  0  0  0  0  0  0  0  0
  -10.2925    0.9696   -1.6434 H   0  0  0  0  0  0  0  0  0  0  0  0
   -7.8997    0.5924   -2.1445 H   0  0  0  0  0  0  0  0  0  0  0  0
   -5.7805    1.5406   -1.9424 H   0  0  0  0  0  0  0  0  0  0  0  0
   -3.3709    1.1461   -2.4413 H   0  0  0  0  0  0  0  0  0  0  0  0
  1  2  1  0
  1 27  1  0
  1 28  1  0
  1 29  1  0
  2  3  1  0
  3  4  2  0
  3  9  1  0
  4  5  1  0
  4 30  1  0
  5  6  2  0
  5 31  1  0
  6  7  1  0
  6  8  1  0
  7 32  1  0
  7 33  1  0
  7 34  1  0
  8  9  2  0
  8 35  1  0
  9 10  1  0
 10 11  1  0
 10 36  1  0
 11 12  2  0
 11 37  1  0
 12 13  1  0
 12 38  1  0
 13 14  2  0
 13 15  1  0
 15 16  2  0
 15 26  1  0
 16 17  1  0
 16 39  1  0
 17 18  2  0
 17 40  1  0
 18 19  1  0
 18 25  1  0
 19 20  2  0
 19 24  1  0
 20 21  1  0
 20 41  1  0
 21 22  2  0
 21 42  1  0
 22 23  1  0
 22 43  1  0
 23 24  2  0
 23 44  1  0
 24 45  1  0
 25 26  2  0
 25 46  1  0
 26 47  1  0
M  END

