
     RDKit          3D

 37 38  0  0  0  0  0  0  0  0999 V2000
    3.1392   -0.3217    1.0375 N   0  0  0  0  0  0  0  0  0  0  0  0
    2.7126   -0.0118   -0.2347 C   0  0  0  0  0  0  0  0  0  0  0  0
    1.8906   -0.7238   -0.9213 N   0  0  0  0  0  0  0  0  0  0  0  0
    1.4388   -1.8207   -0.1635 O   0  0  0  0  0  0  0  0  0  0  0  0
    3.3989    1.1771   -0.9075 C   0  0  1  0  0  0  0  0  0  0  0  0
    2.6700    1.6995   -2.1612 C   0  0  0  0  0  0  0  0  0  0  0  0
    1.4526    2.5666   -1.8305 C   0  0  0  0  0  0  0  0  0  0  0  0
    1.8463    3.6962   -0.8748 C   0  0  0  0  0  0  0  0  0  0  0  0
    2.5172    3.1287    0.3763 C   0  0  0  0  0  0  0  0  0  0  0  0
    3.6532    2.2569    0.0566 N   0  0  0  0  0  0  0  0  0  0  0  0
    4.9199    2.6467    0.4891 C   0  0  0  0  0  0  0  0  0  0  0  0
    5.1461    3.7631    0.9263 O   0  0  0  0  0  0  0  0  0  0  0  0
    5.8827    1.6462    0.4184 N   0  0  0  0  0  0  0  0  0  0  0  0
    7.2639    1.7578    0.6582 C   0  0  0  0  0  0  0  0  0  0  0  0
    7.9199    2.9741    0.9228 C   0  0  0  0  0  0  0  0  0  0  0  0
    9.3006    2.9931    1.1287 C   0  0  0  0  0  0  0  0  0  0  0  0
   10.0417    1.8106    1.0795 C   0  0  0  0  0  0  0  0  0  0  0  0
   11.7725    1.8477    1.3433 Cl  0  0  0  0  0  0  0  0  0  0  0  0
    9.4030    0.5950    0.8219 C   0  0  0  0  0  0  0  0  0  0  0  0
    8.0259    0.5747    0.6120 C   0  0  0  0  0  0  0  0  0  0  0  0
    2.6026   -1.0530    1.4942 H   0  0  0  0  0  0  0  0  0  0  0  0
    3.3814    0.4705    1.6233 H   0  0  0  0  0  0  0  0  0  0  0  0
    0.8166   -2.2520   -0.7613 H   0  0  0  0  0  0  0  0  0  0  0  0
    4.3779    0.8076   -1.2480 H   0  0  0  0  0  0  0  0  0  0  0  0
    2.3832    0.8370   -2.7782 H   0  0  0  0  0  0  0  0  0  0  0  0
    3.3970    2.2973   -2.7364 H   0  0  0  0  0  0  0  0  0  0  0  0
    0.6711    1.9400   -1.3672 H   0  0  0  0  0  0  0  0  0  0  0  0
    1.0212    2.9730   -2.7599 H   0  0  0  0  0  0  0  0  0  0  0  0
    0.9644    4.2867   -0.5756 H   0  0  0  0  0  0  0  0  0  0  0  0
    2.5451    4.3900   -1.3740 H   0  0  0  0  0  0  0  0  0  0  0  0
    1.7744    2.5429    0.9524 H   0  0  0  0  0  0  0  0  0  0  0  0
    2.8961    3.9285    1.0231 H   0  0  0  0  0  0  0  0  0  0  0  0
    5.5478    0.6945    0.3236 H   0  0  0  0  0  0  0  0  0  0  0  0
    7.3405    3.8923    0.9781 H   0  0  0  0  0  0  0  0  0  0  0  0
    9.8055    3.9387    1.3344 H   0  0  0  0  0  0  0  0  0  0  0  0
    9.9818   -0.3293    0.7842 H   0  0  0  0  0  0  0  0  0  0  0  0
    7.5325   -0.3799    0.4052 H   0  0  0  0  0  0  0  0  0  0  0  0
  1  2  1  0
  1 21  1  0
  1 22  1  0
  2  3  2  0
  2  5  1  0
  3  4  1  0
  4 23  1  0
  5  6  1  0
  5 10  1  0
  5 24  1  6
  6  7  1  0
  6 25  1  0
  6 26  1  0
  7  8  1  0
  7 27  1  0
  7 28  1  0
  8  9  1  0
  8 29  1  0
  8 30  1  0
  9 10  1  0
  9 31  1  0
  9 32  1  0
 10 11  1  0
 11 12  2  0
 11 13  1  0
 13 14  1  0
 13 33  1  0
 14 15  2  0
 14 20  1  0
 15 16  1  0
 15 34  1  0
 16 17  2  0
 16 35  1  0
 17 18  1  0
 17 19  1  0
 19 20  2  0
 19 36  1  0
 20 37  1  0
M  END

