
     RDKit          3D

 44 43  0  0  0  0  0  0  0  0999 V2000
    0.8620   -0.0087   -0.3783 C   0  0  0  0  0  0  0  0  0  0  0  0
    2.3822    0.1286   -0.2824 C   0  0  0  0  0  0  0  0  0  0  0  0
    2.8658    0.6674    1.0676 C   0  0  0  0  0  0  0  0  0  0  0  0
    4.3871    0.8077    1.1725 C   0  0  0  0  0  0  0  0  0  0  0  0
    4.8687    1.3482    2.5221 C   0  0  0  0  0  0  0  0  0  0  0  0
    6.3903    1.4872    2.6285 C   0  0  0  0  0  0  0  0  0  0  0  0
    6.8617    2.0370    3.9772 C   0  0  0  0  0  0  0  0  0  0  0  0
    8.3813    2.1676    4.0825 C   0  0  0  0  0  0  0  0  0  0  0  0
    8.8544    2.7961    5.3881 C   0  0  0  0  0  0  0  0  0  0  0  0
    8.0961    3.4043    6.1094 O   0  0  0  0  0  0  0  0  0  0  0  0
   10.3450    2.6368    5.7687 C   0  0  1  0  0  0  0  0  0  0  0  0
   11.2764    3.4507    4.8398 C   0  0  0  0  0  0  0  0  0  0  0  0
   11.7287    2.7554    3.5557 C   0  0  0  0  0  0  0  0  0  0  0  0
   10.5929    3.0754    7.0769 O   0  0  0  0  0  0  0  0  0  0  0  0
   10.0859    2.2665    8.1233 C   0  0  0  0  0  0  0  0  0  0  0  0
   10.5375    2.8598    9.4447 C   0  0  0  0  0  0  0  0  0  0  0  0
    0.5508   -0.3980   -1.3610 H   0  0  0  0  0  0  0  0  0  0  0  0
    0.3615    0.9633   -0.2321 H   0  0  0  0  0  0  0  0  0  0  0  0
    0.4722   -0.6970    0.3905 H   0  0  0  0  0  0  0  0  0  0  0  0
    2.7441    0.7930   -1.0884 H   0  0  0  0  0  0  0  0  0  0  0  0
    2.8540   -0.8531   -0.4710 H   0  0  0  0  0  0  0  0  0  0  0  0
    2.5040    0.0034    1.8751 H   0  0  0  0  0  0  0  0  0  0  0  0
    2.3948    1.6502    1.2572 H   0  0  0  0  0  0  0  0  0  0  0  0
    4.7485    1.4708    0.3642 H   0  0  0  0  0  0  0  0  0  0  0  0
    4.8577   -0.1754    0.9840 H   0  0  0  0  0  0  0  0  0  0  0  0
    4.5067    0.6866    3.3309 H   0  0  0  0  0  0  0  0  0  0  0  0
    4.4006    2.3320    2.7105 H   0  0  0  0  0  0  0  0  0  0  0  0
    6.7535    2.1454    1.8168 H   0  0  0  0  0  0  0  0  0  0  0  0
    6.8596    0.5022    2.4450 H   0  0  0  0  0  0  0  0  0  0  0  0
    6.4973    1.3881    4.7930 H   0  0  0  0  0  0  0  0  0  0  0  0
    6.4083    3.0237    4.1654 H   0  0  0  0  0  0  0  0  0  0  0  0
    8.7617    2.8034    3.2605 H   0  0  0  0  0  0  0  0  0  0  0  0
    8.8811    1.1925    3.9443 H   0  0  0  0  0  0  0  0  0  0  0  0
   10.6008    1.5573    5.6703 H   0  0  0  0  0  0  0  0  0  0  0  0
   12.1569    3.6765    5.4614 H   0  0  0  0  0  0  0  0  0  0  0  0
   10.8072    4.4242    4.6155 H   0  0  0  0  0  0  0  0  0  0  0  0
   12.2312    1.7989    3.7760 H   0  0  0  0  0  0  0  0  0  0  0  0
   12.4474    3.3876    3.0109 H   0  0  0  0  0  0  0  0  0  0  0  0
   10.8990    2.5414    2.8653 H   0  0  0  0  0  0  0  0  0  0  0  0
   10.4684    1.2290    8.0122 H   0  0  0  0  0  0  0  0  0  0  0  0
    8.9835    2.2210    8.0828 H   0  0  0  0  0  0  0  0  0  0  0  0
   11.6366    2.9040    9.4986 H   0  0  0  0  0  0  0  0  0  0  0  0
   10.1691    2.2527   10.2866 H   0  0  0  0  0  0  0  0  0  0  0  0
   10.1470    3.8830    9.5559 H   0  0  0  0  0  0  0  0  0  0  0  0
  1  2  1  0
  1 17  1  0
  1 18  1  0
  1 19  1  0
  2  3  1  0
  2 20  1  0
  2 21  1  0
  3  4  1  0
  3 22  1  0
  3 23  1  0
  4  5  1  0
  4 24  1  0
  4 25  1  0
  5  6  1  0
  5 26  1  0
  5 27  1  0
  6  7  1  0
  6 28  1  0
  6 29  1  0
  7  8  1  0
  7 30  1  0
  7 31  1  0
  8  9  1  0
  8 32  1  0
  8 33  1  0
  9 10  2  0
  9 11  1  0
 11 12  1  0
 11 14  1  0
 11 34  1  1
 12 13  1  0
 12 35  1  0
 12 36  1  0
 13 37  1  0
 13 38  1  0
 13 39  1  0
 14 15  1  0
 15 16  1  0
 15 40  1  0
 15 41  1  0
 16 42  1  0
 16 43  1  0
 16 44  1  0
M  END

