
     RDKit          3D

 48 50  0  0  0  0  0  0  0  0999 V2000
    0.7552   -0.9164   -1.5013 C   0  0  0  0  0  0  0  0  0  0  0  0
    2.2390   -1.1626   -1.6818 C   0  0  0  0  0  0  0  0  0  0  0  0
    2.9441   -0.1290   -0.9830 O   0  0  0  0  0  0  0  0  0  0  0  0
    4.2817   -0.0803   -1.0239 C   0  0  0  0  0  0  0  0  0  0  0  0
    4.8636    1.0552   -0.3807 C   0  0  0  0  0  0  0  0  0  0  0  0
    6.2245    1.2253   -0.3668 C   0  0  0  0  0  0  0  0  0  0  0  0
    7.0830    0.2749   -0.9892 C   0  0  0  0  0  0  0  0  0  0  0  0
    8.4864    0.4047   -1.0243 C   0  0  0  0  0  0  0  0  0  0  0  0
    9.2660   -0.5602   -1.6447 C   0  0  0  0  0  0  0  0  0  0  0  0
   10.6925   -0.4377   -1.6696 C   0  0  0  0  0  0  0  0  0  0  0  0
   11.8478   -0.3154   -1.6786 N   0  0  0  0  0  0  0  0  0  0  0  0
    8.5939   -1.6849   -2.2478 C   0  0  0  0  0  0  0  0  0  0  0  0
    9.6319   -2.9062   -3.0111 S   0  0  0  0  0  0  0  0  0  0  0  0
    8.4788   -4.3021   -3.2875 C   0  0  0  0  0  0  0  0  0  0  0  0
    7.7700   -4.2965   -4.6455 C   0  0  0  0  0  0  0  0  0  0  0  0
    8.1093   -5.0556   -5.5346 O   0  0  0  0  0  0  0  0  0  0  0  0
    6.7415   -3.3929   -4.7196 N   0  0  0  0  0  0  0  0  0  0  0  0
    5.8591   -3.1642   -5.7863 C   0  0  0  0  0  0  0  0  0  0  0  0
    5.9951   -3.7715   -7.0519 C   0  0  0  0  0  0  0  0  0  0  0  0
    5.0676   -3.4876   -8.0562 C   0  0  0  0  0  0  0  0  0  0  0  0
    3.9993   -2.6166   -7.8345 C   0  0  0  0  0  0  0  0  0  0  0  0
    3.8484   -2.0166   -6.5725 C   0  0  0  0  0  0  0  0  0  0  0  0
    2.7052   -1.1045   -6.2345 C   0  0  0  0  0  0  0  0  0  0  0  0
    1.7606   -0.6774   -7.3420 C   0  0  0  0  0  0  0  0  0  0  0  0
    2.5307   -0.7159   -5.0922 O   0  0  0  0  0  0  0  0  0  0  0  0
    4.7832   -2.2921   -5.5658 C   0  0  0  0  0  0  0  0  0  0  0  0
    7.2860   -1.8110   -2.2394 N   0  0  0  0  0  0  0  0  0  0  0  0
    6.5036   -0.8723   -1.6233 C   0  0  0  0  0  0  0  0  0  0  0  0
    5.0969   -1.0342   -1.6279 C   0  0  0  0  0  0  0  0  0  0  0  0
    0.1818   -1.6979   -2.0229 H   0  0  0  0  0  0  0  0  0  0  0  0
    0.4711    0.0588   -1.9246 H   0  0  0  0  0  0  0  0  0  0  0  0
    0.4768   -0.9305   -0.4362 H   0  0  0  0  0  0  0  0  0  0  0  0
    2.5144   -1.1331   -2.7490 H   0  0  0  0  0  0  0  0  0  0  0  0
    2.5303   -2.1450   -1.2669 H   0  0  0  0  0  0  0  0  0  0  0  0
    4.1888    1.7752    0.0854 H   0  0  0  0  0  0  0  0  0  0  0  0
    6.6655    2.0985    0.1207 H   0  0  0  0  0  0  0  0  0  0  0  0
    8.9661    1.2669   -0.5547 H   0  0  0  0  0  0  0  0  0  0  0  0
    7.7647   -4.3223   -2.4515 H   0  0  0  0  0  0  0  0  0  0  0  0
    9.1129   -5.1971   -3.2601 H   0  0  0  0  0  0  0  0  0  0  0  0
    6.6226   -2.8123   -3.8823 H   0  0  0  0  0  0  0  0  0  0  0  0
    6.8217   -4.4569   -7.2253 H   0  0  0  0  0  0  0  0  0  0  0  0
    5.1855   -3.9623   -9.0335 H   0  0  0  0  0  0  0  0  0  0  0  0
    3.2880   -2.4194   -8.6379 H   0  0  0  0  0  0  0  0  0  0  0  0
    1.2363   -1.5496   -7.7651 H   0  0  0  0  0  0  0  0  0  0  0  0
    2.3082   -0.1955   -8.1674 H   0  0  0  0  0  0  0  0  0  0  0  0
    1.0231    0.0219   -6.9287 H   0  0  0  0  0  0  0  0  0  0  0  0
    4.6509   -1.8076   -4.5968 H   0  0  0  0  0  0  0  0  0  0  0  0
    4.6832   -1.9168   -2.1118 H   0  0  0  0  0  0  0  0  0  0  0  0
  1  2  1  0
  1 30  1  0
  1 31  1  0
  1 32  1  0
  2  3  1  0
  2 33  1  0
  2 34  1  0
  3  4  1  0
  4  5  2  0
  4 29  1  0
  5  6  1  0
  5 35  1  0
  6  7  2  0
  6 36  1  0
  7  8  1  0
  7 28  1  0
  8  9  2  0
  8 37  1  0
  9 10  1  0
  9 12  1  0
 10 11  3  0
 12 13  1  0
 12 27  2  0
 13 14  1  0
 14 15  1  0
 14 38  1  0
 14 39  1  0
 15 16  2  0
 15 17  1  0
 17 18  1  0
 17 40  1  0
 18 19  2  0
 18 26  1  0
 19 20  1  0
 19 41  1  0
 20 21  2  0
 20 42  1  0
 21 22  1  0
 21 43  1  0
 22 23  1  0
 22 26  2  0
 23 24  1  0
 23 25  2  0
 24 44  1  0
 24 45  1  0
 24 46  1  0
 26 47  1  0
 27 28  1  0
 28 29  2  0
 29 48  1  0
M  END

