
     RDKit          3D

 42 43  0  0  0  0  0  0  0  0999 V2000
   -1.2580   -5.5509    0.0778 C   0  0  0  0  0  0  0  0  0  0  0  0
    0.0271   -5.3073   -0.7144 C   0  0  0  0  0  0  0  0  0  0  0  0
   -0.0262   -4.0942   -1.5418 N   0  0  0  0  0  0  0  0  0  0  0  0
    0.5184   -2.8631   -0.9719 C   0  0  0  0  0  0  0  0  0  0  0  0
    2.0472   -2.8320   -0.7730 C   0  0  2  0  0  0  0  0  0  0  0  0
    2.3769   -3.7358   -0.2386 H   0  0  0  0  0  0  0  0  0  0  0  0
    2.4619   -1.5456   -0.0033 C   0  0  0  0  0  0  0  0  0  0  0  0
    3.1252   -0.6658   -1.0948 C   0  0  0  0  0  0  0  0  0  0  0  0
    2.7881   -1.2615   -2.3319 O   0  0  0  0  0  0  0  0  0  0  0  0
    2.8061   -2.6602   -2.1025 C   0  0  0  0  0  0  0  0  0  0  0  0
   -0.6656   -4.2117   -2.7420 C   0  0  0  0  0  0  0  0  0  0  0  0
   -1.1239   -5.2811   -3.1338 O   0  0  0  0  0  0  0  0  0  0  0  0
   -0.9051   -2.9719   -3.5842 C   0  0  0  0  0  0  0  0  0  0  0  0
   -1.7915   -1.9881   -3.1195 C   0  0  0  0  0  0  0  0  0  0  0  0
   -2.1378   -0.8922   -3.9144 C   0  0  0  0  0  0  0  0  0  0  0  0
   -1.5949   -0.7533   -5.1933 C   0  0  0  0  0  0  0  0  0  0  0  0
   -0.7207   -1.7272   -5.6809 C   0  0  0  0  0  0  0  0  0  0  0  0
   -0.3959   -2.8311   -4.8885 C   0  0  0  0  0  0  0  0  0  0  0  0
    0.7440   -4.0398   -5.6291 S   0  0  1  0  0  0  0  0  0  0  0  0
   -0.3080   -5.4006   -6.1593 C   0  0  0  0  0  0  0  0  0  0  0  0
    1.3135   -3.4157   -6.8323 O   0  0  0  0  0  0  0  0  0  0  0  0
    1.6320   -4.5468   -4.5677 O   0  0  0  0  0  0  0  0  0  0  0  0
   -1.1548   -6.4518    0.7037 H   0  0  0  0  0  0  0  0  0  0  0  0
   -2.1060   -5.7066   -0.6050 H   0  0  0  0  0  0  0  0  0  0  0  0
   -1.4924   -4.7045    0.7443 H   0  0  0  0  0  0  0  0  0  0  0  0
    0.2228   -6.1595   -1.3798 H   0  0  0  0  0  0  0  0  0  0  0  0
    0.8855   -5.2133   -0.0340 H   0  0  0  0  0  0  0  0  0  0  0  0
    0.0275   -2.6870    0.0029 H   0  0  0  0  0  0  0  0  0  0  0  0
    0.2537   -2.0194   -1.6207 H   0  0  0  0  0  0  0  0  0  0  0  0
    3.1603   -1.7665    0.8174 H   0  0  0  0  0  0  0  0  0  0  0  0
    1.5869   -1.0473    0.4440 H   0  0  0  0  0  0  0  0  0  0  0  0
    4.2262   -0.6514   -0.9606 H   0  0  0  0  0  0  0  0  0  0  0  0
    2.7709    0.3761   -1.1022 H   0  0  0  0  0  0  0  0  0  0  0  0
    3.8491   -3.0251   -1.9933 H   0  0  0  0  0  0  0  0  0  0  0  0
    2.3549   -3.1745   -2.9609 H   0  0  0  0  0  0  0  0  0  0  0  0
   -2.2216   -2.0882   -2.1198 H   0  0  0  0  0  0  0  0  0  0  0  0
   -2.8328   -0.1426   -3.5280 H   0  0  0  0  0  0  0  0  0  0  0  0
   -1.8496    0.1100   -5.8124 H   0  0  0  0  0  0  0  0  0  0  0  0
   -0.2711   -1.6443   -6.6720 H   0  0  0  0  0  0  0  0  0  0  0  0
   -0.9805   -5.0335   -6.9452 H   0  0  0  0  0  0  0  0  0  0  0  0
   -0.8484   -5.7723   -5.2793 H   0  0  0  0  0  0  0  0  0  0  0  0
    0.3873   -6.1514   -6.5609 H   0  0  0  0  0  0  0  0  0  0  0  0
  1  2  1  0
  1 23  1  0
  1 24  1  0
  1 25  1  0
  2  3  1  0
  2 26  1  0
  2 27  1  0
  3  4  1  0
  3 11  1  0
  4  5  1  0
  4 28  1  0
  4 29  1  0
  5  6  1  1
  5  7  1  0
  5 10  1  0
  7  8  1  0
  7 30  1  0
  7 31  1  0
  8  9  1  0
  8 32  1  0
  8 33  1  0
  9 10  1  0
 10 34  1  0
 10 35  1  0
 11 12  2  0
 11 13  1  0
 13 14  2  0
 13 18  1  0
 14 15  1  0
 14 36  1  0
 15 16  2  0
 15 37  1  0
 16 17  1  0
 16 38  1  0
 17 18  2  0
 17 39  1  0
 18 19  1  0
 19 20  1  6
 19 21  2  0
 19 22  2  0
 20 40  1  0
 20 41  1  0
 20 42  1  0
M  END

