
     RDKit          3D

 33 34  0  0  0  0  0  0  0  0999 V2000
    6.5795   -2.2349   -1.9272 C   0  0  0  0  0  0  0  0  0  0  0  0
    5.2425   -2.3615   -1.4916 O   0  0  0  0  0  0  0  0  0  0  0  0
    4.3302   -1.4019   -1.8205 C   0  0  0  0  0  0  0  0  0  0  0  0
    4.6548   -0.2413   -2.5399 C   0  0  0  0  0  0  0  0  0  0  0  0
    3.6653    0.7046   -2.8233 C   0  0  0  0  0  0  0  0  0  0  0  0
    2.3530    0.5058   -2.3934 C   0  0  0  0  0  0  0  0  0  0  0  0
    2.0389   -0.6541   -1.6801 C   0  0  0  0  0  0  0  0  0  0  0  0
    3.0042   -1.6217   -1.3847 C   0  0  0  0  0  0  0  0  0  0  0  0
    2.6255   -2.8867   -0.6233 C   0  0  0  0  0  0  0  0  0  0  0  0
    1.9745   -2.6640    0.6561 N   0  0  0  0  0  0  0  0  0  0  0  0
    2.6032   -2.2632    1.7996 C   0  0  0  0  0  0  0  0  0  0  0  0
    4.0039   -2.0738    1.8824 C   0  0  0  0  0  0  0  0  0  0  0  0
    4.5672   -1.6866    3.0969 C   0  0  0  0  0  0  0  0  0  0  0  0
    3.8633   -1.4724    4.2108 N   0  0  0  0  0  0  0  0  0  0  0  0
    2.5334   -1.6468    4.1322 C   0  0  0  0  0  0  0  0  0  0  0  0
    1.7754   -1.3903    5.4180 C   0  0  0  0  0  0  0  0  0  0  0  0
    0.5794   -1.5007    5.5232 O   0  0  0  0  0  0  0  0  0  0  0  0
    2.5806   -1.0296    6.4182 O   0  0  0  0  0  0  0  0  0  0  0  0
    1.8619   -2.0312    2.9823 C   0  0  0  0  0  0  0  0  0  0  0  0
    7.1109   -3.1249   -1.5648 H   0  0  0  0  0  0  0  0  0  0  0  0
    7.0642   -1.3340   -1.5110 H   0  0  0  0  0  0  0  0  0  0  0  0
    6.6472   -2.1999   -3.0289 H   0  0  0  0  0  0  0  0  0  0  0  0
    5.6758   -0.0650   -2.8775 H   0  0  0  0  0  0  0  0  0  0  0  0
    3.9311    1.6043   -3.3840 H   0  0  0  0  0  0  0  0  0  0  0  0
    1.5793    1.2450   -2.6116 H   0  0  0  0  0  0  0  0  0  0  0  0
    1.0124   -0.8137   -1.3365 H   0  0  0  0  0  0  0  0  0  0  0  0
    3.5186   -3.5110   -0.4833 H   0  0  0  0  0  0  0  0  0  0  0  0
    1.9278   -3.4803   -1.2357 H   0  0  0  0  0  0  0  0  0  0  0  0
    0.9662   -2.7331    0.6934 H   0  0  0  0  0  0  0  0  0  0  0  0
    4.6461   -2.2205    1.0139 H   0  0  0  0  0  0  0  0  0  0  0  0
    5.6510   -1.5400    3.1654 H   0  0  0  0  0  0  0  0  0  0  0  0
    3.4868   -1.0292    6.0279 H   0  0  0  0  0  0  0  0  0  0  0  0
    0.7766   -2.1475    3.0200 H   0  0  0  0  0  0  0  0  0  0  0  0
  1  2  1  0
  1 20  1  0
  1 21  1  0
  1 22  1  0
  2  3  1  0
  3  4  2  0
  3  8  1  0
  4  5  1  0
  4 23  1  0
  5  6  2  0
  5 24  1  0
  6  7  1  0
  6 25  1  0
  7  8  2  0
  7 26  1  0
  8  9  1  0
  9 10  1  0
  9 27  1  0
  9 28  1  0
 10 11  1  0
 10 29  1  0
 11 12  2  0
 11 19  1  0
 12 13  1  0
 12 30  1  0
 13 14  2  0
 13 31  1  0
 14 15  1  0
 15 16  1  0
 15 19  2  0
 16 17  2  0
 16 18  1  0
 18 32  1  0
 19 33  1  0
M  END

