
     RDKit          3D

 59 63  0  0  0  0  0  0  0  0999 V2000
    3.1190   -2.2215    0.3288 C   0  0  0  0  0  0  0  0  0  0  0  0
    3.3382   -0.9485   -0.3167 N   0  0  0  0  0  0  0  0  0  0  0  0
    4.5409   -0.2675   -0.4003 C   0  0  0  0  0  0  0  0  0  0  0  0
    4.3926    0.9130   -1.0928 C   0  0  0  0  0  0  0  0  0  0  0  0
    5.4574    1.9347   -1.3753 C   0  0  0  0  0  0  0  0  0  0  0  0
    5.3603    3.2027   -0.5077 C   0  0  0  0  0  0  0  0  0  0  0  0
    6.4426    4.2276   -0.8459 C   0  0  0  0  0  0  0  0  0  0  0  0
    6.3505    5.4894    0.0119 C   0  0  0  0  0  0  0  0  0  0  0  0
    5.4822    5.6118    0.8622 O   0  0  0  0  0  0  0  0  0  0  0  0
    7.2803    6.4867   -0.2139 N   0  0  0  0  0  0  0  0  0  0  0  0
    8.3659    6.4505   -1.1932 C   0  0  0  0  0  0  0  0  0  0  0  0
    8.3140    7.6661   -2.1260 C   0  0  0  0  0  0  0  0  0  0  0  0
    8.3043    8.9728   -1.3255 C   0  0  0  0  0  0  0  0  0  0  0  0
    7.1806    8.9662   -0.2817 C   0  0  0  0  0  0  0  0  0  0  0  0
    7.1981    7.7056    0.6007 C   0  0  2  0  0  0  0  0  0  0  0  0
    8.2958    7.7340    1.6285 C   0  0  0  0  0  0  0  0  0  0  0  0
    9.2045    8.6315    1.8497 N   0  0  0  0  0  0  0  0  0  0  0  0
    9.9499    8.1945    2.9271 N   0  0  0  0  0  0  0  0  0  0  0  0
    9.4464    7.0521    3.2881 C   0  0  0  0  0  0  0  0  0  0  0  0
    9.8629    6.1715    4.3737 C   0  0  0  0  0  0  0  0  0  0  0  0
    9.1736    4.9861    4.6721 C   0  0  0  0  0  0  0  0  0  0  0  0
    9.6314    4.1984    5.7267 C   0  0  0  0  0  0  0  0  0  0  0  0
   10.7565    4.6234    6.4411 C   0  0  0  0  0  0  0  0  0  0  0  0
   11.4196    5.7512    6.1652 N   0  0  0  0  0  0  0  0  0  0  0  0
   10.9844    6.5049    5.1593 C   0  0  0  0  0  0  0  0  0  0  0  0
    8.3924    6.6982    2.5041 O   0  0  0  0  0  0  0  0  0  0  0  0
    2.9996    0.9757   -1.4700 C   0  0  0  0  0  0  0  0  0  0  0  0
    2.2197    1.9020   -2.1891 C   0  0  0  0  0  0  0  0  0  0  0  0
    0.8666    1.6417   -2.3878 C   0  0  0  0  0  0  0  0  0  0  0  0
    0.2689    0.4679   -1.8801 C   0  0  0  0  0  0  0  0  0  0  0  0
    1.0123   -0.4695   -1.1663 C   0  0  0  0  0  0  0  0  0  0  0  0
    2.3757   -0.2050   -0.9684 C   0  0  0  0  0  0  0  0  0  0  0  0
    4.0636   -2.5773    0.7620 H   0  0  0  0  0  0  0  0  0  0  0  0
    2.7603   -2.9800   -0.3880 H   0  0  0  0  0  0  0  0  0  0  0  0
    2.3768   -2.1377    1.1410 H   0  0  0  0  0  0  0  0  0  0  0  0
    5.4385   -0.6911    0.0500 H   0  0  0  0  0  0  0  0  0  0  0  0
    5.4131    2.2246   -2.4419 H   0  0  0  0  0  0  0  0  0  0  0  0
    6.4502    1.4724   -1.2326 H   0  0  0  0  0  0  0  0  0  0  0  0
    5.4308    2.9309    0.5571 H   0  0  0  0  0  0  0  0  0  0  0  0
    4.3691    3.6681   -0.6234 H   0  0  0  0  0  0  0  0  0  0  0  0
    6.3769    4.5092   -1.9122 H   0  0  0  0  0  0  0  0  0  0  0  0
    7.4445    3.7788   -0.7198 H   0  0  0  0  0  0  0  0  0  0  0  0
    8.3096    5.5206   -1.7691 H   0  0  0  0  0  0  0  0  0  0  0  0
    9.3382    6.4368   -0.6631 H   0  0  0  0  0  0  0  0  0  0  0  0
    7.4040    7.5975   -2.7487 H   0  0  0  0  0  0  0  0  0  0  0  0
    9.1773    7.6337   -2.8112 H   0  0  0  0  0  0  0  0  0  0  0  0
    8.1815    9.8355   -2.0003 H   0  0  0  0  0  0  0  0  0  0  0  0
    9.2723    9.1053   -0.8150 H   0  0  0  0  0  0  0  0  0  0  0  0
    6.2016    8.9903   -0.7889 H   0  0  0  0  0  0  0  0  0  0  0  0
    7.2408    9.8582    0.3593 H   0  0  0  0  0  0  0  0  0  0  0  0
    6.2503    7.6161    1.1528 H   0  0  0  0  0  0  0  0  0  0  0  0
    8.2968    4.6977    4.0884 H   0  0  0  0  0  0  0  0  0  0  0  0
    9.1244    3.2690    5.9952 H   0  0  0  0  0  0  0  0  0  0  0  0
   11.1384    4.0239    7.2758 H   0  0  0  0  0  0  0  0  0  0  0  0
   11.5339    7.4269    4.9421 H   0  0  0  0  0  0  0  0  0  0  0  0
    2.6691    2.8157   -2.5868 H   0  0  0  0  0  0  0  0  0  0  0  0
    0.2540    2.3558   -2.9439 H   0  0  0  0  0  0  0  0  0  0  0  0
   -0.7962    0.2909   -2.0503 H   0  0  0  0  0  0  0  0  0  0  0  0
    0.5445   -1.3768   -0.7774 H   0  0  0  0  0  0  0  0  0  0  0  0
  1  2  1  0
  1 33  1  0
  1 34  1  0
  1 35  1  0
  2  3  1  0
  2 32  1  0
  3  4  2  0
  3 36  1  0
  4  5  1  0
  4 27  1  0
  5  6  1  0
  5 37  1  0
  5 38  1  0
  6  7  1  0
  6 39  1  0
  6 40  1  0
  7  8  1  0
  7 41  1  0
  7 42  1  0
  8  9  2  0
  8 10  1  0
 10 11  1  0
 10 15  1  0
 11 12  1  0
 11 43  1  0
 11 44  1  0
 12 13  1  0
 12 45  1  0
 12 46  1  0
 13 14  1  0
 13 47  1  0
 13 48  1  0
 14 15  1  0
 14 49  1  0
 14 50  1  0
 15 16  1  0
 15 51  1  1
 16 17  2  0
 16 26  1  0
 17 18  1  0
 18 19  2  0
 19 20  1  0
 19 26  1  0
 20 21  2  0
 20 25  1  0
 21 22  1  0
 21 52  1  0
 22 23  2  0
 22 53  1  0
 23 24  1  0
 23 54  1  0
 24 25  2  0
 25 55  1  0
 27 28  1  0
 27 32  2  0
 28 29  2  0
 28 56  1  0
 29 30  1  0
 29 57  1  0
 30 31  2  0
 30 58  1  0
 31 32  1  0
 31 59  1  0
M  END

