
     RDKit          3D

 52 56  0  0  0  0  0  0  0  0999 V2000
    2.7999    2.7793   -3.1930 C   0  0  0  0  0  0  0  0  0  0  0  0
    2.5521    2.1861   -1.8917 N   0  0  0  0  0  0  0  0  0  0  0  0
    2.9557    0.7943   -1.7580 C   0  0  0  0  0  0  0  0  0  0  0  0
    4.4441    0.6396   -1.3799 C   0  0  2  0  0  0  0  0  0  0  0  0
    4.9414   -0.8115   -1.4770 C   0  0  0  0  0  0  0  0  0  0  0  0
    4.6613   -1.3824   -0.1471 N   0  0  0  0  0  0  0  0  0  0  0  0
    4.6685   -2.7241    0.1415 C   0  0  0  0  0  0  0  0  0  0  0  0
    3.9668   -3.2764    1.2562 C   0  0  0  0  0  0  0  0  0  0  0  0
    3.2443   -2.4507    2.0360 F   0  0  0  0  0  0  0  0  0  0  0  0
    3.9920   -4.6122    1.5654 C   0  0  0  0  0  0  0  0  0  0  0  0
    4.6851   -5.5280    0.7552 C   0  0  0  0  0  0  0  0  0  0  0  0
    4.7018   -6.9436    1.1442 C   0  0  0  0  0  0  0  0  0  0  0  0
    4.0942   -7.3570    2.1501 O   0  0  0  0  0  0  0  0  0  0  0  0
    5.4915   -7.8052    0.2877 C   0  0  0  0  0  0  0  0  0  0  0  0
    5.6551   -9.2765    0.5557 C   0  0  0  0  0  0  0  0  0  0  0  0
    6.3144   -9.9931   -0.1642 O   0  0  0  0  0  0  0  0  0  0  0  0
    5.0200   -9.7222    1.6345 O   0  0  0  0  0  0  0  0  0  0  0  0
    6.0979   -7.2892   -0.8263 C   0  0  0  0  0  0  0  0  0  0  0  0
    6.0360   -5.9889   -1.2168 N   0  0  0  0  0  0  0  0  0  0  0  0
    6.6438   -5.6191   -2.4892 C   0  0  1  0  0  0  0  0  0  0  0  0
    6.5236   -6.5454   -3.6695 C   0  0  0  0  0  0  0  0  0  0  0  0
    5.7728   -5.2402   -3.6530 C   0  0  0  0  0  0  0  0  0  0  0  0
    5.3706   -5.0596   -0.3959 C   0  0  0  0  0  0  0  0  0  0  0  0
    5.3857   -3.6680   -0.6302 C   0  0  0  0  0  0  0  0  0  0  0  0
    6.1680   -3.1806   -1.6202 F   0  0  0  0  0  0  0  0  0  0  0  0
    4.3971   -0.3193    0.8398 C   0  0  0  0  0  0  0  0  0  0  0  0
    4.7479    0.9533    0.0849 C   0  0  1  0  0  0  0  0  0  0  0  0
    5.9705    1.7584    0.4599 C   0  0  0  0  0  0  0  0  0  0  0  0
    4.5857    2.3062    0.7114 C   0  0  0  0  0  0  0  0  0  0  0  0
    2.4138    3.8102   -3.2146 H   0  0  0  0  0  0  0  0  0  0  0  0
    2.3430    2.2226   -4.0421 H   0  0  0  0  0  0  0  0  0  0  0  0
    3.8827    2.8398   -3.3931 H   0  0  0  0  0  0  0  0  0  0  0  0
    1.5738    2.2956   -1.6388 H   0  0  0  0  0  0  0  0  0  0  0  0
    2.7686    0.2179   -2.6929 H   0  0  0  0  0  0  0  0  0  0  0  0
    2.3334    0.3230   -0.9798 H   0  0  0  0  0  0  0  0  0  0  0  0
    5.0390    1.2790   -2.0506 H   0  0  0  0  0  0  0  0  0  0  0  0
    6.0191   -0.8290   -1.7045 H   0  0  0  0  0  0  0  0  0  0  0  0
    4.4270   -1.3891   -2.2617 H   0  0  0  0  0  0  0  0  0  0  0  0
    3.4548   -4.9880    2.4370 H   0  0  0  0  0  0  0  0  0  0  0  0
    4.5416   -8.9550    2.0597 H   0  0  0  0  0  0  0  0  0  0  0  0
    6.6667   -7.9649   -1.4659 H   0  0  0  0  0  0  0  0  0  0  0  0
    7.5848   -5.0736   -2.3770 H   0  0  0  0  0  0  0  0  0  0  0  0
    5.9417   -7.4643   -3.5643 H   0  0  0  0  0  0  0  0  0  0  0  0
    7.4040   -6.6465   -4.3095 H   0  0  0  0  0  0  0  0  0  0  0  0
    4.6906   -5.2911   -3.5043 H   0  0  0  0  0  0  0  0  0  0  0  0
    6.1071   -4.4134   -4.2845 H   0  0  0  0  0  0  0  0  0  0  0  0
    5.0053   -0.4543    1.7490 H   0  0  0  0  0  0  0  0  0  0  0  0
    3.3399   -0.3134    1.1511 H   0  0  0  0  0  0  0  0  0  0  0  0
    6.5622    2.1996   -0.3485 H   0  0  0  0  0  0  0  0  0  0  0  0
    6.5620    1.4292    1.3199 H   0  0  0  0  0  0  0  0  0  0  0  0
    4.2078    3.1065    0.0724 H   0  0  0  0  0  0  0  0  0  0  0  0
    4.2334    2.3488    1.7471 H   0  0  0  0  0  0  0  0  0  0  0  0
  1  2  1  0
  1 30  1  0
  1 31  1  0
  1 32  1  0
  2  3  1  0
  2 33  1  0
  3  4  1  0
  3 34  1  0
  3 35  1  0
  4  5  1  0
  4 27  1  0
  4 36  1  6
  5  6  1  0
  5 37  1  0
  5 38  1  0
  6  7  1  0
  6 26  1  0
  7  8  2  0
  7 24  1  0
  8  9  1  0
  8 10  1  0
 10 11  2  0
 10 39  1  0
 11 12  1  0
 11 23  1  0
 12 13  2  0
 12 14  1  0
 14 15  1  0
 14 18  2  0
 15 16  2  0
 15 17  1  0
 17 40  1  0
 18 19  1  0
 18 41  1  0
 19 20  1  0
 19 23  1  0
 20 21  1  0
 20 22  1  0
 20 42  1  1
 21 22  1  0
 21 43  1  0
 21 44  1  0
 22 45  1  0
 22 46  1  0
 23 24  2  0
 24 25  1  0
 27 26  1  1
 26 47  1  0
 26 48  1  0
 27 28  1  0
 27 29  1  0
 28 29  1  0
 28 49  1  0
 28 50  1  0
 29 51  1  0
 29 52  1  0
M  END

