
     RDKit          3D

 89 92  0  0  0  0  0  0  0  0999 V2000
    1.4792   -6.9567   -3.0809 C   0  0  0  0  0  0  0  0  0  0  0  0
    2.9428   -7.3073   -3.3712 C   0  0  1  0  0  0  0  0  0  0  0  0
    3.7844   -7.3730   -2.0917 C   0  0  0  0  0  0  0  0  0  0  0  0
    3.0372   -8.6239   -4.1462 C   0  0  0  0  0  0  0  0  0  0  0  0
    3.5176   -6.3398   -4.3033 O   0  0  0  0  0  0  0  0  0  0  0  0
    3.6279   -5.0246   -4.0048 C   0  0  0  0  0  0  0  0  0  0  0  0
    3.2780   -4.5034   -2.9601 O   0  0  0  0  0  0  0  0  0  0  0  0
    4.2021   -4.3693   -5.0518 N   0  0  0  0  0  0  0  0  0  0  0  0
    4.4337   -2.9422   -5.0585 C   0  0  0  0  0  0  0  0  0  0  0  0
    3.3054   -2.1386   -5.7582 C   0  0  2  0  0  0  0  0  0  0  0  0
    2.4097   -2.2118   -5.1273 H   0  0  0  0  0  0  0  0  0  0  0  0
    2.9930   -2.6019   -7.1910 C   0  0  0  0  0  0  0  0  0  0  0  0
    3.9350   -1.7868   -8.0919 C   0  0  2  0  0  0  0  0  0  0  0  0
    3.5074   -1.6854   -9.1041 H   0  0  0  0  0  0  0  0  0  0  0  0
    5.3072   -2.2926   -8.2241 N   0  0  0  0  0  0  0  0  0  0  0  0
    5.7731   -3.5608   -8.1497 C   0  0  0  0  0  0  0  0  0  0  0  0
    5.0997   -4.5613   -7.9128 O   0  0  0  0  0  0  0  0  0  0  0  0
    7.3144   -3.6545   -8.3561 C   0  0  2  0  0  0  0  0  0  0  0  0
    7.5637   -3.0700   -9.2577 H   0  0  0  0  0  0  0  0  0  0  0  0
    7.7797   -5.1011   -8.5311 C   0  0  0  0  0  0  0  0  0  0  0  0
    7.3243   -5.7440   -9.8530 C   0  0  0  0  0  0  0  0  0  0  0  0
    7.7545   -7.1899   -9.9761 C   0  0  0  0  0  0  0  0  0  0  0  0
    6.9951   -8.2105   -9.3796 C   0  0  0  0  0  0  0  0  0  0  0  0
    7.4001   -9.5454   -9.4577 C   0  0  0  0  0  0  0  0  0  0  0  0
    8.5751   -9.8851  -10.1362 C   0  0  0  0  0  0  0  0  0  0  0  0
    9.3394   -8.8801  -10.7354 C   0  0  0  0  0  0  0  0  0  0  0  0
    8.9309   -7.5452  -10.6540 C   0  0  0  0  0  0  0  0  0  0  0  0
    8.0194   -3.0252   -7.2418 N   0  0  0  0  0  0  0  0  0  0  0  0
    8.2730   -1.6860   -7.1956 C   0  0  0  0  0  0  0  0  0  0  0  0
    7.8454   -0.8940   -8.0268 O   0  0  0  0  0  0  0  0  0  0  0  0
    9.0321   -1.3860   -6.1356 O   0  0  0  0  0  0  0  0  0  0  0  0
    9.4134   -0.0031   -5.7978 C   0  0  1  0  0  0  0  0  0  0  0  0
    8.1611    0.8344   -5.5259 C   0  0  0  0  0  0  0  0  0  0  0  0
   10.2335   -0.1868   -4.5201 C   0  0  0  0  0  0  0  0  0  0  0  0
   10.2737    0.5839   -6.9202 C   0  0  0  0  0  0  0  0  0  0  0  0
    3.9471   -0.4219   -7.3836 C   0  0  0  0  0  0  0  0  0  0  0  0
    3.6723   -0.7210   -5.9690 N   0  0  0  0  0  0  0  0  0  0  0  0
    3.5572    0.3647   -5.1379 C   0  0  0  0  0  0  0  0  0  0  0  0
    3.7717    1.4996   -5.5551 O   0  0  0  0  0  0  0  0  0  0  0  0
    3.1602    0.1969   -3.7165 C   0  0  0  0  0  0  0  0  0  0  0  0
    2.9230    1.1866   -2.8017 C   0  0  0  0  0  0  0  0  0  0  0  0
    2.5852    0.5251   -1.5691 C   0  0  0  0  0  0  0  0  0  0  0  0
    2.2397    0.9252   -0.2632 C   0  0  0  0  0  0  0  0  0  0  0  0
    1.9875   -0.0631    0.6845 C   0  0  0  0  0  0  0  0  0  0  0  0
    2.0752   -1.4362    0.3607 C   0  0  0  0  0  0  0  0  0  0  0  0
    2.4144   -1.8631   -0.9232 C   0  0  0  0  0  0  0  0  0  0  0  0
    2.6555   -0.8559   -1.8551 C   0  0  0  0  0  0  0  0  0  0  0  0
    2.9979   -1.0444   -3.1582 O   0  0  0  0  0  0  0  0  0  0  0  0
    1.0199   -7.7486   -2.4685 H   0  0  0  0  0  0  0  0  0  0  0  0
    0.9110   -6.8804   -4.0214 H   0  0  0  0  0  0  0  0  0  0  0  0
    1.4008   -6.0037   -2.5428 H   0  0  0  0  0  0  0  0  0  0  0  0
    3.4109   -8.1785   -1.4400 H   0  0  0  0  0  0  0  0  0  0  0  0
    3.7412   -6.4241   -1.5426 H   0  0  0  0  0  0  0  0  0  0  0  0
    4.8355   -7.5925   -2.3371 H   0  0  0  0  0  0  0  0  0  0  0  0
    2.6300   -9.4516   -3.5458 H   0  0  0  0  0  0  0  0  0  0  0  0
    4.0851   -8.8526   -4.3928 H   0  0  0  0  0  0  0  0  0  0  0  0
    2.4688   -8.5604   -5.0865 H   0  0  0  0  0  0  0  0  0  0  0  0
    4.4263   -4.8974   -5.8920 H   0  0  0  0  0  0  0  0  0  0  0  0
    5.3939   -2.7359   -5.5534 H   0  0  0  0  0  0  0  0  0  0  0  0
    4.5086   -2.6037   -4.0188 H   0  0  0  0  0  0  0  0  0  0  0  0
    1.9638   -2.3032   -7.4464 H   0  0  0  0  0  0  0  0  0  0  0  0
    3.0796   -3.6825   -7.3325 H   0  0  0  0  0  0  0  0  0  0  0  0
    6.0222   -1.5816   -8.4001 H   0  0  0  0  0  0  0  0  0  0  0  0
    7.3986   -5.7011   -7.6889 H   0  0  0  0  0  0  0  0  0  0  0  0
    8.8809   -5.1164   -8.4780 H   0  0  0  0  0  0  0  0  0  0  0  0
    7.7335   -5.1632  -10.6973 H   0  0  0  0  0  0  0  0  0  0  0  0
    6.2275   -5.6830   -9.9155 H   0  0  0  0  0  0  0  0  0  0  0  0
    6.0726   -7.9509   -8.8515 H   0  0  0  0  0  0  0  0  0  0  0  0
    6.7928  -10.3253   -8.9906 H   0  0  0  0  0  0  0  0  0  0  0  0
    8.8910  -10.9295  -10.2011 H   0  0  0  0  0  0  0  0  0  0  0  0
   10.2567   -9.1358  -11.2725 H   0  0  0  0  0  0  0  0  0  0  0  0
    9.5329   -6.7656  -11.1309 H   0  0  0  0  0  0  0  0  0  0  0  0
    8.3772   -3.6033   -6.4898 H   0  0  0  0  0  0  0  0  0  0  0  0
    7.5303    0.3516   -4.7636 H   0  0  0  0  0  0  0  0  0  0  0  0
    7.5670    0.9791   -6.4369 H   0  0  0  0  0  0  0  0  0  0  0  0
    8.4553    1.8238   -5.1434 H   0  0  0  0  0  0  0  0  0  0  0  0
    9.6225   -0.6480   -3.7295 H   0  0  0  0  0  0  0  0  0  0  0  0
   10.5939    0.7876   -4.1579 H   0  0  0  0  0  0  0  0  0  0  0  0
   11.1039   -0.8337   -4.7071 H   0  0  0  0  0  0  0  0  0  0  0  0
    9.6957    0.6919   -7.8468 H   0  0  0  0  0  0  0  0  0  0  0  0
   11.1443   -0.0617   -7.1157 H   0  0  0  0  0  0  0  0  0  0  0  0
   10.6459    1.5755   -6.6191 H   0  0  0  0  0  0  0  0  0  0  0  0
    3.1624    0.2422   -7.7844 H   0  0  0  0  0  0  0  0  0  0  0  0
    4.8986    0.1194   -7.4973 H   0  0  0  0  0  0  0  0  0  0  0  0
    2.9903    2.2511   -3.0102 H   0  0  0  0  0  0  0  0  0  0  0  0
    2.1729    1.9837   -0.0009 H   0  0  0  0  0  0  0  0  0  0  0  0
    1.7181    0.2253    1.7036 H   0  0  0  0  0  0  0  0  0  0  0  0
    1.8746   -2.1801    1.1358 H   0  0  0  0  0  0  0  0  0  0  0  0
    2.5035   -2.9125   -1.2098 H   0  0  0  0  0  0  0  0  0  0  0  0
  1  2  1  0
  1 49  1  0
  1 50  1  0
  1 51  1  0
  2  3  1  0
  2  4  1  0
  2  5  1  6
  3 52  1  0
  3 53  1  0
  3 54  1  0
  4 55  1  0
  4 56  1  0
  4 57  1  0
  5  6  1  0
  6  7  2  0
  6  8  1  0
  8  9  1  0
  8 58  1  0
  9 10  1  0
  9 59  1  0
  9 60  1  0
 10 11  1  1
 10 12  1  0
 10 37  1  0
 12 13  1  0
 12 61  1  0
 12 62  1  0
 13 14  1  6
 13 15  1  0
 13 36  1  0
 15 16  1  0
 15 63  1  0
 16 17  2  0
 16 18  1  0
 18 19  1  6
 18 20  1  0
 18 28  1  0
 20 21  1  0
 20 64  1  0
 20 65  1  0
 21 22  1  0
 21 66  1  0
 21 67  1  0
 22 23  2  0
 22 27  1  0
 23 24  1  0
 23 68  1  0
 24 25  2  0
 24 69  1  0
 25 26  1  0
 25 70  1  0
 26 27  2  0
 26 71  1  0
 27 72  1  0
 28 29  1  0
 28 73  1  0
 29 30  2  0
 29 31  1  0
 32 31  1  6
 32 33  1  0
 32 34  1  0
 32 35  1  0
 33 74  1  0
 33 75  1  0
 33 76  1  0
 34 77  1  0
 34 78  1  0
 34 79  1  0
 35 80  1  0
 35 81  1  0
 35 82  1  0
 36 37  1  0
 36 83  1  0
 36 84  1  0
 37 38  1  0
 38 39  2  0
 38 40  1  0
 40 41  2  0
 40 48  1  0
 41 42  1  0
 41 85  1  0
 42 43  2  0
 42 47  1  0
 43 44  1  0
 43 86  1  0
 44 45  2  0
 44 87  1  0
 45 46  1  0
 45 88  1  0
 46 47  2  0
 46 89  1  0
 47 48  1  0
M  END

