
     RDKit          3D

 54 57  0  0  0  0  0  0  0  0999 V2000
   11.7160   -7.3780   -2.3837 C   0  0  0  0  0  0  0  0  0  0  0  0
   11.3317   -6.5539   -1.1778 C   0  0  0  0  0  0  0  0  0  0  0  0
   12.2939   -5.8666   -0.4302 C   0  0  0  0  0  0  0  0  0  0  0  0
   11.9129   -5.1124    0.6882 C   0  0  0  0  0  0  0  0  0  0  0  0
   10.5789   -5.0343    1.0717 C   0  0  0  0  0  0  0  0  0  0  0  0
    9.6023   -5.7206    0.3275 C   0  0  0  0  0  0  0  0  0  0  0  0
    8.3209   -5.5927    0.7671 O   0  0  0  0  0  0  0  0  0  0  0  0
    7.2745   -6.2495    0.0785 C   0  0  0  0  0  0  0  0  0  0  0  0
    5.9830   -5.9110    0.8096 C   0  0  0  0  0  0  0  0  0  0  0  0
    4.7675   -6.5324    0.2018 C   0  0  0  0  0  0  0  0  0  0  0  0
    4.8119   -7.2952   -0.8609 N   0  0  0  0  0  0  0  0  0  0  0  0
    3.4819   -7.6449   -1.0722 O   0  0  0  0  0  0  0  0  0  0  0  0
    2.7635   -7.0525   -0.1084 C   0  0  0  0  0  0  0  0  0  0  0  0
    1.2765   -7.3087   -0.0370 C   0  0  1  0  0  0  0  0  0  0  0  0
    0.5612   -6.2458    0.8288 C   0  0  0  0  0  0  0  0  0  0  0  0
    0.4235   -4.9078    0.0897 C   0  0  0  0  0  0  0  0  0  0  0  0
   -0.1939   -5.1086   -1.3008 C   0  0  0  0  0  0  0  0  0  0  0  0
    0.5900   -6.1759   -2.0808 C   0  0  0  0  0  0  0  0  0  0  0  0
    0.7133   -7.4537   -1.3780 N   0  0  0  0  0  0  0  0  0  0  0  0
   -0.4517   -8.3316   -1.4711 C   0  0  0  0  0  0  0  0  0  0  0  0
   -0.1364   -9.7634   -1.1279 C   0  0  0  0  0  0  0  0  0  0  0  0
   -0.9210  -10.5967    0.1866 S   0  0  0  0  0  0  0  0  0  0  0  0
    0.0125  -12.0140   -0.1946 C   0  0  0  0  0  0  0  0  0  0  0  0
    0.8255  -11.8786   -1.1978 N   0  0  0  0  0  0  0  0  0  0  0  0
    0.7613  -10.6159   -1.7416 C   0  0  0  0  0  0  0  0  0  0  0  0
    1.6399  -10.2627   -2.9069 C   0  0  0  0  0  0  0  0  0  0  0  0
    3.4984   -6.3521    0.7042 N   0  0  0  0  0  0  0  0  0  0  0  0
    9.9804   -6.4750   -0.7904 C   0  0  0  0  0  0  0  0  0  0  0  0
   12.7939   -7.3117   -2.5915 H   0  0  0  0  0  0  0  0  0  0  0  0
   11.1766   -7.0448   -3.2861 H   0  0  0  0  0  0  0  0  0  0  0  0
   11.4668   -8.4426   -2.2366 H   0  0  0  0  0  0  0  0  0  0  0  0
   13.3463   -5.9191   -0.7208 H   0  0  0  0  0  0  0  0  0  0  0  0
   12.6713   -4.5783    1.2669 H   0  0  0  0  0  0  0  0  0  0  0  0
   10.2613   -4.4523    1.9390 H   0  0  0  0  0  0  0  0  0  0  0  0
    7.4363   -7.3423    0.0638 H   0  0  0  0  0  0  0  0  0  0  0  0
    7.2231   -5.9151   -0.9733 H   0  0  0  0  0  0  0  0  0  0  0  0
    5.8462   -4.8171    0.8372 H   0  0  0  0  0  0  0  0  0  0  0  0
    6.0558   -6.2310    1.8624 H   0  0  0  0  0  0  0  0  0  0  0  0
    1.1812   -8.2896    0.4612 H   0  0  0  0  0  0  0  0  0  0  0  0
    1.1034   -6.1171    1.7772 H   0  0  0  0  0  0  0  0  0  0  0  0
   -0.4400   -6.6360    1.0793 H   0  0  0  0  0  0  0  0  0  0  0  0
    1.4213   -4.4466   -0.0139 H   0  0  0  0  0  0  0  0  0  0  0  0
   -0.1808   -4.2070    0.6888 H   0  0  0  0  0  0  0  0  0  0  0  0
   -0.1982   -4.1621   -1.8674 H   0  0  0  0  0  0  0  0  0  0  0  0
   -1.2503   -5.4179   -1.2018 H   0  0  0  0  0  0  0  0  0  0  0  0
    1.6091   -5.7972   -2.2830 H   0  0  0  0  0  0  0  0  0  0  0  0
    0.1320   -6.3654   -3.0646 H   0  0  0  0  0  0  0  0  0  0  0  0
   -0.7952   -8.2874   -2.5192 H   0  0  0  0  0  0  0  0  0  0  0  0
   -1.3152   -7.9954   -0.8580 H   0  0  0  0  0  0  0  0  0  0  0  0
   -0.1097  -12.9345    0.3814 H   0  0  0  0  0  0  0  0  0  0  0  0
    2.0050  -11.1836   -3.3817 H   0  0  0  0  0  0  0  0  0  0  0  0
    2.5053   -9.6634   -2.5826 H   0  0  0  0  0  0  0  0  0  0  0  0
    1.0992   -9.6634   -3.6560 H   0  0  0  0  0  0  0  0  0  0  0  0
    9.2331   -7.0122   -1.3764 H   0  0  0  0  0  0  0  0  0  0  0  0
  1  2  1  0
  1 29  1  0
  1 30  1  0
  1 31  1  0
  2  3  2  0
  2 28  1  0
  3  4  1  0
  3 32  1  0
  4  5  2  0
  4 33  1  0
  5  6  1  0
  5 34  1  0
  6  7  1  0
  6 28  2  0
  7  8  1  0
  8  9  1  0
  8 35  1  0
  8 36  1  0
  9 10  1  0
  9 37  1  0
  9 38  1  0
 10 11  2  0
 10 27  1  0
 11 12  1  0
 12 13  1  0
 13 14  1  0
 13 27  2  0
 14 15  1  0
 14 19  1  0
 14 39  1  1
 15 16  1  0
 15 40  1  0
 15 41  1  0
 16 17  1  0
 16 42  1  0
 16 43  1  0
 17 18  1  0
 17 44  1  0
 17 45  1  0
 18 19  1  0
 18 46  1  0
 18 47  1  0
 19 20  1  0
 20 21  1  0
 20 48  1  0
 20 49  1  0
 21 22  1  0
 21 25  2  0
 22 23  1  0
 23 24  2  0
 23 50  1  0
 24 25  1  0
 25 26  1  0
 26 51  1  0
 26 52  1  0
 26 53  1  0
 28 54  1  0
M  END

