
     RDKit          3D

 71 77  0  0  0  0  0  0  0  0999 V2000
    0.8803    0.1837   -0.8958 C   0  0  0  0  0  0  0  0  0  0  0  0
    2.3598    0.1554   -0.6068 C   0  0  0  0  0  0  0  0  0  0  0  0
    3.0840    1.3449   -0.4818 C   0  0  0  0  0  0  0  0  0  0  0  0
    4.4604    1.3374   -0.2107 C   0  0  0  0  0  0  0  0  0  0  0  0
    5.2105    2.6134   -0.0821 C   0  0  0  0  0  0  0  0  0  0  0  0
    4.5378    3.7612   -0.2379 N   0  0  0  0  0  0  0  0  0  0  0  0
    5.2494    4.8889   -0.1146 C   0  0  0  0  0  0  0  0  0  0  0  0
    4.5430    6.1863   -0.2788 C   0  0  0  0  0  0  0  0  0  0  0  0
    3.1656    6.2170   -0.5597 C   0  0  0  0  0  0  0  0  0  0  0  0
    2.5042    7.4356   -0.7136 C   0  0  0  0  0  0  0  0  0  0  0  0
    3.2086    8.6381   -0.5892 C   0  0  0  0  0  0  0  0  0  0  0  0
    4.5794    8.6161   -0.3097 C   0  0  0  0  0  0  0  0  0  0  0  0
    5.2435    7.3991   -0.1554 C   0  0  0  0  0  0  0  0  0  0  0  0
    6.5622    4.9127    0.1490 N   0  0  0  0  0  0  0  0  0  0  0  0
    7.1621    3.7237    0.2902 C   0  0  0  0  0  0  0  0  0  0  0  0
    8.6191    3.7032    0.5835 C   0  0  0  0  0  0  0  0  0  0  0  0
    9.3382    4.9055    0.7044 C   0  0  0  0  0  0  0  0  0  0  0  0
   10.7055    4.8849    0.9798 C   0  0  0  0  0  0  0  0  0  0  0  0
   11.3722    3.6649    1.1379 C   0  0  0  0  0  0  0  0  0  0  0  0
   10.6639    2.4641    1.0192 C   0  0  0  0  0  0  0  0  0  0  0  0
    9.2965    2.4815    0.7439 C   0  0  0  0  0  0  0  0  0  0  0  0
    6.5221    2.5524    0.1825 N   0  0  0  0  0  0  0  0  0  0  0  0
    5.1180    0.1072   -0.0625 C   0  0  0  0  0  0  0  0  0  0  0  0
    4.4309   -1.1049   -0.1794 C   0  0  0  0  0  0  0  0  0  0  0  0
    5.1563   -2.4171   -0.0203 C   0  0  0  0  0  0  0  0  0  0  0  0
    3.0463   -1.0686   -0.4529 C   0  0  0  0  0  0  0  0  0  0  0  0
    2.3161   -2.3106   -0.5777 N   0  0  0  0  0  0  0  0  0  0  0  0
    1.9962   -2.9442    0.6609 C   0  0  0  0  0  0  0  0  0  0  0  0
    2.1038   -2.1630    1.8388 C   0  0  0  0  0  0  0  0  0  0  0  0
    1.8921   -2.6932    3.1089 C   0  0  0  0  0  0  0  0  0  0  0  0
    1.5449   -4.0345    3.2605 C   0  0  0  0  0  0  0  0  0  0  0  0
    1.3959   -4.8059    2.1099 C   0  0  0  0  0  0  0  0  0  0  0  0
    1.6115   -4.3038    0.8169 C   0  0  0  0  0  0  0  0  0  0  0  0
    1.3093   -5.2104   -0.3461 C   0  0  0  0  0  0  0  0  0  0  0  0
    0.3260   -4.5400   -1.3238 C   0  0  0  0  0  0  0  0  0  0  0  0
    1.0583   -3.6673   -2.3079 C   0  0  0  0  0  0  0  0  0  0  0  0
    0.8395   -3.8996   -3.6750 C   0  0  0  0  0  0  0  0  0  0  0  0
    1.5299   -3.2277   -4.6815 C   0  0  0  0  0  0  0  0  0  0  0  0
    2.5061   -2.3076   -4.3034 C   0  0  0  0  0  0  0  0  0  0  0  0
    2.7530   -2.0614   -2.9553 C   0  0  0  0  0  0  0  0  0  0  0  0
    2.0307   -2.7057   -1.9196 C   0  0  0  0  0  0  0  0  0  0  0  0
    0.4801    1.2021   -0.7910 H   0  0  0  0  0  0  0  0  0  0  0  0
    0.3240   -0.4801   -0.2160 H   0  0  0  0  0  0  0  0  0  0  0  0
    0.6671   -0.1608   -1.9216 H   0  0  0  0  0  0  0  0  0  0  0  0
    2.5775    2.3047   -0.5888 H   0  0  0  0  0  0  0  0  0  0  0  0
    2.6284    5.2731   -0.6544 H   0  0  0  0  0  0  0  0  0  0  0  0
    1.4334    7.4488   -0.9320 H   0  0  0  0  0  0  0  0  0  0  0  0
    2.6892    9.5924   -0.7100 H   0  0  0  0  0  0  0  0  0  0  0  0
    5.1330    9.5534   -0.2118 H   0  0  0  0  0  0  0  0  0  0  0  0
    6.3113    7.3681    0.0624 H   0  0  0  0  0  0  0  0  0  0  0  0
    8.8068    5.8492    0.5790 H   0  0  0  0  0  0  0  0  0  0  0  0
   11.2554    5.8249    1.0718 H   0  0  0  0  0  0  0  0  0  0  0  0
   12.4438    3.6500    1.3537 H   0  0  0  0  0  0  0  0  0  0  0  0
   11.1812    1.5092    1.1422 H   0  0  0  0  0  0  0  0  0  0  0  0
    8.7331    1.5530    0.6492 H   0  0  0  0  0  0  0  0  0  0  0  0
    6.1892    0.1085    0.1415 H   0  0  0  0  0  0  0  0  0  0  0  0
    6.2442   -2.2621    0.0089 H   0  0  0  0  0  0  0  0  0  0  0  0
    4.9261   -3.1074   -0.8467 H   0  0  0  0  0  0  0  0  0  0  0  0
    4.8608   -2.9270    0.9117 H   0  0  0  0  0  0  0  0  0  0  0  0
    2.3646   -1.1098    1.7614 H   0  0  0  0  0  0  0  0  0  0  0  0
    1.9953   -2.0411    3.9799 H   0  0  0  0  0  0  0  0  0  0  0  0
    1.3773   -4.4688    4.2485 H   0  0  0  0  0  0  0  0  0  0  0  0
    1.0945   -5.8533    2.2024 H   0  0  0  0  0  0  0  0  0  0  0  0
    0.8793   -6.1449    0.0448 H   0  0  0  0  0  0  0  0  0  0  0  0
    2.2232   -5.4946   -0.8964 H   0  0  0  0  0  0  0  0  0  0  0  0
   -0.4227   -3.9714   -0.7448 H   0  0  0  0  0  0  0  0  0  0  0  0
   -0.2319   -5.3041   -1.8859 H   0  0  0  0  0  0  0  0  0  0  0  0
    0.0905   -4.6487   -3.9475 H   0  0  0  0  0  0  0  0  0  0  0  0
    1.3202   -3.4321   -5.7337 H   0  0  0  0  0  0  0  0  0  0  0  0
    3.0929   -1.7749   -5.0561 H   0  0  0  0  0  0  0  0  0  0  0  0
    3.5290   -1.3430   -2.7005 H   0  0  0  0  0  0  0  0  0  0  0  0
  1  2  1  0
  1 42  1  0
  1 43  1  0
  1 44  1  0
  2  3  2  0
  2 26  1  0
  3  4  1  0
  3 45  1  0
  4  5  1  0
  4 23  2  0
  5  6  2  0
  5 22  1  0
  6  7  1  0
  7  8  1  0
  7 14  2  0
  8  9  2  0
  8 13  1  0
  9 10  1  0
  9 46  1  0
 10 11  2  0
 10 47  1  0
 11 12  1  0
 11 48  1  0
 12 13  2  0
 12 49  1  0
 13 50  1  0
 14 15  1  0
 15 16  1  0
 15 22  2  0
 16 17  2  0
 16 21  1  0
 17 18  1  0
 17 51  1  0
 18 19  2  0
 18 52  1  0
 19 20  1  0
 19 53  1  0
 20 21  2  0
 20 54  1  0
 21 55  1  0
 23 24  1  0
 23 56  1  0
 24 25  1  0
 24 26  2  0
 25 57  1  0
 25 58  1  0
 25 59  1  0
 26 27  1  0
 27 28  1  0
 27 41  1  0
 28 29  2  0
 28 33  1  0
 29 30  1  0
 29 60  1  0
 30 31  2  0
 30 61  1  0
 31 32  1  0
 31 62  1  0
 32 33  2  0
 32 63  1  0
 33 34  1  0
 34 35  1  0
 34 64  1  0
 34 65  1  0
 35 36  1  0
 35 66  1  0
 35 67  1  0
 36 37  1  0
 36 41  2  0
 37 38  2  0
 37 68  1  0
 38 39  1  0
 38 69  1  0
 39 40  2  0
 39 70  1  0
 40 41  1  0
 40 71  1  0
M  END

