
     RDKit          3D

 39 39  0  0  0  0  0  0  0  0999 V2000
    0.9331   -0.6694    0.0577 C   0  0  0  0  0  0  0  0  0  0  0  0
    2.4083   -0.3156    0.0627 C   0  0  0  0  0  0  0  0  0  0  0  0
    3.1279   -1.3366   -0.6080 O   0  0  0  0  0  0  0  0  0  0  0  0
    4.5208   -1.1245   -0.7149 C   0  0  1  0  0  0  0  0  0  0  0  0
    5.2271   -1.4389    0.6169 C   0  0  0  0  0  0  0  0  0  0  0  0
    6.1397   -0.7521    1.0160 O   0  0  0  0  0  0  0  0  0  0  0  0
    4.7162   -2.6567    1.4032 C   0  0  0  0  0  0  0  0  0  0  0  0
    5.8080   -3.5740    1.9059 C   0  0  0  0  0  0  0  0  0  0  0  0
    6.7669   -3.1319    2.8312 C   0  0  0  0  0  0  0  0  0  0  0  0
    7.7715   -3.9896    3.2823 C   0  0  0  0  0  0  0  0  0  0  0  0
    7.8331   -5.3064    2.8161 C   0  0  0  0  0  0  0  0  0  0  0  0
    8.8908   -6.2599    3.3088 C   0  0  1  0  0  0  0  0  0  0  0  0
    9.8204   -5.6472    4.0608 F   0  0  0  0  0  0  0  0  0  0  0  0
    8.3586   -7.2460    4.0591 F   0  0  0  0  0  0  0  0  0  0  0  0
    9.5314   -6.8603    2.2864 F   0  0  0  0  0  0  0  0  0  0  0  0
    6.8855   -5.7600    1.8906 C   0  0  0  0  0  0  0  0  0  0  0  0
    5.8854   -4.8981    1.4422 C   0  0  0  0  0  0  0  0  0  0  0  0
    5.0674   -1.9986   -1.8682 C   0  0  1  0  0  0  0  0  0  0  0  0
    4.3164   -1.6884   -3.1691 C   0  0  0  0  0  0  0  0  0  0  0  0
    6.5824   -1.8362   -2.0472 C   0  0  0  0  0  0  0  0  0  0  0  0
    0.3499    0.1087    0.5738 H   0  0  0  0  0  0  0  0  0  0  0  0
    0.7608   -1.6287    0.5697 H   0  0  0  0  0  0  0  0  0  0  0  0
    0.5576   -0.7599   -0.9732 H   0  0  0  0  0  0  0  0  0  0  0  0
    2.7717   -0.1983    1.1045 H   0  0  0  0  0  0  0  0  0  0  0  0
    2.5792    0.6557   -0.4428 H   0  0  0  0  0  0  0  0  0  0  0  0
    4.7414   -0.0619   -0.9370 H   0  0  0  0  0  0  0  0  0  0  0  0
    3.9795   -3.2046    0.8021 H   0  0  0  0  0  0  0  0  0  0  0  0
    4.1612   -2.2346    2.2613 H   0  0  0  0  0  0  0  0  0  0  0  0
    6.7344   -2.1015    3.1872 H   0  0  0  0  0  0  0  0  0  0  0  0
    8.5125   -3.6338    4.0000 H   0  0  0  0  0  0  0  0  0  0  0  0
    6.9311   -6.7859    1.5182 H   0  0  0  0  0  0  0  0  0  0  0  0
    5.1481   -5.2604    0.7208 H   0  0  0  0  0  0  0  0  0  0  0  0
    4.8566   -3.0506   -1.6003 H   0  0  0  0  0  0  0  0  0  0  0  0
    4.5038   -0.6499   -3.4916 H   0  0  0  0  0  0  0  0  0  0  0  0
    3.2329   -1.8173   -3.0435 H   0  0  0  0  0  0  0  0  0  0  0  0
    4.6553   -2.3549   -3.9778 H   0  0  0  0  0  0  0  0  0  0  0  0
    6.8450   -0.7899   -2.2757 H   0  0  0  0  0  0  0  0  0  0  0  0
    6.9324   -2.4581   -2.8857 H   0  0  0  0  0  0  0  0  0  0  0  0
    7.1514   -2.1311   -1.1535 H   0  0  0  0  0  0  0  0  0  0  0  0
  1  2  1  0
  1 21  1  0
  1 22  1  0
  1 23  1  0
  2  3  1  0
  2 24  1  0
  2 25  1  0
  3  4  1  0
  4  5  1  0
  4 18  1  0
  4 26  1  6
  5  6  2  0
  5  7  1  0
  7  8  1  0
  7 27  1  0
  7 28  1  0
  8  9  2  0
  8 17  1  0
  9 10  1  0
  9 29  1  0
 10 11  2  0
 10 30  1  0
 11 12  1  0
 11 16  1  0
 12 13  1  1
 12 14  1  0
 12 15  1  0
 16 17  2  0
 16 31  1  0
 17 32  1  0
 18 19  1  0
 18 20  1  0
 18 33  1  1
 19 34  1  0
 19 35  1  0
 19 36  1  0
 20 37  1  0
 20 38  1  0
 20 39  1  0
M  END

