
     RDKit          3D

 26 25  0  0  0  0  0  0  0  0999 V2000
    4.7551    2.0654   -2.6175 C   0  0  0  0  0  0  0  0  0  0  0  0
    4.4615    0.8730   -1.8507 N   0  0  0  0  0  0  0  0  0  0  0  0
    5.3704   -0.1264   -1.6758 C   0  0  0  0  0  0  0  0  0  0  0  0
    6.4662   -0.1445   -2.2193 O   0  0  0  0  0  0  0  0  0  0  0  0
    4.9026   -1.2686   -0.7385 C   0  0  2  0  0  0  0  0  0  0  0  0
    3.8002   -1.3062   -0.7845 H   0  0  0  0  0  0  0  0  0  0  0  0
    5.2697   -0.9675    0.7240 C   0  0  0  0  0  0  0  0  0  0  0  0
    4.6748    0.2594    1.1883 O   0  0  0  0  0  0  0  0  0  0  0  0
    3.1866    0.3122    1.7811 P   0  0  1  0  0  0  0  0  0  0  0  0
    2.7292   -0.8328    2.5987 O   0  0  0  0  0  0  0  0  0  0  0  0
    3.1585    1.7604    2.4846 O   0  0  0  0  0  0  0  0  0  0  0  0
    2.3173    0.6005    0.4336 O   0  0  0  0  0  0  0  0  0  0  0  0
    5.3747   -2.5945   -1.1044 N   0  0  0  0  0  0  0  0  0  0  0  0
    6.7984   -2.9062   -0.9832 C   0  0  0  0  0  0  0  0  0  0  0  0
    3.9756    2.2563   -3.3739 H   0  0  0  0  0  0  0  0  0  0  0  0
    5.7155    1.9112   -3.1267 H   0  0  0  0  0  0  0  0  0  0  0  0
    4.8375    2.9571   -1.9716 H   0  0  0  0  0  0  0  0  0  0  0  0
    3.6144    0.8542   -1.2907 H   0  0  0  0  0  0  0  0  0  0  0  0
    6.3521   -0.8211    0.8365 H   0  0  0  0  0  0  0  0  0  0  0  0
    4.9467   -1.8089    1.3565 H   0  0  0  0  0  0  0  0  0  0  0  0
    3.3589    1.6935    3.4303 H   0  0  0  0  0  0  0  0  0  0  0  0
    1.3878    0.3532    0.5565 H   0  0  0  0  0  0  0  0  0  0  0  0
    5.0572   -2.8099   -2.0464 H   0  0  0  0  0  0  0  0  0  0  0  0
    7.1041   -2.9074    0.0761 H   0  0  0  0  0  0  0  0  0  0  0  0
    7.4656   -2.2254   -1.5379 H   0  0  0  0  0  0  0  0  0  0  0  0
    6.9553   -3.9335   -1.3485 H   0  0  0  0  0  0  0  0  0  0  0  0
  1  2  1  0
  1 15  1  0
  1 16  1  0
  1 17  1  0
  2  3  1  0
  2 18  1  0
  3  4  2  0
  3  5  1  0
  5  6  1  1
  5  7  1  0
  5 13  1  0
  7  8  1  0
  7 19  1  0
  7 20  1  0
  9  8  1  6
  9 10  2  0
  9 11  1  0
  9 12  1  0
 11 21  1  0
 12 22  1  0
 13 14  1  0
 13 23  1  0
 14 24  1  0
 14 25  1  0
 14 26  1  0
M  END

