
     RDKit          3D

 46 48  0  0  0  0  0  0  0  0999 V2000
    3.4038    4.1265    0.8696 C   0  0  0  0  0  0  0  0  0  0  0  0
    4.2662    3.2904    0.1287 O   0  0  0  0  0  0  0  0  0  0  0  0
    3.8511    2.0446   -0.2155 C   0  0  0  0  0  0  0  0  0  0  0  0
    2.6149    1.4968    0.1431 C   0  0  0  0  0  0  0  0  0  0  0  0
    2.2641    0.2113   -0.2918 C   0  0  0  0  0  0  0  0  0  0  0  0
    3.1315   -0.5314   -1.0787 C   0  0  0  0  0  0  0  0  0  0  0  0
    4.3959   -0.0133   -1.4481 C   0  0  0  0  0  0  0  0  0  0  0  0
    5.3609   -0.7282   -2.2683 C   0  0  0  0  0  0  0  0  0  0  0  0
    5.3337   -1.9751   -2.8037 C   0  0  0  0  0  0  0  0  0  0  0  0
    4.1037   -3.2380   -2.7190 S   0  0  0  0  0  0  0  0  0  0  0  0
    5.0532   -4.3628   -3.7100 C   0  0  0  0  0  0  0  0  0  0  0  0
    4.5181   -5.8707   -4.0685 S   0  0  0  0  0  0  0  0  0  0  0  0
    6.2453   -3.7687   -4.0853 N   0  0  0  0  0  0  0  0  0  0  0  0
    7.2211   -4.4296   -4.9047 C   0  0  0  0  0  0  0  0  0  0  0  0
    8.4868   -4.7141   -4.3887 C   0  0  0  0  0  0  0  0  0  0  0  0
    9.4546   -5.3248   -5.1860 C   0  0  0  0  0  0  0  0  0  0  0  0
    9.1597   -5.6892   -6.5111 C   0  0  0  0  0  0  0  0  0  0  0  0
   10.0914   -6.2954   -7.3711 N   0  0  0  0  0  0  0  0  0  0  0  0
   11.0935   -7.2362   -7.1699 C   0  0  0  0  0  0  0  0  0  0  0  0
   11.3211   -7.7815   -5.7741 C   0  0  0  0  0  0  0  0  0  0  0  0
   11.7500   -7.6121   -8.1221 O   0  0  0  0  0  0  0  0  0  0  0  0
    7.8821   -5.3869   -7.0217 C   0  0  0  0  0  0  0  0  0  0  0  0
    6.9262   -4.7561   -6.2325 C   0  0  0  0  0  0  0  0  0  0  0  0
    6.4897   -2.4525   -3.6122 C   0  0  0  0  0  0  0  0  0  0  0  0
    7.5039   -1.8395   -3.8491 O   0  0  0  0  0  0  0  0  0  0  0  0
    4.7517    1.2872   -1.0058 C   0  0  0  0  0  0  0  0  0  0  0  0
    5.9363    1.8191   -1.4087 O   0  0  0  0  0  0  0  0  0  0  0  0
    6.9210    2.1122   -0.4216 C   0  0  0  0  0  0  0  0  0  0  0  0
    3.9357    5.0768    1.0093 H   0  0  0  0  0  0  0  0  0  0  0  0
    3.1669    3.6994    1.8607 H   0  0  0  0  0  0  0  0  0  0  0  0
    2.4601    4.3203    0.3295 H   0  0  0  0  0  0  0  0  0  0  0  0
    1.9132    2.0682    0.7506 H   0  0  0  0  0  0  0  0  0  0  0  0
    1.2929   -0.2024   -0.0113 H   0  0  0  0  0  0  0  0  0  0  0  0
    2.8254   -1.5225   -1.4118 H   0  0  0  0  0  0  0  0  0  0  0  0
    6.2734   -0.1739   -2.5022 H   0  0  0  0  0  0  0  0  0  0  0  0
    8.7300   -4.4340   -3.3627 H   0  0  0  0  0  0  0  0  0  0  0  0
   10.4499   -5.4883   -4.7765 H   0  0  0  0  0  0  0  0  0  0  0  0
    9.9644   -6.1119   -8.3634 H   0  0  0  0  0  0  0  0  0  0  0  0
   10.3885   -7.9192   -5.2090 H   0  0  0  0  0  0  0  0  0  0  0  0
   11.9736   -7.1045   -5.1995 H   0  0  0  0  0  0  0  0  0  0  0  0
   11.8438   -8.7401   -5.8827 H   0  0  0  0  0  0  0  0  0  0  0  0
    7.6390   -5.6594   -8.0518 H   0  0  0  0  0  0  0  0  0  0  0  0
    5.9411   -4.5305   -6.6428 H   0  0  0  0  0  0  0  0  0  0  0  0
    7.8100    2.4584   -0.9658 H   0  0  0  0  0  0  0  0  0  0  0  0
    7.1828    1.2063    0.1536 H   0  0  0  0  0  0  0  0  0  0  0  0
    6.5826    2.8998    0.2673 H   0  0  0  0  0  0  0  0  0  0  0  0
  1  2  1  0
  1 29  1  0
  1 30  1  0
  1 31  1  0
  2  3  1  0
  3  4  2  0
  3 26  1  0
  4  5  1  0
  4 32  1  0
  5  6  2  0
  5 33  1  0
  6  7  1  0
  6 34  1  0
  7  8  1  0
  7 26  2  0
  8  9  2  0
  8 35  1  0
  9 10  1  0
  9 24  1  0
 10 11  1  0
 11 12  2  0
 11 13  1  0
 13 14  1  0
 13 24  1  0
 14 15  2  0
 14 23  1  0
 15 16  1  0
 15 36  1  0
 16 17  2  0
 16 37  1  0
 17 18  1  0
 17 22  1  0
 18 19  1  0
 18 38  1  0
 19 20  1  0
 19 21  2  0
 20 39  1  0
 20 40  1  0
 20 41  1  0
 22 23  2  0
 22 42  1  0
 23 43  1  0
 24 25  2  0
 26 27  1  0
 27 28  1  0
 28 44  1  0
 28 45  1  0
 28 46  1  0
M  END

