
     RDKit          3D

 30 32  0  0  0  0  0  0  0  0999 V2000
    1.0154   -0.0007    0.5747 N   0  0  0  0  0  0  0  0  0  0  0  0
    2.3653    0.0630    0.2979 C   0  0  0  0  0  0  0  0  0  0  0  0
    3.0858    1.2290    0.3504 C   0  0  0  0  0  0  0  0  0  0  0  0
    4.4695    1.2498   -0.0160 C   0  0  0  0  0  0  0  0  0  0  0  0
    5.2503    2.4325    0.0096 C   0  0  0  0  0  0  0  0  0  0  0  0
    6.5902    2.4055   -0.3471 C   0  0  0  0  0  0  0  0  0  0  0  0
    7.2081    1.2020   -0.7427 C   0  0  0  0  0  0  0  0  0  0  0  0
    6.4638    0.0315   -0.7739 C   0  0  0  0  0  0  0  0  0  0  0  0
    5.1023    0.0428   -0.4149 C   0  0  0  0  0  0  0  0  0  0  0  0
    4.3516   -1.2190   -0.4600 C   0  0  0  0  0  0  0  0  0  0  0  0
    4.8180   -2.2990   -0.7801 O   0  0  0  0  0  0  0  0  0  0  0  0
    2.9750   -1.1272   -0.1020 N   0  0  0  0  0  0  0  0  0  0  0  0
    2.2146   -2.3448   -0.1851 C   0  0  0  0  0  0  0  0  0  0  0  0
    2.3699   -3.3391    0.7867 C   0  0  0  0  0  0  0  0  0  0  0  0
    1.6412   -4.5273    0.6939 C   0  0  0  0  0  0  0  0  0  0  0  0
    0.7604   -4.7169   -0.3662 C   0  0  0  0  0  0  0  0  0  0  0  0
    0.0518   -5.8422   -0.4686 F   0  0  0  0  0  0  0  0  0  0  0  0
    0.6061   -3.7216   -1.3379 C   0  0  0  0  0  0  0  0  0  0  0  0
   -0.2444   -3.9225   -2.3465 F   0  0  0  0  0  0  0  0  0  0  0  0
    1.3331   -2.5399   -1.2567 C   0  0  0  0  0  0  0  0  0  0  0  0
    0.6309    0.8139    1.0374 H   0  0  0  0  0  0  0  0  0  0  0  0
    0.6451   -0.8830    0.9099 H   0  0  0  0  0  0  0  0  0  0  0  0
    2.5916    2.1457    0.6753 H   0  0  0  0  0  0  0  0  0  0  0  0
    4.7808    3.3716    0.3146 H   0  0  0  0  0  0  0  0  0  0  0  0
    7.1734    3.3302   -0.3210 H   0  0  0  0  0  0  0  0  0  0  0  0
    8.2642    1.1933   -1.0218 H   0  0  0  0  0  0  0  0  0  0  0  0
    6.9052   -0.9211   -1.0734 H   0  0  0  0  0  0  0  0  0  0  0  0
    3.0736   -3.1874    1.6061 H   0  0  0  0  0  0  0  0  0  0  0  0
    1.7482   -5.3223    1.4343 H   0  0  0  0  0  0  0  0  0  0  0  0
    1.2067   -1.7819   -2.0307 H   0  0  0  0  0  0  0  0  0  0  0  0
  1  2  1  0
  1 21  1  0
  1 22  1  0
  2  3  2  0
  2 12  1  0
  3  4  1  0
  3 23  1  0
  4  5  2  0
  4  9  1  0
  5  6  1  0
  5 24  1  0
  6  7  2  0
  6 25  1  0
  7  8  1  0
  7 26  1  0
  8  9  2  0
  8 27  1  0
  9 10  1  0
 10 11  2  0
 10 12  1  0
 12 13  1  0
 13 14  2  0
 13 20  1  0
 14 15  1  0
 14 28  1  0
 15 16  2  0
 15 29  1  0
 16 17  1  0
 16 18  1  0
 18 19  1  0
 18 20  2  0
 20 30  1  0
M  END

