
     RDKit          3D

 51 53  0  0  0  0  0  0  0  0999 V2000
    3.4464   -0.1419    1.1633 C   0  0  0  0  0  0  0  0  0  0  0  0
    2.8311   -0.4723   -0.1982 C   0  0  1  0  0  0  0  0  0  0  0  0
    1.4139   -0.4153   -0.1385 O   0  0  0  0  0  0  0  0  0  0  0  0
    3.3447    0.4144   -1.3446 C   0  0  0  0  0  0  0  0  0  0  0  0
    4.8431    0.2957   -1.6999 C   0  0  1  0  0  0  0  0  0  0  0  0
    5.1984   -1.0420   -2.3794 C   0  0  0  0  0  0  0  0  0  0  0  0
    4.6918   -1.1244   -3.6905 O   0  0  0  0  0  0  0  0  0  0  0  0
    5.2455   -0.1153   -4.5175 C   0  0  0  0  0  0  0  0  0  0  0  0
    4.9109    1.2721   -3.9873 C   0  0  0  0  0  0  0  0  0  0  0  0
    5.2885    1.3815   -2.5797 N   0  0  0  0  0  0  0  0  0  0  0  0
    5.8728    2.5661   -2.1533 C   0  0  0  0  0  0  0  0  0  0  0  0
    6.2570    3.4221   -2.9411 O   0  0  0  0  0  0  0  0  0  0  0  0
    6.0274    2.7206   -0.7890 N   0  0  0  0  0  0  0  0  0  0  0  0
    6.5837    3.9591   -0.2391 C   0  0  1  0  0  0  0  0  0  0  0  0
    5.5355    5.0731   -0.1611 C   0  0  0  0  0  0  0  0  0  0  0  0
    7.2962    3.6353    1.0701 C   0  0  0  0  0  0  0  0  0  0  0  0
    8.3779    2.7039    1.0351 C   0  0  0  0  0  0  0  0  0  0  0  0
    9.0666    2.3645    2.1763 C   0  0  0  0  0  0  0  0  0  0  0  0
    8.7213    2.9305    3.4374 C   0  0  0  0  0  0  0  0  0  0  0  0
    9.4080    2.6041    4.6390 C   0  0  0  0  0  0  0  0  0  0  0  0
    9.0418    3.1768    5.8401 C   0  0  0  0  0  0  0  0  0  0  0  0
    7.9705    4.1036    5.8914 C   0  0  0  0  0  0  0  0  0  0  0  0
    7.2858    4.4406    4.7415 C   0  0  0  0  0  0  0  0  0  0  0  0
    7.6381    3.8678    3.4877 C   0  0  0  0  0  0  0  0  0  0  0  0
    6.9488    4.1965    2.2838 C   0  0  0  0  0  0  0  0  0  0  0  0
    2.9883   -0.7690    1.9426 H   0  0  0  0  0  0  0  0  0  0  0  0
    3.2639    0.9150    1.4296 H   0  0  0  0  0  0  0  0  0  0  0  0
    4.5348   -0.3133    1.1887 H   0  0  0  0  0  0  0  0  0  0  0  0
    3.0497   -1.5277   -0.4344 H   0  0  0  0  0  0  0  0  0  0  0  0
    1.1603    0.5002    0.0447 H   0  0  0  0  0  0  0  0  0  0  0  0
    3.1328    1.4694   -1.0878 H   0  0  0  0  0  0  0  0  0  0  0  0
    2.7438    0.1774   -2.2363 H   0  0  0  0  0  0  0  0  0  0  0  0
    5.4511    0.3366   -0.7840 H   0  0  0  0  0  0  0  0  0  0  0  0
    4.7768   -1.8886   -1.8174 H   0  0  0  0  0  0  0  0  0  0  0  0
    6.3025   -1.1490   -2.3864 H   0  0  0  0  0  0  0  0  0  0  0  0
    4.8243   -0.2568   -5.5242 H   0  0  0  0  0  0  0  0  0  0  0  0
    6.3463   -0.2390   -4.5776 H   0  0  0  0  0  0  0  0  0  0  0  0
    3.8274    1.4607   -4.1141 H   0  0  0  0  0  0  0  0  0  0  0  0
    5.4548    2.0501   -4.5379 H   0  0  0  0  0  0  0  0  0  0  0  0
    5.4890    2.1505   -0.1496 H   0  0  0  0  0  0  0  0  0  0  0  0
    7.3442    4.2780   -0.9695 H   0  0  0  0  0  0  0  0  0  0  0  0
    4.7003    4.8030    0.5059 H   0  0  0  0  0  0  0  0  0  0  0  0
    5.1331    5.2529   -1.1681 H   0  0  0  0  0  0  0  0  0  0  0  0
    5.9767    6.0140    0.2027 H   0  0  0  0  0  0  0  0  0  0  0  0
    8.6552    2.2580    0.0765 H   0  0  0  0  0  0  0  0  0  0  0  0
    9.8967    1.6539    2.1273 H   0  0  0  0  0  0  0  0  0  0  0  0
   10.2348    1.8895    4.5961 H   0  0  0  0  0  0  0  0  0  0  0  0
    9.5777    2.9181    6.7569 H   0  0  0  0  0  0  0  0  0  0  0  0
    7.6890    4.5523    6.8476 H   0  0  0  0  0  0  0  0  0  0  0  0
    6.4601    5.1568    4.7804 H   0  0  0  0  0  0  0  0  0  0  0  0
    6.1306    4.9165    2.3482 H   0  0  0  0  0  0  0  0  0  0  0  0
  1  2  1  0
  1 26  1  0
  1 27  1  0
  1 28  1  0
  2  3  1  0
  2  4  1  0
  2 29  1  6
  3 30  1  0
  4  5  1  0
  4 31  1  0
  4 32  1  0
  5  6  1  0
  5 10  1  0
  5 33  1  1
  6  7  1  0
  6 34  1  0
  6 35  1  0
  7  8  1  0
  8  9  1  0
  8 36  1  0
  8 37  1  0
  9 10  1  0
  9 38  1  0
  9 39  1  0
 10 11  1  0
 11 12  2  0
 11 13  1  0
 13 14  1  0
 13 40  1  0
 14 15  1  0
 14 16  1  0
 14 41  1  6
 15 42  1  0
 15 43  1  0
 15 44  1  0
 16 17  2  0
 16 25  1  0
 17 18  1  0
 17 45  1  0
 18 19  2  0
 18 46  1  0
 19 20  1  0
 19 24  1  0
 20 21  2  0
 20 47  1  0
 21 22  1  0
 21 48  1  0
 22 23  2  0
 22 49  1  0
 23 24  1  0
 23 50  1  0
 24 25  2  0
 25 51  1  0
M  END

