
     RDKit          3D

 41 43  0  0  0  0  0  0  0  0999 V2000
    3.0209   -0.2259    1.8635 C   0  0  0  0  0  0  0  0  0  0  0  0
    2.4630   -0.7341    0.5448 C   0  0  0  0  0  0  0  0  0  0  0  0
    3.1356   -1.9321    0.1074 O   0  0  0  0  0  0  0  0  0  0  0  0
    4.2684   -1.7750   -0.5949 C   0  0  0  0  0  0  0  0  0  0  0  0
    4.7542   -0.7057   -0.8849 O   0  0  0  0  0  0  0  0  0  0  0  0
    4.8723   -3.0771   -0.9897 C   0  0  0  0  0  0  0  0  0  0  0  0
    6.0353   -3.1571   -1.7138 C   0  0  0  0  0  0  0  0  0  0  0  0
    6.4606   -4.8098   -2.0047 S   0  0  0  0  0  0  0  0  0  0  0  0
    5.0199   -5.2701   -1.1158 C   0  0  0  0  0  0  0  0  0  0  0  0
    4.6996   -6.6023   -0.9384 N   0  0  0  0  0  0  0  0  0  0  0  0
    5.5071   -7.5647   -1.4552 N   0  0  0  0  0  0  0  0  0  0  0  0
    4.9374   -8.7173   -1.1212 C   0  0  0  0  0  0  0  0  0  0  0  0
    5.5428   -9.9996   -1.5180 C   0  0  0  0  0  0  0  0  0  0  0  0
    4.9442  -11.2231   -1.1723 C   0  0  0  0  0  0  0  0  0  0  0  0
    5.5184  -12.4383   -1.5488 C   0  0  0  0  0  0  0  0  0  0  0  0
    6.7078  -12.4355   -2.2814 C   0  0  0  0  0  0  0  0  0  0  0  0
    7.5002  -14.0902   -2.8009 Br  0  0  0  0  0  0  0  0  0  0  0  0
    7.3239  -11.2310   -2.6382 C   0  0  0  0  0  0  0  0  0  0  0  0
    6.7406  -10.0248   -2.2563 C   0  0  0  0  0  0  0  0  0  0  0  0
    3.7352   -8.5126   -0.3717 C   0  0  0  0  0  0  0  0  0  0  0  0
    3.6076   -7.1423   -0.2696 C   0  0  0  0  0  0  0  0  0  0  0  0
    2.6758   -6.3145    0.3223 N   0  0  0  0  0  0  0  0  0  0  0  0
    1.5584   -6.7591    1.0075 C   0  0  0  0  0  0  0  0  0  0  0  0
    0.6882   -5.6494    1.5686 C   0  0  0  0  0  0  0  0  0  0  0  0
    1.2972   -7.9369    1.1485 O   0  0  0  0  0  0  0  0  0  0  0  0
    4.3055   -4.2852   -0.6560 N   0  0  0  0  0  0  0  0  0  0  0  0
    2.4335    0.6406    2.2072 H   0  0  0  0  0  0  0  0  0  0  0  0
    4.0666    0.0950    1.7484 H   0  0  0  0  0  0  0  0  0  0  0  0
    2.9712   -1.0049    2.6402 H   0  0  0  0  0  0  0  0  0  0  0  0
    2.5513    0.0303   -0.2410 H   0  0  0  0  0  0  0  0  0  0  0  0
    1.4084   -1.0293    0.6431 H   0  0  0  0  0  0  0  0  0  0  0  0
    6.6383   -2.3271   -2.0760 H   0  0  0  0  0  0  0  0  0  0  0  0
    4.0146  -11.2354   -0.6001 H   0  0  0  0  0  0  0  0  0  0  0  0
    5.0438  -13.3816   -1.2742 H   0  0  0  0  0  0  0  0  0  0  0  0
    8.2529  -11.2391   -3.2107 H   0  0  0  0  0  0  0  0  0  0  0  0
    7.2125   -9.0795   -2.5292 H   0  0  0  0  0  0  0  0  0  0  0  0
    3.0446   -9.2354    0.0448 H   0  0  0  0  0  0  0  0  0  0  0  0
    2.8661   -5.3128    0.2217 H   0  0  0  0  0  0  0  0  0  0  0  0
    1.0585   -4.6395    1.3414 H   0  0  0  0  0  0  0  0  0  0  0  0
    0.6195   -5.7750    2.6600 H   0  0  0  0  0  0  0  0  0  0  0  0
   -0.3298   -5.7642    1.1663 H   0  0  0  0  0  0  0  0  0  0  0  0
  1  2  1  0
  1 27  1  0
  1 28  1  0
  1 29  1  0
  2  3  1  0
  2 30  1  0
  2 31  1  0
  3  4  1  0
  4  5  2  0
  4  6  1  0
  6  7  2  0
  6 26  1  0
  7  8  1  0
  7 32  1  0
  8  9  1  0
  9 10  1  0
  9 26  2  0
 10 11  1  0
 10 21  1  0
 11 12  2  0
 12 13  1  0
 12 20  1  0
 13 14  2  0
 13 19  1  0
 14 15  1  0
 14 33  1  0
 15 16  2  0
 15 34  1  0
 16 17  1  0
 16 18  1  0
 18 19  2  0
 18 35  1  0
 19 36  1  0
 20 21  2  0
 20 37  1  0
 21 22  1  0
 22 23  1  0
 22 38  1  0
 23 24  1  0
 23 25  2  0
 24 39  1  0
 24 40  1  0
 24 41  1  0
M  END

