
     RDKit          3D

 39 41  0  0  0  0  0  0  0  0999 V2000
    2.6700    1.4600    0.7415 C   0  0  0  0  0  0  0  0  0  0  0  0
    2.3719    0.0802    0.1460 C   0  0  1  0  0  0  0  0  0  0  0  0
    2.9250   -0.0844   -1.3051 C   0  0  1  0  0  0  0  0  0  0  0  0
    2.0187    1.1758   -2.5890 Br  0  0  0  0  0  0  0  0  0  0  0  0
    4.4237    0.0110   -1.4872 C   0  0  0  0  0  0  0  0  0  0  0  0
    5.1294    1.2283   -1.4726 C   0  0  0  0  0  0  0  0  0  0  0  0
    6.5164    1.2563   -1.6137 C   0  0  0  0  0  0  0  0  0  0  0  0
    7.2502    0.0735   -1.7744 C   0  0  0  0  0  0  0  0  0  0  0  0
    6.5512   -1.1468   -1.7976 C   0  0  0  0  0  0  0  0  0  0  0  0
    5.1568   -1.1678   -1.6660 C   0  0  0  0  0  0  0  0  0  0  0  0
    7.2675   -2.4536   -1.9909 C   0  0  0  0  0  0  0  0  0  0  0  0
    6.6789   -3.5054   -2.1879 O   0  0  0  0  0  0  0  0  0  0  0  0
    8.6359   -2.3785   -1.9395 N   0  0  0  0  0  0  0  0  0  0  0  0
    9.3646   -1.2230   -1.4379 C   0  0  0  0  0  0  0  0  0  0  0  0
    8.7466    0.0634   -1.9825 C   0  0  0  0  0  0  0  0  0  0  0  0
    2.9484   -1.0661    1.0289 C   0  0  0  0  0  0  0  0  0  0  0  0
    2.1243   -2.3295    0.6980 C   0  0  0  0  0  0  0  0  0  0  0  0
    0.7765   -1.8096    0.1208 C   0  0  0  0  0  0  0  0  0  0  0  0
    0.8613   -0.2712    0.1926 C   0  0  0  0  0  0  0  0  0  0  0  0
    3.7509    1.6327    0.8555 H   0  0  0  0  0  0  0  0  0  0  0  0
    2.2168    1.5403    1.7422 H   0  0  0  0  0  0  0  0  0  0  0  0
    2.2556    2.2665    0.1177 H   0  0  0  0  0  0  0  0  0  0  0  0
    2.6004   -1.0565   -1.6914 H   0  0  0  0  0  0  0  0  0  0  0  0
    4.5823    2.1677   -1.3801 H   0  0  0  0  0  0  0  0  0  0  0  0
    7.0380    2.2177   -1.6076 H   0  0  0  0  0  0  0  0  0  0  0  0
    4.6642   -2.1419   -1.7129 H   0  0  0  0  0  0  0  0  0  0  0  0
    9.1025   -3.2795   -1.9750 H   0  0  0  0  0  0  0  0  0  0  0  0
   10.4155   -1.3064   -1.7542 H   0  0  0  0  0  0  0  0  0  0  0  0
    9.3603   -1.1974   -0.3294 H   0  0  0  0  0  0  0  0  0  0  0  0
    8.9615    0.1366   -3.0649 H   0  0  0  0  0  0  0  0  0  0  0  0
    9.2141    0.9388   -1.5051 H   0  0  0  0  0  0  0  0  0  0  0  0
    2.7854   -0.7767    2.0804 H   0  0  0  0  0  0  0  0  0  0  0  0
    4.0326   -1.2064    0.9065 H   0  0  0  0  0  0  0  0  0  0  0  0
    1.9804   -2.9544    1.5927 H   0  0  0  0  0  0  0  0  0  0  0  0
    2.6472   -2.9650   -0.0343 H   0  0  0  0  0  0  0  0  0  0  0  0
   -0.0928   -2.1906    0.6785 H   0  0  0  0  0  0  0  0  0  0  0  0
    0.6402   -2.1464   -0.9196 H   0  0  0  0  0  0  0  0  0  0  0  0
    0.4683    0.0810    1.1610 H   0  0  0  0  0  0  0  0  0  0  0  0
    0.2822    0.2355   -0.5925 H   0  0  0  0  0  0  0  0  0  0  0  0
  2  1  1  1
  1 20  1  0
  1 21  1  0
  1 22  1  0
  2  3  1  0
  2 16  1  0
  2 19  1  0
  3  4  1  0
  3  5  1  0
  3 23  1  6
  5  6  2  0
  5 10  1  0
  6  7  1  0
  6 24  1  0
  7  8  2  0
  7 25  1  0
  8  9  1  0
  8 15  1  0
  9 10  2  0
  9 11  1  0
 10 26  1  0
 11 12  2  0
 11 13  1  0
 13 14  1  0
 13 27  1  0
 14 15  1  0
 14 28  1  0
 14 29  1  0
 15 30  1  0
 15 31  1  0
 16 17  1  0
 16 32  1  0
 16 33  1  0
 17 18  1  0
 17 34  1  0
 17 35  1  0
 18 19  1  0
 18 36  1  0
 18 37  1  0
 19 38  1  0
 19 39  1  0
M  END

