
     RDKit          3D

 50 52  0  0  0  0  0  0  0  0999 V2000
    1.3116    0.1610    0.2018 C   0  0  0  0  0  0  0  0  0  0  0  0
    2.8062   -0.1019   -0.0300 C   0  0  1  0  0  0  0  0  0  0  0  0
    3.0624   -1.5309   -0.5428 C   0  0  0  0  0  0  0  0  0  0  0  0
    4.5503   -1.8880   -0.6894 C   0  0  0  0  0  0  0  0  0  0  0  0
    4.7813   -3.2774   -1.2454 C   0  0  0  0  0  0  0  0  0  0  0  0
    4.6693   -3.5146   -2.6238 C   0  0  0  0  0  0  0  0  0  0  0  0
    4.8386   -4.7964   -3.1821 C   0  0  0  0  0  0  0  0  0  0  0  0
    5.1189   -5.8303   -2.3068 C   0  0  0  0  0  0  0  0  0  0  0  0
    5.2325   -5.6104   -0.9331 C   0  0  0  0  0  0  0  0  0  0  0  0
    5.0714   -4.3545   -0.3754 C   0  0  0  0  0  0  0  0  0  0  0  0
    5.5486   -6.7902   -0.3118 O   0  0  0  0  0  0  0  0  0  0  0  0
    5.4288   -7.7993   -1.3098 C   0  0  0  0  0  0  0  0  0  0  0  0
    5.3637   -7.1526   -2.5755 O   0  0  0  0  0  0  0  0  0  0  0  0
    3.4229    0.9240   -0.8825 N   0  0  0  0  0  0  0  0  0  0  0  0
    3.0593    1.1432   -2.1946 C   0  0  0  0  0  0  0  0  0  0  0  0
    2.2723    0.4226   -2.8010 O   0  0  0  0  0  0  0  0  0  0  0  0
    3.6558    2.2284   -2.8018 N   0  0  0  0  0  0  0  0  0  0  0  0
    3.4217    2.4964   -4.2221 C   0  0  0  0  0  0  0  0  0  0  0  0
    4.6056    3.3870   -4.6102 C   0  0  0  0  0  0  0  0  0  0  0  0
    4.9148    4.1642   -3.3160 C   0  0  2  0  0  0  0  0  0  0  0  0
    6.2954    4.8172   -3.2361 C   0  0  0  0  0  0  0  0  0  0  0  0
    6.5201    5.9404   -4.2497 C   0  0  0  0  0  0  0  0  0  0  0  0
    7.8111    6.5034   -4.1653 O   0  0  0  0  0  0  0  0  0  0  0  0
    4.6667    3.1040   -2.2246 C   0  0  0  0  0  0  0  0  0  0  0  0
    0.8932   -0.5737    0.9080 H   0  0  0  0  0  0  0  0  0  0  0  0
    0.7618    0.0886   -0.7474 H   0  0  0  0  0  0  0  0  0  0  0  0
    1.1528    1.1675    0.6210 H   0  0  0  0  0  0  0  0  0  0  0  0
    3.3262   -0.0003    0.9393 H   0  0  0  0  0  0  0  0  0  0  0  0
    2.5559   -1.6507   -1.5116 H   0  0  0  0  0  0  0  0  0  0  0  0
    2.5862   -2.2364    0.1597 H   0  0  0  0  0  0  0  0  0  0  0  0
    5.0500   -1.7963    0.2911 H   0  0  0  0  0  0  0  0  0  0  0  0
    5.0265   -1.1457   -1.3504 H   0  0  0  0  0  0  0  0  0  0  0  0
    4.4381   -2.6766   -3.2869 H   0  0  0  0  0  0  0  0  0  0  0  0
    4.7572   -4.9702   -4.2563 H   0  0  0  0  0  0  0  0  0  0  0  0
    5.1725   -4.2049    0.7015 H   0  0  0  0  0  0  0  0  0  0  0  0
    4.5008   -8.3829   -1.1395 H   0  0  0  0  0  0  0  0  0  0  0  0
    6.3079   -8.4631   -1.2750 H   0  0  0  0  0  0  0  0  0  0  0  0
    4.0061    1.6075   -0.4208 H   0  0  0  0  0  0  0  0  0  0  0  0
    2.4570    3.0164   -4.3730 H   0  0  0  0  0  0  0  0  0  0  0  0
    3.3675    1.5545   -4.7864 H   0  0  0  0  0  0  0  0  0  0  0  0
    4.3771    4.0394   -5.4660 H   0  0  0  0  0  0  0  0  0  0  0  0
    5.4769    2.7669   -4.8853 H   0  0  0  0  0  0  0  0  0  0  0  0
    4.1443    4.9493   -3.1994 H   0  0  0  0  0  0  0  0  0  0  0  0
    7.0829    4.0559   -3.3779 H   0  0  0  0  0  0  0  0  0  0  0  0
    6.4424    5.2301   -2.2193 H   0  0  0  0  0  0  0  0  0  0  0  0
    5.7271    6.7098   -4.1349 H   0  0  0  0  0  0  0  0  0  0  0  0
    6.4287    5.5480   -5.2754 H   0  0  0  0  0  0  0  0  0  0  0  0
    7.9103    6.9016   -3.2905 H   0  0  0  0  0  0  0  0  0  0  0  0
    4.3222    3.5727   -1.2838 H   0  0  0  0  0  0  0  0  0  0  0  0
    5.6022    2.5529   -1.9960 H   0  0  0  0  0  0  0  0  0  0  0  0
  1  2  1  0
  1 25  1  0
  1 26  1  0
  1 27  1  0
  2  3  1  0
  2 14  1  0
  2 28  1  1
  3  4  1  0
  3 29  1  0
  3 30  1  0
  4  5  1  0
  4 31  1  0
  4 32  1  0
  5  6  2  0
  5 10  1  0
  6  7  1  0
  6 33  1  0
  7  8  2  0
  7 34  1  0
  8  9  1  0
  8 13  1  0
  9 10  2  0
  9 11  1  0
 10 35  1  0
 11 12  1  0
 12 13  1  0
 12 36  1  0
 12 37  1  0
 14 15  1  0
 14 38  1  0
 15 16  2  0
 15 17  1  0
 17 18  1  0
 17 24  1  0
 18 19  1  0
 18 39  1  0
 18 40  1  0
 19 20  1  0
 19 41  1  0
 19 42  1  0
 20 21  1  0
 20 24  1  0
 20 43  1  1
 21 22  1  0
 21 44  1  0
 21 45  1  0
 22 23  1  0
 22 46  1  0
 22 47  1  0
 23 48  1  0
 24 49  1  0
 24 50  1  0
M  END

