
     RDKit          3D

 45 46  0  0  0  0  0  0  0  0999 V2000
    9.4207   -0.5380   -4.5574 C   0  0  0  0  0  0  0  0  0  0  0  0
    9.2380   -1.9321   -4.5923 O   0  0  0  0  0  0  0  0  0  0  0  0
    8.0052   -2.4447   -4.3190 C   0  0  0  0  0  0  0  0  0  0  0  0
    7.8842   -3.8415   -4.3606 C   0  0  0  0  0  0  0  0  0  0  0  0
    6.6677   -4.4672   -4.0970 C   0  0  0  0  0  0  0  0  0  0  0  0
    5.5219   -3.7086   -3.7805 C   0  0  0  0  0  0  0  0  0  0  0  0
    4.2677   -4.3022   -3.5489 N   0  0  0  0  0  0  0  0  0  0  0  0
    4.1459   -5.6984   -3.1542 C   0  0  1  0  0  0  0  0  0  0  0  0
    4.9960   -6.0101   -2.5190 H   0  0  0  0  0  0  0  0  0  0  0  0
    2.8537   -5.9228   -2.3612 C   0  0  0  0  0  0  0  0  0  0  0  0
    4.1763   -6.6806   -4.3481 C   0  0  0  0  0  0  0  0  0  0  0  0
    4.4324   -7.8527   -4.1901 O   0  0  0  0  0  0  0  0  0  0  0  0
    3.8286   -6.0932   -5.5477 N   0  0  0  0  0  0  0  0  0  0  0  0
    3.8681   -6.7954   -6.7010 N   0  0  0  0  0  0  0  0  0  0  0  0
    3.5823   -6.2201   -7.8139 C   0  0  0  0  0  0  0  0  0  0  0  0
    3.1175   -4.8366   -8.0760 C   0  0  0  0  0  0  0  0  0  0  0  0
    2.1239   -4.1997   -7.3062 C   0  0  0  0  0  0  0  0  0  0  0  0
    1.6480   -2.9317   -7.6448 C   0  0  0  0  0  0  0  0  0  0  0  0
    2.1533   -2.2744   -8.7708 C   0  0  0  0  0  0  0  0  0  0  0  0
    3.1314   -2.8895   -9.5551 C   0  0  0  0  0  0  0  0  0  0  0  0
    3.6102   -4.1591   -9.2159 C   0  0  0  0  0  0  0  0  0  0  0  0
    4.5308   -4.7631  -10.0294 O   0  0  0  0  0  0  0  0  0  0  0  0
    5.8897   -4.6756   -9.6222 C   0  0  0  0  0  0  0  0  0  0  0  0
    5.6526   -2.3109   -3.7404 C   0  0  0  0  0  0  0  0  0  0  0  0
    6.8720   -1.6807   -4.0038 C   0  0  0  0  0  0  0  0  0  0  0  0
   10.4750   -0.3513   -4.8033 H   0  0  0  0  0  0  0  0  0  0  0  0
    9.2096   -0.1166   -3.5568 H   0  0  0  0  0  0  0  0  0  0  0  0
    8.7856   -0.0172   -5.2983 H   0  0  0  0  0  0  0  0  0  0  0  0
    8.7703   -4.4317   -4.6035 H   0  0  0  0  0  0  0  0  0  0  0  0
    6.6201   -5.5562   -4.1436 H   0  0  0  0  0  0  0  0  0  0  0  0
    3.6208   -3.6854   -3.0693 H   0  0  0  0  0  0  0  0  0  0  0  0
    2.8635   -5.3396   -1.4263 H   0  0  0  0  0  0  0  0  0  0  0  0
    2.7564   -6.9869   -2.1063 H   0  0  0  0  0  0  0  0  0  0  0  0
    1.9717   -5.6273   -2.9529 H   0  0  0  0  0  0  0  0  0  0  0  0
    3.7090   -5.0768   -5.5332 H   0  0  0  0  0  0  0  0  0  0  0  0
    3.7191   -6.8519   -8.6996 H   0  0  0  0  0  0  0  0  0  0  0  0
    1.6904   -4.7242   -6.4516 H   0  0  0  0  0  0  0  0  0  0  0  0
    0.8695   -2.4634   -7.0378 H   0  0  0  0  0  0  0  0  0  0  0  0
    1.7803   -1.2841   -9.0438 H   0  0  0  0  0  0  0  0  0  0  0  0
    3.5333   -2.4048  -10.4476 H   0  0  0  0  0  0  0  0  0  0  0  0
    6.4836   -5.2158  -10.3723 H   0  0  0  0  0  0  0  0  0  0  0  0
    6.0525   -5.1393   -8.6334 H   0  0  0  0  0  0  0  0  0  0  0  0
    6.2278   -3.6244   -9.5817 H   0  0  0  0  0  0  0  0  0  0  0  0
    4.7800   -1.6964   -3.4984 H   0  0  0  0  0  0  0  0  0  0  0  0
    6.9216   -0.5925   -3.9563 H   0  0  0  0  0  0  0  0  0  0  0  0
  1  2  1  0
  1 26  1  0
  1 27  1  0
  1 28  1  0
  2  3  1  0
  3  4  2  0
  3 25  1  0
  4  5  1  0
  4 29  1  0
  5  6  2  0
  5 30  1  0
  6  7  1  0
  6 24  1  0
  7  8  1  0
  7 31  1  0
  8  9  1  1
  8 10  1  0
  8 11  1  0
 10 32  1  0
 10 33  1  0
 10 34  1  0
 11 12  2  0
 11 13  1  0
 13 14  1  0
 13 35  1  0
 14 15  2  0
 15 16  1  0
 15 36  1  0
 16 17  2  0
 16 21  1  0
 17 18  1  0
 17 37  1  0
 18 19  2  0
 18 38  1  0
 19 20  1  0
 19 39  1  0
 20 21  2  0
 20 40  1  0
 21 22  1  0
 22 23  1  0
 23 41  1  0
 23 42  1  0
 23 43  1  0
 24 25  2  0
 24 44  1  0
 25 45  1  0
M  END

