
     RDKit          3D

 51 53  0  0  0  0  0  0  0  0999 V2000
   11.9376   -1.9404   -2.9991 O   0  0  0  0  0  0  0  0  0  0  0  0
   11.4896   -2.9111   -3.5502 C   0  0  0  0  0  0  0  0  0  0  0  0
   12.3213   -3.8299   -4.0946 O   0  0  0  0  0  0  0  0  0  0  0  0
   10.0160   -3.1824   -3.6708 C   0  0  0  0  0  0  0  0  0  0  0  0
    9.4673   -4.0922   -4.5896 C   0  0  0  0  0  0  0  0  0  0  0  0
    8.0881   -4.2894   -4.6596 C   0  0  0  0  0  0  0  0  0  0  0  0
    7.2193   -3.5809   -3.8161 C   0  0  0  0  0  0  0  0  0  0  0  0
    5.7155   -3.7529   -3.9112 C   0  0  0  0  0  0  0  0  0  0  0  0
    5.2991   -5.1144   -4.1809 N   0  0  0  0  0  0  0  0  0  0  0  0
    4.3243   -5.3762   -5.1309 C   0  0  0  0  0  0  0  0  0  0  0  0
    3.8448   -4.4886   -5.8223 O   0  0  0  0  0  0  0  0  0  0  0  0
    3.9468   -6.7024   -5.2704 N   0  0  0  0  0  0  0  0  0  0  0  0
    2.7574   -7.0035   -6.0608 C   0  0  0  0  0  0  0  0  0  0  0  0
    3.0004   -8.2371   -6.9187 C   0  0  0  0  0  0  0  0  0  0  0  0
    3.4316   -9.3281   -6.1248 O   0  0  0  0  0  0  0  0  0  0  0  0
    4.6438   -9.0578   -5.4433 C   0  0  2  0  0  0  0  0  0  0  0  0
    5.0470  -10.3098   -4.6726 C   0  0  0  0  0  0  0  0  0  0  0  0
    5.2819  -11.5319   -5.5775 C   0  0  0  0  0  0  0  0  0  0  0  0
    5.6362  -12.7830   -4.8041 C   0  0  0  0  0  0  0  0  0  0  0  0
    4.6317  -13.6363   -4.3186 C   0  0  0  0  0  0  0  0  0  0  0  0
    4.9517  -14.7735   -3.5720 C   0  0  0  0  0  0  0  0  0  0  0  0
    6.2879  -15.0802   -3.2967 C   0  0  0  0  0  0  0  0  0  0  0  0
    7.2989  -14.2418   -3.7753 C   0  0  0  0  0  0  0  0  0  0  0  0
    6.9734  -13.1051   -4.5209 C   0  0  0  0  0  0  0  0  0  0  0  0
    4.4879   -7.8304   -4.5275 C   0  0  0  0  0  0  0  0  0  0  0  0
    7.7715   -2.6669   -2.9043 C   0  0  0  0  0  0  0  0  0  0  0  0
    9.1478   -2.4601   -2.8385 C   0  0  0  0  0  0  0  0  0  0  0  0
   11.8246   -4.6078   -4.3830 H   0  0  0  0  0  0  0  0  0  0  0  0
   10.1070   -4.6385   -5.2902 H   0  0  0  0  0  0  0  0  0  0  0  0
    7.6738   -4.9974   -5.3807 H   0  0  0  0  0  0  0  0  0  0  0  0
    5.3148   -3.1460   -4.7390 H   0  0  0  0  0  0  0  0  0  0  0  0
    5.2467   -3.3645   -2.9883 H   0  0  0  0  0  0  0  0  0  0  0  0
    5.4799   -5.7978   -3.4575 H   0  0  0  0  0  0  0  0  0  0  0  0
    2.5284   -6.1247   -6.6764 H   0  0  0  0  0  0  0  0  0  0  0  0
    1.8963   -7.1943   -5.3897 H   0  0  0  0  0  0  0  0  0  0  0  0
    3.7561   -8.0098   -7.6977 H   0  0  0  0  0  0  0  0  0  0  0  0
    2.0708   -8.5513   -7.4168 H   0  0  0  0  0  0  0  0  0  0  0  0
    5.4284   -8.8119   -6.1923 H   0  0  0  0  0  0  0  0  0  0  0  0
    4.2548  -10.5420   -3.9403 H   0  0  0  0  0  0  0  0  0  0  0  0
    5.9608  -10.0931   -4.0925 H   0  0  0  0  0  0  0  0  0  0  0  0
    6.0879  -11.2985   -6.2943 H   0  0  0  0  0  0  0  0  0  0  0  0
    4.3703  -11.6987   -6.1708 H   0  0  0  0  0  0  0  0  0  0  0  0
    3.5837  -13.4080   -4.5352 H   0  0  0  0  0  0  0  0  0  0  0  0
    4.1540  -15.4264   -3.2078 H   0  0  0  0  0  0  0  0  0  0  0  0
    6.5401  -15.9713   -2.7162 H   0  0  0  0  0  0  0  0  0  0  0  0
    8.3472  -14.4762   -3.5713 H   0  0  0  0  0  0  0  0  0  0  0  0
    7.7727  -12.4590   -4.8971 H   0  0  0  0  0  0  0  0  0  0  0  0
    5.4822   -7.5840   -4.1310 H   0  0  0  0  0  0  0  0  0  0  0  0
    3.8307   -8.0996   -3.6753 H   0  0  0  0  0  0  0  0  0  0  0  0
    7.1101   -2.1069   -2.2368 H   0  0  0  0  0  0  0  0  0  0  0  0
    9.5789   -1.7424   -2.1381 H   0  0  0  0  0  0  0  0  0  0  0  0
  1  2  2  0
  2  3  1  0
  2  4  1  0
  3 28  1  0
  4  5  2  0
  4 27  1  0
  5  6  1  0
  5 29  1  0
  6  7  2  0
  6 30  1  0
  7  8  1  0
  7 26  1  0
  8  9  1  0
  8 31  1  0
  8 32  1  0
  9 10  1  0
  9 33  1  0
 10 11  2  0
 10 12  1  0
 12 13  1  0
 12 25  1  0
 13 14  1  0
 13 34  1  0
 13 35  1  0
 14 15  1  0
 14 36  1  0
 14 37  1  0
 15 16  1  0
 16 17  1  0
 16 25  1  0
 16 38  1  6
 17 18  1  0
 17 39  1  0
 17 40  1  0
 18 19  1  0
 18 41  1  0
 18 42  1  0
 19 20  2  0
 19 24  1  0
 20 21  1  0
 20 43  1  0
 21 22  2  0
 21 44  1  0
 22 23  1  0
 22 45  1  0
 23 24  2  0
 23 46  1  0
 24 47  1  0
 25 48  1  0
 25 49  1  0
 26 27  2  0
 26 50  1  0
 27 51  1  0
M  END

