
     RDKit          3D

 32 31  0  0  0  0  0  0  0  0999 V2000
    1.1833    0.4741   -0.4804 C   0  0  0  0  0  0  0  0  0  0  0  0
    2.6826    0.2726   -0.2502 C   0  0  0  0  0  0  0  0  0  0  0  0
    3.2149    1.0955    0.9246 C   0  0  0  0  0  0  0  0  0  0  0  0
    5.0121    0.8039    1.1406 S   0  0  0  0  0  0  0  0  0  0  0  0
    5.4140    2.0105    2.4860 C   0  0  1  0  0  0  0  0  0  0  0  0
    4.8581    1.5657    3.8406 C   0  0  0  0  0  0  0  0  0  0  0  0
    6.9355    2.2033    2.5516 C   0  0  0  0  0  0  0  0  0  0  0  0
    7.6468    2.7644    1.3081 C   0  0  1  0  0  0  0  0  0  0  0  0
    7.0695    4.1122    0.8662 C   0  0  0  0  0  0  0  0  0  0  0  0
    9.0692    2.8949    1.6362 N   0  0  0  0  0  0  0  0  0  0  0  0
    9.9643    3.0685    0.5063 C   0  0  0  0  0  0  0  0  0  0  0  0
    0.8275   -0.1294   -1.3305 H   0  0  0  0  0  0  0  0  0  0  0  0
    0.9475    1.5289   -0.6994 H   0  0  0  0  0  0  0  0  0  0  0  0
    0.5961    0.1798    0.4054 H   0  0  0  0  0  0  0  0  0  0  0  0
    3.2430    0.5425   -1.1619 H   0  0  0  0  0  0  0  0  0  0  0  0
    2.8922   -0.7956   -0.0664 H   0  0  0  0  0  0  0  0  0  0  0  0
    2.6782    0.8243    1.8489 H   0  0  0  0  0  0  0  0  0  0  0  0
    3.0486    2.1718    0.7453 H   0  0  0  0  0  0  0  0  0  0  0  0
    4.9406    2.9641    2.1992 H   0  0  0  0  0  0  0  0  0  0  0  0
    5.3046    0.6077    4.1511 H   0  0  0  0  0  0  0  0  0  0  0  0
    3.7657    1.4361    3.8136 H   0  0  0  0  0  0  0  0  0  0  0  0
    5.0843    2.3187    4.6152 H   0  0  0  0  0  0  0  0  0  0  0  0
    7.3976    1.2321    2.8118 H   0  0  0  0  0  0  0  0  0  0  0  0
    7.1553    2.8808    3.3963 H   0  0  0  0  0  0  0  0  0  0  0  0
    7.4947    2.0468    0.4714 H   0  0  0  0  0  0  0  0  0  0  0  0
    7.1172    4.8445    1.6891 H   0  0  0  0  0  0  0  0  0  0  0  0
    6.0243    4.0057    0.5385 H   0  0  0  0  0  0  0  0  0  0  0  0
    7.6303    4.5267    0.0148 H   0  0  0  0  0  0  0  0  0  0  0  0
    9.3610    2.0749    2.1660 H   0  0  0  0  0  0  0  0  0  0  0  0
    9.8241    4.0571    0.0400 H   0  0  0  0  0  0  0  0  0  0  0  0
    9.8422    2.3078   -0.2983 H   0  0  0  0  0  0  0  0  0  0  0  0
   11.0086    3.0272    0.8540 H   0  0  0  0  0  0  0  0  0  0  0  0
  1  2  1  0
  1 12  1  0
  1 13  1  0
  1 14  1  0
  2  3  1  0
  2 15  1  0
  2 16  1  0
  3  4  1  0
  3 17  1  0
  3 18  1  0
  4  5  1  0
  5  6  1  0
  5  7  1  0
  5 19  1  6
  6 20  1  0
  6 21  1  0
  6 22  1  0
  7  8  1  0
  7 23  1  0
  7 24  1  0
  8  9  1  0
  8 10  1  0
  8 25  1  6
  9 26  1  0
  9 27  1  0
  9 28  1  0
 10 11  1  0
 10 29  1  0
 11 30  1  0
 11 31  1  0
 11 32  1  0
M  END

