
     RDKit          3D

 42 43  0  0  0  0  0  0  0  0999 V2000
    1.3103   -0.4014    1.6135 C   0  0  0  0  0  0  0  0  0  0  0  0
    2.6489   -0.2578    0.9332 C   0  0  0  0  0  0  0  0  0  0  0  0
    3.0633   -1.1763   -0.0402 C   0  0  0  0  0  0  0  0  0  0  0  0
    4.2904   -1.0788   -0.6950 C   0  0  0  0  0  0  0  0  0  0  0  0
    5.1611   -0.0215   -0.3769 C   0  0  0  0  0  0  0  0  0  0  0  0
    6.4174    0.1383   -1.0141 N   0  0  0  0  0  0  0  0  0  0  0  0
    7.2257    1.3393   -0.8180 C   0  0  0  0  0  0  0  0  0  0  0  0
    8.3084    1.2505   -1.9150 C   0  0  1  0  0  0  0  0  0  0  0  0
    7.9256    1.7281   -2.8283 H   0  0  0  0  0  0  0  0  0  0  0  0
    9.5295    1.9537   -1.5935 N   0  0  0  0  0  0  0  0  0  0  0  0
    9.9296    3.0916   -2.2485 C   0  0  0  0  0  0  0  0  0  0  0  0
    9.2724    3.6018   -3.1401 O   0  0  0  0  0  0  0  0  0  0  0  0
   11.2681    3.6814   -1.7911 C   0  0  1  0  0  0  0  0  0  0  0  0
   12.2664    3.6321   -2.9576 C   0  0  0  0  0  0  0  0  0  0  0  0
   11.0488    5.1174   -1.2943 C   0  0  0  0  0  0  0  0  0  0  0  0
    8.4520   -0.2568   -2.1343 C   0  0  0  0  0  0  0  0  0  0  0  0
    7.0808   -0.8213   -1.7722 C   0  0  0  0  0  0  0  0  0  0  0  0
    6.6691   -1.9198   -2.0780 O   0  0  0  0  0  0  0  0  0  0  0  0
    4.7568    0.9043    0.6034 C   0  0  0  0  0  0  0  0  0  0  0  0
    3.5224    0.8034    1.2571 C   0  0  0  0  0  0  0  0  0  0  0  0
    3.1375    1.8245    2.3001 C   0  0  0  0  0  0  0  0  0  0  0  0
    0.7646   -1.2792    1.2378 H   0  0  0  0  0  0  0  0  0  0  0  0
    0.6712    0.4839    1.4525 H   0  0  0  0  0  0  0  0  0  0  0  0
    1.4154   -0.5158    2.7063 H   0  0  0  0  0  0  0  0  0  0  0  0
    2.3990   -2.0051   -0.3026 H   0  0  0  0  0  0  0  0  0  0  0  0
    4.5831   -1.8149   -1.4385 H   0  0  0  0  0  0  0  0  0  0  0  0
    7.6874    1.3532    0.1886 H   0  0  0  0  0  0  0  0  0  0  0  0
    6.6176    2.2507   -0.9176 H   0  0  0  0  0  0  0  0  0  0  0  0
   10.1226    1.5826   -0.8601 H   0  0  0  0  0  0  0  0  0  0  0  0
   11.6653    3.0732   -0.9583 H   0  0  0  0  0  0  0  0  0  0  0  0
   11.8675    4.1912   -3.8177 H   0  0  0  0  0  0  0  0  0  0  0  0
   12.4556    2.5969   -3.2843 H   0  0  0  0  0  0  0  0  0  0  0  0
   13.2297    4.0790   -2.6653 H   0  0  0  0  0  0  0  0  0  0  0  0
   10.6012    5.7270   -2.0939 H   0  0  0  0  0  0  0  0  0  0  0  0
   12.0040    5.5770   -0.9954 H   0  0  0  0  0  0  0  0  0  0  0  0
   10.3703    5.1462   -0.4265 H   0  0  0  0  0  0  0  0  0  0  0  0
    9.1919   -0.6997   -1.4421 H   0  0  0  0  0  0  0  0  0  0  0  0
    8.7368   -0.5511   -3.1536 H   0  0  0  0  0  0  0  0  0  0  0  0
    5.4132    1.7293    0.8823 H   0  0  0  0  0  0  0  0  0  0  0  0
    3.9254    2.5795    2.4376 H   0  0  0  0  0  0  0  0  0  0  0  0
    2.9489    1.3534    3.2799 H   0  0  0  0  0  0  0  0  0  0  0  0
    2.2095    2.3547    2.0258 H   0  0  0  0  0  0  0  0  0  0  0  0
  1  2  1  0
  1 22  1  0
  1 23  1  0
  1 24  1  0
  2  3  2  0
  2 20  1  0
  3  4  1  0
  3 25  1  0
  4  5  2  0
  4 26  1  0
  5  6  1  0
  5 19  1  0
  6  7  1  0
  6 17  1  0
  7  8  1  0
  7 27  1  0
  7 28  1  0
  8  9  1  6
  8 10  1  0
  8 16  1  0
 10 11  1  0
 10 29  1  0
 11 12  2  0
 11 13  1  0
 13 14  1  0
 13 15  1  0
 13 30  1  1
 14 31  1  0
 14 32  1  0
 14 33  1  0
 15 34  1  0
 15 35  1  0
 15 36  1  0
 16 17  1  0
 16 37  1  0
 16 38  1  0
 17 18  2  0
 19 20  2  0
 19 39  1  0
 20 21  1  0
 21 40  1  0
 21 41  1  0
 21 42  1  0
M  END

