
     RDKit          3D

 35 37  0  0  0  0  0  0  0  0999 V2000
    0.9401    0.4062   -1.2208 C   0  0  0  0  0  0  0  0  0  0  0  0
    2.4339    0.5932   -1.3818 C   0  0  0  0  0  0  0  0  0  0  0  0
    2.9272    1.6654   -1.6287 O   0  0  0  0  0  0  0  0  0  0  0  0
    3.2924   -0.6967   -1.1841 C   0  0  1  0  0  0  0  0  0  0  0  0
    3.0197   -1.5848   -2.3230 C   0  0  0  0  0  0  0  0  0  0  0  0
    2.7887   -2.2652   -3.2330 N   0  0  0  0  0  0  0  0  0  0  0  0
    4.8203   -0.5148   -0.9197 C   0  0  2  0  0  0  0  0  0  0  0  0
    5.0431    0.4024    0.3101 C   0  0  0  0  0  0  0  0  0  0  0  0
    6.5496    0.5303    0.6155 C   0  0  1  0  0  0  0  0  0  0  0  0
    7.1386   -0.8581    0.9258 C   0  0  0  0  0  0  0  0  0  0  0  0
    6.9383   -1.7789   -0.2924 C   0  0  2  0  0  0  0  0  0  0  0  0
    7.6600   -1.1811   -1.5156 C   0  0  0  0  0  0  0  0  0  0  0  0
    7.0732    0.2089   -1.8256 C   0  0  2  0  0  0  0  0  0  0  0  0
    7.2677    1.1332   -0.6079 C   0  0  0  0  0  0  0  0  0  0  0  0
    5.5687    0.0809   -2.1385 C   0  0  0  0  0  0  0  0  0  0  0  0
    5.4336   -1.9039   -0.5979 C   0  0  0  0  0  0  0  0  0  0  0  0
    0.4196    1.3235   -1.5246 H   0  0  0  0  0  0  0  0  0  0  0  0
    0.7108    0.1925   -0.1627 H   0  0  0  0  0  0  0  0  0  0  0  0
    0.5789   -0.4503   -1.8110 H   0  0  0  0  0  0  0  0  0  0  0  0
    2.8630   -1.2064   -0.3005 H   0  0  0  0  0  0  0  0  0  0  0  0
    4.5173   -0.0187    1.1867 H   0  0  0  0  0  0  0  0  0  0  0  0
    4.6184    1.3985    0.1199 H   0  0  0  0  0  0  0  0  0  0  0  0
    6.6808    1.1939    1.4871 H   0  0  0  0  0  0  0  0  0  0  0  0
    6.6480   -1.2906    1.8154 H   0  0  0  0  0  0  0  0  0  0  0  0
    8.2126   -0.7716    1.1652 H   0  0  0  0  0  0  0  0  0  0  0  0
    7.3439   -2.7813   -0.0735 H   0  0  0  0  0  0  0  0  0  0  0  0
    7.5435   -1.8465   -2.3884 H   0  0  0  0  0  0  0  0  0  0  0  0
    8.7427   -1.1032   -1.3157 H   0  0  0  0  0  0  0  0  0  0  0  0
    7.5840    0.6402   -2.7031 H   0  0  0  0  0  0  0  0  0  0  0  0
    6.8675    2.1381   -0.8261 H   0  0  0  0  0  0  0  0  0  0  0  0
    8.3431    1.2568   -0.3918 H   0  0  0  0  0  0  0  0  0  0  0  0
    5.4226   -0.5696   -3.0180 H   0  0  0  0  0  0  0  0  0  0  0  0
    5.1458    1.0648   -2.3857 H   0  0  0  0  0  0  0  0  0  0  0  0
    4.9107   -2.3488    0.2681 H   0  0  0  0  0  0  0  0  0  0  0  0
    5.2795   -2.5886   -1.4488 H   0  0  0  0  0  0  0  0  0  0  0  0
  1  2  1  0
  1 17  1  0
  1 18  1  0
  1 19  1  0
  2  3  2  0
  2  4  1  0
  4  5  1  0
  4  7  1  0
  4 20  1  1
  5  6  3  0
  7  8  1  1
  7 15  1  0
  7 16  1  0
  8  9  1  0
  8 21  1  0
  8 22  1  0
  9 10  1  0
  9 14  1  0
  9 23  1  1
 10 11  1  0
 10 24  1  0
 10 25  1  0
 11 12  1  0
 11 16  1  0
 11 26  1  1
 12 13  1  0
 12 27  1  0
 12 28  1  0
 13 14  1  0
 13 15  1  0
 13 29  1  6
 14 30  1  0
 14 31  1  0
 15 32  1  0
 15 33  1  0
 16 34  1  0
 16 35  1  0
M  END

