
     RDKit          3D

 43 43  0  0  0  0  0  0  0  0999 V2000
    5.0149    5.5185   -1.6797 C   0  0  0  0  0  0  0  0  0  0  0  0
    4.0835    4.3016   -1.5655 C   0  0  0  0  0  0  0  0  0  0  0  0
    4.7569    3.0155   -1.9581 C   0  0  0  0  0  0  0  0  0  0  0  0
    4.3994    2.1377   -2.9147 C   0  0  0  0  0  0  0  0  0  0  0  0
    3.1801    2.2338   -3.7953 C   0  0  0  0  0  0  0  0  0  0  0  0
    5.1252    0.8129   -3.0348 C   0  0  0  0  0  0  0  0  0  0  0  0
    4.4682   -0.2184   -2.9549 O   0  0  0  0  0  0  0  0  0  0  0  0
    6.4957    0.7964   -3.1989 N   0  0  0  0  0  0  0  0  0  0  0  0
    7.1660   -0.5076   -3.1993 C   0  0  0  0  0  0  0  0  0  0  0  0
    7.7179   -0.8606   -4.5837 C   0  0  0  0  0  0  0  0  0  0  0  0
    8.6151    0.2617   -5.1166 C   0  0  0  0  0  0  0  0  0  0  0  0
    7.8782    1.6057   -5.0686 C   0  0  0  0  0  0  0  0  0  0  0  0
    7.3036    1.9350   -3.6705 C   0  0  2  0  0  0  0  0  0  0  0  0
    8.3629    2.3520   -2.6294 C   0  0  0  0  0  0  0  0  0  0  0  0
    9.0286    3.7001   -2.9113 C   0  0  0  0  0  0  0  0  0  0  0  0
    9.8320    4.1322   -1.7802 N   0  0  0  0  0  0  0  0  0  0  0  0
   10.5142    5.3959   -1.9793 C   0  0  0  0  0  0  0  0  0  0  0  0
    4.5189    6.4339   -1.3191 H   0  0  0  0  0  0  0  0  0  0  0  0
    5.3201    5.6897   -2.7250 H   0  0  0  0  0  0  0  0  0  0  0  0
    5.9328    5.3786   -1.0848 H   0  0  0  0  0  0  0  0  0  0  0  0
    3.1740    4.4718   -2.1614 H   0  0  0  0  0  0  0  0  0  0  0  0
    3.7487    4.2127   -0.5148 H   0  0  0  0  0  0  0  0  0  0  0  0
    5.6489    2.7759   -1.3658 H   0  0  0  0  0  0  0  0  0  0  0  0
    2.5968    3.1467   -3.6190 H   0  0  0  0  0  0  0  0  0  0  0  0
    2.5369    1.3577   -3.6182 H   0  0  0  0  0  0  0  0  0  0  0  0
    3.4619    2.2073   -4.8625 H   0  0  0  0  0  0  0  0  0  0  0  0
    6.4299   -1.2483   -2.8662 H   0  0  0  0  0  0  0  0  0  0  0  0
    7.9890   -0.4872   -2.4620 H   0  0  0  0  0  0  0  0  0  0  0  0
    6.8702   -1.0201   -5.2729 H   0  0  0  0  0  0  0  0  0  0  0  0
    8.2698   -1.8140   -4.5286 H   0  0  0  0  0  0  0  0  0  0  0  0
    8.9378    0.0464   -6.1488 H   0  0  0  0  0  0  0  0  0  0  0  0
    9.5391    0.3138   -4.5125 H   0  0  0  0  0  0  0  0  0  0  0  0
    7.0339    1.5743   -5.7793 H   0  0  0  0  0  0  0  0  0  0  0  0
    8.5362    2.4243   -5.4021 H   0  0  0  0  0  0  0  0  0  0  0  0
    6.6166    2.7822   -3.7868 H   0  0  0  0  0  0  0  0  0  0  0  0
    9.1430    1.5763   -2.5331 H   0  0  0  0  0  0  0  0  0  0  0  0
    7.8765    2.4204   -1.6437 H   0  0  0  0  0  0  0  0  0  0  0  0
    8.2465    4.4635   -3.0839 H   0  0  0  0  0  0  0  0  0  0  0  0
    9.6154    3.6518   -3.8582 H   0  0  0  0  0  0  0  0  0  0  0  0
   10.5068    3.4063   -1.5403 H   0  0  0  0  0  0  0  0  0  0  0  0
    9.7756    6.2088   -2.0873 H   0  0  0  0  0  0  0  0  0  0  0  0
   11.1702    5.4324   -2.8791 H   0  0  0  0  0  0  0  0  0  0  0  0
   11.1337    5.6327   -1.1000 H   0  0  0  0  0  0  0  0  0  0  0  0
  1  2  1  0
  1 18  1  0
  1 19  1  0
  1 20  1  0
  2  3  1  0
  2 21  1  0
  2 22  1  0
  3  4  2  0
  3 23  1  0
  4  5  1  0
  4  6  1  0
  5 24  1  0
  5 25  1  0
  5 26  1  0
  6  7  2  0
  6  8  1  0
  8  9  1  0
  8 13  1  0
  9 10  1  0
  9 27  1  0
  9 28  1  0
 10 11  1  0
 10 29  1  0
 10 30  1  0
 11 12  1  0
 11 31  1  0
 11 32  1  0
 12 13  1  0
 12 33  1  0
 12 34  1  0
 13 14  1  0
 13 35  1  6
 14 15  1  0
 14 36  1  0
 14 37  1  0
 15 16  1  0
 15 38  1  0
 15 39  1  0
 16 17  1  0
 16 40  1  0
 17 41  1  0
 17 42  1  0
 17 43  1  0
M  END

