
     RDKit          3D

 47 46  0  0  0  0  0  0  0  0999 V2000
    2.6265    0.5521   -1.5731 C   0  0  0  0  0  0  0  0  0  0  0  0
    2.3360    1.7316   -0.6433 C   0  0  0  0  0  0  0  0  0  0  0  0
    2.9350    3.1011   -1.0693 C   0  0  1  0  0  0  0  0  0  0  0  0
    2.3816    3.5656   -2.4247 C   0  0  0  0  0  0  0  0  0  0  0  0
    2.6033    4.1496    0.0166 C   0  0  0  0  0  0  0  0  0  0  0  0
    4.4591    2.9841   -1.1747 C   0  0  0  0  0  0  0  0  0  0  0  0
    5.1208    3.2387   -2.1521 O   0  0  0  0  0  0  0  0  0  0  0  0
    5.0128    2.5548   -0.0145 O   0  0  0  0  0  0  0  0  0  0  0  0
    6.4348    2.3958    0.0113 C   0  0  0  0  0  0  0  0  0  0  0  0
    7.1292    3.7251    0.2982 C   0  0  0  0  0  0  0  0  0  0  0  0
    8.6381    3.6132    0.4601 C   0  0  1  0  0  0  0  0  0  0  0  0
    9.1131    4.8334    0.8530 F   0  0  0  0  0  0  0  0  0  0  0  0
    8.9024    2.7504    1.5049 F   0  0  0  0  0  0  0  0  0  0  0  0
    9.3992    3.1362   -0.7728 C   0  0  0  0  0  0  0  0  0  0  0  0
   10.9176    3.3187   -0.7611 C   0  0  1  0  0  0  0  0  0  0  0  0
   11.3854    2.6843   -1.8905 F   0  0  0  0  0  0  0  0  0  0  0  0
   11.2098    4.6439   -0.9350 F   0  0  0  0  0  0  0  0  0  0  0  0
   11.6792    2.7933    0.4455 C   0  0  0  0  0  0  0  0  0  0  0  0
   13.1898    2.9693    0.2792 C   0  0  0  0  0  0  0  0  0  0  0  0
   13.9489    2.4569    1.4848 C   0  0  1  0  0  0  0  0  0  0  0  0
   13.5665    3.1151    2.6116 F   0  0  0  0  0  0  0  0  0  0  0  0
   13.6984    1.1343    1.6848 F   0  0  0  0  0  0  0  0  0  0  0  0
   15.4844    2.6098    1.3744 C   0  0  1  0  0  0  0  0  0  0  0  0
   15.9384    1.9380    0.3094 F   0  0  0  0  0  0  0  0  0  0  0  0
   15.8097    3.8996    1.2283 F   0  0  0  0  0  0  0  0  0  0  0  0
   16.0883    2.1392    2.4631 F   0  0  0  0  0  0  0  0  0  0  0  0
    2.1776   -0.3711   -1.1742 H   0  0  0  0  0  0  0  0  0  0  0  0
    3.7088    0.3685   -1.6773 H   0  0  0  0  0  0  0  0  0  0  0  0
    2.2168    0.7056   -2.5833 H   0  0  0  0  0  0  0  0  0  0  0  0
    2.7037    1.4958    0.3680 H   0  0  0  0  0  0  0  0  0  0  0  0
    1.2443    1.8687   -0.5515 H   0  0  0  0  0  0  0  0  0  0  0  0
    1.2829    3.6300   -2.3792 H   0  0  0  0  0  0  0  0  0  0  0  0
    2.6586    2.8812   -3.2384 H   0  0  0  0  0  0  0  0  0  0  0  0
    2.7752    4.5577   -2.6907 H   0  0  0  0  0  0  0  0  0  0  0  0
    1.5113    4.2709    0.0959 H   0  0  0  0  0  0  0  0  0  0  0  0
    3.0324    5.1332   -0.2336 H   0  0  0  0  0  0  0  0  0  0  0  0
    2.9887    3.8443    1.0000 H   0  0  0  0  0  0  0  0  0  0  0  0
    6.7651    1.9756   -0.9503 H   0  0  0  0  0  0  0  0  0  0  0  0
    6.6371    1.6752    0.8150 H   0  0  0  0  0  0  0  0  0  0  0  0
    6.7425    4.1486    1.2383 H   0  0  0  0  0  0  0  0  0  0  0  0
    6.9203    4.4414   -0.5098 H   0  0  0  0  0  0  0  0  0  0  0  0
    9.0293    3.6740   -1.6583 H   0  0  0  0  0  0  0  0  0  0  0  0
    9.1878    2.0680   -0.9223 H   0  0  0  0  0  0  0  0  0  0  0  0
   11.4294    1.7311    0.5829 H   0  0  0  0  0  0  0  0  0  0  0  0
   11.3285    3.3282    1.3378 H   0  0  0  0  0  0  0  0  0  0  0  0
   13.4391    4.0315    0.1438 H   0  0  0  0  0  0  0  0  0  0  0  0
   13.5491    2.4278   -0.6074 H   0  0  0  0  0  0  0  0  0  0  0  0
  1  2  1  0
  1 27  1  0
  1 28  1  0
  1 29  1  0
  2  3  1  0
  2 30  1  0
  2 31  1  0
  3  4  1  0
  3  5  1  0
  3  6  1  6
  4 32  1  0
  4 33  1  0
  4 34  1  0
  5 35  1  0
  5 36  1  0
  5 37  1  0
  6  7  2  0
  6  8  1  0
  8  9  1  0
  9 10  1  0
  9 38  1  0
  9 39  1  0
 10 11  1  0
 10 40  1  0
 10 41  1  0
 11 12  1  1
 11 13  1  0
 11 14  1  0
 14 15  1  0
 14 42  1  0
 14 43  1  0
 15 16  1  6
 15 17  1  0
 15 18  1  0
 18 19  1  0
 18 44  1  0
 18 45  1  0
 19 20  1  0
 19 46  1  0
 19 47  1  0
 20 21  1  1
 20 22  1  0
 20 23  1  0
 23 24  1  6
 23 25  1  0
 23 26  1  0
M  END

