
     RDKit          3D

 32 33  0  0  0  0  0  0  0  0999 V2000
    1.6951   -0.0102    0.9285 C   0  0  0  0  0  0  0  0  0  0  0  0
    2.9930   -0.2486    1.1299 C   0  0  0  0  0  0  0  0  0  0  0  0
    3.9139    0.5316    2.0179 C   0  0  0  0  0  0  0  0  0  0  0  0
    3.5408   -1.3912    0.5428 O   0  0  0  0  0  0  0  0  0  0  0  0
    4.6048   -1.2716   -0.3101 C   0  0  0  0  0  0  0  0  0  0  0  0
    5.0767   -0.2182   -0.6814 O   0  0  0  0  0  0  0  0  0  0  0  0
    5.0437   -2.4978   -0.6942 N   0  0  0  0  0  0  0  0  0  0  0  0
    6.1518   -2.6233   -1.6386 C   0  0  0  0  0  0  0  0  0  0  0  0
    6.1365   -4.1195   -1.9844 C   0  0  0  0  0  0  0  0  0  0  0  0
    5.5861   -4.7915   -0.7161 C   0  0  1  0  0  0  0  0  0  0  0  0
    5.1315   -5.7756   -0.9133 H   0  0  0  0  0  0  0  0  0  0  0  0
    6.6523   -4.9486    0.2671 N   0  0  0  0  0  0  0  0  0  0  0  0
    6.4755   -5.6992    1.3925 C   0  0  0  0  0  0  0  0  0  0  0  0
    5.3370   -6.2278    1.7489 N   0  0  0  0  0  0  0  0  0  0  0  0
    5.4682   -6.9203    2.9291 C   0  0  0  0  0  0  0  0  0  0  0  0
    6.7082   -6.9364    3.4966 C   0  0  0  0  0  0  0  0  0  0  0  0
    7.8181   -6.0184    2.5036 S   0  0  0  0  0  0  0  0  0  0  0  0
    4.5108   -3.7892   -0.2539 C   0  0  0  0  0  0  0  0  0  0  0  0
    1.2014    0.8224    1.4314 H   0  0  0  0  0  0  0  0  0  0  0  0
    1.1058   -0.6481    0.2674 H   0  0  0  0  0  0  0  0  0  0  0  0
    3.3655    1.3279    2.5395 H   0  0  0  0  0  0  0  0  0  0  0  0
    4.7259    0.9802    1.4265 H   0  0  0  0  0  0  0  0  0  0  0  0
    4.3727   -0.1330    2.7696 H   0  0  0  0  0  0  0  0  0  0  0  0
    7.1040   -2.3110   -1.1708 H   0  0  0  0  0  0  0  0  0  0  0  0
    6.0018   -1.9728   -2.5137 H   0  0  0  0  0  0  0  0  0  0  0  0
    7.1209   -4.5092   -2.2865 H   0  0  0  0  0  0  0  0  0  0  0  0
    5.4397   -4.3109   -2.8149 H   0  0  0  0  0  0  0  0  0  0  0  0
    7.5969   -4.7028    0.0018 H   0  0  0  0  0  0  0  0  0  0  0  0
    4.5943   -7.4186    3.3539 H   0  0  0  0  0  0  0  0  0  0  0  0
    7.0400   -7.4154    4.4151 H   0  0  0  0  0  0  0  0  0  0  0  0
    4.3541   -3.8247    0.8309 H   0  0  0  0  0  0  0  0  0  0  0  0
    3.5432   -4.0134   -0.7387 H   0  0  0  0  0  0  0  0  0  0  0  0
  1  2  2  0
  1 19  1  0
  1 20  1  0
  2  3  1  0
  2  4  1  0
  3 21  1  0
  3 22  1  0
  3 23  1  0
  4  5  1  0
  5  6  2  0
  5  7  1  0
  7  8  1  0
  7 18  1  0
  8  9  1  0
  8 24  1  0
  8 25  1  0
  9 10  1  0
  9 26  1  0
  9 27  1  0
 10 11  1  6
 10 12  1  0
 10 18  1  0
 12 13  1  0
 12 28  1  0
 13 14  2  0
 13 17  1  0
 14 15  1  0
 15 16  2  0
 15 29  1  0
 16 17  1  0
 16 30  1  0
 18 31  1  0
 18 32  1  0
M  END

