
     RDKit          3D

 38 38  0  0  0  0  0  0  0  0999 V2000
    1.0306    0.7749    2.1642 C   0  0  0  0  0  0  0  0  0  0  0  0
    2.4327    0.7122    2.1486 O   0  0  0  0  0  0  0  0  0  0  0  0
    2.9459   -0.5911    2.1205 C   0  0  0  0  0  0  0  0  0  0  0  0
    4.4612   -0.4812    2.1068 C   0  0  0  0  0  0  0  0  0  0  0  0
    4.9805   -1.8003    2.0774 O   0  0  0  0  0  0  0  0  0  0  0  0
    6.3212   -1.9951    2.0618 C   0  0  0  0  0  0  0  0  0  0  0  0
    7.2629   -0.9627    2.0706 C   0  0  0  0  0  0  0  0  0  0  0  0
    8.6372   -1.2389    2.0532 C   0  0  0  0  0  0  0  0  0  0  0  0
    9.5849   -0.0927    2.0641 C   0  0  0  0  0  0  0  0  0  0  0  0
    9.2299    1.0665    2.0868 O   0  0  0  0  0  0  0  0  0  0  0  0
    9.0969   -2.5788    2.0261 C   0  0  0  0  0  0  0  0  0  0  0  0
   10.4377   -2.7735    2.0101 O   0  0  0  0  0  0  0  0  0  0  0  0
   10.9571   -4.0926    1.9844 C   0  0  0  0  0  0  0  0  0  0  0  0
   12.4724   -3.9826    1.9732 C   0  0  0  0  0  0  0  0  0  0  0  0
   12.9858   -5.2859    1.9476 O   0  0  0  0  0  0  0  0  0  0  0  0
   14.3879   -5.3485    1.9348 C   0  0  0  0  0  0  0  0  0  0  0  0
    8.1552   -3.6111    2.0174 C   0  0  0  0  0  0  0  0  0  0  0  0
    6.7809   -3.3350    2.0348 C   0  0  0  0  0  0  0  0  0  0  0  0
    5.8332   -4.4812    2.0243 C   0  0  0  0  0  0  0  0  0  0  0  0
    6.1882   -5.6404    2.0014 O   0  0  0  0  0  0  0  0  0  0  0  0
    0.7427    1.8359    2.1856 H   0  0  0  0  0  0  0  0  0  0  0  0
    0.6034    0.2744    3.0566 H   0  0  0  0  0  0  0  0  0  0  0  0
    0.5848    0.3055    1.2640 H   0  0  0  0  0  0  0  0  0  0  0  0
    2.6057   -1.1465    1.2215 H   0  0  0  0  0  0  0  0  0  0  0  0
    2.6239   -1.1777    3.0062 H   0  0  0  0  0  0  0  0  0  0  0  0
    4.8057    0.0592    3.0063 H   0  0  0  0  0  0  0  0  0  0  0  0
    4.7869    0.0917    1.2206 H   0  0  0  0  0  0  0  0  0  0  0  0
    6.9774    0.0891    2.0909 H   0  0  0  0  0  0  0  0  0  0  0  0
   10.6643   -0.3649    2.0500 H   0  0  0  0  0  0  0  0  0  0  0  0
   10.6145   -4.6350    1.0854 H   0  0  0  0  0  0  0  0  0  0  0  0
   10.6297   -4.6637    2.8713 H   0  0  0  0  0  0  0  0  0  0  0  0
   12.8111   -3.4261    2.8720 H   0  0  0  0  0  0  0  0  0  0  0  0
   12.7958   -3.3971    1.0873 H   0  0  0  0  0  0  0  0  0  0  0  0
   14.6759   -6.4095    1.9150 H   0  0  0  0  0  0  0  0  0  0  0  0
   14.8319   -4.8781    2.8354 H   0  0  0  0  0  0  0  0  0  0  0  0
   14.8168   -4.8488    1.0426 H   0  0  0  0  0  0  0  0  0  0  0  0
    8.4407   -4.6630    1.9969 H   0  0  0  0  0  0  0  0  0  0  0  0
    4.7538   -4.2090    2.0391 H   0  0  0  0  0  0  0  0  0  0  0  0
  1  2  1  0
  1 21  1  0
  1 22  1  0
  1 23  1  0
  2  3  1  0
  3  4  1  0
  3 24  1  0
  3 25  1  0
  4  5  1  0
  4 26  1  0
  4 27  1  0
  5  6  1  0
  6  7  2  0
  6 18  1  0
  7  8  1  0
  7 28  1  0
  8  9  1  0
  8 11  2  0
  9 10  2  0
  9 29  1  0
 11 12  1  0
 11 17  1  0
 12 13  1  0
 13 14  1  0
 13 30  1  0
 13 31  1  0
 14 15  1  0
 14 32  1  0
 14 33  1  0
 15 16  1  0
 16 34  1  0
 16 35  1  0
 16 36  1  0
 17 18  2  0
 17 37  1  0
 18 19  1  0
 19 20  2  0
 19 38  1  0
M  END

