
     RDKit          3D

 61 67  0  0  0  0  0  0  0  0999 V2000
    0.7121   -0.5666    1.0454 C   0  0  0  0  0  0  0  0  0  0  0  0
    1.8676   -0.4931    0.2387 O   0  0  0  0  0  0  0  0  0  0  0  0
    2.7214   -1.5420    0.2006 C   0  0  0  0  0  0  0  0  0  0  0  0
    3.8459   -1.3993   -0.6329 C   0  0  0  0  0  0  0  0  0  0  0  0
    4.7838   -2.4167   -0.7351 C   0  0  0  0  0  0  0  0  0  0  0  0
    4.6365   -3.6200   -0.0115 C   0  0  0  0  0  0  0  0  0  0  0  0
    5.5966   -4.7401   -0.1123 C   0  0  0  0  0  0  0  0  0  0  0  0
    6.9511   -4.6967   -0.3035 C   0  0  0  0  0  0  0  0  0  0  0  0
    7.7032   -3.4075   -0.3648 C   0  0  0  0  0  0  0  0  0  0  0  0
    7.8491   -2.5996    0.7797 C   0  0  0  0  0  0  0  0  0  0  0  0
    8.5564   -1.4037    0.7342 C   0  0  0  0  0  0  0  0  0  0  0  0
    9.1517   -0.9741   -0.4652 C   0  0  0  0  0  0  0  0  0  0  0  0
    9.8200    0.2041   -0.4141 O   0  0  0  0  0  0  0  0  0  0  0  0
   10.4416    0.6989   -1.5790 C   0  0  0  0  0  0  0  0  0  0  0  0
    9.0255   -1.7700   -1.6144 C   0  0  0  0  0  0  0  0  0  0  0  0
    8.3098   -2.9712   -1.5516 C   0  0  0  0  0  0  0  0  0  0  0  0
    7.6896   -5.9626   -0.3930 C   0  0  0  0  0  0  0  0  0  0  0  0
    9.0857   -6.0300   -0.5777 C   0  0  0  0  0  0  0  0  0  0  0  0
    9.7370   -7.2605   -0.6650 C   0  0  0  0  0  0  0  0  0  0  0  0
    9.0223   -8.4571   -0.5682 C   0  0  0  0  0  0  0  0  0  0  0  0
    7.6391   -8.4264   -0.3601 C   0  0  0  0  0  0  0  0  0  0  0  0
    6.8451   -9.6755   -0.2682 C   0  0  0  0  0  0  0  0  0  0  0  0
    5.4006   -9.5740    0.1674 C   0  0  0  0  0  0  0  0  0  0  0  0
    4.7920   -8.2628    0.1776 C   0  0  0  0  0  0  0  0  0  0  0  0
    5.5491   -7.1477   -0.0213 C   0  0  0  0  0  0  0  0  0  0  0  0
    6.9799   -7.1807   -0.2673 C   0  0  0  0  0  0  0  0  0  0  0  0
    4.9386   -5.9349    0.0352 O   0  0  0  0  0  0  0  0  0  0  0  0
    4.7344  -10.6194    0.5377 N   0  0  0  0  0  0  0  0  0  0  0  0
    5.4841  -11.8616    0.5686 C   0  0  1  0  0  0  0  0  0  0  0  0
    4.6043  -13.0895    0.5625 C   0  0  0  0  0  0  0  0  0  0  0  0
    5.1379  -14.2848    0.2503 C   0  0  0  0  0  0  0  0  0  0  0  0
    4.0519  -15.8499    0.2550 Br  0  0  0  0  0  0  0  0  0  0  0  0
    6.5690  -14.3753   -0.1248 C   0  0  0  0  0  0  0  0  0  0  0  0
    7.4727  -16.0500   -0.0471 Br  0  0  0  0  0  0  0  0  0  0  0  0
    7.2345  -13.2659   -0.4953 C   0  0  0  0  0  0  0  0  0  0  0  0
    6.4942  -11.9520   -0.5650 C   0  0  2  0  0  0  0  0  0  0  0  0
    7.3748  -10.7962   -0.6033 N   0  0  0  0  0  0  0  0  0  0  0  0
    3.4967   -3.7568    0.8008 C   0  0  0  0  0  0  0  0  0  0  0  0
    2.5517   -2.7363    0.9185 C   0  0  0  0  0  0  0  0  0  0  0  0
    0.1811    0.3861    0.9180 H   0  0  0  0  0  0  0  0  0  0  0  0
    0.9645   -0.6956    2.1132 H   0  0  0  0  0  0  0  0  0  0  0  0
    0.0464   -1.3918    0.7348 H   0  0  0  0  0  0  0  0  0  0  0  0
    3.9557   -0.4731   -1.2002 H   0  0  0  0  0  0  0  0  0  0  0  0
    5.6346   -2.2821   -1.4014 H   0  0  0  0  0  0  0  0  0  0  0  0
    7.3937   -2.9181    1.7203 H   0  0  0  0  0  0  0  0  0  0  0  0
    8.6674   -0.7766    1.6212 H   0  0  0  0  0  0  0  0  0  0  0  0
   10.9126    1.6515   -1.3018 H   0  0  0  0  0  0  0  0  0  0  0  0
    9.7121    0.8834   -2.3883 H   0  0  0  0  0  0  0  0  0  0  0  0
   11.2210    0.0110   -1.9538 H   0  0  0  0  0  0  0  0  0  0  0  0
    9.4745   -1.4675   -2.5607 H   0  0  0  0  0  0  0  0  0  0  0  0
    8.2147   -3.5762   -2.4574 H   0  0  0  0  0  0  0  0  0  0  0  0
    9.6612   -5.1070   -0.6513 H   0  0  0  0  0  0  0  0  0  0  0  0
   10.8200   -7.2861   -0.8095 H   0  0  0  0  0  0  0  0  0  0  0  0
    9.5162   -9.4268   -0.6451 H   0  0  0  0  0  0  0  0  0  0  0  0
    3.7289   -8.1837    0.4049 H   0  0  0  0  0  0  0  0  0  0  0  0
    6.0581  -11.8817    1.5284 H   0  0  0  0  0  0  0  0  0  0  0  0
    3.5577  -12.9741    0.8493 H   0  0  0  0  0  0  0  0  0  0  0  0
    8.2869  -13.2870   -0.7837 H   0  0  0  0  0  0  0  0  0  0  0  0
    5.9235  -11.9469   -1.5257 H   0  0  0  0  0  0  0  0  0  0  0  0
    3.3459   -4.6827    1.3571 H   0  0  0  0  0  0  0  0  0  0  0  0
    1.6894   -2.8851    1.5684 H   0  0  0  0  0  0  0  0  0  0  0  0
  1  2  1  0
  1 40  1  0
  1 41  1  0
  1 42  1  0
  2  3  1  0
  3  4  2  0
  3 39  1  0
  4  5  1  0
  4 43  1  0
  5  6  2  0
  5 44  1  0
  6  7  1  0
  6 38  1  0
  7  8  2  0
  7 27  1  0
  8  9  1  0
  8 17  1  0
  9 10  2  0
  9 16  1  0
 10 11  1  0
 10 45  1  0
 11 12  2  0
 11 46  1  0
 12 13  1  0
 12 15  1  0
 13 14  1  0
 14 47  1  0
 14 48  1  0
 14 49  1  0
 15 16  2  0
 15 50  1  0
 16 51  1  0
 17 18  2  0
 17 26  1  0
 18 19  1  0
 18 52  1  0
 19 20  2  0
 19 53  1  0
 20 21  1  0
 20 54  1  0
 21 22  1  0
 21 26  2  0
 22 23  1  0
 22 37  2  0
 23 24  1  0
 23 28  2  0
 24 25  2  0
 24 55  1  0
 25 26  1  0
 25 27  1  0
 28 29  1  0
 29 30  1  0
 29 36  1  0
 29 56  1  1
 30 31  2  0
 30 57  1  0
 31 32  1  0
 31 33  1  0
 33 34  1  0
 33 35  2  0
 35 36  1  0
 35 58  1  0
 36 37  1  0
 36 59  1  6
 38 39  2  0
 38 60  1  0
 39 61  1  0
M  END

