
     RDKit          3D

 30 32  0  0  0  0  0  0  0  0999 V2000
    1.8259   -0.3496    1.4966 N   0  0  0  0  0  0  0  0  0  0  0  0
    2.7395    0.0214    0.5731 C   0  0  0  0  0  0  0  0  0  0  0  0
    3.7119    0.8649    0.9541 N   0  0  0  0  0  0  0  0  0  0  0  0
    4.6292    1.2411    0.0633 C   0  0  0  0  0  0  0  0  0  0  0  0
    5.7177    2.2164    0.5002 C   0  0  2  0  0  0  0  0  0  0  0  0
    6.1000    2.1175    1.9870 C   0  0  0  0  0  0  0  0  0  0  0  0
    5.1852    2.9695    2.8552 C   0  0  0  0  0  0  0  0  0  0  0  0
    5.2286    4.3415    2.4784 O   0  0  0  0  0  0  0  0  0  0  0  0
    5.1361    4.6201    1.1505 C   0  0  0  0  0  0  0  0  0  0  0  0
    4.8495    5.9531    0.8093 C   0  0  0  0  0  0  0  0  0  0  0  0
    4.7547    6.3314   -0.5263 C   0  0  0  0  0  0  0  0  0  0  0  0
    4.9447    5.3828   -1.5401 C   0  0  0  0  0  0  0  0  0  0  0  0
    5.2379    4.0637   -1.1980 C   0  0  0  0  0  0  0  0  0  0  0  0
    5.3429    3.6565    0.1427 C   0  0  0  0  0  0  0  0  0  0  0  0
    4.6775    0.8410   -1.2135 N   0  0  0  0  0  0  0  0  0  0  0  0
    3.7145    0.0060   -1.6169 C   0  0  0  0  0  0  0  0  0  0  0  0
    2.7151   -0.4431   -0.7681 C   0  0  0  0  0  0  0  0  0  0  0  0
    1.3623   -1.6401   -1.3743 Br  0  0  0  0  0  0  0  0  0  0  0  0
    1.8929    0.0434    2.4259 H   0  0  0  0  0  0  0  0  0  0  0  0
    1.0595   -0.9609    1.2524 H   0  0  0  0  0  0  0  0  0  0  0  0
    6.5915    1.9473   -0.1127 H   0  0  0  0  0  0  0  0  0  0  0  0
    7.1366    2.4720    2.1125 H   0  0  0  0  0  0  0  0  0  0  0  0
    6.0638    1.0725    2.3303 H   0  0  0  0  0  0  0  0  0  0  0  0
    5.4937    2.9423    3.9106 H   0  0  0  0  0  0  0  0  0  0  0  0
    4.1489    2.5993    2.7797 H   0  0  0  0  0  0  0  0  0  0  0  0
    4.7043    6.6695    1.6207 H   0  0  0  0  0  0  0  0  0  0  0  0
    4.5291    7.3708   -0.7790 H   0  0  0  0  0  0  0  0  0  0  0  0
    4.8702    5.6729   -2.5908 H   0  0  0  0  0  0  0  0  0  0  0  0
    5.3920    3.3134   -1.9775 H   0  0  0  0  0  0  0  0  0  0  0  0
    3.7377   -0.3267   -2.6606 H   0  0  0  0  0  0  0  0  0  0  0  0
  1  2  1  0
  1 19  1  0
  1 20  1  0
  2  3  2  0
  2 17  1  0
  3  4  1  0
  4  5  1  0
  4 15  2  0
  5  6  1  0
  5 14  1  0
  5 21  1  6
  6  7  1  0
  6 22  1  0
  6 23  1  0
  7  8  1  0
  7 24  1  0
  7 25  1  0
  8  9  1  0
  9 10  2  0
  9 14  1  0
 10 11  1  0
 10 26  1  0
 11 12  2  0
 11 27  1  0
 12 13  1  0
 12 28  1  0
 13 14  2  0
 13 29  1  0
 15 16  1  0
 16 17  2  0
 16 30  1  0
 17 18  1  0
M  END

