
     RDKit          3D

 31 31  0  0  0  0  0  0  0  0999 V2000
    0.9060   -0.5160   -0.2104 C   0  0  0  0  0  0  0  0  0  0  0  0
    2.3742   -0.1131   -0.2176 C   0  0  1  0  0  0  0  0  0  0  0  0
    2.8935    0.3463   -1.5848 C   0  0  0  0  0  0  0  0  0  0  0  0
    2.8325   -0.7487   -2.5493 N   0  0  0  0  0  0  0  0  0  0  0  0
    2.5765    1.2691    1.0395 S   0  0  0  0  0  0  0  0  0  0  0  0
    1.9235    0.7841    2.3136 O   0  0  0  0  0  0  0  0  0  0  0  0
    4.4188    1.0768    1.3262 C   0  0  0  0  0  0  0  0  0  0  0  0
    5.2139    2.3491    1.0596 C   0  0  1  0  0  0  0  0  0  0  0  0
    6.5395    2.0319    1.2160 F   0  0  0  0  0  0  0  0  0  0  0  0
    5.0531    2.6800   -0.2655 F   0  0  0  0  0  0  0  0  0  0  0  0
    4.8737    3.5408    1.9312 C   0  0  0  0  0  0  0  0  0  0  0  0
    5.4221    3.6325    3.2182 C   0  0  0  0  0  0  0  0  0  0  0  0
    5.0957    4.7108    4.0423 C   0  0  0  0  0  0  0  0  0  0  0  0
    4.2221    5.7033    3.5862 C   0  0  0  0  0  0  0  0  0  0  0  0
    3.6786    5.6155    2.3021 C   0  0  0  0  0  0  0  0  0  0  0  0
    4.0026    4.5374    1.4736 C   0  0  0  0  0  0  0  0  0  0  0  0
    0.7609   -1.3476   -0.9148 H   0  0  0  0  0  0  0  0  0  0  0  0
    0.2624    0.3187   -0.5367 H   0  0  0  0  0  0  0  0  0  0  0  0
    0.5940   -0.8208    0.7980 H   0  0  0  0  0  0  0  0  0  0  0  0
    2.9889   -0.9442    0.1715 H   0  0  0  0  0  0  0  0  0  0  0  0
    3.9019    0.7935   -1.4733 H   0  0  0  0  0  0  0  0  0  0  0  0
    2.2407    1.1596   -1.9460 H   0  0  0  0  0  0  0  0  0  0  0  0
    3.5744   -1.4261   -2.3686 H   0  0  0  0  0  0  0  0  0  0  0  0
    2.9886   -0.3992   -3.4942 H   0  0  0  0  0  0  0  0  0  0  0  0
    4.8385    0.2669    0.7125 H   0  0  0  0  0  0  0  0  0  0  0  0
    4.4622    0.7999    2.3883 H   0  0  0  0  0  0  0  0  0  0  0  0
    6.1144    2.8644    3.5697 H   0  0  0  0  0  0  0  0  0  0  0  0
    5.5277    4.7781    5.0438 H   0  0  0  0  0  0  0  0  0  0  0  0
    3.9663    6.5465    4.2328 H   0  0  0  0  0  0  0  0  0  0  0  0
    2.9988    6.3906    1.9399 H   0  0  0  0  0  0  0  0  0  0  0  0
    3.5833    4.4701    0.4691 H   0  0  0  0  0  0  0  0  0  0  0  0
  1  2  1  0
  1 17  1  0
  1 18  1  0
  1 19  1  0
  2  3  1  0
  2  5  1  0
  2 20  1  1
  3  4  1  0
  3 21  1  0
  3 22  1  0
  4 23  1  0
  4 24  1  0
  5  6  1  1
  5  7  1  0
  7  8  1  0
  7 25  1  0
  7 26  1  0
  8  9  1  6
  8 10  1  0
  8 11  1  0
 11 12  2  0
 11 16  1  0
 12 13  1  0
 12 27  1  0
 13 14  2  0
 13 28  1  0
 14 15  1  0
 14 29  1  0
 15 16  2  0
 15 30  1  0
 16 31  1  0
M  CHG  2   5   1   6  -1
M  END

