
     RDKit          3D

 51 50  0  0  0  0  0  0  0  0999 V2000
    0.7758    4.5761    1.8046 C   0  0  0  0  0  0  0  0  0  0  0  0
    2.2625    4.2707    1.6161 C   0  0  0  0  0  0  0  0  0  0  0  0
    2.7118    2.9693    2.2895 C   0  0  0  0  0  0  0  0  0  0  0  0
    4.2018    2.6637    2.1019 C   0  0  0  0  0  0  0  0  0  0  0  0
    4.7285    1.4079    2.8327 C   0  0  1  0  0  0  0  0  0  0  0  0
    4.1321    0.1114    2.2745 C   0  0  0  0  0  0  0  0  0  0  0  0
    6.1899    1.3025    2.8124 N   0  0  0  0  0  0  0  0  0  0  0  0
    6.9563    2.1650    3.7139 C   0  0  1  0  0  0  0  0  0  0  0  0
    6.9565    1.5794    5.1317 C   0  0  0  0  0  0  0  0  0  0  0  0
    8.3954    2.3219    3.1980 C   0  0  0  0  0  0  0  0  0  0  0  0
    8.5444    3.1329    1.9066 C   0  0  0  0  0  0  0  0  0  0  0  0
    9.9961    3.2760    1.4307 C   0  0  0  0  0  0  0  0  0  0  0  0
   10.6828    2.0124    1.1860 N   0  0  0  0  0  0  0  0  0  0  0  0
   10.1251    1.2016    0.1057 C   0  0  0  0  0  0  0  0  0  0  0  0
   10.2651    1.7500   -1.3243 C   0  0  0  0  0  0  0  0  0  0  0  0
   12.1357    2.1483    1.1800 C   0  0  0  0  0  0  0  0  0  0  0  0
   12.8898    0.8226    1.2692 C   0  0  0  0  0  0  0  0  0  0  0  0
    0.4885    5.5170    1.3084 H   0  0  0  0  0  0  0  0  0  0  0  0
    0.5184    4.6717    2.8730 H   0  0  0  0  0  0  0  0  0  0  0  0
    0.1451    3.7736    1.3861 H   0  0  0  0  0  0  0  0  0  0  0  0
    2.8646    5.1099    2.0098 H   0  0  0  0  0  0  0  0  0  0  0  0
    2.4943    4.2183    0.5365 H   0  0  0  0  0  0  0  0  0  0  0  0
    2.1011    2.1363    1.8981 H   0  0  0  0  0  0  0  0  0  0  0  0
    2.4857    3.0247    3.3713 H   0  0  0  0  0  0  0  0  0  0  0  0
    4.7838    3.5365    2.4474 H   0  0  0  0  0  0  0  0  0  0  0  0
    4.4236    2.5584    1.0220 H   0  0  0  0  0  0  0  0  0  0  0  0
    4.4280    1.4871    3.8927 H   0  0  0  0  0  0  0  0  0  0  0  0
    4.4147   -0.0196    1.2151 H   0  0  0  0  0  0  0  0  0  0  0  0
    3.0326    0.1003    2.3303 H   0  0  0  0  0  0  0  0  0  0  0  0
    4.5208   -0.7531    2.8325 H   0  0  0  0  0  0  0  0  0  0  0  0
    6.5196    1.3982    1.8541 H   0  0  0  0  0  0  0  0  0  0  0  0
    6.5148    3.1869    3.7734 H   0  0  0  0  0  0  0  0  0  0  0  0
    7.4594    0.5991    5.1368 H   0  0  0  0  0  0  0  0  0  0  0  0
    5.9331    1.4326    5.5110 H   0  0  0  0  0  0  0  0  0  0  0  0
    7.4780    2.2488    5.8353 H   0  0  0  0  0  0  0  0  0  0  0  0
    8.8355    1.3202    3.0594 H   0  0  0  0  0  0  0  0  0  0  0  0
    8.9943    2.8101    3.9863 H   0  0  0  0  0  0  0  0  0  0  0  0
    8.1445    4.1511    2.0604 H   0  0  0  0  0  0  0  0  0  0  0  0
    7.9274    2.7013    1.0991 H   0  0  0  0  0  0  0  0  0  0  0  0
   10.5621    3.8016    2.2187 H   0  0  0  0  0  0  0  0  0  0  0  0
   10.0178    3.9539    0.5464 H   0  0  0  0  0  0  0  0  0  0  0  0
    9.0581    1.0318    0.3222 H   0  0  0  0  0  0  0  0  0  0  0  0
   10.5871    0.2027    0.1539 H   0  0  0  0  0  0  0  0  0  0  0  0
    9.7672    2.7253   -1.4465 H   0  0  0  0  0  0  0  0  0  0  0  0
    9.8044    1.0530   -2.0431 H   0  0  0  0  0  0  0  0  0  0  0  0
   11.3199    1.8753   -1.6178 H   0  0  0  0  0  0  0  0  0  0  0  0
   12.4025    2.7582    2.0592 H   0  0  0  0  0  0  0  0  0  0  0  0
   12.5083    2.7212    0.2984 H   0  0  0  0  0  0  0  0  0  0  0  0
   12.5209    0.2244    2.1177 H   0  0  0  0  0  0  0  0  0  0  0  0
   13.9647    1.0112    1.4189 H   0  0  0  0  0  0  0  0  0  0  0  0
   12.7924    0.2153    0.3557 H   0  0  0  0  0  0  0  0  0  0  0  0
  1  2  1  0
  1 18  1  0
  1 19  1  0
  1 20  1  0
  2  3  1  0
  2 21  1  0
  2 22  1  0
  3  4  1  0
  3 23  1  0
  3 24  1  0
  4  5  1  0
  4 25  1  0
  4 26  1  0
  5  6  1  0
  5  7  1  0
  5 27  1  1
  6 28  1  0
  6 29  1  0
  6 30  1  0
  7  8  1  0
  7 31  1  0
  8  9  1  0
  8 10  1  0
  8 32  1  1
  9 33  1  0
  9 34  1  0
  9 35  1  0
 10 11  1  0
 10 36  1  0
 10 37  1  0
 11 12  1  0
 11 38  1  0
 11 39  1  0
 12 13  1  0
 12 40  1  0
 12 41  1  0
 13 14  1  0
 13 16  1  0
 14 15  1  0
 14 42  1  0
 14 43  1  0
 15 44  1  0
 15 45  1  0
 15 46  1  0
 16 17  1  0
 16 47  1  0
 16 48  1  0
 17 49  1  0
 17 50  1  0
 17 51  1  0
M  END

