
     RDKit          3D

 49 52  0  0  0  0  0  0  0  0999 V2000
    0.5110    0.1620    0.3230 O   0  0  0  0  0  0  0  0  0  0  0  0
    1.6723    0.0859   -0.0494 C   0  0  0  0  0  0  0  0  0  0  0  0
    2.1236    0.9835   -1.2069 C   0  0  0  0  0  0  0  0  0  0  0  0
    3.7167    0.6310   -2.0130 S   0  0  0  0  0  0  0  0  0  0  0  0
    3.2420   -0.7879   -2.9984 C   0  0  0  0  0  0  0  0  0  0  0  0
    2.0490   -1.2543   -2.9640 N   0  0  0  0  0  0  0  0  0  0  0  0
    1.7383   -2.3619   -3.7595 C   0  0  0  0  0  0  0  0  0  0  0  0
    0.4582   -2.9015   -3.7565 C   0  0  0  0  0  0  0  0  0  0  0  0
    0.1648   -4.0212   -4.5653 C   0  0  0  0  0  0  0  0  0  0  0  0
    1.1266   -4.6040   -5.3708 C   0  0  0  0  0  0  0  0  0  0  0  0
    2.4515   -4.0857   -5.4065 C   0  0  0  0  0  0  0  0  0  0  0  0
    3.4967   -4.6299   -6.2090 C   0  0  0  0  0  0  0  0  0  0  0  0
    4.7588   -4.0713   -6.1901 C   0  0  0  0  0  0  0  0  0  0  0  0
    5.0590   -2.9488   -5.3817 C   0  0  0  0  0  0  0  0  0  0  0  0
    4.0600   -2.4020   -4.5930 C   0  0  0  0  0  0  0  0  0  0  0  0
    4.2626   -1.2921   -3.7626 N   0  0  0  0  0  0  0  0  0  0  0  0
    5.1791   -0.8596   -3.7329 H   0  0  0  0  0  0  0  0  0  0  0  0
    2.7461   -2.9529   -4.5877 C   0  0  0  0  0  0  0  0  0  0  0  0
    2.6239   -0.7024    0.5277 N   0  0  0  0  0  0  0  0  0  0  0  0
    2.5091   -1.6160    1.6220 C   0  0  0  0  0  0  0  0  0  0  0  0
    3.5002   -2.2339    1.9645 O   0  0  0  0  0  0  0  0  0  0  0  0
    1.2758   -1.6902    2.1707 N   0  0  0  0  0  0  0  0  0  0  0  0
    0.9688   -2.5731    3.2932 C   0  0  1  0  0  0  0  0  0  0  0  0
    0.5669   -1.7677    4.5456 C   0  0  0  0  0  0  0  0  0  0  0  0
   -0.7999   -1.0862    4.3887 C   0  0  0  0  0  0  0  0  0  0  0  0
   -1.8928   -2.0970    4.0123 C   0  0  0  0  0  0  0  0  0  0  0  0
   -1.5113   -2.9028    2.7620 C   0  0  0  0  0  0  0  0  0  0  0  0
   -0.1410   -3.5770    2.9222 C   0  0  0  0  0  0  0  0  0  0  0  0
    2.2118    2.0134   -0.8264 H   0  0  0  0  0  0  0  0  0  0  0  0
    1.3275    0.9565   -1.9613 H   0  0  0  0  0  0  0  0  0  0  0  0
   -0.3023   -2.4452   -3.1209 H   0  0  0  0  0  0  0  0  0  0  0  0
   -0.8475   -4.4340   -4.5508 H   0  0  0  0  0  0  0  0  0  0  0  0
    0.8806   -5.4705   -5.9894 H   0  0  0  0  0  0  0  0  0  0  0  0
    3.2843   -5.4965   -6.8396 H   0  0  0  0  0  0  0  0  0  0  0  0
    5.5510   -4.4989   -6.8099 H   0  0  0  0  0  0  0  0  0  0  0  0
    6.0643   -2.5203   -5.3790 H   0  0  0  0  0  0  0  0  0  0  0  0
    3.5576   -0.6940    0.1237 H   0  0  0  0  0  0  0  0  0  0  0  0
    0.5584   -1.0980    1.7500 H   0  0  0  0  0  0  0  0  0  0  0  0
    1.9004   -3.1186    3.4975 H   0  0  0  0  0  0  0  0  0  0  0  0
    1.3517   -1.0280    4.7731 H   0  0  0  0  0  0  0  0  0  0  0  0
    0.5296   -2.4646    5.4021 H   0  0  0  0  0  0  0  0  0  0  0  0
   -0.7365   -0.3059    3.6079 H   0  0  0  0  0  0  0  0  0  0  0  0
   -1.0676   -0.5598    5.3201 H   0  0  0  0  0  0  0  0  0  0  0  0
   -2.8553   -1.5812    3.8571 H   0  0  0  0  0  0  0  0  0  0  0  0
   -2.0465   -2.7937    4.8577 H   0  0  0  0  0  0  0  0  0  0  0  0
   -1.4945   -2.2318    1.8832 H   0  0  0  0  0  0  0  0  0  0  0  0
   -2.2808   -3.6623    2.5449 H   0  0  0  0  0  0  0  0  0  0  0  0
    0.1425   -4.1144    2.0027 H   0  0  0  0  0  0  0  0  0  0  0  0
   -0.2000   -4.3318    3.7267 H   0  0  0  0  0  0  0  0  0  0  0  0
  1  2  2  0
  2  3  1  0
  2 19  1  0
  3  4  1  0
  3 29  1  0
  3 30  1  0
  4  5  1  0
  5  6  2  0
  5 16  1  0
  6  7  1  0
  7  8  2  0
  7 18  1  0
  8  9  1  0
  8 31  1  0
  9 10  2  0
  9 32  1  0
 10 11  1  0
 10 33  1  0
 11 12  1  0
 11 18  2  0
 12 13  2  0
 12 34  1  0
 13 14  1  0
 13 35  1  0
 14 15  2  0
 14 36  1  0
 15 16  1  0
 15 18  1  0
 16 17  1  0
 19 20  1  0
 19 37  1  0
 20 21  2  0
 20 22  1  0
 22 23  1  0
 22 38  1  0
 23 24  1  0
 23 28  1  0
 23 39  1  1
 24 25  1  0
 24 40  1  0
 24 41  1  0
 25 26  1  0
 25 42  1  0
 25 43  1  0
 26 27  1  0
 26 44  1  0
 26 45  1  0
 27 28  1  0
 27 46  1  0
 27 47  1  0
 28 48  1  0
 28 49  1  0
M  END

