
     RDKit          3D

 37 38  0  0  0  0  0  0  0  0999 V2000
    4.2809    5.7968    1.0415 C   0  0  0  0  0  0  0  0  0  0  0  0
    3.7350    4.4444    0.5974 C   0  0  0  0  0  0  0  0  0  0  0  0
    4.3848    3.9832   -0.6188 N   0  0  0  0  0  0  0  0  0  0  0  0
    3.9046    2.7042   -1.1189 C   0  0  0  0  0  0  0  0  0  0  0  0
    4.6095    2.2900   -2.3720 C   0  0  0  0  0  0  0  0  0  0  0  0
    5.1983    1.1004   -2.6966 C   0  0  0  0  0  0  0  0  0  0  0  0
    5.7565    0.9897   -3.9444 N   0  0  0  0  0  0  0  0  0  0  0  0
    5.6195    2.1032   -4.6192 C   0  0  0  0  0  0  0  0  0  0  0  0
    6.0868    2.3135   -5.8878 N   0  0  0  0  0  0  0  0  0  0  0  0
    5.7782    3.5555   -6.5657 C   0  0  0  0  0  0  0  0  0  0  0  0
    6.5671    1.1797   -6.6731 C   0  0  0  0  0  0  0  0  0  0  0  0
    7.9885    1.3355   -7.2323 C   0  0  0  0  0  0  0  0  0  0  0  0
    9.0845    1.4363   -6.2040 C   0  0  0  0  0  0  0  0  0  0  0  0
    9.0884    1.0639   -4.8805 C   0  0  0  0  0  0  0  0  0  0  0  0
   10.3509    1.2728   -4.2404 C   0  0  0  0  0  0  0  0  0  0  0  0
   11.2955    1.8013   -5.0804 C   0  0  0  0  0  0  0  0  0  0  0  0
   10.6516    2.0551   -6.6681 S   0  0  0  0  0  0  0  0  0  0  0  0
    4.7670    3.3861   -3.7403 S   0  0  0  0  0  0  0  0  0  0  0  0
    3.7569    6.1596    1.9396 H   0  0  0  0  0  0  0  0  0  0  0  0
    4.1652    6.5433    0.2404 H   0  0  0  0  0  0  0  0  0  0  0  0
    5.3545    5.7315    1.2884 H   0  0  0  0  0  0  0  0  0  0  0  0
    2.6527    4.5322    0.3912 H   0  0  0  0  0  0  0  0  0  0  0  0
    3.8218    3.7142    1.4362 H   0  0  0  0  0  0  0  0  0  0  0  0
    5.3959    3.9413   -0.4872 H   0  0  0  0  0  0  0  0  0  0  0  0
    2.8183    2.8095   -1.3056 H   0  0  0  0  0  0  0  0  0  0  0  0
    4.0029    1.8678   -0.3886 H   0  0  0  0  0  0  0  0  0  0  0  0
    5.2429    0.2451   -2.0177 H   0  0  0  0  0  0  0  0  0  0  0  0
    6.0594    4.4223   -5.9452 H   0  0  0  0  0  0  0  0  0  0  0  0
    4.7024    3.6468   -6.8154 H   0  0  0  0  0  0  0  0  0  0  0  0
    6.3540    3.6188   -7.4984 H   0  0  0  0  0  0  0  0  0  0  0  0
    5.8800    1.0090   -7.5242 H   0  0  0  0  0  0  0  0  0  0  0  0
    6.5046    0.2947   -6.0279 H   0  0  0  0  0  0  0  0  0  0  0  0
    8.0336    2.2085   -7.9069 H   0  0  0  0  0  0  0  0  0  0  0  0
    8.1690    0.4611   -7.8853 H   0  0  0  0  0  0  0  0  0  0  0  0
    8.2075    0.6692   -4.3707 H   0  0  0  0  0  0  0  0  0  0  0  0
   10.5438    1.0409   -3.1914 H   0  0  0  0  0  0  0  0  0  0  0  0
   12.3299    2.0614   -4.8598 H   0  0  0  0  0  0  0  0  0  0  0  0
  1  2  1  0
  1 19  1  0
  1 20  1  0
  1 21  1  0
  2  3  1  0
  2 22  1  0
  2 23  1  0
  3  4  1  0
  3 24  1  0
  4  5  1  0
  4 25  1  0
  4 26  1  0
  5  6  2  0
  5 18  1  0
  6  7  1  0
  6 27  1  0
  7  8  2  0
  8  9  1  0
  8 18  1  0
  9 10  1  0
  9 11  1  0
 10 28  1  0
 10 29  1  0
 10 30  1  0
 11 12  1  0
 11 31  1  0
 11 32  1  0
 12 13  1  0
 12 33  1  0
 12 34  1  0
 13 14  2  0
 13 17  1  0
 14 15  1  0
 14 35  1  0
 15 16  2  0
 15 36  1  0
 16 17  1  0
 16 37  1  0
M  END

