
     RDKit          3D

 43 43  0  0  0  0  0  0  0  0999 V2000
    1.4875   -1.6543   -1.7475 C   0  0  0  0  0  0  0  0  0  0  0  0
    2.7066   -0.9582   -1.3581 N   0  0  0  0  0  0  0  0  0  0  0  0
    3.0244    0.3066   -2.0073 C   0  0  0  0  0  0  0  0  0  0  0  0
    2.1662    1.5614   -1.6546 C   0  0  1  0  0  0  0  0  0  0  0  0
    0.7537    1.5284   -2.2518 C   0  0  0  0  0  0  0  0  0  0  0  0
    2.1193    1.7907   -0.1452 C   0  0  0  0  0  0  0  0  0  0  0  0
    2.8728    2.6827   -2.1962 O   0  0  0  0  0  0  0  0  0  0  0  0
    3.2159   -1.3162   -0.1126 C   0  0  0  0  0  0  0  0  0  0  0  0
    2.5382   -1.9261    0.7017 O   0  0  0  0  0  0  0  0  0  0  0  0
    4.5367   -0.9431    0.1530 N   0  0  0  0  0  0  0  0  0  0  0  0
    5.6094   -1.1974   -0.8167 C   0  0  0  0  0  0  0  0  0  0  0  0
    6.7939   -0.2582   -0.5833 C   0  0  0  0  0  0  0  0  0  0  0  0
    7.3312   -0.3291    0.8620 C   0  0  2  0  0  0  0  0  0  0  0  0
    8.3812    0.7778    1.0993 C   0  0  0  0  0  0  0  0  0  0  0  0
    8.0578   -1.6814    1.0622 C   0  0  0  0  0  0  0  0  0  0  0  0
    8.4445   -2.3759    0.1612 O   0  0  0  0  0  0  0  0  0  0  0  0
    8.3075   -2.0427    2.3413 O   0  0  0  0  0  0  0  0  0  0  0  0
    6.1347   -0.1556    1.8287 C   0  0  0  0  0  0  0  0  0  0  0  0
    4.9783   -1.1128    1.5333 C   0  0  0  0  0  0  0  0  0  0  0  0
    1.3186   -1.5058   -2.8245 H   0  0  0  0  0  0  0  0  0  0  0  0
    0.5928   -1.3157   -1.1970 H   0  0  0  0  0  0  0  0  0  0  0  0
    1.5958   -2.7294   -1.5489 H   0  0  0  0  0  0  0  0  0  0  0  0
    2.9871    0.1595   -3.1035 H   0  0  0  0  0  0  0  0  0  0  0  0
    4.0514    0.5942   -1.7608 H   0  0  0  0  0  0  0  0  0  0  0  0
    0.1219    0.7547   -1.7941 H   0  0  0  0  0  0  0  0  0  0  0  0
    0.7881    1.3347   -3.3383 H   0  0  0  0  0  0  0  0  0  0  0  0
    0.2692    2.5047   -2.0959 H   0  0  0  0  0  0  0  0  0  0  0  0
    1.6048    0.9656    0.3688 H   0  0  0  0  0  0  0  0  0  0  0  0
    1.5871    2.7292    0.0721 H   0  0  0  0  0  0  0  0  0  0  0  0
    3.1384    1.8722    0.2606 H   0  0  0  0  0  0  0  0  0  0  0  0
    2.8179    2.6363   -3.1605 H   0  0  0  0  0  0  0  0  0  0  0  0
    5.2251   -1.0821   -1.8367 H   0  0  0  0  0  0  0  0  0  0  0  0
    5.9527   -2.2458   -0.7252 H   0  0  0  0  0  0  0  0  0  0  0  0
    6.4807    0.7801   -0.7848 H   0  0  0  0  0  0  0  0  0  0  0  0
    7.6015   -0.5119   -1.2850 H   0  0  0  0  0  0  0  0  0  0  0  0
    9.2283    0.6717    0.4041 H   0  0  0  0  0  0  0  0  0  0  0  0
    8.7813    0.7487    2.1259 H   0  0  0  0  0  0  0  0  0  0  0  0
    7.9295    1.7699    0.9422 H   0  0  0  0  0  0  0  0  0  0  0  0
    7.9237   -1.4023    2.9569 H   0  0  0  0  0  0  0  0  0  0  0  0
    5.7720    0.8815    1.7323 H   0  0  0  0  0  0  0  0  0  0  0  0
    6.4403   -0.2608    2.8864 H   0  0  0  0  0  0  0  0  0  0  0  0
    4.1273   -0.9191    2.1982 H   0  0  0  0  0  0  0  0  0  0  0  0
    5.2879   -2.1614    1.7229 H   0  0  0  0  0  0  0  0  0  0  0  0
  1  2  1  0
  1 20  1  0
  1 21  1  0
  1 22  1  0
  2  3  1  0
  2  8  1  0
  3  4  1  0
  3 23  1  0
  3 24  1  0
  4  5  1  0
  4  6  1  0
  4  7  1  6
  5 25  1  0
  5 26  1  0
  5 27  1  0
  6 28  1  0
  6 29  1  0
  6 30  1  0
  7 31  1  0
  8  9  2  0
  8 10  1  0
 10 11  1  0
 10 19  1  0
 11 12  1  0
 11 32  1  0
 11 33  1  0
 12 13  1  0
 12 34  1  0
 12 35  1  0
 13 14  1  0
 13 15  1  1
 13 18  1  0
 14 36  1  0
 14 37  1  0
 14 38  1  0
 15 16  2  0
 15 17  1  0
 17 39  1  0
 18 19  1  0
 18 40  1  0
 18 41  1  0
 19 42  1  0
 19 43  1  0
M  END

