
     RDKit          3D

 77 80  0  0  0  0  0  0  0  0999 V2000
    3.2982    2.6827   -7.6026 C   0  0  0  0  0  0  0  0  0  0  0  0
    3.5477    3.5463   -6.3653 C   0  0  0  0  0  0  0  0  0  0  0  0
    4.2427    2.7907   -5.2274 C   0  0  0  0  0  0  0  0  0  0  0  0
    4.4872    3.6675   -3.9980 C   0  0  0  0  0  0  0  0  0  0  0  0
    5.0718    2.9761   -2.7605 C   0  0  0  0  0  0  0  0  0  0  0  0
    6.4734    2.4934   -2.8383 N   0  0  0  0  0  0  0  0  0  0  0  0
    6.7310    1.0826   -2.6398 C   0  0  0  0  0  0  0  0  0  0  0  0
    6.8779    0.2413   -3.9056 C   0  0  1  0  0  0  0  0  0  0  0  0
    5.7346    0.1383   -4.5967 F   0  0  0  0  0  0  0  0  0  0  0  0
    7.8116    0.7405   -4.7358 F   0  0  0  0  0  0  0  0  0  0  0  0
    7.2578   -1.0036   -3.5664 F   0  0  0  0  0  0  0  0  0  0  0  0
    7.4573    3.4695   -2.7718 C   0  0  0  0  0  0  0  0  0  0  0  0
    7.1657    4.6498   -2.8097 O   0  0  0  0  0  0  0  0  0  0  0  0
    8.9253    3.0382   -2.5657 C   0  0  2  0  0  0  0  0  0  0  0  0
    9.2658    3.1529   -1.0771 C   0  0  0  0  0  0  0  0  0  0  0  0
    8.6729    2.5389    0.0255 C   0  0  0  0  0  0  0  0  0  0  0  0
    9.1564    2.8238    1.3103 C   0  0  0  0  0  0  0  0  0  0  0  0
   10.2151    3.7219    1.4894 C   0  0  0  0  0  0  0  0  0  0  0  0
   10.8056    4.3502    0.3885 C   0  0  0  0  0  0  0  0  0  0  0  0
   10.3258    4.0654   -0.8935 C   0  0  0  0  0  0  0  0  0  0  0  0
   10.7556    4.5604   -2.2069 C   0  0  0  0  0  0  0  0  0  0  0  0
   11.8157    5.4075   -2.5399 C   0  0  0  0  0  0  0  0  0  0  0  0
   12.0745    5.6489   -3.8908 C   0  0  0  0  0  0  0  0  0  0  0  0
   11.2891    5.0503   -4.8798 C   0  0  0  0  0  0  0  0  0  0  0  0
   10.2062    4.2005   -4.5617 C   0  0  0  0  0  0  0  0  0  0  0  0
    9.4476    3.5781   -5.5890 N   0  0  0  0  0  0  0  0  0  0  0  0
   10.1227    2.7844   -6.6317 C   0  0  0  0  0  0  0  0  0  0  0  0
    9.2075    2.9062   -7.8587 C   0  0  0  0  0  0  0  0  0  0  0  0
    7.8389    3.2106   -7.2403 C   0  0  0  0  0  0  0  0  0  0  0  0
    8.1900    4.1331   -6.0643 C   0  0  2  0  0  0  0  0  0  0  0  0
    8.3475    5.5386   -6.4829 N   0  0  0  0  0  0  0  0  0  0  0  0
    7.2713    6.3642   -6.6161 C   0  0  0  0  0  0  0  0  0  0  0  0
    6.1132    5.9853   -6.6198 O   0  0  0  0  0  0  0  0  0  0  0  0
    7.6851    7.6432   -6.7612 O   0  0  0  0  0  0  0  0  0  0  0  0
    6.7469    8.7505   -6.9461 C   0  0  1  0  0  0  0  0  0  0  0  0
    5.8322    8.8770   -5.7230 C   0  0  0  0  0  0  0  0  0  0  0  0
    7.6721    9.9646   -7.0563 C   0  0  0  0  0  0  0  0  0  0  0  0
    5.9525    8.5564   -8.2424 C   0  0  0  0  0  0  0  0  0  0  0  0
    9.9443    3.9729   -3.2020 C   0  0  0  0  0  0  0  0  0  0  0  0
    2.7972    3.2545   -8.4004 H   0  0  0  0  0  0  0  0  0  0  0  0
    2.6629    1.8108   -7.3694 H   0  0  0  0  0  0  0  0  0  0  0  0
    4.2445    2.2965   -8.0179 H   0  0  0  0  0  0  0  0  0  0  0  0
    2.5851    3.9485   -5.9979 H   0  0  0  0  0  0  0  0  0  0  0  0
    4.1644    4.4189   -6.6360 H   0  0  0  0  0  0  0  0  0  0  0  0
    5.2008    2.3915   -5.5991 H   0  0  0  0  0  0  0  0  0  0  0  0
    3.6398    1.9069   -4.9447 H   0  0  0  0  0  0  0  0  0  0  0  0
    3.5221    4.0963   -3.6701 H   0  0  0  0  0  0  0  0  0  0  0  0
    5.1198    4.5270   -4.2641 H   0  0  0  0  0  0  0  0  0  0  0  0
    4.4526    2.1047   -2.4969 H   0  0  0  0  0  0  0  0  0  0  0  0
    5.0241    3.6879   -1.9206 H   0  0  0  0  0  0  0  0  0  0  0  0
    5.9100    0.6300   -2.0627 H   0  0  0  0  0  0  0  0  0  0  0  0
    7.6463    0.9105   -2.0611 H   0  0  0  0  0  0  0  0  0  0  0  0
    9.1012    2.0233   -2.9497 H   0  0  0  0  0  0  0  0  0  0  0  0
    7.8352    1.8472   -0.0880 H   0  0  0  0  0  0  0  0  0  0  0  0
    8.6987    2.3427    2.1782 H   0  0  0  0  0  0  0  0  0  0  0  0
   10.5793    3.9366    2.4972 H   0  0  0  0  0  0  0  0  0  0  0  0
   11.6279    5.0556    0.5321 H   0  0  0  0  0  0  0  0  0  0  0  0
   12.4413    5.8560   -1.7647 H   0  0  0  0  0  0  0  0  0  0  0  0
   12.9002    6.3036   -4.1811 H   0  0  0  0  0  0  0  0  0  0  0  0
   11.5250    5.2336   -5.9315 H   0  0  0  0  0  0  0  0  0  0  0  0
   10.2181    1.7321   -6.3030 H   0  0  0  0  0  0  0  0  0  0  0  0
   11.1440    3.1465   -6.8389 H   0  0  0  0  0  0  0  0  0  0  0  0
    9.2142    2.0016   -8.4847 H   0  0  0  0  0  0  0  0  0  0  0  0
    9.5273    3.7524   -8.4879 H   0  0  0  0  0  0  0  0  0  0  0  0
    7.3812    2.2914   -6.8426 H   0  0  0  0  0  0  0  0  0  0  0  0
    7.1231    3.6855   -7.9242 H   0  0  0  0  0  0  0  0  0  0  0  0
    7.4084    4.1111   -5.2926 H   0  0  0  0  0  0  0  0  0  0  0  0
    9.2456    5.9842   -6.3347 H   0  0  0  0  0  0  0  0  0  0  0  0
    6.4327    8.9632   -4.8040 H   0  0  0  0  0  0  0  0  0  0  0  0
    5.1733    8.0047   -5.6312 H   0  0  0  0  0  0  0  0  0  0  0  0
    5.2125    9.7831   -5.8141 H   0  0  0  0  0  0  0  0  0  0  0  0
    8.2726   10.0770   -6.1409 H   0  0  0  0  0  0  0  0  0  0  0  0
    7.0828   10.8826   -7.2029 H   0  0  0  0  0  0  0  0  0  0  0  0
    8.3600    9.8510   -7.9081 H   0  0  0  0  0  0  0  0  0  0  0  0
    5.3041    7.6736   -8.1782 H   0  0  0  0  0  0  0  0  0  0  0  0
    6.6372    8.4330   -9.0964 H   0  0  0  0  0  0  0  0  0  0  0  0
    5.3268    9.4427   -8.4323 H   0  0  0  0  0  0  0  0  0  0  0  0
  1  2  1  0
  1 40  1  0
  1 41  1  0
  1 42  1  0
  2  3  1  0
  2 43  1  0
  2 44  1  0
  3  4  1  0
  3 45  1  0
  3 46  1  0
  4  5  1  0
  4 47  1  0
  4 48  1  0
  5  6  1  0
  5 49  1  0
  5 50  1  0
  6  7  1  0
  6 12  1  0
  7  8  1  0
  7 51  1  0
  7 52  1  0
  8  9  1  6
  8 10  1  0
  8 11  1  0
 12 13  2  0
 12 14  1  0
 14 15  1  0
 14 39  1  0
 14 53  1  6
 15 16  2  0
 15 20  1  0
 16 17  1  0
 16 54  1  0
 17 18  2  0
 17 55  1  0
 18 19  1  0
 18 56  1  0
 19 20  2  0
 19 57  1  0
 20 21  1  0
 21 22  2  0
 21 39  1  0
 22 23  1  0
 22 58  1  0
 23 24  2  0
 23 59  1  0
 24 25  1  0
 24 60  1  0
 25 26  1  0
 25 39  2  0
 26 27  1  0
 26 30  1  0
 27 28  1  0
 27 61  1  0
 27 62  1  0
 28 29  1  0
 28 63  1  0
 28 64  1  0
 29 30  1  0
 29 65  1  0
 29 66  1  0
 30 31  1  0
 30 67  1  1
 31 32  1  0
 31 68  1  0
 32 33  2  0
 32 34  1  0
 35 34  1  1
 35 36  1  0
 35 37  1  0
 35 38  1  0
 36 69  1  0
 36 70  1  0
 36 71  1  0
 37 72  1  0
 37 73  1  0
 37 74  1  0
 38 75  1  0
 38 76  1  0
 38 77  1  0
M  END

