
     RDKit          3D

 27 27  0  0  0  0  0  0  0  0999 V2000
    1.1205    2.0689    0.6275 C   0  0  0  0  0  0  0  0  0  0  0  0
    2.6471    2.0338    0.5574 C   0  0  0  0  0  0  0  0  0  0  0  0
    3.1770    1.0927   -0.5320 C   0  0  0  0  0  0  0  0  0  0  0  0
    4.6885    1.0348   -0.5675 C   0  0  1  0  0  0  0  0  0  0  0  0
    5.4863    0.4656   -1.8155 C   0  0  1  0  0  0  0  0  0  0  0  0
    4.7868   -0.0548   -3.0520 C   0  0  0  0  0  0  0  0  0  0  0  0
    5.7268   -0.1691   -4.2589 C   0  0  0  0  0  0  0  0  0  0  0  0
    5.0384   -0.7306   -5.5028 C   0  0  0  0  0  0  0  0  0  0  0  0
    5.6259    2.2212   -1.5181 S   0  0  1  0  0  0  0  0  0  0  0  0
    4.8082    3.0550   -2.4215 O   0  0  0  0  0  0  0  0  0  0  0  0
    6.8865    2.6917   -0.9264 O   0  0  0  0  0  0  0  0  0  0  0  0
    0.7722    2.7587    1.4121 H   0  0  0  0  0  0  0  0  0  0  0  0
    0.7043    1.0723    0.8512 H   0  0  0  0  0  0  0  0  0  0  0  0
    0.6838    2.4040   -0.3278 H   0  0  0  0  0  0  0  0  0  0  0  0
    3.0591    1.7302    1.5365 H   0  0  0  0  0  0  0  0  0  0  0  0
    3.0357    3.0483    0.3616 H   0  0  0  0  0  0  0  0  0  0  0  0
    2.7932    1.4196   -1.5108 H   0  0  0  0  0  0  0  0  0  0  0  0
    2.7909    0.0695   -0.3660 H   0  0  0  0  0  0  0  0  0  0  0  0
    5.1683    0.7995    0.3911 H   0  0  0  0  0  0  0  0  0  0  0  0
    6.3962   -0.0780   -1.5309 H   0  0  0  0  0  0  0  0  0  0  0  0
    3.9453    0.6065   -3.3102 H   0  0  0  0  0  0  0  0  0  0  0  0
    4.3520   -1.0448   -2.8186 H   0  0  0  0  0  0  0  0  0  0  0  0
    6.5911   -0.8034   -3.9918 H   0  0  0  0  0  0  0  0  0  0  0  0
    6.1366    0.8321   -4.4784 H   0  0  0  0  0  0  0  0  0  0  0  0
    4.6433   -1.7443   -5.3218 H   0  0  0  0  0  0  0  0  0  0  0  0
    5.7363   -0.7923   -6.3523 H   0  0  0  0  0  0  0  0  0  0  0  0
    4.1923   -0.0953   -5.8129 H   0  0  0  0  0  0  0  0  0  0  0  0
  1  2  1  0
  1 12  1  0
  1 13  1  0
  1 14  1  0
  2  3  1  0
  2 15  1  0
  2 16  1  0
  3  4  1  0
  3 17  1  0
  3 18  1  0
  4  5  1  0
  9  4  1  1
  4 19  1  1
  5  6  1  0
  5  9  1  0
  5 20  1  1
  6  7  1  0
  6 21  1  0
  6 22  1  0
  7  8  1  0
  7 23  1  0
  7 24  1  0
  8 25  1  0
  8 26  1  0
  8 27  1  0
  9 10  2  0
  9 11  2  0
M  END

