
     RDKit          3D

 37 39  0  0  0  0  0  0  0  0999 V2000
    2.2577    0.2571   -1.6676 N   0  0  0  0  0  0  0  0  0  0  0  0
    3.1407    0.1477   -0.9262 C   0  0  0  0  0  0  0  0  0  0  0  0
    4.2811    0.0255   -0.0007 C   0  0  0  0  0  0  0  0  0  0  0  0
    4.0719    0.6744    1.2846 N   0  0  0  0  0  0  0  0  0  0  0  0
    3.7451   -0.1369    2.3610 C   0  0  0  0  0  0  0  0  0  0  0  0
    3.6316   -1.3428    2.2578 O   0  0  0  0  0  0  0  0  0  0  0  0
    3.5030    0.6192    3.6750 C   0  0  1  0  0  0  0  0  0  0  0  0
    3.6587   -0.2920    4.8916 C   0  0  0  0  0  0  0  0  0  0  0  0
    3.1832    0.3329    6.1847 C   0  0  0  0  0  0  0  0  0  0  0  0
    1.9244    0.0095    6.7151 C   0  0  0  0  0  0  0  0  0  0  0  0
    1.4618    0.5912    7.8988 C   0  0  0  0  0  0  0  0  0  0  0  0
    2.2760    1.5084    8.5572 C   0  0  0  0  0  0  0  0  0  0  0  0
    1.8437    2.0707    9.6967 F   0  0  0  0  0  0  0  0  0  0  0  0
    3.5325    1.8521    8.0625 C   0  0  0  0  0  0  0  0  0  0  0  0
    3.9775    1.2619    6.8781 C   0  0  0  0  0  0  0  0  0  0  0  0
    4.4090    1.7091    3.7968 O   0  0  0  0  0  0  0  0  0  0  0  0
    4.3938    2.5759    2.7356 C   0  0  0  0  0  0  0  0  0  0  0  0
    4.5977    3.9397    2.9300 C   0  0  0  0  0  0  0  0  0  0  0  0
    4.6286    4.8144    1.8444 C   0  0  0  0  0  0  0  0  0  0  0  0
    4.4350    4.3367    0.5336 C   0  0  0  0  0  0  0  0  0  0  0  0
    4.4938    5.1943   -0.5571 N   0  0  0  0  0  0  0  0  0  0  0  0
    4.2271    2.9558    0.3432 C   0  0  0  0  0  0  0  0  0  0  0  0
    4.2167    2.0775    1.4326 C   0  0  0  0  0  0  0  0  0  0  0  0
    5.1791    0.4380   -0.4874 H   0  0  0  0  0  0  0  0  0  0  0  0
    4.4459   -1.0429    0.2029 H   0  0  0  0  0  0  0  0  0  0  0  0
    2.4647    1.0118    3.6337 H   0  0  0  0  0  0  0  0  0  0  0  0
    4.7219   -0.5742    4.9618 H   0  0  0  0  0  0  0  0  0  0  0  0
    3.1003   -1.2137    4.6782 H   0  0  0  0  0  0  0  0  0  0  0  0
    1.2915   -0.7173    6.1979 H   0  0  0  0  0  0  0  0  0  0  0  0
    0.4857    0.3403    8.3185 H   0  0  0  0  0  0  0  0  0  0  0  0
    4.1447    2.5719    8.6097 H   0  0  0  0  0  0  0  0  0  0  0  0
    4.9588    1.5294    6.4810 H   0  0  0  0  0  0  0  0  0  0  0  0
    4.7371    4.3042    3.9497 H   0  0  0  0  0  0  0  0  0  0  0  0
    4.7944    5.8814    2.0127 H   0  0  0  0  0  0  0  0  0  0  0  0
    4.3305    6.1755   -0.3633 H   0  0  0  0  0  0  0  0  0  0  0  0
    4.0331    4.8812   -1.4039 H   0  0  0  0  0  0  0  0  0  0  0  0
    4.0586    2.5837   -0.6681 H   0  0  0  0  0  0  0  0  0  0  0  0
  1  2  3  0
  2  3  1  0
  3  4  1  0
  3 24  1  0
  3 25  1  0
  4  5  1  0
  4 23  1  0
  5  6  2  0
  5  7  1  0
  7  8  1  0
  7 16  1  0
  7 26  1  6
  8  9  1  0
  8 27  1  0
  8 28  1  0
  9 10  2  0
  9 15  1  0
 10 11  1  0
 10 29  1  0
 11 12  2  0
 11 30  1  0
 12 13  1  0
 12 14  1  0
 14 15  2  0
 14 31  1  0
 15 32  1  0
 16 17  1  0
 17 18  1  0
 17 23  2  0
 18 19  2  0
 18 33  1  0
 19 20  1  0
 19 34  1  0
 20 21  1  0
 20 22  2  0
 21 35  1  0
 21 36  1  0
 22 23  1  0
 22 37  1  0
M  END

