
     RDKit          3D

 43 45  0  0  0  0  0  0  0  0999 V2000
    7.3755    3.9714   -1.1655 O   0  0  0  0  0  0  0  0  0  0  0  0
    6.5305    3.1719   -1.4879 C   0  0  0  0  0  0  0  0  0  0  0  0
    6.2101    2.9943   -2.7677 O   0  0  0  0  0  0  0  0  0  0  0  0
    5.8689    2.2870   -0.4028 C   0  0  1  0  0  0  0  0  0  0  0  0
    5.4710    3.1383    0.8194 C   0  0  0  0  0  0  0  0  0  0  0  0
    4.1797    3.9240    0.5598 C   0  0  0  0  0  0  0  0  0  0  0  0
    3.0412    3.0121    0.0747 C   0  0  0  0  0  0  0  0  0  0  0  0
    3.4692    2.2118   -1.0739 N   0  0  0  0  0  0  0  0  0  0  0  0
    3.0603    2.3706   -2.3798 C   0  0  0  0  0  0  0  0  0  0  0  0
    3.7682    2.0420   -3.3265 O   0  0  0  0  0  0  0  0  0  0  0  0
    1.7901    2.9051   -2.5486 N   0  0  0  0  0  0  0  0  0  0  0  0
    1.2026    3.2485   -3.7665 C   0  0  0  0  0  0  0  0  0  0  0  0
    1.3732    2.6576   -4.9025 N   0  0  0  0  0  0  0  0  0  0  0  0
    0.6473    3.2729   -5.8889 C   0  0  0  0  0  0  0  0  0  0  0  0
   -0.1256    4.3446   -5.5235 C   0  0  0  0  0  0  0  0  0  0  0  0
   -1.0609    5.1625   -6.3675 C   0  0  0  0  0  0  0  0  0  0  0  0
   -0.7282    6.6453   -6.4576 C   0  0  0  0  0  0  0  0  0  0  0  0
    0.5583    7.0744   -6.8232 C   0  0  0  0  0  0  0  0  0  0  0  0
    0.8482    8.4362   -6.9288 C   0  0  0  0  0  0  0  0  0  0  0  0
   -0.1340    9.3978   -6.6702 C   0  0  0  0  0  0  0  0  0  0  0  0
   -1.4038    8.9601   -6.3067 C   0  0  0  0  0  0  0  0  0  0  0  0
   -2.3612    9.8646   -6.0506 F   0  0  0  0  0  0  0  0  0  0  0  0
   -1.7143    7.6054   -6.1964 C   0  0  0  0  0  0  0  0  0  0  0  0
    0.1121    4.6428   -3.8143 S   0  0  0  0  0  0  0  0  0  0  0  0
    4.6791    1.4216   -0.8317 C   0  0  0  0  0  0  0  0  0  0  0  0
    5.3819    2.4825   -2.9544 H   0  0  0  0  0  0  0  0  0  0  0  0
    6.6822    1.6057   -0.0959 H   0  0  0  0  0  0  0  0  0  0  0  0
    6.2968    3.8208    1.0637 H   0  0  0  0  0  0  0  0  0  0  0  0
    5.3263    2.4695    1.6863 H   0  0  0  0  0  0  0  0  0  0  0  0
    4.3641    4.6999   -0.2034 H   0  0  0  0  0  0  0  0  0  0  0  0
    3.8572    4.4481    1.4747 H   0  0  0  0  0  0  0  0  0  0  0  0
    2.1665    3.6233   -0.1858 H   0  0  0  0  0  0  0  0  0  0  0  0
    2.7290    2.3307    0.8882 H   0  0  0  0  0  0  0  0  0  0  0  0
    1.2178    3.0385   -1.7249 H   0  0  0  0  0  0  0  0  0  0  0  0
    0.6898    2.8788   -6.9069 H   0  0  0  0  0  0  0  0  0  0  0  0
   -2.0955    5.0488   -6.0030 H   0  0  0  0  0  0  0  0  0  0  0  0
   -1.0441    4.7227   -7.3798 H   0  0  0  0  0  0  0  0  0  0  0  0
    1.3384    6.3351   -7.0207 H   0  0  0  0  0  0  0  0  0  0  0  0
    1.8529    8.7574   -7.2147 H   0  0  0  0  0  0  0  0  0  0  0  0
    0.0680   10.4680   -6.7433 H   0  0  0  0  0  0  0  0  0  0  0  0
   -2.7283    7.3186   -5.9078 H   0  0  0  0  0  0  0  0  0  0  0  0
    4.8938    0.8312   -1.7299 H   0  0  0  0  0  0  0  0  0  0  0  0
    4.4569    0.7089   -0.0170 H   0  0  0  0  0  0  0  0  0  0  0  0
  1  2  2  0
  2  3  1  0
  2  4  1  0
  3 26  1  0
  4  5  1  0
  4 25  1  0
  4 27  1  1
  5  6  1  0
  5 28  1  0
  5 29  1  0
  6  7  1  0
  6 30  1  0
  6 31  1  0
  7  8  1  0
  7 32  1  0
  7 33  1  0
  8  9  1  0
  8 25  1  0
  9 10  2  0
  9 11  1  0
 11 12  1  0
 11 34  1  0
 12 13  2  0
 12 24  1  0
 13 14  1  0
 14 15  2  0
 14 35  1  0
 15 16  1  0
 15 24  1  0
 16 17  1  0
 16 36  1  0
 16 37  1  0
 17 18  2  0
 17 23  1  0
 18 19  1  0
 18 38  1  0
 19 20  2  0
 19 39  1  0
 20 21  1  0
 20 40  1  0
 21 22  1  0
 21 23  2  0
 23 41  1  0
 25 42  1  0
 25 43  1  0
M  END

