
     RDKit          3D

 54 56  0  0  0  0  0  0  0  0999 V2000
    0.8679    2.0163    0.9603 C   0  0  0  0  0  0  0  0  0  0  0  0
    2.2279    2.6346    1.2820 C   0  0  0  0  0  0  0  0  0  0  0  0
    3.3301    1.7060    1.0581 N   0  0  0  0  0  0  0  0  0  0  0  0
    4.3567    1.8657    0.1410 C   0  0  0  0  0  0  0  0  0  0  0  0
    4.9339    0.9169   -0.5039 N   0  0  0  0  0  0  0  0  0  0  0  0
    4.4129   -0.4249   -0.4483 C   0  0  0  0  0  0  0  0  0  0  0  0
    4.9806   -1.2719   -1.6022 C   0  0  0  0  0  0  0  0  0  0  0  0
    4.5088   -2.7072   -1.5798 C   0  0  0  0  0  0  0  0  0  0  0  0
    5.2072   -3.6905   -0.8600 C   0  0  0  0  0  0  0  0  0  0  0  0
    4.7490   -5.0078   -0.8042 C   0  0  0  0  0  0  0  0  0  0  0  0
    3.5781   -5.3600   -1.4708 C   0  0  0  0  0  0  0  0  0  0  0  0
    3.1458   -6.6226   -1.4168 F   0  0  0  0  0  0  0  0  0  0  0  0
    2.8644   -4.4001   -2.1950 C   0  0  0  0  0  0  0  0  0  0  0  0
    1.2745   -4.9025   -3.1046 Br  0  0  0  0  0  0  0  0  0  0  0  0
    3.3315   -3.0842   -2.2449 C   0  0  0  0  0  0  0  0  0  0  0  0
    4.7685    3.1966   -0.0600 N   0  0  0  0  0  0  0  0  0  0  0  0
    5.6206    3.4424   -1.2239 C   0  0  0  0  0  0  0  0  0  0  0  0
    5.6299    4.9343   -1.5641 C   0  0  0  0  0  0  0  0  0  0  0  0
    6.0656    5.8254   -0.3825 C   0  0  2  0  0  0  0  0  0  0  0  0
    7.5739    5.7529   -0.1105 C   0  0  0  0  0  0  0  0  0  0  0  0
    5.1729    5.4550    0.8303 C   0  0  2  0  0  0  0  0  0  0  0  0
    5.4461    6.2374    2.0340 N   0  0  0  0  0  0  0  0  0  0  0  0
    6.4100    6.0317    3.0046 C   0  0  0  0  0  0  0  0  0  0  0  0
    6.2562    7.0628    3.9064 C   0  0  0  0  0  0  0  0  0  0  0  0
    5.2342    7.8906    3.5203 N   0  0  0  0  0  0  0  0  0  0  0  0
    4.7737    7.3735    2.4050 C   0  0  0  0  0  0  0  0  0  0  0  0
    5.1918    3.9469    1.1233 C   0  0  0  0  0  0  0  0  0  0  0  0
    0.0578    2.7345    1.1645 H   0  0  0  0  0  0  0  0  0  0  0  0
    0.6773    1.1227    1.5784 H   0  0  0  0  0  0  0  0  0  0  0  0
    0.8060    1.7172   -0.0981 H   0  0  0  0  0  0  0  0  0  0  0  0
    2.2286    2.9934    2.3289 H   0  0  0  0  0  0  0  0  0  0  0  0
    2.4023    3.5132    0.6448 H   0  0  0  0  0  0  0  0  0  0  0  0
    3.1468    0.7464    1.3243 H   0  0  0  0  0  0  0  0  0  0  0  0
    3.3017   -0.4553   -0.4955 H   0  0  0  0  0  0  0  0  0  0  0  0
    4.6843   -0.9215    0.5083 H   0  0  0  0  0  0  0  0  0  0  0  0
    6.0797   -1.2281   -1.5439 H   0  0  0  0  0  0  0  0  0  0  0  0
    4.6975   -0.7900   -2.5519 H   0  0  0  0  0  0  0  0  0  0  0  0
    6.1308   -3.4240   -0.3392 H   0  0  0  0  0  0  0  0  0  0  0  0
    5.2878   -5.7810   -0.2524 H   0  0  0  0  0  0  0  0  0  0  0  0
    2.7673   -2.3463   -2.8195 H   0  0  0  0  0  0  0  0  0  0  0  0
    5.2300    2.8530   -2.0628 H   0  0  0  0  0  0  0  0  0  0  0  0
    6.6464    3.0645   -1.0446 H   0  0  0  0  0  0  0  0  0  0  0  0
    4.6136    5.2249   -1.8816 H   0  0  0  0  0  0  0  0  0  0  0  0
    6.2947    5.1074   -2.4262 H   0  0  0  0  0  0  0  0  0  0  0  0
    5.8312    6.8730   -0.6399 H   0  0  0  0  0  0  0  0  0  0  0  0
    7.9087    4.7421    0.1708 H   0  0  0  0  0  0  0  0  0  0  0  0
    7.8724    6.4422    0.6928 H   0  0  0  0  0  0  0  0  0  0  0  0
    8.1310    6.0390   -1.0167 H   0  0  0  0  0  0  0  0  0  0  0  0
    4.1371    5.7027    0.5472 H   0  0  0  0  0  0  0  0  0  0  0  0
    7.1021    5.1954    2.9742 H   0  0  0  0  0  0  0  0  0  0  0  0
    6.8316    7.2426    4.8143 H   0  0  0  0  0  0  0  0  0  0  0  0
    3.9470    7.7647    1.8097 H   0  0  0  0  0  0  0  0  0  0  0  0
    4.5217    3.7334    1.9650 H   0  0  0  0  0  0  0  0  0  0  0  0
    6.2074    3.6277    1.4356 H   0  0  0  0  0  0  0  0  0  0  0  0
  1  2  1  0
  1 28  1  0
  1 29  1  0
  1 30  1  0
  2  3  1  0
  2 31  1  0
  2 32  1  0
  3  4  1  0
  3 33  1  0
  4  5  2  0
  4 16  1  0
  5  6  1  0
  6  7  1  0
  6 34  1  0
  6 35  1  0
  7  8  1  0
  7 36  1  0
  7 37  1  0
  8  9  2  0
  8 15  1  0
  9 10  1  0
  9 38  1  0
 10 11  2  0
 10 39  1  0
 11 12  1  0
 11 13  1  0
 13 14  1  0
 13 15  2  0
 15 40  1  0
 16 17  1  0
 16 27  1  0
 17 18  1  0
 17 41  1  0
 17 42  1  0
 18 19  1  0
 18 43  1  0
 18 44  1  0
 19 20  1  0
 19 21  1  0
 19 45  1  6
 20 46  1  0
 20 47  1  0
 20 48  1  0
 21 22  1  0
 21 27  1  0
 21 49  1  6
 22 23  1  0
 22 26  1  0
 23 24  2  0
 23 50  1  0
 24 25  1  0
 24 51  1  0
 25 26  2  0
 26 52  1  0
 27 53  1  0
 27 54  1  0
M  END

