
     RDKit          3D

 34 37  0  0  0  0  0  0  0  0999 V2000
    1.0523    0.1023   -0.0277 N   0  0  0  0  0  0  0  0  0  0  0  0
    2.2133    0.0747   -0.0475 C   0  0  0  0  0  0  0  0  0  0  0  0
    3.6493    0.0484   -0.0709 C   0  0  0  0  0  0  0  0  0  0  0  0
    4.3346    1.2217   -0.2778 C   0  0  0  0  0  0  0  0  0  0  0  0
    5.7560    1.2504   -0.2034 C   0  0  0  0  0  0  0  0  0  0  0  0
    6.4446    2.4884   -0.2697 C   0  0  0  0  0  0  0  0  0  0  0  0
    7.8063    2.5637   -0.0593 C   0  0  0  0  0  0  0  0  0  0  0  0
    8.5096    1.3863    0.2684 C   0  0  0  0  0  0  0  0  0  0  0  0
    9.9830    1.4283    0.5979 C   0  0  1  0  0  0  0  0  0  0  0  0
   10.4851    2.6706    0.5200 F   0  0  0  0  0  0  0  0  0  0  0  0
   10.2247    0.9714    1.8405 F   0  0  0  0  0  0  0  0  0  0  0  0
   10.6958    0.6530   -0.2434 F   0  0  0  0  0  0  0  0  0  0  0  0
    7.8626    0.1603    0.3103 C   0  0  0  0  0  0  0  0  0  0  0  0
    6.4823    0.0312    0.0122 C   0  0  0  0  0  0  0  0  0  0  0  0
    5.7668   -1.2396    0.0060 C   0  0  0  0  0  0  0  0  0  0  0  0
    4.3500   -1.2075    0.0935 C   0  0  0  0  0  0  0  0  0  0  0  0
    3.6095   -2.4063    0.3400 C   0  0  0  0  0  0  0  0  0  0  0  0
    4.2437   -3.6084    0.4618 C   0  0  0  0  0  0  0  0  0  0  0  0
    5.6471   -3.7208    0.2198 C   0  0  0  0  0  0  0  0  0  0  0  0
    6.2679   -4.9964    0.2027 C   0  0  0  0  0  0  0  0  0  0  0  0
    7.5907   -5.1424   -0.1646 C   0  0  0  0  0  0  0  0  0  0  0  0
    8.3230   -4.0061   -0.5653 C   0  0  0  0  0  0  0  0  0  0  0  0
    7.7501   -2.7467   -0.5243 C   0  0  0  0  0  0  0  0  0  0  0  0
    6.4138   -2.5439   -0.0764 C   0  0  0  0  0  0  0  0  0  0  0  0
    3.7894    2.1528   -0.4438 H   0  0  0  0  0  0  0  0  0  0  0  0
    5.8694    3.3968   -0.4653 H   0  0  0  0  0  0  0  0  0  0  0  0
    8.3295    3.5192   -0.1055 H   0  0  0  0  0  0  0  0  0  0  0  0
    8.4305   -0.7107    0.6273 H   0  0  0  0  0  0  0  0  0  0  0  0
    2.5255   -2.3393    0.4492 H   0  0  0  0  0  0  0  0  0  0  0  0
    3.6749   -4.5130    0.6912 H   0  0  0  0  0  0  0  0  0  0  0  0
    5.6651   -5.8713    0.4601 H   0  0  0  0  0  0  0  0  0  0  0  0
    8.0551   -6.1312   -0.1827 H   0  0  0  0  0  0  0  0  0  0  0  0
    9.3472   -4.1178   -0.9294 H   0  0  0  0  0  0  0  0  0  0  0  0
    8.3327   -1.9078   -0.8981 H   0  0  0  0  0  0  0  0  0  0  0  0
  1  2  3  0
  2  3  1  0
  3  4  2  0
  3 16  1  0
  4  5  1  0
  4 25  1  0
  5  6  2  0
  5 14  1  0
  6  7  1  0
  6 26  1  0
  7  8  2  0
  7 27  1  0
  8  9  1  0
  8 13  1  0
  9 10  1  1
  9 11  1  0
  9 12  1  0
 13 14  2  0
 13 28  1  0
 14 15  1  0
 15 16  2  0
 15 24  1  0
 16 17  1  0
 17 18  2  0
 17 29  1  0
 18 19  1  0
 18 30  1  0
 19 20  1  0
 19 24  2  0
 20 21  2  0
 20 31  1  0
 21 22  1  0
 21 32  1  0
 22 23  2  0
 22 33  1  0
 23 24  1  0
 23 34  1  0
M  END

