
     RDKit          3D

 58 64  0  0  0  0  0  0  0  0999 V2000
    0.8842    0.0620    0.4369 O   0  0  0  0  0  0  0  0  0  0  0  0
    2.0872   -0.0166    0.2237 C   0  0  0  0  0  0  0  0  0  0  0  0
    2.8007   -1.3175    0.2013 C   0  0  0  0  0  0  0  0  0  0  0  0
    2.0114   -2.4789    0.2498 C   0  0  0  0  0  0  0  0  0  0  0  0
    2.5826   -3.7352    0.0954 C   0  0  0  0  0  0  0  0  0  0  0  0
    3.9602   -3.8227   -0.1386 C   0  0  0  0  0  0  0  0  0  0  0  0
    4.7538   -2.6782   -0.1613 C   0  0  0  0  0  0  0  0  0  0  0  0
    4.2105   -1.3906    0.0480 C   0  0  0  0  0  0  0  0  0  0  0  0
    5.0259   -0.1421    0.0382 C   0  0  0  0  0  0  0  0  0  0  0  0
    6.4232   -0.0995    0.2080 C   0  0  0  0  0  0  0  0  0  0  0  0
    7.2038   -1.2771    0.7114 C   0  0  0  0  0  0  0  0  0  0  0  0
    8.1821   -1.9151   -0.0704 C   0  0  0  0  0  0  0  0  0  0  0  0
    8.9043   -2.9988    0.4342 C   0  0  0  0  0  0  0  0  0  0  0  0
    8.6723   -3.4557    1.7355 C   0  0  0  0  0  0  0  0  0  0  0  0
    7.7114   -2.8207    2.5276 C   0  0  0  0  0  0  0  0  0  0  0  0
    6.9829   -1.7427    2.0189 C   0  0  0  0  0  0  0  0  0  0  0  0
    7.1548    1.1198   -0.0215 C   0  0  0  0  0  0  0  0  0  0  0  0
    8.6503    1.1387    0.1243 C   0  0  0  0  0  0  0  0  0  0  0  0
    9.4794    1.2438   -1.0043 C   0  0  0  0  0  0  0  0  0  0  0  0
   10.8700    1.2779   -0.8709 C   0  0  0  0  0  0  0  0  0  0  0  0
   11.4561    1.2121    0.3961 C   0  0  0  0  0  0  0  0  0  0  0  0
   10.6412    1.1113    1.5276 C   0  0  0  0  0  0  0  0  0  0  0  0
    9.2514    1.0733    1.3920 C   0  0  0  0  0  0  0  0  0  0  0  0
    6.4934    2.2937   -0.3751 C   0  0  0  0  0  0  0  0  0  0  0  0
    7.2476    3.5551   -0.6691 C   0  0  0  0  0  0  0  0  0  0  0  0
    7.3477    4.0310   -1.9881 C   0  0  0  0  0  0  0  0  0  0  0  0
    8.0407    5.2107   -2.2725 C   0  0  0  0  0  0  0  0  0  0  0  0
    8.6402    5.9390   -1.2406 C   0  0  0  0  0  0  0  0  0  0  0  0
    8.5406    5.4796    0.0758 C   0  0  0  0  0  0  0  0  0  0  0  0
    7.8507    4.2978    0.3589 C   0  0  0  0  0  0  0  0  0  0  0  0
    5.0603    2.3121   -0.4013 C   0  0  0  0  0  0  0  0  0  0  0  0
    4.3422    3.5236   -0.6079 C   0  0  0  0  0  0  0  0  0  0  0  0
    2.9623    3.5633   -0.5547 C   0  0  0  0  0  0  0  0  0  0  0  0
    2.2444    2.3878   -0.2812 C   0  0  0  0  0  0  0  0  0  0  0  0
    2.9053    1.1801   -0.0975 C   0  0  0  0  0  0  0  0  0  0  0  0
    4.3308    1.1016   -0.1676 C   0  0  0  0  0  0  0  0  0  0  0  0
    0.9365   -2.3475    0.3871 H   0  0  0  0  0  0  0  0  0  0  0  0
    1.9648   -4.6360    0.1276 H   0  0  0  0  0  0  0  0  0  0  0  0
    4.4277   -4.7957   -0.3103 H   0  0  0  0  0  0  0  0  0  0  0  0
    5.8132   -2.7976   -0.3634 H   0  0  0  0  0  0  0  0  0  0  0  0
    8.3713   -1.5660   -1.0874 H   0  0  0  0  0  0  0  0  0  0  0  0
    9.6554   -3.4868   -0.1922 H   0  0  0  0  0  0  0  0  0  0  0  0
    9.2409   -4.3010    2.1313 H   0  0  0  0  0  0  0  0  0  0  0  0
    7.5254   -3.1667    3.5476 H   0  0  0  0  0  0  0  0  0  0  0  0
    6.2281   -1.2541    2.6399 H   0  0  0  0  0  0  0  0  0  0  0  0
    9.0285    1.2996   -1.9979 H   0  0  0  0  0  0  0  0  0  0  0  0
   11.4977    1.3584   -1.7622 H   0  0  0  0  0  0  0  0  0  0  0  0
   12.5436    1.2402    0.5018 H   0  0  0  0  0  0  0  0  0  0  0  0
   11.0894    1.0609    2.5234 H   0  0  0  0  0  0  0  0  0  0  0  0
    8.6226    0.9896    2.2814 H   0  0  0  0  0  0  0  0  0  0  0  0
    6.8787    3.4667   -2.7985 H   0  0  0  0  0  0  0  0  0  0  0  0
    8.1124    5.5618   -3.3052 H   0  0  0  0  0  0  0  0  0  0  0  0
    9.1820    6.8621   -1.4616 H   0  0  0  0  0  0  0  0  0  0  0  0
    9.0032    6.0439    0.8897 H   0  0  0  0  0  0  0  0  0  0  0  0
    7.7782    3.9444    1.3899 H   0  0  0  0  0  0  0  0  0  0  0  0
    4.9028    4.4401   -0.7927 H   0  0  0  0  0  0  0  0  0  0  0  0
    2.4343    4.5079   -0.7056 H   0  0  0  0  0  0  0  0  0  0  0  0
    1.1560    2.3879   -0.1946 H   0  0  0  0  0  0  0  0  0  0  0  0
  1  2  2  0
  2  3  1  0
  2 35  1  0
  3  4  1  0
  3  8  2  0
  4  5  2  0
  4 37  1  0
  5  6  1  0
  5 38  1  0
  6  7  2  0
  6 39  1  0
  7  8  1  0
  7 40  1  0
  8  9  1  0
  9 10  1  0
  9 36  2  0
 10 11  1  0
 10 17  2  0
 11 12  2  0
 11 16  1  0
 12 13  1  0
 12 41  1  0
 13 14  2  0
 13 42  1  0
 14 15  1  0
 14 43  1  0
 15 16  2  0
 15 44  1  0
 16 45  1  0
 17 18  1  0
 17 24  1  0
 18 19  2  0
 18 23  1  0
 19 20  1  0
 19 46  1  0
 20 21  2  0
 20 47  1  0
 21 22  1  0
 21 48  1  0
 22 23  2  0
 22 49  1  0
 23 50  1  0
 24 25  1  0
 24 31  2  0
 25 26  2  0
 25 30  1  0
 26 27  1  0
 26 51  1  0
 27 28  2  0
 27 52  1  0
 28 29  1  0
 28 53  1  0
 29 30  2  0
 29 54  1  0
 30 55  1  0
 31 32  1  0
 31 36  1  0
 32 33  2  0
 32 56  1  0
 33 34  1  0
 33 57  1  0
 34 35  2  0
 34 58  1  0
 35 36  1  0
M  END

