
     RDKit          3D

 40 41  0  0  0  0  0  0  0  0999 V2000
    1.6847   -2.6729    2.2430 C   0  0  0  0  0  0  0  0  0  0  0  0
    3.1343   -2.4266    1.9021 C   0  0  0  0  0  0  0  0  0  0  0  0
    4.1741   -2.9324    2.6971 C   0  0  0  0  0  0  0  0  0  0  0  0
    5.5135   -2.7055    2.3773 C   0  0  0  0  0  0  0  0  0  0  0  0
    5.8571   -1.9455    1.2476 C   0  0  0  0  0  0  0  0  0  0  0  0
    7.5910   -1.6573    0.9556 S   0  0  0  0  0  0  0  0  0  0  0  0
    7.6778   -1.2460   -0.8339 C   0  0  0  0  0  0  0  0  0  0  0  0
    9.1015   -1.4816   -1.3467 C   0  0  0  0  0  0  0  0  0  0  0  0
    9.4887   -2.8747   -1.3283 N   0  0  0  0  0  0  0  0  0  0  0  0
    9.8268   -3.5637   -2.4663 C   0  0  0  0  0  0  0  0  0  0  0  0
    9.8778   -3.0328   -3.5680 O   0  0  0  0  0  0  0  0  0  0  0  0
   10.1346   -5.0055   -2.2403 C   0  0  0  0  0  0  0  0  0  0  0  0
   10.4924   -5.7895   -3.2747 C   0  0  0  0  0  0  0  0  0  0  0  0
   10.8311   -7.2157   -3.2577 C   0  0  0  0  0  0  0  0  0  0  0  0
   11.1824   -7.8419   -4.4703 C   0  0  0  0  0  0  0  0  0  0  0  0
   11.5144   -9.1972   -4.5142 C   0  0  0  0  0  0  0  0  0  0  0  0
   11.5022   -9.9581   -3.3423 C   0  0  0  0  0  0  0  0  0  0  0  0
   11.1554   -9.3525   -2.1275 C   0  0  0  0  0  0  0  0  0  0  0  0
   10.8242   -8.0000   -2.0848 C   0  0  0  0  0  0  0  0  0  0  0  0
    4.8266   -1.4239    0.4487 C   0  0  0  0  0  0  0  0  0  0  0  0
    3.4916   -1.6731    0.7732 C   0  0  0  0  0  0  0  0  0  0  0  0
    1.5815   -3.3439    3.1086 H   0  0  0  0  0  0  0  0  0  0  0  0
    1.1432   -3.1284    1.3974 H   0  0  0  0  0  0  0  0  0  0  0  0
    1.1640   -1.7312    2.4872 H   0  0  0  0  0  0  0  0  0  0  0  0
    3.9337   -3.5285    3.5823 H   0  0  0  0  0  0  0  0  0  0  0  0
    6.3012   -3.1286    3.0060 H   0  0  0  0  0  0  0  0  0  0  0  0
    7.3970   -0.1923   -0.9874 H   0  0  0  0  0  0  0  0  0  0  0  0
    6.9691   -1.8865   -1.3801 H   0  0  0  0  0  0  0  0  0  0  0  0
    9.8144   -0.8699   -0.7629 H   0  0  0  0  0  0  0  0  0  0  0  0
    9.1706   -1.1535   -2.3941 H   0  0  0  0  0  0  0  0  0  0  0  0
    9.4025   -3.3752   -0.4508 H   0  0  0  0  0  0  0  0  0  0  0  0
   10.0617   -5.3946   -1.2198 H   0  0  0  0  0  0  0  0  0  0  0  0
   10.5340   -5.2921   -4.2504 H   0  0  0  0  0  0  0  0  0  0  0  0
   11.1928   -7.2488   -5.3888 H   0  0  0  0  0  0  0  0  0  0  0  0
   11.7836   -9.6605   -5.4667 H   0  0  0  0  0  0  0  0  0  0  0  0
   11.7615  -11.0194   -3.3720 H   0  0  0  0  0  0  0  0  0  0  0  0
   11.1440   -9.9424   -1.2074 H   0  0  0  0  0  0  0  0  0  0  0  0
   10.5564   -7.5459   -1.1282 H   0  0  0  0  0  0  0  0  0  0  0  0
    5.0539   -0.8146   -0.4274 H   0  0  0  0  0  0  0  0  0  0  0  0
    2.7072   -1.2606    0.1311 H   0  0  0  0  0  0  0  0  0  0  0  0
  1  2  1  0
  1 22  1  0
  1 23  1  0
  1 24  1  0
  2  3  2  0
  2 21  1  0
  3  4  1  0
  3 25  1  0
  4  5  2  0
  4 26  1  0
  5  6  1  0
  5 20  1  0
  6  7  1  0
  7  8  1  0
  7 27  1  0
  7 28  1  0
  8  9  1  0
  8 29  1  0
  8 30  1  0
  9 10  1  0
  9 31  1  0
 10 11  2  0
 10 12  1  0
 12 13  2  0
 12 32  1  0
 13 14  1  0
 13 33  1  0
 14 15  2  0
 14 19  1  0
 15 16  1  0
 15 34  1  0
 16 17  2  0
 16 35  1  0
 17 18  1  0
 17 36  1  0
 18 19  2  0
 18 37  1  0
 19 38  1  0
 20 21  2  0
 20 39  1  0
 21 40  1  0
M  END

