
     RDKit          3D

 75 82  0  0  0  0  0  0  0  0999 V2000
    5.5186    2.0097    1.3243 C   0  0  0  0  0  0  0  0  0  0  0  0
    4.6444    1.0785    0.5526 C   0  0  0  0  0  0  0  0  0  0  0  0
    5.0265    0.5427   -0.6222 N   0  0  0  0  0  0  0  0  0  0  0  0
    4.0141   -0.2946   -1.0864 C   0  0  0  0  0  0  0  0  0  0  0  0
    4.1251   -0.9704   -2.3174 C   0  0  0  0  0  0  0  0  0  0  0  0
    3.0370   -1.8758   -2.7673 C   0  0  0  0  0  0  0  0  0  0  0  0
    2.4125   -1.6876   -4.0140 C   0  0  0  0  0  0  0  0  0  0  0  0
    1.3859   -2.5319   -4.4397 C   0  0  0  0  0  0  0  0  0  0  0  0
    0.9800   -3.5876   -3.6183 C   0  0  0  0  0  0  0  0  0  0  0  0
   -0.4145   -4.7484   -4.1958 Br  0  0  0  0  0  0  0  0  0  0  0  0
    1.5874   -3.7995   -2.3773 C   0  0  0  0  0  0  0  0  0  0  0  0
    2.6054   -2.9422   -1.9571 C   0  0  0  0  0  0  0  0  0  0  0  0
    5.2667   -0.7862   -3.1189 C   0  0  0  0  0  0  0  0  0  0  0  0
    5.6421   -1.3880   -4.3525 C   0  0  0  0  0  0  0  0  0  0  0  0
    6.8841   -0.8701   -4.6949 C   0  0  0  0  0  0  0  0  0  0  0  0
    7.2654    0.0315   -3.6684 C   0  0  0  0  0  0  0  0  0  0  0  0
    8.5201    0.8319   -3.5652 C   0  0  0  0  0  0  0  0  0  0  0  0
    6.2937    0.0720   -2.7323 N   0  0  0  0  0  0  0  0  0  0  0  0
    6.3436    0.8878   -1.4006 B   0  0  1  0  0  0  0  0  0  0  0  0
    6.3810    2.2496   -1.6707 F   0  0  0  0  0  0  0  0  0  0  0  0
    7.4559    0.5047   -0.6575 F   0  0  0  0  0  0  0  0  0  0  0  0
    2.9540   -0.2548   -0.1477 C   0  0  0  0  0  0  0  0  0  0  0  0
    3.3343    0.6044    0.8876 C   0  0  0  0  0  0  0  0  0  0  0  0
    2.5446    0.9378    2.0703 C   0  0  0  0  0  0  0  0  0  0  0  0
    2.5687    2.0844    2.8756 C   0  0  0  0  0  0  0  0  0  0  0  0
    1.5748    1.9254    3.8772 C   0  0  0  0  0  0  0  0  0  0  0  0
    0.9608    0.6901    3.6835 N   0  0  0  0  0  0  0  0  0  0  0  0
    1.5250    0.1090    2.6238 C   0  0  0  0  0  0  0  0  0  0  0  0
   -0.1243    0.0483    4.6242 B   0  0  2  0  0  0  0  0  0  0  0  0
    0.4454   -0.9775    5.3554 F   0  0  0  0  0  0  0  0  0  0  0  0
   -1.1950   -0.3957    3.8754 F   0  0  0  0  0  0  0  0  0  0  0  0
   -0.5676    1.2065    5.5830 N   0  0  0  0  0  0  0  0  0  0  0  0
   -1.5675    1.1577    6.4739 C   0  0  0  0  0  0  0  0  0  0  0  0
   -1.6072    2.3493    7.2329 C   0  0  0  0  0  0  0  0  0  0  0  0
   -0.5703    3.1525    6.7670 C   0  0  0  0  0  0  0  0  0  0  0  0
    0.0794    2.4312    5.7269 C   0  0  0  0  0  0  0  0  0  0  0  0
    1.1533    2.7968    4.8959 C   0  0  0  0  0  0  0  0  0  0  0  0
    1.8317    4.1175    5.0799 C   0  0  0  0  0  0  0  0  0  0  0  0
    2.9357    4.2182    5.9540 C   0  0  0  0  0  0  0  0  0  0  0  0
    3.4460    3.0157    6.7131 C   0  0  0  0  0  0  0  0  0  0  0  0
    3.5584    5.4653    6.1095 C   0  0  0  0  0  0  0  0  0  0  0  0
    3.1198    6.6053    5.4277 C   0  0  0  0  0  0  0  0  0  0  0  0
    3.8025    7.9398    5.6047 C   0  0  0  0  0  0  0  0  0  0  0  0
    2.0208    6.4753    4.5672 C   0  0  0  0  0  0  0  0  0  0  0  0
    1.3651    5.2533    4.3774 C   0  0  0  0  0  0  0  0  0  0  0  0
    0.1843    5.1625    3.4391 C   0  0  0  0  0  0  0  0  0  0  0  0
    6.5765    1.7768    1.1470 H   0  0  0  0  0  0  0  0  0  0  0  0
    5.3067    1.9363    2.3997 H   0  0  0  0  0  0  0  0  0  0  0  0
    5.3525    3.0553    1.0125 H   0  0  0  0  0  0  0  0  0  0  0  0
    2.7185   -0.8541   -4.6495 H   0  0  0  0  0  0  0  0  0  0  0  0
    0.9001   -2.3670   -5.4027 H   0  0  0  0  0  0  0  0  0  0  0  0
    1.2708   -4.6306   -1.7451 H   0  0  0  0  0  0  0  0  0  0  0  0
    3.0891   -3.1175   -0.9941 H   0  0  0  0  0  0  0  0  0  0  0  0
    5.0583   -2.1236   -4.9004 H   0  0  0  0  0  0  0  0  0  0  0  0
    7.4793   -1.1027   -5.5759 H   0  0  0  0  0  0  0  0  0  0  0  0
    9.1525    0.6779   -4.4496 H   0  0  0  0  0  0  0  0  0  0  0  0
    9.0845    0.5502   -2.6622 H   0  0  0  0  0  0  0  0  0  0  0  0
    8.2877    1.9040   -3.4663 H   0  0  0  0  0  0  0  0  0  0  0  0
    2.0045   -0.7749   -0.2475 H   0  0  0  0  0  0  0  0  0  0  0  0
    3.1881    2.9695    2.7580 H   0  0  0  0  0  0  0  0  0  0  0  0
    1.2061   -0.8801    2.2965 H   0  0  0  0  0  0  0  0  0  0  0  0
   -2.2113    0.2811    6.5385 H   0  0  0  0  0  0  0  0  0  0  0  0
   -2.3211    2.5783    8.0214 H   0  0  0  0  0  0  0  0  0  0  0  0
   -0.2923    4.1487    7.1050 H   0  0  0  0  0  0  0  0  0  0  0  0
    2.6705    2.5947    7.3729 H   0  0  0  0  0  0  0  0  0  0  0  0
    4.3132    3.2796    7.3350 H   0  0  0  0  0  0  0  0  0  0  0  0
    3.7512    2.2055    6.0315 H   0  0  0  0  0  0  0  0  0  0  0  0
    4.4141    5.5430    6.7866 H   0  0  0  0  0  0  0  0  0  0  0  0
    4.6357    7.8778    6.3199 H   0  0  0  0  0  0  0  0  0  0  0  0
    3.0974    8.7037    5.9729 H   0  0  0  0  0  0  0  0  0  0  0  0
    4.2061    8.3117    4.6481 H   0  0  0  0  0  0  0  0  0  0  0  0
    1.6598    7.3539    4.0238 H   0  0  0  0  0  0  0  0  0  0  0  0
   -0.0393    6.1405    2.9898 H   0  0  0  0  0  0  0  0  0  0  0  0
   -0.7214    4.8135    3.9607 H   0  0  0  0  0  0  0  0  0  0  0  0
    0.3712    4.4485    2.6209 H   0  0  0  0  0  0  0  0  0  0  0  0
  1  2  1  0
  1 47  1  0
  1 48  1  0
  1 49  1  0
  2  3  1  0
  2 23  2  0
  3  4  1  0
  3 19  1  0
  4  5  1  0
  4 22  2  0
  5  6  1  0
  5 13  2  0
  6  7  2  0
  6 12  1  0
  7  8  1  0
  7 50  1  0
  8  9  2  0
  8 51  1  0
  9 10  1  0
  9 11  1  0
 11 12  2  0
 11 52  1  0
 12 53  1  0
 13 14  1  0
 13 18  1  0
 14 15  2  0
 14 54  1  0
 15 16  1  0
 15 55  1  0
 16 17  1  0
 16 18  2  0
 17 56  1  0
 17 57  1  0
 17 58  1  0
 18 19  1  0
 19 20  1  6
 19 21  1  0
 22 23  1  0
 22 59  1  0
 23 24  1  0
 24 25  1  0
 24 28  2  0
 25 26  2  0
 25 60  1  0
 26 27  1  0
 26 37  1  0
 27 28  1  0
 27 29  1  0
 28 61  1  0
 29 30  1  1
 29 31  1  0
 29 32  1  0
 32 33  2  0
 32 36  1  0
 33 34  1  0
 33 62  1  0
 34 35  2  0
 34 63  1  0
 35 36  1  0
 35 64  1  0
 36 37  2  0
 37 38  1  0
 38 39  2  0
 38 45  1  0
 39 40  1  0
 39 41  1  0
 40 65  1  0
 40 66  1  0
 40 67  1  0
 41 42  2  0
 41 68  1  0
 42 43  1  0
 42 44  1  0
 43 69  1  0
 43 70  1  0
 43 71  1  0
 44 45  2  0
 44 72  1  0
 45 46  1  0
 46 73  1  0
 46 74  1  0
 46 75  1  0
M  CHG  4  18   1  19  -1  29  -1  32   1
M  END

