
     RDKit          3D

 55 58  0  0  0  0  0  0  0  0999 V2000
    7.4920   -2.7542   -0.8532 C   0  0  0  0  0  0  0  0  0  0  0  0
    7.2914   -2.4643   -2.3432 C   0  0  1  0  0  0  0  0  0  0  0  0
    8.2764   -2.5163   -2.8367 H   0  0  0  0  0  0  0  0  0  0  0  0
    6.3809   -3.4974   -3.0260 C   0  0  0  0  0  0  0  0  0  0  0  0
    4.9956   -3.1898   -2.6880 N   0  0  0  0  0  0  0  0  0  0  0  0
    3.8661   -4.4308   -2.5627 S   0  0  1  0  0  0  0  0  0  0  0  0
    4.5587   -5.5326   -1.8920 O   0  0  0  0  0  0  0  0  0  0  0  0
    2.6577   -3.8138   -2.0106 O   0  0  0  0  0  0  0  0  0  0  0  0
    3.4803   -4.9686   -4.2292 C   0  0  0  0  0  0  0  0  0  0  0  0
    4.2500   -5.9656   -4.8384 C   0  0  0  0  0  0  0  0  0  0  0  0
    3.9795   -6.3656   -6.1462 C   0  0  0  0  0  0  0  0  0  0  0  0
    2.9184   -5.7676   -6.8553 C   0  0  0  0  0  0  0  0  0  0  0  0
    2.5850   -6.1127   -8.1703 N   0  0  0  0  0  0  0  0  0  0  0  0
    3.1608   -7.0538   -8.9950 C   0  0  0  0  0  0  0  0  0  0  0  0
    4.1017   -7.7584   -8.6840 O   0  0  0  0  0  0  0  0  0  0  0  0
    2.5496   -7.1309  -10.4056 C   0  0  0  0  0  0  0  0  0  0  0  0
    1.1802   -6.5561  -10.6105 C   0  0  0  0  0  0  0  0  0  0  0  0
    0.8560   -5.4239  -11.3300 C   0  0  0  0  0  0  0  0  0  0  0  0
   -0.5076   -5.2253  -11.3127 N   0  0  0  0  0  0  0  0  0  0  0  0
   -0.9927   -4.4698  -11.7776 H   0  0  0  0  0  0  0  0  0  0  0  0
   -1.1070   -6.2279  -10.5791 C   0  0  0  0  0  0  0  0  0  0  0  0
   -2.4576   -6.4565  -10.2794 C   0  0  0  0  0  0  0  0  0  0  0  0
   -2.7645   -7.5713   -9.5045 C   0  0  0  0  0  0  0  0  0  0  0  0
   -1.7536   -8.4403   -9.0368 C   0  0  0  0  0  0  0  0  0  0  0  0
   -0.4144   -8.2109   -9.3344 C   0  0  0  0  0  0  0  0  0  0  0  0
   -0.0717   -7.0905  -10.1172 C   0  0  0  0  0  0  0  0  0  0  0  0
    2.1386   -4.7782   -6.2219 C   0  0  0  0  0  0  0  0  0  0  0  0
    2.4130   -4.3800   -4.9179 C   0  0  0  0  0  0  0  0  0  0  0  0
    4.5770   -1.8663   -3.1347 C   0  0  0  0  0  0  0  0  0  0  0  0
    5.4681   -0.8161   -2.4522 C   0  0  1  0  0  0  0  0  0  0  0  0
    5.3517    0.1281   -3.0105 H   0  0  0  0  0  0  0  0  0  0  0  0
    5.0621   -0.5600   -0.9982 C   0  0  0  0  0  0  0  0  0  0  0  0
    6.8480   -1.1365   -2.6204 O   0  0  0  0  0  0  0  0  0  0  0  0
    8.1283   -3.6454   -0.7296 H   0  0  0  0  0  0  0  0  0  0  0  0
    6.5419   -2.9509   -0.3376 H   0  0  0  0  0  0  0  0  0  0  0  0
    7.9930   -1.9038   -0.3676 H   0  0  0  0  0  0  0  0  0  0  0  0
    6.6243   -4.5068   -2.6699 H   0  0  0  0  0  0  0  0  0  0  0  0
    6.5301   -3.4583   -4.1238 H   0  0  0  0  0  0  0  0  0  0  0  0
    5.0520   -6.4473   -4.2763 H   0  0  0  0  0  0  0  0  0  0  0  0
    4.5679   -7.1427   -6.6281 H   0  0  0  0  0  0  0  0  0  0  0  0
    1.7883   -5.6255   -8.5708 H   0  0  0  0  0  0  0  0  0  0  0  0
    2.5844   -8.1994  -10.6725 H   0  0  0  0  0  0  0  0  0  0  0  0
    3.2750   -6.6353  -11.0732 H   0  0  0  0  0  0  0  0  0  0  0  0
    1.5102   -4.7443  -11.8747 H   0  0  0  0  0  0  0  0  0  0  0  0
   -3.2418   -5.7865  -10.6407 H   0  0  0  0  0  0  0  0  0  0  0  0
   -3.8076   -7.7783   -9.2530 H   0  0  0  0  0  0  0  0  0  0  0  0
   -2.0323   -9.3058   -8.4311 H   0  0  0  0  0  0  0  0  0  0  0  0
    0.3583   -8.8904   -8.9657 H   0  0  0  0  0  0  0  0  0  0  0  0
    1.2991   -4.3271   -6.7586 H   0  0  0  0  0  0  0  0  0  0  0  0
    1.7910   -3.6338   -4.4208 H   0  0  0  0  0  0  0  0  0  0  0  0
    3.5270   -1.7065   -2.8573 H   0  0  0  0  0  0  0  0  0  0  0  0
    4.6752   -1.7793   -4.2357 H   0  0  0  0  0  0  0  0  0  0  0  0
    4.9266   -1.4941   -0.4356 H   0  0  0  0  0  0  0  0  0  0  0  0
    4.1064   -0.0122   -0.9690 H   0  0  0  0  0  0  0  0  0  0  0  0
    5.8254    0.0523   -0.4958 H   0  0  0  0  0  0  0  0  0  0  0  0
  1  2  1  0
  1 34  1  0
  1 35  1  0
  1 36  1  0
  2  3  1  6
  2  4  1  0
  2 33  1  0
  4  5  1  0
  4 37  1  0
  4 38  1  0
  5  6  1  0
  5 29  1  0
  6  7  2  0
  6  8  2  0
  6  9  1  6
  9 10  2  0
  9 28  1  0
 10 11  1  0
 10 39  1  0
 11 12  2  0
 11 40  1  0
 12 13  1  0
 12 27  1  0
 13 14  1  0
 13 41  1  0
 14 15  2  0
 14 16  1  0
 16 17  1  0
 16 42  1  0
 16 43  1  0
 17 18  2  0
 17 26  1  0
 18 19  1  0
 18 44  1  0
 19 20  1  0
 19 21  1  0
 21 22  1  0
 21 26  2  0
 22 23  2  0
 22 45  1  0
 23 24  1  0
 23 46  1  0
 24 25  2  0
 24 47  1  0
 25 26  1  0
 25 48  1  0
 27 28  2  0
 27 49  1  0
 28 50  1  0
 29 30  1  0
 29 51  1  0
 29 52  1  0
 30 31  1  6
 30 32  1  0
 30 33  1  0
 32 53  1  0
 32 54  1  0
 32 55  1  0
M  END

