
     RDKit          3D

 51 53  0  0  0  0  0  0  0  0999 V2000
    3.5345    2.3366   -0.7049 O   0  0  0  0  0  0  0  0  0  0  0  0
    4.7328    2.3138   -0.6179 C   0  0  0  0  0  0  0  0  0  0  0  0
    5.4771    3.1768   -1.3478 O   0  0  0  0  0  0  0  0  0  0  0  0
    5.5218    1.3778    0.3093 C   0  0  1  0  0  0  0  0  0  0  0  0
    4.5874    0.3879    1.0253 C   0  0  0  0  0  0  0  0  0  0  0  0
    4.0743   -0.7162    0.0866 C   0  0  0  0  0  0  0  0  0  0  0  0
    5.1968   -1.4578   -0.6545 C   0  0  2  0  0  0  0  0  0  0  0  0
    5.9502   -2.2914    0.2939 N   0  0  0  0  0  0  0  0  0  0  0  0
    6.7383   -3.3234   -0.1822 C   0  0  0  0  0  0  0  0  0  0  0  0
    6.9281   -3.4840   -1.3802 O   0  0  0  0  0  0  0  0  0  0  0  0
    7.3067   -4.1645    0.7718 N   0  0  0  0  0  0  0  0  0  0  0  0
    8.1433   -5.2651    0.2908 C   0  0  0  0  0  0  0  0  0  0  0  0
    7.8862   -6.5635    1.0728 C   0  0  0  0  0  0  0  0  0  0  0  0
    8.0411   -6.2763    2.5615 C   0  0  2  0  0  0  0  0  0  0  0  0
    7.7267   -7.3541    3.5991 C   0  0  0  0  0  0  0  0  0  0  0  0
    7.5000   -6.5474    4.8172 N   0  0  0  0  0  0  0  0  0  0  0  0
    7.4735   -6.9509    6.1098 C   0  0  0  0  0  0  0  0  0  0  0  0
    7.2898   -6.2080    7.0542 O   0  0  0  0  0  0  0  0  0  0  0  0
    7.7098   -8.4661    6.3614 C   0  0  1  0  0  0  0  0  0  0  0  0
    6.8530   -9.2247    5.6499 F   0  0  0  0  0  0  0  0  0  0  0  0
    8.9595   -8.8240    6.0008 F   0  0  0  0  0  0  0  0  0  0  0  0
    7.5516   -8.7541    7.6434 F   0  0  0  0  0  0  0  0  0  0  0  0
    7.2829   -5.1208    4.5128 C   0  0  0  0  0  0  0  0  0  0  0  0
    7.1178   -5.1281    2.9940 C   0  0  1  0  0  0  0  0  0  0  0  0
    7.4252   -3.8634    2.1957 C   0  0  0  0  0  0  0  0  0  0  0  0
    6.1192   -0.4527   -1.3713 C   0  0  0  0  0  0  0  0  0  0  0  0
    6.6567    0.6180   -0.4168 C   0  0  0  0  0  0  0  0  0  0  0  0
    6.4197    3.0399   -1.1766 H   0  0  0  0  0  0  0  0  0  0  0  0
    5.9789    2.0441    1.0657 H   0  0  0  0  0  0  0  0  0  0  0  0
    3.7331    0.9314    1.4543 H   0  0  0  0  0  0  0  0  0  0  0  0
    5.1434   -0.0549    1.8698 H   0  0  0  0  0  0  0  0  0  0  0  0
    3.4111   -0.2594   -0.6632 H   0  0  0  0  0  0  0  0  0  0  0  0
    3.4536   -1.4361    0.6491 H   0  0  0  0  0  0  0  0  0  0  0  0
    4.7563   -2.1167   -1.4215 H   0  0  0  0  0  0  0  0  0  0  0  0
    5.5199   -2.4139    1.2018 H   0  0  0  0  0  0  0  0  0  0  0  0
    9.2136   -4.9910    0.3894 H   0  0  0  0  0  0  0  0  0  0  0  0
    7.9397   -5.3860   -0.7790 H   0  0  0  0  0  0  0  0  0  0  0  0
    8.5942   -7.3376    0.7331 H   0  0  0  0  0  0  0  0  0  0  0  0
    6.8675   -6.9319    0.8601 H   0  0  0  0  0  0  0  0  0  0  0  0
    9.0824   -5.9423    2.7381 H   0  0  0  0  0  0  0  0  0  0  0  0
    8.5476   -8.0690    3.7426 H   0  0  0  0  0  0  0  0  0  0  0  0
    6.8196   -7.9223    3.3281 H   0  0  0  0  0  0  0  0  0  0  0  0
    8.1553   -4.5240    4.8372 H   0  0  0  0  0  0  0  0  0  0  0  0
    6.4086   -4.7434    5.0635 H   0  0  0  0  0  0  0  0  0  0  0  0
    6.0795   -5.4237    2.7552 H   0  0  0  0  0  0  0  0  0  0  0  0
    8.4542   -3.5185    2.4302 H   0  0  0  0  0  0  0  0  0  0  0  0
    6.7557   -3.0413    2.4779 H   0  0  0  0  0  0  0  0  0  0  0  0
    5.5421    0.0214   -2.1849 H   0  0  0  0  0  0  0  0  0  0  0  0
    6.9428   -1.0026   -1.8483 H   0  0  0  0  0  0  0  0  0  0  0  0
    7.3279    1.3071   -0.9602 H   0  0  0  0  0  0  0  0  0  0  0  0
    7.2883    0.1374    0.3482 H   0  0  0  0  0  0  0  0  0  0  0  0
  1  2  2  0
  2  3  1  0
  2  4  1  0
  3 28  1  0
  4  5  1  0
  4 27  1  0
  4 29  1  1
  5  6  1  0
  5 30  1  0
  5 31  1  0
  6  7  1  0
  6 32  1  0
  6 33  1  0
  7  8  1  0
  7 26  1  0
  7 34  1  6
  8  9  1  0
  8 35  1  0
  9 10  2  0
  9 11  1  0
 11 12  1  0
 11 25  1  0
 12 13  1  0
 12 36  1  0
 12 37  1  0
 13 14  1  0
 13 38  1  0
 13 39  1  0
 14 15  1  0
 14 24  1  0
 14 40  1  6
 15 16  1  0
 15 41  1  0
 15 42  1  0
 16 17  1  0
 16 23  1  0
 17 18  2  0
 17 19  1  0
 19 20  1  6
 19 21  1  0
 19 22  1  0
 23 24  1  0
 23 43  1  0
 23 44  1  0
 24 25  1  0
 24 45  1  1
 25 46  1  0
 25 47  1  0
 26 27  1  0
 26 48  1  0
 26 49  1  0
 27 50  1  0
 27 51  1  0
M  END

