
     RDKit          3D

 35 36  0  0  0  0  0  0  0  0999 V2000
    0.9548   -0.4143    1.0679 N   0  0  0  0  0  0  0  0  0  0  0  0
    2.2982   -0.3202    1.3264 C   0  0  0  0  0  0  0  0  0  0  0  0
    3.2685   -0.6427    0.5609 N   0  0  0  0  0  0  0  0  0  0  0  0
    3.1008   -1.1643   -0.7292 C   0  0  0  0  0  0  0  0  0  0  0  0
    2.3414   -0.5116   -1.7239 C   0  0  0  0  0  0  0  0  0  0  0  0
    2.2533   -1.0430   -3.0140 C   0  0  0  0  0  0  0  0  0  0  0  0
    2.9124   -2.2311   -3.3402 C   0  0  0  0  0  0  0  0  0  0  0  0
    3.6751   -2.8802   -2.3620 C   0  0  0  0  0  0  0  0  0  0  0  0
    3.7769   -2.3517   -1.0755 C   0  0  0  0  0  0  0  0  0  0  0  0
    2.6085    0.3721    2.9557 S   0  0  0  0  0  0  0  0  0  0  0  0
    4.4210    0.2331    3.0572 C   0  0  0  0  0  0  0  0  0  0  0  0
    5.1384    1.3873    2.3729 C   0  0  0  0  0  0  0  0  0  0  0  0
    6.5254    1.2140    2.6277 O   0  0  0  0  0  0  0  0  0  0  0  0
    7.4181    2.0803    2.1060 C   0  0  0  0  0  0  0  0  0  0  0  0
    7.0867    3.1760    1.2946 C   0  0  0  0  0  0  0  0  0  0  0  0
    8.0758    4.0287    0.7943 C   0  0  0  0  0  0  0  0  0  0  0  0
    9.4138    3.7920    1.1035 C   0  0  0  0  0  0  0  0  0  0  0  0
   10.6595    4.8529    0.4832 Cl  0  0  0  0  0  0  0  0  0  0  0  0
    9.7731    2.7072    1.9103 C   0  0  0  0  0  0  0  0  0  0  0  0
    8.7827    1.8621    2.4049 C   0  0  0  0  0  0  0  0  0  0  0  0
    9.2286    0.5105    3.4112 Cl  0  0  0  0  0  0  0  0  0  0  0  0
    0.6731   -0.9362    0.2440 H   0  0  0  0  0  0  0  0  0  0  0  0
    0.3099   -0.4272    1.8492 H   0  0  0  0  0  0  0  0  0  0  0  0
    1.8407    0.4305   -1.4869 H   0  0  0  0  0  0  0  0  0  0  0  0
    1.6666   -0.5165   -3.7720 H   0  0  0  0  0  0  0  0  0  0  0  0
    2.8408   -2.6437   -4.3493 H   0  0  0  0  0  0  0  0  0  0  0  0
    4.2034   -3.8058   -2.6064 H   0  0  0  0  0  0  0  0  0  0  0  0
    4.3835   -2.8449   -0.3129 H   0  0  0  0  0  0  0  0  0  0  0  0
    4.7185   -0.7226    2.6051 H   0  0  0  0  0  0  0  0  0  0  0  0
    4.6580    0.2154    4.1314 H   0  0  0  0  0  0  0  0  0  0  0  0
    4.7919    2.3562    2.7768 H   0  0  0  0  0  0  0  0  0  0  0  0
    4.9335    1.3597    1.2899 H   0  0  0  0  0  0  0  0  0  0  0  0
    6.0451    3.3732    1.0416 H   0  0  0  0  0  0  0  0  0  0  0  0
    7.8030    4.8760    0.1637 H   0  0  0  0  0  0  0  0  0  0  0  0
   10.8179    2.5171    2.1552 H   0  0  0  0  0  0  0  0  0  0  0  0
  1  2  1  0
  1 22  1  0
  1 23  1  0
  2  3  2  0
  2 10  1  0
  3  4  1  0
  4  5  2  0
  4  9  1  0
  5  6  1  0
  5 24  1  0
  6  7  2  0
  6 25  1  0
  7  8  1  0
  7 26  1  0
  8  9  2  0
  8 27  1  0
  9 28  1  0
 10 11  1  0
 11 12  1  0
 11 29  1  0
 11 30  1  0
 12 13  1  0
 12 31  1  0
 12 32  1  0
 13 14  1  0
 14 15  2  0
 14 20  1  0
 15 16  1  0
 15 33  1  0
 16 17  2  0
 16 34  1  0
 17 18  1  0
 17 19  1  0
 19 20  2  0
 19 35  1  0
 20 21  1  0
M  END

