
     RDKit          3D

 49 50  0  0  0  0  0  0  0  0999 V2000
   -0.5372    6.2165    4.7565 C   0  0  0  0  0  0  0  0  0  0  0  0
    0.2702    4.9127    4.6597 C   0  0  0  0  0  0  0  0  0  0  0  0
    1.3456    4.9452    3.5944 C   0  0  0  0  0  0  0  0  0  0  0  0
    2.6547    5.3448    3.8882 C   0  0  0  0  0  0  0  0  0  0  0  0
    3.6494    5.4148    2.9052 C   0  0  0  0  0  0  0  0  0  0  0  0
    3.3428    5.0812    1.5773 C   0  0  0  0  0  0  0  0  0  0  0  0
    4.2152    5.1241    0.5340 O   0  0  0  0  0  0  0  0  0  0  0  0
    5.5876    5.4858    0.7139 C   0  0  1  0  0  0  0  0  0  0  0  0
    6.4181    4.2965    1.2184 C   0  0  0  0  0  0  0  0  0  0  0  0
    6.4702    3.1313    0.2076 C   0  0  2  0  0  0  0  0  0  0  0  0
    7.2156    1.8576    0.7427 C   0  0  1  0  0  0  0  0  0  0  0  0
    6.5181    1.3434    2.0201 C   0  0  0  0  0  0  0  0  0  0  0  0
    7.1415    0.7323   -0.3108 C   0  0  0  0  0  0  0  0  0  0  0  0
    8.6972    2.1377    1.0646 C   0  0  0  0  0  0  0  0  0  0  0  0
    6.9874    3.6615   -1.1464 C   0  0  0  0  0  0  0  0  0  0  0  0
    6.1556    4.8477   -1.6582 C   0  0  0  0  0  0  0  0  0  0  0  0
    6.0861    6.0066   -0.6550 C   0  0  2  0  0  0  0  0  0  0  0  0
    7.3633    6.7103   -0.5862 N   0  0  0  0  0  0  0  0  0  0  0  0
    2.0331    4.6745    1.2663 C   0  0  0  0  0  0  0  0  0  0  0  0
    1.0593    4.6111    2.2583 C   0  0  0  0  0  0  0  0  0  0  0  0
   -1.3112    6.1490    5.5386 H   0  0  0  0  0  0  0  0  0  0  0  0
   -1.0388    6.4452    3.8023 H   0  0  0  0  0  0  0  0  0  0  0  0
    0.1160    7.0706    4.9977 H   0  0  0  0  0  0  0  0  0  0  0  0
   -0.4192    4.0750    4.4573 H   0  0  0  0  0  0  0  0  0  0  0  0
    0.7325    4.6993    5.6385 H   0  0  0  0  0  0  0  0  0  0  0  0
    2.9180    5.6050    4.9182 H   0  0  0  0  0  0  0  0  0  0  0  0
    4.6550    5.7238    3.1909 H   0  0  0  0  0  0  0  0  0  0  0  0
    5.6503    6.3193    1.4369 H   0  0  0  0  0  0  0  0  0  0  0  0
    6.0125    3.9627    2.1838 H   0  0  0  0  0  0  0  0  0  0  0  0
    7.4374    4.6682    1.4231 H   0  0  0  0  0  0  0  0  0  0  0  0
    5.4239    2.8147    0.0435 H   0  0  0  0  0  0  0  0  0  0  0  0
    5.4431    1.1703    1.8468 H   0  0  0  0  0  0  0  0  0  0  0  0
    6.6135    2.0444    2.8631 H   0  0  0  0  0  0  0  0  0  0  0  0
    6.9625    0.3879    2.3427 H   0  0  0  0  0  0  0  0  0  0  0  0
    6.0989    0.5340   -0.6107 H   0  0  0  0  0  0  0  0  0  0  0  0
    7.5542   -0.2044    0.0977 H   0  0  0  0  0  0  0  0  0  0  0  0
    7.7146    0.9701   -1.2196 H   0  0  0  0  0  0  0  0  0  0  0  0
    8.8122    2.8992    1.8523 H   0  0  0  0  0  0  0  0  0  0  0  0
    9.2550    2.4795    0.1783 H   0  0  0  0  0  0  0  0  0  0  0  0
    9.1906    1.2205    1.4259 H   0  0  0  0  0  0  0  0  0  0  0  0
    6.9674    2.8659   -1.9060 H   0  0  0  0  0  0  0  0  0  0  0  0
    8.0474    3.9605   -1.0534 H   0  0  0  0  0  0  0  0  0  0  0  0
    5.1280    4.5043   -1.8585 H   0  0  0  0  0  0  0  0  0  0  0  0
    6.5680    5.2267   -2.6066 H   0  0  0  0  0  0  0  0  0  0  0  0
    5.3319    6.7300   -1.0080 H   0  0  0  0  0  0  0  0  0  0  0  0
    8.1154    6.0995   -0.2705 H   0  0  0  0  0  0  0  0  0  0  0  0
    7.3205    7.4895    0.0704 H   0  0  0  0  0  0  0  0  0  0  0  0
    1.8050    4.4124    0.2309 H   0  0  0  0  0  0  0  0  0  0  0  0
    0.0487    4.2885    1.9892 H   0  0  0  0  0  0  0  0  0  0  0  0
  1  2  1  0
  1 21  1  0
  1 22  1  0
  1 23  1  0
  2  3  1  0
  2 24  1  0
  2 25  1  0
  3  4  2  0
  3 20  1  0
  4  5  1  0
  4 26  1  0
  5  6  2  0
  5 27  1  0
  6  7  1  0
  6 19  1  0
  7  8  1  0
  8  9  1  0
  8 17  1  0
  8 28  1  1
  9 10  1  0
  9 29  1  0
  9 30  1  0
 10 11  1  0
 10 15  1  0
 10 31  1  6
 11 12  1  1
 11 13  1  0
 11 14  1  0
 12 32  1  0
 12 33  1  0
 12 34  1  0
 13 35  1  0
 13 36  1  0
 13 37  1  0
 14 38  1  0
 14 39  1  0
 14 40  1  0
 15 16  1  0
 15 41  1  0
 15 42  1  0
 16 17  1  0
 16 43  1  0
 16 44  1  0
 17 18  1  0
 17 45  1  6
 18 46  1  0
 18 47  1  0
 19 20  2  0
 19 48  1  0
 20 49  1  0
M  END

