
     RDKit          3D

 46 47  0  0  0  0  0  0  0  0999 V2000
    2.3539    0.3348    1.8727 O   0  0  0  0  0  0  0  0  0  0  0  0
    3.3592    0.0955    1.2175 C   0  0  0  0  0  0  0  0  0  0  0  0
    3.9272    1.0778    0.1952 C   0  0  0  0  0  0  0  0  0  0  0  0
    2.8667    1.8616   -0.5876 C   0  0  0  0  0  0  0  0  0  0  0  0
    2.0926    2.8760    0.2449 C   0  0  0  0  0  0  0  0  0  0  0  0
    1.2920    3.6298   -0.6572 O   0  0  0  0  0  0  0  0  0  0  0  0
    0.4621    4.5820   -0.1851 C   0  0  0  0  0  0  0  0  0  0  0  0
    0.3032    4.8994    1.1738 C   0  0  0  0  0  0  0  0  0  0  0  0
   -0.5828    5.9069    1.5708 C   0  0  0  0  0  0  0  0  0  0  0  0
   -1.3240    6.6149    0.6252 C   0  0  0  0  0  0  0  0  0  0  0  0
   -1.1760    6.3097   -0.7323 C   0  0  0  0  0  0  0  0  0  0  0  0
   -0.2955    5.3075   -1.1336 C   0  0  0  0  0  0  0  0  0  0  0  0
   -0.1172    4.9341   -2.8307 Cl  0  0  0  0  0  0  0  0  0  0  0  0
    4.0767   -1.0540    1.3829 N   0  0  0  0  0  0  0  0  0  0  0  0
    3.6842   -2.0832    2.3310 C   0  0  0  0  0  0  0  0  0  0  0  0
    2.7534   -3.1457    1.7349 C   0  0  0  0  0  0  0  0  0  0  0  0
    2.3748   -4.2201    2.7630 C   0  0  0  0  0  0  0  0  0  0  0  0
    1.5051   -5.2528    2.2416 N   0  0  0  0  0  0  0  0  0  0  0  0
    0.0885   -5.0563    1.9710 C   0  0  0  0  0  0  0  0  0  0  0  0
   -0.4264   -6.4905    1.7325 C   0  0  0  0  0  0  0  0  0  0  0  0
    0.8105   -7.2414    1.2222 C   0  0  0  0  0  0  0  0  0  0  0  0
    1.9901   -6.4653    1.8099 C   0  0  0  0  0  0  0  0  0  0  0  0
    3.1506   -6.8228    1.8719 O   0  0  0  0  0  0  0  0  0  0  0  0
    4.5875    0.5483   -0.5111 H   0  0  0  0  0  0  0  0  0  0  0  0
    4.5777    1.7792    0.7506 H   0  0  0  0  0  0  0  0  0  0  0  0
    2.1517    1.1684   -1.0606 H   0  0  0  0  0  0  0  0  0  0  0  0
    3.3619    2.4078   -1.4070 H   0  0  0  0  0  0  0  0  0  0  0  0
    2.7911    3.5497    0.7792 H   0  0  0  0  0  0  0  0  0  0  0  0
    1.4716    2.3666    0.9970 H   0  0  0  0  0  0  0  0  0  0  0  0
    0.8702    4.3550    1.9288 H   0  0  0  0  0  0  0  0  0  0  0  0
   -0.6888    6.1333    2.6347 H   0  0  0  0  0  0  0  0  0  0  0  0
   -2.0158    7.4016    0.9339 H   0  0  0  0  0  0  0  0  0  0  0  0
   -1.7426    6.8467   -1.4952 H   0  0  0  0  0  0  0  0  0  0  0  0
    4.8575   -1.2369    0.7646 H   0  0  0  0  0  0  0  0  0  0  0  0
    3.1790   -1.5753    3.1666 H   0  0  0  0  0  0  0  0  0  0  0  0
    4.5967   -2.5568    2.7307 H   0  0  0  0  0  0  0  0  0  0  0  0
    3.2442   -3.6325    0.8745 H   0  0  0  0  0  0  0  0  0  0  0  0
    1.8488   -2.6421    1.3552 H   0  0  0  0  0  0  0  0  0  0  0  0
    1.8892   -3.7502    3.6376 H   0  0  0  0  0  0  0  0  0  0  0  0
    3.2834   -4.7317    3.1176 H   0  0  0  0  0  0  0  0  0  0  0  0
   -0.0695   -4.4139    1.0823 H   0  0  0  0  0  0  0  0  0  0  0  0
   -0.4090   -4.5604    2.8217 H   0  0  0  0  0  0  0  0  0  0  0  0
   -1.2796   -6.5167    1.0397 H   0  0  0  0  0  0  0  0  0  0  0  0
   -0.7610   -6.9241    2.6883 H   0  0  0  0  0  0  0  0  0  0  0  0
    0.8998   -7.2027    0.1222 H   0  0  0  0  0  0  0  0  0  0  0  0
    0.8631   -8.2997    1.5137 H   0  0  0  0  0  0  0  0  0  0  0  0
  1  2  2  0
  2  3  1  0
  2 14  1  0
  3  4  1  0
  3 24  1  0
  3 25  1  0
  4  5  1  0
  4 26  1  0
  4 27  1  0
  5  6  1  0
  5 28  1  0
  5 29  1  0
  6  7  1  0
  7  8  2  0
  7 12  1  0
  8  9  1  0
  8 30  1  0
  9 10  2  0
  9 31  1  0
 10 11  1  0
 10 32  1  0
 11 12  2  0
 11 33  1  0
 12 13  1  0
 14 15  1  0
 14 34  1  0
 15 16  1  0
 15 35  1  0
 15 36  1  0
 16 17  1  0
 16 37  1  0
 16 38  1  0
 17 18  1  0
 17 39  1  0
 17 40  1  0
 18 19  1  0
 18 22  1  0
 19 20  1  0
 19 41  1  0
 19 42  1  0
 20 21  1  0
 20 43  1  0
 20 44  1  0
 21 22  1  0
 21 45  1  0
 21 46  1  0
 22 23  2  0
M  END

