
     RDKit          3D

 38 41  0  0  0  0  0  0  0  0999 V2000
    3.0176   -0.1091   -2.4445 O   0  0  0  0  0  0  0  0  0  0  0  0
    3.3581   -0.1235   -1.2683 C   0  0  0  0  0  0  0  0  0  0  0  0
    3.0695   -1.1784   -0.4408 N   0  0  0  0  0  0  0  0  0  0  0  0
    2.3366   -2.3437   -0.9101 C   0  0  0  0  0  0  0  0  0  0  0  0
    3.2273   -3.4790   -1.3827 C   0  0  0  0  0  0  0  0  0  0  0  0
    3.9880   -3.3560   -2.5598 C   0  0  0  0  0  0  0  0  0  0  0  0
    4.7991   -4.4230   -2.9406 C   0  0  0  0  0  0  0  0  0  0  0  0
    4.8963   -5.5623   -2.2472 N   0  0  0  0  0  0  0  0  0  0  0  0
    4.1750   -5.6721   -1.1385 C   0  0  0  0  0  0  0  0  0  0  0  0
    4.3041   -6.8918   -0.4317 N   0  0  0  0  0  0  0  0  0  0  0  0
    5.0829   -7.9629   -0.7814 C   0  0  0  0  0  0  0  0  0  0  0  0
    4.8934   -8.9179    0.1951 C   0  0  0  0  0  0  0  0  0  0  0  0
    3.9733   -8.3226    1.1006 C   0  0  0  0  0  0  0  0  0  0  0  0
    3.6246   -7.1046    0.7155 N   0  0  0  0  0  0  0  0  0  0  0  0
    3.3221   -4.6659   -0.6560 C   0  0  0  0  0  0  0  0  0  0  0  0
    4.1178    1.0183   -0.6535 C   0  0  0  0  0  0  0  0  0  0  0  0
    4.1671    1.2550    0.7284 C   0  0  0  0  0  0  0  0  0  0  0  0
    4.8743    2.3459    1.2673 C   0  0  0  0  0  0  0  0  0  0  0  0
    5.5182    3.1796    0.3695 C   0  0  0  0  0  0  0  0  0  0  0  0
    5.4619    2.9577   -1.0117 C   0  0  0  0  0  0  0  0  0  0  0  0
    4.7675    1.8972   -1.5536 C   0  0  0  0  0  0  0  0  0  0  0  0
    6.1791    3.9286   -1.6520 O   0  0  0  0  0  0  0  0  0  0  0  0
    6.6738    4.8058   -0.6459 C   0  0  0  0  0  0  0  0  0  0  0  0
    6.2663    4.2881    0.6221 O   0  0  0  0  0  0  0  0  0  0  0  0
    3.5615   -1.2519    0.4409 H   0  0  0  0  0  0  0  0  0  0  0  0
    1.7059   -2.0013   -1.7427 H   0  0  0  0  0  0  0  0  0  0  0  0
    1.6782   -2.6999   -0.1025 H   0  0  0  0  0  0  0  0  0  0  0  0
    3.9347   -2.4442   -3.1581 H   0  0  0  0  0  0  0  0  0  0  0  0
    5.4007   -4.3609   -3.8544 H   0  0  0  0  0  0  0  0  0  0  0  0
    5.6862   -7.9325   -1.6835 H   0  0  0  0  0  0  0  0  0  0  0  0
    5.3499   -9.9032    0.2513 H   0  0  0  0  0  0  0  0  0  0  0  0
    3.5561   -8.7419    2.0165 H   0  0  0  0  0  0  0  0  0  0  0  0
    2.7601   -4.8387    0.2618 H   0  0  0  0  0  0  0  0  0  0  0  0
    3.6194    0.6065    1.4153 H   0  0  0  0  0  0  0  0  0  0  0  0
    4.9069    2.5367    2.3407 H   0  0  0  0  0  0  0  0  0  0  0  0
    4.7023    1.7219   -2.6272 H   0  0  0  0  0  0  0  0  0  0  0  0
    6.2488    5.8166   -0.7864 H   0  0  0  0  0  0  0  0  0  0  0  0
    7.7766    4.8456   -0.6916 H   0  0  0  0  0  0  0  0  0  0  0  0
  1  2  2  0
  2  3  1  0
  2 16  1  0
  3  4  1  0
  3 25  1  0
  4  5  1  0
  4 26  1  0
  4 27  1  0
  5  6  2  0
  5 15  1  0
  6  7  1  0
  6 28  1  0
  7  8  2  0
  7 29  1  0
  8  9  1  0
  9 10  1  0
  9 15  2  0
 10 11  1  0
 10 14  1  0
 11 12  2  0
 11 30  1  0
 12 13  1  0
 12 31  1  0
 13 14  2  0
 13 32  1  0
 15 33  1  0
 16 17  2  0
 16 21  1  0
 17 18  1  0
 17 34  1  0
 18 19  2  0
 18 35  1  0
 19 20  1  0
 19 24  1  0
 20 21  2  0
 20 22  1  0
 21 36  1  0
 22 23  1  0
 23 24  1  0
 23 37  1  0
 23 38  1  0
M  END

