
     RDKit          3D

 30 30  0  0  0  0  0  0  0  0999 V2000
    1.4287   -2.5755   -1.3484 C   0  0  0  0  0  0  0  0  0  0  0  0
    2.8234   -2.1904   -1.2894 N   0  0  0  0  0  0  0  0  0  0  0  0
    3.1795   -0.9190   -0.9990 C   0  0  0  0  0  0  0  0  0  0  0  0
    2.3973   -0.0072   -0.7821 O   0  0  0  0  0  0  0  0  0  0  0  0
    4.6880   -0.6435   -1.0004 C   0  0  0  0  0  0  0  0  0  0  0  0
    5.4033   -1.8631   -0.9368 O   0  0  0  0  0  0  0  0  0  0  0  0
    6.6211   -2.0223   -1.5054 C   0  0  0  0  0  0  0  0  0  0  0  0
    7.4774   -0.9485   -1.7793 C   0  0  0  0  0  0  0  0  0  0  0  0
    8.7244   -1.2099   -2.3467 C   0  0  0  0  0  0  0  0  0  0  0  0
    9.5366   -0.1752   -2.6013 F   0  0  0  0  0  0  0  0  0  0  0  0
    9.1449   -2.4992   -2.6485 C   0  0  0  0  0  0  0  0  0  0  0  0
    8.2703   -3.5551   -2.3689 C   0  0  0  0  0  0  0  0  0  0  0  0
    7.0086   -3.3540   -1.7997 C   0  0  0  0  0  0  0  0  0  0  0  0
    6.0876   -4.5361   -1.5252 C   0  0  1  0  0  0  0  0  0  0  0  0
    5.8338   -4.8046   -0.0442 C   0  0  0  0  0  0  0  0  0  0  0  0
    4.8068   -4.3854   -2.1508 O   0  0  0  0  0  0  0  0  0  0  0  0
    1.3647   -3.6588   -1.5195 H   0  0  0  0  0  0  0  0  0  0  0  0
    0.8954   -2.0533   -2.1611 H   0  0  0  0  0  0  0  0  0  0  0  0
    0.9078   -2.3295   -0.4086 H   0  0  0  0  0  0  0  0  0  0  0  0
    3.5485   -2.8879   -1.4668 H   0  0  0  0  0  0  0  0  0  0  0  0
    4.9169    0.0083   -0.1406 H   0  0  0  0  0  0  0  0  0  0  0  0
    4.9291   -0.0871   -1.9237 H   0  0  0  0  0  0  0  0  0  0  0  0
    7.2075    0.0809   -1.5440 H   0  0  0  0  0  0  0  0  0  0  0  0
   10.1267   -2.6620   -3.0950 H   0  0  0  0  0  0  0  0  0  0  0  0
    8.5804   -4.5762   -2.6097 H   0  0  0  0  0  0  0  0  0  0  0  0
    6.5845   -5.4296   -1.9503 H   0  0  0  0  0  0  0  0  0  0  0  0
    5.3575   -3.9378    0.4336 H   0  0  0  0  0  0  0  0  0  0  0  0
    6.7806   -5.0187    0.4738 H   0  0  0  0  0  0  0  0  0  0  0  0
    5.1696   -5.6759    0.0636 H   0  0  0  0  0  0  0  0  0  0  0  0
    4.9510   -4.2237   -3.0935 H   0  0  0  0  0  0  0  0  0  0  0  0
  1  2  1  0
  1 17  1  0
  1 18  1  0
  1 19  1  0
  2  3  1  0
  2 20  1  0
  3  4  2  0
  3  5  1  0
  5  6  1  0
  5 21  1  0
  5 22  1  0
  6  7  1  0
  7  8  2  0
  7 13  1  0
  8  9  1  0
  8 23  1  0
  9 10  1  0
  9 11  2  0
 11 12  1  0
 11 24  1  0
 12 13  2  0
 12 25  1  0
 13 14  1  0
 14 15  1  0
 14 16  1  0
 14 26  1  6
 15 27  1  0
 15 28  1  0
 15 29  1  0
 16 30  1  0
M  END

