
     RDKit          3D

 49 50  0  0  0  0  0  0  0  0999 V2000
    3.6993   -9.4935   -6.0046 C   0  0  0  0  0  0  0  0  0  0  0  0
    5.1123   -8.8914   -6.0555 C   0  0  0  0  0  0  0  0  0  0  0  0
    5.1369   -7.4009   -5.7924 C   0  0  0  0  0  0  0  0  0  0  0  0
    5.2777   -6.8940   -4.4927 C   0  0  0  0  0  0  0  0  0  0  0  0
    5.2616   -5.5185   -4.2413 C   0  0  0  0  0  0  0  0  0  0  0  0
    5.1052   -4.6003   -5.2876 C   0  0  0  0  0  0  0  0  0  0  0  0
    5.0400   -3.0950   -5.0582 C   0  0  0  0  0  0  0  0  0  0  0  0
    5.6358   -2.6130   -3.8153 N   0  0  0  0  0  0  0  0  0  0  0  0
    4.9557   -2.5430   -2.6001 C   0  0  0  0  0  0  0  0  0  0  0  0
    5.5709   -2.4625   -1.5527 O   0  0  0  0  0  0  0  0  0  0  0  0
    3.4117   -2.5202   -2.6832 C   0  0  2  0  0  0  0  0  0  0  0  0
    3.1320   -3.3966   -3.3037 H   0  0  0  0  0  0  0  0  0  0  0  0
    2.9998   -1.2595   -3.3147 N   0  0  0  0  0  0  0  0  0  0  0  0
    2.6739   -2.7423   -1.3215 C   0  0  1  0  0  0  0  0  0  0  0  0
    1.1611   -2.7880   -1.6263 C   0  0  0  0  0  0  0  0  0  0  0  0
    3.0878   -4.0979   -0.7183 C   0  0  0  0  0  0  0  0  0  0  0  0
    2.9425   -1.6012   -0.3240 C   0  0  0  0  0  0  0  0  0  0  0  0
    7.0800   -2.5875   -3.7619 C   0  0  1  0  0  0  0  0  0  0  0  0
    7.8318   -1.7067   -4.7309 C   0  0  0  0  0  0  0  0  0  0  0  0
    7.7816   -1.3589   -3.2662 C   0  0  0  0  0  0  0  0  0  0  0  0
    4.9738   -5.1027   -6.5914 C   0  0  0  0  0  0  0  0  0  0  0  0
    4.9850   -6.4759   -6.8383 C   0  0  0  0  0  0  0  0  0  0  0  0
    3.7232  -10.5777   -6.2011 H   0  0  0  0  0  0  0  0  0  0  0  0
    3.0410   -9.0273   -6.7552 H   0  0  0  0  0  0  0  0  0  0  0  0
    3.2364   -9.3377   -5.0170 H   0  0  0  0  0  0  0  0  0  0  0  0
    5.5582   -9.0950   -7.0438 H   0  0  0  0  0  0  0  0  0  0  0  0
    5.7516   -9.4027   -5.3163 H   0  0  0  0  0  0  0  0  0  0  0  0
    5.4098   -7.5870   -3.6563 H   0  0  0  0  0  0  0  0  0  0  0  0
    5.3840   -5.1642   -3.2153 H   0  0  0  0  0  0  0  0  0  0  0  0
    3.9946   -2.7581   -5.1078 H   0  0  0  0  0  0  0  0  0  0  0  0
    5.5496   -2.5915   -5.8949 H   0  0  0  0  0  0  0  0  0  0  0  0
    2.1459   -1.3640   -3.8576 H   0  0  0  0  0  0  0  0  0  0  0  0
    3.7156   -0.8791   -3.9279 H   0  0  0  0  0  0  0  0  0  0  0  0
    0.9161   -3.5775   -2.3583 H   0  0  0  0  0  0  0  0  0  0  0  0
    0.7984   -1.8254   -2.0193 H   0  0  0  0  0  0  0  0  0  0  0  0
    0.5927   -3.0014   -0.7070 H   0  0  0  0  0  0  0  0  0  0  0  0
    2.9088   -4.9248   -1.4278 H   0  0  0  0  0  0  0  0  0  0  0  0
    2.4933   -4.3087    0.1856 H   0  0  0  0  0  0  0  0  0  0  0  0
    4.1492   -4.1047   -0.4358 H   0  0  0  0  0  0  0  0  0  0  0  0
    2.6999   -0.6306   -0.7819 H   0  0  0  0  0  0  0  0  0  0  0  0
    3.9956   -1.5853   -0.0163 H   0  0  0  0  0  0  0  0  0  0  0  0
    2.3142   -1.7271    0.5735 H   0  0  0  0  0  0  0  0  0  0  0  0
    7.5461   -3.5483   -3.5089 H   0  0  0  0  0  0  0  0  0  0  0  0
    7.2475   -1.0839   -5.4150 H   0  0  0  0  0  0  0  0  0  0  0  0
    8.7596   -2.0958   -5.1593 H   0  0  0  0  0  0  0  0  0  0  0  0
    7.1564   -0.5156   -2.9642 H   0  0  0  0  0  0  0  0  0  0  0  0
    8.6727   -1.5007   -2.6495 H   0  0  0  0  0  0  0  0  0  0  0  0
    4.8661   -4.4075   -7.4301 H   0  0  0  0  0  0  0  0  0  0  0  0
    4.8854   -6.8376   -7.8663 H   0  0  0  0  0  0  0  0  0  0  0  0
  1  2  1  0
  1 23  1  0
  1 24  1  0
  1 25  1  0
  2  3  1  0
  2 26  1  0
  2 27  1  0
  3  4  2  0
  3 22  1  0
  4  5  1  0
  4 28  1  0
  5  6  2  0
  5 29  1  0
  6  7  1  0
  6 21  1  0
  7  8  1  0
  7 30  1  0
  7 31  1  0
  8  9  1  0
  8 18  1  0
  9 10  2  0
  9 11  1  0
 11 12  1  6
 11 13  1  0
 11 14  1  0
 13 32  1  0
 13 33  1  0
 14 15  1  6
 14 16  1  0
 14 17  1  0
 15 34  1  0
 15 35  1  0
 15 36  1  0
 16 37  1  0
 16 38  1  0
 16 39  1  0
 17 40  1  0
 17 41  1  0
 17 42  1  0
 18 19  1  0
 18 20  1  0
 18 43  1  1
 19 20  1  0
 19 44  1  0
 19 45  1  0
 20 46  1  0
 20 47  1  0
 21 22  2  0
 21 48  1  0
 22 49  1  0
M  END

