
     RDKit          3D

 33 33  0  0  0  0  0  0  0  0999 V2000
    2.2282   -2.4910    1.5834 C   0  0  0  0  0  0  0  0  0  0  0  0
    2.2223   -2.5989    0.1328 N   0  0  0  0  0  0  0  0  0  0  0  0
    2.7396   -1.4642   -0.6406 C   0  0  1  0  0  0  0  0  0  0  0  0
    2.1085   -0.1007   -0.3050 C   0  0  0  0  0  0  0  0  0  0  0  0
    4.2782   -1.3850   -0.5590 C   0  0  0  0  0  0  0  0  0  0  0  0
    5.0093   -2.6896   -0.9014 C   0  0  1  0  0  0  0  0  0  0  0  0
    4.7672   -3.1816   -2.3300 C   0  0  0  0  0  0  0  0  0  0  0  0
    6.8477   -2.4934   -0.7299 S   0  0  0  0  0  0  0  0  0  0  0  0
    7.1163   -2.2663    1.0166 C   0  0  0  0  0  0  0  0  0  0  0  0
    8.1638   -1.4140    1.4090 C   0  0  0  0  0  0  0  0  0  0  0  0
    8.4737   -1.2551    2.7606 C   0  0  0  0  0  0  0  0  0  0  0  0
    7.7374   -1.9154    3.7488 C   0  0  0  0  0  0  0  0  0  0  0  0
    6.6938   -2.7537    3.3493 C   0  0  0  0  0  0  0  0  0  0  0  0
    5.6685   -3.6701    4.6779 Br  0  0  0  0  0  0  0  0  0  0  0  0
    6.3832   -2.9496    2.0024 C   0  0  0  0  0  0  0  0  0  0  0  0
    1.8422   -3.4270    2.0173 H   0  0  0  0  0  0  0  0  0  0  0  0
    1.6258   -1.6570    2.0014 H   0  0  0  0  0  0  0  0  0  0  0  0
    3.2559   -2.3685    1.9604 H   0  0  0  0  0  0  0  0  0  0  0  0
    1.2857   -2.8310   -0.1913 H   0  0  0  0  0  0  0  0  0  0  0  0
    2.4770   -1.6889   -1.6888 H   0  0  0  0  0  0  0  0  0  0  0  0
    2.3797    0.2408    0.7070 H   0  0  0  0  0  0  0  0  0  0  0  0
    1.0085   -0.1518   -0.3617 H   0  0  0  0  0  0  0  0  0  0  0  0
    2.4457    0.6721   -1.0144 H   0  0  0  0  0  0  0  0  0  0  0  0
    4.5721   -1.0633    0.4543 H   0  0  0  0  0  0  0  0  0  0  0  0
    4.6275   -0.5896   -1.2391 H   0  0  0  0  0  0  0  0  0  0  0  0
    4.6853   -3.4803   -0.2106 H   0  0  0  0  0  0  0  0  0  0  0  0
    5.0416   -2.4155   -3.0743 H   0  0  0  0  0  0  0  0  0  0  0  0
    3.7040   -3.4299   -2.4658 H   0  0  0  0  0  0  0  0  0  0  0  0
    5.3529   -4.0891   -2.5412 H   0  0  0  0  0  0  0  0  0  0  0  0
    8.7274   -0.8712    0.6470 H   0  0  0  0  0  0  0  0  0  0  0  0
    9.2920   -0.5921    3.0534 H   0  0  0  0  0  0  0  0  0  0  0  0
    7.9660   -1.7803    4.8067 H   0  0  0  0  0  0  0  0  0  0  0  0
    5.5849   -3.6391    1.7288 H   0  0  0  0  0  0  0  0  0  0  0  0
  1  2  1  0
  1 16  1  0
  1 17  1  0
  1 18  1  0
  2  3  1  0
  2 19  1  0
  3  4  1  0
  3  5  1  0
  3 20  1  6
  4 21  1  0
  4 22  1  0
  4 23  1  0
  5  6  1  0
  5 24  1  0
  5 25  1  0
  6  7  1  0
  6  8  1  0
  6 26  1  1
  7 27  1  0
  7 28  1  0
  7 29  1  0
  8  9  1  0
  9 10  2  0
  9 15  1  0
 10 11  1  0
 10 30  1  0
 11 12  2  0
 11 31  1  0
 12 13  1  0
 12 32  1  0
 13 14  1  0
 13 15  2  0
 15 33  1  0
M  END

