
     RDKit          3D

 44 46  0  0  0  0  0  0  0  0999 V2000
   15.6812   -2.7088    1.8715 C   0  0  0  0  0  0  0  0  0  0  0  0
   14.4835   -2.0030    1.2845 C   0  0  0  0  0  0  0  0  0  0  0  0
   13.2839   -1.8611    1.9935 C   0  0  0  0  0  0  0  0  0  0  0  0
   12.1796   -1.2006    1.4532 C   0  0  0  0  0  0  0  0  0  0  0  0
   12.2323   -0.6461    0.1617 C   0  0  0  0  0  0  0  0  0  0  0  0
   11.1566    0.0327   -0.4378 N   0  0  0  0  0  0  0  0  0  0  0  0
    9.8967    0.2224    0.0724 C   0  0  0  0  0  0  0  0  0  0  0  0
    9.4995   -0.1922    1.1450 O   0  0  0  0  0  0  0  0  0  0  0  0
    8.9480    1.0120   -0.8545 C   0  0  0  0  0  0  0  0  0  0  0  0
    9.3188    2.4044   -1.0524 N   0  0  0  0  0  0  0  0  0  0  0  0
    8.7060    3.4809   -0.4348 C   0  0  0  0  0  0  0  0  0  0  0  0
    7.8047    3.4402    0.3642 O   0  0  0  0  0  0  0  0  0  0  0  0
    9.3707    4.7364   -1.0082 C   0  0  2  0  0  0  0  0  0  0  0  0
    8.3342    5.6933   -1.5971 C   0  0  0  0  0  0  0  0  0  0  0  0
   10.3250    4.1861   -1.9774 N   0  0  0  0  0  0  0  0  0  0  0  0
   11.2548    4.9749   -2.7051 C   0  0  0  0  0  0  0  0  0  0  0  0
   11.7847    4.5314   -3.9309 C   0  0  0  0  0  0  0  0  0  0  0  0
   12.6974    5.3214   -4.6293 C   0  0  0  0  0  0  0  0  0  0  0  0
   13.0729    6.5600   -4.1148 C   0  0  0  0  0  0  0  0  0  0  0  0
   13.9434    7.3202   -4.7936 F   0  0  0  0  0  0  0  0  0  0  0  0
   12.5578    7.0223   -2.9078 C   0  0  0  0  0  0  0  0  0  0  0  0
   11.6542    6.2254   -2.2025 C   0  0  0  0  0  0  0  0  0  0  0  0
   10.2799    2.8087   -1.9930 C   0  0  0  0  0  0  0  0  0  0  0  0
   10.9261    2.0323   -2.6702 O   0  0  0  0  0  0  0  0  0  0  0  0
   13.4428   -0.7948   -0.5535 C   0  0  0  0  0  0  0  0  0  0  0  0
   13.5838   -0.1410   -2.1770 Cl  0  0  0  0  0  0  0  0  0  0  0  0
   14.5396   -1.4552   -0.0055 C   0  0  0  0  0  0  0  0  0  0  0  0
   15.4434   -3.1581    2.8469 H   0  0  0  0  0  0  0  0  0  0  0  0
   16.5245   -2.0131    2.0207 H   0  0  0  0  0  0  0  0  0  0  0  0
   16.0412   -3.5126    1.2083 H   0  0  0  0  0  0  0  0  0  0  0  0
   13.2015   -2.2786    3.0006 H   0  0  0  0  0  0  0  0  0  0  0  0
   11.2559   -1.1070    2.0187 H   0  0  0  0  0  0  0  0  0  0  0  0
   11.3418    0.4309   -1.3615 H   0  0  0  0  0  0  0  0  0  0  0  0
    7.9645    1.0023   -0.3699 H   0  0  0  0  0  0  0  0  0  0  0  0
    8.8901    0.5251   -1.8407 H   0  0  0  0  0  0  0  0  0  0  0  0
    9.9053    5.2270   -0.1747 H   0  0  0  0  0  0  0  0  0  0  0  0
    7.7950    5.2164   -2.4297 H   0  0  0  0  0  0  0  0  0  0  0  0
    8.8043    6.6144   -1.9689 H   0  0  0  0  0  0  0  0  0  0  0  0
    7.6080    5.9550   -0.8140 H   0  0  0  0  0  0  0  0  0  0  0  0
   11.4948    3.5598   -4.3252 H   0  0  0  0  0  0  0  0  0  0  0  0
   13.1187    4.9854   -5.5787 H   0  0  0  0  0  0  0  0  0  0  0  0
   12.8717    7.9951   -2.5250 H   0  0  0  0  0  0  0  0  0  0  0  0
   11.2697    6.5898   -1.2493 H   0  0  0  0  0  0  0  0  0  0  0  0
   15.4483   -1.5399   -0.6054 H   0  0  0  0  0  0  0  0  0  0  0  0
  1  2  1  0
  1 28  1  0
  1 29  1  0
  1 30  1  0
  2  3  2  0
  2 27  1  0
  3  4  1  0
  3 31  1  0
  4  5  2  0
  4 32  1  0
  5  6  1  0
  5 25  1  0
  6  7  1  0
  6 33  1  0
  7  8  2  0
  7  9  1  0
  9 10  1  0
  9 34  1  0
  9 35  1  0
 10 11  1  0
 10 23  1  0
 11 12  2  0
 11 13  1  0
 13 14  1  0
 13 15  1  0
 13 36  1  1
 14 37  1  0
 14 38  1  0
 14 39  1  0
 15 16  1  0
 15 23  1  0
 16 17  2  0
 16 22  1  0
 17 18  1  0
 17 40  1  0
 18 19  2  0
 18 41  1  0
 19 20  1  0
 19 21  1  0
 21 22  2  0
 21 42  1  0
 22 43  1  0
 23 24  2  0
 25 26  1  0
 25 27  2  0
 27 44  1  0
M  END

