
     RDKit          3D

 33 34  0  0  0  0  0  0  0  0999 V2000
    0.9693   -0.1690    0.6511 C   0  0  0  0  0  0  0  0  0  0  0  0
    2.4361   -0.1855    0.3150 C   0  0  0  0  0  0  0  0  0  0  0  0
    2.9474    0.3340   -0.8796 C   0  0  0  0  0  0  0  0  0  0  0  0
    4.3158    0.2884   -1.1347 C   0  0  0  0  0  0  0  0  0  0  0  0
    4.7636    0.7832   -2.3155 F   0  0  0  0  0  0  0  0  0  0  0  0
    5.2372   -0.2533   -0.2375 C   0  0  0  0  0  0  0  0  0  0  0  0
    6.7256   -0.2928   -0.5649 C   0  0  1  0  0  0  0  0  0  0  0  0
    7.5895    0.4322    0.4696 C   0  0  0  0  0  0  0  0  0  0  0  0
    7.1843   -1.6680   -0.7640 N   0  0  0  0  0  0  0  0  0  0  0  0
    7.7856   -2.3640    0.2428 N   0  0  0  0  0  0  0  0  0  0  0  0
    7.9990   -3.5839   -0.2320 C   0  0  0  0  0  0  0  0  0  0  0  0
    8.6733   -4.6314    0.5950 C   0  0  0  0  0  0  0  0  0  0  0  0
    7.5101   -3.6880   -1.5637 C   0  0  0  0  0  0  0  0  0  0  0  0
    7.5557   -5.3396   -2.8554 I   0  0  0  0  0  0  0  0  0  0  0  0
    6.9744   -2.4374   -1.8701 C   0  0  0  0  0  0  0  0  0  0  0  0
    6.2956   -2.0073   -2.9831 N   0  0  0  0  0  0  0  0  0  0  0  0
    4.7271   -0.7886    0.9549 C   0  0  0  0  0  0  0  0  0  0  0  0
    3.3630   -0.7442    1.2083 C   0  0  0  0  0  0  0  0  0  0  0  0
    2.8987   -1.2611    2.3601 F   0  0  0  0  0  0  0  0  0  0  0  0
    0.3829    0.2969   -0.1531 H   0  0  0  0  0  0  0  0  0  0  0  0
    0.7816    0.3873    1.5839 H   0  0  0  0  0  0  0  0  0  0  0  0
    0.5877   -1.1905    0.8114 H   0  0  0  0  0  0  0  0  0  0  0  0
    2.2850    0.7748   -1.6276 H   0  0  0  0  0  0  0  0  0  0  0  0
    6.8634    0.2202   -1.5280 H   0  0  0  0  0  0  0  0  0  0  0  0
    7.5100   -0.0369    1.4585 H   0  0  0  0  0  0  0  0  0  0  0  0
    7.2653    1.4809    0.5431 H   0  0  0  0  0  0  0  0  0  0  0  0
    8.6472    0.4044    0.1702 H   0  0  0  0  0  0  0  0  0  0  0  0
    8.8991   -4.2259    1.5908 H   0  0  0  0  0  0  0  0  0  0  0  0
    9.6152   -4.9663    0.1297 H   0  0  0  0  0  0  0  0  0  0  0  0
    8.0355   -5.5229    0.7118 H   0  0  0  0  0  0  0  0  0  0  0  0
    6.4488   -2.5440   -3.8288 H   0  0  0  0  0  0  0  0  0  0  0  0
    6.1512   -1.0146   -3.1216 H   0  0  0  0  0  0  0  0  0  0  0  0
    5.3913   -1.2593    1.6825 H   0  0  0  0  0  0  0  0  0  0  0  0
  1  2  1  0
  1 20  1  0
  1 21  1  0
  1 22  1  0
  2  3  2  0
  2 18  1  0
  3  4  1  0
  3 23  1  0
  4  5  1  0
  4  6  2  0
  6  7  1  0
  6 17  1  0
  7  8  1  0
  7  9  1  0
  7 24  1  6
  8 25  1  0
  8 26  1  0
  8 27  1  0
  9 10  1  0
  9 15  1  0
 10 11  2  0
 11 12  1  0
 11 13  1  0
 12 28  1  0
 12 29  1  0
 12 30  1  0
 13 14  1  0
 13 15  2  0
 15 16  1  0
 16 31  1  0
 16 32  1  0
 17 18  2  0
 17 33  1  0
 18 19  1  0
M  END

