
     RDKit          3D

 61 65  0  0  0  0  0  0  0  0999 V2000
    3.9533   -1.2252   -5.7189 C   0  0  0  0  0  0  0  0  0  0  0  0
    4.7922   -0.8321   -4.4900 C   0  0  1  0  0  0  0  0  0  0  0  0
    6.1675   -0.2672   -4.8870 C   0  0  0  0  0  0  0  0  0  0  0  0
    4.0335    0.1275   -3.5795 C   0  0  0  0  0  0  0  0  0  0  0  0
    3.6751    1.3978   -4.0521 C   0  0  0  0  0  0  0  0  0  0  0  0
    2.9814    2.2971   -3.2446 C   0  0  0  0  0  0  0  0  0  0  0  0
    2.6324    1.9392   -1.9438 C   0  0  0  0  0  0  0  0  0  0  0  0
    2.9667    0.6807   -1.4245 C   0  0  0  0  0  0  0  0  0  0  0  0
    2.5717    0.3224    0.0042 C   0  0  1  0  0  0  0  0  0  0  0  0
    3.2726    1.2335    1.0275 C   0  0  0  0  0  0  0  0  0  0  0  0
    1.0436    0.3196    0.1856 C   0  0  0  0  0  0  0  0  0  0  0  0
    3.6681   -0.2107   -2.2610 C   0  0  0  0  0  0  0  0  0  0  0  0
    4.0262   -1.5192   -1.7476 N   0  0  0  0  0  0  0  0  0  0  0  0
    3.1070   -2.5661   -1.9496 C   0  0  0  0  0  0  0  0  0  0  0  0
    2.0581   -2.3719   -2.5339 O   0  0  0  0  0  0  0  0  0  0  0  0
    3.4896   -3.9020   -1.4144 C   0  0  0  0  0  0  0  0  0  0  0  0
    2.6246   -4.9736   -1.5812 C   0  0  0  0  0  0  0  0  0  0  0  0
    2.9643   -6.2486   -1.0831 C   0  0  0  0  0  0  0  0  0  0  0  0
    4.1640   -6.4469   -0.4222 C   0  0  0  0  0  0  0  0  0  0  0  0
    5.0693   -5.3704   -0.2363 C   0  0  0  0  0  0  0  0  0  0  0  0
    6.3236   -5.5198    0.4400 C   0  0  0  0  0  0  0  0  0  0  0  0
    6.5926   -6.7743    0.8961 O   0  0  0  0  0  0  0  0  0  0  0  0
    7.7670   -7.0546    1.5728 C   0  0  0  0  0  0  0  0  0  0  0  0
    7.8023   -6.9522    2.9656 C   0  0  0  0  0  0  0  0  0  0  0  0
    8.9641   -7.3038    3.6558 C   0  0  0  0  0  0  0  0  0  0  0  0
   10.0798   -7.7557    2.9433 C   0  0  0  0  0  0  0  0  0  0  0  0
   11.5331   -8.1981    3.8051 Cl  0  0  0  0  0  0  0  0  0  0  0  0
   10.0434   -7.8619    1.5490 C   0  0  0  0  0  0  0  0  0  0  0  0
    8.8802   -7.5093    0.8617 C   0  0  0  0  0  0  0  0  0  0  0  0
    7.1791   -4.4387    0.5993 C   0  0  0  0  0  0  0  0  0  0  0  0
    6.8171   -3.1752    0.0929 C   0  0  0  0  0  0  0  0  0  0  0  0
    5.6140   -2.9825   -0.5682 C   0  0  0  0  0  0  0  0  0  0  0  0
    4.7265   -4.0785   -0.7401 C   0  0  0  0  0  0  0  0  0  0  0  0
    5.2679   -1.6374   -1.0865 C   0  0  0  0  0  0  0  0  0  0  0  0
    5.9975   -0.6720   -0.9608 O   0  0  0  0  0  0  0  0  0  0  0  0
    4.4877   -1.9706   -6.3308 H   0  0  0  0  0  0  0  0  0  0  0  0
    3.7457   -0.3549   -6.3629 H   0  0  0  0  0  0  0  0  0  0  0  0
    2.9882   -1.6571   -5.4128 H   0  0  0  0  0  0  0  0  0  0  0  0
    4.9794   -1.7558   -3.9230 H   0  0  0  0  0  0  0  0  0  0  0  0
    6.0708    0.6493   -5.4918 H   0  0  0  0  0  0  0  0  0  0  0  0
    6.7295   -1.0020   -5.4868 H   0  0  0  0  0  0  0  0  0  0  0  0
    6.7635   -0.0219   -3.9945 H   0  0  0  0  0  0  0  0  0  0  0  0
    3.9444    1.6877   -5.0706 H   0  0  0  0  0  0  0  0  0  0  0  0
    2.7112    3.2833   -3.6315 H   0  0  0  0  0  0  0  0  0  0  0  0
    2.0891    2.6515   -1.3182 H   0  0  0  0  0  0  0  0  0  0  0  0
    2.9173   -0.7030    0.2010 H   0  0  0  0  0  0  0  0  0  0  0  0
    2.9559    2.2837    0.9185 H   0  0  0  0  0  0  0  0  0  0  0  0
    4.3656    1.1951    0.9023 H   0  0  0  0  0  0  0  0  0  0  0  0
    3.0307    0.9190    2.0562 H   0  0  0  0  0  0  0  0  0  0  0  0
    0.6151    1.3246    0.0384 H   0  0  0  0  0  0  0  0  0  0  0  0
    0.7751   -0.0089    1.2033 H   0  0  0  0  0  0  0  0  0  0  0  0
    0.5639   -0.3610   -0.5344 H   0  0  0  0  0  0  0  0  0  0  0  0
    1.6822   -4.8013   -2.1047 H   0  0  0  0  0  0  0  0  0  0  0  0
    2.2740   -7.0839   -1.2212 H   0  0  0  0  0  0  0  0  0  0  0  0
    4.4315   -7.4309   -0.0350 H   0  0  0  0  0  0  0  0  0  0  0  0
    6.9174   -6.6049    3.5026 H   0  0  0  0  0  0  0  0  0  0  0  0
    9.0068   -7.2327    4.7438 H   0  0  0  0  0  0  0  0  0  0  0  0
   10.9202   -8.2220    1.0087 H   0  0  0  0  0  0  0  0  0  0  0  0
    8.8271   -7.5918   -0.2257 H   0  0  0  0  0  0  0  0  0  0  0  0
    8.1309   -4.5651    1.1155 H   0  0  0  0  0  0  0  0  0  0  0  0
    7.4844   -2.3195    0.2140 H   0  0  0  0  0  0  0  0  0  0  0  0
  1  2  1  0
  1 36  1  0
  1 37  1  0
  1 38  1  0
  2  3  1  0
  2  4  1  0
  2 39  1  1
  3 40  1  0
  3 41  1  0
  3 42  1  0
  4  5  2  0
  4 12  1  0
  5  6  1  0
  5 43  1  0
  6  7  2  0
  6 44  1  0
  7  8  1  0
  7 45  1  0
  8  9  1  0
  8 12  2  0
  9 10  1  0
  9 11  1  0
  9 46  1  1
 10 47  1  0
 10 48  1  0
 10 49  1  0
 11 50  1  0
 11 51  1  0
 11 52  1  0
 12 13  1  0
 13 14  1  0
 13 34  1  0
 14 15  2  0
 14 16  1  0
 16 17  2  0
 16 33  1  0
 17 18  1  0
 17 53  1  0
 18 19  2  0
 18 54  1  0
 19 20  1  0
 19 55  1  0
 20 21  1  0
 20 33  2  0
 21 22  1  0
 21 30  2  0
 22 23  1  0
 23 24  2  0
 23 29  1  0
 24 25  1  0
 24 56  1  0
 25 26  2  0
 25 57  1  0
 26 27  1  0
 26 28  1  0
 28 29  2  0
 28 58  1  0
 29 59  1  0
 30 31  1  0
 30 60  1  0
 31 32  2  0
 31 61  1  0
 32 33  1  0
 32 34  1  0
 34 35  2  0
M  END

