
     RDKit          3D

 56 60  0  0  0  0  0  0  0  0999 V2000
    2.0114    0.8657    2.6660 C   0  0  0  0  0  0  0  0  0  0  0  0
    3.1009    1.5204    1.8384 C   0  0  0  0  0  0  0  0  0  0  0  0
    3.7487    0.5086    1.0843 O   0  0  0  0  0  0  0  0  0  0  0  0
    4.7684    0.8363    0.2517 C   0  0  0  0  0  0  0  0  0  0  0  0
    5.3557   -0.2243   -0.4602 C   0  0  0  0  0  0  0  0  0  0  0  0
    6.4008    0.0083   -1.3456 C   0  0  0  0  0  0  0  0  0  0  0  0
    6.8979    1.3105   -1.5297 C   0  0  0  0  0  0  0  0  0  0  0  0
    7.9732    1.5489   -2.4336 N   0  0  0  0  0  0  0  0  0  0  0  0
    9.0565    0.7195   -2.6318 C   0  0  0  0  0  0  0  0  0  0  0  0
    9.3133   -0.3346   -2.0861 O   0  0  0  0  0  0  0  0  0  0  0  0
    9.9171    1.3568   -3.7014 C   0  0  0  0  0  0  0  0  0  0  0  0
   10.9952    0.6077   -4.0243 N   0  0  0  0  0  0  0  0  0  0  0  0
   11.8644    0.6321   -5.1268 C   0  0  0  0  0  0  0  0  0  0  0  0
   11.5043    1.1974   -6.3591 C   0  0  0  0  0  0  0  0  0  0  0  0
   12.3832    1.1660   -7.4593 C   0  0  0  0  0  0  0  0  0  0  0  0
   13.6065    0.5471   -7.2866 C   0  0  0  0  0  0  0  0  0  0  0  0
   13.9611   -0.0317   -6.0640 C   0  0  0  0  0  0  0  0  0  0  0  0
   13.1228   -0.0046   -4.9679 C   0  0  0  0  0  0  0  0  0  0  0  0
   15.1985   -0.5985   -6.1738 O   0  0  0  0  0  0  0  0  0  0  0  0
   15.6952   -0.2205   -7.4572 C   0  0  0  0  0  0  0  0  0  0  0  0
   14.6161    0.3465   -8.1904 O   0  0  0  0  0  0  0  0  0  0  0  0
    9.3533    2.5523   -4.0738 C   0  0  0  0  0  0  0  0  0  0  0  0
    9.8104    3.6408   -4.9496 C   0  0  0  0  0  0  0  0  0  0  0  0
    8.9172    4.2944   -5.8162 C   0  0  0  0  0  0  0  0  0  0  0  0
    9.3316    5.3455   -6.6368 C   0  0  0  0  0  0  0  0  0  0  0  0
   10.6606    5.7687   -6.5928 C   0  0  0  0  0  0  0  0  0  0  0  0
   11.5701    5.1550   -5.7262 C   0  0  0  0  0  0  0  0  0  0  0  0
   11.1520    4.1038   -4.8975 C   0  0  0  0  0  0  0  0  0  0  0  0
   11.9607    3.4881   -3.9986 O   0  0  0  0  0  0  0  0  0  0  0  0
   13.3117    3.8753   -3.8916 C   0  0  0  0  0  0  0  0  0  0  0  0
    8.0854    2.6829   -3.3072 C   0  0  0  0  0  0  0  0  0  0  0  0
    7.2637    3.5671   -3.3592 O   0  0  0  0  0  0  0  0  0  0  0  0
    6.3223    2.3665   -0.8151 C   0  0  0  0  0  0  0  0  0  0  0  0
    5.2593    2.1370    0.0638 C   0  0  0  0  0  0  0  0  0  0  0  0
    1.4835    1.6216    3.2679 H   0  0  0  0  0  0  0  0  0  0  0  0
    2.4393    0.1139    3.3467 H   0  0  0  0  0  0  0  0  0  0  0  0
    1.2788    0.3632    2.0160 H   0  0  0  0  0  0  0  0  0  0  0  0
    3.8329    2.0340    2.4906 H   0  0  0  0  0  0  0  0  0  0  0  0
    2.6728    2.2829    1.1600 H   0  0  0  0  0  0  0  0  0  0  0  0
    4.9662   -1.2323   -0.3045 H   0  0  0  0  0  0  0  0  0  0  0  0
    6.8467   -0.8259   -1.8864 H   0  0  0  0  0  0  0  0  0  0  0  0
   11.0835   -0.1978   -3.4032 H   0  0  0  0  0  0  0  0  0  0  0  0
   10.5239    1.6544   -6.4789 H   0  0  0  0  0  0  0  0  0  0  0  0
   12.0993    1.6031   -8.4176 H   0  0  0  0  0  0  0  0  0  0  0  0
   13.4182   -0.4518   -4.0174 H   0  0  0  0  0  0  0  0  0  0  0  0
   16.0779   -1.1104   -7.9832 H   0  0  0  0  0  0  0  0  0  0  0  0
   16.5022    0.5295   -7.3350 H   0  0  0  0  0  0  0  0  0  0  0  0
    7.8782    3.9640   -5.8388 H   0  0  0  0  0  0  0  0  0  0  0  0
    8.6176    5.8298   -7.3066 H   0  0  0  0  0  0  0  0  0  0  0  0
   11.0006    6.5877   -7.2320 H   0  0  0  0  0  0  0  0  0  0  0  0
   12.6014    5.5059   -5.6952 H   0  0  0  0  0  0  0  0  0  0  0  0
   13.7559    3.2438   -3.1107 H   0  0  0  0  0  0  0  0  0  0  0  0
   13.4121    4.9348   -3.5955 H   0  0  0  0  0  0  0  0  0  0  0  0
   13.8594    3.7131   -4.8368 H   0  0  0  0  0  0  0  0  0  0  0  0
    6.6915    3.3814   -0.9555 H   0  0  0  0  0  0  0  0  0  0  0  0
    4.8289    2.9840    0.5977 H   0  0  0  0  0  0  0  0  0  0  0  0
  1  2  1  0
  1 35  1  0
  1 36  1  0
  1 37  1  0
  2  3  1  0
  2 38  1  0
  2 39  1  0
  3  4  1  0
  4  5  2  0
  4 34  1  0
  5  6  1  0
  5 40  1  0
  6  7  2  0
  6 41  1  0
  7  8  1  0
  7 33  1  0
  8  9  1  0
  8 31  1  0
  9 10  2  0
  9 11  1  0
 11 12  1  0
 11 22  2  0
 12 13  1  0
 12 42  1  0
 13 14  2  0
 13 18  1  0
 14 15  1  0
 14 43  1  0
 15 16  2  0
 15 44  1  0
 16 17  1  0
 16 21  1  0
 17 18  2  0
 17 19  1  0
 18 45  1  0
 19 20  1  0
 20 21  1  0
 20 46  1  0
 20 47  1  0
 22 23  1  0
 22 31  1  0
 23 24  2  0
 23 28  1  0
 24 25  1  0
 24 48  1  0
 25 26  2  0
 25 49  1  0
 26 27  1  0
 26 50  1  0
 27 28  2  0
 27 51  1  0
 28 29  1  0
 29 30  1  0
 30 52  1  0
 30 53  1  0
 30 54  1  0
 31 32  2  0
 33 34  2  0
 33 55  1  0
 34 56  1  0
M  END

