
     RDKit          3D

 38 39  0  0  0  0  0  0  0  0999 V2000
    5.3108   -2.6532   -0.0020 C   0  0  0  0  0  0  0  0  0  0  0  0
    4.8082   -1.7446    0.9434 O   0  0  0  0  0  0  0  0  0  0  0  0
    4.6570   -0.4296    0.4535 C   0  0  0  0  0  0  0  0  0  0  0  0
    3.9868    0.4254    1.5359 C   0  0  0  0  0  0  0  0  0  0  0  0
    4.5957    0.4002    2.8515 N   0  0  0  0  0  0  0  0  0  0  0  0
    5.9599    0.9151    2.9468 C   0  0  0  0  0  0  0  0  0  0  0  0
    6.5824    0.6603    4.2856 C   0  0  0  0  0  0  0  0  0  0  0  0
    6.7481    1.5223    5.3567 C   0  0  0  0  0  0  0  0  0  0  0  0
    7.3464    0.7898    6.4204 C   0  0  0  0  0  0  0  0  0  0  0  0
    7.5241   -0.5028    5.9708 C   0  0  0  0  0  0  0  0  0  0  0  0
    7.0587   -0.5840    4.6763 N   0  0  0  0  0  0  0  0  0  0  0  0
    7.1335   -1.7916    3.8591 C   0  0  0  0  0  0  0  0  0  0  0  0
    8.5468   -2.1602    3.4395 C   0  0  0  0  0  0  0  0  0  0  0  0
    9.1836   -1.4417    2.4132 C   0  0  0  0  0  0  0  0  0  0  0  0
   10.4806   -1.7294    1.9922 C   0  0  0  0  0  0  0  0  0  0  0  0
   11.1632   -2.7717    2.6155 C   0  0  0  0  0  0  0  0  0  0  0  0
   12.4084   -3.0692    2.2254 F   0  0  0  0  0  0  0  0  0  0  0  0
   10.5827   -3.5163    3.6364 C   0  0  0  0  0  0  0  0  0  0  0  0
    9.2813   -3.1989    4.0388 C   0  0  0  0  0  0  0  0  0  0  0  0
    8.5937   -4.1565    5.3408 Cl  0  0  0  0  0  0  0  0  0  0  0  0
    5.3950   -3.6363    0.4839 H   0  0  0  0  0  0  0  0  0  0  0  0
    6.3126   -2.3558   -0.3732 H   0  0  0  0  0  0  0  0  0  0  0  0
    4.6385   -2.7493   -0.8780 H   0  0  0  0  0  0  0  0  0  0  0  0
    4.0267   -0.4206   -0.4602 H   0  0  0  0  0  0  0  0  0  0  0  0
    5.6447   -0.0160    0.1600 H   0  0  0  0  0  0  0  0  0  0  0  0
    2.9420    0.0877    1.6423 H   0  0  0  0  0  0  0  0  0  0  0  0
    3.9453    1.4677    1.1705 H   0  0  0  0  0  0  0  0  0  0  0  0
    4.5371   -0.5384    3.2399 H   0  0  0  0  0  0  0  0  0  0  0  0
    5.9339    2.0070    2.7911 H   0  0  0  0  0  0  0  0  0  0  0  0
    6.6274    0.5194    2.1482 H   0  0  0  0  0  0  0  0  0  0  0  0
    6.4520    2.5701    5.3657 H   0  0  0  0  0  0  0  0  0  0  0  0
    7.6114    1.1637    7.4078 H   0  0  0  0  0  0  0  0  0  0  0  0
    7.9458   -1.3769    6.4622 H   0  0  0  0  0  0  0  0  0  0  0  0
    6.5129   -1.6447    2.9648 H   0  0  0  0  0  0  0  0  0  0  0  0
    6.6890   -2.6243    4.4210 H   0  0  0  0  0  0  0  0  0  0  0  0
    8.6397   -0.6246    1.9331 H   0  0  0  0  0  0  0  0  0  0  0  0
   10.9666   -1.1645    1.1951 H   0  0  0  0  0  0  0  0  0  0  0  0
   11.1390   -4.3252    4.1099 H   0  0  0  0  0  0  0  0  0  0  0  0
  1  2  1  0
  1 21  1  0
  1 22  1  0
  1 23  1  0
  2  3  1  0
  3  4  1  0
  3 24  1  0
  3 25  1  0
  4  5  1  0
  4 26  1  0
  4 27  1  0
  5  6  1  0
  5 28  1  0
  6  7  1  0
  6 29  1  0
  6 30  1  0
  7  8  2  0
  7 11  1  0
  8  9  1  0
  8 31  1  0
  9 10  2  0
  9 32  1  0
 10 11  1  0
 10 33  1  0
 11 12  1  0
 12 13  1  0
 12 34  1  0
 12 35  1  0
 13 14  2  0
 13 19  1  0
 14 15  1  0
 14 36  1  0
 15 16  2  0
 15 37  1  0
 16 17  1  0
 16 18  1  0
 18 19  2  0
 18 38  1  0
 19 20  1  0
M  END

