
     RDKit          3D

 66 72  0  0  0  0  0  0  0  0999 V2000
    7.0137   -7.0520   -1.2638 Br  0  0  0  0  0  0  0  0  0  0  0  0
    7.3191   -5.1841   -1.0218 C   0  0  0  0  0  0  0  0  0  0  0  0
    8.6202   -4.6787   -1.0963 C   0  0  0  0  0  0  0  0  0  0  0  0
    8.8358   -3.3129   -0.9154 C   0  0  0  0  0  0  0  0  0  0  0  0
    7.7689   -2.4334   -0.6509 C   0  0  0  0  0  0  0  0  0  0  0  0
    8.0485   -0.9938   -0.4886 C   0  0  0  0  0  0  0  0  0  0  0  0
    9.1315   -0.4316   -1.1129 N   0  0  0  0  0  0  0  0  0  0  0  0
    9.1132    0.8614   -0.8428 C   0  0  0  0  0  0  0  0  0  0  0  0
   10.0923    1.8422   -1.3143 C   0  0  0  0  0  0  0  0  0  0  0  0
    9.9809    3.2208   -1.0463 C   0  0  0  0  0  0  0  0  0  0  0  0
   10.9332    4.1213   -1.5097 C   0  0  0  0  0  0  0  0  0  0  0  0
   12.0362    3.6779   -2.2640 C   0  0  0  0  0  0  0  0  0  0  0  0
   13.0164    4.6586   -2.7332 C   0  0  0  0  0  0  0  0  0  0  0  0
   12.9419    5.9650   -2.5510 N   0  0  0  0  0  0  0  0  0  0  0  0
   14.0471    6.5224   -3.1395 C   0  0  0  0  0  0  0  0  0  0  0  0
   14.2189    7.9878   -3.1459 C   0  0  0  0  0  0  0  0  0  0  0  0
   13.6326    8.7504   -2.1179 C   0  0  0  0  0  0  0  0  0  0  0  0
   13.7495   10.1397   -2.0904 C   0  0  0  0  0  0  0  0  0  0  0  0
   14.4554   10.7894   -3.1070 C   0  0  0  0  0  0  0  0  0  0  0  0
   14.6242   12.6898   -3.0769 Br  0  0  0  0  0  0  0  0  0  0  0  0
   15.0313   10.0600   -4.1504 C   0  0  0  0  0  0  0  0  0  0  0  0
   14.9069    8.6697   -4.1662 C   0  0  0  0  0  0  0  0  0  0  0  0
   14.8449    5.5116   -3.6934 C   0  0  0  0  0  0  0  0  0  0  0  0
   16.1471    5.4764   -4.3737 C   0  0  0  0  0  0  0  0  0  0  0  0
   17.2239    6.2739   -3.9382 C   0  0  0  0  0  0  0  0  0  0  0  0
   18.4677    6.2114   -4.5647 C   0  0  0  0  0  0  0  0  0  0  0  0
   18.6575    5.3349   -5.6384 C   0  0  0  0  0  0  0  0  0  0  0  0
   20.3572    5.2418   -6.4935 Br  0  0  0  0  0  0  0  0  0  0  0  0
   17.6105    4.5265   -6.0878 C   0  0  0  0  0  0  0  0  0  0  0  0
   16.3669    4.6041   -5.4586 C   0  0  0  0  0  0  0  0  0  0  0  0
   14.1504    4.3454   -3.4352 N   0  0  0  0  0  0  0  0  0  0  0  0
   14.4967    3.4163   -3.6388 H   0  0  0  0  0  0  0  0  0  0  0  0
   12.1430    2.3003   -2.5392 C   0  0  0  0  0  0  0  0  0  0  0  0
   11.1921    1.3994   -2.0735 C   0  0  0  0  0  0  0  0  0  0  0  0
    8.0347    1.1620   -0.0533 N   0  0  0  0  0  0  0  0  0  0  0  0
    7.8293    2.0574    0.3718 H   0  0  0  0  0  0  0  0  0  0  0  0
    7.3434   -0.0048    0.2110 C   0  0  0  0  0  0  0  0  0  0  0  0
    6.1730   -0.0003    1.0998 C   0  0  0  0  0  0  0  0  0  0  0  0
    5.2316    1.0469    1.0416 C   0  0  0  0  0  0  0  0  0  0  0  0
    4.1383    1.0898    1.9083 C   0  0  0  0  0  0  0  0  0  0  0  0
    3.9686    0.0705    2.8484 C   0  0  0  0  0  0  0  0  0  0  0  0
    2.4769    0.1158    4.0324 Br  0  0  0  0  0  0  0  0  0  0  0  0
    4.8862   -0.9825    2.9277 C   0  0  0  0  0  0  0  0  0  0  0  0
    5.9794   -1.0102    2.0630 C   0  0  0  0  0  0  0  0  0  0  0  0
    6.4679   -2.9667   -0.6009 C   0  0  0  0  0  0  0  0  0  0  0  0
    6.2385   -4.3319   -0.7801 C   0  0  0  0  0  0  0  0  0  0  0  0
    9.4585   -5.3488   -1.2945 H   0  0  0  0  0  0  0  0  0  0  0  0
    9.8460   -2.9060   -0.9817 H   0  0  0  0  0  0  0  0  0  0  0  0
    9.1358    3.6109   -0.4726 H   0  0  0  0  0  0  0  0  0  0  0  0
   10.8421    5.1884   -1.3022 H   0  0  0  0  0  0  0  0  0  0  0  0
   13.0752    8.2336   -1.3351 H   0  0  0  0  0  0  0  0  0  0  0  0
   13.2946   10.7164   -1.2832 H   0  0  0  0  0  0  0  0  0  0  0  0
   15.5636   10.5744   -4.9522 H   0  0  0  0  0  0  0  0  0  0  0  0
   15.3378    8.1139   -5.0005 H   0  0  0  0  0  0  0  0  0  0  0  0
   17.0877    6.9440   -3.0874 H   0  0  0  0  0  0  0  0  0  0  0  0
   19.2924    6.8330   -4.2120 H   0  0  0  0  0  0  0  0  0  0  0  0
   17.7611    3.8498   -6.9305 H   0  0  0  0  0  0  0  0  0  0  0  0
   15.5455    3.9906   -5.8383 H   0  0  0  0  0  0  0  0  0  0  0  0
   12.9759    1.9128   -3.1322 H   0  0  0  0  0  0  0  0  0  0  0  0
   11.2773    0.3338   -2.2907 H   0  0  0  0  0  0  0  0  0  0  0  0
    5.3377    1.8324    0.2886 H   0  0  0  0  0  0  0  0  0  0  0  0
    3.4158    1.9052    1.8449 H   0  0  0  0  0  0  0  0  0  0  0  0
    4.7534   -1.7705    3.6709 H   0  0  0  0  0  0  0  0  0  0  0  0
    6.7035   -1.8228    2.1440 H   0  0  0  0  0  0  0  0  0  0  0  0
    5.6132   -2.3077   -0.4400 H   0  0  0  0  0  0  0  0  0  0  0  0
    5.2227   -4.7291   -0.7436 H   0  0  0  0  0  0  0  0  0  0  0  0
  1  2  1  0
  2  3  2  0
  2 46  1  0
  3  4  1  0
  3 47  1  0
  4  5  2  0
  4 48  1  0
  5  6  1  0
  5 45  1  0
  6  7  1  0
  6 37  2  0
  7  8  2  0
  8  9  1  0
  8 35  1  0
  9 10  2  0
  9 34  1  0
 10 11  1  0
 10 49  1  0
 11 12  2  0
 11 50  1  0
 12 13  1  0
 12 33  1  0
 13 14  2  0
 13 31  1  0
 14 15  1  0
 15 16  1  0
 15 23  2  0
 16 17  2  0
 16 22  1  0
 17 18  1  0
 17 51  1  0
 18 19  2  0
 18 52  1  0
 19 20  1  0
 19 21  1  0
 21 22  2  0
 21 53  1  0
 22 54  1  0
 23 24  1  0
 23 31  1  0
 24 25  2  0
 24 30  1  0
 25 26  1  0
 25 55  1  0
 26 27  2  0
 26 56  1  0
 27 28  1  0
 27 29  1  0
 29 30  2  0
 29 57  1  0
 30 58  1  0
 31 32  1  0
 33 34  2  0
 33 59  1  0
 34 60  1  0
 35 36  1  0
 35 37  1  0
 37 38  1  0
 38 39  2  0
 38 44  1  0
 39 40  1  0
 39 61  1  0
 40 41  2  0
 40 62  1  0
 41 42  1  0
 41 43  1  0
 43 44  2  0
 43 63  1  0
 44 64  1  0
 45 46  2  0
 45 65  1  0
 46 66  1  0
M  END

