
     RDKit          3D

 30 31  0  0  0  0  0  0  0  0999 V2000
    7.1458    0.1062   -4.7198 C   0  0  0  0  0  0  0  0  0  0  0  0
    6.9088    0.3881   -3.2782 C   0  0  0  0  0  0  0  0  0  0  0  0
    5.9819    1.1296   -2.5988 C   0  0  0  0  0  0  0  0  0  0  0  0
    6.3488    0.9588   -1.2286 C   0  0  0  0  0  0  0  0  0  0  0  0
    5.7003    1.5196    0.0118 C   0  0  0  0  0  0  0  0  0  0  0  0
    5.5271    2.9638   -0.0207 N   0  0  0  0  0  0  0  0  0  0  0  0
    4.3440    3.6262   -0.3684 C   0  0  0  0  0  0  0  0  0  0  0  0
    3.0632    2.9048   -0.6439 C   0  0  0  0  0  0  0  0  0  0  0  0
    4.6095    4.9731   -0.3590 C   0  0  0  0  0  0  0  0  0  0  0  0
    5.9852    5.1493    0.0008 C   0  0  0  0  0  0  0  0  0  0  0  0
    6.6656    6.4334    0.1298 C   0  0  0  0  0  0  0  0  0  0  0  0
    6.1447    7.5155   -0.0577 O   0  0  0  0  0  0  0  0  0  0  0  0
    6.5306    3.8788    0.2043 C   0  0  0  0  0  0  0  0  0  0  0  0
    7.9056    3.4630    0.6203 C   0  0  0  0  0  0  0  0  0  0  0  0
    7.4064    0.1889   -1.1096 N   0  0  0  0  0  0  0  0  0  0  0  0
    7.7555   -0.1754   -2.3944 O   0  0  0  0  0  0  0  0  0  0  0  0
    6.3963    0.6184   -5.3374 H   0  0  0  0  0  0  0  0  0  0  0  0
    7.0906   -0.9757   -4.9218 H   0  0  0  0  0  0  0  0  0  0  0  0
    8.1477    0.4480   -5.0254 H   0  0  0  0  0  0  0  0  0  0  0  0
    5.1697    1.7209   -3.0123 H   0  0  0  0  0  0  0  0  0  0  0  0
    6.3134    1.2310    0.8771 H   0  0  0  0  0  0  0  0  0  0  0  0
    4.7119    1.0597    0.1525 H   0  0  0  0  0  0  0  0  0  0  0  0
    3.1388    2.1900   -1.4818 H   0  0  0  0  0  0  0  0  0  0  0  0
    2.2866    3.6364   -0.9064 H   0  0  0  0  0  0  0  0  0  0  0  0
    2.6983    2.3410    0.2330 H   0  0  0  0  0  0  0  0  0  0  0  0
    3.9084    5.7766   -0.5729 H   0  0  0  0  0  0  0  0  0  0  0  0
    7.7472    6.3742    0.4231 H   0  0  0  0  0  0  0  0  0  0  0  0
    8.5670    4.3363    0.6848 H   0  0  0  0  0  0  0  0  0  0  0  0
    8.3564    2.7450   -0.0834 H   0  0  0  0  0  0  0  0  0  0  0  0
    7.9016    2.9789    1.6131 H   0  0  0  0  0  0  0  0  0  0  0  0
  1  2  1  0
  1 17  1  0
  1 18  1  0
  1 19  1  0
  2  3  2  0
  2 16  1  0
  3  4  1  0
  3 20  1  0
  4  5  1  0
  4 15  2  0
  5  6  1  0
  5 21  1  0
  5 22  1  0
  6  7  1  0
  6 13  1  0
  7  8  1  0
  7  9  2  0
  8 23  1  0
  8 24  1  0
  8 25  1  0
  9 10  1  0
  9 26  1  0
 10 11  1  0
 10 13  2  0
 11 12  2  0
 11 27  1  0
 13 14  1  0
 14 28  1  0
 14 29  1  0
 14 30  1  0
 15 16  1  0
M  END

