
     RDKit          3D

 30 32  0  0  0  0  0  0  0  0999 V2000
    4.5716   -1.4899    2.9019 O   0  0  0  0  0  0  0  0  0  0  0  0
    4.3142   -1.1794    1.7592 C   0  0  0  0  0  0  0  0  0  0  0  0
    3.2052   -0.4709    1.3148 N   0  0  0  0  0  0  0  0  0  0  0  0
    3.1116   -0.5066   -0.1334 C   0  0  0  0  0  0  0  0  0  0  0  0
    4.5969   -0.7230   -0.5360 C   0  0  2  0  0  0  0  0  0  0  0  0
    4.7962   -1.4273   -1.8622 C   0  0  0  0  0  0  0  0  0  0  0  0
    5.0074   -0.6826   -3.0335 C   0  0  0  0  0  0  0  0  0  0  0  0
    5.1437   -1.3150   -4.2658 C   0  0  0  0  0  0  0  0  0  0  0  0
    5.0810   -2.7139   -4.3520 C   0  0  0  0  0  0  0  0  0  0  0  0
    4.8700   -3.4871   -3.1920 C   0  0  0  0  0  0  0  0  0  0  0  0
    4.7301   -2.8216   -1.9671 C   0  0  0  0  0  0  0  0  0  0  0  0
    4.7898   -4.9972   -3.2915 C   0  0  0  0  0  0  0  0  0  0  0  0
    4.5146   -5.4345   -4.7331 C   0  0  0  0  0  0  0  0  0  0  0  0
    5.4253   -4.6642   -5.6795 C   0  0  0  0  0  0  0  0  0  0  0  0
    5.2161   -3.2584   -5.5926 O   0  0  0  0  0  0  0  0  0  0  0  0
    5.0719   -1.4608    0.6267 N   0  0  0  0  0  0  0  0  0  0  0  0
    2.3833   -0.4744    1.9075 H   0  0  0  0  0  0  0  0  0  0  0  0
    2.7066    0.4249   -0.5575 H   0  0  0  0  0  0  0  0  0  0  0  0
    2.4959   -1.3510   -0.4993 H   0  0  0  0  0  0  0  0  0  0  0  0
    5.0836    0.2717   -0.5952 H   0  0  0  0  0  0  0  0  0  0  0  0
    5.0724    0.4083   -2.9798 H   0  0  0  0  0  0  0  0  0  0  0  0
    5.3107   -0.7467   -5.1831 H   0  0  0  0  0  0  0  0  0  0  0  0
    4.5690   -3.4111   -1.0600 H   0  0  0  0  0  0  0  0  0  0  0  0
    4.0119   -5.3781   -2.6100 H   0  0  0  0  0  0  0  0  0  0  0  0
    5.7412   -5.4431   -2.9467 H   0  0  0  0  0  0  0  0  0  0  0  0
    3.4645   -5.2289   -5.0027 H   0  0  0  0  0  0  0  0  0  0  0  0
    4.6777   -6.5168   -4.8597 H   0  0  0  0  0  0  0  0  0  0  0  0
    5.2413   -4.9270   -6.7313 H   0  0  0  0  0  0  0  0  0  0  0  0
    6.4869   -4.8878   -5.4551 H   0  0  0  0  0  0  0  0  0  0  0  0
    6.0582   -1.6548    0.7582 H   0  0  0  0  0  0  0  0  0  0  0  0
  1  2  2  0
  2  3  1  0
  2 16  1  0
  3  4  1  0
  3 17  1  0
  4  5  1  0
  4 18  1  0
  4 19  1  0
  5  6  1  0
  5 16  1  0
  5 20  1  6
  6  7  2  0
  6 11  1  0
  7  8  1  0
  7 21  1  0
  8  9  2  0
  8 22  1  0
  9 10  1  0
  9 15  1  0
 10 11  2  0
 10 12  1  0
 11 23  1  0
 12 13  1  0
 12 24  1  0
 12 25  1  0
 13 14  1  0
 13 26  1  0
 13 27  1  0
 14 15  1  0
 14 28  1  0
 14 29  1  0
 16 30  1  0
M  END

