
     RDKit          3D

 53 56  0  0  0  0  0  0  0  0999 V2000
    1.5283    2.0578   -2.7642 C   0  0  0  0  0  0  0  0  0  0  0  0
    2.9208    1.4967   -2.6064 C   0  0  0  0  0  0  0  0  0  0  0  0
    3.1597    0.1173   -2.5445 C   0  0  0  0  0  0  0  0  0  0  0  0
    4.4415   -0.4167   -2.3862 C   0  0  0  0  0  0  0  0  0  0  0  0
    5.5455    0.4458   -2.2840 C   0  0  0  0  0  0  0  0  0  0  0  0
    6.8751    0.0103   -2.1231 N   0  0  0  0  0  0  0  0  0  0  0  0
    7.3520   -1.2912   -2.0408 C   0  0  0  0  0  0  0  0  0  0  0  0
    6.6425   -2.2794   -2.1005 O   0  0  0  0  0  0  0  0  0  0  0  0
    8.7292   -1.3354   -1.8828 N   0  0  0  0  0  0  0  0  0  0  0  0
    9.5598   -2.4691   -1.7639 C   0  0  0  0  0  0  0  0  0  0  0  0
   10.9366   -2.2553   -1.6040 C   0  0  0  0  0  0  0  0  0  0  0  0
   11.8338   -3.3202   -1.4795 C   0  0  0  0  0  0  0  0  0  0  0  0
   11.3576   -4.6373   -1.5137 C   0  0  0  0  0  0  0  0  0  0  0  0
   12.1410   -5.7473   -1.4022 O   0  0  0  0  0  0  0  0  0  0  0  0
   13.5279   -5.5992   -1.2392 C   0  0  0  0  0  0  0  0  0  0  0  0
   14.2025   -6.9457   -1.1364 C   0  0  0  0  0  0  0  0  0  0  0  0
   13.4986   -8.1292   -1.1966 C   0  0  0  0  0  0  0  0  0  0  0  0
   14.1695   -9.3881   -1.0953 C   0  0  0  0  0  0  0  0  0  0  0  0
   13.6972  -10.5091   -1.1297 O   0  0  0  0  0  0  0  0  0  0  0  0
   15.6211   -9.2401   -0.9289 N   0  0  0  0  0  0  0  0  0  0  0  0
   16.3594  -10.3952   -0.8219 C   0  0  0  0  0  0  0  0  0  0  0  0
   17.7122  -10.3630   -0.6648 C   0  0  0  0  0  0  0  0  0  0  0  0
   18.4000   -9.1068   -0.6074 C   0  0  0  0  0  0  0  0  0  0  0  0
   19.8934   -9.0776   -0.4339 C   0  0  0  0  0  0  0  0  0  0  0  0
   17.6506   -7.9604   -0.7157 C   0  0  0  0  0  0  0  0  0  0  0  0
   16.2293   -7.9856   -0.8809 C   0  0  0  0  0  0  0  0  0  0  0  0
   15.5425   -6.8618   -0.9818 N   0  0  0  0  0  0  0  0  0  0  0  0
    9.9805   -4.8560   -1.6734 C   0  0  0  0  0  0  0  0  0  0  0  0
    9.0875   -3.7966   -1.7974 C   0  0  0  0  0  0  0  0  0  0  0  0
    5.3214    1.8344   -2.3462 C   0  0  0  0  0  0  0  0  0  0  0  0
    4.0357    2.3447   -2.5044 C   0  0  0  0  0  0  0  0  0  0  0  0
    0.7936    1.2625   -2.9595 H   0  0  0  0  0  0  0  0  0  0  0  0
    1.4735    2.7780   -3.5975 H   0  0  0  0  0  0  0  0  0  0  0  0
    1.2031    2.5935   -1.8555 H   0  0  0  0  0  0  0  0  0  0  0  0
    2.3159   -0.5748   -2.6230 H   0  0  0  0  0  0  0  0  0  0  0  0
    4.5972   -1.4916   -2.3425 H   0  0  0  0  0  0  0  0  0  0  0  0
    7.5521    0.7612   -2.0664 H   0  0  0  0  0  0  0  0  0  0  0  0
    9.2243   -0.4534   -1.8397 H   0  0  0  0  0  0  0  0  0  0  0  0
   11.3272   -1.2330   -1.5751 H   0  0  0  0  0  0  0  0  0  0  0  0
   12.8948   -3.1029   -1.3573 H   0  0  0  0  0  0  0  0  0  0  0  0
   13.7702   -5.0224   -0.3253 H   0  0  0  0  0  0  0  0  0  0  0  0
   13.9807   -5.0515   -2.0887 H   0  0  0  0  0  0  0  0  0  0  0  0
   12.4181   -8.1399   -1.3224 H   0  0  0  0  0  0  0  0  0  0  0  0
   15.7560  -11.3018   -0.8757 H   0  0  0  0  0  0  0  0  0  0  0  0
   18.2624  -11.3024   -0.5836 H   0  0  0  0  0  0  0  0  0  0  0  0
   20.3926   -9.6188   -1.2552 H   0  0  0  0  0  0  0  0  0  0  0  0
   20.1875   -9.5798    0.5031 H   0  0  0  0  0  0  0  0  0  0  0  0
   20.2819   -8.0500   -0.4113 H   0  0  0  0  0  0  0  0  0  0  0  0
   18.1007   -6.9674   -0.6815 H   0  0  0  0  0  0  0  0  0  0  0  0
    9.6182   -5.8859   -1.6988 H   0  0  0  0  0  0  0  0  0  0  0  0
    8.0231   -3.9807   -1.9203 H   0  0  0  0  0  0  0  0  0  0  0  0
    6.1690    2.5236   -2.2710 H   0  0  0  0  0  0  0  0  0  0  0  0
    3.8980    3.4292   -2.5501 H   0  0  0  0  0  0  0  0  0  0  0  0
  1  2  1  0
  1 32  1  0
  1 33  1  0
  1 34  1  0
  2  3  2  0
  2 31  1  0
  3  4  1  0
  3 35  1  0
  4  5  2  0
  4 36  1  0
  5  6  1  0
  5 30  1  0
  6  7  1  0
  6 37  1  0
  7  8  2  0
  7  9  1  0
  9 10  1  0
  9 38  1  0
 10 11  2  0
 10 29  1  0
 11 12  1  0
 11 39  1  0
 12 13  2  0
 12 40  1  0
 13 14  1  0
 13 28  1  0
 14 15  1  0
 15 16  1  0
 15 41  1  0
 15 42  1  0
 16 17  2  0
 16 27  1  0
 17 18  1  0
 17 43  1  0
 18 19  2  0
 18 20  1  0
 20 21  1  0
 20 26  1  0
 21 22  2  0
 21 44  1  0
 22 23  1  0
 22 45  1  0
 23 24  1  0
 23 25  2  0
 24 46  1  0
 24 47  1  0
 24 48  1  0
 25 26  1  0
 25 49  1  0
 26 27  2  0
 28 29  2  0
 28 50  1  0
 29 51  1  0
 30 31  2  0
 30 52  1  0
 31 53  1  0
M  END

