
     RDKit          3D

 32 34  0  0  0  0  0  0  0  0999 V2000
    0.4960    0.1423   -0.1881 O   0  0  0  0  0  0  0  0  0  0  0  0
    1.7045    0.1080   -0.1059 C   0  0  0  0  0  0  0  0  0  0  0  0
    2.4722   -1.0456   -0.1519 N   0  0  0  0  0  0  0  0  0  0  0  0
    1.9012   -2.2509   -0.2978 N   0  0  0  0  0  0  0  0  0  0  0  0
    2.6646   -3.2818   -0.3335 C   0  0  0  0  0  0  0  0  0  0  0  0
    2.1072   -4.6300   -0.4922 C   0  0  0  0  0  0  0  0  0  0  0  0
    0.7106   -4.8049   -0.6091 C   0  0  0  0  0  0  0  0  0  0  0  0
    0.1464   -6.0662   -0.7608 C   0  0  0  0  0  0  0  0  0  0  0  0
    0.9683   -7.1993   -0.8005 C   0  0  0  0  0  0  0  0  0  0  0  0
    2.3520   -7.0599   -0.6876 C   0  0  0  0  0  0  0  0  0  0  0  0
    2.9114   -5.7878   -0.5353 C   0  0  0  0  0  0  0  0  0  0  0  0
    4.8210   -5.6868   -0.3872 Br  0  0  0  0  0  0  0  0  0  0  0  0
    2.5131    1.3417    0.0618 C   0  0  0  0  0  0  0  0  0  0  0  0
    2.0978    2.6392    0.1422 C   0  0  0  0  0  0  0  0  0  0  0  0
    3.2900    3.4304    0.2996 C   0  0  0  0  0  0  0  0  0  0  0  0
    3.5663    4.8031    0.4390 C   0  0  0  0  0  0  0  0  0  0  0  0
    4.8987    5.1828    0.5711 C   0  0  0  0  0  0  0  0  0  0  0  0
    5.3257    7.0336    0.7630 Br  0  0  0  0  0  0  0  0  0  0  0  0
    5.9541    4.2454    0.5687 C   0  0  0  0  0  0  0  0  0  0  0  0
    5.6933    2.8824    0.4314 C   0  0  0  0  0  0  0  0  0  0  0  0
    4.3587    2.5075    0.2994 C   0  0  0  0  0  0  0  0  0  0  0  0
    3.8829    1.2395    0.1545 O   0  0  0  0  0  0  0  0  0  0  0  0
    3.4885   -0.9614   -0.0715 H   0  0  0  0  0  0  0  0  0  0  0  0
    3.7601   -3.1915   -0.2478 H   0  0  0  0  0  0  0  0  0  0  0  0
    0.0878   -3.9088   -0.5758 H   0  0  0  0  0  0  0  0  0  0  0  0
   -0.9376   -6.1697   -0.8487 H   0  0  0  0  0  0  0  0  0  0  0  0
    0.5351   -8.1954   -0.9195 H   0  0  0  0  0  0  0  0  0  0  0  0
    3.0028   -7.9351   -0.7170 H   0  0  0  0  0  0  0  0  0  0  0  0
    1.0623    2.9664    0.0931 H   0  0  0  0  0  0  0  0  0  0  0  0
    2.7672    5.5454    0.4437 H   0  0  0  0  0  0  0  0  0  0  0  0
    6.9817    4.5956    0.6755 H   0  0  0  0  0  0  0  0  0  0  0  0
    6.4975    2.1449    0.4276 H   0  0  0  0  0  0  0  0  0  0  0  0
  1  2  2  0
  2  3  1  0
  2 13  1  0
  3  4  1  0
  3 23  1  0
  4  5  2  0
  5  6  1  0
  5 24  1  0
  6  7  2  0
  6 11  1  0
  7  8  1  0
  7 25  1  0
  8  9  2  0
  8 26  1  0
  9 10  1  0
  9 27  1  0
 10 11  2  0
 10 28  1  0
 11 12  1  0
 13 14  2  0
 13 22  1  0
 14 15  1  0
 14 29  1  0
 15 16  2  0
 15 21  1  0
 16 17  1  0
 16 30  1  0
 17 18  1  0
 17 19  2  0
 19 20  1  0
 19 31  1  0
 20 21  2  0
 20 32  1  0
 21 22  1  0
M  END

