
     RDKit          3D

 45 47  0  0  0  0  0  0  0  0999 V2000
    0.5139   -1.6804    1.3652 C   0  0  0  0  0  0  0  0  0  0  0  0
    2.0094   -1.6792    1.4391 C   0  0  0  0  0  0  0  0  0  0  0  0
    2.8175   -0.9759    0.6193 C   0  0  0  0  0  0  0  0  0  0  0  0
    4.2811   -0.9293    0.6691 C   0  0  0  0  0  0  0  0  0  0  0  0
    5.0041    0.0162   -0.0144 C   0  0  0  0  0  0  0  0  0  0  0  0
    4.4921    1.0926   -0.8234 C   0  0  0  0  0  0  0  0  0  0  0  0
    5.2838    1.9737   -1.4861 C   0  0  0  0  0  0  0  0  0  0  0  0
    4.7805    3.0742   -2.3106 C   0  0  0  0  0  0  0  0  0  0  0  0
    5.6840    3.9390   -2.9632 C   0  0  0  0  0  0  0  0  0  0  0  0
    5.2135    4.9918   -3.7537 C   0  0  0  0  0  0  0  0  0  0  0  0
    6.1522    5.9437   -4.4500 C   0  0  0  0  0  0  0  0  0  0  0  0
    3.8211    5.1323   -3.8597 C   0  0  0  0  0  0  0  0  0  0  0  0
    2.9959    4.2307   -3.1795 C   0  0  0  0  0  0  0  0  0  0  0  0
    3.4473    3.2322   -2.4276 N   0  0  0  0  0  0  0  0  0  0  0  0
    5.0206   -1.9367    1.4836 C   0  0  0  0  0  0  0  0  0  0  0  0
    4.7815   -3.3351    1.3073 C   0  0  0  0  0  0  0  0  0  0  0  0
    5.4929   -4.2751    2.0181 C   0  0  0  0  0  0  0  0  0  0  0  0
    6.4838   -3.8892    2.9646 C   0  0  0  0  0  0  0  0  0  0  0  0
    7.2323   -4.8328    3.7211 C   0  0  0  0  0  0  0  0  0  0  0  0
    8.1819   -4.4155    4.6311 C   0  0  0  0  0  0  0  0  0  0  0  0
    8.4252   -3.0318    4.8260 C   0  0  0  0  0  0  0  0  0  0  0  0
    7.7161   -2.0923    4.1069 C   0  0  0  0  0  0  0  0  0  0  0  0
    6.7313   -2.4893    3.1582 C   0  0  0  0  0  0  0  0  0  0  0  0
    5.9850   -1.5451    2.4008 C   0  0  0  0  0  0  0  0  0  0  0  0
    0.1224   -2.7017    1.2083 H   0  0  0  0  0  0  0  0  0  0  0  0
    0.1400   -1.0415    0.5504 H   0  0  0  0  0  0  0  0  0  0  0  0
    0.0692   -1.3251    2.3122 H   0  0  0  0  0  0  0  0  0  0  0  0
    2.4552   -2.2917    2.2309 H   0  0  0  0  0  0  0  0  0  0  0  0
    2.3425   -0.3550   -0.1467 H   0  0  0  0  0  0  0  0  0  0  0  0
    6.0955   -0.0535    0.0476 H   0  0  0  0  0  0  0  0  0  0  0  0
    3.4132    1.2362   -0.9250 H   0  0  0  0  0  0  0  0  0  0  0  0
    6.3730    1.8792   -1.4153 H   0  0  0  0  0  0  0  0  0  0  0  0
    6.7593    3.7781   -2.8471 H   0  0  0  0  0  0  0  0  0  0  0  0
    7.1917    5.5861   -4.4181 H   0  0  0  0  0  0  0  0  0  0  0  0
    6.1245    6.9389   -3.9744 H   0  0  0  0  0  0  0  0  0  0  0  0
    5.8679    6.0841   -5.5051 H   0  0  0  0  0  0  0  0  0  0  0  0
    3.3809    5.9304   -4.4634 H   0  0  0  0  0  0  0  0  0  0  0  0
    1.9055    4.3296   -3.2546 H   0  0  0  0  0  0  0  0  0  0  0  0
    4.0341   -3.6554    0.5785 H   0  0  0  0  0  0  0  0  0  0  0  0
    5.3061   -5.3405    1.8561 H   0  0  0  0  0  0  0  0  0  0  0  0
    7.0422   -5.8990    3.5694 H   0  0  0  0  0  0  0  0  0  0  0  0
    8.7503   -5.1508    5.2063 H   0  0  0  0  0  0  0  0  0  0  0  0
    9.1790   -2.7124    5.5503 H   0  0  0  0  0  0  0  0  0  0  0  0
    7.9028   -1.0251    4.2562 H   0  0  0  0  0  0  0  0  0  0  0  0
    6.1705   -0.4804    2.5648 H   0  0  0  0  0  0  0  0  0  0  0  0
  1  2  1  0
  1 25  1  0
  1 26  1  0
  1 27  1  0
  2  3  2  0
  2 28  1  0
  3  4  1  0
  3 29  1  0
  4  5  2  0
  4 15  1  0
  5  6  1  0
  5 30  1  0
  6  7  2  0
  6 31  1  0
  7  8  1  0
  7 32  1  0
  8  9  2  0
  8 14  1  0
  9 10  1  0
  9 33  1  0
 10 11  1  0
 10 12  2  0
 11 34  1  0
 11 35  1  0
 11 36  1  0
 12 13  1  0
 12 37  1  0
 13 14  2  0
 13 38  1  0
 15 16  2  0
 15 24  1  0
 16 17  1  0
 16 39  1  0
 17 18  2  0
 17 40  1  0
 18 19  1  0
 18 23  1  0
 19 20  2  0
 19 41  1  0
 20 21  1  0
 20 42  1  0
 21 22  2  0
 21 43  1  0
 22 23  1  0
 22 44  1  0
 23 24  2  0
 24 45  1  0
M  END

