
     RDKit          3D

 41 45  0  0  0  0  0  0  0  0999 V2000
    1.1898    0.0604    0.3753 C   0  0  0  0  0  0  0  0  0  0  0  0
    2.6719    0.1004    0.0970 C   0  0  0  0  0  0  0  0  0  0  0  0
    3.3593    1.3156   -0.0469 C   0  0  0  0  0  0  0  0  0  0  0  0
    4.7278    1.3496   -0.3111 C   0  0  0  0  0  0  0  0  0  0  0  0
    5.4654    0.1544   -0.4421 C   0  0  0  0  0  0  0  0  0  0  0  0
    6.8663    0.1776   -0.7114 C   0  0  0  0  0  0  0  0  0  0  0  0
    8.0657    0.1905   -0.9422 C   0  0  0  0  0  0  0  0  0  0  0  0
    9.4643    0.1736   -1.2108 C   0  0  0  0  0  0  0  0  0  0  0  0
   10.1325   -1.0654   -1.3272 C   0  0  0  0  0  0  0  0  0  0  0  0
   11.4942   -1.1310   -1.5878 C   0  0  0  0  0  0  0  0  0  0  0  0
   12.2605    0.0400   -1.7453 C   0  0  0  0  0  0  0  0  0  0  0  0
   13.6711    0.0024   -2.0152 C   0  0  0  0  0  0  0  0  0  0  0  0
   14.3963    1.1492   -2.1643 C   0  0  0  0  0  0  0  0  0  0  0  0
   13.7764    2.4427   -2.0571 C   0  0  0  0  0  0  0  0  0  0  0  0
   14.5034    3.6383   -2.2068 C   0  0  0  0  0  0  0  0  0  0  0  0
   13.8714    4.8781   -2.0968 C   0  0  0  0  0  0  0  0  0  0  0  0
   12.5026    4.9544   -1.8354 C   0  0  0  0  0  0  0  0  0  0  0  0
   11.7336    3.7861   -1.6778 C   0  0  0  0  0  0  0  0  0  0  0  0
   10.3225    3.8231   -1.4079 C   0  0  0  0  0  0  0  0  0  0  0  0
    9.5953    2.6774   -1.2584 C   0  0  0  0  0  0  0  0  0  0  0  0
   10.2071    1.3818   -1.3640 C   0  0  0  0  0  0  0  0  0  0  0  0
   11.6103    1.3098   -1.6321 C   0  0  0  0  0  0  0  0  0  0  0  0
   12.3718    2.5110   -1.7887 C   0  0  0  0  0  0  0  0  0  0  0  0
    4.7762   -1.0708   -0.2964 C   0  0  0  0  0  0  0  0  0  0  0  0
    3.4102   -1.0897   -0.0328 C   0  0  0  0  0  0  0  0  0  0  0  0
    0.7772    1.0693    0.5222 H   0  0  0  0  0  0  0  0  0  0  0  0
    0.9670   -0.5314    1.2787 H   0  0  0  0  0  0  0  0  0  0  0  0
    0.6395   -0.4090   -0.4580 H   0  0  0  0  0  0  0  0  0  0  0  0
    2.8111    2.2569    0.0506 H   0  0  0  0  0  0  0  0  0  0  0  0
    5.2403    2.3079   -0.4183 H   0  0  0  0  0  0  0  0  0  0  0  0
    9.5540   -1.9835   -1.2078 H   0  0  0  0  0  0  0  0  0  0  0  0
   11.9850   -2.1041   -1.6729 H   0  0  0  0  0  0  0  0  0  0  0  0
   14.1570   -0.9734   -2.0994 H   0  0  0  0  0  0  0  0  0  0  0  0
   15.4692    1.1018   -2.3693 H   0  0  0  0  0  0  0  0  0  0  0  0
   15.5760    3.5855   -2.4118 H   0  0  0  0  0  0  0  0  0  0  0  0
   14.4530    5.7957   -2.2163 H   0  0  0  0  0  0  0  0  0  0  0  0
   12.0131    5.9283   -1.7503 H   0  0  0  0  0  0  0  0  0  0  0  0
    9.8344    4.7979   -1.3233 H   0  0  0  0  0  0  0  0  0  0  0  0
    8.5244    2.7267   -1.0539 H   0  0  0  0  0  0  0  0  0  0  0  0
    5.3297   -2.0072   -0.3927 H   0  0  0  0  0  0  0  0  0  0  0  0
    2.9010   -2.0520    0.0762 H   0  0  0  0  0  0  0  0  0  0  0  0
  1  2  1  0
  1 26  1  0
  1 27  1  0
  1 28  1  0
  2  3  2  0
  2 25  1  0
  3  4  1  0
  3 29  1  0
  4  5  2  0
  4 30  1  0
  5  6  1  0
  5 24  1  0
  6  7  3  0
  7  8  1  0
  8  9  2  0
  8 21  1  0
  9 10  1  0
  9 31  1  0
 10 11  2  0
 10 32  1  0
 11 12  1  0
 11 22  1  0
 12 13  2  0
 12 33  1  0
 13 14  1  0
 13 34  1  0
 14 15  2  0
 14 23  1  0
 15 16  1  0
 15 35  1  0
 16 17  2  0
 16 36  1  0
 17 18  1  0
 17 37  1  0
 18 19  2  0
 18 23  1  0
 19 20  1  0
 19 38  1  0
 20 21  2  0
 20 39  1  0
 21 22  1  0
 22 23  2  0
 24 25  2  0
 24 40  1  0
 25 41  1  0
M  END

