
     RDKit          3D

 64 65  0  0  0  0  0  0  0  0999 V2000
    4.4426   -3.0626   -7.1598 C   0  0  0  0  0  0  0  0  0  0  0  0
    3.1325   -3.6859   -6.6537 C   0  0  0  0  0  0  0  0  0  0  0  0
    2.3744   -2.8019   -5.6815 C   0  0  0  0  0  0  0  0  0  0  0  0
    1.7566   -1.6383   -6.1685 C   0  0  0  0  0  0  0  0  0  0  0  0
    1.0401   -0.7759   -5.3402 C   0  0  0  0  0  0  0  0  0  0  0  0
    0.9276   -1.0702   -3.9792 C   0  0  0  0  0  0  0  0  0  0  0  0
    1.5286   -2.2159   -3.4619 C   0  0  0  0  0  0  0  0  0  0  0  0
    2.2526   -3.0835   -4.3002 C   0  0  0  0  0  0  0  0  0  0  0  0
    2.8645   -4.2566   -3.7733 N   0  0  0  0  0  0  0  0  0  0  0  0
    2.4448   -4.9653   -2.7154 C   0  0  0  0  0  0  0  0  0  0  0  0
    1.5078   -4.7153   -1.9501 O   0  0  0  0  0  0  0  0  0  0  0  0
    3.1991   -6.2801   -2.4785 C   0  0  0  0  0  0  0  0  0  0  0  0
    3.0254   -6.5947   -1.0288 N   0  0  1  0  0  0  0  0  0  0  0  0
    2.1059   -6.1346   -0.8327 H   0  0  0  0  0  0  0  0  0  0  0  0
    2.9508   -8.0628   -0.7270 C   0  0  0  0  0  0  0  0  0  0  0  0
    2.7385   -8.2933    0.7672 C   0  0  0  0  0  0  0  0  0  0  0  0
    3.7698   -7.6273    1.5382 N   0  0  0  0  0  0  0  0  0  0  0  0
    4.7050   -8.4044    2.2169 C   0  0  0  0  0  0  0  0  0  0  0  0
    4.5814   -9.6114    2.2762 O   0  0  0  0  0  0  0  0  0  0  0  0
    5.8698   -7.6533    2.8753 C   0  0  0  0  0  0  0  0  0  0  0  0
    6.7841   -8.5409    3.5424 N   0  0  0  0  0  0  0  0  0  0  0  0
    7.6955   -8.0991    3.6203 H   0  0  0  0  0  0  0  0  0  0  0  0
    6.3419   -9.0571    4.8242 C   0  0  0  0  0  0  0  0  0  0  0  0
    7.4257   -6.4704   -0.9276 C   0  0  0  0  0  0  0  0  0  0  0  0
    6.9794   -5.7525   -2.0179 C   0  0  0  0  0  0  0  0  0  0  0  0
    6.5007   -6.5218   -3.5615 S   0  0  0  0  0  0  0  0  0  0  0  0
    5.8797   -4.9849   -4.2615 C   0  0  0  0  0  0  0  0  0  0  0  0
    6.1997   -3.9581   -3.3540 C   0  0  0  0  0  0  0  0  0  0  0  0
    6.7288   -4.3354   -2.1199 C   0  0  0  0  0  0  0  0  0  0  0  0
    7.0516   -3.4067   -0.9860 C   0  0  0  0  0  0  0  0  0  0  0  0
    3.8342   -6.1962    1.2974 C   0  0  0  0  0  0  0  0  0  0  0  0
    4.0660   -5.9021   -0.1812 C   0  0  0  0  0  0  0  0  0  0  0  0
    4.9519   -3.7404   -7.8634 H   0  0  0  0  0  0  0  0  0  0  0  0
    5.1353   -2.8545   -6.3303 H   0  0  0  0  0  0  0  0  0  0  0  0
    4.2575   -2.1114   -7.6838 H   0  0  0  0  0  0  0  0  0  0  0  0
    3.3466   -4.6652   -6.2019 H   0  0  0  0  0  0  0  0  0  0  0  0
    2.4767   -3.8882   -7.5185 H   0  0  0  0  0  0  0  0  0  0  0  0
    1.8352   -1.4148   -7.2365 H   0  0  0  0  0  0  0  0  0  0  0  0
    0.5678    0.1177   -5.7558 H   0  0  0  0  0  0  0  0  0  0  0  0
    0.3688   -0.4077   -3.3135 H   0  0  0  0  0  0  0  0  0  0  0  0
    1.4311   -2.4574   -2.4058 H   0  0  0  0  0  0  0  0  0  0  0  0
    3.8156   -4.5392   -4.1294 H   0  0  0  0  0  0  0  0  0  0  0  0
    4.2658   -6.2740   -2.7540 H   0  0  0  0  0  0  0  0  0  0  0  0
    2.7017   -7.0720   -3.0596 H   0  0  0  0  0  0  0  0  0  0  0  0
    3.8971   -8.5087   -1.0655 H   0  0  0  0  0  0  0  0  0  0  0  0
    2.1245   -8.4800   -1.3211 H   0  0  0  0  0  0  0  0  0  0  0  0
    2.7894   -9.3680    0.9861 H   0  0  0  0  0  0  0  0  0  0  0  0
    1.7388   -7.9246    1.0676 H   0  0  0  0  0  0  0  0  0  0  0  0
    5.4379   -6.8675    3.5422 H   0  0  0  0  0  0  0  0  0  0  0  0
    6.4099   -7.1237    2.0710 H   0  0  0  0  0  0  0  0  0  0  0  0
    6.0559   -8.2687    5.5584 H   0  0  0  0  0  0  0  0  0  0  0  0
    7.1439   -9.6621    5.2742 H   0  0  0  0  0  0  0  0  0  0  0  0
    5.4738   -9.7172    4.6800 H   0  0  0  0  0  0  0  0  0  0  0  0
    7.6645   -7.5338   -0.9990 H   0  0  0  0  0  0  0  0  0  0  0  0
    7.7795   -5.9363   -0.0419 H   0  0  0  0  0  0  0  0  0  0  0  0
    5.9781   -4.8749   -5.3449 H   0  0  0  0  0  0  0  0  0  0  0  0
    6.0295   -2.9046   -3.6065 H   0  0  0  0  0  0  0  0  0  0  0  0
    6.8268   -2.3603   -1.2455 H   0  0  0  0  0  0  0  0  0  0  0  0
    8.1191   -3.4605   -0.7012 H   0  0  0  0  0  0  0  0  0  0  0  0
    6.4858   -3.6464   -0.0609 H   0  0  0  0  0  0  0  0  0  0  0  0
    4.6489   -5.7330    1.8643 H   0  0  0  0  0  0  0  0  0  0  0  0
    2.8942   -5.7240    1.6449 H   0  0  0  0  0  0  0  0  0  0  0  0
    5.0638   -6.2608   -0.4979 H   0  0  0  0  0  0  0  0  0  0  0  0
    3.9968   -4.8280   -0.3981 H   0  0  0  0  0  0  0  0  0  0  0  0
  1  2  1  0
  1 33  1  0
  1 34  1  0
  1 35  1  0
  2  3  1  0
  2 36  1  0
  2 37  1  0
  3  4  1  0
  3  8  1  0
  4  5  2  0
  4 38  1  0
  5  6  1  0
  5 39  1  0
  6  7  2  0
  6 40  1  0
  7  8  1  0
  7 41  1  0
  8  9  2  0
  9 10  1  0
  9 42  1  0
 10 11  2  0
 10 12  1  0
 12 13  1  0
 12 43  1  0
 12 44  1  0
 13 14  1  1
 13 15  1  0
 13 32  1  0
 15 16  1  0
 15 45  1  0
 15 46  1  0
 16 17  1  0
 16 47  1  0
 16 48  1  0
 17 18  1  0
 17 31  1  0
 18 19  2  0
 18 20  1  0
 20 21  1  0
 20 49  1  0
 20 50  1  0
 21 22  1  0
 21 23  1  0
 23 51  1  0
 23 52  1  0
 23 53  1  0
 24 25  1  0
 24 54  1  0
 24 55  1  0
 25 26  1  0
 25 29  2  0
 26 27  1  0
 27 28  2  0
 27 56  1  0
 28 29  1  0
 28 57  1  0
 29 30  1  0
 30 58  1  0
 30 59  1  0
 30 60  1  0
 31 32  1  0
 31 61  1  0
 31 62  1  0
 32 63  1  0
 32 64  1  0
M  CHG  4   3  -1   9   1  13   1  24  -1
M  END

