
     RDKit          3D

 46 47  0  0  0  0  0  0  0  0999 V2000
    3.2161   -1.8213    3.0099 C   0  0  0  0  0  0  0  0  0  0  0  0
    2.7369   -1.3718    1.7028 N   0  0  0  0  0  0  0  0  0  0  0  0
    1.5149   -2.0017    1.1832 C   0  0  0  0  0  0  0  0  0  0  0  0
    1.6495   -2.4850   -0.2717 C   0  0  0  0  0  0  0  0  0  0  0  0
    2.7639   -3.4151   -0.4627 C   0  0  0  0  0  0  0  0  0  0  0  0
    3.6604   -4.1384   -0.5906 N   0  0  0  0  0  0  0  0  0  0  0  0
    2.8875    0.2832    1.4089 S   0  0  1  0  0  0  0  0  0  0  0  0
    2.1850    0.5178    0.1433 O   0  0  0  0  0  0  0  0  0  0  0  0
    2.5302    1.0638    2.5944 O   0  0  0  0  0  0  0  0  0  0  0  0
    4.5599    0.4127    1.2306 N   0  0  0  0  0  0  0  0  0  0  0  0
    5.1014   -0.1740   -0.0009 C   0  0  0  0  0  0  0  0  0  0  0  0
    6.5999   -0.4714    0.0884 C   0  0  0  0  0  0  0  0  0  0  0  0
    7.5326    0.7406    0.0775 C   0  0  0  0  0  0  0  0  0  0  0  0
    7.6680    1.4375    1.3641 N   0  0  0  0  0  0  0  0  0  0  0  0
    8.7707    2.2605    1.4649 C   0  0  0  0  0  0  0  0  0  0  0  0
    9.5002    2.4676    0.5055 O   0  0  0  0  0  0  0  0  0  0  0  0
    9.1118    2.8825    2.7995 C   0  0  0  0  0  0  0  0  0  0  0  0
    9.5657    4.2105    2.8073 C   0  0  0  0  0  0  0  0  0  0  0  0
    9.9846    4.8021    3.9994 C   0  0  0  0  0  0  0  0  0  0  0  0
    9.9868    4.0739    5.1931 C   0  0  0  0  0  0  0  0  0  0  0  0
    9.5618    2.7430    5.1744 C   0  0  0  0  0  0  0  0  0  0  0  0
    9.5836    1.8066    6.6527 Cl  0  0  0  0  0  0  0  0  0  0  0  0
    9.1203    2.1436    3.9919 C   0  0  0  0  0  0  0  0  0  0  0  0
    6.5597    1.4497    2.3169 C   0  0  0  0  0  0  0  0  0  0  0  0
    5.1692    1.6616    1.7022 C   0  0  0  0  0  0  0  0  0  0  0  0
    3.3890   -2.9066    2.9673 H   0  0  0  0  0  0  0  0  0  0  0  0
    2.5100   -1.5902    3.8273 H   0  0  0  0  0  0  0  0  0  0  0  0
    4.1767   -1.3366    3.2275 H   0  0  0  0  0  0  0  0  0  0  0  0
    0.6460   -1.3258    1.2423 H   0  0  0  0  0  0  0  0  0  0  0  0
    1.3005   -2.8590    1.8377 H   0  0  0  0  0  0  0  0  0  0  0  0
    1.7923   -1.6133   -0.9283 H   0  0  0  0  0  0  0  0  0  0  0  0
    0.7134   -2.9792   -0.5813 H   0  0  0  0  0  0  0  0  0  0  0  0
    4.9050    0.4902   -0.8651 H   0  0  0  0  0  0  0  0  0  0  0  0
    4.5694   -1.1179   -0.1812 H   0  0  0  0  0  0  0  0  0  0  0  0
    6.8486   -1.0654   -0.8060 H   0  0  0  0  0  0  0  0  0  0  0  0
    6.8086   -1.1226    0.9534 H   0  0  0  0  0  0  0  0  0  0  0  0
    7.2088    1.4505   -0.7075 H   0  0  0  0  0  0  0  0  0  0  0  0
    8.5436    0.4291   -0.2185 H   0  0  0  0  0  0  0  0  0  0  0  0
    9.5958    4.7634    1.8669 H   0  0  0  0  0  0  0  0  0  0  0  0
   10.3247    5.8406    4.0037 H   0  0  0  0  0  0  0  0  0  0  0  0
   10.3215    4.5244    6.1289 H   0  0  0  0  0  0  0  0  0  0  0  0
    8.8083    1.0986    4.0074 H   0  0  0  0  0  0  0  0  0  0  0  0
    6.7352    2.2740    3.0180 H   0  0  0  0  0  0  0  0  0  0  0  0
    6.5275    0.5216    2.9156 H   0  0  0  0  0  0  0  0  0  0  0  0
    5.2211    2.4160    0.8935 H   0  0  0  0  0  0  0  0  0  0  0  0
    4.5126    2.0616    2.4843 H   0  0  0  0  0  0  0  0  0  0  0  0
  1  2  1  0
  1 26  1  0
  1 27  1  0
  1 28  1  0
  2  3  1  0
  7  2  1  1
  3  4  1  0
  3 29  1  0
  3 30  1  0
  4  5  1  0
  4 31  1  0
  4 32  1  0
  5  6  3  0
  7  8  2  0
  7  9  2  0
  7 10  1  0
 10 11  1  0
 10 25  1  0
 11 12  1  0
 11 33  1  0
 11 34  1  0
 12 13  1  0
 12 35  1  0
 12 36  1  0
 13 14  1  0
 13 37  1  0
 13 38  1  0
 14 15  1  0
 14 24  1  0
 15 16  2  0
 15 17  1  0
 17 18  2  0
 17 23  1  0
 18 19  1  0
 18 39  1  0
 19 20  2  0
 19 40  1  0
 20 21  1  0
 20 41  1  0
 21 22  1  0
 21 23  2  0
 23 42  1  0
 24 25  1  0
 24 43  1  0
 24 44  1  0
 25 45  1  0
 25 46  1  0
M  END

