
     RDKit          3D

 37 38  0  0  0  0  0  0  0  0999 V2000
    1.5490   -0.4103   -0.2463 C   0  0  0  0  0  0  0  0  0  0  0  0
    2.5313   -0.0284    0.6912 O   0  0  0  0  0  0  0  0  0  0  0  0
    3.1946    1.1404    0.5191 C   0  0  0  0  0  0  0  0  0  0  0  0
    2.9777    2.0346   -0.5424 C   0  0  0  0  0  0  0  0  0  0  0  0
    3.7274    3.2129   -0.6132 C   0  0  0  0  0  0  0  0  0  0  0  0
    4.7000    3.5507    0.3359 C   0  0  0  0  0  0  0  0  0  0  0  0
    5.5167    4.8441    0.2519 C   0  0  1  0  0  0  0  0  0  0  0  0
    6.4480    4.8479   -0.9666 C   0  0  0  0  0  0  0  0  0  0  0  0
    4.7171    6.0706    0.2341 N   0  0  0  0  0  0  0  0  0  0  0  0
    3.7735    6.2899    1.3300 C   0  0  1  0  0  0  0  0  0  0  0  0
    4.4967    6.3650    2.6868 C   0  0  0  0  0  0  0  0  0  0  0  0
    3.0114    7.5658    1.0436 C   0  0  0  0  0  0  0  0  0  0  0  0
    3.4517    8.7049    0.4143 C   0  0  0  0  0  0  0  0  0  0  0  0
    2.4755    9.7482    0.3621 C   0  0  0  0  0  0  0  0  0  0  0  0
    1.2992    9.3814    0.9619 C   0  0  0  0  0  0  0  0  0  0  0  0
   -0.1372   10.3287    1.1194 Cl  0  0  0  0  0  0  0  0  0  0  0  0
    1.3633    7.7570    1.5892 S   0  0  0  0  0  0  0  0  0  0  0  0
    4.8766    2.6324    1.3801 C   0  0  0  0  0  0  0  0  0  0  0  0
    5.7892    2.9025    2.3374 F   0  0  0  0  0  0  0  0  0  0  0  0
    4.1579    1.4507    1.4921 C   0  0  0  0  0  0  0  0  0  0  0  0
    1.1557   -1.3787    0.0908 H   0  0  0  0  0  0  0  0  0  0  0  0
    1.9723   -0.5299   -1.2599 H   0  0  0  0  0  0  0  0  0  0  0  0
    0.7183    0.3167   -0.2909 H   0  0  0  0  0  0  0  0  0  0  0  0
    2.2345    1.8266   -1.3115 H   0  0  0  0  0  0  0  0  0  0  0  0
    3.5393    3.8972   -1.4461 H   0  0  0  0  0  0  0  0  0  0  0  0
    6.1533    4.8800    1.1466 H   0  0  0  0  0  0  0  0  0  0  0  0
    5.8752    4.8095   -1.9089 H   0  0  0  0  0  0  0  0  0  0  0  0
    7.1197    3.9765   -0.9510 H   0  0  0  0  0  0  0  0  0  0  0  0
    7.0541    5.7664   -0.9736 H   0  0  0  0  0  0  0  0  0  0  0  0
    4.2260    6.1576   -0.6552 H   0  0  0  0  0  0  0  0  0  0  0  0
    3.0299    5.4657    1.4063 H   0  0  0  0  0  0  0  0  0  0  0  0
    5.2832    7.1349    2.6549 H   0  0  0  0  0  0  0  0  0  0  0  0
    4.9540    5.4005    2.9537 H   0  0  0  0  0  0  0  0  0  0  0  0
    3.7821    6.6276    3.4807 H   0  0  0  0  0  0  0  0  0  0  0  0
    4.4571    8.7855    0.0003 H   0  0  0  0  0  0  0  0  0  0  0  0
    2.6309   10.7250   -0.0965 H   0  0  0  0  0  0  0  0  0  0  0  0
    4.3356    0.7710    2.3261 H   0  0  0  0  0  0  0  0  0  0  0  0
  1  2  1  0
  1 21  1  0
  1 22  1  0
  1 23  1  0
  2  3  1  0
  3  4  2  0
  3 20  1  0
  4  5  1  0
  4 24  1  0
  5  6  2  0
  5 25  1  0
  6  7  1  0
  6 18  1  0
  7  8  1  0
  7  9  1  0
  7 26  1  1
  8 27  1  0
  8 28  1  0
  8 29  1  0
  9 10  1  0
  9 30  1  0
 10 11  1  0
 10 12  1  0
 10 31  1  1
 11 32  1  0
 11 33  1  0
 11 34  1  0
 12 13  2  0
 12 17  1  0
 13 14  1  0
 13 35  1  0
 14 15  2  0
 14 36  1  0
 15 16  1  0
 15 17  1  0
 18 19  1  0
 18 20  2  0
 20 37  1  0
M  END

