
     RDKit          3D

 52 53  0  0  0  0  0  0  0  0999 V2000
    1.7007    2.5541    3.1819 C   0  0  0  0  0  0  0  0  0  0  0  0
    2.2543    1.7517    2.0031 C   0  0  0  0  0  0  0  0  0  0  0  0
    2.9335    0.5083    2.3856 N   0  0  0  0  0  0  0  0  0  0  0  0
    2.0642   -0.6591    2.5094 C   0  0  0  0  0  0  0  0  0  0  0  0
    1.8196   -1.4181    1.2004 C   0  0  0  0  0  0  0  0  0  0  0  0
    4.2996    0.3832    2.5148 C   0  0  0  0  0  0  0  0  0  0  0  0
    4.9247   -0.8882    2.5692 C   0  0  0  0  0  0  0  0  0  0  0  0
    6.2996   -1.0281    2.6967 C   0  0  0  0  0  0  0  0  0  0  0  0
    6.7716   -2.2829    2.7748 F   0  0  0  0  0  0  0  0  0  0  0  0
    7.1745    0.0627    2.7762 C   0  0  0  0  0  0  0  0  0  0  0  0
    8.6515    0.0085    2.9818 C   0  0  0  0  0  0  0  0  0  0  0  0
    9.2104    0.9314    3.5591 O   0  0  0  0  0  0  0  0  0  0  0  0
    9.4741   -1.1476    2.5013 C   0  0  0  0  0  0  0  0  0  0  0  0
   10.6646   -1.4381    3.1960 C   0  0  0  0  0  0  0  0  0  0  0  0
   11.5204   -2.4378    2.7833 C   0  0  0  0  0  0  0  0  0  0  0  0
   12.6576   -2.6267    3.4870 F   0  0  0  0  0  0  0  0  0  0  0  0
   11.2693   -3.2370    1.6346 C   0  0  0  0  0  0  0  0  0  0  0  0
   12.1530   -4.2271    1.2111 N   0  0  0  0  0  0  0  0  0  0  0  0
   12.6509   -5.2039    2.1904 C   0  0  0  0  0  0  0  0  0  0  0  0
   11.7130   -6.3935    2.4244 C   0  0  0  0  0  0  0  0  0  0  0  0
   12.0543   -4.6766   -0.1772 C   0  0  0  0  0  0  0  0  0  0  0  0
   13.3301   -5.3292   -0.7067 C   0  0  0  0  0  0  0  0  0  0  0  0
   10.0961   -2.9119    0.9200 C   0  0  0  0  0  0  0  0  0  0  0  0
    9.2424   -1.8993    1.3445 C   0  0  0  0  0  0  0  0  0  0  0  0
    8.1713   -1.6449    0.5748 F   0  0  0  0  0  0  0  0  0  0  0  0
    6.5584    1.3295    2.7733 C   0  0  0  0  0  0  0  0  0  0  0  0
    5.1961    1.4851    2.6395 C   0  0  0  0  0  0  0  0  0  0  0  0
    4.7100    2.7498    2.6736 F   0  0  0  0  0  0  0  0  0  0  0  0
    1.1516    3.4371    2.8164 H   0  0  0  0  0  0  0  0  0  0  0  0
    2.5163    2.9027    3.8310 H   0  0  0  0  0  0  0  0  0  0  0  0
    1.0036    1.9544    3.7894 H   0  0  0  0  0  0  0  0  0  0  0  0
    2.9352    2.3724    1.4100 H   0  0  0  0  0  0  0  0  0  0  0  0
    1.4291    1.4726    1.3258 H   0  0  0  0  0  0  0  0  0  0  0  0
    1.1000   -0.3080    2.9119 H   0  0  0  0  0  0  0  0  0  0  0  0
    2.4729   -1.3358    3.2755 H   0  0  0  0  0  0  0  0  0  0  0  0
    1.3650   -0.7639    0.4395 H   0  0  0  0  0  0  0  0  0  0  0  0
    1.1316   -2.2620    1.3708 H   0  0  0  0  0  0  0  0  0  0  0  0
    2.7541   -1.8192    0.7798 H   0  0  0  0  0  0  0  0  0  0  0  0
    4.3465   -1.8066    2.5019 H   0  0  0  0  0  0  0  0  0  0  0  0
   10.9295   -0.8361    4.0665 H   0  0  0  0  0  0  0  0  0  0  0  0
   12.8304   -4.6841    3.1368 H   0  0  0  0  0  0  0  0  0  0  0  0
   13.6357   -5.5622    1.8540 H   0  0  0  0  0  0  0  0  0  0  0  0
   10.7243   -6.0581    2.7768 H   0  0  0  0  0  0  0  0  0  0  0  0
   12.1356   -7.0614    3.1926 H   0  0  0  0  0  0  0  0  0  0  0  0
   11.5621   -6.9937    1.5127 H   0  0  0  0  0  0  0  0  0  0  0  0
   11.8429   -3.7879   -0.7905 H   0  0  0  0  0  0  0  0  0  0  0  0
   11.1989   -5.3683   -0.3297 H   0  0  0  0  0  0  0  0  0  0  0  0
   14.2028   -4.6777   -0.5428 H   0  0  0  0  0  0  0  0  0  0  0  0
   13.2279   -5.4991   -1.7898 H   0  0  0  0  0  0  0  0  0  0  0  0
   13.5362   -6.3057   -0.2431 H   0  0  0  0  0  0  0  0  0  0  0  0
    9.8120   -3.4573    0.0220 H   0  0  0  0  0  0  0  0  0  0  0  0
    7.1810    2.2172    2.8953 H   0  0  0  0  0  0  0  0  0  0  0  0
  1  2  1  0
  1 29  1  0
  1 30  1  0
  1 31  1  0
  2  3  1  0
  2 32  1  0
  2 33  1  0
  3  4  1  0
  3  6  1  0
  4  5  1  0
  4 34  1  0
  4 35  1  0
  5 36  1  0
  5 37  1  0
  5 38  1  0
  6  7  2  0
  6 27  1  0
  7  8  1  0
  7 39  1  0
  8  9  1  0
  8 10  2  0
 10 11  1  0
 10 26  1  0
 11 12  2  0
 11 13  1  0
 13 14  2  0
 13 24  1  0
 14 15  1  0
 14 40  1  0
 15 16  1  0
 15 17  2  0
 17 18  1  0
 17 23  1  0
 18 19  1  0
 18 21  1  0
 19 20  1  0
 19 41  1  0
 19 42  1  0
 20 43  1  0
 20 44  1  0
 20 45  1  0
 21 22  1  0
 21 46  1  0
 21 47  1  0
 22 48  1  0
 22 49  1  0
 22 50  1  0
 23 24  2  0
 23 51  1  0
 24 25  1  0
 26 27  2  0
 26 52  1  0
 27 28  1  0
M  END

