
     RDKit          3D

 22 23  0  0  0  0  0  0  0  0999 V2000
    0.8790   -0.3026    0.4659 O   0  0  0  0  0  0  0  0  0  0  0  0
    2.0235   -0.1840    0.1281 C   0  0  0  0  0  0  0  0  0  0  0  0
    2.6278    0.9929   -0.3057 N   0  0  0  0  0  0  0  0  0  0  0  0
    3.9634    0.9871   -0.6525 C   0  0  0  0  0  0  0  0  0  0  0  0
    4.5296    1.9977   -1.0618 O   0  0  0  0  0  0  0  0  0  0  0  0
    4.5272   -0.3666   -0.5102 C   0  0  0  0  0  0  0  0  0  0  0  0
    5.7410   -0.8660   -0.8934 C   0  0  0  0  0  0  0  0  0  0  0  0
    7.0177   -0.3512   -1.3630 C   0  0  0  0  0  0  0  0  0  0  0  0
    7.8287   -1.3062   -2.0427 C   0  0  0  0  0  0  0  0  0  0  0  0
    9.1111   -1.0261   -2.4786 C   0  0  0  0  0  0  0  0  0  0  0  0
    9.6607    0.2391   -2.2071 C   0  0  0  0  0  0  0  0  0  0  0  0
    8.9146    1.1907   -1.5295 C   0  0  0  0  0  0  0  0  0  0  0  0
    7.5924    0.9356   -1.1054 C   0  0  0  0  0  0  0  0  0  0  0  0
    6.9943    1.9035   -0.4162 O   0  0  0  0  0  0  0  0  0  0  0  0
    3.2654   -1.4825    0.1044 S   0  0  0  0  0  0  0  0  0  0  0  0
    2.0840    1.8506   -0.3642 H   0  0  0  0  0  0  0  0  0  0  0  0
    5.7646   -1.9618   -0.8448 H   0  0  0  0  0  0  0  0  0  0  0  0
    7.4075   -2.2990   -2.2227 H   0  0  0  0  0  0  0  0  0  0  0  0
    9.6920   -1.7841   -3.0077 H   0  0  0  0  0  0  0  0  0  0  0  0
   10.6791    0.4757   -2.5260 H   0  0  0  0  0  0  0  0  0  0  0  0
    9.3215    2.1774   -1.3005 H   0  0  0  0  0  0  0  0  0  0  0  0
    6.0250    1.9693   -0.6417 H   0  0  0  0  0  0  0  0  0  0  0  0
  1  2  2  0
  2  3  1  0
  2 15  1  0
  3  4  1  0
  3 16  1  0
  4  5  2  0
  4  6  1  0
  6  7  2  0
  6 15  1  0
  7  8  1  0
  7 17  1  0
  8  9  2  0
  8 13  1  0
  9 10  1  0
  9 18  1  0
 10 11  2  0
 10 19  1  0
 11 12  1  0
 11 20  1  0
 12 13  2  0
 12 21  1  0
 13 14  1  0
 14 22  1  0
M  END

