
     RDKit          3D

 32 31  0  0  0  0  0  0  0  0999 V2000
    0.9917   -0.6010    0.8819 C   0  0  0  0  0  0  0  0  0  0  0  0
    2.4025   -0.4425    0.3235 C   0  0  0  0  0  0  0  0  0  0  0  0
    2.9815   -2.0332   -0.3885 S   0  0  0  0  0  0  0  0  0  0  0  0
    4.7058   -1.5665   -0.9068 C   0  0  1  0  0  0  0  0  0  0  0  0
    5.6900   -1.6562    0.2730 C   0  0  0  0  0  0  0  0  0  0  0  0
    5.7793   -2.9861    0.8591 N   0  0  0  0  0  0  0  0  0  0  0  0
    5.1234   -2.3256   -2.1958 C   0  0  1  0  0  0  0  0  0  0  0  0
    4.9213   -3.8557   -2.1131 C   0  0  0  0  0  0  0  0  0  0  0  0
    5.7027   -4.6527   -3.1609 C   0  0  0  0  0  0  0  0  0  0  0  0
    4.4416   -1.7240   -3.4444 C   0  0  0  0  0  0  0  0  0  0  0  0
    4.9495   -0.3434   -3.8683 C   0  0  0  0  0  0  0  0  0  0  0  0
    0.6339    0.3543    1.2986 H   0  0  0  0  0  0  0  0  0  0  0  0
    0.9623   -1.3548    1.6845 H   0  0  0  0  0  0  0  0  0  0  0  0
    0.2849   -0.9152    0.0975 H   0  0  0  0  0  0  0  0  0  0  0  0
    3.0968   -0.1235    1.1174 H   0  0  0  0  0  0  0  0  0  0  0  0
    2.4237    0.3252   -0.4676 H   0  0  0  0  0  0  0  0  0  0  0  0
    4.6409   -0.4977   -1.1640 H   0  0  0  0  0  0  0  0  0  0  0  0
    5.4073   -0.8663    1.0041 H   0  0  0  0  0  0  0  0  0  0  0  0
    6.6888   -1.3706   -0.1054 H   0  0  0  0  0  0  0  0  0  0  0  0
    4.8609   -3.2506    1.2212 H   0  0  0  0  0  0  0  0  0  0  0  0
    6.4230   -2.9856    1.6497 H   0  0  0  0  0  0  0  0  0  0  0  0
    6.2129   -2.1485   -2.2921 H   0  0  0  0  0  0  0  0  0  0  0  0
    3.8432   -4.0804   -2.2059 H   0  0  0  0  0  0  0  0  0  0  0  0
    5.2337   -4.1881   -1.1131 H   0  0  0  0  0  0  0  0  0  0  0  0
    5.4188   -4.3960   -4.1946 H   0  0  0  0  0  0  0  0  0  0  0  0
    5.5308   -5.7341   -3.0376 H   0  0  0  0  0  0  0  0  0  0  0  0
    6.7881   -4.4796   -3.0637 H   0  0  0  0  0  0  0  0  0  0  0  0
    3.3539   -1.6862   -3.2590 H   0  0  0  0  0  0  0  0  0  0  0  0
    4.5800   -2.4167   -4.2903 H   0  0  0  0  0  0  0  0  0  0  0  0
    4.7977    0.4213   -3.0885 H   0  0  0  0  0  0  0  0  0  0  0  0
    4.4252    0.0116   -4.7702 H   0  0  0  0  0  0  0  0  0  0  0  0
    6.0279   -0.3659   -4.1002 H   0  0  0  0  0  0  0  0  0  0  0  0
  1  2  1  0
  1 12  1  0
  1 13  1  0
  1 14  1  0
  2  3  1  0
  2 15  1  0
  2 16  1  0
  3  4  1  0
  4  5  1  0
  4  7  1  0
  4 17  1  6
  5  6  1  0
  5 18  1  0
  5 19  1  0
  6 20  1  0
  6 21  1  0
  7  8  1  0
  7 10  1  0
  7 22  1  6
  8  9  1  0
  8 23  1  0
  8 24  1  0
  9 25  1  0
  9 26  1  0
  9 27  1  0
 10 11  1  0
 10 28  1  0
 10 29  1  0
 11 30  1  0
 11 31  1  0
 11 32  1  0
M  END

