
     RDKit          3D

 53 56  0  0  0  0  0  0  0  0999 V2000
    4.9524    1.6580   -1.5102 O   0  0  0  0  0  0  0  0  0  0  0  0
    3.7694    1.4420   -1.7259 C   0  0  0  0  0  0  0  0  0  0  0  0
    3.2270    0.0030   -1.6872 C   0  0  0  0  0  0  0  0  0  0  0  0
    2.6039   -0.3984   -2.8960 O   0  0  0  0  0  0  0  0  0  0  0  0
    3.4785   -0.6817   -3.9514 C   0  0  0  0  0  0  0  0  0  0  0  0
    4.1590   -2.0556   -3.7849 C   0  0  0  0  0  0  0  0  0  0  0  0
    3.9668   -2.7343   -2.7918 O   0  0  0  0  0  0  0  0  0  0  0  0
    4.9914   -2.4554   -4.8039 N   0  0  0  0  0  0  0  0  0  0  0  0
    5.7343   -3.6987   -4.6834 C   0  0  0  0  0  0  0  0  0  0  0  0
    5.4942   -4.5595   -5.9123 C   0  0  0  0  0  0  0  0  0  0  0  0
    5.7789   -3.8261   -7.1488 N   0  0  0  0  0  0  0  0  0  0  0  0
    5.9192   -4.6052   -8.3544 C   0  0  1  0  0  0  0  0  0  0  0  0
    7.0551   -4.3278   -9.2931 C   0  0  0  0  0  0  0  0  0  0  0  0
    7.0665   -5.5827   -8.4617 C   0  0  0  0  0  0  0  0  0  0  0  0
    5.5534   -2.4736   -7.2661 C   0  0  0  0  0  0  0  0  0  0  0  0
    5.5785   -1.8744   -8.3246 O   0  0  0  0  0  0  0  0  0  0  0  0
    5.3274   -1.6685   -5.9762 C   0  0  0  0  0  0  0  0  0  0  0  0
    2.8802    2.4512   -2.0085 N   0  0  0  0  0  0  0  0  0  0  0  0
    1.4519    2.3125   -2.2306 C   0  0  0  0  0  0  0  0  0  0  0  0
    0.6920    3.0715   -1.1519 C   0  0  0  0  0  0  0  0  0  0  0  0
    1.1371    4.4617   -1.0580 N   0  0  0  0  0  0  0  0  0  0  0  0
    0.2962    5.3644   -0.3124 C   0  0  1  0  0  0  0  0  0  0  0  0
   -0.0305    6.7157   -0.8736 C   0  0  0  0  0  0  0  0  0  0  0  0
   -1.0972    5.6547   -0.8218 C   0  0  0  0  0  0  0  0  0  0  0  0
    2.4402    4.8402   -1.3228 C   0  0  0  0  0  0  0  0  0  0  0  0
    2.8721    5.9496   -1.0759 O   0  0  0  0  0  0  0  0  0  0  0  0
    3.3475    3.8269   -2.0281 C   0  0  0  0  0  0  0  0  0  0  0  0
    2.4675   -0.1027   -0.8965 H   0  0  0  0  0  0  0  0  0  0  0  0
    4.0750   -0.6463   -1.4302 H   0  0  0  0  0  0  0  0  0  0  0  0
    4.2561    0.0993   -4.0684 H   0  0  0  0  0  0  0  0  0  0  0  0
    2.8732   -0.6782   -4.8725 H   0  0  0  0  0  0  0  0  0  0  0  0
    5.3944   -4.2090   -3.7738 H   0  0  0  0  0  0  0  0  0  0  0  0
    6.8148   -3.4819   -4.5786 H   0  0  0  0  0  0  0  0  0  0  0  0
    4.4497   -4.9263   -5.9136 H   0  0  0  0  0  0  0  0  0  0  0  0
    6.1485   -5.4439   -5.8781 H   0  0  0  0  0  0  0  0  0  0  0  0
    4.9664   -4.9078   -8.8098 H   0  0  0  0  0  0  0  0  0  0  0  0
    7.7424   -3.5250   -9.0192 H   0  0  0  0  0  0  0  0  0  0  0  0
    6.8496   -4.3969  -10.3642 H   0  0  0  0  0  0  0  0  0  0  0  0
    7.7744   -5.6274   -7.6288 H   0  0  0  0  0  0  0  0  0  0  0  0
    6.8728   -6.5460   -8.9415 H   0  0  0  0  0  0  0  0  0  0  0  0
    4.5358   -0.9518   -6.2231 H   0  0  0  0  0  0  0  0  0  0  0  0
    6.2526   -1.0776   -5.8196 H   0  0  0  0  0  0  0  0  0  0  0  0
    1.1586    1.2582   -2.2486 H   0  0  0  0  0  0  0  0  0  0  0  0
    1.1976    2.7300   -3.2237 H   0  0  0  0  0  0  0  0  0  0  0  0
    0.8154    2.5566   -0.1783 H   0  0  0  0  0  0  0  0  0  0  0  0
   -0.3844    3.0662   -1.3848 H   0  0  0  0  0  0  0  0  0  0  0  0
    0.4201    5.3024    0.7777 H   0  0  0  0  0  0  0  0  0  0  0  0
    0.3976    6.9666   -1.8458 H   0  0  0  0  0  0  0  0  0  0  0  0
   -0.0741    7.5531   -0.1727 H   0  0  0  0  0  0  0  0  0  0  0  0
   -1.3964    5.1962   -1.7691 H   0  0  0  0  0  0  0  0  0  0  0  0
   -1.9027    5.7388   -0.0870 H   0  0  0  0  0  0  0  0  0  0  0  0
    4.3355    3.8719   -1.5539 H   0  0  0  0  0  0  0  0  0  0  0  0
    3.4736    4.1904   -3.0669 H   0  0  0  0  0  0  0  0  0  0  0  0
  1  2  2  0
  2  3  1  0
  2 18  1  0
  3  4  1  0
  3 28  1  0
  3 29  1  0
  4  5  1  0
  5  6  1  0
  5 30  1  0
  5 31  1  0
  6  7  2  0
  6  8  1  0
  8  9  1  0
  8 17  1  0
  9 10  1  0
  9 32  1  0
  9 33  1  0
 10 11  1  0
 10 34  1  0
 10 35  1  0
 11 12  1  0
 11 15  1  0
 12 13  1  0
 12 14  1  0
 12 36  1  6
 13 14  1  0
 13 37  1  0
 13 38  1  0
 14 39  1  0
 14 40  1  0
 15 16  2  0
 15 17  1  0
 17 41  1  0
 17 42  1  0
 18 19  1  0
 18 27  1  0
 19 20  1  0
 19 43  1  0
 19 44  1  0
 20 21  1  0
 20 45  1  0
 20 46  1  0
 21 22  1  0
 21 25  1  0
 22 23  1  0
 22 24  1  0
 22 47  1  1
 23 24  1  0
 23 48  1  0
 23 49  1  0
 24 50  1  0
 24 51  1  0
 25 26  2  0
 25 27  1  0
 27 52  1  0
 27 53  1  0
M  END

