
     RDKit          3D

 39 40  0  0  0  0  0  0  0  0999 V2000
    3.7733   -3.4644   -0.8663 O   0  0  0  0  0  0  0  0  0  0  0  0
    2.9658   -2.5763   -0.9396 C   0  0  0  0  0  0  0  0  0  0  0  0
    1.7897   -2.7771   -1.5707 O   0  0  0  0  0  0  0  0  0  0  0  0
    3.1471   -1.1923   -0.3271 C   0  0  0  0  0  0  0  0  0  0  0  0
    4.5943   -0.9361    0.1179 C   0  0  1  0  0  0  0  0  0  0  0  0
    5.5084   -0.5582   -1.0657 C   0  0  0  0  0  0  0  0  0  0  0  0
    5.1149    1.0677   -1.8079 S   0  0  0  0  0  0  0  0  0  0  0  0
    5.2152    2.0317   -0.2499 C   0  0  0  0  0  0  0  0  0  0  0  0
    4.3375    1.4341    0.8502 C   0  0  0  0  0  0  0  0  0  0  0  0
    4.6791    0.0530    1.2045 N   0  0  0  0  0  0  0  0  0  0  0  0
    5.6584   -0.0833    2.2043 C   0  0  0  0  0  0  0  0  0  0  0  0
    6.3428    0.8695    2.5517 O   0  0  0  0  0  0  0  0  0  0  0  0
    5.7922   -1.3465    2.7719 N   0  0  0  0  0  0  0  0  0  0  0  0
    6.9934   -1.5932    3.5747 C   0  0  0  0  0  0  0  0  0  0  0  0
    7.8620   -2.7332    3.0097 C   0  0  0  0  0  0  0  0  0  0  0  0
    7.6108   -4.1456    3.5581 C   0  0  0  0  0  0  0  0  0  0  0  0
    5.8698   -4.6283    3.9065 S   0  0  0  0  0  0  0  0  0  0  0  0
    4.8858   -3.7072    2.6675 C   0  0  0  0  0  0  0  0  0  0  0  0
    4.6511   -2.2282    3.0028 C   0  0  0  0  0  0  0  0  0  0  0  0
    1.2607   -1.9663   -1.5710 H   0  0  0  0  0  0  0  0  0  0  0  0
    2.4684   -1.1234    0.5412 H   0  0  0  0  0  0  0  0  0  0  0  0
    2.8210   -0.4224   -1.0478 H   0  0  0  0  0  0  0  0  0  0  0  0
    4.9837   -1.8848    0.5017 H   0  0  0  0  0  0  0  0  0  0  0  0
    5.4181   -1.3055   -1.8682 H   0  0  0  0  0  0  0  0  0  0  0  0
    6.5582   -0.5572   -0.7306 H   0  0  0  0  0  0  0  0  0  0  0  0
    4.8826    3.0511   -0.4988 H   0  0  0  0  0  0  0  0  0  0  0  0
    6.2606    2.0817    0.0908 H   0  0  0  0  0  0  0  0  0  0  0  0
    3.2807    1.4641    0.5355 H   0  0  0  0  0  0  0  0  0  0  0  0
    4.4390    2.0421    1.7590 H   0  0  0  0  0  0  0  0  0  0  0  0
    6.7051   -1.8064    4.6198 H   0  0  0  0  0  0  0  0  0  0  0  0
    7.5588   -0.6542    3.5797 H   0  0  0  0  0  0  0  0  0  0  0  0
    8.9253   -2.5002    3.1951 H   0  0  0  0  0  0  0  0  0  0  0  0
    7.7446   -2.7324    1.9142 H   0  0  0  0  0  0  0  0  0  0  0  0
    8.1001   -4.2675    4.5379 H   0  0  0  0  0  0  0  0  0  0  0  0
    8.0632   -4.8886    2.8821 H   0  0  0  0  0  0  0  0  0  0  0  0
    3.9137   -4.2253    2.6851 H   0  0  0  0  0  0  0  0  0  0  0  0
    5.2913   -3.8456    1.6535 H   0  0  0  0  0  0  0  0  0  0  0  0
    4.3550   -2.1666    4.0679 H   0  0  0  0  0  0  0  0  0  0  0  0
    3.8015   -1.8503    2.4207 H   0  0  0  0  0  0  0  0  0  0  0  0
  1  2  2  0
  2  3  1  0
  2  4  1  0
  3 20  1  0
  4  5  1  0
  4 21  1  0
  4 22  1  0
  5  6  1  0
  5 10  1  0
  5 23  1  1
  6  7  1  0
  6 24  1  0
  6 25  1  0
  7  8  1  0
  8  9  1  0
  8 26  1  0
  8 27  1  0
  9 10  1  0
  9 28  1  0
  9 29  1  0
 10 11  1  0
 11 12  2  0
 11 13  1  0
 13 14  1  0
 13 19  1  0
 14 15  1  0
 14 30  1  0
 14 31  1  0
 15 16  1  0
 15 32  1  0
 15 33  1  0
 16 17  1  0
 16 34  1  0
 16 35  1  0
 17 18  1  0
 18 19  1  0
 18 36  1  0
 18 37  1  0
 19 38  1  0
 19 39  1  0
M  END

