
     RDKit          3D

 61 64  0  0  0  0  0  0  0  0999 V2000
   12.5034  -10.2277    1.0034 C   0  0  0  0  0  0  0  0  0  0  0  0
   12.1640   -8.7559    0.9618 C   0  0  0  0  0  0  0  0  0  0  0  0
   13.1672   -7.8152    0.6075 C   0  0  0  0  0  0  0  0  0  0  0  0
   12.9200   -6.4478    0.5508 C   0  0  0  0  0  0  0  0  0  0  0  0
   11.6273   -5.9921    0.8562 C   0  0  0  0  0  0  0  0  0  0  0  0
   11.1039   -4.7116    0.8729 N   0  0  0  0  0  0  0  0  0  0  0  0
    9.8479   -4.8608    1.2247 C   0  0  0  0  0  0  0  0  0  0  0  0
    8.8422   -3.7474    1.4041 C   0  0  1  0  0  0  0  0  0  0  0  0
    9.4644   -2.3537    1.1949 C   0  0  0  0  0  0  0  0  0  0  0  0
    8.3526   -1.5255    0.5419 C   0  0  0  0  0  0  0  0  0  0  0  0
    7.6324   -2.5465   -0.3466 C   0  0  0  0  0  0  0  0  0  0  0  0
    7.7319   -3.7899    0.4195 N   0  0  0  0  0  0  0  0  0  0  0  0
    6.7597   -4.7537    0.5213 C   0  0  0  0  0  0  0  0  0  0  0  0
    6.8032   -5.6404    1.3828 O   0  0  0  0  0  0  0  0  0  0  0  0
    5.7248   -4.6890   -0.3783 N   0  0  0  0  0  0  0  0  0  0  0  0
    4.6787   -5.7015   -0.3860 C   0  0  0  0  0  0  0  0  0  0  0  0
    3.5891   -5.4957    0.6811 C   0  0  1  0  0  0  0  0  0  0  0  0
    2.8387   -4.1416    0.5346 C   0  0  0  0  0  0  0  0  0  0  0  0
    1.3974   -4.5212    0.1371 C   0  0  0  0  0  0  0  0  0  0  0  0
    1.5131   -5.8828   -0.3729 N   0  0  0  0  0  0  0  0  0  0  0  0
    0.2682   -6.6012   -0.5698 C   0  0  0  0  0  0  0  0  0  0  0  0
   -0.6005   -6.0717   -1.7244 C   0  0  1  0  0  0  0  0  0  0  0  0
    0.1507   -6.1039   -3.0594 C   0  0  0  0  0  0  0  0  0  0  0  0
   -1.9155   -6.8565   -1.7973 C   0  0  0  0  0  0  0  0  0  0  0  0
    2.4667   -6.5358    0.5156 C   0  0  0  0  0  0  0  0  0  0  0  0
    9.5038   -6.1701    1.4572 N   0  0  0  0  0  0  0  0  0  0  0  0
    8.5362   -6.4439    1.6413 H   0  0  0  0  0  0  0  0  0  0  0  0
   10.6254   -6.9321    1.2148 C   0  0  0  0  0  0  0  0  0  0  0  0
   10.8757   -8.3095    1.2698 C   0  0  0  0  0  0  0  0  0  0  0  0
   12.8612  -10.5862    0.0232 H   0  0  0  0  0  0  0  0  0  0  0  0
   11.6322  -10.8377    1.2851 H   0  0  0  0  0  0  0  0  0  0  0  0
   13.3067  -10.4349    1.7310 H   0  0  0  0  0  0  0  0  0  0  0  0
   14.1690   -8.1864    0.3715 H   0  0  0  0  0  0  0  0  0  0  0  0
   13.7028   -5.7376    0.2754 H   0  0  0  0  0  0  0  0  0  0  0  0
    8.4013   -3.8506    2.4117 H   0  0  0  0  0  0  0  0  0  0  0  0
   10.3337   -2.4529    0.5294 H   0  0  0  0  0  0  0  0  0  0  0  0
    9.8255   -1.9263    2.1410 H   0  0  0  0  0  0  0  0  0  0  0  0
    8.7329   -0.6639   -0.0268 H   0  0  0  0  0  0  0  0  0  0  0  0
    7.6518   -1.1440    1.3029 H   0  0  0  0  0  0  0  0  0  0  0  0
    8.1264   -2.6374   -1.3329 H   0  0  0  0  0  0  0  0  0  0  0  0
    6.5787   -2.2754   -0.5172 H   0  0  0  0  0  0  0  0  0  0  0  0
    5.7964   -4.0675   -1.1711 H   0  0  0  0  0  0  0  0  0  0  0  0
    5.1412   -6.6899   -0.2353 H   0  0  0  0  0  0  0  0  0  0  0  0
    4.2102   -5.6931   -1.3823 H   0  0  0  0  0  0  0  0  0  0  0  0
    4.0687   -5.5892    1.6659 H   0  0  0  0  0  0  0  0  0  0  0  0
    3.3148   -3.5159   -0.2366 H   0  0  0  0  0  0  0  0  0  0  0  0
    2.8539   -3.5563    1.4657 H   0  0  0  0  0  0  0  0  0  0  0  0
    0.9690   -3.8421   -0.6166 H   0  0  0  0  0  0  0  0  0  0  0  0
    0.7274   -4.4831    1.0285 H   0  0  0  0  0  0  0  0  0  0  0  0
   -0.3402   -6.6073    0.3671 H   0  0  0  0  0  0  0  0  0  0  0  0
    0.5188   -7.6566   -0.7803 H   0  0  0  0  0  0  0  0  0  0  0  0
   -0.8560   -5.0192   -1.5006 H   0  0  0  0  0  0  0  0  0  0  0  0
    0.3874   -7.1426   -3.3496 H   0  0  0  0  0  0  0  0  0  0  0  0
    1.1018   -5.5558   -2.9910 H   0  0  0  0  0  0  0  0  0  0  0  0
   -0.4523   -5.6610   -3.8687 H   0  0  0  0  0  0  0  0  0  0  0  0
   -1.7291   -7.9224   -2.0158 H   0  0  0  0  0  0  0  0  0  0  0  0
   -2.5693   -6.4656   -2.5932 H   0  0  0  0  0  0  0  0  0  0  0  0
   -2.4743   -6.8038   -0.8485 H   0  0  0  0  0  0  0  0  0  0  0  0
    2.8174   -7.4888    0.0844 H   0  0  0  0  0  0  0  0  0  0  0  0
    2.0125   -6.7728    1.5062 H   0  0  0  0  0  0  0  0  0  0  0  0
   10.0906   -9.0179    1.5467 H   0  0  0  0  0  0  0  0  0  0  0  0
  1  2  1  0
  1 30  1  0
  1 31  1  0
  1 32  1  0
  2  3  2  0
  2 29  1  0
  3  4  1  0
  3 33  1  0
  4  5  2  0
  4 34  1  0
  5  6  1  0
  5 28  1  0
  6  7  2  0
  7  8  1  0
  7 26  1  0
  8  9  1  0
  8 12  1  0
  8 35  1  1
  9 10  1  0
  9 36  1  0
  9 37  1  0
 10 11  1  0
 10 38  1  0
 10 39  1  0
 11 12  1  0
 11 40  1  0
 11 41  1  0
 12 13  1  0
 13 14  2  0
 13 15  1  0
 15 16  1  0
 15 42  1  0
 16 17  1  0
 16 43  1  0
 16 44  1  0
 17 18  1  0
 17 25  1  0
 17 45  1  1
 18 19  1  0
 18 46  1  0
 18 47  1  0
 19 20  1  0
 19 48  1  0
 19 49  1  0
 20 21  1  0
 20 25  1  0
 21 22  1  0
 21 50  1  0
 21 51  1  0
 22 23  1  0
 22 24  1  0
 22 52  1  1
 23 53  1  0
 23 54  1  0
 23 55  1  0
 24 56  1  0
 24 57  1  0
 24 58  1  0
 25 59  1  0
 25 60  1  0
 26 27  1  0
 26 28  1  0
 28 29  2  0
 29 61  1  0
M  END

