
     RDKit          3D

 35 36  0  0  0  0  0  0  0  0999 V2000
    1.8302   -1.1955    0.2978 C   0  0  0  0  0  0  0  0  0  0  0  0
    2.3837    0.1357   -0.2174 C   0  0  0  0  0  0  0  0  0  0  0  0
    2.8749    1.0304    0.8290 N   0  0  0  0  0  0  0  0  0  0  0  0
    1.8605    1.7696    1.5961 C   0  0  0  0  0  0  0  0  0  0  0  0
    1.3941    3.0441    0.9389 C   0  0  0  0  0  0  0  0  0  0  0  0
    2.0068    4.2753    0.9444 C   0  0  0  0  0  0  0  0  0  0  0  0
    1.3090    5.2663    0.1904 C   0  0  0  0  0  0  0  0  0  0  0  0
    0.1658    4.7698   -0.3846 C   0  0  0  0  0  0  0  0  0  0  0  0
   -1.0703    5.7059   -1.4520 Br  0  0  0  0  0  0  0  0  0  0  0  0
   -0.0746    3.0912   -0.0090 S   0  0  0  0  0  0  0  0  0  0  0  0
    4.1855    1.3998    1.0300 C   0  0  0  0  0  0  0  0  0  0  0  0
    4.4747    2.2995    1.8074 O   0  0  0  0  0  0  0  0  0  0  0  0
    5.2999    0.6318    0.2577 C   0  0  1  0  0  0  0  0  0  0  0  0
    6.6745    1.2299    0.5673 C   0  0  0  0  0  0  0  0  0  0  0  0
    7.1729    0.7603    1.8502 N   0  0  0  0  0  0  0  0  0  0  0  0
    6.7602   -0.3375    2.5418 C   0  0  0  0  0  0  0  0  0  0  0  0
    7.2363   -0.6650    3.6145 O   0  0  0  0  0  0  0  0  0  0  0  0
    5.6112   -1.1275    1.9177 C   0  0  0  0  0  0  0  0  0  0  0  0
    5.3858   -0.7989    0.5182 N   0  0  0  0  0  0  0  0  0  0  0  0
    1.4609   -1.8046   -0.5425 H   0  0  0  0  0  0  0  0  0  0  0  0
    0.9880   -1.0458    0.9911 H   0  0  0  0  0  0  0  0  0  0  0  0
    2.5990   -1.7740    0.8332 H   0  0  0  0  0  0  0  0  0  0  0  0
    1.5957    0.6686   -0.7788 H   0  0  0  0  0  0  0  0  0  0  0  0
    3.1838   -0.0432   -0.9480 H   0  0  0  0  0  0  0  0  0  0  0  0
    2.3039    2.0188    2.5683 H   0  0  0  0  0  0  0  0  0  0  0  0
    1.0080    1.0982    1.7759 H   0  0  0  0  0  0  0  0  0  0  0  0
    2.9438    4.4500    1.4747 H   0  0  0  0  0  0  0  0  0  0  0  0
    1.6320    6.3018    0.0811 H   0  0  0  0  0  0  0  0  0  0  0  0
    5.1221    0.7735   -0.8212 H   0  0  0  0  0  0  0  0  0  0  0  0
    6.6080    2.3263    0.5892 H   0  0  0  0  0  0  0  0  0  0  0  0
    7.3615    0.9348   -0.2465 H   0  0  0  0  0  0  0  0  0  0  0  0
    7.9081    1.2904    2.3078 H   0  0  0  0  0  0  0  0  0  0  0  0
    4.7330   -0.9533    2.5782 H   0  0  0  0  0  0  0  0  0  0  0  0
    5.8728   -2.1917    2.0163 H   0  0  0  0  0  0  0  0  0  0  0  0
    4.6156   -1.3285    0.1244 H   0  0  0  0  0  0  0  0  0  0  0  0
  1  2  1  0
  1 20  1  0
  1 21  1  0
  1 22  1  0
  2  3  1  0
  2 23  1  0
  2 24  1  0
  3  4  1  0
  3 11  1  0
  4  5  1  0
  4 25  1  0
  4 26  1  0
  5  6  2  0
  5 10  1  0
  6  7  1  0
  6 27  1  0
  7  8  2  0
  7 28  1  0
  8  9  1  0
  8 10  1  0
 11 12  2  0
 11 13  1  0
 13 14  1  0
 13 19  1  0
 13 29  1  6
 14 15  1  0
 14 30  1  0
 14 31  1  0
 15 16  1  0
 15 32  1  0
 16 17  2  0
 16 18  1  0
 18 19  1  0
 18 33  1  0
 18 34  1  0
 19 35  1  0
M  END

