
     RDKit          3D

 31 33  0  0  0  0  0  0  0  0999 V2000
    2.1194   -1.6351    0.8643 O   0  0  0  0  0  0  0  0  0  0  0  0
    2.7272   -0.6730    0.4009 C   0  0  0  0  0  0  0  0  0  0  0  0
    2.8138    0.5328    1.0456 N   0  0  0  0  0  0  0  0  0  0  0  0
    2.2901    0.7217    2.3634 C   0  0  1  0  0  0  0  0  0  0  0  0
    1.6364    2.0349    2.7121 C   0  0  0  0  0  0  0  0  0  0  0  0
    0.7946    0.7947    2.5559 C   0  0  2  0  0  0  0  0  0  0  0  0
    0.1426    0.0906    3.7078 C   0  0  0  0  0  0  0  0  0  0  0  0
    0.0926   -1.3153    3.7134 C   0  0  0  0  0  0  0  0  0  0  0  0
   -0.5381   -1.9920    4.7593 C   0  0  0  0  0  0  0  0  0  0  0  0
   -1.1276   -1.2879    5.8154 C   0  0  0  0  0  0  0  0  0  0  0  0
   -1.0688    0.1022    5.7955 C   0  0  0  0  0  0  0  0  0  0  0  0
   -1.6289    0.7965    6.8007 F   0  0  0  0  0  0  0  0  0  0  0  0
   -0.4459    0.8010    4.7627 C   0  0  0  0  0  0  0  0  0  0  0  0
    3.3981   -0.7706   -0.9104 C   0  0  0  0  0  0  0  0  0  0  0  0
    4.1161    0.1024   -1.7265 C   0  0  0  0  0  0  0  0  0  0  0  0
    4.4972   -0.6217   -2.8850 C   0  0  0  0  0  0  0  0  0  0  0  0
    4.0012   -1.9125   -2.7437 C   0  0  0  0  0  0  0  0  0  0  0  0
    3.3457   -1.9814   -1.5537 N   0  0  0  0  0  0  0  0  0  0  0  0
    2.8619   -2.7749   -1.1461 H   0  0  0  0  0  0  0  0  0  0  0  0
    3.4504    1.2307    0.6786 H   0  0  0  0  0  0  0  0  0  0  0  0
    2.8466    0.2227    3.1675 H   0  0  0  0  0  0  0  0  0  0  0  0
    1.5669    2.7961    1.9300 H   0  0  0  0  0  0  0  0  0  0  0  0
    1.8152    2.4286    3.7162 H   0  0  0  0  0  0  0  0  0  0  0  0
    0.2325    0.7338    1.6171 H   0  0  0  0  0  0  0  0  0  0  0  0
    0.5659   -1.8588    2.8920 H   0  0  0  0  0  0  0  0  0  0  0  0
   -0.5706   -3.0847    4.7586 H   0  0  0  0  0  0  0  0  0  0  0  0
   -1.6244   -1.7942    6.6453 H   0  0  0  0  0  0  0  0  0  0  0  0
   -0.4344    1.8925    4.7926 H   0  0  0  0  0  0  0  0  0  0  0  0
    4.3381    1.1486   -1.5211 H   0  0  0  0  0  0  0  0  0  0  0  0
    5.0686   -0.2467   -3.7319 H   0  0  0  0  0  0  0  0  0  0  0  0
    4.0729   -2.7735   -3.4049 H   0  0  0  0  0  0  0  0  0  0  0  0
  1  2  2  0
  2  3  1  0
  2 14  1  0
  3  4  1  0
  3 20  1  0
  4  5  1  0
  4  6  1  0
  4 21  1  1
  5  6  1  0
  5 22  1  0
  5 23  1  0
  6  7  1  0
  6 24  1  6
  7  8  2  0
  7 13  1  0
  8  9  1  0
  8 25  1  0
  9 10  2  0
  9 26  1  0
 10 11  1  0
 10 27  1  0
 11 12  1  0
 11 13  2  0
 13 28  1  0
 14 15  2  0
 14 18  1  0
 15 16  1  0
 15 29  1  0
 16 17  2  0
 16 30  1  0
 17 18  1  0
 17 31  1  0
 18 19  1  0
M  END

