
     RDKit          3D

 48 49  0  0  0  0  0  0  0  0999 V2000
    0.8627   -0.2234   -0.1018 C   0  0  0  0  0  0  0  0  0  0  0  0
    2.3781   -0.0450    0.0291 C   0  0  0  0  0  0  0  0  0  0  0  0
    3.0048   -0.2808    1.4340 C   0  0  1  0  0  0  0  0  0  0  0  0
    2.3205    0.5994    2.4887 C   0  0  0  0  0  0  0  0  0  0  0  0
    2.9062   -1.7562    1.8693 C   0  0  0  0  0  0  0  0  0  0  0  0
    3.7725   -2.6518    1.1053 N   0  0  0  0  0  0  0  0  0  0  0  0
    3.4523   -4.0471    1.3787 C   0  0  0  0  0  0  0  0  0  0  0  0
    2.1377   -4.5052    0.7634 C   0  0  0  0  0  0  0  0  0  0  0  0
    1.8086   -4.1707   -0.5617 C   0  0  0  0  0  0  0  0  0  0  0  0
    0.6272   -4.6487   -1.1292 C   0  0  0  0  0  0  0  0  0  0  0  0
   -0.2435   -5.4608   -0.3946 C   0  0  0  0  0  0  0  0  0  0  0  0
    0.0773   -5.7942    0.9271 C   0  0  0  0  0  0  0  0  0  0  0  0
   -0.7235   -6.5725    1.7035 O   0  0  0  0  0  0  0  0  0  0  0  0
    1.2646   -5.3120    1.4989 C   0  0  0  0  0  0  0  0  0  0  0  0
    5.2167   -2.2805    1.1125 C   0  0  2  0  0  0  0  0  0  0  0  0
    5.9737   -3.1237    0.0717 C   0  0  0  0  0  0  0  0  0  0  0  0
    5.8476   -2.4404    2.5265 C   0  0  0  0  0  0  0  0  0  0  0  0
    7.3579   -2.2095    2.6402 C   0  0  0  0  0  0  0  0  0  0  0  0
    5.2804   -0.8101    0.6401 C   0  0  0  0  0  0  0  0  0  0  0  0
    4.4387    0.0499    1.4522 N   0  0  0  0  0  0  0  0  0  0  0  0
    0.5450   -0.0501   -1.1428 H   0  0  0  0  0  0  0  0  0  0  0  0
    0.3004    0.4824    0.5297 H   0  0  0  0  0  0  0  0  0  0  0  0
    0.5440   -1.2437    0.1639 H   0  0  0  0  0  0  0  0  0  0  0  0
    2.6467    0.9835   -0.2766 H   0  0  0  0  0  0  0  0  0  0  0  0
    2.8715   -0.7192   -0.6875 H   0  0  0  0  0  0  0  0  0  0  0  0
    1.2692    0.3139    2.6445 H   0  0  0  0  0  0  0  0  0  0  0  0
    2.3372    1.6596    2.1833 H   0  0  0  0  0  0  0  0  0  0  0  0
    2.8510    0.5148    3.4487 H   0  0  0  0  0  0  0  0  0  0  0  0
    1.8698   -2.1029    1.7420 H   0  0  0  0  0  0  0  0  0  0  0  0
    3.1181   -1.8111    2.9589 H   0  0  0  0  0  0  0  0  0  0  0  0
    3.4240   -4.2720    2.4672 H   0  0  0  0  0  0  0  0  0  0  0  0
    4.2497   -4.6800    0.9617 H   0  0  0  0  0  0  0  0  0  0  0  0
    2.4825   -3.5296   -1.1324 H   0  0  0  0  0  0  0  0  0  0  0  0
    0.3734   -4.3893   -2.1606 H   0  0  0  0  0  0  0  0  0  0  0  0
   -1.1704   -5.8314   -0.8444 H   0  0  0  0  0  0  0  0  0  0  0  0
   -1.5028   -6.8354    1.1966 H   0  0  0  0  0  0  0  0  0  0  0  0
    1.4875   -5.5827    2.5341 H   0  0  0  0  0  0  0  0  0  0  0  0
    6.1675   -4.1511    0.4150 H   0  0  0  0  0  0  0  0  0  0  0  0
    6.9516   -2.6715   -0.1527 H   0  0  0  0  0  0  0  0  0  0  0  0
    5.4005   -3.1744   -0.8664 H   0  0  0  0  0  0  0  0  0  0  0  0
    5.6222   -3.4582    2.8894 H   0  0  0  0  0  0  0  0  0  0  0  0
    5.3373   -1.7424    3.2070 H   0  0  0  0  0  0  0  0  0  0  0  0
    7.9410   -2.9255    2.0396 H   0  0  0  0  0  0  0  0  0  0  0  0
    7.6836   -2.3246    3.6867 H   0  0  0  0  0  0  0  0  0  0  0  0
    7.6483   -1.1942    2.3253 H   0  0  0  0  0  0  0  0  0  0  0  0
    5.0251   -0.7969   -0.4405 H   0  0  0  0  0  0  0  0  0  0  0  0
    6.3188   -0.4525    0.7194 H   0  0  0  0  0  0  0  0  0  0  0  0
    4.5826    1.0297    1.2138 H   0  0  0  0  0  0  0  0  0  0  0  0
  1  2  1  0
  1 21  1  0
  1 22  1  0
  1 23  1  0
  3  2  1  6
  2 24  1  0
  2 25  1  0
  3  4  1  0
  3  5  1  0
  3 20  1  0
  4 26  1  0
  4 27  1  0
  4 28  1  0
  5  6  1  0
  5 29  1  0
  5 30  1  0
  6  7  1  0
  6 15  1  0
  7  8  1  0
  7 31  1  0
  7 32  1  0
  8  9  2  0
  8 14  1  0
  9 10  1  0
  9 33  1  0
 10 11  2  0
 10 34  1  0
 11 12  1  0
 11 35  1  0
 12 13  1  0
 12 14  2  0
 13 36  1  0
 14 37  1  0
 15 16  1  6
 15 17  1  0
 15 19  1  0
 16 38  1  0
 16 39  1  0
 16 40  1  0
 17 18  1  0
 17 41  1  0
 17 42  1  0
 18 43  1  0
 18 44  1  0
 18 45  1  0
 19 20  1  0
 19 46  1  0
 19 47  1  0
 20 48  1  0
M  END

