
     RDKit          3D

 32 32  0  0  0  0  0  0  0  0999 V2000
    5.3539    0.5660    2.6214 C   0  0  0  0  0  0  0  0  0  0  0  0
    4.6629    0.3754    1.4815 C   0  0  0  0  0  0  0  0  0  0  0  0
    5.2446   -0.3246    0.3488 C   0  0  0  0  0  0  0  0  0  0  0  0
    4.6805   -0.6341   -0.8539 C   0  0  0  0  0  0  0  0  0  0  0  0
    3.2779   -0.2134   -1.1918 C   0  0  0  0  0  0  0  0  0  0  0  0
    2.7439    0.7436   -0.6638 O   0  0  0  0  0  0  0  0  0  0  0  0
    2.4013   -1.1871   -2.4167 S   0  0  0  0  0  0  0  0  0  0  0  0
    0.8690   -0.2024   -2.4451 C   0  0  0  0  0  0  0  0  0  0  0  0
    5.4488   -1.5100   -1.8072 C   0  0  0  0  0  0  0  0  0  0  0  0
    4.8899   -2.4577   -2.3374 O   0  0  0  0  0  0  0  0  0  0  0  0
    6.8876   -1.2196   -2.0899 C   0  0  0  0  0  0  0  0  0  0  0  0
    7.6634   -2.2448   -2.6738 C   0  0  0  0  0  0  0  0  0  0  0  0
    8.9903   -2.0350   -3.0082 C   0  0  0  0  0  0  0  0  0  0  0  0
    9.5865   -0.7756   -2.7888 C   0  0  0  0  0  0  0  0  0  0  0  0
   10.8827   -0.6628   -3.1495 O   0  0  0  0  0  0  0  0  0  0  0  0
   11.5542    0.5669   -2.9716 C   0  0  0  0  0  0  0  0  0  0  0  0
    8.8228    0.2626   -2.2303 C   0  0  0  0  0  0  0  0  0  0  0  0
    7.4887    0.0322   -1.8845 C   0  0  0  0  0  0  0  0  0  0  0  0
    4.9145    1.0917    3.4728 H   0  0  0  0  0  0  0  0  0  0  0  0
    6.3814    0.2047    2.7372 H   0  0  0  0  0  0  0  0  0  0  0  0
    3.6462    0.7557    1.3765 H   0  0  0  0  0  0  0  0  0  0  0  0
    6.2664   -0.6869    0.5126 H   0  0  0  0  0  0  0  0  0  0  0  0
    0.2044   -0.6989   -3.1657 H   0  0  0  0  0  0  0  0  0  0  0  0
    1.0712    0.8285   -2.7659 H   0  0  0  0  0  0  0  0  0  0  0  0
    0.4021   -0.1824   -1.4513 H   0  0  0  0  0  0  0  0  0  0  0  0
    7.1880   -3.2102   -2.8577 H   0  0  0  0  0  0  0  0  0  0  0  0
    9.6007   -2.8253   -3.4498 H   0  0  0  0  0  0  0  0  0  0  0  0
   12.5808    0.4157   -3.3305 H   0  0  0  0  0  0  0  0  0  0  0  0
   11.5860    0.8656   -1.9087 H   0  0  0  0  0  0  0  0  0  0  0  0
   11.0853    1.3775   -3.5571 H   0  0  0  0  0  0  0  0  0  0  0  0
    9.2519    1.2512   -2.0676 H   0  0  0  0  0  0  0  0  0  0  0  0
    6.9059    0.8565   -1.4696 H   0  0  0  0  0  0  0  0  0  0  0  0
  1  2  2  0
  1 19  1  0
  1 20  1  0
  2  3  1  0
  2 21  1  0
  3  4  2  0
  3 22  1  0
  4  5  1  0
  4  9  1  0
  5  6  2  0
  5  7  1  0
  7  8  1  0
  8 23  1  0
  8 24  1  0
  8 25  1  0
  9 10  2  0
  9 11  1  0
 11 12  2  0
 11 18  1  0
 12 13  1  0
 12 26  1  0
 13 14  2  0
 13 27  1  0
 14 15  1  0
 14 17  1  0
 15 16  1  0
 16 28  1  0
 16 29  1  0
 16 30  1  0
 17 18  2  0
 17 31  1  0
 18 32  1  0
M  END

