
     RDKit          3D

 34 35  0  0  0  0  0  0  0  0999 V2000
    1.3526    1.4152   -0.0466 C   0  0  0  0  0  0  0  0  0  0  0  0
    2.7765    1.4528   -0.0684 O   0  0  0  0  0  0  0  0  0  0  0  0
    3.3928    0.7232    0.8709 C   0  0  0  0  0  0  0  0  0  0  0  0
    2.8135    0.0643    1.6978 O   0  0  0  0  0  0  0  0  0  0  0  0
    4.9078    0.8226    0.7744 C   0  0  0  0  0  0  0  0  0  0  0  0
    5.4302    1.5901   -0.1734 N   0  0  0  0  0  0  0  0  0  0  0  0
    6.7784    1.6543   -0.2223 C   0  0  0  0  0  0  0  0  0  0  0  0
    7.3680    2.5260   -1.2972 C   0  0  0  0  0  0  0  0  0  0  0  0
    7.5681    0.9504    0.6774 C   0  0  0  0  0  0  0  0  0  0  0  0
    6.9053    0.1566    1.6496 C   0  0  0  0  0  0  0  0  0  0  0  0
    7.5916   -0.5640    2.5761 N   0  0  0  0  0  0  0  0  0  0  0  0
    6.9486   -1.3841    3.6105 C   0  0  1  0  0  0  0  0  0  0  0  0
    6.6117   -2.7913    3.0955 C   0  0  0  0  0  0  0  0  0  0  0  0
    7.7886   -1.3790    4.8626 C   0  0  0  0  0  0  0  0  0  0  0  0
    7.5786   -0.6704    6.0196 C   0  0  0  0  0  0  0  0  0  0  0  0
    8.5930   -0.8560    7.0082 C   0  0  0  0  0  0  0  0  0  0  0  0
    9.5755   -1.7098    6.5796 C   0  0  0  0  0  0  0  0  0  0  0  0
   10.9773   -2.2134    7.4511 Cl  0  0  0  0  0  0  0  0  0  0  0  0
    9.2700   -2.3118    4.9738 S   0  0  0  0  0  0  0  0  0  0  0  0
    5.5668    0.1021    1.6812 N   0  0  0  0  0  0  0  0  0  0  0  0
    1.0164    2.0609   -0.8674 H   0  0  0  0  0  0  0  0  0  0  0  0
    0.9636    1.7854    0.9148 H   0  0  0  0  0  0  0  0  0  0  0  0
    0.9836    0.3881   -0.1929 H   0  0  0  0  0  0  0  0  0  0  0  0
    7.0043    3.5594   -1.1806 H   0  0  0  0  0  0  0  0  0  0  0  0
    7.0250    2.1818   -2.2860 H   0  0  0  0  0  0  0  0  0  0  0  0
    8.4669    2.5276   -1.2783 H   0  0  0  0  0  0  0  0  0  0  0  0
    8.6585    1.0053    0.6405 H   0  0  0  0  0  0  0  0  0  0  0  0
    8.6032   -0.5307    2.5567 H   0  0  0  0  0  0  0  0  0  0  0  0
    6.0010   -0.8802    3.8531 H   0  0  0  0  0  0  0  0  0  0  0  0
    7.5208   -3.3351    2.7900 H   0  0  0  0  0  0  0  0  0  0  0  0
    5.9412   -2.7137    2.2275 H   0  0  0  0  0  0  0  0  0  0  0  0
    6.1042   -3.3775    3.8768 H   0  0  0  0  0  0  0  0  0  0  0  0
    6.7107   -0.0233    6.1605 H   0  0  0  0  0  0  0  0  0  0  0  0
    8.5994   -0.3850    7.9911 H   0  0  0  0  0  0  0  0  0  0  0  0
  1  2  1  0
  1 21  1  0
  1 22  1  0
  1 23  1  0
  2  3  1  0
  3  4  2  0
  3  5  1  0
  5  6  2  0
  5 20  1  0
  6  7  1  0
  7  8  1  0
  7  9  2  0
  8 24  1  0
  8 25  1  0
  8 26  1  0
  9 10  1  0
  9 27  1  0
 10 11  1  0
 10 20  2  0
 11 12  1  0
 11 28  1  0
 12 13  1  0
 12 14  1  0
 12 29  1  1
 13 30  1  0
 13 31  1  0
 13 32  1  0
 14 15  2  0
 14 19  1  0
 15 16  1  0
 15 33  1  0
 16 17  2  0
 16 34  1  0
 17 18  1  0
 17 19  1  0
M  END

