
     RDKit          3D

 59 61  0  0  0  0  0  0  0  0999 V2000
    3.0043   -1.2734   -2.6062 C   0  0  0  0  0  0  0  0  0  0  0  0
    3.4013   -0.6363   -1.2738 C   0  0  0  0  0  0  0  0  0  0  0  0
    3.8133    0.8335   -1.3990 C   0  0  0  0  0  0  0  0  0  0  0  0
    4.2133    1.4763   -0.0585 C   0  0  0  0  0  0  0  0  0  0  0  0
    4.6199    2.9278   -0.1818 C   0  0  0  0  0  0  0  0  0  0  0  0
    3.6744    3.9596   -0.0825 C   0  0  0  0  0  0  0  0  0  0  0  0
    4.0469    5.2969   -0.2357 C   0  0  0  0  0  0  0  0  0  0  0  0
    5.3772    5.6628   -0.4953 C   0  0  0  0  0  0  0  0  0  0  0  0
    5.7534    7.1442   -0.5792 C   0  0  1  0  0  0  0  0  0  0  0  0
    6.2615    7.6810    0.6961 N   0  0  0  0  0  0  0  0  0  0  0  0
    7.4576    7.0801    1.2694 C   0  0  0  0  0  0  0  0  0  0  0  0
    8.0014    7.9389    2.3621 C   0  0  0  0  0  0  0  0  0  0  0  0
    8.0193    7.7092    3.6353 N   0  0  0  0  0  0  0  0  0  0  0  0
    8.6092    8.8151    4.2317 N   0  0  0  0  0  0  0  0  0  0  0  0
    8.9040    9.6373    3.2752 C   0  0  0  0  0  0  0  0  0  0  0  0
    9.5185   10.9925    3.3736 C   0  0  0  0  0  0  0  0  0  0  0  0
    8.5238   12.1249    3.1576 C   0  0  0  0  0  0  0  0  0  0  0  0
    7.4264   12.2746    4.0205 C   0  0  0  0  0  0  0  0  0  0  0  0
    6.5156   13.3169    3.8365 C   0  0  0  0  0  0  0  0  0  0  0  0
    6.6878   14.2247    2.7857 C   0  0  0  0  0  0  0  0  0  0  0  0
    7.7756   14.0817    1.9211 C   0  0  0  0  0  0  0  0  0  0  0  0
    8.6866   13.0364    2.1064 C   0  0  0  0  0  0  0  0  0  0  0  0
    8.5479    9.1485    2.0589 O   0  0  0  0  0  0  0  0  0  0  0  0
    6.6781    7.5092   -1.7697 C   0  0  1  0  0  0  0  0  0  0  0  0
    6.0496    7.0858   -3.1044 C   0  0  0  0  0  0  0  0  0  0  0  0
    7.0117    9.0067   -1.7774 C   0  0  0  0  0  0  0  0  0  0  0  0
    6.3228    4.6283   -0.5970 C   0  0  0  0  0  0  0  0  0  0  0  0
    5.9504    3.2907   -0.4428 C   0  0  0  0  0  0  0  0  0  0  0  0
    2.7140   -2.3287   -2.4798 H   0  0  0  0  0  0  0  0  0  0  0  0
    3.8363   -1.2417   -3.3297 H   0  0  0  0  0  0  0  0  0  0  0  0
    2.1507   -0.7461   -3.0643 H   0  0  0  0  0  0  0  0  0  0  0  0
    4.2325   -1.2091   -0.8232 H   0  0  0  0  0  0  0  0  0  0  0  0
    2.5613   -0.7182   -0.5600 H   0  0  0  0  0  0  0  0  0  0  0  0
    2.9851    1.4137   -1.8448 H   0  0  0  0  0  0  0  0  0  0  0  0
    4.6562    0.9228   -2.1081 H   0  0  0  0  0  0  0  0  0  0  0  0
    5.0438    0.8982    0.3824 H   0  0  0  0  0  0  0  0  0  0  0  0
    3.3683    1.3901    0.6464 H   0  0  0  0  0  0  0  0  0  0  0  0
    2.6276    3.7131    0.1201 H   0  0  0  0  0  0  0  0  0  0  0  0
    3.2841    6.0776   -0.1519 H   0  0  0  0  0  0  0  0  0  0  0  0
    4.8132    7.6976   -0.7491 H   0  0  0  0  0  0  0  0  0  0  0  0
    5.5169    7.6779    1.3907 H   0  0  0  0  0  0  0  0  0  0  0  0
    8.2267    6.9976    0.4849 H   0  0  0  0  0  0  0  0  0  0  0  0
    7.3170    6.0685    1.6958 H   0  0  0  0  0  0  0  0  0  0  0  0
   10.3377   11.0714    2.6424 H   0  0  0  0  0  0  0  0  0  0  0  0
    9.9608   11.0589    4.3792 H   0  0  0  0  0  0  0  0  0  0  0  0
    7.2865   11.5639    4.8401 H   0  0  0  0  0  0  0  0  0  0  0  0
    5.6670   13.4219    4.5175 H   0  0  0  0  0  0  0  0  0  0  0  0
    5.9750   15.0406    2.6420 H   0  0  0  0  0  0  0  0  0  0  0  0
    7.9175   14.7850    1.0964 H   0  0  0  0  0  0  0  0  0  0  0  0
    9.5354   12.9296    1.4249 H   0  0  0  0  0  0  0  0  0  0  0  0
    7.6281    6.9534   -1.6615 H   0  0  0  0  0  0  0  0  0  0  0  0
    5.0920    7.6094   -3.2694 H   0  0  0  0  0  0  0  0  0  0  0  0
    5.8508    6.0049   -3.1484 H   0  0  0  0  0  0  0  0  0  0  0  0
    6.7143    7.3415   -3.9449 H   0  0  0  0  0  0  0  0  0  0  0  0
    6.0952    9.6081   -1.9065 H   0  0  0  0  0  0  0  0  0  0  0  0
    7.6891    9.2492   -2.6122 H   0  0  0  0  0  0  0  0  0  0  0  0
    7.4806    9.3264   -0.8373 H   0  0  0  0  0  0  0  0  0  0  0  0
    7.3695    4.8606   -0.8076 H   0  0  0  0  0  0  0  0  0  0  0  0
    6.7130    2.5102   -0.5246 H   0  0  0  0  0  0  0  0  0  0  0  0
  1  2  1  0
  1 29  1  0
  1 30  1  0
  1 31  1  0
  2  3  1  0
  2 32  1  0
  2 33  1  0
  3  4  1  0
  3 34  1  0
  3 35  1  0
  4  5  1  0
  4 36  1  0
  4 37  1  0
  5  6  2  0
  5 28  1  0
  6  7  1  0
  6 38  1  0
  7  8  2  0
  7 39  1  0
  8  9  1  0
  8 27  1  0
  9 10  1  0
  9 24  1  0
  9 40  1  6
 10 11  1  0
 10 41  1  0
 11 12  1  0
 11 42  1  0
 11 43  1  0
 12 13  2  0
 12 23  1  0
 13 14  1  0
 14 15  2  0
 15 16  1  0
 15 23  1  0
 16 17  1  0
 16 44  1  0
 16 45  1  0
 17 18  2  0
 17 22  1  0
 18 19  1  0
 18 46  1  0
 19 20  2  0
 19 47  1  0
 20 21  1  0
 20 48  1  0
 21 22  2  0
 21 49  1  0
 22 50  1  0
 24 25  1  0
 24 26  1  0
 24 51  1  1
 25 52  1  0
 25 53  1  0
 25 54  1  0
 26 55  1  0
 26 56  1  0
 26 57  1  0
 27 28  2  0
 27 58  1  0
 28 59  1  0
M  END

