
     RDKit          3D

 52 54  0  0  0  0  0  0  0  0999 V2000
    3.1507   -3.1386   -7.9432 C   0  0  0  0  0  0  0  0  0  0  0  0
    3.5982   -4.1865   -7.1129 O   0  0  0  0  0  0  0  0  0  0  0  0
    3.9072   -3.9248   -5.8193 C   0  0  0  0  0  0  0  0  0  0  0  0
    4.3590   -5.0180   -5.0560 C   0  0  0  0  0  0  0  0  0  0  0  0
    4.6995   -4.8504   -3.7196 C   0  0  0  0  0  0  0  0  0  0  0  0
    4.6025   -3.5917   -3.0962 C   0  0  0  0  0  0  0  0  0  0  0  0
    5.0079   -3.4122   -1.6397 C   0  0  0  0  0  0  0  0  0  0  0  0
    4.3981   -4.4053   -0.6994 C   0  0  0  0  0  0  0  0  0  0  0  0
    5.0430   -5.3919   -0.1261 N   0  0  0  0  0  0  0  0  0  0  0  0
    4.1482   -6.0888    0.6429 N   0  0  0  0  0  0  0  0  0  0  0  0
    2.9741   -5.5123    0.5152 C   0  0  0  0  0  0  0  0  0  0  0  0
    1.4730   -5.9876    1.2977 S   0  0  0  0  0  0  0  0  0  0  0  0
    1.9694   -7.6414    1.9354 C   0  0  0  0  0  0  0  0  0  0  0  0
    2.6472   -7.6159    3.3149 C   0  0  0  0  0  0  0  0  0  0  0  0
    1.9938   -7.8617    4.3142 O   0  0  0  0  0  0  0  0  0  0  0  0
    3.9840   -7.3281    3.2719 N   0  0  0  0  0  0  0  0  0  0  0  0
    4.8830   -7.2111    4.3540 C   0  0  0  0  0  0  0  0  0  0  0  0
    4.4339   -7.1636    5.6841 C   0  0  0  0  0  0  0  0  0  0  0  0
    5.3500   -7.0116    6.7183 C   0  0  0  0  0  0  0  0  0  0  0  0
    6.7110   -6.8966    6.4358 C   0  0  0  0  0  0  0  0  0  0  0  0
    7.8843   -6.6772    7.9438 Br  0  0  0  0  0  0  0  0  0  0  0  0
    7.2012   -6.9488    5.1180 C   0  0  0  0  0  0  0  0  0  0  0  0
    8.6739   -6.8180    4.8057 C   0  0  0  0  0  0  0  0  0  0  0  0
    6.2693   -7.1350    4.0666 C   0  0  0  0  0  0  0  0  0  0  0  0
    6.7446   -7.2629    2.6358 C   0  0  0  0  0  0  0  0  0  0  0  0
    3.0653   -4.4390   -0.3323 N   0  0  0  0  0  0  0  0  0  0  0  0
    1.9943   -3.5410   -0.7293 C   0  0  0  0  0  0  0  0  0  0  0  0
    4.1522   -2.5139   -3.8642 C   0  0  0  0  0  0  0  0  0  0  0  0
    3.8052   -2.6645   -5.2138 C   0  0  0  0  0  0  0  0  0  0  0  0
    2.9706   -3.5785   -8.9332 H   0  0  0  0  0  0  0  0  0  0  0  0
    3.9070   -2.3386   -8.0399 H   0  0  0  0  0  0  0  0  0  0  0  0
    2.2089   -2.6939   -7.5736 H   0  0  0  0  0  0  0  0  0  0  0  0
    4.4357   -5.9922   -5.5432 H   0  0  0  0  0  0  0  0  0  0  0  0
    5.0526   -5.7095   -3.1423 H   0  0  0  0  0  0  0  0  0  0  0  0
    4.7726   -2.3853   -1.3147 H   0  0  0  0  0  0  0  0  0  0  0  0
    6.0967   -3.5366   -1.5297 H   0  0  0  0  0  0  0  0  0  0  0  0
    2.5841   -8.1279    1.1652 H   0  0  0  0  0  0  0  0  0  0  0  0
    1.0219   -8.1804    2.0585 H   0  0  0  0  0  0  0  0  0  0  0  0
    4.3318   -7.0582    2.3429 H   0  0  0  0  0  0  0  0  0  0  0  0
    3.3709   -7.2536    5.8926 H   0  0  0  0  0  0  0  0  0  0  0  0
    5.0028   -6.9749    7.7519 H   0  0  0  0  0  0  0  0  0  0  0  0
    9.2458   -6.5244    5.6932 H   0  0  0  0  0  0  0  0  0  0  0  0
    8.8522   -6.0654    4.0222 H   0  0  0  0  0  0  0  0  0  0  0  0
    9.0947   -7.7711    4.4415 H   0  0  0  0  0  0  0  0  0  0  0  0
    7.8022   -7.5450    2.5779 H   0  0  0  0  0  0  0  0  0  0  0  0
    6.6212   -6.3289    2.0606 H   0  0  0  0  0  0  0  0  0  0  0  0
    6.1751   -8.0348    2.0957 H   0  0  0  0  0  0  0  0  0  0  0  0
    1.0529   -4.1054   -0.7946 H   0  0  0  0  0  0  0  0  0  0  0  0
    2.2172   -3.1205   -1.7180 H   0  0  0  0  0  0  0  0  0  0  0  0
    1.8676   -2.7223   -0.0028 H   0  0  0  0  0  0  0  0  0  0  0  0
    4.0735   -1.5212   -3.4099 H   0  0  0  0  0  0  0  0  0  0  0  0
    3.4608   -1.7958   -5.7751 H   0  0  0  0  0  0  0  0  0  0  0  0
  1  2  1  0
  1 30  1  0
  1 31  1  0
  1 32  1  0
  2  3  1  0
  3  4  2  0
  3 29  1  0
  4  5  1  0
  4 33  1  0
  5  6  2  0
  5 34  1  0
  6  7  1  0
  6 28  1  0
  7  8  1  0
  7 35  1  0
  7 36  1  0
  8  9  2  0
  8 26  1  0
  9 10  1  0
 10 11  2  0
 11 12  1  0
 11 26  1  0
 12 13  1  0
 13 14  1  0
 13 37  1  0
 13 38  1  0
 14 15  2  0
 14 16  1  0
 16 17  1  0
 16 39  1  0
 17 18  2  0
 17 24  1  0
 18 19  1  0
 18 40  1  0
 19 20  2  0
 19 41  1  0
 20 21  1  0
 20 22  1  0
 22 23  1  0
 22 24  2  0
 23 42  1  0
 23 43  1  0
 23 44  1  0
 24 25  1  0
 25 45  1  0
 25 46  1  0
 25 47  1  0
 26 27  1  0
 27 48  1  0
 27 49  1  0
 27 50  1  0
 28 29  2  0
 28 51  1  0
 29 52  1  0
M  END

