
     RDKit          3D

 35 37  0  0  0  0  0  0  0  0999 V2000
    6.3884   -0.8682   -0.2523 O   0  0  0  0  0  0  0  0  0  0  0  0
    5.8631   -0.2121    0.6071 C   0  0  0  0  0  0  0  0  0  0  0  0
    6.2705    1.0544    0.8476 O   0  0  0  0  0  0  0  0  0  0  0  0
    4.7440   -0.7320    1.4717 C   0  0  0  0  0  0  0  0  0  0  0  0
    3.8717    0.1193    2.1676 C   0  0  0  0  0  0  0  0  0  0  0  0
    2.8537   -0.4523    2.9252 C   0  0  0  0  0  0  0  0  0  0  0  0
    2.0164    0.3519    3.5945 F   0  0  0  0  0  0  0  0  0  0  0  0
    2.6796   -1.8291    3.0125 C   0  0  0  0  0  0  0  0  0  0  0  0
    3.5418   -2.6914    2.3091 C   0  0  0  0  0  0  0  0  0  0  0  0
    3.3690   -4.1674    2.3812 C   0  0  0  0  0  0  0  0  0  0  0  0
    4.4840   -5.0245    2.3580 C   0  0  0  0  0  0  0  0  0  0  0  0
    4.3103   -6.4071    2.4304 C   0  0  0  0  0  0  0  0  0  0  0  0
    3.0295   -6.9563    2.5231 C   0  0  0  0  0  0  0  0  0  0  0  0
    1.8968   -6.1267    2.5430 C   0  0  0  0  0  0  0  0  0  0  0  0
    0.5068   -6.7130    2.5952 C   0  0  1  0  0  0  0  0  0  0  0  0
    0.2231   -7.9860    3.4428 C   0  0  0  0  0  0  0  0  0  0  0  0
   -1.1540   -7.3807    3.8159 C   0  0  0  0  0  0  0  0  0  0  0  0
   -0.6248   -5.9907    3.3803 C   0  0  0  0  0  0  0  0  0  0  0  0
    2.0873   -4.7394    2.4757 C   0  0  0  0  0  0  0  0  0  0  0  0
    4.5654   -2.1195    1.5339 C   0  0  0  0  0  0  0  0  0  0  0  0
    5.8567    1.3992    1.6509 H   0  0  0  0  0  0  0  0  0  0  0  0
    3.9299    1.2091    2.1157 H   0  0  0  0  0  0  0  0  0  0  0  0
    1.8800   -2.2147    3.6465 H   0  0  0  0  0  0  0  0  0  0  0  0
    5.4920   -4.6073    2.3102 H   0  0  0  0  0  0  0  0  0  0  0  0
    5.1847   -7.0630    2.4229 H   0  0  0  0  0  0  0  0  0  0  0  0
    2.9081   -8.0412    2.5786 H   0  0  0  0  0  0  0  0  0  0  0  0
    0.1635   -6.8914    1.5594 H   0  0  0  0  0  0  0  0  0  0  0  0
    0.8939   -8.0415    4.3150 H   0  0  0  0  0  0  0  0  0  0  0  0
    0.2362   -8.9591    2.9281 H   0  0  0  0  0  0  0  0  0  0  0  0
   -1.4911   -7.4913    4.8575 H   0  0  0  0  0  0  0  0  0  0  0  0
   -1.9548   -7.7417    3.1517 H   0  0  0  0  0  0  0  0  0  0  0  0
   -0.2187   -5.4246    4.2340 H   0  0  0  0  0  0  0  0  0  0  0  0
   -1.3044   -5.3340    2.8155 H   0  0  0  0  0  0  0  0  0  0  0  0
    1.2108   -4.0870    2.4685 H   0  0  0  0  0  0  0  0  0  0  0  0
    5.2356   -2.7441    0.9426 H   0  0  0  0  0  0  0  0  0  0  0  0
  1  2  2  0
  2  3  1  0
  2  4  1  0
  3 21  1  0
  4  5  2  0
  4 20  1  0
  5  6  1  0
  5 22  1  0
  6  7  1  0
  6  8  2  0
  8  9  1  0
  8 23  1  0
  9 10  1  0
  9 20  2  0
 10 11  2  0
 10 19  1  0
 11 12  1  0
 11 24  1  0
 12 13  2  0
 12 25  1  0
 13 14  1  0
 13 26  1  0
 14 15  1  0
 14 19  2  0
 15 16  1  0
 15 18  1  0
 15 27  1  6
 16 17  1  0
 16 28  1  0
 16 29  1  0
 17 18  1  0
 17 30  1  0
 17 31  1  0
 18 32  1  0
 18 33  1  0
 19 34  1  0
 20 35  1  0
M  END

