
     RDKit          3D

 29 29  0  0  0  0  0  0  0  0999 V2000
    1.7240   -0.6900    0.4318 C   0  0  0  0  0  0  0  0  0  0  0  0
    2.8998    0.0241   -0.2389 C   0  0  0  0  0  0  0  0  0  0  0  0
    3.5597   -0.8291   -1.3207 C   0  0  0  0  0  0  0  0  0  0  0  0
    4.9423    0.0881   -2.1208 S   0  0  0  0  0  0  0  0  0  0  0  0
    5.6209   -1.2317   -3.2027 C   0  0  0  0  0  0  0  0  0  0  0  0
    6.8503   -1.9113   -2.5784 C   0  0  1  0  0  0  0  0  0  0  0  0
    6.6351   -2.2521   -1.2146 O   0  0  0  0  0  0  0  0  0  0  0  0
    7.2150   -3.1579   -3.3372 C   0  0  0  0  0  0  0  0  0  0  0  0
    6.5632   -3.6277   -4.3830 N   0  0  0  0  0  0  0  0  0  0  0  0
    7.2388   -4.7526   -4.7732 C   0  0  0  0  0  0  0  0  0  0  0  0
    8.3174   -4.9679   -3.9449 C   0  0  0  0  0  0  0  0  0  0  0  0
    8.2975   -3.9419   -3.0243 N   0  0  0  0  0  0  0  0  0  0  0  0
    9.2681   -3.7220   -1.9650 C   0  0  0  0  0  0  0  0  0  0  0  0
    1.2688   -0.0591    1.2116 H   0  0  0  0  0  0  0  0  0  0  0  0
    2.0447   -1.6312    0.9082 H   0  0  0  0  0  0  0  0  0  0  0  0
    0.9357   -0.9393   -0.2977 H   0  0  0  0  0  0  0  0  0  0  0  0
    3.6543    0.2970    0.5195 H   0  0  0  0  0  0  0  0  0  0  0  0
    2.5557    0.9742   -0.6838 H   0  0  0  0  0  0  0  0  0  0  0  0
    2.8287   -1.0991   -2.1007 H   0  0  0  0  0  0  0  0  0  0  0  0
    3.9633   -1.7622   -0.8979 H   0  0  0  0  0  0  0  0  0  0  0  0
    5.8862   -0.7791   -4.1682 H   0  0  0  0  0  0  0  0  0  0  0  0
    4.8349   -1.9727   -3.4001 H   0  0  0  0  0  0  0  0  0  0  0  0
    7.7006   -1.1979   -2.6415 H   0  0  0  0  0  0  0  0  0  0  0  0
    6.3669   -1.4196   -0.7862 H   0  0  0  0  0  0  0  0  0  0  0  0
    6.9151   -5.3548   -5.6215 H   0  0  0  0  0  0  0  0  0  0  0  0
    9.0761   -5.7470   -3.9186 H   0  0  0  0  0  0  0  0  0  0  0  0
    9.6681   -4.6888   -1.6286 H   0  0  0  0  0  0  0  0  0  0  0  0
    8.7707   -3.2300   -1.1203 H   0  0  0  0  0  0  0  0  0  0  0  0
   10.1079   -3.0971   -2.3130 H   0  0  0  0  0  0  0  0  0  0  0  0
  1  2  1  0
  1 14  1  0
  1 15  1  0
  1 16  1  0
  2  3  1  0
  2 17  1  0
  2 18  1  0
  3  4  1  0
  3 19  1  0
  3 20  1  0
  4  5  1  0
  5  6  1  0
  5 21  1  0
  5 22  1  0
  6  7  1  0
  6  8  1  0
  6 23  1  1
  7 24  1  0
  8  9  2  0
  8 12  1  0
  9 10  1  0
 10 11  2  0
 10 25  1  0
 11 12  1  0
 11 26  1  0
 12 13  1  0
 13 27  1  0
 13 28  1  0
 13 29  1  0
M  END

