
     RDKit          3D

 88 97  0  0  0  0  0  0  0  0999 V2000
    1.0062   -0.2271    1.5108 C   0  0  0  0  0  0  0  0  0  0  0  0
    2.4152   -0.1844    1.5630 O   0  0  0  0  0  0  0  0  0  0  0  0
    3.1180   -1.3411    1.5832 C   0  0  0  0  0  0  0  0  0  0  0  0
    4.5193   -1.2141    1.6373 C   0  0  0  0  0  0  0  0  0  0  0  0
    5.3241   -2.3435    1.6613 C   0  0  0  0  0  0  0  0  0  0  0  0
    4.7605   -3.6355    1.6322 C   0  0  0  0  0  0  0  0  0  0  0  0
    5.6211   -4.8407    1.6579 C   0  0  0  0  0  0  0  0  0  0  0  0
    6.9495   -4.6671    1.7066 N   0  0  0  0  0  0  0  0  0  0  0  0
    7.6937   -5.7818    1.7283 C   0  0  0  0  0  0  0  0  0  0  0  0
    9.1667   -5.6363    1.7827 C   0  0  0  0  0  0  0  0  0  0  0  0
    9.7672   -4.3610    1.8108 C   0  0  0  0  0  0  0  0  0  0  0  0
   11.1464   -4.2235    1.8621 C   0  0  0  0  0  0  0  0  0  0  0  0
   11.9736   -5.3628    1.8871 C   0  0  0  0  0  0  0  0  0  0  0  0
   13.3062   -5.1305    1.9375 O   0  0  0  0  0  0  0  0  0  0  0  0
   14.2019   -6.2200    1.9641 C   0  0  0  0  0  0  0  0  0  0  0  0
   11.3892   -6.6406    1.8595 C   0  0  0  0  0  0  0  0  0  0  0  0
   10.0003   -6.7646    1.8079 C   0  0  0  0  0  0  0  0  0  0  0  0
    7.1804   -7.0193    1.7032 N   0  0  0  0  0  0  0  0  0  0  0  0
    5.8432   -7.1073    1.6545 C   0  0  0  0  0  0  0  0  0  0  0  0
    5.2330   -8.4532    1.6268 C   0  0  0  0  0  0  0  0  0  0  0  0
    6.0222   -9.6146    1.6562 C   0  0  0  0  0  0  0  0  0  0  0  0
    5.4549  -10.8830    1.6206 C   0  0  0  0  0  0  0  0  0  0  0  0
    4.0519  -11.0604    1.5426 C   0  0  0  0  0  0  0  0  0  0  0  0
    3.4687  -12.3466    1.5257 N   0  0  0  0  0  0  0  0  0  0  0  0
    4.2370  -13.5340    1.7168 C   0  0  0  0  0  0  0  0  0  0  0  0
    5.3036  -13.8539    0.8615 C   0  0  0  0  0  0  0  0  0  0  0  0
    6.0585  -15.0065    1.0745 C   0  0  0  0  0  0  0  0  0  0  0  0
    5.7360  -15.8616    2.1317 C   0  0  0  0  0  0  0  0  0  0  0  0
    4.6353  -15.5773    2.9414 C   0  0  0  0  0  0  0  0  0  0  0  0
    3.8618  -14.4246    2.7421 C   0  0  0  0  0  0  0  0  0  0  0  0
    2.6057  -14.1182    3.5805 C   0  0  2  0  0  0  0  0  0  0  0  0
    2.9384  -13.3050    4.8545 C   0  0  0  0  0  0  0  0  0  0  0  0
    3.5092  -12.0398    4.9743 C   0  0  0  0  0  0  0  0  0  0  0  0
    3.7161  -11.5038    6.2532 C   0  0  0  0  0  0  0  0  0  0  0  0
    3.3569  -12.2237    7.3990 C   0  0  0  0  0  0  0  0  0  0  0  0
    2.7837  -13.4939    7.2844 C   0  0  0  0  0  0  0  0  0  0  0  0
    2.5762  -14.0305    6.0098 C   0  0  0  0  0  0  0  0  0  0  0  0
    2.0027  -15.3196    5.6012 C   0  0  0  0  0  0  0  0  0  0  0  0
    1.4992  -16.3812    6.3627 C   0  0  0  0  0  0  0  0  0  0  0  0
    1.0053  -17.5114    5.7046 C   0  0  0  0  0  0  0  0  0  0  0  0
    1.0138  -17.5811    4.3044 C   0  0  0  0  0  0  0  0  0  0  0  0
    1.5176  -16.5188    3.5425 C   0  0  0  0  0  0  0  0  0  0  0  0
    2.0108  -15.3904    4.1952 C   0  0  0  0  0  0  0  0  0  0  0  0
    1.5896  -13.3934    2.6768 C   0  0  0  0  0  0  0  0  0  0  0  0
    0.2046  -13.5666    2.8140 C   0  0  0  0  0  0  0  0  0  0  0  0
   -0.6941  -12.9440    1.9465 C   0  0  0  0  0  0  0  0  0  0  0  0
   -0.2127  -12.1615    0.8935 C   0  0  0  0  0  0  0  0  0  0  0  0
    1.1605  -11.9747    0.7416 C   0  0  0  0  0  0  0  0  0  0  0  0
    2.0615  -12.5470    1.6539 C   0  0  0  0  0  0  0  0  0  0  0  0
    3.2598   -9.8864    1.5522 C   0  0  0  0  0  0  0  0  0  0  0  0
    3.8394   -8.6236    1.5880 C   0  0  0  0  0  0  0  0  0  0  0  0
    5.0286   -6.0422    1.6304 N   0  0  0  0  0  0  0  0  0  0  0  0
    3.3632   -3.7505    1.5783 C   0  0  0  0  0  0  0  0  0  0  0  0
    2.5420   -2.6226    1.5537 C   0  0  0  0  0  0  0  0  0  0  0  0
    0.6620    0.8158    1.5048 H   0  0  0  0  0  0  0  0  0  0  0  0
    0.5778   -0.7403    2.3905 H   0  0  0  0  0  0  0  0  0  0  0  0
    0.6439   -0.7287    0.5955 H   0  0  0  0  0  0  0  0  0  0  0  0
    4.9466   -0.2095    1.6596 H   0  0  0  0  0  0  0  0  0  0  0  0
    6.4093   -2.2471    1.7032 H   0  0  0  0  0  0  0  0  0  0  0  0
    9.1250   -3.4801    1.7915 H   0  0  0  0  0  0  0  0  0  0  0  0
   11.6204   -3.2402    1.8842 H   0  0  0  0  0  0  0  0  0  0  0  0
   15.2128   -5.7924    2.0028 H   0  0  0  0  0  0  0  0  0  0  0  0
   14.1131   -6.8472    1.0590 H   0  0  0  0  0  0  0  0  0  0  0  0
   14.0484   -6.8565    2.8540 H   0  0  0  0  0  0  0  0  0  0  0  0
   12.0046   -7.5402    1.8781 H   0  0  0  0  0  0  0  0  0  0  0  0
    9.5409   -7.7534    1.7863 H   0  0  0  0  0  0  0  0  0  0  0  0
    7.1062   -9.5105    1.7155 H   0  0  0  0  0  0  0  0  0  0  0  0
    6.1162  -11.7440    1.6747 H   0  0  0  0  0  0  0  0  0  0  0  0
    5.5312  -13.1940    0.0233 H   0  0  0  0  0  0  0  0  0  0  0  0
    6.8907  -15.2407    0.4061 H   0  0  0  0  0  0  0  0  0  0  0  0
    6.3259  -16.7631    2.3133 H   0  0  0  0  0  0  0  0  0  0  0  0
    4.3666  -16.2670    3.7427 H   0  0  0  0  0  0  0  0  0  0  0  0
    3.7968  -11.4609    4.0965 H   0  0  0  0  0  0  0  0  0  0  0  0
    4.1635  -10.5117    6.3521 H   0  0  0  0  0  0  0  0  0  0  0  0
    3.5256  -11.7905    8.3882 H   0  0  0  0  0  0  0  0  0  0  0  0
    2.5029  -14.0563    8.1785 H   0  0  0  0  0  0  0  0  0  0  0  0
    1.4909  -16.3307    7.4544 H   0  0  0  0  0  0  0  0  0  0  0  0
    0.6092  -18.3478    6.2861 H   0  0  0  0  0  0  0  0  0  0  0  0
    0.6246  -18.4709    3.8031 H   0  0  0  0  0  0  0  0  0  0  0  0
    1.5222  -16.5771    2.4513 H   0  0  0  0  0  0  0  0  0  0  0  0
   -0.1757  -14.2053    3.6123 H   0  0  0  0  0  0  0  0  0  0  0  0
   -1.7685  -13.0902    2.0803 H   0  0  0  0  0  0  0  0  0  0  0  0
   -0.9040  -11.7048    0.1809 H   0  0  0  0  0  0  0  0  0  0  0  0
    1.5471  -11.3875   -0.0924 H   0  0  0  0  0  0  0  0  0  0  0  0
    2.1750   -9.9547    1.5524 H   0  0  0  0  0  0  0  0  0  0  0  0
    3.2027   -7.7383    1.5936 H   0  0  0  0  0  0  0  0  0  0  0  0
    2.9222   -4.7475    1.5555 H   0  0  0  0  0  0  0  0  0  0  0  0
    1.4603   -2.7514    1.5117 H   0  0  0  0  0  0  0  0  0  0  0  0
  1  2  1  0
  1 55  1  0
  1 56  1  0
  1 57  1  0
  2  3  1  0
  3  4  2  0
  3 54  1  0
  4  5  1  0
  4 58  1  0
  5  6  2  0
  5 59  1  0
  6  7  1  0
  6 53  1  0
  7  8  2  0
  7 52  1  0
  8  9  1  0
  9 10  1  0
  9 18  2  0
 10 11  2  0
 10 17  1  0
 11 12  1  0
 11 60  1  0
 12 13  2  0
 12 61  1  0
 13 14  1  0
 13 16  1  0
 14 15  1  0
 15 62  1  0
 15 63  1  0
 15 64  1  0
 16 17  2  0
 16 65  1  0
 17 66  1  0
 18 19  1  0
 19 20  1  0
 19 52  2  0
 20 21  2  0
 20 51  1  0
 21 22  1  0
 21 67  1  0
 22 23  2  0
 22 68  1  0
 23 24  1  0
 23 50  1  0
 24 25  1  0
 24 49  1  0
 25 26  2  0
 25 30  1  0
 26 27  1  0
 26 69  1  0
 27 28  2  0
 27 70  1  0
 28 29  1  0
 28 71  1  0
 29 30  2  0
 29 72  1  0
 31 30  1  6
 31 32  1  0
 31 43  1  0
 31 44  1  0
 32 33  2  0
 32 37  1  0
 33 34  1  0
 33 73  1  0
 34 35  2  0
 34 74  1  0
 35 36  1  0
 35 75  1  0
 36 37  2  0
 36 76  1  0
 37 38  1  0
 38 39  2  0
 38 43  1  0
 39 40  1  0
 39 77  1  0
 40 41  2  0
 40 78  1  0
 41 42  1  0
 41 79  1  0
 42 43  2  0
 42 80  1  0
 44 45  1  0
 44 49  2  0
 45 46  2  0
 45 81  1  0
 46 47  1  0
 46 82  1  0
 47 48  2  0
 47 83  1  0
 48 49  1  0
 48 84  1  0
 50 51  2  0
 50 85  1  0
 51 86  1  0
 53 54  2  0
 53 87  1  0
 54 88  1  0
M  END

