
     RDKit          3D

 31 32  0  0  0  0  0  0  0  0999 V2000
    1.1203   -1.9855   -0.7732 C   0  0  0  0  0  0  0  0  0  0  0  0
    2.5203   -1.9812   -0.4878 O   0  0  0  0  0  0  0  0  0  0  0  0
    2.9087   -1.2300    0.5627 C   0  0  0  0  0  0  0  0  0  0  0  0
    2.1256   -0.6072    1.2397 O   0  0  0  0  0  0  0  0  0  0  0  0
    4.4019   -1.2485    0.7946 C   0  0  1  0  0  0  0  0  0  0  0  0
    4.7379   -1.1283    2.2565 C   0  0  0  0  0  0  0  0  0  0  0  0
    4.5477    0.0860    2.9383 C   0  0  0  0  0  0  0  0  0  0  0  0
    4.8364    0.1960    4.2982 C   0  0  0  0  0  0  0  0  0  0  0  0
    4.5756    1.8675    5.1826 Br  0  0  0  0  0  0  0  0  0  0  0  0
    5.3140   -0.8993    5.0241 C   0  0  0  0  0  0  0  0  0  0  0  0
    5.4926   -2.1166    4.3678 C   0  0  0  0  0  0  0  0  0  0  0  0
    5.1966   -2.2177    3.0095 C   0  0  0  0  0  0  0  0  0  0  0  0
    5.3615   -3.4145    2.4196 F   0  0  0  0  0  0  0  0  0  0  0  0
    5.3014   -2.0182   -0.1519 C   0  0  0  0  0  0  0  0  0  0  0  0
    5.2996   -0.5236   -0.2561 C   0  0  1  0  0  0  0  0  0  0  0  0
    4.6510    0.1466   -1.4563 C   0  0  0  0  0  0  0  0  0  0  0  0
    6.5135    0.2319    0.2576 C   0  0  0  0  0  0  0  0  0  0  0  0
    0.9893   -2.6355   -1.6471 H   0  0  0  0  0  0  0  0  0  0  0  0
    0.7613   -0.9688   -0.9935 H   0  0  0  0  0  0  0  0  0  0  0  0
    0.5509   -2.3760    0.0833 H   0  0  0  0  0  0  0  0  0  0  0  0
    4.1598    0.9445    2.3910 H   0  0  0  0  0  0  0  0  0  0  0  0
    5.5388   -0.8052    6.0875 H   0  0  0  0  0  0  0  0  0  0  0  0
    5.8530   -3.0007    4.8971 H   0  0  0  0  0  0  0  0  0  0  0  0
    4.8031   -2.5980   -0.9308 H   0  0  0  0  0  0  0  0  0  0  0  0
    6.1753   -2.5035    0.2876 H   0  0  0  0  0  0  0  0  0  0  0  0
    3.8058   -0.4301   -1.8529 H   0  0  0  0  0  0  0  0  0  0  0  0
    5.3916    0.2541   -2.2664 H   0  0  0  0  0  0  0  0  0  0  0  0
    4.2918    1.1574   -1.1997 H   0  0  0  0  0  0  0  0  0  0  0  0
    6.9967   -0.2734    1.1051 H   0  0  0  0  0  0  0  0  0  0  0  0
    6.2474    1.2518    0.5812 H   0  0  0  0  0  0  0  0  0  0  0  0
    7.2583    0.3233   -0.5508 H   0  0  0  0  0  0  0  0  0  0  0  0
  1  2  1  0
  1 18  1  0
  1 19  1  0
  1 20  1  0
  2  3  1  0
  3  4  2  0
  5  3  1  1
  5  6  1  0
  5 14  1  0
  5 15  1  0
  6  7  2  0
  6 12  1  0
  7  8  1  0
  7 21  1  0
  8  9  1  0
  8 10  2  0
 10 11  1  0
 10 22  1  0
 11 12  2  0
 11 23  1  0
 12 13  1  0
 14 15  1  0
 14 24  1  0
 14 25  1  0
 15 16  1  6
 15 17  1  0
 16 26  1  0
 16 27  1  0
 16 28  1  0
 17 29  1  0
 17 30  1  0
 17 31  1  0
M  END

