
     RDKit          3D

 37 38  0  0  0  0  0  0  0  0999 V2000
    1.2155    0.6479   -0.2342 C   0  0  0  0  0  0  0  0  0  0  0  0
    2.3734   -0.2595    0.2113 C   0  0  0  0  0  0  0  0  0  0  0  0
    2.9055   -1.1190   -0.9006 C   0  0  0  0  0  0  0  0  0  0  0  0
    3.9876   -0.8605   -1.7736 C   0  0  0  0  0  0  0  0  0  0  0  0
    4.0075   -1.9330   -2.6606 C   0  0  0  0  0  0  0  0  0  0  0  0
    4.9029   -2.1601   -3.8204 C   0  0  0  0  0  0  0  0  0  0  0  0
    4.2029   -1.6467   -5.4583 S   0  0  1  0  0  0  0  0  0  0  0  0
    5.2531   -1.9140   -6.4515 O   0  0  0  0  0  0  0  0  0  0  0  0
    2.8672   -2.2538   -5.5792 O   0  0  0  0  0  0  0  0  0  0  0  0
    3.9935    0.1399   -5.3269 C   0  0  0  0  0  0  0  0  0  0  0  0
    4.9973    0.9749   -5.8246 C   0  0  0  0  0  0  0  0  0  0  0  0
    4.8407    2.3588   -5.6982 C   0  0  0  0  0  0  0  0  0  0  0  0
    3.7061    2.8908   -5.0791 C   0  0  0  0  0  0  0  0  0  0  0  0
    2.7241    2.0237   -4.5995 C   0  0  0  0  0  0  0  0  0  0  0  0
    1.6423    2.5335   -3.9973 F   0  0  0  0  0  0  0  0  0  0  0  0
    2.8373    0.6418   -4.7241 C   0  0  0  0  0  0  0  0  0  0  0  0
    2.9720   -2.7492   -2.2909 N   0  0  0  0  0  0  0  0  0  0  0  0
    2.5512   -4.0290   -2.8595 C   0  0  0  0  0  0  0  0  0  0  0  0
    1.0995   -4.0149   -3.3250 C   0  0  0  0  0  0  0  0  0  0  0  0
    2.3110   -2.2678   -1.2296 N   0  0  0  0  0  0  0  0  0  0  0  0
    0.8595    1.2752    0.5989 H   0  0  0  0  0  0  0  0  0  0  0  0
    0.3677    0.0431   -0.5923 H   0  0  0  0  0  0  0  0  0  0  0  0
    1.5182    1.3151   -1.0578 H   0  0  0  0  0  0  0  0  0  0  0  0
    2.0320   -0.9138    1.0297 H   0  0  0  0  0  0  0  0  0  0  0  0
    3.1953    0.3547    0.6146 H   0  0  0  0  0  0  0  0  0  0  0  0
    4.6685   -0.0118   -1.7639 H   0  0  0  0  0  0  0  0  0  0  0  0
    5.1493   -3.2160   -4.0111 H   0  0  0  0  0  0  0  0  0  0  0  0
    5.8425   -1.6005   -3.7229 H   0  0  0  0  0  0  0  0  0  0  0  0
    5.8708    0.5389   -6.3118 H   0  0  0  0  0  0  0  0  0  0  0  0
    5.6085    3.0314   -6.0876 H   0  0  0  0  0  0  0  0  0  0  0  0
    3.5667    3.9674   -4.9638 H   0  0  0  0  0  0  0  0  0  0  0  0
    2.0467   -0.0151   -4.3614 H   0  0  0  0  0  0  0  0  0  0  0  0
    2.7067   -4.8041   -2.0905 H   0  0  0  0  0  0  0  0  0  0  0  0
    3.2142   -4.2510   -3.7052 H   0  0  0  0  0  0  0  0  0  0  0  0
    0.4339   -3.7414   -2.4940 H   0  0  0  0  0  0  0  0  0  0  0  0
    0.8166   -5.0152   -3.6885 H   0  0  0  0  0  0  0  0  0  0  0  0
    0.9708   -3.2971   -4.1476 H   0  0  0  0  0  0  0  0  0  0  0  0
  1  2  1  0
  1 21  1  0
  1 22  1  0
  1 23  1  0
  2  3  1  0
  2 24  1  0
  2 25  1  0
  3  4  1  0
  3 20  2  0
  4  5  2  0
  4 26  1  0
  5  6  1  0
  5 17  1  0
  7  6  1  1
  6 27  1  0
  6 28  1  0
  7  8  2  0
  7  9  2  0
  7 10  1  0
 10 11  2  0
 10 16  1  0
 11 12  1  0
 11 29  1  0
 12 13  2  0
 12 30  1  0
 13 14  1  0
 13 31  1  0
 14 15  1  0
 14 16  2  0
 16 32  1  0
 17 18  1  0
 17 20  1  0
 18 19  1  0
 18 33  1  0
 18 34  1  0
 19 35  1  0
 19 36  1  0
 19 37  1  0
M  END

