
     RDKit          3D

 31 32  0  0  0  0  0  0  0  0999 V2000
    1.1800    0.6045   -0.3249 C   0  0  0  0  0  0  0  0  0  0  0  0
    2.3141   -0.0898    0.1394 O   0  0  0  0  0  0  0  0  0  0  0  0
    3.0472    0.4458    1.1440 C   0  0  0  0  0  0  0  0  0  0  0  0
    2.7819    1.6620    1.7808 C   0  0  0  0  0  0  0  0  0  0  0  0
    3.6070    2.1298    2.8132 C   0  0  0  0  0  0  0  0  0  0  0  0
    4.7128    1.3872    3.2338 C   0  0  0  0  0  0  0  0  0  0  0  0
    5.6272    1.8940    4.3295 C   0  0  0  0  0  0  0  0  0  0  0  0
    4.8770    2.3138    5.4973 N   0  0  0  0  0  0  0  0  0  0  0  0
    5.4564    2.8771    6.6137 C   0  0  0  0  0  0  0  0  0  0  0  0
    6.7984    3.3124    6.6596 C   0  0  0  0  0  0  0  0  0  0  0  0
    7.2890    3.9060    7.8208 C   0  0  0  0  0  0  0  0  0  0  0  0
    6.4267    4.0389    8.9138 C   0  0  0  0  0  0  0  0  0  0  0  0
    7.0245    4.7815   10.3922 Cl  0  0  0  0  0  0  0  0  0  0  0  0
    5.1731    3.6277    8.8976 N   0  0  0  0  0  0  0  0  0  0  0  0
    4.6965    3.0666    7.7926 C   0  0  0  0  0  0  0  0  0  0  0  0
    4.9754    0.1619    2.5968 C   0  0  0  0  0  0  0  0  0  0  0  0
    4.1685   -0.3148    1.5639 C   0  0  0  0  0  0  0  0  0  0  0  0
    4.3917   -1.4915    0.9280 O   0  0  0  0  0  0  0  0  0  0  0  0
    0.7444   -0.0084   -1.1253 H   0  0  0  0  0  0  0  0  0  0  0  0
    1.4434    1.5959   -0.7370 H   0  0  0  0  0  0  0  0  0  0  0  0
    0.4257    0.7413    0.4716 H   0  0  0  0  0  0  0  0  0  0  0  0
    1.9259    2.2630    1.4729 H   0  0  0  0  0  0  0  0  0  0  0  0
    3.3805    3.0860    3.2903 H   0  0  0  0  0  0  0  0  0  0  0  0
    6.2042    2.7594    3.9527 H   0  0  0  0  0  0  0  0  0  0  0  0
    6.3752    1.1128    4.5775 H   0  0  0  0  0  0  0  0  0  0  0  0
    4.0019    1.8246    5.6483 H   0  0  0  0  0  0  0  0  0  0  0  0
    7.4583    3.1907    5.7995 H   0  0  0  0  0  0  0  0  0  0  0  0
    8.3210    4.2536    7.8833 H   0  0  0  0  0  0  0  0  0  0  0  0
    3.6484    2.7401    7.8169 H   0  0  0  0  0  0  0  0  0  0  0  0
    5.8324   -0.4425    2.9140 H   0  0  0  0  0  0  0  0  0  0  0  0
    5.1787   -1.9088    1.3019 H   0  0  0  0  0  0  0  0  0  0  0  0
  1  2  1  0
  1 19  1  0
  1 20  1  0
  1 21  1  0
  2  3  1  0
  3  4  2  0
  3 17  1  0
  4  5  1  0
  4 22  1  0
  5  6  2  0
  5 23  1  0
  6  7  1  0
  6 16  1  0
  7  8  1  0
  7 24  1  0
  7 25  1  0
  8  9  1  0
  8 26  1  0
  9 10  2  0
  9 15  1  0
 10 11  1  0
 10 27  1  0
 11 12  2  0
 11 28  1  0
 12 13  1  0
 12 14  1  0
 14 15  2  0
 15 29  1  0
 16 17  2  0
 16 30  1  0
 17 18  1  0
 18 31  1  0
M  END

