
     RDKit          3D

 22 22  0  0  0  0  0  0  0  0999 V2000
    0.9312    0.3807    0.0021 C   0  0  0  0  0  0  0  0  0  0  0  0
    2.3897    0.0552    0.0718 C   0  0  0  0  0  0  0  0  0  0  0  0
    3.3290    1.0187    0.1662 N   0  0  0  0  0  0  0  0  0  0  0  0
    3.1657    2.0173    0.2011 H   0  0  0  0  0  0  0  0  0  0  0  0
    4.6073    0.5603    0.2015 N   0  0  0  0  0  0  0  0  0  0  0  0
    4.4778   -0.7628    0.1289 C   0  0  0  0  0  0  0  0  0  0  0  0
    5.5564   -1.5999    0.1522 N   0  0  0  0  0  0  0  0  0  0  0  0
    6.8547   -1.1066   -0.0000 N   0  0  0  0  0  0  0  0  0  0  0  0
    3.0939   -1.1576    0.0474 C   0  0  0  0  0  0  0  0  0  0  0  0
    2.6596   -2.5521   -0.1013 C   0  0  0  0  0  0  0  0  0  0  0  0
    3.4554   -3.4682   -0.3102 O   0  0  0  0  0  0  0  0  0  0  0  0
    1.3098   -2.8143   -0.0090 N   0  0  0  0  0  0  0  0  0  0  0  0
    0.8283   -4.1274   -0.0388 N   0  0  0  0  0  0  0  0  0  0  0  0
    0.7748    1.4521   -0.1958 H   0  0  0  0  0  0  0  0  0  0  0  0
    0.4102    0.1443    0.9466 H   0  0  0  0  0  0  0  0  0  0  0  0
    0.4376   -0.1853   -0.8027 H   0  0  0  0  0  0  0  0  0  0  0  0
    5.3809   -2.5561   -0.1432 H   0  0  0  0  0  0  0  0  0  0  0  0
    7.1103   -0.6022    0.8517 H   0  0  0  0  0  0  0  0  0  0  0  0
    6.8636   -0.3994   -0.7428 H   0  0  0  0  0  0  0  0  0  0  0  0
    0.6915   -2.1481    0.4363 H   0  0  0  0  0  0  0  0  0  0  0  0
    1.4706   -4.7122    0.5041 H   0  0  0  0  0  0  0  0  0  0  0  0
    0.9123   -4.4733   -0.9975 H   0  0  0  0  0  0  0  0  0  0  0  0
  1  2  1  0
  1 14  1  0
  1 15  1  0
  1 16  1  0
  2  3  1  0
  2  9  2  0
  3  4  1  0
  3  5  1  0
  5  6  2  0
  6  7  1  0
  6  9  1  0
  7  8  1  0
  7 17  1  0
  8 18  1  0
  8 19  1  0
  9 10  1  0
 10 11  2  0
 10 12  1  0
 12 13  1  0
 12 20  1  0
 13 21  1  0
 13 22  1  0
M  END

