
     RDKit          3D

 45 47  0  0  0  0  0  0  0  0999 V2000
    1.8784   -0.0929   -4.8083 C   0  0  0  0  0  0  0  0  0  0  0  0
    2.0358   -1.5419   -4.3463 C   0  0  0  0  0  0  0  0  0  0  0  0
    2.8218   -1.6751   -3.1156 N   0  0  0  0  0  0  0  0  0  0  0  0
    2.0893   -1.7019   -1.8528 C   0  0  0  0  0  0  0  0  0  0  0  0
    1.5543   -3.0847   -1.4679 C   0  0  0  0  0  0  0  0  0  0  0  0
    4.1871   -1.7841   -3.2451 C   0  0  0  0  0  0  0  0  0  0  0  0
    4.7247   -1.7741   -4.3412 O   0  0  0  0  0  0  0  0  0  0  0  0
    5.0028   -1.9309   -1.9469 C   0  0  0  0  0  0  0  0  0  0  0  0
    6.4964   -1.9950   -2.1578 C   0  0  0  0  0  0  0  0  0  0  0  0
    7.3442   -1.0520   -1.5632 C   0  0  0  0  0  0  0  0  0  0  0  0
    8.7306   -1.1169   -1.7155 C   0  0  0  0  0  0  0  0  0  0  0  0
    9.2969   -2.1361   -2.4909 C   0  0  0  0  0  0  0  0  0  0  0  0
   10.7114   -2.2106   -2.6605 N   0  0  0  0  0  0  0  0  0  0  0  0
   11.5545   -1.0868   -2.8558 C   0  0  0  0  0  0  0  0  0  0  0  0
   11.2041    0.0671   -2.8949 O   0  0  0  0  0  0  0  0  0  0  0  0
   12.9373   -1.6340   -2.9936 C   0  0  0  0  0  0  0  0  0  0  0  0
   14.1419   -0.9724   -3.2044 C   0  0  0  0  0  0  0  0  0  0  0  0
   15.3018   -1.7568   -3.2912 C   0  0  0  0  0  0  0  0  0  0  0  0
   15.2422   -3.1535   -3.1684 C   0  0  0  0  0  0  0  0  0  0  0  0
   14.0207   -3.8099   -2.9558 C   0  0  0  0  0  0  0  0  0  0  0  0
   12.8780   -3.0224   -2.8726 C   0  0  0  0  0  0  0  0  0  0  0  0
   11.4542   -3.4187   -2.6574 C   0  0  0  0  0  0  0  0  0  0  0  0
   11.0055   -4.5290   -2.5089 O   0  0  0  0  0  0  0  0  0  0  0  0
    8.4612   -3.0829   -3.1034 C   0  0  0  0  0  0  0  0  0  0  0  0
    7.0811   -3.0103   -2.9304 C   0  0  0  0  0  0  0  0  0  0  0  0
    1.2588   -0.0440   -5.7185 H   0  0  0  0  0  0  0  0  0  0  0  0
    2.8623    0.3408   -5.0413 H   0  0  0  0  0  0  0  0  0  0  0  0
    1.3952    0.5308   -4.0382 H   0  0  0  0  0  0  0  0  0  0  0  0
    2.5381   -2.1254   -5.1302 H   0  0  0  0  0  0  0  0  0  0  0  0
    1.0488   -1.9998   -4.1699 H   0  0  0  0  0  0  0  0  0  0  0  0
    1.2494   -0.9913   -1.9364 H   0  0  0  0  0  0  0  0  0  0  0  0
    2.7246   -1.3105   -1.0467 H   0  0  0  0  0  0  0  0  0  0  0  0
    0.8898   -3.4893   -2.2477 H   0  0  0  0  0  0  0  0  0  0  0  0
    0.9775   -3.0283   -0.5305 H   0  0  0  0  0  0  0  0  0  0  0  0
    2.3743   -3.8049   -1.3202 H   0  0  0  0  0  0  0  0  0  0  0  0
    4.6573   -2.8400   -1.4232 H   0  0  0  0  0  0  0  0  0  0  0  0
    4.7663   -1.0914   -1.2740 H   0  0  0  0  0  0  0  0  0  0  0  0
    6.9172   -0.2456   -0.9600 H   0  0  0  0  0  0  0  0  0  0  0  0
    9.3670   -0.3687   -1.2452 H   0  0  0  0  0  0  0  0  0  0  0  0
   14.1741    0.1152   -3.2976 H   0  0  0  0  0  0  0  0  0  0  0  0
   16.2685   -1.2748   -3.4569 H   0  0  0  0  0  0  0  0  0  0  0  0
   16.1635   -3.7369   -3.2404 H   0  0  0  0  0  0  0  0  0  0  0  0
   13.9601   -4.8961   -2.8592 H   0  0  0  0  0  0  0  0  0  0  0  0
    8.8924   -3.8807   -3.7065 H   0  0  0  0  0  0  0  0  0  0  0  0
    6.4457   -3.7490   -3.4226 H   0  0  0  0  0  0  0  0  0  0  0  0
  1  2  1  0
  1 26  1  0
  1 27  1  0
  1 28  1  0
  2  3  1  0
  2 29  1  0
  2 30  1  0
  3  4  1  0
  3  6  1  0
  4  5  1  0
  4 31  1  0
  4 32  1  0
  5 33  1  0
  5 34  1  0
  5 35  1  0
  6  7  2  0
  6  8  1  0
  8  9  1  0
  8 36  1  0
  8 37  1  0
  9 10  2  0
  9 25  1  0
 10 11  1  0
 10 38  1  0
 11 12  2  0
 11 39  1  0
 12 13  1  0
 12 24  1  0
 13 14  1  0
 13 22  1  0
 14 15  2  0
 14 16  1  0
 16 17  1  0
 16 21  2  0
 17 18  2  0
 17 40  1  0
 18 19  1  0
 18 41  1  0
 19 20  2  0
 19 42  1  0
 20 21  1  0
 20 43  1  0
 21 22  1  0
 22 23  2  0
 24 25  2  0
 24 44  1  0
 25 45  1  0
M  END

