
     RDKit          3D

 87 89  0  0  0  0  0  0  0  0999 V2000
   -3.0315   -5.0100    4.5448 O   0  0  0  0  0  0  0  0  0  0  0  0
   -2.9887   -4.8540    5.7428 C   0  0  0  0  0  0  0  0  0  0  0  0
   -4.1302   -4.8505    6.4524 O   0  0  0  0  0  0  0  0  0  0  0  0
   -1.7190   -4.6200    6.5396 C   0  0  0  0  0  0  0  0  0  0  0  0
   -0.4191   -4.9321    5.7727 C   0  0  0  0  0  0  0  0  0  0  0  0
    0.5053   -3.7627    5.3715 C   0  0  2  0  0  0  0  0  0  0  0  0
    1.3254   -4.2328    4.8030 H   0  0  0  0  0  0  0  0  0  0  0  0
    1.1722   -3.1029    6.4986 N   0  0  0  0  0  0  0  0  0  0  0  0
    0.5941   -2.0969    7.2269 C   0  0  0  0  0  0  0  0  0  0  0  0
   -0.6113   -1.8887    7.2242 O   0  0  0  0  0  0  0  0  0  0  0  0
    1.5465   -1.2554    8.0650 C   0  0  0  0  0  0  0  0  0  0  0  0
    2.3485   -0.1779    7.2962 C   0  0  2  0  0  0  0  0  0  0  0  0
    3.0543   -0.6826    6.6093 H   0  0  0  0  0  0  0  0  0  0  0  0
    3.0598    0.6213    8.2343 O   0  0  0  0  0  0  0  0  0  0  0  0
    1.4975    0.7757    6.4427 C   0  0  2  0  0  0  0  0  0  0  0  0
    1.0008    0.1834    5.6601 H   0  0  0  0  0  0  0  0  0  0  0  0
    2.3290    1.8994    5.7849 C   0  0  0  0  0  0  0  0  0  0  0  0
    3.5441    1.4826    4.9326 C   0  0  1  0  0  0  0  0  0  0  0  0
    3.2085    0.5220    3.7701 C   0  0  0  0  0  0  0  0  0  0  0  0
    2.4242    1.2073    2.6419 C   0  0  0  0  0  0  0  0  0  0  0  0
    3.1642    2.4423    2.1104 C   0  0  0  0  0  0  0  0  0  0  0  0
    3.5147    3.4213    3.2394 C   0  0  0  0  0  0  0  0  0  0  0  0
    4.2786    2.7243    4.3759 C   0  0  0  0  0  0  0  0  0  0  0  0
    0.4335    1.3491    7.2559 N   0  0  0  0  0  0  0  0  0  0  0  0
   -0.8236    1.5844    6.7721 C   0  0  0  0  0  0  0  0  0  0  0  0
   -1.1309    1.3438    5.6112 O   0  0  0  0  0  0  0  0  0  0  0  0
   -1.8172    2.1223    7.8047 C   0  0  1  0  0  0  0  0  0  0  0  0
   -2.5823    3.3674    7.3022 C   0  0  0  0  0  0  0  0  0  0  0  0
   -3.6578    3.0506    6.2535 C   0  0  0  0  0  0  0  0  0  0  0  0
   -4.6210    1.9633    6.7467 C   0  0  0  0  0  0  0  0  0  0  0  0
   -3.8637    0.6979    7.1691 C   0  0  0  0  0  0  0  0  0  0  0  0
   -2.8027    1.0047    8.2342 C   0  0  0  0  0  0  0  0  0  0  0  0
   -0.0194   -2.6763    4.3886 C   0  0  0  0  0  0  0  0  0  0  0  0
    0.6509   -1.6634    4.2275 O   0  0  0  0  0  0  0  0  0  0  0  0
   -1.1538   -2.9294    3.7069 N   0  0  0  0  0  0  0  0  0  0  0  0
   -1.7049   -1.9483    2.7800 C   0  0  0  0  0  0  0  0  0  0  0  0
   -1.0722   -2.0138    1.3755 C   0  0  0  0  0  0  0  0  0  0  0  0
   -1.6673   -0.9993    0.4250 C   0  0  0  0  0  0  0  0  0  0  0  0
   -1.2750    0.3491    0.4821 C   0  0  0  0  0  0  0  0  0  0  0  0
   -1.8461    1.2987   -0.3688 C   0  0  0  0  0  0  0  0  0  0  0  0
   -2.8227    0.9176   -1.2947 C   0  0  0  0  0  0  0  0  0  0  0  0
   -3.2232   -0.4197   -1.3616 C   0  0  0  0  0  0  0  0  0  0  0  0
   -2.6504   -1.3668   -0.5072 C   0  0  0  0  0  0  0  0  0  0  0  0
   -3.9468   -4.6893    7.3895 H   0  0  0  0  0  0  0  0  0  0  0  0
   -1.7784   -5.2233    7.4617 H   0  0  0  0  0  0  0  0  0  0  0  0
   -1.7229   -3.5629    6.8625 H   0  0  0  0  0  0  0  0  0  0  0  0
   -0.6713   -5.4928    4.8583 H   0  0  0  0  0  0  0  0  0  0  0  0
    0.1983   -5.6112    6.3803 H   0  0  0  0  0  0  0  0  0  0  0  0
    2.1843   -3.0963    6.4619 H   0  0  0  0  0  0  0  0  0  0  0  0
    2.2684   -1.9172    8.5774 H   0  0  0  0  0  0  0  0  0  0  0  0
    0.9401   -0.7597    8.8330 H   0  0  0  0  0  0  0  0  0  0  0  0
    3.6525    0.0573    8.7470 H   0  0  0  0  0  0  0  0  0  0  0  0
    2.6873    2.5672    6.5857 H   0  0  0  0  0  0  0  0  0  0  0  0
    1.6186    2.4860    5.1820 H   0  0  0  0  0  0  0  0  0  0  0  0
    4.2524    0.9696    5.6076 H   0  0  0  0  0  0  0  0  0  0  0  0
    2.6480   -0.3569    4.1214 H   0  0  0  0  0  0  0  0  0  0  0  0
    4.1619    0.1429    3.3558 H   0  0  0  0  0  0  0  0  0  0  0  0
    1.4243    1.4975    3.0101 H   0  0  0  0  0  0  0  0  0  0  0  0
    2.2471    0.4876    1.8250 H   0  0  0  0  0  0  0  0  0  0  0  0
    2.5648    2.9502    1.3355 H   0  0  0  0  0  0  0  0  0  0  0  0
    4.0982    2.1163    1.6143 H   0  0  0  0  0  0  0  0  0  0  0  0
    2.5859    3.8715    3.6325 H   0  0  0  0  0  0  0  0  0  0  0  0
    4.1146    4.2601    2.8465 H   0  0  0  0  0  0  0  0  0  0  0  0
    4.4843    3.4387    5.1919 H   0  0  0  0  0  0  0  0  0  0  0  0
    5.2640    2.4024    3.9915 H   0  0  0  0  0  0  0  0  0  0  0  0
    0.6866    1.7001    8.1720 H   0  0  0  0  0  0  0  0  0  0  0  0
   -1.2402    2.4182    8.6982 H   0  0  0  0  0  0  0  0  0  0  0  0
   -1.8693    4.1117    6.9083 H   0  0  0  0  0  0  0  0  0  0  0  0
   -3.0638    3.8351    8.1811 H   0  0  0  0  0  0  0  0  0  0  0  0
   -3.1667    2.7090    5.3297 H   0  0  0  0  0  0  0  0  0  0  0  0
   -4.2138    3.9723    6.0092 H   0  0  0  0  0  0  0  0  0  0  0  0
   -5.3571    1.7230    5.9608 H   0  0  0  0  0  0  0  0  0  0  0  0
   -5.2011    2.3473    7.6083 H   0  0  0  0  0  0  0  0  0  0  0  0
   -3.3713    0.2546    6.2890 H   0  0  0  0  0  0  0  0  0  0  0  0
   -4.5674   -0.0575    7.5602 H   0  0  0  0  0  0  0  0  0  0  0  0
   -2.2384    0.0912    8.4828 H   0  0  0  0  0  0  0  0  0  0  0  0
   -3.3047    1.3397    9.1609 H   0  0  0  0  0  0  0  0  0  0  0  0
   -1.6911   -3.7810    3.8707 H   0  0  0  0  0  0  0  0  0  0  0  0
   -1.5515   -0.9465    3.2095 H   0  0  0  0  0  0  0  0  0  0  0  0
   -2.7891   -2.1256    2.7133 H   0  0  0  0  0  0  0  0  0  0  0  0
   -1.2023   -3.0311    0.9708 H   0  0  0  0  0  0  0  0  0  0  0  0
    0.0101   -1.8397    1.4846 H   0  0  0  0  0  0  0  0  0  0  0  0
   -0.5106    0.6556    1.2019 H   0  0  0  0  0  0  0  0  0  0  0  0
   -1.5252    2.3422   -0.3095 H   0  0  0  0  0  0  0  0  0  0  0  0
   -3.2681    1.6599   -1.9622 H   0  0  0  0  0  0  0  0  0  0  0  0
   -3.9841   -0.7288   -2.0834 H   0  0  0  0  0  0  0  0  0  0  0  0
   -2.9679   -2.4123   -0.5684 H   0  0  0  0  0  0  0  0  0  0  0  0
  1  2  2  0
  2  3  1  0
  2  4  1  0
  3 44  1  0
  4  5  1  0
  4 45  1  0
  4 46  1  0
  5  6  1  0
  5 47  1  0
  5 48  1  0
  6  7  1  6
  6  8  1  0
  6 33  1  0
  8  9  1  0
  8 49  1  0
  9 10  2  0
  9 11  1  0
 11 12  1  0
 11 50  1  0
 11 51  1  0
 12 13  1  6
 12 14  1  0
 12 15  1  0
 14 52  1  0
 15 16  1  6
 15 17  1  0
 15 24  1  0
 17 18  1  0
 17 53  1  0
 17 54  1  0
 18 19  1  0
 18 23  1  0
 18 55  1  1
 19 20  1  0
 19 56  1  0
 19 57  1  0
 20 21  1  0
 20 58  1  0
 20 59  1  0
 21 22  1  0
 21 60  1  0
 21 61  1  0
 22 23  1  0
 22 62  1  0
 22 63  1  0
 23 64  1  0
 23 65  1  0
 24 25  1  0
 24 66  1  0
 25 26  2  0
 25 27  1  0
 27 28  1  0
 27 32  1  0
 27 67  1  1
 28 29  1  0
 28 68  1  0
 28 69  1  0
 29 30  1  0
 29 70  1  0
 29 71  1  0
 30 31  1  0
 30 72  1  0
 30 73  1  0
 31 32  1  0
 31 74  1  0
 31 75  1  0
 32 76  1  0
 32 77  1  0
 33 34  2  0
 33 35  1  0
 35 36  1  0
 35 78  1  0
 36 37  1  0
 36 79  1  0
 36 80  1  0
 37 38  1  0
 37 81  1  0
 37 82  1  0
 38 39  2  0
 38 43  1  0
 39 40  1  0
 39 83  1  0
 40 41  2  0
 40 84  1  0
 41 42  1  0
 41 85  1  0
 42 43  2  0
 42 86  1  0
 43 87  1  0
M  END

