
     RDKit          3D

 38 39  0  0  0  0  0  0  0  0999 V2000
   -0.2417    2.8278   -2.4406 C   0  0  0  0  0  0  0  0  0  0  0  0
   -0.3271    1.7472   -1.4146 C   0  0  0  0  0  0  0  0  0  0  0  0
   -1.1160    0.7364   -1.5511 N   0  0  0  0  0  0  0  0  0  0  0  0
   -0.9525   -0.0843   -0.4524 N   0  0  0  0  0  0  0  0  0  0  0  0
   -0.0761    0.3926    0.4950 C   0  0  0  0  0  0  0  0  0  0  0  0
    0.1499   -0.0713    1.5913 O   0  0  0  0  0  0  0  0  0  0  0  0
    0.5075    1.6541   -0.1571 C   0  0  2  0  0  0  0  0  0  0  0  0
    1.5562    1.4279   -0.4326 H   0  0  0  0  0  0  0  0  0  0  0  0
    0.5378    2.8523    0.7955 C   0  0  0  0  0  0  0  0  0  0  0  0
    1.7121    2.7370    1.7571 C   0  0  0  0  0  0  0  0  0  0  0  0
    2.7859    2.2681    1.4394 O   0  0  0  0  0  0  0  0  0  0  0  0
    1.5461    3.2413    3.0384 N   0  0  0  0  0  0  0  0  0  0  0  0
    0.4101    3.7976    3.4814 N   0  0  0  0  0  0  0  0  0  0  0  0
    0.3347    4.2324    4.6968 C   0  0  0  0  0  0  0  0  0  0  0  0
    1.4823    4.1295    5.6750 C   0  0  0  0  0  0  0  0  0  0  0  0
   -0.9520    4.8580    5.0960 C   0  0  0  0  0  0  0  0  0  0  0  0
   -2.1169    4.6436    4.3270 C   0  0  0  0  0  0  0  0  0  0  0  0
   -3.3264    5.2327    4.6740 C   0  0  0  0  0  0  0  0  0  0  0  0
   -3.3801    6.0539    5.8039 C   0  0  0  0  0  0  0  0  0  0  0  0
   -4.6613    6.6827    6.1788 N   0  0  0  0  0  0  0  0  0  0  0  0
   -5.6292    6.4562    5.4700 O   0  0  0  0  0  0  0  0  0  0  0  0
   -4.6733    7.3908    7.1734 O   0  0  0  0  0  0  0  0  0  0  0  0
   -2.2518    6.2919    6.5861 C   0  0  0  0  0  0  0  0  0  0  0  0
   -1.0458    5.6902    6.2293 C   0  0  0  0  0  0  0  0  0  0  0  0
   -0.9210    2.6044   -3.2747 H   0  0  0  0  0  0  0  0  0  0  0  0
    0.7857    2.9227   -2.8321 H   0  0  0  0  0  0  0  0  0  0  0  0
   -0.5163    3.8092   -2.0171 H   0  0  0  0  0  0  0  0  0  0  0  0
   -1.5546   -0.8921   -0.3434 H   0  0  0  0  0  0  0  0  0  0  0  0
    0.6987    3.7838    0.2247 H   0  0  0  0  0  0  0  0  0  0  0  0
   -0.4066    2.9718    1.3402 H   0  0  0  0  0  0  0  0  0  0  0  0
    2.3722    3.1440    3.6321 H   0  0  0  0  0  0  0  0  0  0  0  0
    1.9343    3.1239    5.6408 H   0  0  0  0  0  0  0  0  0  0  0  0
    1.1607    4.2959    6.7092 H   0  0  0  0  0  0  0  0  0  0  0  0
    2.2793    4.8596    5.4471 H   0  0  0  0  0  0  0  0  0  0  0  0
   -2.0566    3.9951    3.4532 H   0  0  0  0  0  0  0  0  0  0  0  0
   -4.2329    5.0669    4.0925 H   0  0  0  0  0  0  0  0  0  0  0  0
   -2.3322    6.9428    7.4561 H   0  0  0  0  0  0  0  0  0  0  0  0
   -0.1652    5.8935    6.8400 H   0  0  0  0  0  0  0  0  0  0  0  0
  1  2  1  0
  1 25  1  0
  1 26  1  0
  1 27  1  0
  2  3  2  0
  2  7  1  0
  3  4  1  0
  4  5  1  0
  4 28  1  0
  5  6  2  0
  5  7  1  0
  7  8  1  6
  7  9  1  0
  9 10  1  0
  9 29  1  0
  9 30  1  0
 10 11  2  0
 10 12  1  0
 12 13  1  0
 12 31  1  0
 13 14  2  0
 14 15  1  0
 14 16  1  0
 15 32  1  0
 15 33  1  0
 15 34  1  0
 16 17  2  0
 16 24  1  0
 17 18  1  0
 17 35  1  0
 18 19  2  0
 18 36  1  0
 19 20  1  0
 19 23  1  0
 20 21  2  0
 20 22  1  0
 23 24  2  0
 23 37  1  0
 24 38  1  0
M  CHG  2  20   1  22  -1
M  END

