
     RDKit          3D

 46 46  0  0  0  0  0  0  0  0999 V2000
    5.7242    4.8105    2.0493 C   0  0  0  0  0  0  0  0  0  0  0  0
    4.9932    3.8047    2.9205 C   0  0  0  0  0  0  0  0  0  0  0  0
    4.8124    2.6116    2.1873 O   0  0  0  0  0  0  0  0  0  0  0  0
    4.1093    1.5654    2.8597 C   0  0  1  0  0  0  0  0  0  0  0  0
    2.5996    1.7194    2.6307 C   0  0  0  0  0  0  0  0  0  0  0  0
    2.2847    1.6311    1.2113 N   0  0  0  0  0  0  0  0  0  0  0  0
    4.6584    0.2333    2.3460 C   0  0  0  0  0  0  0  0  0  0  0  0
    6.1558    0.0398    2.5916 C   0  0  0  0  0  0  0  0  0  0  0  0
    6.5480    0.0465    4.0009 N   0  0  0  0  0  0  0  0  0  0  0  0
    5.9623   -1.0129    4.8260 C   0  0  0  0  0  0  0  0  0  0  0  0
    6.2764   -2.4624    4.4239 C   0  0  0  0  0  0  0  0  0  0  0  0
    7.9780    0.2196    4.2034 C   0  0  0  0  0  0  0  0  0  0  0  0
    8.3605    0.8274    5.5442 C   0  0  0  0  0  0  0  0  0  0  0  0
    7.5259    1.7421    6.2059 C   0  0  0  0  0  0  0  0  0  0  0  0
    7.9708    2.3004    7.4024 C   0  0  0  0  0  0  0  0  0  0  0  0
    9.2245    1.9358    7.8987 C   0  0  0  0  0  0  0  0  0  0  0  0
    9.9955    1.0140    7.1748 C   0  0  0  0  0  0  0  0  0  0  0  0
   11.3564    0.5683    7.6479 C   0  0  0  0  0  0  0  0  0  0  0  0
    9.5570    0.4773    6.0267 N   0  0  0  0  0  0  0  0  0  0  0  0
    5.8922    5.7497    2.5995 H   0  0  0  0  0  0  0  0  0  0  0  0
    5.1409    5.0381    1.1433 H   0  0  0  0  0  0  0  0  0  0  0  0
    6.7011    4.4126    1.7336 H   0  0  0  0  0  0  0  0  0  0  0  0
    4.0189    4.2236    3.2459 H   0  0  0  0  0  0  0  0  0  0  0  0
    5.5745    3.5987    3.8425 H   0  0  0  0  0  0  0  0  0  0  0  0
    4.3086    1.6369    3.9457 H   0  0  0  0  0  0  0  0  0  0  0  0
    2.2732    2.6680    3.1120 H   0  0  0  0  0  0  0  0  0  0  0  0
    2.0792    0.9096    3.1724 H   0  0  0  0  0  0  0  0  0  0  0  0
    2.8193    2.3439    0.7128 H   0  0  0  0  0  0  0  0  0  0  0  0
    1.2990    1.8280    1.0443 H   0  0  0  0  0  0  0  0  0  0  0  0
    4.4679    0.1754    1.2637 H   0  0  0  0  0  0  0  0  0  0  0  0
    4.0703   -0.5844    2.7951 H   0  0  0  0  0  0  0  0  0  0  0  0
    6.6806    0.8750    2.1035 H   0  0  0  0  0  0  0  0  0  0  0  0
    6.4840   -0.8841    2.0658 H   0  0  0  0  0  0  0  0  0  0  0  0
    4.8680   -0.8763    4.8476 H   0  0  0  0  0  0  0  0  0  0  0  0
    6.2993   -0.8461    5.8622 H   0  0  0  0  0  0  0  0  0  0  0  0
    5.8716   -2.7155    3.4312 H   0  0  0  0  0  0  0  0  0  0  0  0
    5.8264   -3.1589    5.1497 H   0  0  0  0  0  0  0  0  0  0  0  0
    7.3599   -2.6604    4.4058 H   0  0  0  0  0  0  0  0  0  0  0  0
    8.3480    0.9018    3.4178 H   0  0  0  0  0  0  0  0  0  0  0  0
    8.5724   -0.7105    4.0897 H   0  0  0  0  0  0  0  0  0  0  0  0
    6.5544    1.9887    5.7754 H   0  0  0  0  0  0  0  0  0  0  0  0
    7.3479    3.0156    7.9471 H   0  0  0  0  0  0  0  0  0  0  0  0
    9.6010    2.3548    8.8348 H   0  0  0  0  0  0  0  0  0  0  0  0
   11.6466    1.0530    8.5912 H   0  0  0  0  0  0  0  0  0  0  0  0
   12.1177    0.7951    6.8842 H   0  0  0  0  0  0  0  0  0  0  0  0
   11.3702   -0.5241    7.7925 H   0  0  0  0  0  0  0  0  0  0  0  0
  1  2  1  0
  1 20  1  0
  1 21  1  0
  1 22  1  0
  2  3  1  0
  2 23  1  0
  2 24  1  0
  3  4  1  0
  4  5  1  0
  4  7  1  0
  4 25  1  1
  5  6  1  0
  5 26  1  0
  5 27  1  0
  6 28  1  0
  6 29  1  0
  7  8  1  0
  7 30  1  0
  7 31  1  0
  8  9  1  0
  8 32  1  0
  8 33  1  0
  9 10  1  0
  9 12  1  0
 10 11  1  0
 10 34  1  0
 10 35  1  0
 11 36  1  0
 11 37  1  0
 11 38  1  0
 12 13  1  0
 12 39  1  0
 12 40  1  0
 13 14  2  0
 13 19  1  0
 14 15  1  0
 14 41  1  0
 15 16  2  0
 15 42  1  0
 16 17  1  0
 16 43  1  0
 17 18  1  0
 17 19  2  0
 18 44  1  0
 18 45  1  0
 18 46  1  0
M  END

