
     RDKit          3D

 26 27  0  0  0  0  0  0  0  0999 V2000
    2.5101   -2.4385    2.7261 O   0  0  0  0  0  0  0  0  0  0  0  0
    3.0234   -1.3901    2.4293 C   0  0  0  0  0  0  0  0  0  0  0  0
    3.1342   -0.8525    1.0128 C   0  0  0  0  0  0  0  0  0  0  0  0
    4.5841   -0.6385    0.6213 C   0  0  0  0  0  0  0  0  0  0  0  0
    5.1248    0.6504    0.5077 C   0  0  0  0  0  0  0  0  0  0  0  0
    6.4735    0.8074    0.1701 C   0  0  0  0  0  0  0  0  0  0  0  0
    7.2931   -0.2968   -0.0504 C   0  0  0  0  0  0  0  0  0  0  0  0
    6.7663   -1.6024    0.0703 C   0  0  0  0  0  0  0  0  0  0  0  0
    7.5688   -2.7054   -0.1185 N   0  0  0  0  0  0  0  0  0  0  0  0
    8.8461   -2.7989   -0.8181 C   0  0  0  0  0  0  0  0  0  0  0  0
    8.6079   -4.3206   -0.9392 C   0  0  2  0  0  0  0  0  0  0  0  0
    8.6717   -4.8129   -2.2166 F   0  0  0  0  0  0  0  0  0  0  0  0
    7.1778   -4.0820   -0.4061 C   0  0  0  0  0  0  0  0  0  0  0  0
    5.4048   -1.7536    0.4060 C   0  0  0  0  0  0  0  0  0  0  0  0
    3.4848   -0.7282    3.2104 H   0  0  0  0  0  0  0  0  0  0  0  0
    2.5928    0.1086    0.9742 H   0  0  0  0  0  0  0  0  0  0  0  0
    2.6277   -1.5647    0.3430 H   0  0  0  0  0  0  0  0  0  0  0  0
    4.4928    1.5268    0.6708 H   0  0  0  0  0  0  0  0  0  0  0  0
    6.8937    1.8121    0.0723 H   0  0  0  0  0  0  0  0  0  0  0  0
    8.3436   -0.1553   -0.3130 H   0  0  0  0  0  0  0  0  0  0  0  0
    9.7288   -2.4724   -0.2411 H   0  0  0  0  0  0  0  0  0  0  0  0
    8.8602   -2.3104   -1.8118 H   0  0  0  0  0  0  0  0  0  0  0  0
    9.2464   -4.9431   -0.2930 H   0  0  0  0  0  0  0  0  0  0  0  0
    6.8595   -4.6774    0.4670 H   0  0  0  0  0  0  0  0  0  0  0  0
    6.4231   -4.1838   -1.2100 H   0  0  0  0  0  0  0  0  0  0  0  0
    4.9820   -2.7568    0.5030 H   0  0  0  0  0  0  0  0  0  0  0  0
  1  2  2  0
  2  3  1  0
  2 15  1  0
  3  4  1  0
  3 16  1  0
  3 17  1  0
  4  5  2  0
  4 14  1  0
  5  6  1  0
  5 18  1  0
  6  7  2  0
  6 19  1  0
  7  8  1  0
  7 20  1  0
  8  9  1  0
  8 14  2  0
  9 10  1  0
  9 13  1  0
 10 11  1  0
 10 21  1  0
 10 22  1  0
 11 12  1  0
 11 13  1  0
 11 23  1  1
 13 24  1  0
 13 25  1  0
 14 26  1  0
M  END

