
     RDKit          3D

 33 34  0  0  0  0  0  0  0  0999 V2000
    1.0046    0.1733   -0.1906 C   0  0  0  0  0  0  0  0  0  0  0  0
    2.5141    0.0149    0.0397 C   0  0  1  0  0  0  0  0  0  0  0  0
    3.2052    0.9647   -0.7691 O   0  0  0  0  0  0  0  0  0  0  0  0
    2.9167    0.3087    1.5263 C   0  0  0  0  0  0  0  0  0  0  0  0
    2.3533   -0.5746    2.6163 C   0  0  0  0  0  0  0  0  0  0  0  0
    3.0705   -1.6935    3.0763 C   0  0  0  0  0  0  0  0  0  0  0  0
    2.5406   -2.5045    4.0810 C   0  0  0  0  0  0  0  0  0  0  0  0
    1.2946   -2.2204    4.6456 C   0  0  0  0  0  0  0  0  0  0  0  0
    0.5750   -1.1032    4.2004 C   0  0  0  0  0  0  0  0  0  0  0  0
   -0.6368   -0.7592    4.7106 O   0  0  0  0  0  0  0  0  0  0  0  0
    1.1086   -0.2874    3.1927 C   0  0  0  0  0  0  0  0  0  0  0  0
    3.0139   -1.3626   -0.4032 C   0  0  0  0  0  0  0  0  0  0  0  0
    4.2161   -1.4673   -1.1190 C   0  0  0  0  0  0  0  0  0  0  0  0
    4.6784   -2.7246   -1.4975 C   0  0  0  0  0  0  0  0  0  0  0  0
    5.8266   -2.8134   -2.1845 F   0  0  0  0  0  0  0  0  0  0  0  0
    3.9929   -3.8984   -1.1950 C   0  0  0  0  0  0  0  0  0  0  0  0
    2.8025   -3.7662   -0.4856 C   0  0  0  0  0  0  0  0  0  0  0  0
    2.1117   -4.8736   -0.1767 F   0  0  0  0  0  0  0  0  0  0  0  0
    2.3015   -2.5299   -0.0865 C   0  0  0  0  0  0  0  0  0  0  0  0
    0.6922    1.1971    0.0763 H   0  0  0  0  0  0  0  0  0  0  0  0
    0.4064   -0.5201    0.4159 H   0  0  0  0  0  0  0  0  0  0  0  0
    0.7721    0.0077   -1.2527 H   0  0  0  0  0  0  0  0  0  0  0  0
    2.9375    1.8479   -0.4840 H   0  0  0  0  0  0  0  0  0  0  0  0
    2.6179    1.3539    1.7234 H   0  0  0  0  0  0  0  0  0  0  0  0
    4.0164    0.2818    1.5543 H   0  0  0  0  0  0  0  0  0  0  0  0
    4.0469   -1.9258    2.6458 H   0  0  0  0  0  0  0  0  0  0  0  0
    3.1042   -3.3718    4.4346 H   0  0  0  0  0  0  0  0  0  0  0  0
    0.8839   -2.8580    5.4349 H   0  0  0  0  0  0  0  0  0  0  0  0
   -0.8874   -1.3897    5.3985 H   0  0  0  0  0  0  0  0  0  0  0  0
    0.5306    0.5854    2.8810 H   0  0  0  0  0  0  0  0  0  0  0  0
    4.7797   -0.5769   -1.3912 H   0  0  0  0  0  0  0  0  0  0  0  0
    4.3679   -4.8745   -1.5034 H   0  0  0  0  0  0  0  0  0  0  0  0
    1.3658   -2.5083    0.4704 H   0  0  0  0  0  0  0  0  0  0  0  0
  1  2  1  0
  1 20  1  0
  1 21  1  0
  1 22  1  0
  2  3  1  6
  2  4  1  0
  2 12  1  0
  3 23  1  0
  4  5  1  0
  4 24  1  0
  4 25  1  0
  5  6  2  0
  5 11  1  0
  6  7  1  0
  6 26  1  0
  7  8  2  0
  7 27  1  0
  8  9  1  0
  8 28  1  0
  9 10  1  0
  9 11  2  0
 10 29  1  0
 11 30  1  0
 12 13  2  0
 12 19  1  0
 13 14  1  0
 13 31  1  0
 14 15  1  0
 14 16  2  0
 16 17  1  0
 16 32  1  0
 17 18  1  0
 17 19  2  0
 19 33  1  0
M  END

