
     RDKit          3D

 56 59  0  0  0  0  0  0  0  0999 V2000
    1.4125    0.1624    1.0221 C   0  0  0  0  0  0  0  0  0  0  0  0
    2.8667    0.0919    0.6142 C   0  0  0  0  0  0  0  0  0  0  0  0
    3.5287    1.2370    0.1265 C   0  0  0  0  0  0  0  0  0  0  0  0
    4.8771    1.2146   -0.2651 C   0  0  0  0  0  0  0  0  0  0  0  0
    5.5217   -0.0023   -0.1455 C   0  0  0  0  0  0  0  0  0  0  0  0
    6.8294   -0.3288   -0.4454 O   0  0  0  0  0  0  0  0  0  0  0  0
    6.9170   -1.6591   -0.1331 C   0  0  0  0  0  0  0  0  0  0  0  0
    8.1095   -2.2649   -0.3717 N   0  0  0  0  0  0  0  0  0  0  0  0
    8.3083   -3.6435    0.0679 C   0  0  0  0  0  0  0  0  0  0  0  0
    9.1760   -4.3936   -0.9403 C   0  0  0  0  0  0  0  0  0  0  0  0
   10.4046   -3.6533   -1.2178 N   0  0  0  0  0  0  0  0  0  0  0  0
   11.6212   -4.2851   -1.0919 C   0  0  0  0  0  0  0  0  0  0  0  0
   11.7087   -5.4465   -0.7227 O   0  0  0  0  0  0  0  0  0  0  0  0
   12.8715   -3.4743   -1.4321 C   0  0  0  0  0  0  0  0  0  0  0  0
   14.1370   -4.3100   -1.2614 C   0  0  0  0  0  0  0  0  0  0  0  0
   15.3752   -3.5323   -1.5545 C   0  0  0  0  0  0  0  0  0  0  0  0
   15.5004   -2.2752   -1.8604 N   0  0  0  0  0  0  0  0  0  0  0  0
   16.8657   -2.1275   -2.0086 C   0  0  0  0  0  0  0  0  0  0  0  0
   17.5123   -0.8088   -2.3726 C   0  0  1  0  0  0  0  0  0  0  0  0
   16.9449   -0.3523   -3.7346 C   0  0  0  0  0  0  0  0  0  0  0  0
   17.1455    0.2256   -1.2861 C   0  0  0  0  0  0  0  0  0  0  0  0
   19.0389   -0.9665   -2.4605 C   0  0  0  0  0  0  0  0  0  0  0  0
   17.5374   -3.2315   -1.8055 N   0  0  0  0  0  0  0  0  0  0  0  0
   16.5517   -4.1703   -1.5034 O   0  0  0  0  0  0  0  0  0  0  0  0
   10.1830   -2.2887   -1.6741 C   0  0  0  0  0  0  0  0  0  0  0  0
    9.3199   -1.5143   -0.6715 C   0  0  0  0  0  0  0  0  0  0  0  0
    5.8328   -2.2058    0.3342 N   0  0  0  0  0  0  0  0  0  0  0  0
    4.9035   -1.1701    0.3362 C   0  0  0  0  0  0  0  0  0  0  0  0
    3.5622   -1.1265    0.7210 C   0  0  0  0  0  0  0  0  0  0  0  0
    1.0079    1.1787    0.9072 H   0  0  0  0  0  0  0  0  0  0  0  0
    1.2758   -0.1364    2.0748 H   0  0  0  0  0  0  0  0  0  0  0  0
    0.7915   -0.5162    0.4133 H   0  0  0  0  0  0  0  0  0  0  0  0
    2.9741    2.1758    0.0502 H   0  0  0  0  0  0  0  0  0  0  0  0
    5.3829    2.1055   -0.6413 H   0  0  0  0  0  0  0  0  0  0  0  0
    7.3231   -4.1157    0.1701 H   0  0  0  0  0  0  0  0  0  0  0  0
    8.7962   -3.6556    1.0623 H   0  0  0  0  0  0  0  0  0  0  0  0
    8.6110   -4.5304   -1.8813 H   0  0  0  0  0  0  0  0  0  0  0  0
    9.4591   -5.3812   -0.5569 H   0  0  0  0  0  0  0  0  0  0  0  0
   12.9286   -2.5768   -0.7949 H   0  0  0  0  0  0  0  0  0  0  0  0
   12.8081   -3.0949   -2.4652 H   0  0  0  0  0  0  0  0  0  0  0  0
   14.1062   -5.2005   -1.9093 H   0  0  0  0  0  0  0  0  0  0  0  0
   14.1965   -4.7128   -0.2372 H   0  0  0  0  0  0  0  0  0  0  0  0
   15.8489   -0.2641   -3.6958 H   0  0  0  0  0  0  0  0  0  0  0  0
   17.2034   -1.0675   -4.5316 H   0  0  0  0  0  0  0  0  0  0  0  0
   17.3635    0.6293   -4.0088 H   0  0  0  0  0  0  0  0  0  0  0  0
   16.0542    0.3271   -1.1904 H   0  0  0  0  0  0  0  0  0  0  0  0
   17.5653    1.2109   -1.5447 H   0  0  0  0  0  0  0  0  0  0  0  0
   17.5496   -0.0699   -0.3048 H   0  0  0  0  0  0  0  0  0  0  0  0
   19.3225   -1.7067   -3.2233 H   0  0  0  0  0  0  0  0  0  0  0  0
   19.4634   -1.3012   -1.5023 H   0  0  0  0  0  0  0  0  0  0  0  0
   19.4994   -0.0017   -2.7255 H   0  0  0  0  0  0  0  0  0  0  0  0
    9.6664   -2.3051   -2.6530 H   0  0  0  0  0  0  0  0  0  0  0  0
   11.1354   -1.7642   -1.8098 H   0  0  0  0  0  0  0  0  0  0  0  0
    9.0479   -0.5359   -1.0860 H   0  0  0  0  0  0  0  0  0  0  0  0
    9.9047   -1.3428    0.2551 H   0  0  0  0  0  0  0  0  0  0  0  0
    3.0699   -2.0264    1.0971 H   0  0  0  0  0  0  0  0  0  0  0  0
  1  2  1  0
  1 30  1  0
  1 31  1  0
  1 32  1  0
  2  3  2  0
  2 29  1  0
  3  4  1  0
  3 33  1  0
  4  5  2  0
  4 34  1  0
  5  6  1  0
  5 28  1  0
  6  7  1  0
  7  8  1  0
  7 27  2  0
  8  9  1  0
  8 26  1  0
  9 10  1  0
  9 35  1  0
  9 36  1  0
 10 11  1  0
 10 37  1  0
 10 38  1  0
 11 12  1  0
 11 25  1  0
 12 13  2  0
 12 14  1  0
 14 15  1  0
 14 39  1  0
 14 40  1  0
 15 16  1  0
 15 41  1  0
 15 42  1  0
 16 17  2  0
 16 24  1  0
 17 18  1  0
 18 19  1  0
 18 23  2  0
 19 20  1  6
 19 21  1  0
 19 22  1  0
 20 43  1  0
 20 44  1  0
 20 45  1  0
 21 46  1  0
 21 47  1  0
 21 48  1  0
 22 49  1  0
 22 50  1  0
 22 51  1  0
 23 24  1  0
 25 26  1  0
 25 52  1  0
 25 53  1  0
 26 54  1  0
 26 55  1  0
 27 28  1  0
 28 29  2  0
 29 56  1  0
M  END

