
     RDKit          3D

 40 43  0  0  0  0  0  0  0  0999 V2000
    2.6142    1.3363    0.0787 O   0  0  0  0  0  0  0  0  0  0  0  0
    2.8103    0.1323    0.0484 C   0  0  0  0  0  0  0  0  0  0  0  0
    2.4336   -0.7191    1.2374 C   0  0  0  0  0  0  0  0  0  0  0  0
    1.0844   -0.7981    1.6144 C   0  0  0  0  0  0  0  0  0  0  0  0
    0.7080   -1.5055    2.7546 C   0  0  0  0  0  0  0  0  0  0  0  0
    1.6807   -2.1220    3.5581 C   0  0  0  0  0  0  0  0  0  0  0  0
    1.2732   -2.8594    4.7630 C   0  0  0  0  0  0  0  0  0  0  0  0
   -0.0448   -2.9979    5.1569 N   0  0  0  0  0  0  0  0  0  0  0  0
    0.0653   -3.7002    6.2357 C   0  0  0  0  0  0  0  0  0  0  0  0
    1.3248   -4.0109    6.5502 O   0  0  0  0  0  0  0  0  0  0  0  0
    2.1271   -3.4507    5.5693 N   0  0  0  0  0  0  0  0  0  0  0  0
    3.0354   -2.0169    3.2026 C   0  0  0  0  0  0  0  0  0  0  0  0
    3.4050   -1.3252    2.0504 C   0  0  0  0  0  0  0  0  0  0  0  0
    3.3826   -0.4992   -1.0382 N   0  0  0  0  0  0  0  0  0  0  0  0
    3.5887    0.2730   -2.2708 C   0  0  0  0  0  0  0  0  0  0  0  0
    2.7534   -0.4929   -3.2994 C   0  0  0  0  0  0  0  0  0  0  0  0
    2.9672   -1.9609   -2.8951 C   0  0  0  0  0  0  0  0  0  0  0  0
    3.2338   -1.9322   -1.3616 C   0  0  1  0  0  0  0  0  0  0  0  0
    2.3864   -2.3547   -0.8045 H   0  0  0  0  0  0  0  0  0  0  0  0
    4.4926   -2.7309   -0.9704 C   0  0  0  0  0  0  0  0  0  0  0  0
    4.4090   -4.1217   -1.3945 N   0  0  0  0  0  0  0  0  0  0  0  0
    5.2775   -4.8493   -2.1455 C   0  0  0  0  0  0  0  0  0  0  0  0
    4.6928   -6.0988   -2.2134 C   0  0  0  0  0  0  0  0  0  0  0  0
    3.5246   -6.0645   -1.5180 N   0  0  0  0  0  0  0  0  0  0  0  0
    3.3584   -4.8750   -1.0248 N   0  0  0  0  0  0  0  0  0  0  0  0
    0.3263   -0.2974    1.0079 H   0  0  0  0  0  0  0  0  0  0  0  0
   -0.3420   -1.5823    3.0414 H   0  0  0  0  0  0  0  0  0  0  0  0
   -0.7195   -4.0601    6.9011 H   0  0  0  0  0  0  0  0  0  0  0  0
    3.7935   -2.4785    3.8380 H   0  0  0  0  0  0  0  0  0  0  0  0
    4.4635   -1.2281    1.7981 H   0  0  0  0  0  0  0  0  0  0  0  0
    4.6593    0.2780   -2.5461 H   0  0  0  0  0  0  0  0  0  0  0  0
    3.2728    1.3088   -2.0987 H   0  0  0  0  0  0  0  0  0  0  0  0
    3.0506   -0.2882   -4.3390 H   0  0  0  0  0  0  0  0  0  0  0  0
    1.6935   -0.2096   -3.1928 H   0  0  0  0  0  0  0  0  0  0  0  0
    3.8439   -2.3738   -3.4206 H   0  0  0  0  0  0  0  0  0  0  0  0
    2.1160   -2.6093   -3.1453 H   0  0  0  0  0  0  0  0  0  0  0  0
    5.3835   -2.2910   -1.4417 H   0  0  0  0  0  0  0  0  0  0  0  0
    4.6318   -2.7051    0.1190 H   0  0  0  0  0  0  0  0  0  0  0  0
    6.2002   -4.4375   -2.5455 H   0  0  0  0  0  0  0  0  0  0  0  0
    5.0399   -7.0003   -2.7139 H   0  0  0  0  0  0  0  0  0  0  0  0
  1  2  2  0
  2  3  1  0
  2 14  1  0
  3  4  2  0
  3 13  1  0
  4  5  1  0
  4 26  1  0
  5  6  2  0
  5 27  1  0
  6  7  1  0
  6 12  1  0
  7  8  1  0
  7 11  2  0
  8  9  2  0
  9 10  1  0
  9 28  1  0
 10 11  1  0
 12 13  2  0
 12 29  1  0
 13 30  1  0
 14 15  1  0
 14 18  1  0
 15 16  1  0
 15 31  1  0
 15 32  1  0
 16 17  1  0
 16 33  1  0
 16 34  1  0
 17 18  1  0
 17 35  1  0
 17 36  1  0
 18 19  1  1
 18 20  1  0
 20 21  1  0
 20 37  1  0
 20 38  1  0
 21 22  1  0
 21 25  1  0
 22 23  2  0
 22 39  1  0
 23 24  1  0
 23 40  1  0
 24 25  2  0
M  END

