
     RDKit          3D

 54 58  0  0  0  0  0  0  0  0999 V2000
    4.3652   -5.4833   -0.1670 C   0  0  0  0  0  0  0  0  0  0  0  0
    3.3429   -4.5391    0.0623 O   0  0  0  0  0  0  0  0  0  0  0  0
    3.4546   -3.2774   -0.4316 C   0  0  0  0  0  0  0  0  0  0  0  0
    4.5306   -2.8847   -1.2440 C   0  0  0  0  0  0  0  0  0  0  0  0
    4.6237   -1.5741   -1.7172 C   0  0  0  0  0  0  0  0  0  0  0  0
    3.6483   -0.6366   -1.3769 C   0  0  0  0  0  0  0  0  0  0  0  0
    2.5842   -1.0253   -0.5645 C   0  0  0  0  0  0  0  0  0  0  0  0
    2.4450   -2.3387   -0.0820 C   0  0  0  0  0  0  0  0  0  0  0  0
    1.2653   -2.6499    0.7781 C   0  0  0  0  0  0  0  0  0  0  0  0
    0.7162   -3.9375    0.9191 C   0  0  0  0  0  0  0  0  0  0  0  0
   -0.4255   -4.1023    1.6972 C   0  0  0  0  0  0  0  0  0  0  0  0
   -1.0137   -2.9965    2.3238 C   0  0  0  0  0  0  0  0  0  0  0  0
   -0.3770   -1.7375    2.1623 C   0  0  0  0  0  0  0  0  0  0  0  0
    0.7088   -1.5981    1.4081 N   0  0  0  0  0  0  0  0  0  0  0  0
   -0.8758   -0.5167    2.9373 C   0  0  1  0  0  0  0  0  0  0  0  0
    0.1462    0.6240    2.9419 C   0  0  0  0  0  0  0  0  0  0  0  0
   -2.2862   -0.0276    2.4823 C   0  0  2  0  0  0  0  0  0  0  0  0
   -2.1478    0.6122    1.5911 H   0  0  0  0  0  0  0  0  0  0  0  0
   -2.9777    0.8016    3.5724 C   0  0  0  0  0  0  0  0  0  0  0  0
   -3.1780   -1.2023    2.0259 C   0  0  0  0  0  0  0  0  0  0  0  0
   -3.2644   -2.2774    2.9983 N   0  0  0  0  0  0  0  0  0  0  0  0
   -2.2797   -3.1014    3.0964 C   0  0  0  0  0  0  0  0  0  0  0  0
   -2.4607   -4.2142    4.0516 C   0  0  0  0  0  0  0  0  0  0  0  0
   -1.6089   -5.1758    4.3398 N   0  0  0  0  0  0  0  0  0  0  0  0
   -2.2511   -5.9574    5.2767 C   0  0  0  0  0  0  0  0  0  0  0  0
   -1.8165   -7.1190    5.9384 C   0  0  0  0  0  0  0  0  0  0  0  0
   -2.6796   -7.7143    6.8531 C   0  0  0  0  0  0  0  0  0  0  0  0
   -3.9593   -7.1741    7.1172 C   0  0  0  0  0  0  0  0  0  0  0  0
   -4.4145   -6.0237    6.4757 C   0  0  0  0  0  0  0  0  0  0  0  0
   -3.5447   -5.4263    5.5545 C   0  0  0  0  0  0  0  0  0  0  0  0
   -3.6403   -4.3162    4.7505 N   0  0  0  0  0  0  0  0  0  0  0  0
   -4.3958   -3.6491    4.6392 H   0  0  0  0  0  0  0  0  0  0  0  0
    4.0663   -6.3979    0.3627 H   0  0  0  0  0  0  0  0  0  0  0  0
    5.3363   -5.1397    0.2311 H   0  0  0  0  0  0  0  0  0  0  0  0
    4.4814   -5.7143   -1.2410 H   0  0  0  0  0  0  0  0  0  0  0  0
    5.3060   -3.6023   -1.5100 H   0  0  0  0  0  0  0  0  0  0  0  0
    5.4678   -1.2924   -2.3521 H   0  0  0  0  0  0  0  0  0  0  0  0
    3.7148    0.3917   -1.7393 H   0  0  0  0  0  0  0  0  0  0  0  0
    1.8177   -0.3062   -0.2745 H   0  0  0  0  0  0  0  0  0  0  0  0
    1.1725   -4.7885    0.4215 H   0  0  0  0  0  0  0  0  0  0  0  0
   -0.8660   -5.0918    1.8226 H   0  0  0  0  0  0  0  0  0  0  0  0
   -0.9989   -0.8651    3.9797 H   0  0  0  0  0  0  0  0  0  0  0  0
    0.3001    1.0214    1.9279 H   0  0  0  0  0  0  0  0  0  0  0  0
    1.1246    0.2784    3.3046 H   0  0  0  0  0  0  0  0  0  0  0  0
   -0.1888    1.4468    3.5908 H   0  0  0  0  0  0  0  0  0  0  0  0
   -2.3583    1.6493    3.9013 H   0  0  0  0  0  0  0  0  0  0  0  0
   -3.1990    0.1788    4.4541 H   0  0  0  0  0  0  0  0  0  0  0  0
   -3.9320    1.2124    3.2058 H   0  0  0  0  0  0  0  0  0  0  0  0
   -2.7906   -1.5848    1.0634 H   0  0  0  0  0  0  0  0  0  0  0  0
   -4.1964   -0.8251    1.8390 H   0  0  0  0  0  0  0  0  0  0  0  0
   -0.8262   -7.5292    5.7301 H   0  0  0  0  0  0  0  0  0  0  0  0
   -2.3668   -8.6181    7.3819 H   0  0  0  0  0  0  0  0  0  0  0  0
   -4.6073   -7.6716    7.8433 H   0  0  0  0  0  0  0  0  0  0  0  0
   -5.4041   -5.6110    6.6843 H   0  0  0  0  0  0  0  0  0  0  0  0
  1  2  1  0
  1 33  1  0
  1 34  1  0
  1 35  1  0
  2  3  1  0
  3  4  2  0
  3  8  1  0
  4  5  1  0
  4 36  1  0
  5  6  2  0
  5 37  1  0
  6  7  1  0
  6 38  1  0
  7  8  2  0
  7 39  1  0
  8  9  1  0
  9 10  2  0
  9 14  1  0
 10 11  1  0
 10 40  1  0
 11 12  2  0
 11 41  1  0
 12 13  1  0
 12 22  1  0
 13 14  2  0
 13 15  1  0
 15 16  1  0
 15 17  1  0
 15 42  1  1
 16 43  1  0
 16 44  1  0
 16 45  1  0
 17 18  1  6
 17 19  1  0
 17 20  1  0
 19 46  1  0
 19 47  1  0
 19 48  1  0
 20 21  1  0
 20 49  1  0
 20 50  1  0
 21 22  2  0
 22 23  1  0
 23 24  2  0
 23 31  1  0
 24 25  1  0
 25 26  2  0
 25 30  1  0
 26 27  1  0
 26 51  1  0
 27 28  2  0
 27 52  1  0
 28 29  1  0
 28 53  1  0
 29 30  2  0
 29 54  1  0
 30 31  1  0
 31 32  1  0
M  END

