
     RDKit          3D

 34 35  0  0  0  0  0  0  0  0999 V2000
    0.7431    0.5637    1.2240 C   0  0  0  0  0  0  0  0  0  0  0  0
    2.2498    0.7731    1.0861 C   0  0  0  0  0  0  0  0  0  0  0  0
    3.0903   -0.3076    1.7844 C   0  0  1  0  0  0  0  0  0  0  0  0
    2.9329   -1.6678    1.2597 N   0  0  0  0  0  0  0  0  0  0  0  0
    4.5830    0.1083    1.8219 C   0  0  0  0  0  0  0  0  0  0  0  0
    4.9118    1.2736    1.9750 O   0  0  0  0  0  0  0  0  0  0  0  0
    5.4368   -0.9532    1.7170 N   0  0  0  0  0  0  0  0  0  0  0  0
    6.8382   -0.9735    1.7564 C   0  0  0  0  0  0  0  0  0  0  0  0
    7.6229    0.1832    1.9121 C   0  0  0  0  0  0  0  0  0  0  0  0
    9.0138    0.0847    1.9455 C   0  0  0  0  0  0  0  0  0  0  0  0
    9.6515   -1.1553    1.8140 C   0  0  0  0  0  0  0  0  0  0  0  0
   11.0684   -1.2608    1.8330 N   0  0  0  0  0  0  0  0  0  0  0  0
   11.9919   -0.2610    1.6904 C   0  0  0  0  0  0  0  0  0  0  0  0
   13.2384   -0.8507    1.7728 C   0  0  0  0  0  0  0  0  0  0  0  0
   12.9609   -2.2275    1.9622 C   0  0  0  0  0  0  0  0  0  0  0  0
   11.6563   -2.4635    1.9951 N   0  0  0  0  0  0  0  0  0  0  0  0
    8.8738   -2.3118    1.6614 C   0  0  0  0  0  0  0  0  0  0  0  0
    7.4866   -2.2172    1.6371 C   0  0  0  0  0  0  0  0  0  0  0  0
    0.1813    1.3500    0.6967 H   0  0  0  0  0  0  0  0  0  0  0  0
    0.4310    0.5855    2.2818 H   0  0  0  0  0  0  0  0  0  0  0  0
    0.4240   -0.4047    0.8039 H   0  0  0  0  0  0  0  0  0  0  0  0
    2.5460    1.7477    1.5013 H   0  0  0  0  0  0  0  0  0  0  0  0
    2.5333    0.8017    0.0173 H   0  0  0  0  0  0  0  0  0  0  0  0
    2.7909   -0.3396    2.8491 H   0  0  0  0  0  0  0  0  0  0  0  0
    2.8444   -1.6551    0.2420 H   0  0  0  0  0  0  0  0  0  0  0  0
    2.0952   -2.1166    1.6241 H   0  0  0  0  0  0  0  0  0  0  0  0
    4.9406   -1.8366    1.5850 H   0  0  0  0  0  0  0  0  0  0  0  0
    7.1310    1.1480    2.0136 H   0  0  0  0  0  0  0  0  0  0  0  0
    9.5973    0.9954    2.0886 H   0  0  0  0  0  0  0  0  0  0  0  0
   11.7024    0.7730    1.5273 H   0  0  0  0  0  0  0  0  0  0  0  0
   14.2055   -0.3595    1.6994 H   0  0  0  0  0  0  0  0  0  0  0  0
   13.6639   -3.0527    2.0765 H   0  0  0  0  0  0  0  0  0  0  0  0
    9.3751   -3.2745    1.5674 H   0  0  0  0  0  0  0  0  0  0  0  0
    6.8904   -3.1263    1.5177 H   0  0  0  0  0  0  0  0  0  0  0  0
  1  2  1  0
  1 19  1  0
  1 20  1  0
  1 21  1  0
  2  3  1  0
  2 22  1  0
  2 23  1  0
  3  4  1  0
  3  5  1  0
  3 24  1  1
  4 25  1  0
  4 26  1  0
  5  6  2  0
  5  7  1  0
  7  8  1  0
  7 27  1  0
  8  9  2  0
  8 18  1  0
  9 10  1  0
  9 28  1  0
 10 11  2  0
 10 29  1  0
 11 12  1  0
 11 17  1  0
 12 13  1  0
 12 16  1  0
 13 14  2  0
 13 30  1  0
 14 15  1  0
 14 31  1  0
 15 16  2  0
 15 32  1  0
 17 18  2  0
 17 33  1  0
 18 34  1  0
M  END

