
     RDKit          3D

 50 52  0  0  0  0  0  0  0  0999 V2000
    0.9853    0.2959    0.9682 C   0  0  0  0  0  0  0  0  0  0  0  0
    2.4433    0.1197    0.6205 C   0  0  0  0  0  0  0  0  0  0  0  0
    3.2934    1.2325    0.7634 C   0  0  0  0  0  0  0  0  0  0  0  0
    4.6548    1.1790    0.4744 C   0  0  0  0  0  0  0  0  0  0  0  0
    5.2010   -0.0292    0.0380 C   0  0  0  0  0  0  0  0  0  0  0  0
    6.9521   -0.1263   -0.3411 S   0  0  1  0  0  0  0  0  0  0  0  0
    7.6457   -0.6348    1.1134 N   0  0  0  0  0  0  0  0  0  0  0  0
    7.1350   -1.2059   -1.3131 O   0  0  0  0  0  0  0  0  0  0  0  0
    7.4253    1.2399   -0.5782 O   0  0  0  0  0  0  0  0  0  0  0  0
    4.3991   -1.1527   -0.1228 C   0  0  0  0  0  0  0  0  0  0  0  0
    3.0241   -1.0927    0.1600 C   0  0  0  0  0  0  0  0  0  0  0  0
    2.2979   -2.3883   -0.0629 C   0  0  0  0  0  0  0  0  0  0  0  0
    2.8573   -3.4383   -0.2822 O   0  0  0  0  0  0  0  0  0  0  0  0
    0.9565   -2.2675   -0.0201 O   0  0  0  0  0  0  0  0  0  0  0  0
    0.1656   -3.4683   -0.1945 C   0  0  1  0  0  0  0  0  0  0  0  0
    0.1064   -4.2674    1.1014 C   0  0  0  0  0  0  0  0  0  0  0  0
   -1.2434   -2.9682   -0.5681 C   0  0  0  0  0  0  0  0  0  0  0  0
   -1.9504   -2.4900    0.3033 O   0  0  0  0  0  0  0  0  0  0  0  0
   -1.7055   -3.1509   -1.8600 N   0  0  0  0  0  0  0  0  0  0  0  0
   -3.1557   -3.0737   -2.0797 C   0  0  0  0  0  0  0  0  0  0  0  0
   -3.6543   -4.4504   -2.5179 C   0  0  0  0  0  0  0  0  0  0  0  0
   -2.9661   -4.8872   -3.8181 C   0  0  0  0  0  0  0  0  0  0  0  0
   -1.5272   -4.4166   -3.9423 C   0  0  0  0  0  0  0  0  0  0  0  0
   -0.7655   -4.7899   -5.0596 C   0  0  0  0  0  0  0  0  0  0  0  0
    0.5307   -4.3153   -5.2583 C   0  0  0  0  0  0  0  0  0  0  0  0
    1.0793   -3.4131   -4.3419 C   0  0  0  0  0  0  0  0  0  0  0  0
    0.3388   -3.0164   -3.2303 C   0  0  0  0  0  0  0  0  0  0  0  0
   -0.9437   -3.5444   -2.9959 C   0  0  0  0  0  0  0  0  0  0  0  0
    0.8173    1.2914    1.4029 H   0  0  0  0  0  0  0  0  0  0  0  0
    0.6344   -0.4646    1.6792 H   0  0  0  0  0  0  0  0  0  0  0  0
    0.3425    0.1908    0.0817 H   0  0  0  0  0  0  0  0  0  0  0  0
    2.8641    2.1754    1.1111 H   0  0  0  0  0  0  0  0  0  0  0  0
    5.2898    2.0612    0.5733 H   0  0  0  0  0  0  0  0  0  0  0  0
    8.0640   -1.5581    0.9999 H   0  0  0  0  0  0  0  0  0  0  0  0
    8.3232    0.0571    1.4333 H   0  0  0  0  0  0  0  0  0  0  0  0
    4.8203   -2.0927   -0.4809 H   0  0  0  0  0  0  0  0  0  0  0  0
    0.6282   -4.0705   -0.9845 H   0  0  0  0  0  0  0  0  0  0  0  0
   -0.3556   -3.6650    1.8952 H   0  0  0  0  0  0  0  0  0  0  0  0
    1.1175   -4.5803    1.3952 H   0  0  0  0  0  0  0  0  0  0  0  0
   -0.5039   -5.1722    0.9536 H   0  0  0  0  0  0  0  0  0  0  0  0
   -3.3661   -2.3123   -2.8510 H   0  0  0  0  0  0  0  0  0  0  0  0
   -3.6127   -2.7448   -1.1401 H   0  0  0  0  0  0  0  0  0  0  0  0
   -4.7482   -4.4364   -2.6490 H   0  0  0  0  0  0  0  0  0  0  0  0
   -3.4409   -5.1664   -1.7064 H   0  0  0  0  0  0  0  0  0  0  0  0
   -3.5230   -4.4792   -4.6810 H   0  0  0  0  0  0  0  0  0  0  0  0
   -3.0127   -5.9834   -3.9300 H   0  0  0  0  0  0  0  0  0  0  0  0
   -1.2106   -5.4704   -5.7919 H   0  0  0  0  0  0  0  0  0  0  0  0
    1.1026   -4.6302   -6.1342 H   0  0  0  0  0  0  0  0  0  0  0  0
    2.0797   -3.0028   -4.4978 H   0  0  0  0  0  0  0  0  0  0  0  0
    0.7424   -2.2725   -2.5435 H   0  0  0  0  0  0  0  0  0  0  0  0
  1  2  1  0
  1 29  1  0
  1 30  1  0
  1 31  1  0
  2  3  2  0
  2 11  1  0
  3  4  1  0
  3 32  1  0
  4  5  2  0
  4 33  1  0
  5  6  1  0
  5 10  1  0
  6  7  1  1
  6  8  2  0
  6  9  2  0
  7 34  1  0
  7 35  1  0
 10 11  2  0
 10 36  1  0
 11 12  1  0
 12 13  2  0
 12 14  1  0
 14 15  1  0
 15 16  1  0
 15 17  1  0
 15 37  1  6
 16 38  1  0
 16 39  1  0
 16 40  1  0
 17 18  2  0
 17 19  1  0
 19 20  1  0
 19 28  1  0
 20 21  1  0
 20 41  1  0
 20 42  1  0
 21 22  1  0
 21 43  1  0
 21 44  1  0
 22 23  1  0
 22 45  1  0
 22 46  1  0
 23 24  2  0
 23 28  1  0
 24 25  1  0
 24 47  1  0
 25 26  2  0
 25 48  1  0
 26 27  1  0
 26 49  1  0
 27 28  2  0
 27 50  1  0
M  END

