
     RDKit          3D

 43 43  0  0  0  0  0  0  0  0999 V2000
    3.1784    0.1562   -1.5222 C   0  0  0  0  0  0  0  0  0  0  0  0
    2.6509   -0.0063   -0.1196 C   0  0  0  0  0  0  0  0  0  0  0  0
    1.6616    0.7241    0.4417 C   0  0  0  0  0  0  0  0  0  0  0  0
    0.8780    1.8449   -0.1126 C   0  0  0  0  0  0  0  0  0  0  0  0
   -0.4630    2.0000    0.2980 C   0  0  0  0  0  0  0  0  0  0  0  0
   -1.2546    3.0428   -0.1832 C   0  0  0  0  0  0  0  0  0  0  0  0
   -0.7202    3.9749   -1.0790 C   0  0  0  0  0  0  0  0  0  0  0  0
    0.6144    3.8549   -1.4769 C   0  0  0  0  0  0  0  0  0  0  0  0
    1.4049    2.8070   -0.9988 C   0  0  0  0  0  0  0  0  0  0  0  0
    3.3064   -1.1084    0.6863 C   0  0  0  0  0  0  0  0  0  0  0  0
    4.7422   -0.8872    0.8135 N   0  0  0  0  0  0  0  0  0  0  0  0
    5.4641   -1.9639    1.4707 C   0  0  0  0  0  0  0  0  0  0  0  0
    6.9663   -1.6945    1.4834 C   0  0  0  0  0  0  0  0  0  0  0  0
    7.7686   -2.9062    1.9551 C   0  0  0  0  0  0  0  0  0  0  0  0
    7.3929   -4.0495    1.7489 O   0  0  0  0  0  0  0  0  0  0  0  0
    8.9401   -2.6109    2.5953 N   0  0  0  0  0  0  0  0  0  0  0  0
    9.8858   -3.6228    3.0580 C   0  0  1  0  0  0  0  0  0  0  0  0
   11.1987   -3.5515    2.2694 C   0  0  0  0  0  0  0  0  0  0  0  0
   10.1089   -3.5067    4.5696 C   0  0  0  0  0  0  0  0  0  0  0  0
    2.4735    0.6835   -2.1791 H   0  0  0  0  0  0  0  0  0  0  0  0
    3.3922   -0.8328   -1.9600 H   0  0  0  0  0  0  0  0  0  0  0  0
    4.1371    0.7015   -1.5302 H   0  0  0  0  0  0  0  0  0  0  0  0
    1.3547    0.4275    1.4525 H   0  0  0  0  0  0  0  0  0  0  0  0
   -0.8884    1.2788    1.0017 H   0  0  0  0  0  0  0  0  0  0  0  0
   -2.2936    3.1316    0.1453 H   0  0  0  0  0  0  0  0  0  0  0  0
   -1.3364    4.7958   -1.4546 H   0  0  0  0  0  0  0  0  0  0  0  0
    1.0494    4.5903   -2.1591 H   0  0  0  0  0  0  0  0  0  0  0  0
    2.4535    2.7541   -1.2941 H   0  0  0  0  0  0  0  0  0  0  0  0
    3.1715   -2.0713    0.1571 H   0  0  0  0  0  0  0  0  0  0  0  0
    2.7909   -1.2177    1.6658 H   0  0  0  0  0  0  0  0  0  0  0  0
    4.9006   -0.0053    1.3024 H   0  0  0  0  0  0  0  0  0  0  0  0
    5.2918   -2.9012    0.9184 H   0  0  0  0  0  0  0  0  0  0  0  0
    5.1139   -2.1584    2.5104 H   0  0  0  0  0  0  0  0  0  0  0  0
    7.2037   -0.8083    2.0987 H   0  0  0  0  0  0  0  0  0  0  0  0
    7.2843   -1.4557    0.4530 H   0  0  0  0  0  0  0  0  0  0  0  0
    9.1883   -1.6360    2.7222 H   0  0  0  0  0  0  0  0  0  0  0  0
    9.3918   -4.5816    2.8407 H   0  0  0  0  0  0  0  0  0  0  0  0
   11.7057   -2.5831    2.4254 H   0  0  0  0  0  0  0  0  0  0  0  0
   11.0155   -3.6719    1.1908 H   0  0  0  0  0  0  0  0  0  0  0  0
   11.8925   -4.3449    2.5902 H   0  0  0  0  0  0  0  0  0  0  0  0
   10.5642   -2.5356    4.8326 H   0  0  0  0  0  0  0  0  0  0  0  0
   10.7872   -4.2975    4.9274 H   0  0  0  0  0  0  0  0  0  0  0  0
    9.1574   -3.5968    5.1154 H   0  0  0  0  0  0  0  0  0  0  0  0
  1  2  1  0
  1 20  1  0
  1 21  1  0
  1 22  1  0
  2  3  2  0
  2 10  1  0
  3  4  1  0
  3 23  1  0
  4  5  2  0
  4  9  1  0
  5  6  1  0
  5 24  1  0
  6  7  2  0
  6 25  1  0
  7  8  1  0
  7 26  1  0
  8  9  2  0
  8 27  1  0
  9 28  1  0
 10 11  1  0
 10 29  1  0
 10 30  1  0
 11 12  1  0
 11 31  1  0
 12 13  1  0
 12 32  1  0
 12 33  1  0
 13 14  1  0
 13 34  1  0
 13 35  1  0
 14 15  2  0
 14 16  1  0
 16 17  1  0
 16 36  1  0
 17 18  1  0
 17 19  1  0
 17 37  1  1
 18 38  1  0
 18 39  1  0
 18 40  1  0
 19 41  1  0
 19 42  1  0
 19 43  1  0
M  END

