
     RDKit          3D

 52 53  0  0  0  0  0  0  0  0999 V2000
    5.8357   -4.3459    4.3589 C   0  0  0  0  0  0  0  0  0  0  0  0
    6.4244   -2.9421    4.1607 C   0  0  1  0  0  0  0  0  0  0  0  0
    7.5283   -2.9693    3.0943 C   0  0  0  0  0  0  0  0  0  0  0  0
    5.3259   -1.8996    3.8238 C   0  0  1  0  0  0  0  0  0  0  0  0
    4.2356   -1.7770    4.8961 C   0  0  0  0  0  0  0  0  0  0  0  0
    5.9228   -0.5912    3.5704 N   0  0  0  0  0  0  0  0  0  0  0  0
    5.7661    0.1003    2.4155 C   0  0  0  0  0  0  0  0  0  0  0  0
    5.0807   -0.2529    1.4708 O   0  0  0  0  0  0  0  0  0  0  0  0
    6.5937    1.3931    2.3076 C   0  0  0  0  0  0  0  0  0  0  0  0
    6.9885    1.9817    3.5879 N   0  0  0  0  0  0  0  0  0  0  0  0
    6.0509    2.7767    4.3213 C   0  0  0  0  0  0  0  0  0  0  0  0
    5.2699    3.7503    3.6778 C   0  0  0  0  0  0  0  0  0  0  0  0
    4.3315    4.4914    4.3988 C   0  0  0  0  0  0  0  0  0  0  0  0
    4.1713    4.2865    5.7697 C   0  0  0  0  0  0  0  0  0  0  0  0
    4.9593    3.3272    6.4165 C   0  0  0  0  0  0  0  0  0  0  0  0
    4.8295    3.1286    7.9081 C   0  0  1  0  0  0  0  0  0  0  0  0
    3.5779    3.3744    8.3344 F   0  0  0  0  0  0  0  0  0  0  0  0
    5.1445    1.8753    8.2761 F   0  0  0  0  0  0  0  0  0  0  0  0
    5.6445    3.9566    8.5882 F   0  0  0  0  0  0  0  0  0  0  0  0
    5.8862    2.5678    5.6991 C   0  0  0  0  0  0  0  0  0  0  0  0
    8.6623    2.1598    3.9097 S   0  0  1  0  0  0  0  0  0  0  0  0
    8.7887    2.3473    5.3537 O   0  0  0  0  0  0  0  0  0  0  0  0
    9.3086    1.0440    3.2156 O   0  0  0  0  0  0  0  0  0  0  0  0
    9.1709    3.6844    3.1123 C   0  0  0  0  0  0  0  0  0  0  0  0
    9.0326    4.8934    3.8041 C   0  0  0  0  0  0  0  0  0  0  0  0
    9.4090    6.0791    3.1689 C   0  0  0  0  0  0  0  0  0  0  0  0
    9.9221    6.0486    1.8675 C   0  0  0  0  0  0  0  0  0  0  0  0
   10.0701    4.8306    1.1955 C   0  0  0  0  0  0  0  0  0  0  0  0
    9.6970    3.6361    1.8165 C   0  0  0  0  0  0  0  0  0  0  0  0
    6.6364   -5.0752    4.5598 H   0  0  0  0  0  0  0  0  0  0  0  0
    5.3034   -4.6805    3.4518 H   0  0  0  0  0  0  0  0  0  0  0  0
    5.1300   -4.3948    5.2012 H   0  0  0  0  0  0  0  0  0  0  0  0
    6.8850   -2.6316    5.1201 H   0  0  0  0  0  0  0  0  0  0  0  0
    7.1156   -3.2409    2.1078 H   0  0  0  0  0  0  0  0  0  0  0  0
    8.2979   -3.7140    3.3520 H   0  0  0  0  0  0  0  0  0  0  0  0
    8.0285   -1.9950    2.9931 H   0  0  0  0  0  0  0  0  0  0  0  0
    4.8543   -2.1853    2.8695 H   0  0  0  0  0  0  0  0  0  0  0  0
    4.6661   -1.4932    5.8720 H   0  0  0  0  0  0  0  0  0  0  0  0
    3.6868   -2.7205    5.0302 H   0  0  0  0  0  0  0  0  0  0  0  0
    3.5081   -1.0034    4.6081 H   0  0  0  0  0  0  0  0  0  0  0  0
    6.5366   -0.1891    4.2713 H   0  0  0  0  0  0  0  0  0  0  0  0
    6.0185    2.0895    1.6807 H   0  0  0  0  0  0  0  0  0  0  0  0
    7.5016    1.1249    1.7499 H   0  0  0  0  0  0  0  0  0  0  0  0
    5.3905    3.9278    2.6080 H   0  0  0  0  0  0  0  0  0  0  0  0
    3.7218    5.2376    3.8841 H   0  0  0  0  0  0  0  0  0  0  0  0
    3.4341    4.8594    6.3347 H   0  0  0  0  0  0  0  0  0  0  0  0
    6.4914    1.8176    6.2046 H   0  0  0  0  0  0  0  0  0  0  0  0
    8.6548    4.8960    4.8276 H   0  0  0  0  0  0  0  0  0  0  0  0
    9.3097    7.0301    3.6976 H   0  0  0  0  0  0  0  0  0  0  0  0
   10.2185    6.9795    1.3778 H   0  0  0  0  0  0  0  0  0  0  0  0
   10.4874    4.8077    0.1860 H   0  0  0  0  0  0  0  0  0  0  0  0
    9.8307    2.6744    1.3185 H   0  0  0  0  0  0  0  0  0  0  0  0
  1  2  1  0
  1 30  1  0
  1 31  1  0
  1 32  1  0
  2  3  1  0
  2  4  1  0
  2 33  1  1
  3 34  1  0
  3 35  1  0
  3 36  1  0
  4  5  1  0
  4  6  1  0
  4 37  1  6
  5 38  1  0
  5 39  1  0
  5 40  1  0
  6  7  1  0
  6 41  1  0
  7  8  2  0
  7  9  1  0
  9 10  1  0
  9 42  1  0
  9 43  1  0
 10 11  1  0
 21 10  1  1
 11 12  2  0
 11 20  1  0
 12 13  1  0
 12 44  1  0
 13 14  2  0
 13 45  1  0
 14 15  1  0
 14 46  1  0
 15 16  1  0
 15 20  2  0
 16 17  1  1
 16 18  1  0
 16 19  1  0
 20 47  1  0
 21 22  2  0
 21 23  2  0
 21 24  1  0
 24 25  2  0
 24 29  1  0
 25 26  1  0
 25 48  1  0
 26 27  2  0
 26 49  1  0
 27 28  1  0
 27 50  1  0
 28 29  2  0
 28 51  1  0
 29 52  1  0
M  END

