
     RDKit          3D

 34 36  0  0  0  0  0  0  0  0999 V2000
    6.3689    0.5747    3.9198 O   0  0  0  0  0  0  0  0  0  0  0  0
    5.5617   -0.0032    3.2091 N   0  0  0  0  0  0  0  0  0  0  0  0
    4.8557   -0.9327    3.6218 O   0  0  0  0  0  0  0  0  0  0  0  0
    5.4244    0.4183    1.8245 C   0  0  0  0  0  0  0  0  0  0  0  0
    6.2195    1.5032    1.4188 C   0  0  0  0  0  0  0  0  0  0  0  0
    6.1755    1.9905    0.1255 C   0  0  0  0  0  0  0  0  0  0  0  0
    5.2968    1.3672   -0.7789 C   0  0  0  0  0  0  0  0  0  0  0  0
    5.2015    1.9684   -2.4137 Cl  0  0  0  0  0  0  0  0  0  0  0  0
    4.4957    0.2982   -0.4118 C   0  0  0  0  0  0  0  0  0  0  0  0
    4.5320   -0.2344    0.9079 C   0  0  0  0  0  0  0  0  0  0  0  0
    3.7700   -1.2978    1.2627 N   0  0  0  0  0  0  0  0  0  0  0  0
    2.8895   -2.0636    0.4062 C   0  0  1  0  0  0  0  0  0  0  0  0
    2.8122   -3.5499    0.8339 C   0  0  0  0  0  0  0  0  0  0  0  0
    1.4422   -4.0470    0.3228 C   0  0  0  0  0  0  0  0  0  0  0  0
    0.6097   -2.7817    0.3193 C   0  0  0  0  0  0  0  0  0  0  0  0
   -0.7833   -2.6480    0.2534 C   0  0  0  0  0  0  0  0  0  0  0  0
   -1.6256   -3.7122    0.1802 O   0  0  0  0  0  0  0  0  0  0  0  0
   -1.3426   -1.3603    0.2745 C   0  0  0  0  0  0  0  0  0  0  0  0
   -0.5194   -0.2350    0.3532 C   0  0  0  0  0  0  0  0  0  0  0  0
    0.8759   -0.3592    0.4084 C   0  0  0  0  0  0  0  0  0  0  0  0
    1.4219   -1.6421    0.3890 C   0  0  0  0  0  0  0  0  0  0  0  0
    6.8764    1.9480    2.1652 H   0  0  0  0  0  0  0  0  0  0  0  0
    6.7914    2.8325   -0.1887 H   0  0  0  0  0  0  0  0  0  0  0  0
    3.8155   -0.1228   -1.1489 H   0  0  0  0  0  0  0  0  0  0  0  0
    3.8286   -1.5391    2.2517 H   0  0  0  0  0  0  0  0  0  0  0  0
    3.2832   -2.0153   -0.6244 H   0  0  0  0  0  0  0  0  0  0  0  0
    2.8275   -3.5959    1.9359 H   0  0  0  0  0  0  0  0  0  0  0  0
    3.6627   -4.1412    0.4646 H   0  0  0  0  0  0  0  0  0  0  0  0
    1.0301   -4.8477    0.9617 H   0  0  0  0  0  0  0  0  0  0  0  0
    1.5317   -4.4687   -0.6963 H   0  0  0  0  0  0  0  0  0  0  0  0
   -1.1155   -4.5323    0.1729 H   0  0  0  0  0  0  0  0  0  0  0  0
   -2.4296   -1.2653    0.2337 H   0  0  0  0  0  0  0  0  0  0  0  0
   -0.9766    0.7576    0.3745 H   0  0  0  0  0  0  0  0  0  0  0  0
    1.5112    0.5263    0.4772 H   0  0  0  0  0  0  0  0  0  0  0  0
  1  2  2  0
  2  3  1  0
  2  4  1  0
  4  5  2  0
  4 10  1  0
  5  6  1  0
  5 22  1  0
  6  7  2  0
  6 23  1  0
  7  8  1  0
  7  9  1  0
  9 10  2  0
  9 24  1  0
 10 11  1  0
 11 12  1  0
 11 25  1  0
 12 13  1  0
 12 21  1  0
 12 26  1  6
 13 14  1  0
 13 27  1  0
 13 28  1  0
 14 15  1  0
 14 29  1  0
 14 30  1  0
 15 16  1  0
 15 21  2  0
 16 17  1  0
 16 18  2  0
 17 31  1  0
 18 19  1  0
 18 32  1  0
 19 20  2  0
 19 33  1  0
 20 21  1  0
 20 34  1  0
M  CHG  2   2   1   3  -1
M  END

