
     RDKit          3D

 45 48  0  0  0  0  0  0  0  0999 V2000
    2.0653   -2.3218   -2.5220 C   0  0  0  0  0  0  0  0  0  0  0  0
    3.4040   -2.2512   -1.8366 C   0  0  0  0  0  0  0  0  0  0  0  0
    3.9862   -1.0538   -1.3997 C   0  0  0  0  0  0  0  0  0  0  0  0
    5.2291   -1.0025   -0.7630 C   0  0  0  0  0  0  0  0  0  0  0  0
    5.9416   -2.1933   -0.5428 C   0  0  0  0  0  0  0  0  0  0  0  0
    7.1970   -2.2431    0.0899 N   0  0  0  0  0  0  0  0  0  0  0  0
    7.9541   -1.2127    0.5729 C   0  0  0  0  0  0  0  0  0  0  0  0
    7.6451   -0.0368    0.5537 O   0  0  0  0  0  0  0  0  0  0  0  0
    9.2813   -1.6091    1.2420 C   0  0  0  0  0  0  0  0  0  0  0  0
    9.9267   -3.2987    1.0081 S   0  0  0  0  0  0  0  0  0  0  0  0
   10.5756   -3.1715   -0.6458 C   0  0  0  0  0  0  0  0  0  0  0  0
   10.4828   -2.0537   -1.3142 N   0  0  0  0  0  0  0  0  0  0  0  0
   10.9927   -1.9903   -2.5790 C   0  0  0  0  0  0  0  0  0  0  0  0
   11.6017   -3.0514   -3.1925 C   0  0  0  0  0  0  0  0  0  0  0  0
   11.6966   -4.2239   -2.4863 N   0  0  0  0  0  0  0  0  0  0  0  0
   12.2547   -5.3487   -2.9215 N   0  0  0  0  0  0  0  0  0  0  0  0
   12.1277   -6.2319   -1.9091 C   0  0  0  0  0  0  0  0  0  0  0  0
   12.6462   -7.6043   -2.0519 C   0  0  0  0  0  0  0  0  0  0  0  0
   13.2688   -8.0049   -3.2489 C   0  0  0  0  0  0  0  0  0  0  0  0
   13.7618   -9.3017   -3.3924 C   0  0  0  0  0  0  0  0  0  0  0  0
   13.6435  -10.2225   -2.3458 C   0  0  0  0  0  0  0  0  0  0  0  0
   13.0270   -9.8348   -1.1522 C   0  0  0  0  0  0  0  0  0  0  0  0
   12.5328   -8.5376   -1.0061 C   0  0  0  0  0  0  0  0  0  0  0  0
   11.4702   -5.6512   -0.7994 C   0  0  0  0  0  0  0  0  0  0  0  0
   11.1949   -4.3420   -1.1905 C   0  0  0  0  0  0  0  0  0  0  0  0
    5.3843   -3.4119   -0.9707 C   0  0  0  0  0  0  0  0  0  0  0  0
    4.1464   -3.4139   -1.5980 C   0  0  0  0  0  0  0  0  0  0  0  0
    3.6357   -4.5942   -1.9970 F   0  0  0  0  0  0  0  0  0  0  0  0
    1.6326   -1.3183   -2.6422 H   0  0  0  0  0  0  0  0  0  0  0  0
    1.3507   -2.9363   -1.9494 H   0  0  0  0  0  0  0  0  0  0  0  0
    2.1470   -2.7821   -3.5206 H   0  0  0  0  0  0  0  0  0  0  0  0
    3.4437   -0.1185   -1.5644 H   0  0  0  0  0  0  0  0  0  0  0  0
    5.6546   -0.0573   -0.4358 H   0  0  0  0  0  0  0  0  0  0  0  0
    7.6125   -3.1662    0.1860 H   0  0  0  0  0  0  0  0  0  0  0  0
    9.1608   -1.4964    2.3310 H   0  0  0  0  0  0  0  0  0  0  0  0
   10.0346   -0.8871    0.9026 H   0  0  0  0  0  0  0  0  0  0  0  0
   10.8932   -1.0372   -3.1035 H   0  0  0  0  0  0  0  0  0  0  0  0
   12.0201   -3.0520   -4.1980 H   0  0  0  0  0  0  0  0  0  0  0  0
   13.3581   -7.2827   -4.0617 H   0  0  0  0  0  0  0  0  0  0  0  0
   14.2425   -9.5969   -4.3287 H   0  0  0  0  0  0  0  0  0  0  0  0
   14.0303  -11.2383   -2.4597 H   0  0  0  0  0  0  0  0  0  0  0  0
   12.9301  -10.5468   -0.3287 H   0  0  0  0  0  0  0  0  0  0  0  0
   12.0548   -8.2513   -0.0668 H   0  0  0  0  0  0  0  0  0  0  0  0
   11.2259   -6.1072    0.1551 H   0  0  0  0  0  0  0  0  0  0  0  0
    5.9013   -4.3629   -0.8229 H   0  0  0  0  0  0  0  0  0  0  0  0
  1  2  1  0
  1 29  1  0
  1 30  1  0
  1 31  1  0
  2  3  2  0
  2 27  1  0
  3  4  1  0
  3 32  1  0
  4  5  2  0
  4 33  1  0
  5  6  1  0
  5 26  1  0
  6  7  1  0
  6 34  1  0
  7  8  2  0
  7  9  1  0
  9 10  1  0
  9 35  1  0
  9 36  1  0
 10 11  1  0
 11 12  2  0
 11 25  1  0
 12 13  1  0
 13 14  2  0
 13 37  1  0
 14 15  1  0
 14 38  1  0
 15 16  1  0
 15 25  1  0
 16 17  2  0
 17 18  1  0
 17 24  1  0
 18 19  2  0
 18 23  1  0
 19 20  1  0
 19 39  1  0
 20 21  2  0
 20 40  1  0
 21 22  1  0
 21 41  1  0
 22 23  2  0
 22 42  1  0
 23 43  1  0
 24 25  2  0
 24 44  1  0
 26 27  2  0
 26 45  1  0
 27 28  1  0
M  END

