
     RDKit          3D

 24 25  0  0  0  0  0  0  0  0999 V2000
    2.4112    1.6671   -0.0579 C   0  0  0  0  0  0  0  0  0  0  0  0
    2.4522    0.2344    0.1419 N   0  0  0  0  0  0  0  0  0  0  0  0
    3.1494   -0.5421    0.9923 C   0  0  0  0  0  0  0  0  0  0  0  0
    3.0089   -1.9640    0.9334 C   0  0  0  0  0  0  0  0  0  0  0  0
    2.1411   -2.6353   -0.0118 N   0  0  0  0  0  0  0  0  0  0  0  0
    1.4691   -1.9570   -0.8090 O   0  0  0  0  0  0  0  0  0  0  0  0
    2.0914   -3.8543    0.0003 O   0  0  0  0  0  0  0  0  0  0  0  0
    3.7355   -2.8085    1.8146 C   0  0  0  0  0  0  0  0  0  0  0  0
    4.5661   -2.3844    2.7249 N   0  0  0  0  0  0  0  0  0  0  0  0
    4.7441   -1.0334    2.8359 C   0  0  0  0  0  0  0  0  0  0  0  0
    5.6502   -0.5918    3.8345 C   0  0  0  0  0  0  0  0  0  0  0  0
    5.9061    0.7464    4.0438 C   0  0  0  0  0  0  0  0  0  0  0  0
    5.2447    1.6966    3.2402 C   0  0  0  0  0  0  0  0  0  0  0  0
    5.5561    3.3981    3.4972 Cl  0  0  0  0  0  0  0  0  0  0  0  0
    4.3553    1.3096    2.2541 C   0  0  0  0  0  0  0  0  0  0  0  0
    4.0759   -0.0634    2.0158 C   0  0  0  0  0  0  0  0  0  0  0  0
    1.7246    1.8617   -0.8929 H   0  0  0  0  0  0  0  0  0  0  0  0
    3.3929    2.0875   -0.3305 H   0  0  0  0  0  0  0  0  0  0  0  0
    2.0250    2.2101    0.8202 H   0  0  0  0  0  0  0  0  0  0  0  0
    1.8670   -0.3364   -0.4784 H   0  0  0  0  0  0  0  0  0  0  0  0
    3.5816   -3.8861    1.7151 H   0  0  0  0  0  0  0  0  0  0  0  0
    6.1358   -1.3649    4.4322 H   0  0  0  0  0  0  0  0  0  0  0  0
    6.6041    1.0775    4.8144 H   0  0  0  0  0  0  0  0  0  0  0  0
    3.8835    2.0950    1.6782 H   0  0  0  0  0  0  0  0  0  0  0  0
  1  2  1  0
  1 17  1  0
  1 18  1  0
  1 19  1  0
  2  3  1  0
  2 20  1  0
  3  4  2  0
  3 16  1  0
  4  5  1  0
  4  8  1  0
  5  6  2  0
  5  7  1  0
  8  9  2  0
  8 21  1  0
  9 10  1  0
 10 11  1  0
 10 16  2  0
 11 12  2  0
 11 22  1  0
 12 13  1  0
 12 23  1  0
 13 14  1  0
 13 15  2  0
 15 16  1  0
 15 24  1  0
M  CHG  2   5   1   7  -1
M  END

