
     RDKit          3D

 29 29  0  0  0  0  0  0  0  0999 V2000
    3.5892    2.0914    1.8744 C   0  0  0  0  0  0  0  0  0  0  0  0
    3.9002    1.1772    0.8478 O   0  0  0  0  0  0  0  0  0  0  0  0
    4.3111    1.7724   -0.3575 C   0  0  1  0  0  0  0  0  0  0  0  0
    5.4837    2.5114   -0.2402 O   0  0  0  0  0  0  0  0  0  0  0  0
    4.4399    0.5975   -1.3385 C   0  0  0  0  0  0  0  0  0  0  0  0
    5.0282    0.9458   -2.6167 N   0  0  0  0  0  0  0  0  0  0  0  0
    6.3677    1.0955   -2.7768 C   0  0  0  0  0  0  0  0  0  0  0  0
    7.1742    0.9799   -1.8580 O   0  0  0  0  0  0  0  0  0  0  0  0
    6.7985    1.4539   -4.1924 C   0  0  1  0  0  0  0  0  0  0  0  0
    8.2253    1.0114   -4.5913 C   0  0  0  0  0  0  0  0  0  0  0  0
    8.1385    0.8509   -6.1337 C   0  0  0  0  0  0  0  0  0  0  0  0
    6.6426    1.1192   -6.4689 C   0  0  0  0  0  0  0  0  0  0  0  0
    5.8906    0.9281   -5.2223 N   0  0  0  0  0  0  0  0  0  0  0  0
    3.3090    1.5079    2.7632 H   0  0  0  0  0  0  0  0  0  0  0  0
    2.7367    2.7435    1.5955 H   0  0  0  0  0  0  0  0  0  0  0  0
    4.4510    2.7355    2.1192 H   0  0  0  0  0  0  0  0  0  0  0  0
    3.5325    2.4895   -0.6960 H   0  0  0  0  0  0  0  0  0  0  0  0
    6.2476    1.9272   -0.4096 H   0  0  0  0  0  0  0  0  0  0  0  0
    3.4491    0.1508   -1.5025 H   0  0  0  0  0  0  0  0  0  0  0  0
    5.0711   -0.1605   -0.8472 H   0  0  0  0  0  0  0  0  0  0  0  0
    4.4483    1.1078   -3.4345 H   0  0  0  0  0  0  0  0  0  0  0  0
    6.7450    2.5591   -4.2487 H   0  0  0  0  0  0  0  0  0  0  0  0
    8.4728    0.0608   -4.0953 H   0  0  0  0  0  0  0  0  0  0  0  0
    8.9841    1.7401   -4.2734 H   0  0  0  0  0  0  0  0  0  0  0  0
    8.4325   -0.1656   -6.4390 H   0  0  0  0  0  0  0  0  0  0  0  0
    8.8029    1.5476   -6.6675 H   0  0  0  0  0  0  0  0  0  0  0  0
    6.2434    0.4736   -7.2652 H   0  0  0  0  0  0  0  0  0  0  0  0
    6.5080    2.1638   -6.7977 H   0  0  0  0  0  0  0  0  0  0  0  0
    5.7899   -0.0784   -5.0642 H   0  0  0  0  0  0  0  0  0  0  0  0
  1  2  1  0
  1 14  1  0
  1 15  1  0
  1 16  1  0
  2  3  1  0
  3  4  1  0
  3  5  1  0
  3 17  1  6
  4 18  1  0
  5  6  1  0
  5 19  1  0
  5 20  1  0
  6  7  1  0
  6 21  1  0
  7  8  2  0
  7  9  1  0
  9 10  1  0
  9 13  1  0
  9 22  1  1
 10 11  1  0
 10 23  1  0
 10 24  1  0
 11 12  1  0
 11 25  1  0
 11 26  1  0
 12 13  1  0
 12 27  1  0
 12 28  1  0
 13 29  1  0
M  END

