
     RDKit          3D

 29 29  0  0  0  0  0  0  0  0999 V2000
    2.2456   -0.3420   -3.3005 C   0  0  0  0  0  0  0  0  0  0  0  0
    2.9414   -0.9683   -2.2540 O   0  0  0  0  0  0  0  0  0  0  0  0
    4.0565   -0.2455   -1.7836 C   0  0  0  0  0  0  0  0  0  0  0  0
    4.7350   -1.0825   -0.7114 C   0  0  0  0  0  0  0  0  0  0  0  0
    5.1280   -2.3758   -1.2295 N   0  0  0  0  0  0  0  0  0  0  0  0
    6.3863   -2.8769   -1.1065 C   0  0  0  0  0  0  0  0  0  0  0  0
    7.2980   -2.2947   -0.5225 O   0  0  0  0  0  0  0  0  0  0  0  0
    6.6287   -4.2031   -1.7205 C   0  0  0  0  0  0  0  0  0  0  0  0
    5.8738   -5.1176   -2.4354 C   0  0  0  0  0  0  0  0  0  0  0  0
    6.7239   -6.2210   -2.7454 C   0  0  0  0  0  0  0  0  0  0  0  0
    6.3038   -7.4186   -3.5034 C   0  0  0  0  0  0  0  0  0  0  0  0
    7.3394   -8.5062   -3.7425 C   0  0  0  0  0  0  0  0  0  0  0  0
    5.1649   -7.5281   -3.9210 O   0  0  0  0  0  0  0  0  0  0  0  0
    7.9788   -5.9298   -2.1992 C   0  0  0  0  0  0  0  0  0  0  0  0
    7.8989   -4.7224   -1.5934 N   0  0  0  0  0  0  0  0  0  0  0  0
    8.6252   -4.2126   -1.0990 H   0  0  0  0  0  0  0  0  0  0  0  0
    1.4070   -0.9940   -3.5852 H   0  0  0  0  0  0  0  0  0  0  0  0
    2.8888   -0.1836   -4.1895 H   0  0  0  0  0  0  0  0  0  0  0  0
    1.8385    0.6426   -2.9942 H   0  0  0  0  0  0  0  0  0  0  0  0
    3.7459    0.7314   -1.3580 H   0  0  0  0  0  0  0  0  0  0  0  0
    4.7649   -0.0390   -2.6127 H   0  0  0  0  0  0  0  0  0  0  0  0
    4.0405   -1.2024    0.1403 H   0  0  0  0  0  0  0  0  0  0  0  0
    5.6408   -0.5826   -0.3414 H   0  0  0  0  0  0  0  0  0  0  0  0
    4.4249   -2.8906   -1.7470 H   0  0  0  0  0  0  0  0  0  0  0  0
    4.8278   -5.0471   -2.7261 H   0  0  0  0  0  0  0  0  0  0  0  0
    8.2057   -8.1076   -4.2958 H   0  0  0  0  0  0  0  0  0  0  0  0
    6.8806   -9.3191   -4.3200 H   0  0  0  0  0  0  0  0  0  0  0  0
    7.7152   -8.9047   -2.7858 H   0  0  0  0  0  0  0  0  0  0  0  0
    8.9041   -6.5017   -2.2071 H   0  0  0  0  0  0  0  0  0  0  0  0
  1  2  1  0
  1 17  1  0
  1 18  1  0
  1 19  1  0
  2  3  1  0
  3  4  1  0
  3 20  1  0
  3 21  1  0
  4  5  1  0
  4 22  1  0
  4 23  1  0
  5  6  1  0
  5 24  1  0
  6  7  2  0
  6  8  1  0
  8  9  2  0
  8 15  1  0
  9 10  1  0
  9 25  1  0
 10 11  1  0
 10 14  2  0
 11 12  1  0
 11 13  2  0
 12 26  1  0
 12 27  1  0
 12 28  1  0
 14 15  1  0
 14 29  1  0
 15 16  1  0
M  END

