
     RDKit          3D

 41 41  0  0  0  0  0  0  0  0999 V2000
    5.1078   -1.0034    7.4933 C   0  0  0  0  0  0  0  0  0  0  0  0
    4.5439   -1.7756    6.2990 C   0  0  0  0  0  0  0  0  0  0  0  0
    4.8047   -1.0856    4.9556 C   0  0  0  0  0  0  0  0  0  0  0  0
    4.2719   -1.8273    3.7169 C   0  0  1  0  0  0  0  0  0  0  0  0
    2.7419   -1.7747    3.6170 C   0  0  0  0  0  0  0  0  0  0  0  0
    4.9050   -1.2746    2.4215 C   0  0  0  0  0  0  0  0  0  0  0  0
    6.3313   -1.5699    2.2899 N   0  0  0  0  0  0  0  0  0  0  0  0
    6.6248   -2.8724    1.6783 C   0  0  0  0  0  0  0  0  0  0  0  0
    6.5334   -2.8730    0.1444 C   0  0  0  0  0  0  0  0  0  0  0  0
    7.4333   -1.7810   -0.4473 C   0  0  0  0  0  0  0  0  0  0  0  0
    7.1374   -0.4205    0.1968 C   0  0  0  0  0  0  0  0  0  0  0  0
    7.1676   -0.4916    1.7365 C   0  0  2  0  0  0  0  0  0  0  0  0
    8.5818   -0.5898    2.3116 C   0  0  0  0  0  0  0  0  0  0  0  0
    8.6750   -0.9900    3.6148 N   0  0  0  0  0  0  0  0  0  0  0  0
    9.5769   -0.2101    1.5855 N   0  0  0  0  0  0  0  0  0  0  0  0
   10.7787   -0.3048    2.3258 O   0  0  0  0  0  0  0  0  0  0  0  0
    4.9162   -1.5281    8.4431 H   0  0  0  0  0  0  0  0  0  0  0  0
    4.6562   -0.0001    7.5709 H   0  0  0  0  0  0  0  0  0  0  0  0
    6.1984   -0.8645    7.4030 H   0  0  0  0  0  0  0  0  0  0  0  0
    3.4595   -1.9246    6.4439 H   0  0  0  0  0  0  0  0  0  0  0  0
    4.9848   -2.7892    6.2747 H   0  0  0  0  0  0  0  0  0  0  0  0
    5.8921   -0.9409    4.8371 H   0  0  0  0  0  0  0  0  0  0  0  0
    4.3683   -0.0681    4.9755 H   0  0  0  0  0  0  0  0  0  0  0  0
    4.5709   -2.8894    3.8018 H   0  0  0  0  0  0  0  0  0  0  0  0
    2.3912   -0.7361    3.4856 H   0  0  0  0  0  0  0  0  0  0  0  0
    2.2568   -2.1748    4.5203 H   0  0  0  0  0  0  0  0  0  0  0  0
    2.3737   -2.3599    2.7584 H   0  0  0  0  0  0  0  0  0  0  0  0
    4.7716   -0.1793    2.4133 H   0  0  0  0  0  0  0  0  0  0  0  0
    4.3255   -1.6521    1.5543 H   0  0  0  0  0  0  0  0  0  0  0  0
    5.9462   -3.6238    2.1126 H   0  0  0  0  0  0  0  0  0  0  0  0
    7.6467   -3.1729    1.9744 H   0  0  0  0  0  0  0  0  0  0  0  0
    5.4865   -2.7051   -0.1671 H   0  0  0  0  0  0  0  0  0  0  0  0
    6.8155   -3.8679   -0.2407 H   0  0  0  0  0  0  0  0  0  0  0  0
    7.3018   -1.7201   -1.5406 H   0  0  0  0  0  0  0  0  0  0  0  0
    8.4913   -2.0373   -0.2701 H   0  0  0  0  0  0  0  0  0  0  0  0
    6.1307   -0.0806   -0.1050 H   0  0  0  0  0  0  0  0  0  0  0  0
    7.8569    0.3364   -0.1458 H   0  0  0  0  0  0  0  0  0  0  0  0
    6.7592    0.4521    2.1376 H   0  0  0  0  0  0  0  0  0  0  0  0
    7.8937   -1.5437    3.9487 H   0  0  0  0  0  0  0  0  0  0  0  0
    9.6060   -1.1931    3.9583 H   0  0  0  0  0  0  0  0  0  0  0  0
   11.4415   -0.0285    1.6827 H   0  0  0  0  0  0  0  0  0  0  0  0
  1  2  1  0
  1 17  1  0
  1 18  1  0
  1 19  1  0
  2  3  1  0
  2 20  1  0
  2 21  1  0
  3  4  1  0
  3 22  1  0
  3 23  1  0
  4  5  1  0
  4  6  1  0
  4 24  1  1
  5 25  1  0
  5 26  1  0
  5 27  1  0
  6  7  1  0
  6 28  1  0
  6 29  1  0
  7  8  1  0
  7 12  1  0
  8  9  1  0
  8 30  1  0
  8 31  1  0
  9 10  1  0
  9 32  1  0
  9 33  1  0
 10 11  1  0
 10 34  1  0
 10 35  1  0
 11 12  1  0
 11 36  1  0
 11 37  1  0
 12 13  1  0
 12 38  1  1
 13 14  1  0
 13 15  2  0
 14 39  1  0
 14 40  1  0
 15 16  1  0
 16 41  1  0
M  END

