
     RDKit          3D

 43 43  0  0  0  0  0  0  0  0999 V2000
    2.8800   -0.9287   -1.4826 C   0  0  0  0  0  0  0  0  0  0  0  0
    4.2414   -0.6088   -2.0767 C   0  0  0  0  0  0  0  0  0  0  0  0
    4.4957    0.8045   -2.1079 O   0  0  0  0  0  0  0  0  0  0  0  0
    4.9937    1.3587   -0.9750 C   0  0  0  0  0  0  0  0  0  0  0  0
    5.2481    0.7249    0.0297 O   0  0  0  0  0  0  0  0  0  0  0  0
    5.1673    2.7114   -1.1063 N   0  0  0  0  0  0  0  0  0  0  0  0
    4.9267    3.4697   -2.3269 C   0  0  0  0  0  0  0  0  0  0  0  0
    4.1163    4.7323   -2.0212 C   0  0  0  0  0  0  0  0  0  0  0  0
    4.7478    5.5038   -0.9489 N   0  0  0  0  0  0  0  0  0  0  0  0
    5.0522    6.8088   -1.1808 C   0  0  0  0  0  0  0  0  0  0  0  0
    4.7995    7.3689   -2.2455 O   0  0  0  0  0  0  0  0  0  0  0  0
    5.7641    7.6534   -0.0764 C   0  0  0  0  0  0  0  0  0  0  0  0
    6.1997    7.2199    0.9825 O   0  0  0  0  0  0  0  0  0  0  0  0
    5.8372    8.9427   -0.4677 N   0  0  0  0  0  0  0  0  0  0  0  0
    6.4845    9.9959    0.3044 C   0  0  1  0  0  0  0  0  0  0  0  0
    7.8705   10.3211   -0.2670 C   0  0  0  0  0  0  0  0  0  0  0  0
    5.5838   11.2399    0.3833 C   0  0  0  0  0  0  0  0  0  0  0  0
    4.2365   11.0023    1.0646 C   0  0  0  0  0  0  0  0  0  0  0  0
    4.9431    4.7299    0.2829 C   0  0  0  0  0  0  0  0  0  0  0  0
    5.7574    3.4688   -0.0103 C   0  0  0  0  0  0  0  0  0  0  0  0
    2.6882   -2.0122   -1.5443 H   0  0  0  0  0  0  0  0  0  0  0  0
    2.0777   -0.4064   -2.0274 H   0  0  0  0  0  0  0  0  0  0  0  0
    2.8423   -0.6348   -0.4233 H   0  0  0  0  0  0  0  0  0  0  0  0
    4.3019   -0.9249   -3.1288 H   0  0  0  0  0  0  0  0  0  0  0  0
    5.0419   -1.1031   -1.5070 H   0  0  0  0  0  0  0  0  0  0  0  0
    4.3891    2.8404   -3.0442 H   0  0  0  0  0  0  0  0  0  0  0  0
    5.8924    3.7613   -2.7839 H   0  0  0  0  0  0  0  0  0  0  0  0
    3.0980    4.4451   -1.7009 H   0  0  0  0  0  0  0  0  0  0  0  0
    4.0384    5.3737   -2.9066 H   0  0  0  0  0  0  0  0  0  0  0  0
    5.4868    9.1236   -1.4075 H   0  0  0  0  0  0  0  0  0  0  0  0
    6.6112    9.5781    1.3159 H   0  0  0  0  0  0  0  0  0  0  0  0
    7.7938   10.7098   -1.2965 H   0  0  0  0  0  0  0  0  0  0  0  0
    8.5052    9.4223   -0.2863 H   0  0  0  0  0  0  0  0  0  0  0  0
    8.3756   11.0845    0.3458 H   0  0  0  0  0  0  0  0  0  0  0  0
    5.4269   11.6310   -0.6397 H   0  0  0  0  0  0  0  0  0  0  0  0
    6.1412   12.0255    0.9214 H   0  0  0  0  0  0  0  0  0  0  0  0
    3.6473   10.2385    0.5332 H   0  0  0  0  0  0  0  0  0  0  0  0
    3.6380   11.9263    1.0942 H   0  0  0  0  0  0  0  0  0  0  0  0
    4.3699   10.6553    2.1024 H   0  0  0  0  0  0  0  0  0  0  0  0
    3.9482    4.4381    0.6671 H   0  0  0  0  0  0  0  0  0  0  0  0
    5.4482    5.3507    1.0270 H   0  0  0  0  0  0  0  0  0  0  0  0
    5.7966    2.8191    0.8727 H   0  0  0  0  0  0  0  0  0  0  0  0
    6.7933    3.7612   -0.2696 H   0  0  0  0  0  0  0  0  0  0  0  0
  1  2  1  0
  1 21  1  0
  1 22  1  0
  1 23  1  0
  2  3  1  0
  2 24  1  0
  2 25  1  0
  3  4  1  0
  4  5  2  0
  4  6  1  0
  6  7  1  0
  6 20  1  0
  7  8  1  0
  7 26  1  0
  7 27  1  0
  8  9  1  0
  8 28  1  0
  8 29  1  0
  9 10  1  0
  9 19  1  0
 10 11  2  0
 10 12  1  0
 12 13  2  0
 12 14  1  0
 14 15  1  0
 14 30  1  0
 15 16  1  0
 15 17  1  0
 15 31  1  1
 16 32  1  0
 16 33  1  0
 16 34  1  0
 17 18  1  0
 17 35  1  0
 17 36  1  0
 18 37  1  0
 18 38  1  0
 18 39  1  0
 19 20  1  0
 19 40  1  0
 19 41  1  0
 20 42  1  0
 20 43  1  0
M  END

