
     RDKit          3D

 50 53  0  0  0  0  0  0  0  0999 V2000
    4.3637    6.1368    1.4227 C   0  0  0  0  0  0  0  0  0  0  0  0
    5.2478    6.0658    2.6681 C   0  0  0  0  0  0  0  0  0  0  0  0
    6.0479    4.7669    2.8218 C   0  0  0  0  0  0  0  0  0  0  0  0
    6.9950    4.5132    1.7303 N   0  0  0  0  0  0  0  0  0  0  0  0
    6.6680    3.6232    0.6990 C   0  0  0  0  0  0  0  0  0  0  0  0
    5.6131    3.0134    0.6580 O   0  0  0  0  0  0  0  0  0  0  0  0
    7.7888    3.5126   -0.2736 C   0  0  0  0  0  0  0  0  0  0  0  0
    7.6755    2.5985   -1.2798 C   0  0  0  0  0  0  0  0  0  0  0  0
    8.5346    2.1852   -2.3651 C   0  0  0  0  0  0  0  0  0  0  0  0
    8.3193    0.9508   -3.0510 C   0  0  0  0  0  0  0  0  0  0  0  0
    7.5164   -0.0550   -2.6001 N   0  0  0  0  0  0  0  0  0  0  0  0
    7.2229   -0.4786   -1.2281 C   0  0  0  0  0  0  0  0  0  0  0  0
    5.7740   -0.7543   -0.9930 C   0  0  0  0  0  0  0  0  0  0  0  0
    4.7746   -0.0931   -0.3330 C   0  0  0  0  0  0  0  0  0  0  0  0
    3.5897   -0.8843   -0.5113 C   0  0  0  0  0  0  0  0  0  0  0  0
    3.9593   -1.9595   -1.2663 C   0  0  0  0  0  0  0  0  0  0  0  0
    5.2825   -1.8935   -1.5644 O   0  0  0  0  0  0  0  0  0  0  0  0
    8.8882    0.6738   -4.2430 N   0  0  0  0  0  0  0  0  0  0  0  0
    9.7549    1.5142   -4.7724 C   0  0  0  0  0  0  0  0  0  0  0  0
   10.3524    1.2516   -6.0454 C   0  0  0  0  0  0  0  0  0  0  0  0
   11.2902    2.0966   -6.5735 C   0  0  0  0  0  0  0  0  0  0  0  0
   11.7003    3.2739   -5.8695 C   0  0  0  0  0  0  0  0  0  0  0  0
   12.7371    4.2020   -6.4443 C   0  0  0  0  0  0  0  0  0  0  0  0
   11.1080    3.5170   -4.6602 C   0  0  0  0  0  0  0  0  0  0  0  0
   10.1594    2.6719   -4.1245 N   0  0  0  0  0  0  0  0  0  0  0  0
    9.5441    3.0771   -2.8654 C   0  0  0  0  0  0  0  0  0  0  0  0
    9.8958    4.1404   -2.3789 O   0  0  0  0  0  0  0  0  0  0  0  0
    9.1120    4.5753    0.2213 S   0  0  0  0  0  0  0  0  0  0  0  0
    8.2522    5.0787    1.6814 C   0  0  0  0  0  0  0  0  0  0  0  0
    8.9169    6.0989    2.7929 S   0  0  0  0  0  0  0  0  0  0  0  0
    3.7842    7.0737    1.4096 H   0  0  0  0  0  0  0  0  0  0  0  0
    3.6542    5.2953    1.3782 H   0  0  0  0  0  0  0  0  0  0  0  0
    4.9619    6.1110    0.4977 H   0  0  0  0  0  0  0  0  0  0  0  0
    4.6244    6.1593    3.5749 H   0  0  0  0  0  0  0  0  0  0  0  0
    5.9493    6.9157    2.6909 H   0  0  0  0  0  0  0  0  0  0  0  0
    5.3758    3.8974    2.8436 H   0  0  0  0  0  0  0  0  0  0  0  0
    6.6334    4.7988    3.7519 H   0  0  0  0  0  0  0  0  0  0  0  0
    6.7057    2.0929   -1.2491 H   0  0  0  0  0  0  0  0  0  0  0  0
    7.4391   -0.7946   -3.2933 H   0  0  0  0  0  0  0  0  0  0  0  0
    7.5662    0.2822   -0.5206 H   0  0  0  0  0  0  0  0  0  0  0  0
    7.7997   -1.3983   -1.0175 H   0  0  0  0  0  0  0  0  0  0  0  0
    4.8716    0.8544    0.1956 H   0  0  0  0  0  0  0  0  0  0  0  0
    2.5945   -0.6750   -0.1246 H   0  0  0  0  0  0  0  0  0  0  0  0
    3.4234   -2.8226   -1.6529 H   0  0  0  0  0  0  0  0  0  0  0  0
   10.0243    0.3449   -6.5539 H   0  0  0  0  0  0  0  0  0  0  0  0
   11.7366    1.8726   -7.5464 H   0  0  0  0  0  0  0  0  0  0  0  0
   12.4172    4.5968   -7.4231 H   0  0  0  0  0  0  0  0  0  0  0  0
   13.6942    3.6778   -6.6045 H   0  0  0  0  0  0  0  0  0  0  0  0
   12.9263    5.0567   -5.7795 H   0  0  0  0  0  0  0  0  0  0  0  0
   11.3181    4.3821   -4.0312 H   0  0  0  0  0  0  0  0  0  0  0  0
  1  2  1  0
  1 31  1  0
  1 32  1  0
  1 33  1  0
  2  3  1  0
  2 34  1  0
  2 35  1  0
  3  4  1  0
  3 36  1  0
  3 37  1  0
  4  5  1  0
  4 29  1  0
  5  6  2  0
  5  7  1  0
  7  8  2  0
  7 28  1  0
  8  9  1  0
  8 38  1  0
  9 10  2  0
  9 26  1  0
 10 11  1  0
 10 18  1  0
 11 12  1  0
 11 39  1  0
 12 13  1  0
 12 40  1  0
 12 41  1  0
 13 14  2  0
 13 17  1  0
 14 15  1  0
 14 42  1  0
 15 16  2  0
 15 43  1  0
 16 17  1  0
 16 44  1  0
 18 19  2  0
 19 20  1  0
 19 25  1  0
 20 21  2  0
 20 45  1  0
 21 22  1  0
 21 46  1  0
 22 23  1  0
 22 24  2  0
 23 47  1  0
 23 48  1  0
 23 49  1  0
 24 25  1  0
 24 50  1  0
 25 26  1  0
 26 27  2  0
 28 29  1  0
 29 30  2  0
M  END

