
     RDKit          3D

 45 47  0  0  0  0  0  0  0  0999 V2000
    1.0828   -8.1464   -0.1157 C   0  0  0  0  0  0  0  0  0  0  0  0
    1.5039   -7.1910    0.9873 C   0  0  0  0  0  0  0  0  0  0  0  0
    2.3764   -6.1562    0.4902 O   0  0  0  0  0  0  0  0  0  0  0  0
    3.7044   -6.4158    0.4233 C   0  0  0  0  0  0  0  0  0  0  0  0
    4.1692   -7.4772    0.7706 O   0  0  0  0  0  0  0  0  0  0  0  0
    4.5210   -5.2785   -0.1049 C   0  0  0  0  0  0  0  0  0  0  0  0
    5.9051   -5.5321   -0.1466 C   0  0  0  0  0  0  0  0  0  0  0  0
    6.8127   -4.5864   -0.6067 C   0  0  0  0  0  0  0  0  0  0  0  0
    6.3316   -3.3474   -1.0417 C   0  0  0  0  0  0  0  0  0  0  0  0
    4.9699   -3.0604   -1.0171 C   0  0  0  0  0  0  0  0  0  0  0  0
    4.0362   -4.0114   -0.5514 C   0  0  0  0  0  0  0  0  0  0  0  0
    2.6681   -3.7201   -0.5305 N   0  0  0  0  0  0  0  0  0  0  0  0
    2.0231   -2.5805   -0.9207 C   0  0  0  0  0  0  0  0  0  0  0  0
    2.5363   -1.5667   -1.3731 O   0  0  0  0  0  0  0  0  0  0  0  0
    0.5183   -2.6599   -0.7459 C   0  0  0  0  0  0  0  0  0  0  0  0
   -0.2456   -1.5425   -1.1048 C   0  0  0  0  0  0  0  0  0  0  0  0
   -1.6345   -1.5973   -0.9529 C   0  0  0  0  0  0  0  0  0  0  0  0
   -2.5764   -0.4584   -1.2835 C   0  0  0  0  0  0  0  0  0  0  0  0
   -3.7127   -0.4363   -0.8429 O   0  0  0  0  0  0  0  0  0  0  0  0
   -2.0700    0.5193   -2.0942 N   0  0  0  0  0  0  0  0  0  0  0  0
   -2.8694    1.6282   -2.5288 C   0  0  1  0  0  0  0  0  0  0  0  0
   -3.0902    2.7884   -1.5954 C   0  0  0  0  0  0  0  0  0  0  0  0
   -2.1753    2.9390   -2.7840 C   0  0  0  0  0  0  0  0  0  0  0  0
   -2.1898   -2.7707   -0.4261 C   0  0  0  0  0  0  0  0  0  0  0  0
   -1.3430   -3.8322   -0.1010 C   0  0  0  0  0  0  0  0  0  0  0  0
   -0.0180   -3.7827   -0.2580 N   0  0  0  0  0  0  0  0  0  0  0  0
    0.3617   -8.8789    0.2813 H   0  0  0  0  0  0  0  0  0  0  0  0
    1.9497   -8.6984   -0.5074 H   0  0  0  0  0  0  0  0  0  0  0  0
    0.6015   -7.6028   -0.9436 H   0  0  0  0  0  0  0  0  0  0  0  0
    2.0200   -7.7233    1.7989 H   0  0  0  0  0  0  0  0  0  0  0  0
    0.6428   -6.6454    1.3980 H   0  0  0  0  0  0  0  0  0  0  0  0
    6.2401   -6.5105    0.2010 H   0  0  0  0  0  0  0  0  0  0  0  0
    7.8814   -4.8105   -0.6266 H   0  0  0  0  0  0  0  0  0  0  0  0
    7.0255   -2.5861   -1.4083 H   0  0  0  0  0  0  0  0  0  0  0  0
    4.5980   -2.0973   -1.3563 H   0  0  0  0  0  0  0  0  0  0  0  0
    2.0545   -4.4573   -0.1763 H   0  0  0  0  0  0  0  0  0  0  0  0
    0.2878   -0.6643   -1.4713 H   0  0  0  0  0  0  0  0  0  0  0  0
   -1.1974    0.3465   -2.5796 H   0  0  0  0  0  0  0  0  0  0  0  0
   -3.7078    1.3594   -3.1831 H   0  0  0  0  0  0  0  0  0  0  0  0
   -2.6328    2.7231   -0.6052 H   0  0  0  0  0  0  0  0  0  0  0  0
   -4.0692    3.2738   -1.6153 H   0  0  0  0  0  0  0  0  0  0  0  0
   -1.0990    2.9862   -2.5918 H   0  0  0  0  0  0  0  0  0  0  0  0
   -2.5067    3.5347   -3.6386 H   0  0  0  0  0  0  0  0  0  0  0  0
   -3.2689   -2.8297   -0.2757 H   0  0  0  0  0  0  0  0  0  0  0  0
   -1.7549   -4.7624    0.3055 H   0  0  0  0  0  0  0  0  0  0  0  0
  1  2  1  0
  1 27  1  0
  1 28  1  0
  1 29  1  0
  2  3  1  0
  2 30  1  0
  2 31  1  0
  3  4  1  0
  4  5  2  0
  4  6  1  0
  6  7  2  0
  6 11  1  0
  7  8  1  0
  7 32  1  0
  8  9  2  0
  8 33  1  0
  9 10  1  0
  9 34  1  0
 10 11  2  0
 10 35  1  0
 11 12  1  0
 12 13  1  0
 12 36  1  0
 13 14  2  0
 13 15  1  0
 15 16  2  0
 15 26  1  0
 16 17  1  0
 16 37  1  0
 17 18  1  0
 17 24  2  0
 18 19  2  0
 18 20  1  0
 20 21  1  0
 20 38  1  0
 21 22  1  0
 21 23  1  0
 21 39  1  6
 22 23  1  0
 22 40  1  0
 22 41  1  0
 23 42  1  0
 23 43  1  0
 24 25  1  0
 24 44  1  0
 25 26  2  0
 25 45  1  0
M  END

