
     RDKit          3D

 53 55  0  0  0  0  0  0  0  0999 V2000
    7.9359   -0.3785   -0.8842 C   0  0  0  0  0  0  0  0  0  0  0  0
    6.6380   -0.9902   -0.3552 C   0  0  0  0  0  0  0  0  0  0  0  0
    5.7771   -0.0230    0.4822 C   0  0  1  0  0  0  0  0  0  0  0  0
    5.3291    1.1761   -0.2298 N   0  0  0  0  0  0  0  0  0  0  0  0
    4.5320   -0.7186    1.0780 C   0  0  0  0  0  0  0  0  0  0  0  0
    4.8193   -1.8277    2.0643 C   0  0  0  0  0  0  0  0  0  0  0  0
    5.2922   -1.5385    3.3564 C   0  0  0  0  0  0  0  0  0  0  0  0
    5.5794   -2.5491    4.2663 C   0  0  0  0  0  0  0  0  0  0  0  0
    5.4059   -3.9032    3.9184 C   0  0  0  0  0  0  0  0  0  0  0  0
    4.9115   -4.2192    2.6352 C   0  0  0  0  0  0  0  0  0  0  0  0
    4.6322   -3.1734    1.7404 C   0  0  0  0  0  0  0  0  0  0  0  0
    4.6274   -5.6463    2.2022 C   0  0  0  0  0  0  0  0  0  0  0  0
    5.1040   -6.6892    3.2144 C   0  0  0  0  0  0  0  0  0  0  0  0
    4.8743   -6.1682    4.6326 C   0  0  0  0  0  0  0  0  0  0  0  0
    5.6671   -4.9557    4.8558 N   0  0  0  0  0  0  0  0  0  0  0  0
    6.7396   -4.8814    5.7440 C   0  0  0  0  0  0  0  0  0  0  0  0
    7.4957   -3.9235    5.7477 O   0  0  0  0  0  0  0  0  0  0  0  0
    6.9262   -6.0304    6.7527 C   0  0  1  0  0  0  0  0  0  0  0  0
    8.3368   -6.0089    7.3819 C   0  0  0  0  0  0  0  0  0  0  0  0
    8.5425   -4.9209    8.4462 C   0  0  0  0  0  0  0  0  0  0  0  0
    7.4400   -4.9443    9.5112 C   0  0  0  0  0  0  0  0  0  0  0  0
    6.0494   -4.8695    8.8696 C   0  0  0  0  0  0  0  0  0  0  0  0
    5.8389   -6.0049    7.8593 C   0  0  0  0  0  0  0  0  0  0  0  0
    8.5133   -1.1081   -1.4737 H   0  0  0  0  0  0  0  0  0  0  0  0
    8.5817   -0.0342   -0.0587 H   0  0  0  0  0  0  0  0  0  0  0  0
    7.7412    0.4877   -1.5383 H   0  0  0  0  0  0  0  0  0  0  0  0
    6.8759   -1.8777    0.2550 H   0  0  0  0  0  0  0  0  0  0  0  0
    6.0258   -1.3557   -1.2024 H   0  0  0  0  0  0  0  0  0  0  0  0
    6.3951    0.3292    1.3295 H   0  0  0  0  0  0  0  0  0  0  0  0
    4.8162    0.9115   -1.0738 H   0  0  0  0  0  0  0  0  0  0  0  0
    6.1245    1.7315   -0.5430 H   0  0  0  0  0  0  0  0  0  0  0  0
    3.9182   -1.1114    0.2476 H   0  0  0  0  0  0  0  0  0  0  0  0
    3.9344    0.0700    1.5626 H   0  0  0  0  0  0  0  0  0  0  0  0
    5.4311   -0.4972    3.6616 H   0  0  0  0  0  0  0  0  0  0  0  0
    5.9514   -2.2941    5.2551 H   0  0  0  0  0  0  0  0  0  0  0  0
    4.2487   -3.4334    0.7481 H   0  0  0  0  0  0  0  0  0  0  0  0
    5.0762   -5.8320    1.2124 H   0  0  0  0  0  0  0  0  0  0  0  0
    3.5364   -5.7515    2.0582 H   0  0  0  0  0  0  0  0  0  0  0  0
    6.1811   -6.8932    3.0891 H   0  0  0  0  0  0  0  0  0  0  0  0
    4.5746   -7.6445    3.0671 H   0  0  0  0  0  0  0  0  0  0  0  0
    5.1330   -6.9287    5.3727 H   0  0  0  0  0  0  0  0  0  0  0  0
    3.8051   -5.9281    4.7782 H   0  0  0  0  0  0  0  0  0  0  0  0
    6.8369   -6.9841    6.2087 H   0  0  0  0  0  0  0  0  0  0  0  0
    9.0925   -5.9051    6.5880 H   0  0  0  0  0  0  0  0  0  0  0  0
    8.4977   -6.9990    7.8464 H   0  0  0  0  0  0  0  0  0  0  0  0
    8.5538   -3.9393    7.9496 H   0  0  0  0  0  0  0  0  0  0  0  0
    9.5306   -5.0555    8.9185 H   0  0  0  0  0  0  0  0  0  0  0  0
    7.5780   -4.1128   10.2228 H   0  0  0  0  0  0  0  0  0  0  0  0
    7.5125   -5.8759   10.1046 H   0  0  0  0  0  0  0  0  0  0  0  0
    5.9307   -3.8945    8.3641 H   0  0  0  0  0  0  0  0  0  0  0  0
    5.2634   -4.9161    9.6424 H   0  0  0  0  0  0  0  0  0  0  0  0
    4.8317   -5.9367    7.4174 H   0  0  0  0  0  0  0  0  0  0  0  0
    5.8777   -6.9710    8.3945 H   0  0  0  0  0  0  0  0  0  0  0  0
  1  2  1  0
  1 24  1  0
  1 25  1  0
  1 26  1  0
  2  3  1  0
  2 27  1  0
  2 28  1  0
  3  4  1  0
  3  5  1  0
  3 29  1  1
  4 30  1  0
  4 31  1  0
  5  6  1  0
  5 32  1  0
  5 33  1  0
  6  7  2  0
  6 11  1  0
  7  8  1  0
  7 34  1  0
  8  9  2  0
  8 35  1  0
  9 10  1  0
  9 15  1  0
 10 11  2  0
 10 12  1  0
 11 36  1  0
 12 13  1  0
 12 37  1  0
 12 38  1  0
 13 14  1  0
 13 39  1  0
 13 40  1  0
 14 15  1  0
 14 41  1  0
 14 42  1  0
 15 16  1  0
 16 17  2  0
 16 18  1  0
 18 19  1  0
 18 23  1  0
 18 43  1  6
 19 20  1  0
 19 44  1  0
 19 45  1  0
 20 21  1  0
 20 46  1  0
 20 47  1  0
 21 22  1  0
 21 48  1  0
 21 49  1  0
 22 23  1  0
 22 50  1  0
 22 51  1  0
 23 52  1  0
 23 53  1  0
M  END

