
     RDKit          3D

 59 64  0  0  0  0  0  0  0  0999 V2000
    1.9569   -0.1469    0.1910 C   0  0  0  0  0  0  0  0  0  0  0  0
    3.2558    0.1446   -0.2706 O   0  0  0  0  0  0  0  0  0  0  0  0
    3.6379    1.4399   -0.4056 C   0  0  0  0  0  0  0  0  0  0  0  0
    4.9549    1.6467   -0.8717 C   0  0  0  0  0  0  0  0  0  0  0  0
    5.4311    2.9289   -1.0400 C   0  0  0  0  0  0  0  0  0  0  0  0
    4.6414    4.0759   -0.7601 C   0  0  0  0  0  0  0  0  0  0  0  0
    5.1216    5.4309   -0.9285 C   0  0  0  0  0  0  0  0  0  0  0  0
    4.3080    6.5171   -0.6429 C   0  0  0  0  0  0  0  0  0  0  0  0
    2.9619    6.3422   -0.1694 C   0  0  0  0  0  0  0  0  0  0  0  0
    2.0962    7.4241    0.1332 C   0  0  0  0  0  0  0  0  0  0  0  0
    0.8017    7.2420    0.5907 C   0  0  0  0  0  0  0  0  0  0  0  0
    0.3095    5.9319    0.7681 C   0  0  0  0  0  0  0  0  0  0  0  0
   -0.9409    5.6370    1.2113 O   0  0  0  0  0  0  0  0  0  0  0  0
   -1.8302    6.6844    1.5240 C   0  0  0  0  0  0  0  0  0  0  0  0
    1.1343    4.8492    0.4788 C   0  0  0  0  0  0  0  0  0  0  0  0
    2.4540    5.0115    0.0120 C   0  0  0  0  0  0  0  0  0  0  0  0
    3.3093    3.8646   -0.2894 C   0  0  0  0  0  0  0  0  0  0  0  0
    2.8363    2.5378   -0.1221 C   0  0  0  0  0  0  0  0  0  0  0  0
    5.0386    7.8416   -0.8999 C   0  0  1  0  0  0  0  0  0  0  0  0
    4.3780    8.6766   -2.0232 C   0  0  0  0  0  0  0  0  0  0  0  0
    5.2186    8.6819    0.3873 C   0  0  0  0  0  0  0  0  0  0  0  0
    6.3966    7.3411   -1.3718 C   0  0  0  0  0  0  0  0  0  0  0  0
    7.4894    8.1072   -1.7557 C   0  0  0  0  0  0  0  0  0  0  0  0
    8.6827    7.4889   -2.1822 C   0  0  0  0  0  0  0  0  0  0  0  0
    9.8603    8.2953   -2.5970 C   0  0  0  0  0  0  0  0  0  0  0  0
   10.1771    9.5059   -1.9499 C   0  0  0  0  0  0  0  0  0  0  0  0
   11.2828   10.2645   -2.3393 C   0  0  0  0  0  0  0  0  0  0  0  0
   12.1020    9.8318   -3.3863 C   0  0  0  0  0  0  0  0  0  0  0  0
   11.8025    8.6324   -4.0395 C   0  0  0  0  0  0  0  0  0  0  0  0
   10.6962    7.8749   -3.6502 C   0  0  0  0  0  0  0  0  0  0  0  0
    8.7193    6.0822   -2.1993 C   0  0  0  0  0  0  0  0  0  0  0  0
    7.6233    5.3082   -1.8117 C   0  0  0  0  0  0  0  0  0  0  0  0
    6.4361    5.9295   -1.3899 C   0  0  0  0  0  0  0  0  0  0  0  0
    1.8729   -1.2416    0.2219 H   0  0  0  0  0  0  0  0  0  0  0  0
    1.1799    0.2522   -0.4862 H   0  0  0  0  0  0  0  0  0  0  0  0
    1.7809    0.2540    1.2058 H   0  0  0  0  0  0  0  0  0  0  0  0
    5.5743    0.7749   -1.0913 H   0  0  0  0  0  0  0  0  0  0  0  0
    6.4478    3.0494   -1.4002 H   0  0  0  0  0  0  0  0  0  0  0  0
    2.4489    8.4452    0.0057 H   0  0  0  0  0  0  0  0  0  0  0  0
    0.1834    8.1133    0.8067 H   0  0  0  0  0  0  0  0  0  0  0  0
   -2.7648    6.2126    1.8562 H   0  0  0  0  0  0  0  0  0  0  0  0
   -2.0459    7.3203    0.6461 H   0  0  0  0  0  0  0  0  0  0  0  0
   -1.4460    7.3241    2.3392 H   0  0  0  0  0  0  0  0  0  0  0  0
    0.7024    3.8618    0.6335 H   0  0  0  0  0  0  0  0  0  0  0  0
    1.8233    2.3776    0.2358 H   0  0  0  0  0  0  0  0  0  0  0  0
    3.3780    9.0354   -1.7400 H   0  0  0  0  0  0  0  0  0  0  0  0
    4.2755    8.0805   -2.9426 H   0  0  0  0  0  0  0  0  0  0  0  0
    4.9949    9.5585   -2.2575 H   0  0  0  0  0  0  0  0  0  0  0  0
    4.2593    9.0411    0.7865 H   0  0  0  0  0  0  0  0  0  0  0  0
    5.8457    9.5641    0.1830 H   0  0  0  0  0  0  0  0  0  0  0  0
    5.7115    8.0898    1.1733 H   0  0  0  0  0  0  0  0  0  0  0  0
    7.4209    9.1980   -1.7545 H   0  0  0  0  0  0  0  0  0  0  0  0
    9.5628    9.8443   -1.1123 H   0  0  0  0  0  0  0  0  0  0  0  0
   11.5111   11.1960   -1.8143 H   0  0  0  0  0  0  0  0  0  0  0  0
   12.9678   10.4251   -3.6911 H   0  0  0  0  0  0  0  0  0  0  0  0
   12.4301    8.2871   -4.8655 H   0  0  0  0  0  0  0  0  0  0  0  0
   10.4606    6.9536   -4.1878 H   0  0  0  0  0  0  0  0  0  0  0  0
    9.6389    5.5747   -2.4992 H   0  0  0  0  0  0  0  0  0  0  0  0
    7.7332    4.2264   -1.8424 H   0  0  0  0  0  0  0  0  0  0  0  0
  1  2  1  0
  1 34  1  0
  1 35  1  0
  1 36  1  0
  2  3  1  0
  3  4  2  0
  3 18  1  0
  4  5  1  0
  4 37  1  0
  5  6  2  0
  5 38  1  0
  6  7  1  0
  6 17  1  0
  7  8  2  0
  7 33  1  0
  8  9  1  0
  8 19  1  0
  9 10  1  0
  9 16  2  0
 10 11  2  0
 10 39  1  0
 11 12  1  0
 11 40  1  0
 12 13  1  0
 12 15  2  0
 13 14  1  0
 14 41  1  0
 14 42  1  0
 14 43  1  0
 15 16  1  0
 15 44  1  0
 16 17  1  0
 17 18  2  0
 18 45  1  0
 19 20  1  6
 19 21  1  0
 19 22  1  0
 20 46  1  0
 20 47  1  0
 20 48  1  0
 21 49  1  0
 21 50  1  0
 21 51  1  0
 22 23  1  0
 22 33  2  0
 23 24  2  0
 23 52  1  0
 24 25  1  0
 24 31  1  0
 25 26  2  0
 25 30  1  0
 26 27  1  0
 26 53  1  0
 27 28  2  0
 27 54  1  0
 28 29  1  0
 28 55  1  0
 29 30  2  0
 29 56  1  0
 30 57  1  0
 31 32  2  0
 31 58  1  0
 32 33  1  0
 32 59  1  0
M  END

