
     RDKit          3D

 31 32  0  0  0  0  0  0  0  0999 V2000
    2.9648   -0.3272   -2.4536 C   0  0  0  0  0  0  0  0  0  0  0  0
    3.1316   -0.0161   -0.9897 C   0  0  0  0  0  0  0  0  0  0  0  0
    3.5271    1.2453   -0.5354 C   0  0  0  0  0  0  0  0  0  0  0  0
    3.6857    1.5229    0.8284 C   0  0  0  0  0  0  0  0  0  0  0  0
    3.4463    0.5185    1.7634 C   0  0  0  0  0  0  0  0  0  0  0  0
    3.0489   -0.7572    1.3429 C   0  0  0  0  0  0  0  0  0  0  0  0
    2.8898   -1.0192   -0.0228 C   0  0  0  0  0  0  0  0  0  0  0  0
    2.4977   -2.2315   -0.5245 O   0  0  0  0  0  0  0  0  0  0  0  0
    2.3066   -3.3178    0.3551 C   0  0  0  0  0  0  0  0  0  0  0  0
    1.9612   -4.5838   -0.4353 C   0  0  0  0  0  0  0  0  0  0  0  0
    2.5737   -5.6051   -0.1954 O   0  0  0  0  0  0  0  0  0  0  0  0
    0.8505   -4.5611   -1.4393 C   0  0  0  0  0  0  0  0  0  0  0  0
   -0.0036   -3.4609   -1.6272 C   0  0  0  0  0  0  0  0  0  0  0  0
   -1.0497   -3.5208   -2.5506 C   0  0  0  0  0  0  0  0  0  0  0  0
   -1.2379   -4.6861   -3.3004 C   0  0  0  0  0  0  0  0  0  0  0  0
   -2.8210   -4.7795   -4.7124 I   0  0  0  0  0  0  0  0  0  0  0  0
   -0.3960   -5.7929   -3.1319 C   0  0  0  0  0  0  0  0  0  0  0  0
    0.6376   -5.7237   -2.2009 C   0  0  0  0  0  0  0  0  0  0  0  0
    3.2265    0.5420   -3.0740 H   0  0  0  0  0  0  0  0  0  0  0  0
    1.9279   -0.6194   -2.6893 H   0  0  0  0  0  0  0  0  0  0  0  0
    3.5991   -1.1764   -2.7562 H   0  0  0  0  0  0  0  0  0  0  0  0
    3.7187    2.0301   -1.2729 H   0  0  0  0  0  0  0  0  0  0  0  0
    3.9971    2.5186    1.1523 H   0  0  0  0  0  0  0  0  0  0  0  0
    3.5682    0.7160    2.8314 H   0  0  0  0  0  0  0  0  0  0  0  0
    2.8691   -1.5342    2.0862 H   0  0  0  0  0  0  0  0  0  0  0  0
    1.4883   -3.1093    1.0745 H   0  0  0  0  0  0  0  0  0  0  0  0
    3.2201   -3.5427    0.9297 H   0  0  0  0  0  0  0  0  0  0  0  0
    0.1456   -2.5426   -1.0591 H   0  0  0  0  0  0  0  0  0  0  0  0
   -1.7091   -2.6618   -2.6843 H   0  0  0  0  0  0  0  0  0  0  0  0
   -0.5470   -6.7003   -3.7191 H   0  0  0  0  0  0  0  0  0  0  0  0
    1.3016   -6.5758   -2.0418 H   0  0  0  0  0  0  0  0  0  0  0  0
  1  2  1  0
  1 19  1  0
  1 20  1  0
  1 21  1  0
  2  3  2  0
  2  7  1  0
  3  4  1  0
  3 22  1  0
  4  5  2  0
  4 23  1  0
  5  6  1  0
  5 24  1  0
  6  7  2  0
  6 25  1  0
  7  8  1  0
  8  9  1  0
  9 10  1  0
  9 26  1  0
  9 27  1  0
 10 11  2  0
 10 12  1  0
 12 13  2  0
 12 18  1  0
 13 14  1  0
 13 28  1  0
 14 15  2  0
 14 29  1  0
 15 16  1  0
 15 17  1  0
 17 18  2  0
 17 30  1  0
 18 31  1  0
M  END

