
     RDKit          3D

 44 46  0  0  0  0  0  0  0  0999 V2000
    5.3202   -1.3181    0.5533 C   0  0  0  0  0  0  0  0  0  0  0  0
    4.1143   -0.4996    0.5453 N   0  0  0  0  0  0  0  0  0  0  0  0
    4.1136    0.8512    0.7387 C   0  0  0  0  0  0  0  0  0  0  0  0
    2.8105    1.3224    0.6826 C   0  0  0  0  0  0  0  0  0  0  0  0
    1.9849    0.2029    0.4389 C   0  0  0  0  0  0  0  0  0  0  0  0
    2.8065   -0.9252    0.3546 C   0  0  0  0  0  0  0  0  0  0  0  0
    2.4906   -2.3519    0.1488 C   0  0  0  0  0  0  0  0  0  0  0  0
    3.3223   -3.2469    0.2947 O   0  0  0  0  0  0  0  0  0  0  0  0
    1.2064   -2.6735   -0.2096 N   0  0  0  0  0  0  0  0  0  0  0  0
    0.8057   -4.0029   -0.6648 C   0  0  0  0  0  0  0  0  0  0  0  0
   -0.4721   -3.3633   -1.2798 C   0  0  2  0  0  0  0  0  0  0  0  0
   -0.7096   -3.6805   -2.6882 N   0  0  0  0  0  0  0  0  0  0  0  0
   -0.7915   -5.1119   -3.0354 C   0  0  0  0  0  0  0  0  0  0  0  0
   -1.7688   -5.9236   -2.1957 C   0  0  0  0  0  0  0  0  0  0  0  0
   -3.1580   -5.8240   -2.3796 C   0  0  0  0  0  0  0  0  0  0  0  0
   -3.9957   -6.5993   -1.5776 C   0  0  0  0  0  0  0  0  0  0  0  0
   -3.4251   -7.4434   -0.6214 C   0  0  0  0  0  0  0  0  0  0  0  0
   -2.0325   -7.4675   -0.5101 C   0  0  0  0  0  0  0  0  0  0  0  0
   -1.2232   -6.7280   -1.2735 N   0  0  0  0  0  0  0  0  0  0  0  0
   -1.6814   -2.6050   -3.5694 S   0  0  1  0  0  0  0  0  0  0  0  0
   -0.5248   -1.7869   -4.6786 C   0  0  0  0  0  0  0  0  0  0  0  0
   -2.5871   -3.3777   -4.4305 O   0  0  0  0  0  0  0  0  0  0  0  0
   -2.2000   -1.5986   -2.6388 O   0  0  0  0  0  0  0  0  0  0  0  0
    0.1367   -1.9794   -0.9341 C   0  0  0  0  0  0  0  0  0  0  0  0
    6.1839   -0.6491    0.6705 H   0  0  0  0  0  0  0  0  0  0  0  0
    5.4173   -1.8834   -0.3829 H   0  0  0  0  0  0  0  0  0  0  0  0
    5.2959   -2.0465    1.3737 H   0  0  0  0  0  0  0  0  0  0  0  0
    5.0479    1.3854    0.9023 H   0  0  0  0  0  0  0  0  0  0  0  0
    2.4969    2.3569    0.8067 H   0  0  0  0  0  0  0  0  0  0  0  0
    0.9017    0.2114    0.3588 H   0  0  0  0  0  0  0  0  0  0  0  0
    0.6374   -4.7456    0.1287 H   0  0  0  0  0  0  0  0  0  0  0  0
    1.5088   -4.4287   -1.3995 H   0  0  0  0  0  0  0  0  0  0  0  0
   -1.3646   -3.5683   -0.6672 H   0  0  0  0  0  0  0  0  0  0  0  0
    0.2049   -5.5568   -2.9000 H   0  0  0  0  0  0  0  0  0  0  0  0
   -1.0599   -5.1808   -4.0973 H   0  0  0  0  0  0  0  0  0  0  0  0
   -3.5555   -5.1445   -3.1360 H   0  0  0  0  0  0  0  0  0  0  0  0
   -5.0808   -6.5469   -1.6995 H   0  0  0  0  0  0  0  0  0  0  0  0
   -4.0427   -8.0695    0.0266 H   0  0  0  0  0  0  0  0  0  0  0  0
   -1.5473   -8.1136    0.2311 H   0  0  0  0  0  0  0  0  0  0  0  0
   -0.0513   -2.5456   -5.3145 H   0  0  0  0  0  0  0  0  0  0  0  0
    0.2213   -1.2408   -4.0887 H   0  0  0  0  0  0  0  0  0  0  0  0
   -1.1232   -1.0937   -5.2858 H   0  0  0  0  0  0  0  0  0  0  0  0
   -0.5149   -1.3355   -0.3265 H   0  0  0  0  0  0  0  0  0  0  0  0
    0.5002   -1.3971   -1.7961 H   0  0  0  0  0  0  0  0  0  0  0  0
  1  2  1  0
  1 25  1  0
  1 26  1  0
  1 27  1  0
  2  3  1  0
  2  6  1  0
  3  4  2  0
  3 28  1  0
  4  5  1  0
  4 29  1  0
  5  6  2  0
  5 30  1  0
  6  7  1  0
  7  8  2  0
  7  9  1  0
  9 10  1  0
  9 24  1  0
 10 11  1  0
 10 31  1  0
 10 32  1  0
 11 12  1  0
 11 24  1  0
 11 33  1  1
 12 13  1  0
 20 12  1  1
 13 14  1  0
 13 34  1  0
 13 35  1  0
 14 15  2  0
 14 19  1  0
 15 16  1  0
 15 36  1  0
 16 17  2  0
 16 37  1  0
 17 18  1  0
 17 38  1  0
 18 19  2  0
 18 39  1  0
 20 21  1  0
 20 22  2  0
 20 23  2  0
 21 40  1  0
 21 41  1  0
 21 42  1  0
 24 43  1  0
 24 44  1  0
M  END

