
     RDKit          3D

 50 53  0  0  0  0  0  0  0  0999 V2000
    9.2887   -5.8344    3.8420 C   0  0  0  0  0  0  0  0  0  0  0  0
    8.7298   -4.9652    2.7438 C   0  0  0  0  0  0  0  0  0  0  0  0
    7.6795   -5.4085    1.9223 C   0  0  0  0  0  0  0  0  0  0  0  0
    7.1743   -4.6021    0.9054 C   0  0  0  0  0  0  0  0  0  0  0  0
    7.7027   -3.3200    0.6750 C   0  0  0  0  0  0  0  0  0  0  0  0
    7.0876   -2.4946   -0.4119 C   0  0  0  0  0  0  0  0  0  0  0  0
    6.1770   -2.9309   -1.0924 O   0  0  0  0  0  0  0  0  0  0  0  0
    7.5720   -1.0567   -0.6567 C   0  0  0  0  0  0  0  0  0  0  0  0
    8.9824   -0.9693   -1.0132 N   0  0  0  0  0  0  0  0  0  0  0  0
    9.3650   -1.6697   -2.2362 C   0  0  0  0  0  0  0  0  0  0  0  0
    8.9771   -0.9252   -3.5231 C   0  0  0  0  0  0  0  0  0  0  0  0
    9.4534    0.4528   -3.4760 N   0  0  0  0  0  0  0  0  0  0  0  0
    9.6874    1.1579   -4.6270 C   0  0  0  0  0  0  0  0  0  0  0  0
    9.9006    2.4420   -4.6778 N   0  0  0  0  0  0  0  0  0  0  0  0
   10.1590    2.8790   -5.9621 C   0  0  0  0  0  0  0  0  0  0  0  0
   10.4307    4.3143   -6.1951 C   0  0  0  0  0  0  0  0  0  0  0  0
   10.7611    4.8128   -7.4699 C   0  0  0  0  0  0  0  0  0  0  0  0
   11.0093    6.1711   -7.6656 C   0  0  0  0  0  0  0  0  0  0  0  0
   10.9347    7.0649   -6.5913 C   0  0  0  0  0  0  0  0  0  0  0  0
   10.6098    6.5827   -5.3204 C   0  0  0  0  0  0  0  0  0  0  0  0
   10.3609    5.2229   -5.1233 C   0  0  0  0  0  0  0  0  0  0  0  0
   10.1269    1.8967   -6.9222 C   0  0  0  0  0  0  0  0  0  0  0  0
    9.7555    0.3537   -6.2084 S   0  0  0  0  0  0  0  0  0  0  0  0
    9.1426    1.2022   -2.2578 C   0  0  0  0  0  0  0  0  0  0  0  0
    9.5329    0.3842   -1.0218 C   0  0  0  0  0  0  0  0  0  0  0  0
    8.7576   -2.8714    1.4913 C   0  0  0  0  0  0  0  0  0  0  0  0
    9.2571   -3.6836    2.5077 C   0  0  0  0  0  0  0  0  0  0  0  0
    8.7168   -6.7671    3.9535 H   0  0  0  0  0  0  0  0  0  0  0  0
    9.2777   -5.3097    4.8116 H   0  0  0  0  0  0  0  0  0  0  0  0
   10.3384   -6.1056    3.6374 H   0  0  0  0  0  0  0  0  0  0  0  0
    7.2516   -6.4014    2.0872 H   0  0  0  0  0  0  0  0  0  0  0  0
    6.3543   -4.9434    0.2704 H   0  0  0  0  0  0  0  0  0  0  0  0
    7.4239   -0.4826    0.2750 H   0  0  0  0  0  0  0  0  0  0  0  0
    6.8736   -0.6417   -1.4100 H   0  0  0  0  0  0  0  0  0  0  0  0
    8.9186   -2.6756   -2.2494 H   0  0  0  0  0  0  0  0  0  0  0  0
   10.4613   -1.7982   -2.2229 H   0  0  0  0  0  0  0  0  0  0  0  0
    7.8796   -0.9599   -3.6792 H   0  0  0  0  0  0  0  0  0  0  0  0
    9.4408   -1.4392   -4.3791 H   0  0  0  0  0  0  0  0  0  0  0  0
   10.8303    4.1334   -8.3222 H   0  0  0  0  0  0  0  0  0  0  0  0
   11.2647    6.5352   -8.6642 H   0  0  0  0  0  0  0  0  0  0  0  0
   11.1299    8.1292   -6.7456 H   0  0  0  0  0  0  0  0  0  0  0  0
   10.5490    7.2712   -4.4732 H   0  0  0  0  0  0  0  0  0  0  0  0
   10.1064    4.8403   -4.1344 H   0  0  0  0  0  0  0  0  0  0  0  0
   10.2817    1.9781   -7.9948 H   0  0  0  0  0  0  0  0  0  0  0  0
    8.0642    1.4608   -2.2335 H   0  0  0  0  0  0  0  0  0  0  0  0
    9.6975    2.1483   -2.2892 H   0  0  0  0  0  0  0  0  0  0  0  0
    9.2119    0.9160   -0.1117 H   0  0  0  0  0  0  0  0  0  0  0  0
   10.6338    0.3037   -0.9864 H   0  0  0  0  0  0  0  0  0  0  0  0
    9.2063   -1.8952    1.3077 H   0  0  0  0  0  0  0  0  0  0  0  0
   10.0785   -3.3182    3.1312 H   0  0  0  0  0  0  0  0  0  0  0  0
  1  2  1  0
  1 28  1  0
  1 29  1  0
  1 30  1  0
  2  3  2  0
  2 27  1  0
  3  4  1  0
  3 31  1  0
  4  5  2  0
  4 32  1  0
  5  6  1  0
  5 26  1  0
  6  7  2  0
  6  8  1  0
  8  9  1  0
  8 33  1  0
  8 34  1  0
  9 10  1  0
  9 25  1  0
 10 11  1  0
 10 35  1  0
 10 36  1  0
 11 12  1  0
 11 37  1  0
 11 38  1  0
 12 13  1  0
 12 24  1  0
 13 14  2  0
 13 23  1  0
 14 15  1  0
 15 16  1  0
 15 22  2  0
 16 17  2  0
 16 21  1  0
 17 18  1  0
 17 39  1  0
 18 19  2  0
 18 40  1  0
 19 20  1  0
 19 41  1  0
 20 21  2  0
 20 42  1  0
 21 43  1  0
 22 23  1  0
 22 44  1  0
 24 25  1  0
 24 45  1  0
 24 46  1  0
 25 47  1  0
 25 48  1  0
 26 27  2  0
 26 49  1  0
 27 50  1  0
M  END

