
     RDKit          3D

 26 25  0  0  0  0  0  0  0  0999 V2000
    1.1008    0.2072    0.0212 C   0  0  0  0  0  0  0  0  0  0  0  0
    2.6153    0.0006   -0.0189 C   0  0  0  0  0  0  0  0  0  0  0  0
    3.1141   -1.2010    0.8073 C   0  0  1  0  0  0  0  0  0  0  0  0
    2.5114   -2.5724    0.3840 C   0  0  0  0  0  0  0  0  0  0  0  0
    2.6990   -2.9603   -1.0839 C   0  0  0  0  0  0  0  0  0  0  0  0
    4.6348   -1.2926    0.7545 C   0  0  0  0  0  0  0  0  0  0  0  0
    5.2716   -1.1051   -0.2541 O   0  0  0  0  0  0  0  0  0  0  0  0
    5.3692   -1.7143    2.0637 C   0  0  1  0  0  0  0  0  0  0  0  0
    6.8708   -1.9352    1.8425 C   0  0  0  0  0  0  0  0  0  0  0  0
    5.1028   -0.7303    3.1208 C   0  0  0  0  0  0  0  0  0  0  0  0
    4.8998    0.0618    3.9425 N   0  0  0  0  0  0  0  0  0  0  0  0
    0.8207    1.1272   -0.5157 H   0  0  0  0  0  0  0  0  0  0  0  0
    0.7330    0.3046    1.0565 H   0  0  0  0  0  0  0  0  0  0  0  0
    0.5522   -0.6239   -0.4499 H   0  0  0  0  0  0  0  0  0  0  0  0
    3.1134    0.9063    0.3669 H   0  0  0  0  0  0  0  0  0  0  0  0
    2.9641   -0.1077   -1.0579 H   0  0  0  0  0  0  0  0  0  0  0  0
    2.8238   -1.0429    1.8603 H   0  0  0  0  0  0  0  0  0  0  0  0
    1.4368   -2.5550    0.6300 H   0  0  0  0  0  0  0  0  0  0  0  0
    2.9405   -3.3597    1.0298 H   0  0  0  0  0  0  0  0  0  0  0  0
    2.1740   -2.2676   -1.7599 H   0  0  0  0  0  0  0  0  0  0  0  0
    2.2942   -3.9681   -1.2680 H   0  0  0  0  0  0  0  0  0  0  0  0
    3.7600   -2.9626   -1.3772 H   0  0  0  0  0  0  0  0  0  0  0  0
    4.8925   -2.6571    2.3921 H   0  0  0  0  0  0  0  0  0  0  0  0
    7.3495   -1.0090    1.4959 H   0  0  0  0  0  0  0  0  0  0  0  0
    7.0230   -2.7002    1.0685 H   0  0  0  0  0  0  0  0  0  0  0  0
    7.3571   -2.2626    2.7724 H   0  0  0  0  0  0  0  0  0  0  0  0
  1  2  1  0
  1 12  1  0
  1 13  1  0
  1 14  1  0
  2  3  1  0
  2 15  1  0
  2 16  1  0
  3  4  1  0
  3  6  1  0
  3 17  1  1
  4  5  1  0
  4 18  1  0
  4 19  1  0
  5 20  1  0
  5 21  1  0
  5 22  1  0
  6  7  2  0
  6  8  1  0
  8  9  1  0
  8 10  1  0
  8 23  1  1
  9 24  1  0
  9 25  1  0
  9 26  1  0
 10 11  3  0
M  END

