
     RDKit          3D

 42 43  0  0  0  0  0  0  0  0999 V2000
    1.3854   -0.7390    0.6889 N   0  0  0  0  0  0  0  0  0  0  0  0
    2.6898   -0.3830    0.4308 C   0  0  0  0  0  0  0  0  0  0  0  0
    3.3537   -1.0436   -0.7695 C   0  0  0  0  0  0  0  0  0  0  0  0
    2.4791   -1.9811   -1.4641 N   0  0  0  0  0  0  0  0  0  0  0  0
    2.6201   -2.0146   -2.9223 C   0  0  0  0  0  0  0  0  0  0  0  0
    3.8545   -2.7885   -3.4064 C   0  0  0  0  0  0  0  0  0  0  0  0
    3.8777   -4.2237   -2.8370 C   0  0  2  0  0  0  0  0  0  0  0  0
    2.8675   -5.0888   -3.4462 N   0  0  0  0  0  0  0  0  0  0  0  0
    3.0851   -5.6732   -4.6761 C   0  0  0  0  0  0  0  0  0  0  0  0
    4.1322   -5.5379   -5.2880 O   0  0  0  0  0  0  0  0  0  0  0  0
    2.0092   -6.4304   -5.1249 N   0  0  0  0  0  0  0  0  0  0  0  0
    1.8767   -7.1360   -6.3337 C   0  0  0  0  0  0  0  0  0  0  0  0
    0.6767   -7.8431   -6.5432 C   0  0  0  0  0  0  0  0  0  0  0  0
    0.4686   -8.5621   -7.7195 C   0  0  0  0  0  0  0  0  0  0  0  0
    1.4519   -8.5909   -8.7127 C   0  0  0  0  0  0  0  0  0  0  0  0
    2.6431   -7.8899   -8.5052 C   0  0  0  0  0  0  0  0  0  0  0  0
    2.8685   -7.1657   -7.3320 C   0  0  0  0  0  0  0  0  0  0  0  0
    3.6920   -4.1812   -1.3104 C   0  0  0  0  0  0  0  0  0  0  0  0
    2.4747   -3.3330   -0.8969 C   0  0  0  0  0  0  0  0  0  0  0  0
    3.2951    0.4479    1.2034 N   0  0  0  0  0  0  0  0  0  0  0  0
    4.6381    0.6173    0.7930 O   0  0  0  0  0  0  0  0  0  0  0  0
    0.8812   -1.0494   -0.1368 H   0  0  0  0  0  0  0  0  0  0  0  0
    0.8834   -0.1380    1.3333 H   0  0  0  0  0  0  0  0  0  0  0  0
    4.3090   -1.4818   -0.4213 H   0  0  0  0  0  0  0  0  0  0  0  0
    3.6527   -0.2361   -1.4568 H   0  0  0  0  0  0  0  0  0  0  0  0
    2.6316   -0.9812   -3.3027 H   0  0  0  0  0  0  0  0  0  0  0  0
    1.7107   -2.4860   -3.3397 H   0  0  0  0  0  0  0  0  0  0  0  0
    4.7714   -2.2664   -3.0811 H   0  0  0  0  0  0  0  0  0  0  0  0
    3.8885   -2.8329   -4.5063 H   0  0  0  0  0  0  0  0  0  0  0  0
    4.8470   -4.6801   -3.0840 H   0  0  0  0  0  0  0  0  0  0  0  0
    1.9356   -5.0896   -3.0508 H   0  0  0  0  0  0  0  0  0  0  0  0
    1.2261   -6.5347   -4.4911 H   0  0  0  0  0  0  0  0  0  0  0  0
   -0.1013   -7.8267   -5.7730 H   0  0  0  0  0  0  0  0  0  0  0  0
   -0.4713   -9.1031   -7.8577 H   0  0  0  0  0  0  0  0  0  0  0  0
    1.2914   -9.1533   -9.6354 H   0  0  0  0  0  0  0  0  0  0  0  0
    3.4230   -7.9037   -9.2715 H   0  0  0  0  0  0  0  0  0  0  0  0
    3.7988   -6.6265   -7.1713 H   0  0  0  0  0  0  0  0  0  0  0  0
    4.6035   -3.7492   -0.8656 H   0  0  0  0  0  0  0  0  0  0  0  0
    3.5999   -5.2045   -0.9098 H   0  0  0  0  0  0  0  0  0  0  0  0
    2.4064   -3.2572    0.1985 H   0  0  0  0  0  0  0  0  0  0  0  0
    1.5399   -3.8332   -1.2178 H   0  0  0  0  0  0  0  0  0  0  0  0
    4.9742    1.2335    1.4541 H   0  0  0  0  0  0  0  0  0  0  0  0
  1  2  1  0
  1 22  1  0
  1 23  1  0
  2  3  1  0
  2 20  2  0
  3  4  1  0
  3 24  1  0
  3 25  1  0
  4  5  1  0
  4 19  1  0
  5  6  1  0
  5 26  1  0
  5 27  1  0
  6  7  1  0
  6 28  1  0
  6 29  1  0
  7  8  1  0
  7 18  1  0
  7 30  1  1
  8  9  1  0
  8 31  1  0
  9 10  2  0
  9 11  1  0
 11 12  1  0
 11 32  1  0
 12 13  2  0
 12 17  1  0
 13 14  1  0
 13 33  1  0
 14 15  2  0
 14 34  1  0
 15 16  1  0
 15 35  1  0
 16 17  2  0
 16 36  1  0
 17 37  1  0
 18 19  1  0
 18 38  1  0
 18 39  1  0
 19 40  1  0
 19 41  1  0
 20 21  1  0
 21 42  1  0
M  END

