
     RDKit          3D

 41 43  0  0  0  0  0  0  0  0999 V2000
    1.3860   -0.4168   -0.8188 C   0  0  0  0  0  0  0  0  0  0  0  0
    2.5506    0.1668   -0.1756 N   0  0  0  0  0  0  0  0  0  0  0  0
    3.1521   -0.6148    0.8970 C   0  0  0  0  0  0  0  0  0  0  0  0
    2.3868   -0.5676    2.2276 C   0  0  2  0  0  0  0  0  0  0  0  0
    2.2889    0.8339    2.9183 C   0  0  0  0  0  0  0  0  0  0  0  0
    2.7280    0.5481    4.3730 C   0  0  2  0  0  0  0  0  0  0  0  0
    4.2566    0.3172    4.3895 C   0  0  0  0  0  0  0  0  0  0  0  0
    4.4099   -1.0778    3.7029 C   0  0  0  0  0  0  0  0  0  0  0  0
    2.9508   -1.4656    3.3634 C   0  0  1  0  0  0  0  0  0  0  0  0
    2.2008   -0.8881    4.5827 C   0  0  0  0  0  0  0  0  0  0  0  0
    3.0979    1.3082   -0.7524 C   0  0  0  0  0  0  0  0  0  0  0  0
    2.6301    1.8093   -1.7668 O   0  0  0  0  0  0  0  0  0  0  0  0
    4.2021    1.8549   -0.1225 N   0  0  0  0  0  0  0  0  0  0  0  0
    4.8611    3.0323   -0.6234 C   0  0  1  0  0  0  0  0  0  0  0  0
    5.0105    4.2825    0.2855 C   0  0  0  0  0  0  0  0  0  0  0  0
    6.4085    4.5107   -0.3456 C   0  0  0  0  0  0  0  0  0  0  0  0
    6.4027    3.0296   -0.8052 C   0  0  0  0  0  0  0  0  0  0  0  0
    0.5472   -0.5296   -0.1106 H   0  0  0  0  0  0  0  0  0  0  0  0
    1.6195   -1.4162   -1.2316 H   0  0  0  0  0  0  0  0  0  0  0  0
    1.0752    0.2410   -1.6378 H   0  0  0  0  0  0  0  0  0  0  0  0
    4.1968   -0.3047    1.0350 H   0  0  0  0  0  0  0  0  0  0  0  0
    3.2086   -1.6691    0.5628 H   0  0  0  0  0  0  0  0  0  0  0  0
    1.3650   -0.9259    2.0193 H   0  0  0  0  0  0  0  0  0  0  0  0
    1.2602    1.2242    2.8804 H   0  0  0  0  0  0  0  0  0  0  0  0
    2.9260    1.5922    2.4360 H   0  0  0  0  0  0  0  0  0  0  0  0
    2.3863    1.3027    5.0969 H   0  0  0  0  0  0  0  0  0  0  0  0
    4.6404    0.2972    5.4217 H   0  0  0  0  0  0  0  0  0  0  0  0
    4.7997    1.1185    3.8627 H   0  0  0  0  0  0  0  0  0  0  0  0
    4.8413   -1.8159    4.3972 H   0  0  0  0  0  0  0  0  0  0  0  0
    5.0720   -1.0575    2.8242 H   0  0  0  0  0  0  0  0  0  0  0  0
    2.8125   -2.5413    3.1750 H   0  0  0  0  0  0  0  0  0  0  0  0
    2.5152   -1.3342    5.5402 H   0  0  0  0  0  0  0  0  0  0  0  0
    1.1050   -0.9695    4.4992 H   0  0  0  0  0  0  0  0  0  0  0  0
    4.4945    1.5107    0.7807 H   0  0  0  0  0  0  0  0  0  0  0  0
    4.3538    3.2920   -1.5620 H   0  0  0  0  0  0  0  0  0  0  0  0
    5.0918    3.9945    1.3475 H   0  0  0  0  0  0  0  0  0  0  0  0
    4.2516    5.0753    0.1956 H   0  0  0  0  0  0  0  0  0  0  0  0
    7.2213    4.8329    0.3220 H   0  0  0  0  0  0  0  0  0  0  0  0
    6.3636    5.2044   -1.1993 H   0  0  0  0  0  0  0  0  0  0  0  0
    6.8883    2.3753   -0.0616 H   0  0  0  0  0  0  0  0  0  0  0  0
    6.8014    2.7821   -1.8015 H   0  0  0  0  0  0  0  0  0  0  0  0
  1  2  1  0
  1 18  1  0
  1 19  1  0
  1 20  1  0
  2  3  1  0
  2 11  1  0
  3  4  1  0
  3 21  1  0
  3 22  1  0
  4  5  1  0
  4  9  1  0
  4 23  1  6
  5  6  1  0
  5 24  1  0
  5 25  1  0
  6  7  1  0
  6 10  1  0
  6 26  1  1
  7  8  1  0
  7 27  1  0
  7 28  1  0
  8  9  1  0
  8 29  1  0
  8 30  1  0
  9 10  1  0
  9 31  1  6
 10 32  1  0
 10 33  1  0
 11 12  2  0
 11 13  1  0
 13 14  1  0
 13 34  1  0
 14 15  1  0
 14 17  1  0
 14 35  1  6
 15 16  1  0
 15 36  1  0
 15 37  1  0
 16 17  1  0
 16 38  1  0
 16 39  1  0
 17 40  1  0
 17 41  1  0
M  END

