
     RDKit          3D

 28 30  0  0  0  0  0  0  0  0999 V2000
    1.1703    0.1136    1.0417 N   0  0  0  0  0  0  0  0  0  0  0  0
    2.2196    0.1286    0.5996 N   0  0  0  0  0  0  0  0  0  0  0  0
    3.3090    0.0313    0.0433 N   0  0  0  0  0  0  0  0  0  0  0  0
    4.3914    0.9334    0.4779 C   0  0  1  0  0  0  0  0  0  0  0  0
    5.6774    0.4950   -0.2461 C   0  0  0  0  0  0  0  0  0  0  0  0
    5.7652    1.4415   -1.4364 C   0  0  0  0  0  0  0  0  0  0  0  0
    6.6388    1.2173   -2.5989 C   0  0  0  0  0  0  0  0  0  0  0  0
    6.2817    1.5979   -3.8714 C   0  0  0  0  0  0  0  0  0  0  0  0
    7.4490    1.2390   -5.1027 S   0  0  0  0  0  0  0  0  0  0  0  0
    8.5177    0.5237   -3.9017 C   0  0  0  0  0  0  0  0  0  0  0  0
    9.7005    0.0137   -4.2161 N   0  0  0  0  0  0  0  0  0  0  0  0
   10.4164   -0.4929   -3.2149 C   0  0  0  0  0  0  0  0  0  0  0  0
    9.9763   -0.4979   -1.8784 C   0  0  0  0  0  0  0  0  0  0  0  0
    8.7343    0.0434   -1.5623 C   0  0  0  0  0  0  0  0  0  0  0  0
    7.9451    0.5791   -2.5983 C   0  0  0  0  0  0  0  0  0  0  0  0
    4.9097    2.4748   -1.2836 C   0  0  0  0  0  0  0  0  0  0  0  0
    4.1480    2.4058    0.0133 C   0  0  2  0  0  0  0  0  0  0  0  0
    4.5907    3.3662    0.9601 O   0  0  0  0  0  0  0  0  0  0  0  0
    4.4847    0.9122    1.5771 H   0  0  0  0  0  0  0  0  0  0  0  0
    5.6192   -0.5623   -0.5445 H   0  0  0  0  0  0  0  0  0  0  0  0
    6.5547    0.5998    0.4142 H   0  0  0  0  0  0  0  0  0  0  0  0
    5.3368    2.0606   -4.1546 H   0  0  0  0  0  0  0  0  0  0  0  0
   11.3928   -0.9169   -3.4752 H   0  0  0  0  0  0  0  0  0  0  0  0
   10.6122   -0.9238   -1.0995 H   0  0  0  0  0  0  0  0  0  0  0  0
    8.3880    0.0489   -0.5282 H   0  0  0  0  0  0  0  0  0  0  0  0
    4.8157    3.3202   -1.9688 H   0  0  0  0  0  0  0  0  0  0  0  0
    3.0680    2.5942   -0.1065 H   0  0  0  0  0  0  0  0  0  0  0  0
    5.5498    3.4521    0.8682 H   0  0  0  0  0  0  0  0  0  0  0  0
  1  2  1  0
  2  3  3  0
  3  4  1  0
  4  5  1  0
  4 17  1  0
  4 19  1  1
  5  6  1  0
  5 20  1  0
  5 21  1  0
  6  7  1  0
  6 16  2  0
  7  8  2  0
  7 15  1  0
  8  9  1  0
  8 22  1  0
  9 10  1  0
 10 11  1  0
 10 15  2  0
 11 12  2  0
 12 13  1  0
 12 23  1  0
 13 14  2  0
 13 24  1  0
 14 15  1  0
 14 25  1  0
 16 17  1  0
 16 26  1  0
 17 18  1  0
 17 27  1  6
 18 28  1  0
M  CHG  3   1  -2   2   1   3   1
M  END

