
     RDKit          3D

 39 41  0  0  0  0  0  0  0  0999 V2000
    0.6689    0.4056   -0.2749 C   0  0  0  0  0  0  0  0  0  0  0  0
    2.1564    0.1222    0.0077 C   0  0  1  0  0  0  0  0  0  0  0  0
    2.3070    0.1350    1.5393 C   0  0  0  0  0  0  0  0  0  0  0  0
    2.6960   -1.1734   -0.6753 C   0  0  1  0  0  0  0  0  0  0  0  0
    2.5225   -0.8641   -2.1796 C   0  0  0  0  0  0  0  0  0  0  0  0
    2.8323    0.6607   -2.2553 C   0  0  0  0  0  0  0  0  0  0  0  0
    3.1512    1.0555   -0.7846 C   0  0  1  0  0  0  0  0  0  0  0  0
    3.0979    2.5522   -0.5214 C   0  0  0  0  0  0  0  0  0  0  0  0
    4.5553    0.3952   -0.5188 C   0  0  1  0  0  0  0  0  0  0  0  0
    5.3243    0.9235    0.5964 N   0  0  0  0  0  0  0  0  0  0  0  0
    6.3477    1.8069    0.4167 C   0  0  0  0  0  0  0  0  0  0  0  0
    6.6728    2.2429   -0.6804 O   0  0  0  0  0  0  0  0  0  0  0  0
    7.0988    2.2497    1.6337 C   0  0  0  0  0  0  0  0  0  0  0  0
    8.1666    3.2130    1.5417 C   0  0  0  0  0  0  0  0  0  0  0  0
    8.6451    3.3953    2.8002 C   0  0  0  0  0  0  0  0  0  0  0  0
    7.9544    2.6128    3.6828 O   0  0  0  0  0  0  0  0  0  0  0  0
    7.0351    1.9341    2.9727 C   0  0  0  0  0  0  0  0  0  0  0  0
    5.9552    0.7740    3.9736 Br  0  0  0  0  0  0  0  0  0  0  0  0
    4.2081   -1.1173   -0.3706 C   0  0  0  0  0  0  0  0  0  0  0  0
    0.0414   -0.3915    0.1575 H   0  0  0  0  0  0  0  0  0  0  0  0
    0.4205    0.4765   -1.3416 H   0  0  0  0  0  0  0  0  0  0  0  0
    0.3590    1.3524    0.1967 H   0  0  0  0  0  0  0  0  0  0  0  0
    1.5763   -0.5541    1.9942 H   0  0  0  0  0  0  0  0  0  0  0  0
    2.1025    1.1381    1.9471 H   0  0  0  0  0  0  0  0  0  0  0  0
    3.2939   -0.1748    1.9053 H   0  0  0  0  0  0  0  0  0  0  0  0
    2.2168   -2.1111   -0.3520 H   0  0  0  0  0  0  0  0  0  0  0  0
    1.5024   -1.0907   -2.5238 H   0  0  0  0  0  0  0  0  0  0  0  0
    3.2055   -1.4683   -2.7965 H   0  0  0  0  0  0  0  0  0  0  0  0
    1.9725    1.2328   -2.6347 H   0  0  0  0  0  0  0  0  0  0  0  0
    3.6795    0.8931   -2.9185 H   0  0  0  0  0  0  0  0  0  0  0  0
    2.1047    2.9640   -0.7630 H   0  0  0  0  0  0  0  0  0  0  0  0
    3.8429    3.0812   -1.1367 H   0  0  0  0  0  0  0  0  0  0  0  0
    3.3169    2.7915    0.5311 H   0  0  0  0  0  0  0  0  0  0  0  0
    5.1878    0.5831   -1.3958 H   0  0  0  0  0  0  0  0  0  0  0  0
    5.1031    0.6207    1.5369 H   0  0  0  0  0  0  0  0  0  0  0  0
    8.4951    3.6798    0.6169 H   0  0  0  0  0  0  0  0  0  0  0  0
    9.4309    4.0093    3.2308 H   0  0  0  0  0  0  0  0  0  0  0  0
    4.4341   -1.4737    0.6456 H   0  0  0  0  0  0  0  0  0  0  0  0
    4.7930   -1.7457   -1.0592 H   0  0  0  0  0  0  0  0  0  0  0  0
  2  1  1  1
  1 20  1  0
  1 21  1  0
  1 22  1  0
  2  3  1  0
  2  4  1  0
  2  7  1  0
  3 23  1  0
  3 24  1  0
  3 25  1  0
  4  5  1  0
  4 19  1  0
  4 26  1  1
  5  6  1  0
  5 27  1  0
  5 28  1  0
  6  7  1  0
  6 29  1  0
  6 30  1  0
  7  8  1  6
  7  9  1  0
  8 31  1  0
  8 32  1  0
  8 33  1  0
  9 10  1  0
  9 19  1  0
  9 34  1  6
 10 11  1  0
 10 35  1  0
 11 12  2  0
 11 13  1  0
 13 14  1  0
 13 17  2  0
 14 15  2  0
 14 36  1  0
 15 16  1  0
 15 37  1  0
 16 17  1  0
 17 18  1  0
 19 38  1  0
 19 39  1  0
M  END

