
     RDKit          3D

 35 36  0  0  0  0  0  0  0  0999 V2000
    0.9648   -0.2070    0.1872 C   0  0  0  0  0  0  0  0  0  0  0  0
    2.4125    0.0686   -0.0498 C   0  0  0  0  0  0  0  0  0  0  0  0
    3.0433    1.2936   -0.2647 C   0  0  0  0  0  0  0  0  0  0  0  0
    2.2566    2.5751   -0.3208 C   0  0  0  0  0  0  0  0  0  0  0  0
    1.1008    2.6288   -0.7190 O   0  0  0  0  0  0  0  0  0  0  0  0
    2.9419    3.6907    0.0830 N   0  0  0  0  0  0  0  0  0  0  0  0
    2.3032    4.9906    0.1694 C   0  0  1  0  0  0  0  0  0  0  0  0
    1.2215    4.8239    0.0295 H   0  0  0  0  0  0  0  0  0  0  0  0
    2.5873    5.5367    1.5771 C   0  0  0  0  0  0  0  0  0  0  0  0
    3.5933    5.2694    2.1791 O   0  0  0  0  0  0  0  0  0  0  0  0
    1.6662    6.3628    2.1047 O   0  0  0  0  0  0  0  0  0  0  0  0
    2.7992    5.9806   -0.9311 C   0  0  1  0  0  0  0  0  0  0  0  0
    2.5956    5.3848   -2.3285 C   0  0  0  0  0  0  0  0  0  0  0  0
    2.1264    7.3559   -0.8222 C   0  0  0  0  0  0  0  0  0  0  0  0
    4.4595    1.3029   -0.4769 C   0  0  0  0  0  0  0  0  0  0  0  0
    5.2362    0.2438   -0.4761 N   0  0  0  0  0  0  0  0  0  0  0  0
    4.6374   -0.9326   -0.2489 C   0  0  0  0  0  0  0  0  0  0  0  0
    5.1452   -2.1562   -0.1777 N   0  0  0  0  0  0  0  0  0  0  0  0
    4.0641   -2.9247    0.0645 C   0  0  0  0  0  0  0  0  0  0  0  0
    2.8913   -2.2969    0.1565 N   0  0  0  0  0  0  0  0  0  0  0  0
    3.2469   -1.0126   -0.0432 N   0  0  0  0  0  0  0  0  0  0  0  0
    0.3874    0.7189    0.2420 H   0  0  0  0  0  0  0  0  0  0  0  0
    0.8517   -0.8133    1.0991 H   0  0  0  0  0  0  0  0  0  0  0  0
    0.5738   -0.8233   -0.6391 H   0  0  0  0  0  0  0  0  0  0  0  0
    3.7916    3.5973    0.6337 H   0  0  0  0  0  0  0  0  0  0  0  0
    0.9027    6.4471    1.5154 H   0  0  0  0  0  0  0  0  0  0  0  0
    3.8833    6.1133   -0.7611 H   0  0  0  0  0  0  0  0  0  0  0  0
    1.5279    5.2049   -2.5336 H   0  0  0  0  0  0  0  0  0  0  0  0
    3.1247    4.4285   -2.4454 H   0  0  0  0  0  0  0  0  0  0  0  0
    2.9793    6.0752   -3.0959 H   0  0  0  0  0  0  0  0  0  0  0  0
    1.0302    7.2727   -0.9356 H   0  0  0  0  0  0  0  0  0  0  0  0
    2.4800    8.0155   -1.6294 H   0  0  0  0  0  0  0  0  0  0  0  0
    2.3394    7.8640    0.1300 H   0  0  0  0  0  0  0  0  0  0  0  0
    4.9510    2.2600   -0.6852 H   0  0  0  0  0  0  0  0  0  0  0  0
    4.1211   -4.0074    0.1830 H   0  0  0  0  0  0  0  0  0  0  0  0
  1  2  1  0
  1 22  1  0
  1 23  1  0
  1 24  1  0
  2  3  2  0
  2 21  1  0
  3  4  1  0
  3 15  1  0
  4  5  2  0
  4  6  1  0
  6  7  1  0
  6 25  1  0
  7  8  1  1
  7  9  1  0
  7 12  1  0
  9 10  2  0
  9 11  1  0
 11 26  1  0
 12 13  1  0
 12 14  1  0
 12 27  1  1
 13 28  1  0
 13 29  1  0
 13 30  1  0
 14 31  1  0
 14 32  1  0
 14 33  1  0
 15 16  2  0
 15 34  1  0
 16 17  1  0
 17 18  2  0
 17 21  1  0
 18 19  1  0
 19 20  2  0
 19 35  1  0
 20 21  1  0
M  END

