
     RDKit          3D

 42 42  0  0  0  0  0  0  0  0999 V2000
    0.4866    0.4240    1.2006 C   0  0  0  0  0  0  0  0  0  0  0  0
    1.8237   -0.2802    1.3476 C   0  0  0  0  0  0  0  0  0  0  0  0
    2.8534    0.6324    1.0403 O   0  0  0  0  0  0  0  0  0  0  0  0
    4.1837    0.1532    1.2014 C   0  0  1  0  0  0  0  0  0  0  0  0
    4.6352   -0.7012    0.0025 C   0  0  0  0  0  0  0  0  0  0  0  0
    4.7476    0.1501   -1.2768 C   0  0  0  0  0  0  0  0  0  0  0  0
    5.5616    1.3455   -1.1169 N   0  0  0  0  0  0  0  0  0  0  0  0
    6.9411    1.3624   -1.5800 C   0  0  1  0  0  0  0  0  0  0  0  0
    7.8278    0.2179   -1.0491 C   0  0  0  0  0  0  0  0  0  0  0  0
    7.0073    1.4477   -3.1395 C   0  0  1  0  0  0  0  0  0  0  0  0
    6.1822    2.6185   -3.6895 C   0  0  0  0  0  0  0  0  0  0  0  0
    8.4507    1.6090   -3.5827 C   0  0  0  0  0  0  0  0  0  0  0  0
    9.1622    2.5404   -3.2879 O   0  0  0  0  0  0  0  0  0  0  0  0
    8.8663    0.5879   -4.3602 O   0  0  0  0  0  0  0  0  0  0  0  0
   10.2110    0.6621   -4.8337 C   0  0  0  0  0  0  0  0  0  0  0  0
    5.1667    2.1631    0.0199 C   0  0  0  0  0  0  0  0  0  0  0  0
    5.0899    1.3812    1.3436 C   0  0  0  0  0  0  0  0  0  0  0  0
   -0.3410   -0.2595    1.4473 H   0  0  0  0  0  0  0  0  0  0  0  0
    0.3476    0.7804    0.1680 H   0  0  0  0  0  0  0  0  0  0  0  0
    0.4337    1.2954    1.8715 H   0  0  0  0  0  0  0  0  0  0  0  0
    1.8595   -1.1666    0.6819 H   0  0  0  0  0  0  0  0  0  0  0  0
    1.9488   -0.6592    2.3843 H   0  0  0  0  0  0  0  0  0  0  0  0
    4.2355   -0.4551    2.1275 H   0  0  0  0  0  0  0  0  0  0  0  0
    3.9302   -1.5339   -0.1615 H   0  0  0  0  0  0  0  0  0  0  0  0
    5.6087   -1.1572    0.2468 H   0  0  0  0  0  0  0  0  0  0  0  0
    3.7248    0.4506   -1.5744 H   0  0  0  0  0  0  0  0  0  0  0  0
    5.1434   -0.4593   -2.1038 H   0  0  0  0  0  0  0  0  0  0  0  0
    7.3742    2.3085   -1.2160 H   0  0  0  0  0  0  0  0  0  0  0  0
    7.4957   -0.7634   -1.4251 H   0  0  0  0  0  0  0  0  0  0  0  0
    7.8093    0.1875    0.0507 H   0  0  0  0  0  0  0  0  0  0  0  0
    8.8776    0.3506   -1.3545 H   0  0  0  0  0  0  0  0  0  0  0  0
    6.6366    0.5018   -3.5651 H   0  0  0  0  0  0  0  0  0  0  0  0
    6.6023    3.5766   -3.3459 H   0  0  0  0  0  0  0  0  0  0  0  0
    5.1458    2.5451   -3.3334 H   0  0  0  0  0  0  0  0  0  0  0  0
    6.1811    2.6226   -4.7911 H   0  0  0  0  0  0  0  0  0  0  0  0
   10.3691   -0.2313   -5.4507 H   0  0  0  0  0  0  0  0  0  0  0  0
   10.9231    0.6764   -3.9942 H   0  0  0  0  0  0  0  0  0  0  0  0
   10.3667    1.5724   -5.4325 H   0  0  0  0  0  0  0  0  0  0  0  0
    4.1664    2.5942   -0.1741 H   0  0  0  0  0  0  0  0  0  0  0  0
    5.8651    3.0089    0.1135 H   0  0  0  0  0  0  0  0  0  0  0  0
    4.6954    2.0259    2.1462 H   0  0  0  0  0  0  0  0  0  0  0  0
    6.0963    1.0473    1.6482 H   0  0  0  0  0  0  0  0  0  0  0  0
  1  2  1  0
  1 18  1  0
  1 19  1  0
  1 20  1  0
  2  3  1  0
  2 21  1  0
  2 22  1  0
  3  4  1  0
  4  5  1  0
  4 17  1  0
  4 23  1  1
  5  6  1  0
  5 24  1  0
  5 25  1  0
  6  7  1  0
  6 26  1  0
  6 27  1  0
  7  8  1  0
  7 16  1  0
  8  9  1  0
  8 10  1  0
  8 28  1  1
  9 29  1  0
  9 30  1  0
  9 31  1  0
 10 11  1  0
 10 12  1  0
 10 32  1  6
 11 33  1  0
 11 34  1  0
 11 35  1  0
 12 13  2  0
 12 14  1  0
 14 15  1  0
 15 36  1  0
 15 37  1  0
 15 38  1  0
 16 17  1  0
 16 39  1  0
 16 40  1  0
 17 41  1  0
 17 42  1  0
M  END

