
     RDKit          3D

 49 52  0  0  0  0  0  0  0  0999 V2000
    2.9943    0.1280    1.6976 C   0  0  0  0  0  0  0  0  0  0  0  0
    2.6362   -0.0691    0.2186 C   0  0  0  0  0  0  0  0  0  0  0  0
    3.0631   -1.4196   -0.3122 C   0  0  0  0  0  0  0  0  0  0  0  0
    4.0897   -1.5410   -1.2447 C   0  0  0  0  0  0  0  0  0  0  0  0
    4.4229   -2.8588   -1.6552 C   0  0  0  0  0  0  0  0  0  0  0  0
    5.4084   -3.1022   -2.5651 N   0  0  0  0  0  0  0  0  0  0  0  0
    6.1772   -2.0570   -3.2407 C   0  0  0  0  0  0  0  0  0  0  0  0
    6.9820   -2.8238   -4.2946 C   0  0  0  0  0  0  0  0  0  0  0  0
    7.1754   -4.2144   -3.6712 C   0  0  2  0  0  0  0  0  0  0  0  0
    7.6043   -5.2130   -4.6318 N   0  0  0  0  0  0  0  0  0  0  0  0
    5.8252   -4.4430   -2.9539 C   0  0  0  0  0  0  0  0  0  0  0  0
    3.7759   -3.9211   -1.1574 N   0  0  0  0  0  0  0  0  0  0  0  0
    2.8016   -3.6922   -0.2610 C   0  0  0  0  0  0  0  0  0  0  0  0
    2.1427   -4.7872    0.2472 N   0  0  0  0  0  0  0  0  0  0  0  0
    2.4134   -6.1438   -0.1942 C   0  0  0  0  0  0  0  0  0  0  0  0
    2.8506   -7.0010    0.9950 C   0  0  0  0  0  0  0  0  0  0  0  0
    1.9044   -6.8546    2.1695 C   0  0  0  0  0  0  0  0  0  0  0  0
    1.8554   -7.8283    3.1807 C   0  0  0  0  0  0  0  0  0  0  0  0
    0.9943   -7.6988    4.2698 C   0  0  0  0  0  0  0  0  0  0  0  0
    0.1587   -6.5798    4.3608 C   0  0  0  0  0  0  0  0  0  0  0  0
    0.1980   -5.6077    3.3621 C   0  0  0  0  0  0  0  0  0  0  0  0
    1.0654   -5.7285    2.2648 C   0  0  0  0  0  0  0  0  0  0  0  0
    1.0544   -4.6492    1.1964 C   0  0  0  0  0  0  0  0  0  0  0  0
    2.4126   -2.4833    0.1798 N   0  0  0  0  0  0  0  0  0  0  0  0
    2.6253    1.0978    2.0677 H   0  0  0  0  0  0  0  0  0  0  0  0
    4.0854    0.0988    1.8505 H   0  0  0  0  0  0  0  0  0  0  0  0
    2.5466   -0.6688    2.3103 H   0  0  0  0  0  0  0  0  0  0  0  0
    3.0888    0.7288   -0.3918 H   0  0  0  0  0  0  0  0  0  0  0  0
    1.5421    0.0079    0.0989 H   0  0  0  0  0  0  0  0  0  0  0  0
    4.6060   -0.6628   -1.6281 H   0  0  0  0  0  0  0  0  0  0  0  0
    6.8413   -1.5292   -2.5288 H   0  0  0  0  0  0  0  0  0  0  0  0
    5.5147   -1.2972   -3.6883 H   0  0  0  0  0  0  0  0  0  0  0  0
    7.9326   -2.3376   -4.5558 H   0  0  0  0  0  0  0  0  0  0  0  0
    6.3945   -2.9263   -5.2240 H   0  0  0  0  0  0  0  0  0  0  0  0
    7.9632   -4.1391   -2.8998 H   0  0  0  0  0  0  0  0  0  0  0  0
    6.8699   -5.3870   -5.3203 H   0  0  0  0  0  0  0  0  0  0  0  0
    7.7898   -6.1047   -4.1730 H   0  0  0  0  0  0  0  0  0  0  0  0
    5.9019   -5.1021   -2.0759 H   0  0  0  0  0  0  0  0  0  0  0  0
    5.0977   -4.9120   -3.6472 H   0  0  0  0  0  0  0  0  0  0  0  0
    3.1858   -6.1074   -0.9690 H   0  0  0  0  0  0  0  0  0  0  0  0
    1.4954   -6.5714   -0.6447 H   0  0  0  0  0  0  0  0  0  0  0  0
    3.8679   -6.6936    1.2991 H   0  0  0  0  0  0  0  0  0  0  0  0
    2.9200   -8.0604    0.6949 H   0  0  0  0  0  0  0  0  0  0  0  0
    2.5065   -8.7048    3.1050 H   0  0  0  0  0  0  0  0  0  0  0  0
    0.9715   -8.4688    5.0453 H   0  0  0  0  0  0  0  0  0  0  0  0
   -0.5204   -6.4658    5.2098 H   0  0  0  0  0  0  0  0  0  0  0  0
   -0.4541   -4.7314    3.4317 H   0  0  0  0  0  0  0  0  0  0  0  0
    1.1230   -3.6524    1.6495 H   0  0  0  0  0  0  0  0  0  0  0  0
    0.0772   -4.6801    0.6675 H   0  0  0  0  0  0  0  0  0  0  0  0
  1  2  1  0
  1 25  1  0
  1 26  1  0
  1 27  1  0
  2  3  1  0
  2 28  1  0
  2 29  1  0
  3  4  2  0
  3 24  1  0
  4  5  1  0
  4 30  1  0
  5  6  1  0
  5 12  2  0
  6  7  1  0
  6 11  1  0
  7  8  1  0
  7 31  1  0
  7 32  1  0
  8  9  1  0
  8 33  1  0
  8 34  1  0
  9 10  1  0
  9 11  1  0
  9 35  1  1
 10 36  1  0
 10 37  1  0
 11 38  1  0
 11 39  1  0
 12 13  1  0
 13 14  1  0
 13 24  2  0
 14 15  1  0
 14 23  1  0
 15 16  1  0
 15 40  1  0
 15 41  1  0
 16 17  1  0
 16 42  1  0
 16 43  1  0
 17 18  2  0
 17 22  1  0
 18 19  1  0
 18 44  1  0
 19 20  2  0
 19 45  1  0
 20 21  1  0
 20 46  1  0
 21 22  2  0
 21 47  1  0
 22 23  1  0
 23 48  1  0
 23 49  1  0
M  END

