
     RDKit          3D

 47 50  0  0  0  0  0  0  0  0999 V2000
    1.8043    0.7069   -1.2940 C   0  0  0  0  0  0  0  0  0  0  0  0
    2.4310    0.1932   -0.1384 O   0  0  0  0  0  0  0  0  0  0  0  0
    3.1176    1.0281    0.6750 C   0  0  0  0  0  0  0  0  0  0  0  0
    3.2724    2.4071    0.4578 C   0  0  0  0  0  0  0  0  0  0  0  0
    4.0065    3.1762    1.3623 C   0  0  0  0  0  0  0  0  0  0  0  0
    4.5982    2.6093    2.5053 C   0  0  0  0  0  0  0  0  0  0  0  0
    5.3542    3.4401    3.4491 C   0  0  0  0  0  0  0  0  0  0  0  0
    5.2461    4.7970    3.6647 C   0  0  0  0  0  0  0  0  0  0  0  0
    6.1557    5.2859    4.6495 C   0  0  0  0  0  0  0  0  0  0  0  0
    6.9751    4.2826    5.1945 C   0  0  0  0  0  0  0  0  0  0  0  0
    6.5974    2.7374    4.4573 S   0  0  0  0  0  0  0  0  0  0  0  0
    7.9415    4.6133    6.1982 C   0  0  0  0  0  0  0  0  0  0  0  0
    8.8921    3.6457    6.8913 C   0  0  0  0  0  0  0  0  0  0  0  0
    8.8637    2.1758    6.5339 C   0  0  0  0  0  0  0  0  0  0  0  0
    9.6654    4.0633    7.7263 O   0  0  0  0  0  0  0  0  0  0  0  0
    8.0325    5.9290    6.5809 C   0  0  0  0  0  0  0  0  0  0  0  0
    7.2186    6.9989    6.0308 C   0  0  0  0  0  0  0  0  0  0  0  0
    7.3256    8.1793    6.3452 O   0  0  0  0  0  0  0  0  0  0  0  0
    6.2558    6.5927    5.0755 N   0  0  0  0  0  0  0  0  0  0  0  0
    5.3484    7.6293    4.5615 C   0  0  0  0  0  0  0  0  0  0  0  0
    5.7262    8.1859    3.2011 C   0  0  0  0  0  0  0  0  0  0  0  0
    4.8168    8.1540    2.1348 C   0  0  0  0  0  0  0  0  0  0  0  0
    5.1546    8.6914    0.8879 C   0  0  0  0  0  0  0  0  0  0  0  0
    6.4126    9.2658    0.6935 C   0  0  0  0  0  0  0  0  0  0  0  0
    7.3246    9.3096    1.7544 C   0  0  0  0  0  0  0  0  0  0  0  0
    6.9840    8.7794    3.0003 C   0  0  0  0  0  0  0  0  0  0  0  0
    4.4322    1.2206    2.7042 C   0  0  0  0  0  0  0  0  0  0  0  0
    3.7101    0.4438    1.8097 C   0  0  0  0  0  0  0  0  0  0  0  0
    1.3121   -0.1426   -1.7857 H   0  0  0  0  0  0  0  0  0  0  0  0
    2.5347    1.1511   -1.9937 H   0  0  0  0  0  0  0  0  0  0  0  0
    1.0422    1.4665   -1.0438 H   0  0  0  0  0  0  0  0  0  0  0  0
    2.8381    2.8901   -0.4175 H   0  0  0  0  0  0  0  0  0  0  0  0
    4.1397    4.2404    1.1565 H   0  0  0  0  0  0  0  0  0  0  0  0
    4.5302    5.4197    3.1348 H   0  0  0  0  0  0  0  0  0  0  0  0
    9.0880    2.0241    5.4657 H   0  0  0  0  0  0  0  0  0  0  0  0
    7.8696    1.7408    6.7248 H   0  0  0  0  0  0  0  0  0  0  0  0
    9.6143    1.6555    7.1424 H   0  0  0  0  0  0  0  0  0  0  0  0
    8.7617    6.2160    7.3383 H   0  0  0  0  0  0  0  0  0  0  0  0
    5.3841    8.4338    5.3091 H   0  0  0  0  0  0  0  0  0  0  0  0
    4.3280    7.2203    4.5394 H   0  0  0  0  0  0  0  0  0  0  0  0
    3.8255    7.7132    2.2810 H   0  0  0  0  0  0  0  0  0  0  0  0
    4.4321    8.6599    0.0680 H   0  0  0  0  0  0  0  0  0  0  0  0
    6.6815    9.6840   -0.2799 H   0  0  0  0  0  0  0  0  0  0  0  0
    8.3062    9.7691    1.6125 H   0  0  0  0  0  0  0  0  0  0  0  0
    7.6855    8.8389    3.8358 H   0  0  0  0  0  0  0  0  0  0  0  0
    4.8632    0.7453    3.5889 H   0  0  0  0  0  0  0  0  0  0  0  0
    3.5785   -0.6281    1.9693 H   0  0  0  0  0  0  0  0  0  0  0  0
  1  2  1  0
  1 29  1  0
  1 30  1  0
  1 31  1  0
  2  3  1  0
  3  4  2  0
  3 28  1  0
  4  5  1  0
  4 32  1  0
  5  6  2  0
  5 33  1  0
  6  7  1  0
  6 27  1  0
  7  8  1  0
  7 11  2  0
  8  9  2  0
  8 34  1  0
  9 10  1  0
  9 19  1  0
 10 11  1  0
 10 12  2  0
 12 13  1  0
 12 16  1  0
 13 14  1  0
 13 15  2  0
 14 35  1  0
 14 36  1  0
 14 37  1  0
 16 17  2  0
 16 38  1  0
 17 18  1  0
 17 19  1  0
 19 20  1  0
 20 21  1  0
 20 39  1  0
 20 40  1  0
 21 22  2  0
 21 26  1  0
 22 23  1  0
 22 41  1  0
 23 24  2  0
 23 42  1  0
 24 25  1  0
 24 43  1  0
 25 26  2  0
 25 44  1  0
 26 45  1  0
 27 28  2  0
 27 46  1  0
 28 47  1  0
M  CHG  2  11   1  18  -1
M  END

