
     RDKit          3D

 57 60  0  0  0  0  0  0  0  0999 V2000
   -1.0024   -4.0958    2.0713 C   0  0  0  0  0  0  0  0  0  0  0  0
   -0.4959   -3.7220    0.6985 C   0  0  0  0  0  0  0  0  0  0  0  0
   -1.3857   -3.2907   -0.3004 C   0  0  0  0  0  0  0  0  0  0  0  0
   -0.9068   -2.9357   -1.5615 C   0  0  0  0  0  0  0  0  0  0  0  0
    0.4553   -2.9979   -1.8692 C   0  0  0  0  0  0  0  0  0  0  0  0
    1.3545   -3.4280   -0.8803 C   0  0  0  0  0  0  0  0  0  0  0  0
    2.7434   -3.5261   -1.0892 N   0  0  0  0  0  0  0  0  0  0  0  0
    3.4698   -3.2561   -2.2169 C   0  0  0  0  0  0  0  0  0  0  0  0
    3.0120   -2.8732   -3.2784 O   0  0  0  0  0  0  0  0  0  0  0  0
    4.9925   -3.3948   -2.0641 C   0  0  0  0  0  0  0  0  0  0  0  0
    5.6689   -4.3774   -0.6585 S   0  0  0  0  0  0  0  0  0  0  0  0
    5.8358   -6.0020   -1.3368 C   0  0  0  0  0  0  0  0  0  0  0  0
    7.0440   -6.5331   -1.7435 C   0  0  0  0  0  0  0  0  0  0  0  0
    6.8817   -7.8343   -2.1586 N   0  0  0  0  0  0  0  0  0  0  0  0
    7.9503   -8.7180   -2.5824 C   0  0  0  0  0  0  0  0  0  0  0  0
    8.5105   -9.5720   -1.4271 C   0  0  0  0  0  0  0  0  0  0  0  0
    9.5760  -10.4588   -1.8529 N   0  0  0  0  0  0  0  0  0  0  0  0
   10.8295   -9.9765   -2.1070 C   0  0  0  0  0  0  0  0  0  0  0  0
   11.1189   -8.8033   -1.9464 O   0  0  0  0  0  0  0  0  0  0  0  0
   11.8493  -10.9899   -2.5762 C   0  0  0  0  0  0  0  0  0  0  0  0
   11.5689  -12.0193   -3.4879 C   0  0  0  0  0  0  0  0  0  0  0  0
   10.2986  -12.1826   -3.9117 F   0  0  0  0  0  0  0  0  0  0  0  0
   12.5335  -12.8899   -3.9835 C   0  0  0  0  0  0  0  0  0  0  0  0
   13.8516  -12.7432   -3.5470 C   0  0  0  0  0  0  0  0  0  0  0  0
   14.1859  -11.7448   -2.6310 C   0  0  0  0  0  0  0  0  0  0  0  0
   13.1917  -10.8870   -2.1648 C   0  0  0  0  0  0  0  0  0  0  0  0
   13.5345   -9.9576   -1.2776 F   0  0  0  0  0  0  0  0  0  0  0  0
    5.5444   -8.1780   -2.0153 C   0  0  0  0  0  0  0  0  0  0  0  0
    4.8886   -9.3846   -2.3021 C   0  0  0  0  0  0  0  0  0  0  0  0
    3.5183   -9.4491   -2.0633 C   0  0  0  0  0  0  0  0  0  0  0  0
    2.8137   -8.3393   -1.5503 C   0  0  0  0  0  0  0  0  0  0  0  0
    3.4645   -7.1423   -1.2687 C   0  0  0  0  0  0  0  0  0  0  0  0
    4.8492   -7.0465   -1.4983 C   0  0  0  0  0  0  0  0  0  0  0  0
    0.8665   -3.7854    0.3916 C   0  0  0  0  0  0  0  0  0  0  0  0
   -1.8106   -4.8430    2.0100 H   0  0  0  0  0  0  0  0  0  0  0  0
   -1.4171   -3.2178    2.5953 H   0  0  0  0  0  0  0  0  0  0  0  0
   -0.2032   -4.5135    2.7015 H   0  0  0  0  0  0  0  0  0  0  0  0
   -2.4565   -3.2344   -0.0853 H   0  0  0  0  0  0  0  0  0  0  0  0
   -1.6072   -2.6021   -2.3320 H   0  0  0  0  0  0  0  0  0  0  0  0
    0.8306   -2.7253   -2.8527 H   0  0  0  0  0  0  0  0  0  0  0  0
    3.2949   -3.8689   -0.3043 H   0  0  0  0  0  0  0  0  0  0  0  0
    5.3973   -2.3766   -1.9376 H   0  0  0  0  0  0  0  0  0  0  0  0
    5.3887   -3.7835   -3.0114 H   0  0  0  0  0  0  0  0  0  0  0  0
    8.0255   -6.0617   -1.7623 H   0  0  0  0  0  0  0  0  0  0  0  0
    8.7652   -8.1078   -2.9962 H   0  0  0  0  0  0  0  0  0  0  0  0
    7.5798   -9.3690   -3.3902 H   0  0  0  0  0  0  0  0  0  0  0  0
    7.7095  -10.1778   -0.9782 H   0  0  0  0  0  0  0  0  0  0  0  0
    8.9016   -8.8981   -0.6498 H   0  0  0  0  0  0  0  0  0  0  0  0
    9.3542  -11.4146   -2.1008 H   0  0  0  0  0  0  0  0  0  0  0  0
   12.2386  -13.6598   -4.6978 H   0  0  0  0  0  0  0  0  0  0  0  0
   14.6251  -13.4171   -3.9220 H   0  0  0  0  0  0  0  0  0  0  0  0
   15.2051  -11.6134   -2.2644 H   0  0  0  0  0  0  0  0  0  0  0  0
    5.4263  -10.2476   -2.7011 H   0  0  0  0  0  0  0  0  0  0  0  0
    2.9795  -10.3752   -2.2789 H   0  0  0  0  0  0  0  0  0  0  0  0
    1.7382   -8.4216   -1.3762 H   0  0  0  0  0  0  0  0  0  0  0  0
    2.9083   -6.2865   -0.8834 H   0  0  0  0  0  0  0  0  0  0  0  0
    1.5735   -4.1185    1.1585 H   0  0  0  0  0  0  0  0  0  0  0  0
  1  2  1  0
  1 35  1  0
  1 36  1  0
  1 37  1  0
  2  3  2  0
  2 34  1  0
  3  4  1  0
  3 38  1  0
  4  5  2  0
  4 39  1  0
  5  6  1  0
  5 40  1  0
  6  7  1  0
  6 34  2  0
  7  8  1  0
  7 41  1  0
  8  9  2  0
  8 10  1  0
 10 11  1  0
 10 42  1  0
 10 43  1  0
 11 12  1  0
 12 13  2  0
 12 33  1  0
 13 14  1  0
 13 44  1  0
 14 15  1  0
 14 28  1  0
 15 16  1  0
 15 45  1  0
 15 46  1  0
 16 17  1  0
 16 47  1  0
 16 48  1  0
 17 18  1  0
 17 49  1  0
 18 19  2  0
 18 20  1  0
 20 21  2  0
 20 26  1  0
 21 22  1  0
 21 23  1  0
 23 24  2  0
 23 50  1  0
 24 25  1  0
 24 51  1  0
 25 26  2  0
 25 52  1  0
 26 27  1  0
 28 29  1  0
 28 33  2  0
 29 30  2  0
 29 53  1  0
 30 31  1  0
 30 54  1  0
 31 32  2  0
 31 55  1  0
 32 33  1  0
 32 56  1  0
 34 57  1  0
M  END

