
     RDKit          3D

 52 55  0  0  0  0  0  0  0  0999 V2000
    5.5232    1.7489    1.9172 O   0  0  0  0  0  0  0  0  0  0  0  0
    4.3629    2.0712    2.1188 C   0  0  0  0  0  0  0  0  0  0  0  0
    3.2590    1.7574    1.0963 C   0  0  0  0  0  0  0  0  0  0  0  0
    2.0165    2.4874    1.3164 N   0  0  0  0  0  0  0  0  0  0  0  0
    1.9916    3.8410    0.7499 C   0  0  0  0  0  0  0  0  0  0  0  0
    1.6649    3.8627   -0.7497 C   0  0  0  0  0  0  0  0  0  0  0  0
    0.3544    3.1167   -1.0366 C   0  0  0  0  0  0  0  0  0  0  0  0
    0.3331    1.7001   -0.4233 C   0  0  1  0  0  0  0  0  0  0  0  0
   -0.7098    1.3344   -0.4192 H   0  0  0  0  0  0  0  0  0  0  0  0
    1.1241    0.7006   -1.2323 C   0  0  0  0  0  0  0  0  0  0  0  0
    1.8863    0.9742   -2.2373 N   0  0  0  0  0  0  0  0  0  0  0  0
    2.4637   -0.1571   -2.7846 C   0  0  0  0  0  0  0  0  0  0  0  0
    3.3411   -0.1763   -3.8816 C   0  0  0  0  0  0  0  0  0  0  0  0
    3.8451   -1.3961   -4.3235 C   0  0  0  0  0  0  0  0  0  0  0  0
    3.4863   -2.5992   -3.6866 C   0  0  0  0  0  0  0  0  0  0  0  0
    2.6173   -2.6041   -2.5955 C   0  0  0  0  0  0  0  0  0  0  0  0
    2.1110   -1.3775   -2.1508 C   0  0  0  0  0  0  0  0  0  0  0  0
    1.0131   -1.0396   -0.8312 S   0  0  0  0  0  0  0  0  0  0  0  0
    0.7719    1.7754    1.0708 C   0  0  0  0  0  0  0  0  0  0  0  0
    3.9292    2.6934    3.2467 N   0  0  0  0  0  0  0  0  0  0  0  0
    4.8132    2.9985    4.3512 C   0  0  0  0  0  0  0  0  0  0  0  0
    4.9887    1.8258    5.3406 C   0  0  0  0  0  0  0  0  0  0  0  0
    5.9607    2.1426    6.4539 C   0  0  0  0  0  0  0  0  0  0  0  0
    5.5159    2.5990    7.7049 C   0  0  0  0  0  0  0  0  0  0  0  0
    6.4154    2.9294    8.7224 C   0  0  0  0  0  0  0  0  0  0  0  0
    7.7802    2.8029    8.4785 C   0  0  0  0  0  0  0  0  0  0  0  0
    8.6526    3.1154    9.4503 F   0  0  0  0  0  0  0  0  0  0  0  0
    8.2608    2.3547    7.2500 C   0  0  0  0  0  0  0  0  0  0  0  0
    7.3463    2.0285    6.2463 C   0  0  0  0  0  0  0  0  0  0  0  0
    3.0667    0.6754    1.1782 H   0  0  0  0  0  0  0  0  0  0  0  0
    3.7091    1.9049    0.0976 H   0  0  0  0  0  0  0  0  0  0  0  0
    2.9597    4.3250    0.9523 H   0  0  0  0  0  0  0  0  0  0  0  0
    1.2278    4.4245    1.2984 H   0  0  0  0  0  0  0  0  0  0  0  0
    2.4809    3.3973   -1.3240 H   0  0  0  0  0  0  0  0  0  0  0  0
    1.5869    4.9075   -1.0950 H   0  0  0  0  0  0  0  0  0  0  0  0
    0.1727    3.0594   -2.1200 H   0  0  0  0  0  0  0  0  0  0  0  0
   -0.4876    3.6801   -0.5957 H   0  0  0  0  0  0  0  0  0  0  0  0
    3.6104    0.7652   -4.3642 H   0  0  0  0  0  0  0  0  0  0  0  0
    4.5292   -1.4223   -5.1750 H   0  0  0  0  0  0  0  0  0  0  0  0
    3.8948   -3.5453   -4.0501 H   0  0  0  0  0  0  0  0  0  0  0  0
    2.3432   -3.5400   -2.1042 H   0  0  0  0  0  0  0  0  0  0  0  0
    0.8389    0.7660    1.5063 H   0  0  0  0  0  0  0  0  0  0  0  0
   -0.0346    2.3025    1.6125 H   0  0  0  0  0  0  0  0  0  0  0  0
    2.9272    2.8579    3.2978 H   0  0  0  0  0  0  0  0  0  0  0  0
    4.4317    3.8859    4.8817 H   0  0  0  0  0  0  0  0  0  0  0  0
    5.7964    3.2591    3.9306 H   0  0  0  0  0  0  0  0  0  0  0  0
    5.3437    0.9555    4.7662 H   0  0  0  0  0  0  0  0  0  0  0  0
    4.0047    1.5586    5.7611 H   0  0  0  0  0  0  0  0  0  0  0  0
    4.4425    2.6920    7.8942 H   0  0  0  0  0  0  0  0  0  0  0  0
    6.0749    3.2788    9.6992 H   0  0  0  0  0  0  0  0  0  0  0  0
    9.3379    2.2632    7.0965 H   0  0  0  0  0  0  0  0  0  0  0  0
    7.7171    1.6721    5.2809 H   0  0  0  0  0  0  0  0  0  0  0  0
  1  2  2  0
  2  3  1  0
  2 20  1  0
  3  4  1  0
  3 30  1  0
  3 31  1  0
  4  5  1  0
  4 19  1  0
  5  6  1  0
  5 32  1  0
  5 33  1  0
  6  7  1  0
  6 34  1  0
  6 35  1  0
  7  8  1  0
  7 36  1  0
  7 37  1  0
  8  9  1  1
  8 10  1  0
  8 19  1  0
 10 11  2  0
 10 18  1  0
 11 12  1  0
 12 13  2  0
 12 17  1  0
 13 14  1  0
 13 38  1  0
 14 15  2  0
 14 39  1  0
 15 16  1  0
 15 40  1  0
 16 17  2  0
 16 41  1  0
 17 18  1  0
 19 42  1  0
 19 43  1  0
 20 21  1  0
 20 44  1  0
 21 22  1  0
 21 45  1  0
 21 46  1  0
 22 23  1  0
 22 47  1  0
 22 48  1  0
 23 24  2  0
 23 29  1  0
 24 25  1  0
 24 49  1  0
 25 26  2  0
 25 50  1  0
 26 27  1  0
 26 28  1  0
 28 29  2  0
 28 51  1  0
 29 52  1  0
M  END

