
     RDKit          3D

 53 54  0  0  0  0  0  0  0  0999 V2000
    1.3217    2.9112    0.6069 C   0  0  0  0  0  0  0  0  0  0  0  0
    2.8279    2.7105    0.4274 C   0  0  0  0  0  0  0  0  0  0  0  0
    3.3520    1.4402    1.1017 C   0  0  2  0  0  0  0  0  0  0  0  0
    2.7883    0.5733    0.7212 H   0  0  0  0  0  0  0  0  0  0  0  0
    3.0263    1.4099    2.5062 O   0  0  0  0  0  0  0  0  0  0  0  0
    3.5713    2.3037    3.3671 C   0  0  0  0  0  0  0  0  0  0  0  0
    4.4401    3.1071    3.0836 O   0  0  0  0  0  0  0  0  0  0  0  0
    3.0061    2.1544    4.5971 N   0  0  0  0  0  0  0  0  0  0  0  0
    3.4069    2.9429    5.7585 C   0  0  1  0  0  0  0  0  0  0  0  0
    2.2236    3.7470    6.3336 C   0  0  0  0  0  0  0  0  0  0  0  0
    1.1912    2.8538    7.0363 C   0  0  0  0  0  0  0  0  0  0  0  0
    1.8430    1.9836    8.1204 C   0  0  0  0  0  0  0  0  0  0  0  0
    3.0148    1.1662    7.5583 C   0  0  0  0  0  0  0  0  0  0  0  0
    4.0427    2.0640    6.8551 C   0  0  0  0  0  0  0  0  0  0  0  0
    4.8545    1.1331    0.8551 C   0  0  1  0  0  0  0  0  0  0  0  0
    5.4481    1.9898    1.2036 H   0  0  0  0  0  0  0  0  0  0  0  0
    5.1805   -0.0325    1.5985 O   0  0  0  0  0  0  0  0  0  0  0  0
    6.1139    0.0551    2.6524 C   0  0  0  0  0  0  0  0  0  0  0  0
    7.3094   -0.5976    2.3864 O   0  0  0  0  0  0  0  0  0  0  0  0
    8.1368    0.0214    1.4271 C   0  0  0  0  0  0  0  0  0  0  0  0
    5.1258    0.8734   -0.6228 C   0  0  0  0  0  0  0  0  0  0  0  0
    4.7258   -0.3696   -1.1503 C   0  0  0  0  0  0  0  0  0  0  0  0
    4.9213   -0.6993   -2.4898 C   0  0  0  0  0  0  0  0  0  0  0  0
    5.5364    0.2182   -3.3460 C   0  0  0  0  0  0  0  0  0  0  0  0
    5.9591    1.4523   -2.8507 C   0  0  0  0  0  0  0  0  0  0  0  0
    5.7565    1.7714   -1.5011 C   0  0  0  0  0  0  0  0  0  0  0  0
    6.4905    3.6786   -0.8600 I   0  0  0  0  0  0  0  0  0  0  0  0
    0.9855    3.8260    0.0945 H   0  0  0  0  0  0  0  0  0  0  0  0
    1.0486    3.0035    1.6694 H   0  0  0  0  0  0  0  0  0  0  0  0
    0.7494    2.0649    0.1910 H   0  0  0  0  0  0  0  0  0  0  0  0
    3.3806    3.5783    0.8171 H   0  0  0  0  0  0  0  0  0  0  0  0
    3.0637    2.6425   -0.6467 H   0  0  0  0  0  0  0  0  0  0  0  0
    2.3000    1.4337    4.6854 H   0  0  0  0  0  0  0  0  0  0  0  0
    4.1634    3.6404    5.3727 H   0  0  0  0  0  0  0  0  0  0  0  0
    1.7533    4.3337    5.5280 H   0  0  0  0  0  0  0  0  0  0  0  0
    2.6268    4.4730    7.0618 H   0  0  0  0  0  0  0  0  0  0  0  0
    0.6951    2.2024    6.2919 H   0  0  0  0  0  0  0  0  0  0  0  0
    0.3893    3.4738    7.4702 H   0  0  0  0  0  0  0  0  0  0  0  0
    1.0943    1.3169    8.5801 H   0  0  0  0  0  0  0  0  0  0  0  0
    2.2156    2.6371    8.9310 H   0  0  0  0  0  0  0  0  0  0  0  0
    2.6288    0.4140    6.8446 H   0  0  0  0  0  0  0  0  0  0  0  0
    3.5037    0.5907    8.3617 H   0  0  0  0  0  0  0  0  0  0  0  0
    4.8564    1.4630    6.4179 H   0  0  0  0  0  0  0  0  0  0  0  0
    4.5081    2.7326    7.6012 H   0  0  0  0  0  0  0  0  0  0  0  0
    5.6804   -0.4668    3.5203 H   0  0  0  0  0  0  0  0  0  0  0  0
    6.2852    1.1225    2.9024 H   0  0  0  0  0  0  0  0  0  0  0  0
    9.0933   -0.5207    1.4175 H   0  0  0  0  0  0  0  0  0  0  0  0
    8.3325    1.0825    1.6799 H   0  0  0  0  0  0  0  0  0  0  0  0
    7.7001   -0.0188    0.4132 H   0  0  0  0  0  0  0  0  0  0  0  0
    4.2757   -1.0931   -0.4674 H   0  0  0  0  0  0  0  0  0  0  0  0
    4.5996   -1.6742   -2.8641 H   0  0  0  0  0  0  0  0  0  0  0  0
    5.6990   -0.0248   -4.3992 H   0  0  0  0  0  0  0  0  0  0  0  0
    6.4532    2.1662   -3.5116 H   0  0  0  0  0  0  0  0  0  0  0  0
  1  2  1  0
  1 28  1  0
  1 29  1  0
  1 30  1  0
  2  3  1  0
  2 31  1  0
  2 32  1  0
  3  4  1  6
  3  5  1  0
  3 15  1  0
  5  6  1  0
  6  7  2  0
  6  8  1  0
  8  9  1  0
  8 33  1  0
  9 10  1  0
  9 14  1  0
  9 34  1  6
 10 11  1  0
 10 35  1  0
 10 36  1  0
 11 12  1  0
 11 37  1  0
 11 38  1  0
 12 13  1  0
 12 39  1  0
 12 40  1  0
 13 14  1  0
 13 41  1  0
 13 42  1  0
 14 43  1  0
 14 44  1  0
 15 16  1  1
 15 17  1  0
 15 21  1  0
 17 18  1  0
 18 19  1  0
 18 45  1  0
 18 46  1  0
 19 20  1  0
 20 47  1  0
 20 48  1  0
 20 49  1  0
 21 22  2  0
 21 26  1  0
 22 23  1  0
 22 50  1  0
 23 24  2  0
 23 51  1  0
 24 25  1  0
 24 52  1  0
 25 26  2  0
 25 53  1  0
 26 27  1  0
M  END

