
     RDKit          3D

 72 77  0  0  0  0  0  0  0  0999 V2000
    1.5113   -1.7752   -0.9860 N   0  0  0  0  0  0  0  0  0  0  0  0
    2.6630   -1.6337   -0.9324 C   0  0  0  0  0  0  0  0  0  0  0  0
    4.0845   -1.4150   -0.9148 C   0  0  0  0  0  0  0  0  0  0  0  0
    4.6091   -0.8833   -2.1432 C   0  0  0  0  0  0  0  0  0  0  0  0
    4.9826   -0.4686   -3.1619 N   0  0  0  0  0  0  0  0  0  0  0  0
    4.8648   -1.6931    0.1871 C   0  0  0  0  0  0  0  0  0  0  0  0
    4.2899   -2.3901    1.3662 C   0  0  0  0  0  0  0  0  0  0  0  0
    4.4830   -1.8550    2.6550 C   0  0  0  0  0  0  0  0  0  0  0  0
    3.9039   -2.4869    3.7556 C   0  0  0  0  0  0  0  0  0  0  0  0
    3.1751   -3.6668    3.6015 C   0  0  0  0  0  0  0  0  0  0  0  0
    2.9971   -4.2319    2.3243 C   0  0  0  0  0  0  0  0  0  0  0  0
    2.2787   -5.4376    2.1592 N   0  0  0  0  0  0  0  0  0  0  0  0
    1.0864   -5.6572    2.9045 C   0  0  0  0  0  0  0  0  0  0  0  0
    0.1200   -4.6419    3.0164 C   0  0  0  0  0  0  0  0  0  0  0  0
   -1.0443   -4.8577    3.7559 C   0  0  0  0  0  0  0  0  0  0  0  0
   -1.2730   -6.0896    4.3774 C   0  0  0  0  0  0  0  0  0  0  0  0
   -0.3192   -7.1056    4.2573 C   0  0  0  0  0  0  0  0  0  0  0  0
    0.8561   -6.8927    3.5347 C   0  0  0  0  0  0  0  0  0  0  0  0
    2.7300   -6.4209    1.2371 C   0  0  0  0  0  0  0  0  0  0  0  0
    4.0961   -6.7463    1.1504 C   0  0  0  0  0  0  0  0  0  0  0  0
    4.5372   -7.7051    0.2371 C   0  0  0  0  0  0  0  0  0  0  0  0
    3.6261   -8.3710   -0.5891 C   0  0  0  0  0  0  0  0  0  0  0  0
    2.2657   -8.0592   -0.4971 C   0  0  0  0  0  0  0  0  0  0  0  0
    1.8180   -7.0878    0.3997 C   0  0  0  0  0  0  0  0  0  0  0  0
    3.5482   -3.5712    1.2124 C   0  0  0  0  0  0  0  0  0  0  0  0
    6.2979   -1.3177    0.2484 C   0  0  0  0  0  0  0  0  0  0  0  0
    6.7581   -0.0616   -0.1900 C   0  0  0  0  0  0  0  0  0  0  0  0
    8.1167    0.2443   -0.0966 C   0  0  0  0  0  0  0  0  0  0  0  0
    9.0297   -0.6852    0.4002 C   0  0  0  0  0  0  0  0  0  0  0  0
    8.5888   -1.9457    0.8500 C   0  0  0  0  0  0  0  0  0  0  0  0
    9.5027   -2.8998    1.3535 N   0  0  0  0  0  0  0  0  0  0  0  0
    9.3262   -4.2820    1.0648 C   0  0  0  0  0  0  0  0  0  0  0  0
    9.0042   -4.7069   -0.2369 C   0  0  0  0  0  0  0  0  0  0  0  0
    8.8293   -6.0640   -0.5128 C   0  0  0  0  0  0  0  0  0  0  0  0
    8.9895   -7.0206    0.4956 C   0  0  0  0  0  0  0  0  0  0  0  0
    9.3188   -6.6026    1.7893 C   0  0  0  0  0  0  0  0  0  0  0  0
    9.4788   -5.2460    2.0773 C   0  0  0  0  0  0  0  0  0  0  0  0
   10.6075   -2.4853    2.1482 C   0  0  0  0  0  0  0  0  0  0  0  0
   10.4386   -1.5343    3.1706 C   0  0  0  0  0  0  0  0  0  0  0  0
   11.5280   -1.1279    3.9432 C   0  0  0  0  0  0  0  0  0  0  0  0
   12.7970   -1.6734    3.7246 C   0  0  0  0  0  0  0  0  0  0  0  0
   12.9669   -2.6273    2.7160 C   0  0  0  0  0  0  0  0  0  0  0  0
   11.8866   -3.0263    1.9271 C   0  0  0  0  0  0  0  0  0  0  0  0
    7.2161   -2.2363    0.7895 C   0  0  0  0  0  0  0  0  0  0  0  0
    5.0632   -0.9397    2.7842 H   0  0  0  0  0  0  0  0  0  0  0  0
    4.0365   -2.0647    4.7548 H   0  0  0  0  0  0  0  0  0  0  0  0
    2.7475   -4.1655    4.4729 H   0  0  0  0  0  0  0  0  0  0  0  0
    0.2837   -3.6869    2.5130 H   0  0  0  0  0  0  0  0  0  0  0  0
   -1.7869   -4.0591    3.8316 H   0  0  0  0  0  0  0  0  0  0  0  0
   -2.1891   -6.2578    4.9485 H   0  0  0  0  0  0  0  0  0  0  0  0
   -0.4844   -8.0719    4.7410 H   0  0  0  0  0  0  0  0  0  0  0  0
    1.6036   -7.6842    3.4526 H   0  0  0  0  0  0  0  0  0  0  0  0
    4.8127   -6.2447    1.8038 H   0  0  0  0  0  0  0  0  0  0  0  0
    5.6037   -7.9383    0.1825 H   0  0  0  0  0  0  0  0  0  0  0  0
    3.9726   -9.1256   -1.2990 H   0  0  0  0  0  0  0  0  0  0  0  0
    1.5429   -8.5661   -1.1418 H   0  0  0  0  0  0  0  0  0  0  0  0
    0.7571   -6.8369    0.4535 H   0  0  0  0  0  0  0  0  0  0  0  0
    3.4058   -3.9993    0.2200 H   0  0  0  0  0  0  0  0  0  0  0  0
    6.0593    0.6785   -0.5804 H   0  0  0  0  0  0  0  0  0  0  0  0
    8.4737    1.2210   -0.4319 H   0  0  0  0  0  0  0  0  0  0  0  0
   10.0919   -0.4392    0.4440 H   0  0  0  0  0  0  0  0  0  0  0  0
    8.8935   -3.9676   -1.0327 H   0  0  0  0  0  0  0  0  0  0  0  0
    8.5807   -6.3762   -1.5304 H   0  0  0  0  0  0  0  0  0  0  0  0
    8.8643   -8.0831    0.2738 H   0  0  0  0  0  0  0  0  0  0  0  0
    9.4428   -7.3386    2.5880 H   0  0  0  0  0  0  0  0  0  0  0  0
    9.7251   -4.9247    3.0911 H   0  0  0  0  0  0  0  0  0  0  0  0
    9.4475   -1.1163    3.3575 H   0  0  0  0  0  0  0  0  0  0  0  0
   11.3787   -0.3875    4.7334 H   0  0  0  0  0  0  0  0  0  0  0  0
   13.6462   -1.3585    4.3356 H   0  0  0  0  0  0  0  0  0  0  0  0
   13.9542   -3.0582    2.5303 H   0  0  0  0  0  0  0  0  0  0  0  0
   12.0281   -3.7618    1.1329 H   0  0  0  0  0  0  0  0  0  0  0  0
    6.8602   -3.2014    1.1504 H   0  0  0  0  0  0  0  0  0  0  0  0
  1  2  3  0
  2  3  1  0
  3  4  1  0
  3  6  2  0
  4  5  3  0
  6  7  1  0
  6 26  1  0
  7  8  2  0
  7 25  1  0
  8  9  1  0
  8 45  1  0
  9 10  2  0
  9 46  1  0
 10 11  1  0
 10 47  1  0
 11 12  1  0
 11 25  2  0
 12 13  1  0
 12 19  1  0
 13 14  2  0
 13 18  1  0
 14 15  1  0
 14 48  1  0
 15 16  2  0
 15 49  1  0
 16 17  1  0
 16 50  1  0
 17 18  2  0
 17 51  1  0
 18 52  1  0
 19 20  2  0
 19 24  1  0
 20 21  1  0
 20 53  1  0
 21 22  2  0
 21 54  1  0
 22 23  1  0
 22 55  1  0
 23 24  2  0
 23 56  1  0
 24 57  1  0
 25 58  1  0
 26 27  2  0
 26 44  1  0
 27 28  1  0
 27 59  1  0
 28 29  2  0
 28 60  1  0
 29 30  1  0
 29 61  1  0
 30 31  1  0
 30 44  2  0
 31 32  1  0
 31 38  1  0
 32 33  2  0
 32 37  1  0
 33 34  1  0
 33 62  1  0
 34 35  2  0
 34 63  1  0
 35 36  1  0
 35 64  1  0
 36 37  2  0
 36 65  1  0
 37 66  1  0
 38 39  2  0
 38 43  1  0
 39 40  1  0
 39 67  1  0
 40 41  2  0
 40 68  1  0
 41 42  1  0
 41 69  1  0
 42 43  2  0
 42 70  1  0
 43 71  1  0
 44 72  1  0
M  END

