
     RDKit          3D

 29 30  0  0  0  0  0  0  0  0999 V2000
    1.3185    0.4890   -0.9496 N   0  0  0  0  0  0  0  0  0  0  0  0
    2.4952    0.2516   -0.5949 N   0  0  0  0  0  0  0  0  0  0  0  0
    2.8281   -1.0402   -0.4759 N   0  0  0  0  0  0  0  0  0  0  0  0
    1.8827   -2.1005   -0.8294 C   0  0  0  0  0  0  0  0  0  0  0  0
    1.1604   -2.7463    0.3393 C   0  0  0  0  0  0  0  0  0  0  0  0
    0.8489   -4.1135    0.2984 C   0  0  0  0  0  0  0  0  0  0  0  0
    0.1421   -4.7186    1.3419 C   0  0  0  0  0  0  0  0  0  0  0  0
   -0.2587   -3.9623    2.4465 C   0  0  0  0  0  0  0  0  0  0  0  0
    0.0505   -2.5994    2.4975 C   0  0  0  0  0  0  0  0  0  0  0  0
    0.7531   -1.9952    1.4519 C   0  0  0  0  0  0  0  0  0  0  0  0
    4.1581   -1.3206   -0.0720 C   0  0  0  0  0  0  0  0  0  0  0  0
    4.5307   -2.6317    0.2731 C   0  0  0  0  0  0  0  0  0  0  0  0
    5.8459   -2.9117    0.6555 C   0  0  0  0  0  0  0  0  0  0  0  0
    6.8063   -1.9010    0.7087 C   0  0  0  0  0  0  0  0  0  0  0  0
    6.4323   -0.5949    0.3727 C   0  0  0  0  0  0  0  0  0  0  0  0
    5.1271   -0.2995   -0.0162 C   0  0  0  0  0  0  0  0  0  0  0  0
    1.2482    1.5131   -0.9975 H   0  0  0  0  0  0  0  0  0  0  0  0
    2.4200   -2.8619   -1.4138 H   0  0  0  0  0  0  0  0  0  0  0  0
    1.1447   -1.6204   -1.4904 H   0  0  0  0  0  0  0  0  0  0  0  0
    1.1633   -4.7140   -0.5610 H   0  0  0  0  0  0  0  0  0  0  0  0
   -0.0902   -5.7857    1.2933 H   0  0  0  0  0  0  0  0  0  0  0  0
   -0.8072   -4.4333    3.2661 H   0  0  0  0  0  0  0  0  0  0  0  0
   -0.2587   -2.0003    3.3581 H   0  0  0  0  0  0  0  0  0  0  0  0
    0.9842   -0.9290    1.4958 H   0  0  0  0  0  0  0  0  0  0  0  0
    3.7972   -3.4369    0.2707 H   0  0  0  0  0  0  0  0  0  0  0  0
    6.1127   -3.9377    0.9223 H   0  0  0  0  0  0  0  0  0  0  0  0
    7.8322   -2.1247    1.0099 H   0  0  0  0  0  0  0  0  0  0  0  0
    7.1703    0.2111    0.4071 H   0  0  0  0  0  0  0  0  0  0  0  0
    4.8431    0.7171   -0.2811 H   0  0  0  0  0  0  0  0  0  0  0  0
  1  2  2  0
  1 17  1  0
  2  3  1  0
  3  4  1  0
  3 11  1  0
  4  5  1  0
  4 18  1  0
  4 19  1  0
  5  6  2  0
  5 10  1  0
  6  7  1  0
  6 20  1  0
  7  8  2  0
  7 21  1  0
  8  9  1  0
  8 22  1  0
  9 10  2  0
  9 23  1  0
 10 24  1  0
 11 12  2  0
 11 16  1  0
 12 13  1  0
 12 25  1  0
 13 14  2  0
 13 26  1  0
 14 15  1  0
 14 27  1  0
 15 16  2  0
 15 28  1  0
 16 29  1  0
M  END

