
     RDKit          3D

 46 49  0  0  0  0  0  0  0  0999 V2000
    2.5318   -2.8505   -2.8988 C   0  0  0  0  0  0  0  0  0  0  0  0
    3.4437   -1.9662   -2.1012 C   0  0  0  0  0  0  0  0  0  0  0  0
    2.9245   -1.3225   -0.5573 S   0  0  0  0  0  0  0  0  0  0  0  0
    4.4360   -0.4903   -0.3463 C   0  0  0  0  0  0  0  0  0  0  0  0
    4.7075    0.2707    0.7436 N   0  0  0  0  0  0  0  0  0  0  0  0
    5.8779    0.8267    0.7486 C   0  0  0  0  0  0  0  0  0  0  0  0
    6.8209    0.6926   -0.2379 N   0  0  0  0  0  0  0  0  0  0  0  0
    8.1099    1.3830   -0.1201 C   0  0  0  0  0  0  0  0  0  0  0  0
    9.2610    0.4280    0.2045 C   0  0  0  0  0  0  0  0  0  0  0  0
   10.5472    1.2070    0.4691 C   0  0  0  0  0  0  0  0  0  0  0  0
   10.5319    2.4243    0.5687 O   0  0  0  0  0  0  0  0  0  0  0  0
   11.7158    0.4853    0.5926 N   0  0  0  0  0  0  0  0  0  0  0  0
   11.8463   -0.9676    0.5335 C   0  0  0  0  0  0  0  0  0  0  0  0
   12.4337   -1.5097    1.8471 C   0  0  0  0  0  0  0  0  0  0  0  0
   13.6031   -0.7419    2.2150 N   0  0  0  0  0  0  0  0  0  0  0  0
   14.8739   -1.2528    2.3345 C   0  0  0  0  0  0  0  0  0  0  0  0
   15.2176   -2.4109    2.3350 O   0  0  0  0  0  0  0  0  0  0  0  0
   15.7221   -0.1305    2.4513 N   0  0  0  0  0  0  0  0  0  0  0  0
   15.0644    1.0766    2.3278 C   0  0  0  0  0  0  0  0  0  0  0  0
   15.5463    2.1817    2.3388 O   0  0  0  0  0  0  0  0  0  0  0  0
   13.5835    0.7109    2.1561 C   0  0  1  0  0  0  0  0  0  0  0  0
   12.9687    1.1943    0.8320 C   0  0  0  0  0  0  0  0  0  0  0  0
    6.6046   -0.0908   -1.4060 C   0  0  0  0  0  0  0  0  0  0  0  0
    7.4905   -0.1789   -2.2475 O   0  0  0  0  0  0  0  0  0  0  0  0
    5.2909   -0.7147   -1.4319 C   0  0  0  0  0  0  0  0  0  0  0  0
    4.7170   -1.5650   -2.4428 C   0  0  0  0  0  0  0  0  0  0  0  0
    5.3938   -1.9798   -3.7232 C   0  0  0  0  0  0  0  0  0  0  0  0
    1.5693   -3.0128   -2.3926 H   0  0  0  0  0  0  0  0  0  0  0  0
    2.9887   -3.8396   -3.0740 H   0  0  0  0  0  0  0  0  0  0  0  0
    2.3192   -2.4129   -3.8893 H   0  0  0  0  0  0  0  0  0  0  0  0
    6.1690    1.4656    1.5900 H   0  0  0  0  0  0  0  0  0  0  0  0
    8.0230    2.1526    0.6567 H   0  0  0  0  0  0  0  0  0  0  0  0
    8.3150    1.8918   -1.0712 H   0  0  0  0  0  0  0  0  0  0  0  0
    9.3887   -0.2709   -0.6351 H   0  0  0  0  0  0  0  0  0  0  0  0
    9.0109   -0.1759    1.0950 H   0  0  0  0  0  0  0  0  0  0  0  0
   12.5179   -1.2359   -0.3033 H   0  0  0  0  0  0  0  0  0  0  0  0
   10.8750   -1.4347    0.3376 H   0  0  0  0  0  0  0  0  0  0  0  0
   12.7370   -2.5614    1.7448 H   0  0  0  0  0  0  0  0  0  0  0  0
   11.6729   -1.4453    2.6469 H   0  0  0  0  0  0  0  0  0  0  0  0
   16.7259   -0.2235    2.5655 H   0  0  0  0  0  0  0  0  0  0  0  0
   13.0095    1.1403    2.9988 H   0  0  0  0  0  0  0  0  0  0  0  0
   13.6708    0.9866    0.0040 H   0  0  0  0  0  0  0  0  0  0  0  0
   12.7628    2.2701    0.8620 H   0  0  0  0  0  0  0  0  0  0  0  0
    6.4006   -1.5506   -3.7858 H   0  0  0  0  0  0  0  0  0  0  0  0
    4.8177   -1.6473   -4.6036 H   0  0  0  0  0  0  0  0  0  0  0  0
    5.4764   -3.0780   -3.7927 H   0  0  0  0  0  0  0  0  0  0  0  0
  1  2  1  0
  1 28  1  0
  1 29  1  0
  1 30  1  0
  2  3  1  0
  2 26  2  0
  3  4  2  0
  4  5  1  0
  4 25  1  0
  5  6  2  0
  6  7  1  0
  6 31  1  0
  7  8  1  0
  7 23  1  0
  8  9  1  0
  8 32  1  0
  8 33  1  0
  9 10  1  0
  9 34  1  0
  9 35  1  0
 10 11  2  0
 10 12  1  0
 12 13  1  0
 12 22  1  0
 13 14  1  0
 13 36  1  0
 13 37  1  0
 14 15  1  0
 14 38  1  0
 14 39  1  0
 15 16  1  0
 15 21  1  0
 16 17  2  0
 16 18  1  0
 18 19  1  0
 18 40  1  0
 19 20  2  0
 19 21  1  0
 21 22  1  0
 21 41  1  1
 22 42  1  0
 22 43  1  0
 23 24  1  0
 23 25  2  0
 25 26  1  0
 26 27  1  0
 27 44  1  0
 27 45  1  0
 27 46  1  0
M  CHG  2   3   1  24  -1
M  END

