
     RDKit          3D

 42 44  0  0  0  0  0  0  0  0999 V2000
   -0.5690    4.8860   -5.7892 C   0  0  0  0  0  0  0  0  0  0  0  0
    0.7387    4.5232   -6.4882 C   0  0  0  0  0  0  0  0  0  0  0  0
    1.1367    3.1416   -6.2598 N   0  0  0  0  0  0  0  0  0  0  0  0
    2.1639    2.6819   -5.4937 C   0  0  0  0  0  0  0  0  0  0  0  0
    2.1303    1.2950   -5.5559 C   0  0  0  0  0  0  0  0  0  0  0  0
    3.0375    0.3187   -4.8552 C   0  0  0  0  0  0  0  0  0  0  0  0
    4.4196    0.7826   -4.7918 N   0  0  0  0  0  0  0  0  0  0  0  0
    5.1478    0.7730   -6.0582 C   0  0  0  0  0  0  0  0  0  0  0  0
    5.7697   -0.5980   -6.3659 C   0  0  0  0  0  0  0  0  0  0  0  0
    6.5883   -1.1112   -5.2666 N   0  0  0  0  0  0  0  0  0  0  0  0
    5.9131   -1.0949   -3.9508 C   0  0  2  0  0  0  0  0  0  0  0  0
    6.9538   -1.4422   -2.8689 C   0  0  0  0  0  0  0  0  0  0  0  0
    7.1901   -2.9623   -2.9935 C   0  0  0  0  0  0  0  0  0  0  0  0
    5.9055   -3.5277   -3.6617 C   0  0  0  0  0  0  0  0  0  0  0  0
    4.9685   -2.3169   -3.8506 C   0  0  0  0  0  0  0  0  0  0  0  0
    5.2415    0.2761   -3.6982 C   0  0  0  0  0  0  0  0  0  0  0  0
    1.0233    1.0281   -6.4011 C   0  0  0  0  0  0  0  0  0  0  0  0
    0.4309    2.1466   -6.8153 N   0  0  0  0  0  0  0  0  0  0  0  0
   -0.8495    5.9262   -6.0187 H   0  0  0  0  0  0  0  0  0  0  0  0
   -0.4761    4.7850   -4.6963 H   0  0  0  0  0  0  0  0  0  0  0  0
   -1.3771    4.2223   -6.1301 H   0  0  0  0  0  0  0  0  0  0  0  0
    1.5651    5.1608   -6.1388 H   0  0  0  0  0  0  0  0  0  0  0  0
    0.6450    4.6690   -7.5762 H   0  0  0  0  0  0  0  0  0  0  0  0
    2.8490    3.3518   -4.9789 H   0  0  0  0  0  0  0  0  0  0  0  0
    2.9135   -0.6767   -5.3345 H   0  0  0  0  0  0  0  0  0  0  0  0
    2.6960    0.1831   -3.8140 H   0  0  0  0  0  0  0  0  0  0  0  0
    5.9603    1.5243   -5.9985 H   0  0  0  0  0  0  0  0  0  0  0  0
    4.4723    1.0964   -6.8662 H   0  0  0  0  0  0  0  0  0  0  0  0
    6.3940   -0.5426   -7.2740 H   0  0  0  0  0  0  0  0  0  0  0  0
    4.9725   -1.3287   -6.5880 H   0  0  0  0  0  0  0  0  0  0  0  0
    7.4416   -0.5543   -5.2011 H   0  0  0  0  0  0  0  0  0  0  0  0
    6.5273   -1.1945   -1.8816 H   0  0  0  0  0  0  0  0  0  0  0  0
    7.8766   -0.8465   -2.9736 H   0  0  0  0  0  0  0  0  0  0  0  0
    7.3898   -3.4207   -2.0123 H   0  0  0  0  0  0  0  0  0  0  0  0
    8.0686   -3.1629   -3.6242 H   0  0  0  0  0  0  0  0  0  0  0  0
    5.4306   -4.3193   -3.0610 H   0  0  0  0  0  0  0  0  0  0  0  0
    6.1508   -3.9674   -4.6390 H   0  0  0  0  0  0  0  0  0  0  0  0
    4.3168   -2.1868   -2.9697 H   0  0  0  0  0  0  0  0  0  0  0  0
    4.3068   -2.4282   -4.7219 H   0  0  0  0  0  0  0  0  0  0  0  0
    6.0530    1.0107   -3.5235 H   0  0  0  0  0  0  0  0  0  0  0  0
    4.6357    0.2473   -2.7768 H   0  0  0  0  0  0  0  0  0  0  0  0
    0.6422    0.0584   -6.7247 H   0  0  0  0  0  0  0  0  0  0  0  0
  1  2  1  0
  1 19  1  0
  1 20  1  0
  1 21  1  0
  2  3  1  0
  2 22  1  0
  2 23  1  0
  3  4  1  0
  3 18  1  0
  4  5  2  0
  4 24  1  0
  5  6  1  0
  5 17  1  0
  6  7  1  0
  6 25  1  0
  6 26  1  0
  7  8  1  0
  7 16  1  0
  8  9  1  0
  8 27  1  0
  8 28  1  0
  9 10  1  0
  9 29  1  0
  9 30  1  0
 11 10  1  6
 10 31  1  0
 11 12  1  0
 11 15  1  0
 11 16  1  0
 12 13  1  0
 12 32  1  0
 12 33  1  0
 13 14  1  0
 13 34  1  0
 13 35  1  0
 14 15  1  0
 14 36  1  0
 14 37  1  0
 15 38  1  0
 15 39  1  0
 16 40  1  0
 16 41  1  0
 17 18  2  0
 17 42  1  0
M  END

