
     RDKit          3D

 47 49  0  0  0  0  0  0  0  0999 V2000
    1.5517   -0.8256    2.9545 C   0  0  0  0  0  0  0  0  0  0  0  0
    2.8960   -0.5380    2.6438 O   0  0  0  0  0  0  0  0  0  0  0  0
    3.1943    0.6307    2.0196 C   0  0  0  0  0  0  0  0  0  0  0  0
    2.2574    1.5984    1.6473 C   0  0  0  0  0  0  0  0  0  0  0  0
    2.7030    2.7659    1.0091 C   0  0  0  0  0  0  0  0  0  0  0  0
    4.0459    3.0077    0.7224 C   0  0  0  0  0  0  0  0  0  0  0  0
    4.5462    4.2637    0.0269 C   0  0  2  0  0  0  0  0  0  0  0  0
    3.5955    5.4632    0.0904 C   0  0  0  0  0  0  0  0  0  0  0  0
    4.1564    6.7051   -0.6063 C   0  0  0  0  0  0  0  0  0  0  0  0
    3.8290    7.8244   -0.2393 O   0  0  0  0  0  0  0  0  0  0  0  0
    5.0522    6.4822   -1.7374 C   0  0  0  0  0  0  0  0  0  0  0  0
    5.4222    5.2299   -2.1528 C   0  0  0  0  0  0  0  0  0  0  0  0
    6.2539    4.9836   -3.2117 N   0  0  0  0  0  0  0  0  0  0  0  0
    6.8578    5.9345   -4.0839 C   0  0  0  0  0  0  0  0  0  0  0  0
    6.5535    5.8985   -5.4510 C   0  0  0  0  0  0  0  0  0  0  0  0
    7.1734    6.7584   -6.3573 C   0  0  0  0  0  0  0  0  0  0  0  0
    8.1047    7.6861   -5.8778 C   0  0  0  0  0  0  0  0  0  0  0  0
    8.4134    7.7400   -4.5211 C   0  0  0  0  0  0  0  0  0  0  0  0
    7.8156    6.8608   -3.5933 C   0  0  0  0  0  0  0  0  0  0  0  0
    8.2021    6.8623   -2.2652 N   0  0  0  0  0  0  0  0  0  0  0  0
    4.9162    3.9917   -1.4456 C   0  0  0  0  0  0  0  0  0  0  0  0
    4.9769    2.0073    1.1109 C   0  0  0  0  0  0  0  0  0  0  0  0
    6.2827    2.2674    0.8187 O   0  0  0  0  0  0  0  0  0  0  0  0
    7.2828    1.3620    1.2298 C   0  0  0  0  0  0  0  0  0  0  0  0
    4.5593    0.8402    1.7503 C   0  0  0  0  0  0  0  0  0  0  0  0
    1.5469   -1.8068    3.4484 H   0  0  0  0  0  0  0  0  0  0  0  0
    0.9217   -0.8785    2.0482 H   0  0  0  0  0  0  0  0  0  0  0  0
    1.1188   -0.0770    3.6426 H   0  0  0  0  0  0  0  0  0  0  0  0
    1.1943    1.4697    1.8469 H   0  0  0  0  0  0  0  0  0  0  0  0
    1.9570    3.5146    0.7367 H   0  0  0  0  0  0  0  0  0  0  0  0
    5.4835    4.5543    0.5312 H   0  0  0  0  0  0  0  0  0  0  0  0
    3.3451    5.7423    1.1245 H   0  0  0  0  0  0  0  0  0  0  0  0
    2.6419    5.2263   -0.4175 H   0  0  0  0  0  0  0  0  0  0  0  0
    5.3778    7.3778   -2.2699 H   0  0  0  0  0  0  0  0  0  0  0  0
    6.3612    4.0105   -3.4750 H   0  0  0  0  0  0  0  0  0  0  0  0
    5.8084    5.1763   -5.7956 H   0  0  0  0  0  0  0  0  0  0  0  0
    6.9237    6.7139   -7.4194 H   0  0  0  0  0  0  0  0  0  0  0  0
    8.5956    8.3784   -6.5666 H   0  0  0  0  0  0  0  0  0  0  0  0
    9.1486    8.4635   -4.1569 H   0  0  0  0  0  0  0  0  0  0  0  0
    8.6917    7.6937   -1.9538 H   0  0  0  0  0  0  0  0  0  0  0  0
    7.5160    6.5381   -1.5910 H   0  0  0  0  0  0  0  0  0  0  0  0
    5.6804    3.2006   -1.4956 H   0  0  0  0  0  0  0  0  0  0  0  0
    4.0255    3.6145   -1.9825 H   0  0  0  0  0  0  0  0  0  0  0  0
    8.2432    1.7922    0.9150 H   0  0  0  0  0  0  0  0  0  0  0  0
    7.1610    0.3717    0.7556 H   0  0  0  0  0  0  0  0  0  0  0  0
    7.2899    1.2310    2.3264 H   0  0  0  0  0  0  0  0  0  0  0  0
    5.2576    0.0639    2.0585 H   0  0  0  0  0  0  0  0  0  0  0  0
  1  2  1  0
  1 26  1  0
  1 27  1  0
  1 28  1  0
  2  3  1  0
  3  4  2  0
  3 25  1  0
  4  5  1  0
  4 29  1  0
  5  6  2  0
  5 30  1  0
  6  7  1  0
  6 22  1  0
  7  8  1  0
  7 21  1  0
  7 31  1  1
  8  9  1  0
  8 32  1  0
  8 33  1  0
  9 10  2  0
  9 11  1  0
 11 12  2  0
 11 34  1  0
 12 13  1  0
 12 21  1  0
 13 14  1  0
 13 35  1  0
 14 15  2  0
 14 19  1  0
 15 16  1  0
 15 36  1  0
 16 17  2  0
 16 37  1  0
 17 18  1  0
 17 38  1  0
 18 19  2  0
 18 39  1  0
 19 20  1  0
 20 40  1  0
 20 41  1  0
 21 42  1  0
 21 43  1  0
 22 23  1  0
 22 25  2  0
 23 24  1  0
 24 44  1  0
 24 45  1  0
 24 46  1  0
 25 47  1  0
M  END

