
     RDKit          3D

 43 43  0  0  0  0  0  0  0  0999 V2000
   10.1601    0.2868    6.3387 C   0  0  0  0  0  0  0  0  0  0  0  0
    8.8341    0.3840    6.5141 C   0  0  0  0  0  0  0  0  0  0  0  0
    8.2821    1.0201    7.7798 C   0  0  0  0  0  0  0  0  0  0  0  0
    7.7695    2.4562    7.5875 C   0  0  0  0  0  0  0  0  0  0  0  0
    7.7626   -0.1155    5.5614 C   0  0  0  0  0  0  0  0  0  0  0  0
    8.0764   -0.5828    4.1211 C   0  0  2  0  0  0  0  0  0  0  0  0
    8.9645   -1.7988    3.9447 C   0  0  0  0  0  0  0  0  0  0  0  0
    8.6648   -2.7667    3.0618 C   0  0  0  0  0  0  0  0  0  0  0  0
    9.6448   -3.1446    1.9482 C   0  0  0  0  0  0  0  0  0  0  0  0
    9.2990   -1.9307    1.0735 C   0  0  0  0  0  0  0  0  0  0  0  0
    9.7286   -0.7142    1.4445 C   0  0  0  0  0  0  0  0  0  0  0  0
    8.8578    0.5163    1.6784 C   0  0  2  0  0  0  0  0  0  0  0  0
    7.4895    0.4224    0.9756 C   0  0  0  0  0  0  0  0  0  0  0  0
    9.5683    1.7555    1.1494 C   0  0  0  0  0  0  0  0  0  0  0  0
   10.0179    2.8275    1.8142 C   0  0  0  0  0  0  0  0  0  0  0  0
   10.7157    3.9956    1.1782 C   0  0  0  0  0  0  0  0  0  0  0  0
    8.6629    0.6021    3.2505 C   0  0  0  0  0  0  0  0  0  0  0  0
   10.8503    0.6490    7.1071 H   0  0  0  0  0  0  0  0  0  0  0  0
   10.6160   -0.1480    5.4494 H   0  0  0  0  0  0  0  0  0  0  0  0
    9.0655    1.0204    8.5549 H   0  0  0  0  0  0  0  0  0  0  0  0
    7.4586    0.3943    8.1705 H   0  0  0  0  0  0  0  0  0  0  0  0
    8.5805    3.1203    7.2485 H   0  0  0  0  0  0  0  0  0  0  0  0
    7.3724    2.8611    8.5323 H   0  0  0  0  0  0  0  0  0  0  0  0
    6.9604    2.5111    6.8415 H   0  0  0  0  0  0  0  0  0  0  0  0
    6.9869    0.6695    5.4936 H   0  0  0  0  0  0  0  0  0  0  0  0
    7.2562   -0.9568    6.0724 H   0  0  0  0  0  0  0  0  0  0  0  0
    7.0928   -0.8451    3.6934 H   0  0  0  0  0  0  0  0  0  0  0  0
   10.0272   -1.6409    4.1630 H   0  0  0  0  0  0  0  0  0  0  0  0
    7.6100   -2.8999    2.7847 H   0  0  0  0  0  0  0  0  0  0  0  0
    9.4413   -4.1138    1.4687 H   0  0  0  0  0  0  0  0  0  0  0  0
   10.6898   -3.1203    2.2958 H   0  0  0  0  0  0  0  0  0  0  0  0
    8.3551   -2.0266    0.5256 H   0  0  0  0  0  0  0  0  0  0  0  0
   10.6514   -0.6776    2.0387 H   0  0  0  0  0  0  0  0  0  0  0  0
    7.6093    0.3227   -0.1151 H   0  0  0  0  0  0  0  0  0  0  0  0
    6.9028    1.3342    1.1665 H   0  0  0  0  0  0  0  0  0  0  0  0
    6.9035   -0.4398    1.3284 H   0  0  0  0  0  0  0  0  0  0  0  0
    9.7195    1.7252    0.0611 H   0  0  0  0  0  0  0  0  0  0  0  0
    9.8862    2.8907    2.9000 H   0  0  0  0  0  0  0  0  0  0  0  0
   10.8144    3.8702    0.0887 H   0  0  0  0  0  0  0  0  0  0  0  0
   11.7277    4.1350    1.5983 H   0  0  0  0  0  0  0  0  0  0  0  0
   10.1711    4.9381    1.3654 H   0  0  0  0  0  0  0  0  0  0  0  0
    7.9940    1.4632    3.4213 H   0  0  0  0  0  0  0  0  0  0  0  0
    9.6314    0.8848    3.6861 H   0  0  0  0  0  0  0  0  0  0  0  0
  1  2  2  0
  1 18  1  0
  1 19  1  0
  2  3  1  0
  2  5  1  0
  3  4  1  0
  3 20  1  0
  3 21  1  0
  4 22  1  0
  4 23  1  0
  4 24  1  0
  5  6  1  0
  5 25  1  0
  5 26  1  0
  6  7  1  0
  6 17  1  0
  6 27  1  6
  7  8  2  0
  7 28  1  0
  8  9  1  0
  8 29  1  0
  9 10  1  0
  9 30  1  0
  9 31  1  0
 10 11  2  0
 10 32  1  0
 11 12  1  0
 11 33  1  0
 12 13  1  0
 12 14  1  6
 12 17  1  0
 13 34  1  0
 13 35  1  0
 13 36  1  0
 14 15  2  0
 14 37  1  0
 15 16  1  0
 15 38  1  0
 16 39  1  0
 16 40  1  0
 16 41  1  0
 17 42  1  0
 17 43  1  0
M  END

