
     RDKit          3D

 56 59  0  0  0  0  0  0  0  0999 V2000
    2.0090    0.7816    1.6803 O   0  0  0  0  0  0  0  0  0  0  0  0
    2.6044    0.0756    0.8826 C   0  0  0  0  0  0  0  0  0  0  0  0
    2.6494   -1.3003    0.9887 N   0  0  0  0  0  0  0  0  0  0  0  0
    2.0026   -2.0965    1.9573 C   0  0  0  0  0  0  0  0  0  0  0  0
    0.6687   -2.1240    2.2089 C   0  0  0  0  0  0  0  0  0  0  0  0
   -0.4384   -1.4360    1.6126 C   0  0  0  0  0  0  0  0  0  0  0  0
   -1.7883   -1.5464    1.8973 C   0  0  0  0  0  0  0  0  0  0  0  0
   -2.4731   -0.7060    0.9860 C   0  0  0  0  0  0  0  0  0  0  0  0
   -1.5076   -0.1153    0.1914 C   0  0  0  0  0  0  0  0  0  0  0  0
   -1.4576    0.9389   -0.8299 C   0  0  0  0  0  0  0  0  0  0  0  0
   -0.3418    1.8095   -0.7779 C   0  0  0  0  0  0  0  0  0  0  0  0
   -0.1511    2.8238   -1.7110 C   0  0  0  0  0  0  0  0  0  0  0  0
   -1.0612    3.0040   -2.7582 C   0  0  0  0  0  0  0  0  0  0  0  0
   -2.1564    2.1530   -2.8565 C   0  0  0  0  0  0  0  0  0  0  0  0
   -2.3595    1.1511   -1.9013 C   0  0  0  0  0  0  0  0  0  0  0  0
   -3.5519    0.3167   -2.1210 N   0  0  0  0  0  0  0  0  0  0  0  0
   -4.1866   -0.0497   -1.1439 O   0  0  0  0  0  0  0  0  0  0  0  0
   -3.8526    0.0647   -3.2774 O   0  0  0  0  0  0  0  0  0  0  0  0
   -0.2764   -0.5677    0.5808 O   0  0  0  0  0  0  0  0  0  0  0  0
    2.8634   -3.1051    2.6889 C   0  0  0  0  0  0  0  0  0  0  0  0
    2.4641   -4.2484    2.8609 O   0  0  0  0  0  0  0  0  0  0  0  0
    4.1210   -2.6896    3.0764 N   0  0  0  0  0  0  0  0  0  0  0  0
    4.4408   -1.3129    3.4676 C   0  0  0  0  0  0  0  0  0  0  0  0
    4.6397   -1.1953    4.9873 C   0  0  0  0  0  0  0  0  0  0  0  0
    5.6471   -2.2208    5.5178 C   0  0  0  0  0  0  0  0  0  0  0  0
    5.2533   -3.6359    5.0795 C   0  0  0  0  0  0  0  0  0  0  0  0
    5.0658   -3.6987    3.5602 C   0  0  0  0  0  0  0  0  0  0  0  0
    3.3788    0.6511   -0.2717 C   0  0  0  0  0  0  0  0  0  0  0  0
    3.6369   -0.0594   -1.4557 C   0  0  0  0  0  0  0  0  0  0  0  0
    4.3533    0.5394   -2.4954 C   0  0  0  0  0  0  0  0  0  0  0  0
    4.8183    1.8509   -2.3617 C   0  0  0  0  0  0  0  0  0  0  0  0
    4.5548    2.5686   -1.1889 C   0  0  0  0  0  0  0  0  0  0  0  0
    3.8324    1.9752   -0.1535 C   0  0  0  0  0  0  0  0  0  0  0  0
    3.3962   -1.7610    0.4788 H   0  0  0  0  0  0  0  0  0  0  0  0
    0.3703   -2.8313    2.9860 H   0  0  0  0  0  0  0  0  0  0  0  0
   -2.2253   -2.1685    2.6756 H   0  0  0  0  0  0  0  0  0  0  0  0
   -3.5389   -0.5267    0.9259 H   0  0  0  0  0  0  0  0  0  0  0  0
    0.3752    1.6791    0.0337 H   0  0  0  0  0  0  0  0  0  0  0  0
    0.7187    3.4783   -1.6174 H   0  0  0  0  0  0  0  0  0  0  0  0
   -0.9177    3.7972   -3.4951 H   0  0  0  0  0  0  0  0  0  0  0  0
   -2.8736    2.2408   -3.6725 H   0  0  0  0  0  0  0  0  0  0  0  0
    3.6342   -0.6382    3.1595 H   0  0  0  0  0  0  0  0  0  0  0  0
    5.3635   -0.9954    2.9453 H   0  0  0  0  0  0  0  0  0  0  0  0
    3.6635   -1.3470    5.4811 H   0  0  0  0  0  0  0  0  0  0  0  0
    4.9598   -0.1671    5.2254 H   0  0  0  0  0  0  0  0  0  0  0  0
    5.7186   -2.1571    6.6161 H   0  0  0  0  0  0  0  0  0  0  0  0
    6.6538   -1.9832    5.1253 H   0  0  0  0  0  0  0  0  0  0  0  0
    4.3083   -3.9336    5.5659 H   0  0  0  0  0  0  0  0  0  0  0  0
    6.0175   -4.3700    5.3849 H   0  0  0  0  0  0  0  0  0  0  0  0
    4.6914   -4.6813    3.2489 H   0  0  0  0  0  0  0  0  0  0  0  0
    6.0377   -3.5186    3.0621 H   0  0  0  0  0  0  0  0  0  0  0  0
    3.2486   -1.0725   -1.5862 H   0  0  0  0  0  0  0  0  0  0  0  0
    4.5397   -0.0175   -3.4170 H   0  0  0  0  0  0  0  0  0  0  0  0
    5.3808    2.3171   -3.1746 H   0  0  0  0  0  0  0  0  0  0  0  0
    4.9145    3.5953   -1.0835 H   0  0  0  0  0  0  0  0  0  0  0  0
    3.6071    2.5211    0.7649 H   0  0  0  0  0  0  0  0  0  0  0  0
  1  2  2  0
  2  3  1  0
  2 28  1  0
  3  4  1  0
  3 34  1  0
  4  5  2  0
  4 20  1  0
  5  6  1  0
  5 35  1  0
  6  7  2  0
  6 19  1  0
  7  8  1  0
  7 36  1  0
  8  9  2  0
  8 37  1  0
  9 10  1  0
  9 19  1  0
 10 11  2  0
 10 15  1  0
 11 12  1  0
 11 38  1  0
 12 13  2  0
 12 39  1  0
 13 14  1  0
 13 40  1  0
 14 15  2  0
 14 41  1  0
 15 16  1  0
 16 17  2  0
 16 18  1  0
 20 21  2  0
 20 22  1  0
 22 23  1  0
 22 27  1  0
 23 24  1  0
 23 42  1  0
 23 43  1  0
 24 25  1  0
 24 44  1  0
 24 45  1  0
 25 26  1  0
 25 46  1  0
 25 47  1  0
 26 27  1  0
 26 48  1  0
 26 49  1  0
 27 50  1  0
 27 51  1  0
 28 29  2  0
 28 33  1  0
 29 30  1  0
 29 52  1  0
 30 31  2  0
 30 53  1  0
 31 32  1  0
 31 54  1  0
 32 33  2  0
 32 55  1  0
 33 56  1  0
M  CHG  2  16   1  18  -1
M  END

