
     RDKit          3D

 48 50  0  0  0  0  0  0  0  0999 V2000
    1.3813    2.7235   -8.3514 C   0  0  0  0  0  0  0  0  0  0  0  0
    1.8440    3.2244   -7.0631 N   0  0  0  0  0  0  0  0  0  0  0  0
    1.0599    4.2308   -6.3796 C   0  0  0  0  0  0  0  0  0  0  0  0
    2.7701    2.4827   -6.3656 C   0  0  0  0  0  0  0  0  0  0  0  0
    3.1416    2.7875   -5.0196 C   0  0  0  0  0  0  0  0  0  0  0  0
    4.0759    1.9836   -4.4118 C   0  0  0  0  0  0  0  0  0  0  0  0
    4.5982    0.9091   -5.1664 C   0  0  0  0  0  0  0  0  0  0  0  0
    5.5019    0.0988   -4.5670 O   0  0  0  0  0  0  0  0  0  0  0  0
    6.0967   -0.9725   -5.3177 C   0  0  1  0  0  0  0  0  0  0  0  0
    7.3168   -1.4344   -4.5217 C   0  0  0  0  0  0  0  0  0  0  0  0
    6.9063   -2.1316   -3.2177 C   0  0  0  0  0  0  0  0  0  0  0  0
    5.8912   -3.2489   -3.4856 C   0  0  0  0  0  0  0  0  0  0  0  0
    4.7428   -2.7530   -4.2494 N   0  0  0  0  0  0  0  0  0  0  0  0
    3.5530   -2.5691   -3.5863 C   0  0  0  0  0  0  0  0  0  0  0  0
    3.4187   -2.7869   -2.3902 O   0  0  0  0  0  0  0  0  0  0  0  0
    2.3507   -2.1132   -4.3797 C   0  0  0  0  0  0  0  0  0  0  0  0
    1.5070   -1.1512   -3.8134 C   0  0  0  0  0  0  0  0  0  0  0  0
    0.3588   -0.7588   -4.5002 C   0  0  0  0  0  0  0  0  0  0  0  0
    0.0877   -1.3759   -5.7246 C   0  0  0  0  0  0  0  0  0  0  0  0
   -1.1194   -0.9794   -6.5575 C   0  0  1  0  0  0  0  0  0  0  0  0
   -1.8779   -0.0675   -5.9180 F   0  0  0  0  0  0  0  0  0  0  0  0
   -0.7441   -0.4336   -7.7279 F   0  0  0  0  0  0  0  0  0  0  0  0
   -1.8978   -2.0303   -6.8355 F   0  0  0  0  0  0  0  0  0  0  0  0
    0.8498   -2.3318   -6.2524 N   0  0  0  0  0  0  0  0  0  0  0  0
    1.9517   -2.6896   -5.5984 C   0  0  0  0  0  0  0  0  0  0  0  0
    5.0985   -2.1270   -5.5179 C   0  0  0  0  0  0  0  0  0  0  0  0
    4.2231    0.6761   -6.4091 N   0  0  0  0  0  0  0  0  0  0  0  0
    3.3165    1.4398   -7.0061 N   0  0  0  0  0  0  0  0  0  0  0  0
    0.8163    3.5180   -8.8587 H   0  0  0  0  0  0  0  0  0  0  0  0
    0.7349    1.8321   -8.2481 H   0  0  0  0  0  0  0  0  0  0  0  0
    2.2367    2.4328   -8.9742 H   0  0  0  0  0  0  0  0  0  0  0  0
    0.4315    4.7543   -7.1121 H   0  0  0  0  0  0  0  0  0  0  0  0
    1.7007    4.9902   -5.9003 H   0  0  0  0  0  0  0  0  0  0  0  0
    0.3911    3.8113   -5.6005 H   0  0  0  0  0  0  0  0  0  0  0  0
    2.7039    3.6270   -4.4803 H   0  0  0  0  0  0  0  0  0  0  0  0
    4.4125    2.1473   -3.3864 H   0  0  0  0  0  0  0  0  0  0  0  0
    6.3836   -0.5933   -6.3115 H   0  0  0  0  0  0  0  0  0  0  0  0
    7.9720   -0.5717   -4.3227 H   0  0  0  0  0  0  0  0  0  0  0  0
    7.8879   -2.1331   -5.1584 H   0  0  0  0  0  0  0  0  0  0  0  0
    6.4555   -1.3974   -2.5313 H   0  0  0  0  0  0  0  0  0  0  0  0
    7.7908   -2.5511   -2.7108 H   0  0  0  0  0  0  0  0  0  0  0  0
    5.5122   -3.6744   -2.5492 H   0  0  0  0  0  0  0  0  0  0  0  0
    6.3652   -4.0573   -4.0728 H   0  0  0  0  0  0  0  0  0  0  0  0
    1.7588   -0.7238   -2.8408 H   0  0  0  0  0  0  0  0  0  0  0  0
   -0.3127   -0.0003   -4.0977 H   0  0  0  0  0  0  0  0  0  0  0  0
    2.5487   -3.4880   -6.0528 H   0  0  0  0  0  0  0  0  0  0  0  0
    4.2153   -1.7402   -6.0325 H   0  0  0  0  0  0  0  0  0  0  0  0
    5.5691   -2.8772   -6.1795 H   0  0  0  0  0  0  0  0  0  0  0  0
  1  2  1  0
  1 29  1  0
  1 30  1  0
  1 31  1  0
  2  3  1  0
  2  4  1  0
  3 32  1  0
  3 33  1  0
  3 34  1  0
  4  5  2  0
  4 28  1  0
  5  6  1  0
  5 35  1  0
  6  7  2  0
  6 36  1  0
  7  8  1  0
  7 27  1  0
  8  9  1  0
  9 10  1  0
  9 26  1  0
  9 37  1  6
 10 11  1  0
 10 38  1  0
 10 39  1  0
 11 12  1  0
 11 40  1  0
 11 41  1  0
 12 13  1  0
 12 42  1  0
 12 43  1  0
 13 14  1  0
 13 26  1  0
 14 15  2  0
 14 16  1  0
 16 17  2  0
 16 25  1  0
 17 18  1  0
 17 44  1  0
 18 19  2  0
 18 45  1  0
 19 20  1  0
 19 24  1  0
 20 21  1  1
 20 22  1  0
 20 23  1  0
 24 25  2  0
 25 46  1  0
 26 47  1  0
 26 48  1  0
 27 28  2  0
M  END

