
     RDKit          3D

 50 51  0  0  0  0  0  0  0  0999 V2000
    1.0879    0.4015    0.4459 C   0  0  0  0  0  0  0  0  0  0  0  0
    2.5284    0.2293   -0.0066 C   0  0  1  0  0  0  0  0  0  0  0  0
    2.8113   -1.1790   -0.1789 O   0  0  0  0  0  0  0  0  0  0  0  0
    3.7321   -1.7622    0.6028 C   0  0  0  0  0  0  0  0  0  0  0  0
    4.3633   -1.2182    1.4712 O   0  0  0  0  0  0  0  0  0  0  0  0
    3.8754   -3.2443    0.2477 C   0  0  0  0  0  0  0  0  0  0  0  0
    5.2595   -3.6635    0.2652 N   0  0  0  0  0  0  0  0  0  0  0  0
    6.1282   -3.0805   -0.6101 C   0  0  0  0  0  0  0  0  0  0  0  0
    5.7433   -2.2648   -1.4419 O   0  0  0  0  0  0  0  0  0  0  0  0
    7.5709   -3.4928   -0.5160 C   0  0  0  0  0  0  0  0  0  0  0  0
    8.5377   -2.6455   -1.0830 C   0  0  0  0  0  0  0  0  0  0  0  0
    9.8925   -2.9793   -1.0352 C   0  0  0  0  0  0  0  0  0  0  0  0
   10.3043   -4.1712   -0.4345 C   0  0  0  0  0  0  0  0  0  0  0  0
    9.3320   -5.0098    0.1101 C   0  0  0  0  0  0  0  0  0  0  0  0
    9.7491   -6.2849    0.7373 N   0  0  0  0  0  0  0  0  0  0  0  0
   10.9402   -6.5422    0.7486 O   0  0  0  0  0  0  0  0  0  0  0  0
    8.8724   -6.9940    1.2044 O   0  0  0  0  0  0  0  0  0  0  0  0
    7.9750   -4.6943    0.0788 C   0  0  0  0  0  0  0  0  0  0  0  0
    2.8135    0.9957   -1.3126 C   0  0  0  0  0  0  0  0  0  0  0  0
    2.3342    2.1105   -1.4589 O   0  0  0  0  0  0  0  0  0  0  0  0
    3.6187    0.3841   -2.2172 N   0  0  0  0  0  0  0  0  0  0  0  0
    3.9718    1.0290   -3.4841 C   0  0  1  0  0  0  0  0  0  0  0  0
    5.3761    1.6668   -3.4456 C   0  0  0  0  0  0  0  0  0  0  0  0
    6.4999    0.6228   -3.4685 C   0  0  0  0  0  0  0  0  0  0  0  0
    6.3646   -0.3189   -4.6738 C   0  0  0  0  0  0  0  0  0  0  0  0
    4.9842   -0.9904   -4.7039 C   0  0  0  0  0  0  0  0  0  0  0  0
    3.8517    0.0470   -4.6639 C   0  0  0  0  0  0  0  0  0  0  0  0
    0.9391   -0.0398    1.4426 H   0  0  0  0  0  0  0  0  0  0  0  0
    0.3980   -0.0797   -0.2644 H   0  0  0  0  0  0  0  0  0  0  0  0
    0.8541    1.4736    0.4834 H   0  0  0  0  0  0  0  0  0  0  0  0
    3.2210    0.6180    0.7564 H   0  0  0  0  0  0  0  0  0  0  0  0
    3.4301   -3.4244   -0.7400 H   0  0  0  0  0  0  0  0  0  0  0  0
    3.3161   -3.8337    0.9900 H   0  0  0  0  0  0  0  0  0  0  0  0
    5.6223   -4.1017    1.1026 H   0  0  0  0  0  0  0  0  0  0  0  0
    8.2039   -1.7216   -1.5582 H   0  0  0  0  0  0  0  0  0  0  0  0
   10.6355   -2.3081   -1.4712 H   0  0  0  0  0  0  0  0  0  0  0  0
   11.3525   -4.4649   -0.3835 H   0  0  0  0  0  0  0  0  0  0  0  0
    7.2688   -5.4098    0.4991 H   0  0  0  0  0  0  0  0  0  0  0  0
    3.9908   -0.5361   -2.0009 H   0  0  0  0  0  0  0  0  0  0  0  0
    3.2321    1.8334   -3.6014 H   0  0  0  0  0  0  0  0  0  0  0  0
    5.4543    2.3167   -2.5592 H   0  0  0  0  0  0  0  0  0  0  0  0
    5.4721    2.3257   -4.3278 H   0  0  0  0  0  0  0  0  0  0  0  0
    6.4640    0.0240   -2.5418 H   0  0  0  0  0  0  0  0  0  0  0  0
    7.4810    1.1277   -3.4818 H   0  0  0  0  0  0  0  0  0  0  0  0
    7.1579   -1.0851   -4.6533 H   0  0  0  0  0  0  0  0  0  0  0  0
    6.5121    0.2582   -5.6063 H   0  0  0  0  0  0  0  0  0  0  0  0
    4.9053   -1.6760   -3.8422 H   0  0  0  0  0  0  0  0  0  0  0  0
    4.8810   -1.6177   -5.6054 H   0  0  0  0  0  0  0  0  0  0  0  0
    2.8663   -0.4468   -4.6326 H   0  0  0  0  0  0  0  0  0  0  0  0
    3.8763    0.6408   -5.5950 H   0  0  0  0  0  0  0  0  0  0  0  0
  1  2  1  0
  1 28  1  0
  1 29  1  0
  1 30  1  0
  2  3  1  0
  2 19  1  0
  2 31  1  1
  3  4  1  0
  4  5  2  0
  4  6  1  0
  6  7  1  0
  6 32  1  0
  6 33  1  0
  7  8  1  0
  7 34  1  0
  8  9  2  0
  8 10  1  0
 10 11  2  0
 10 18  1  0
 11 12  1  0
 11 35  1  0
 12 13  2  0
 12 36  1  0
 13 14  1  0
 13 37  1  0
 14 15  1  0
 14 18  2  0
 15 16  2  0
 15 17  1  0
 18 38  1  0
 19 20  2  0
 19 21  1  0
 21 22  1  0
 21 39  1  0
 22 23  1  0
 22 27  1  0
 22 40  1  6
 23 24  1  0
 23 41  1  0
 23 42  1  0
 24 25  1  0
 24 43  1  0
 24 44  1  0
 25 26  1  0
 25 45  1  0
 25 46  1  0
 26 27  1  0
 26 47  1  0
 26 48  1  0
 27 49  1  0
 27 50  1  0
M  CHG  2  15   1  17  -1
M  END

