
     RDKit          3D

 43 45  0  0  0  0  0  0  0  0999 V2000
    1.6203    0.6757    1.1068 C   0  0  0  0  0  0  0  0  0  0  0  0
    2.4105    0.2021    0.0245 O   0  0  0  0  0  0  0  0  0  0  0  0
    3.1958   -0.8844    0.2670 C   0  0  0  0  0  0  0  0  0  0  0  0
    4.5733   -0.7090    0.4606 C   0  0  0  0  0  0  0  0  0  0  0  0
    5.4180   -1.7976    0.6599 C   0  0  0  0  0  0  0  0  0  0  0  0
    4.9064   -3.1073    0.6785 C   0  0  0  0  0  0  0  0  0  0  0  0
    5.7645   -4.2912    0.8883 C   0  0  0  0  0  0  0  0  0  0  0  0
    7.1296   -4.2982    1.0653 C   0  0  0  0  0  0  0  0  0  0  0  0
    7.7106   -5.9196    1.2731 S   0  0  0  0  0  0  0  0  0  0  0  0
    6.0385   -6.4788    1.1036 C   0  0  0  0  0  0  0  0  0  0  0  0
    5.7792   -7.8366    1.1828 N   0  0  0  0  0  0  0  0  0  0  0  0
    4.5587   -8.4725    1.0468 C   0  0  0  0  0  0  0  0  0  0  0  0
    3.4973   -7.9383    0.8305 O   0  0  0  0  0  0  0  0  0  0  0  0
    4.6398  -10.0056    1.2171 C   0  0  1  0  0  0  0  0  0  0  0  0
    3.9660  -10.7083    0.0420 C   0  0  0  0  0  0  0  0  0  0  0  0
    6.0059  -10.3885    1.3639 O   0  0  0  0  0  0  0  0  0  0  0  0
    6.3649  -11.5508    1.9934 C   0  0  0  0  0  0  0  0  0  0  0  0
    5.4664  -12.4269    2.6180 C   0  0  0  0  0  0  0  0  0  0  0  0
    5.9536  -13.5778    3.2500 C   0  0  0  0  0  0  0  0  0  0  0  0
    7.3184  -13.8672    3.2640 C   0  0  0  0  0  0  0  0  0  0  0  0
    8.2083  -12.9893    2.6328 C   0  0  0  0  0  0  0  0  0  0  0  0
    7.7391  -11.8400    2.0001 C   0  0  0  0  0  0  0  0  0  0  0  0
    5.1751   -5.5383    0.9152 N   0  0  0  0  0  0  0  0  0  0  0  0
    3.5266   -3.2920    0.4824 C   0  0  0  0  0  0  0  0  0  0  0  0
    2.6876   -2.1974    0.2794 C   0  0  0  0  0  0  0  0  0  0  0  0
    0.9821   -2.4664   -0.0032 Cl  0  0  0  0  0  0  0  0  0  0  0  0
    1.0676    1.5499    0.7357 H   0  0  0  0  0  0  0  0  0  0  0  0
    2.2541    0.9851    1.9577 H   0  0  0  0  0  0  0  0  0  0  0  0
    0.8997   -0.0846    1.4508 H   0  0  0  0  0  0  0  0  0  0  0  0
    4.9639    0.3108    0.4390 H   0  0  0  0  0  0  0  0  0  0  0  0
    6.4853   -1.6185    0.8046 H   0  0  0  0  0  0  0  0  0  0  0  0
    7.8233   -3.4615    1.0833 H   0  0  0  0  0  0  0  0  0  0  0  0
    6.5611   -8.4659    1.3424 H   0  0  0  0  0  0  0  0  0  0  0  0
    4.0903  -10.2142    2.1525 H   0  0  0  0  0  0  0  0  0  0  0  0
    4.5289  -10.5175   -0.8845 H   0  0  0  0  0  0  0  0  0  0  0  0
    2.9471  -10.3152   -0.0773 H   0  0  0  0  0  0  0  0  0  0  0  0
    3.9176  -11.7945    0.2043 H   0  0  0  0  0  0  0  0  0  0  0  0
    4.3941  -12.2316    2.6194 H   0  0  0  0  0  0  0  0  0  0  0  0
    5.2453  -14.2547    3.7347 H   0  0  0  0  0  0  0  0  0  0  0  0
    7.6874  -14.7685    3.7582 H   0  0  0  0  0  0  0  0  0  0  0  0
    9.2805  -13.2019    2.6316 H   0  0  0  0  0  0  0  0  0  0  0  0
    8.4227  -11.1501    1.5007 H   0  0  0  0  0  0  0  0  0  0  0  0
    3.1196   -4.3035    0.4852 H   0  0  0  0  0  0  0  0  0  0  0  0
  1  2  1  0
  1 27  1  0
  1 28  1  0
  1 29  1  0
  2  3  1  0
  3  4  2  0
  3 25  1  0
  4  5  1  0
  4 30  1  0
  5  6  2  0
  5 31  1  0
  6  7  1  0
  6 24  1  0
  7  8  2  0
  7 23  1  0
  8  9  1  0
  8 32  1  0
  9 10  1  0
 10 11  1  0
 10 23  2  0
 11 12  1  0
 11 33  1  0
 12 13  2  0
 12 14  1  0
 14 15  1  0
 14 16  1  0
 14 34  1  1
 15 35  1  0
 15 36  1  0
 15 37  1  0
 16 17  1  0
 17 18  2  0
 17 22  1  0
 18 19  1  0
 18 38  1  0
 19 20  2  0
 19 39  1  0
 20 21  1  0
 20 40  1  0
 21 22  2  0
 21 41  1  0
 22 42  1  0
 24 25  2  0
 24 43  1  0
 25 26  1  0
M  END

