
     RDKit          3D

 64 66  0  0  0  0  0  0  0  0999 V2000
    2.8956   -1.7860    1.1552 C   0  0  0  0  0  0  0  0  0  0  0  0
    2.5001   -0.5960    0.2703 C   0  0  1  0  0  0  0  0  0  0  0  0
    1.0093   -0.6964   -0.0984 C   0  0  0  0  0  0  0  0  0  0  0  0
    2.7108    0.6330    0.9838 O   0  0  0  0  0  0  0  0  0  0  0  0
    3.3098   -0.4752   -1.0390 C   0  0  0  0  0  0  0  0  0  0  0  0
    4.8557   -0.4815   -1.0332 C   0  0  1  0  0  0  0  0  0  0  0  0
    5.1901   -1.8455   -0.7139 O   0  0  0  0  0  0  0  0  0  0  0  0
    6.5134   -2.2193   -0.4157 C   0  0  0  0  0  0  0  0  0  0  0  0
    6.6350   -3.5946   -0.5276 O   0  0  0  0  0  0  0  0  0  0  0  0
    6.5313   -4.1039   -1.8420 C   0  0  0  0  0  0  0  0  0  0  0  0
    6.6389   -5.6111   -1.8370 C   0  0  0  0  0  0  0  0  0  0  0  0
    6.4980   -6.3505   -0.6557 C   0  0  0  0  0  0  0  0  0  0  0  0
    6.5707   -7.7472   -0.6827 C   0  0  0  0  0  0  0  0  0  0  0  0
    6.7817   -8.4214   -1.8881 C   0  0  0  0  0  0  0  0  0  0  0  0
    6.9243   -7.6886   -3.0714 C   0  0  0  0  0  0  0  0  0  0  0  0
    6.8559   -6.2942   -3.0438 C   0  0  0  0  0  0  0  0  0  0  0  0
    5.3607   -0.1452   -2.4602 C   0  0  0  0  0  0  0  0  0  0  0  0
    5.2025    1.3342   -2.8371 C   0  0  0  0  0  0  0  0  0  0  0  0
    5.7815    2.1990   -1.8185 N   0  0  0  0  0  0  0  0  0  0  0  0
    6.7141    3.1288   -2.1794 C   0  0  0  0  0  0  0  0  0  0  0  0
    7.1151    3.3027   -3.3165 O   0  0  0  0  0  0  0  0  0  0  0  0
    7.1566    3.8425   -1.1128 O   0  0  0  0  0  0  0  0  0  0  0  0
    8.1220    4.8787   -1.3743 C   0  0  0  0  0  0  0  0  0  0  0  0
    7.4718    6.2233   -1.6033 C   0  0  0  0  0  0  0  0  0  0  0  0
    7.3696    7.1520   -0.5571 C   0  0  0  0  0  0  0  0  0  0  0  0
    6.7586    8.3929   -0.7597 C   0  0  0  0  0  0  0  0  0  0  0  0
    6.2389    8.7179   -2.0157 C   0  0  0  0  0  0  0  0  0  0  0  0
    6.3344    7.7982   -3.0657 C   0  0  0  0  0  0  0  0  0  0  0  0
    6.9475    6.5596   -2.8630 C   0  0  0  0  0  0  0  0  0  0  0  0
    5.2971    1.9759   -0.4582 C   0  0  0  0  0  0  0  0  0  0  0  0
    5.5009    0.5136   -0.0422 C   0  0  0  0  0  0  0  0  0  0  0  0
    2.2338   -1.8272    2.0383 H   0  0  0  0  0  0  0  0  0  0  0  0
    3.9335   -1.7053    1.5003 H   0  0  0  0  0  0  0  0  0  0  0  0
    2.8005   -2.7391    0.6148 H   0  0  0  0  0  0  0  0  0  0  0  0
    0.3888   -0.7041    0.8137 H   0  0  0  0  0  0  0  0  0  0  0  0
    0.7897   -1.6192   -0.6579 H   0  0  0  0  0  0  0  0  0  0  0  0
    0.7031    0.1662   -0.7100 H   0  0  0  0  0  0  0  0  0  0  0  0
    2.2002    0.5937    1.8037 H   0  0  0  0  0  0  0  0  0  0  0  0
    2.9575    0.4446   -1.5296 H   0  0  0  0  0  0  0  0  0  0  0  0
    3.0146   -1.3096   -1.6944 H   0  0  0  0  0  0  0  0  0  0  0  0
    6.7714   -1.9795    0.6313 H   0  0  0  0  0  0  0  0  0  0  0  0
    7.2325   -1.7043   -1.0895 H   0  0  0  0  0  0  0  0  0  0  0  0
    7.3299   -3.6722   -2.4810 H   0  0  0  0  0  0  0  0  0  0  0  0
    5.5661   -3.7992   -2.2882 H   0  0  0  0  0  0  0  0  0  0  0  0
    6.3374   -5.8190    0.2830 H   0  0  0  0  0  0  0  0  0  0  0  0
    6.4619   -8.3118    0.2474 H   0  0  0  0  0  0  0  0  0  0  0  0
    6.8388   -9.5128   -1.9070 H   0  0  0  0  0  0  0  0  0  0  0  0
    7.0950   -8.2055   -4.0195 H   0  0  0  0  0  0  0  0  0  0  0  0
    6.9754   -5.7284   -3.9734 H   0  0  0  0  0  0  0  0  0  0  0  0
    4.8307   -0.7748   -3.1935 H   0  0  0  0  0  0  0  0  0  0  0  0
    6.4301   -0.4014   -2.5274 H   0  0  0  0  0  0  0  0  0  0  0  0
    4.1334    1.5876   -2.9656 H   0  0  0  0  0  0  0  0  0  0  0  0
    5.7042    1.5503   -3.7880 H   0  0  0  0  0  0  0  0  0  0  0  0
    8.7274    4.5828   -2.2418 H   0  0  0  0  0  0  0  0  0  0  0  0
    8.7558    4.9064   -0.4769 H   0  0  0  0  0  0  0  0  0  0  0  0
    7.7762    6.9015    0.4273 H   0  0  0  0  0  0  0  0  0  0  0  0
    6.6894    9.1076    0.0647 H   0  0  0  0  0  0  0  0  0  0  0  0
    5.7617    9.6882   -2.1775 H   0  0  0  0  0  0  0  0  0  0  0  0
    5.9316    8.0493   -4.0506 H   0  0  0  0  0  0  0  0  0  0  0  0
    7.0185    5.8340   -3.6765 H   0  0  0  0  0  0  0  0  0  0  0  0
    4.2261    2.2335   -0.3946 H   0  0  0  0  0  0  0  0  0  0  0  0
    5.8353    2.6435    0.2219 H   0  0  0  0  0  0  0  0  0  0  0  0
    5.0952    0.3687    0.9669 H   0  0  0  0  0  0  0  0  0  0  0  0
    6.5867    0.3257   -0.0087 H   0  0  0  0  0  0  0  0  0  0  0  0
  1  2  1  0
  1 32  1  0
  1 33  1  0
  1 34  1  0
  2  3  1  0
  2  4  1  1
  2  5  1  0
  3 35  1  0
  3 36  1  0
  3 37  1  0
  4 38  1  0
  5  6  1  0
  5 39  1  0
  5 40  1  0
  6  7  1  1
  6 17  1  0
  6 31  1  0
  7  8  1  0
  8  9  1  0
  8 41  1  0
  8 42  1  0
  9 10  1  0
 10 11  1  0
 10 43  1  0
 10 44  1  0
 11 12  2  0
 11 16  1  0
 12 13  1  0
 12 45  1  0
 13 14  2  0
 13 46  1  0
 14 15  1  0
 14 47  1  0
 15 16  2  0
 15 48  1  0
 16 49  1  0
 17 18  1  0
 17 50  1  0
 17 51  1  0
 18 19  1  0
 18 52  1  0
 18 53  1  0
 19 20  1  0
 19 30  1  0
 20 21  2  0
 20 22  1  0
 22 23  1  0
 23 24  1  0
 23 54  1  0
 23 55  1  0
 24 25  2  0
 24 29  1  0
 25 26  1  0
 25 56  1  0
 26 27  2  0
 26 57  1  0
 27 28  1  0
 27 58  1  0
 28 29  2  0
 28 59  1  0
 29 60  1  0
 30 31  1  0
 30 61  1  0
 30 62  1  0
 31 63  1  0
 31 64  1  0
M  END

