
     RDKit          3D

 45 48  0  0  0  0  0  0  0  0999 V2000
    1.4462   -0.8150   -1.4661 C   0  0  0  0  0  0  0  0  0  0  0  0
    2.5434   -0.2309   -0.7263 N   0  0  0  0  0  0  0  0  0  0  0  0
    2.4860    0.8315    0.1682 C   0  0  0  0  0  0  0  0  0  0  0  0
    1.3227    1.5751    0.3180 N   0  0  0  0  0  0  0  0  0  0  0  0
    1.1783    2.3002    1.5867 C   0  0  0  0  0  0  0  0  0  0  0  0
    1.8540    3.6767    1.5493 C   0  0  0  0  0  0  0  0  0  0  0  0
    1.4025    4.4585    0.3858 N   0  0  0  0  0  0  0  0  0  0  0  0
    0.0784    5.4803    0.6023 S   0  0  1  0  0  0  0  0  0  0  0  0
   -0.4547    5.7628   -0.7340 O   0  0  0  0  0  0  0  0  0  0  0  0
   -0.7894    4.9666    1.6704 O   0  0  0  0  0  0  0  0  0  0  0  0
    0.8304    6.9913    1.2307 C   0  0  0  0  0  0  0  0  0  0  0  0
    0.6456    7.3431    2.5685 C   0  0  0  0  0  0  0  0  0  0  0  0
    1.2240    8.5277    3.0372 C   0  0  0  0  0  0  0  0  0  0  0  0
    1.9643    9.3441    2.1810 C   0  0  0  0  0  0  0  0  0  0  0  0
    2.1226    8.9727    0.8390 C   0  0  0  0  0  0  0  0  0  0  0  0
    3.0369   10.0011   -0.2359 Cl  0  0  0  0  0  0  0  0  0  0  0  0
    1.5555    7.7970    0.3473 C   0  0  0  0  0  0  0  0  0  0  0  0
    1.5288    3.7432   -0.8894 C   0  0  0  0  0  0  0  0  0  0  0  0
    0.8526    2.3663   -0.8305 C   0  0  0  0  0  0  0  0  0  0  0  0
    3.5934    0.9933    0.8559 N   0  0  0  0  0  0  0  0  0  0  0  0
    4.4477   -0.0015    0.4168 C   0  0  0  0  0  0  0  0  0  0  0  0
    5.7601   -0.3059    0.8028 C   0  0  0  0  0  0  0  0  0  0  0  0
    6.4038   -1.3719    0.1714 C   0  0  0  0  0  0  0  0  0  0  0  0
    5.7613   -2.1289   -0.8276 C   0  0  0  0  0  0  0  0  0  0  0  0
    4.4537   -1.8399   -1.2304 C   0  0  0  0  0  0  0  0  0  0  0  0
    3.8160   -0.7730   -0.5932 C   0  0  0  0  0  0  0  0  0  0  0  0
    0.4984   -0.4888   -1.0167 H   0  0  0  0  0  0  0  0  0  0  0  0
    1.5017   -1.9127   -1.4033 H   0  0  0  0  0  0  0  0  0  0  0  0
    1.4563   -0.5283   -2.5319 H   0  0  0  0  0  0  0  0  0  0  0  0
    1.6099    1.6904    2.3911 H   0  0  0  0  0  0  0  0  0  0  0  0
    0.1016    2.4373    1.7789 H   0  0  0  0  0  0  0  0  0  0  0  0
    2.9446    3.5489    1.4682 H   0  0  0  0  0  0  0  0  0  0  0  0
    1.6422    4.2347    2.4721 H   0  0  0  0  0  0  0  0  0  0  0  0
    0.0483    6.7013    3.2172 H   0  0  0  0  0  0  0  0  0  0  0  0
    1.0919    8.8210    4.0813 H   0  0  0  0  0  0  0  0  0  0  0  0
    2.4167   10.2698    2.5400 H   0  0  0  0  0  0  0  0  0  0  0  0
    1.6680    7.5202   -0.7012 H   0  0  0  0  0  0  0  0  0  0  0  0
    2.6071    3.6255   -1.0937 H   0  0  0  0  0  0  0  0  0  0  0  0
    1.0901    4.3540   -1.6889 H   0  0  0  0  0  0  0  0  0  0  0  0
    1.0413    1.8209   -1.7660 H   0  0  0  0  0  0  0  0  0  0  0  0
   -0.2387    2.5019   -0.7389 H   0  0  0  0  0  0  0  0  0  0  0  0
    6.2540    0.2831    1.5786 H   0  0  0  0  0  0  0  0  0  0  0  0
    7.4280   -1.6266    0.4558 H   0  0  0  0  0  0  0  0  0  0  0  0
    6.2952   -2.9573   -1.3000 H   0  0  0  0  0  0  0  0  0  0  0  0
    3.9622   -2.4261   -2.0103 H   0  0  0  0  0  0  0  0  0  0  0  0
  1  2  1  0
  1 27  1  0
  1 28  1  0
  1 29  1  0
  2  3  1  0
  2 26  1  0
  3  4  1  0
  3 20  2  0
  4  5  1  0
  4 19  1  0
  5  6  1  0
  5 30  1  0
  5 31  1  0
  6  7  1  0
  6 32  1  0
  6 33  1  0
  7  8  1  0
  7 18  1  0
  8  9  2  0
  8 10  2  0
  8 11  1  1
 11 12  2  0
 11 17  1  0
 12 13  1  0
 12 34  1  0
 13 14  2  0
 13 35  1  0
 14 15  1  0
 14 36  1  0
 15 16  1  0
 15 17  2  0
 17 37  1  0
 18 19  1  0
 18 38  1  0
 18 39  1  0
 19 40  1  0
 19 41  1  0
 20 21  1  0
 21 22  1  0
 21 26  2  0
 22 23  2  0
 22 42  1  0
 23 24  1  0
 23 43  1  0
 24 25  2  0
 24 44  1  0
 25 26  1  0
 25 45  1  0
M  END

