
     RDKit          3D

 45 48  0  0  0  0  0  0  0  0999 V2000
    1.4176    0.0516    0.8671 O   0  0  0  0  0  0  0  0  0  0  0  0
    2.5640    0.0504    0.4308 C   0  0  0  0  0  0  0  0  0  0  0  0
    3.1797   -1.2782   -0.0364 C   0  0  2  0  0  0  0  0  0  0  0  0
    3.4421   -1.2161   -1.1115 H   0  0  0  0  0  0  0  0  0  0  0  0
    2.2000   -2.4317    0.1511 C   0  0  0  0  0  0  0  0  0  0  0  0
    2.7866   -3.6426   -0.3045 O   0  0  0  0  0  0  0  0  0  0  0  0
    4.0693   -3.8525    0.1088 C   0  0  0  0  0  0  0  0  0  0  0  0
    4.6163   -5.1360    0.0042 C   0  0  0  0  0  0  0  0  0  0  0  0
    5.9241   -5.3806    0.4261 C   0  0  0  0  0  0  0  0  0  0  0  0
    6.6943   -4.3419    0.9628 C   0  0  0  0  0  0  0  0  0  0  0  0
    6.1597   -3.0558    1.0588 C   0  0  0  0  0  0  0  0  0  0  0  0
    4.8540   -2.8044    0.6281 C   0  0  0  0  0  0  0  0  0  0  0  0
    4.3622   -1.5259    0.7219 O   0  0  0  0  0  0  0  0  0  0  0  0
    3.3150    1.1826    0.3156 N   0  0  0  0  0  0  0  0  0  0  0  0
    4.6729    1.2609   -0.2232 C   0  0  0  0  0  0  0  0  0  0  0  0
    4.7767    2.3777   -1.2657 C   0  0  0  0  0  0  0  0  0  0  0  0
    4.2914    3.7130   -0.6960 C   0  0  0  0  0  0  0  0  0  0  0  0
    2.8490    3.6059   -0.1422 C   0  0  1  0  0  0  0  0  0  0  0  0
    2.6572    4.5197    0.4490 H   0  0  0  0  0  0  0  0  0  0  0  0
    1.7850    3.5741   -1.2427 C   0  0  0  0  0  0  0  0  0  0  0  0
    0.8133    2.5659   -1.3517 C   0  0  0  0  0  0  0  0  0  0  0  0
   -0.1541    2.6073   -2.3637 C   0  0  0  0  0  0  0  0  0  0  0  0
   -0.1775    3.6561   -3.2838 C   0  0  0  0  0  0  0  0  0  0  0  0
    0.7747    4.6751   -3.1795 C   0  0  0  0  0  0  0  0  0  0  0  0
    1.7394    4.6308   -2.1718 C   0  0  0  0  0  0  0  0  0  0  0  0
    2.7989    2.4412    0.8641 C   0  0  0  0  0  0  0  0  0  0  0  0
    1.2868   -2.2695   -0.4337 H   0  0  0  0  0  0  0  0  0  0  0  0
    1.9215   -2.5070    1.2156 H   0  0  0  0  0  0  0  0  0  0  0  0
    3.9877   -5.9290   -0.4066 H   0  0  0  0  0  0  0  0  0  0  0  0
    6.3395   -6.3875    0.3424 H   0  0  0  0  0  0  0  0  0  0  0  0
    7.7154   -4.5305    1.3023 H   0  0  0  0  0  0  0  0  0  0  0  0
    6.7393   -2.2233    1.4639 H   0  0  0  0  0  0  0  0  0  0  0  0
    4.9662    0.2967   -0.6489 H   0  0  0  0  0  0  0  0  0  0  0  0
    5.3752    1.4601    0.6092 H   0  0  0  0  0  0  0  0  0  0  0  0
    4.1753    2.1060   -2.1500 H   0  0  0  0  0  0  0  0  0  0  0  0
    5.8242    2.4591   -1.6000 H   0  0  0  0  0  0  0  0  0  0  0  0
    4.3610    4.5041   -1.4574 H   0  0  0  0  0  0  0  0  0  0  0  0
    4.9598    4.0176    0.1296 H   0  0  0  0  0  0  0  0  0  0  0  0
    0.7833    1.7387   -0.6409 H   0  0  0  0  0  0  0  0  0  0  0  0
   -0.8982    1.8085   -2.4243 H   0  0  0  0  0  0  0  0  0  0  0  0
   -0.9346    3.6855   -4.0716 H   0  0  0  0  0  0  0  0  0  0  0  0
    0.7636    5.5120   -3.8830 H   0  0  0  0  0  0  0  0  0  0  0  0
    2.4653    5.4458   -2.1006 H   0  0  0  0  0  0  0  0  0  0  0  0
    1.7860    2.2537    1.2357 H   0  0  0  0  0  0  0  0  0  0  0  0
    3.4257    2.7168    1.7330 H   0  0  0  0  0  0  0  0  0  0  0  0
  1  2  2  0
  2  3  1  0
  2 14  1  0
  3  4  1  6
  3  5  1  0
  3 13  1  0
  5  6  1  0
  5 27  1  0
  5 28  1  0
  6  7  1  0
  7  8  2  0
  7 12  1  0
  8  9  1  0
  8 29  1  0
  9 10  2  0
  9 30  1  0
 10 11  1  0
 10 31  1  0
 11 12  2  0
 11 32  1  0
 12 13  1  0
 14 15  1  0
 14 26  1  0
 15 16  1  0
 15 33  1  0
 15 34  1  0
 16 17  1  0
 16 35  1  0
 16 36  1  0
 17 18  1  0
 17 37  1  0
 17 38  1  0
 18 19  1  1
 18 20  1  0
 18 26  1  0
 20 21  2  0
 20 25  1  0
 21 22  1  0
 21 39  1  0
 22 23  2  0
 22 40  1  0
 23 24  1  0
 23 41  1  0
 24 25  2  0
 24 42  1  0
 25 43  1  0
 26 44  1  0
 26 45  1  0
M  END

