
     RDKit          3D

 81 84  0  0  0  0  0  0  0  0999 V2000
   -0.4727    0.7330    2.7857 C   0  0  0  0  0  0  0  0  0  0  0  0
    0.3513    1.7248    2.1762 O   0  0  0  0  0  0  0  0  0  0  0  0
   -0.0119    2.1758    0.9621 C   0  0  0  0  0  0  0  0  0  0  0  0
   -0.9873    1.7995    0.3657 O   0  0  0  0  0  0  0  0  0  0  0  0
    0.9299    3.2753    0.5064 C   0  0  0  0  0  0  0  0  0  0  0  0
    2.4288    2.9484    0.7327 C   0  0  1  0  0  0  0  0  0  0  0  0
    2.4964    2.4109    1.6864 H   0  0  0  0  0  0  0  0  0  0  0  0
    2.9025    1.9177   -0.2946 C   0  0  0  0  0  0  0  0  0  0  0  0
    2.3569    0.8088   -0.3012 O   0  0  0  0  0  0  0  0  0  0  0  0
    3.8862    2.2291   -1.1747 N   0  0  0  0  0  0  0  0  0  0  0  0
    4.2778    1.2111   -2.1572 C   0  0  0  0  0  0  0  0  0  0  0  0
    5.1451    0.0779   -1.5733 C   0  0  0  0  0  0  0  0  0  0  0  0
    6.2859   -0.0973   -1.9119 O   0  0  0  0  0  0  0  0  0  0  0  0
    4.5312   -0.6929   -0.6742 O   0  0  0  0  0  0  0  0  0  0  0  0
    4.6390    3.4868   -1.1324 C   0  0  0  0  0  0  0  0  0  0  0  0
    3.8122    4.5874   -0.4901 C   0  0  0  0  0  0  0  0  0  0  0  0
    3.2882    4.1274    0.7859 N   0  0  0  0  0  0  0  0  0  0  0  0
    3.5288    4.8667    1.9191 C   0  0  0  0  0  0  0  0  0  0  0  0
    4.2279    5.8695    1.9080 O   0  0  0  0  0  0  0  0  0  0  0  0
    2.9154    4.3938    3.2550 C   0  0  1  0  0  0  0  0  0  0  0  0
    3.9742    3.6180    4.0529 C   0  0  0  0  0  0  0  0  0  0  0  0
    3.3453    2.8513    5.2230 C   0  0  0  0  0  0  0  0  0  0  0  0
    2.1775    2.4987    5.1704 O   0  0  0  0  0  0  0  0  0  0  0  0
    4.1442    2.5531    6.3018 N   0  0  0  0  0  0  0  0  0  0  0  0
    3.5758    1.8442    7.4423 C   0  0  0  0  0  0  0  0  0  0  0  0
    4.3450    0.5578    7.7468 C   0  0  0  0  0  0  0  0  0  0  0  0
    5.7721    0.8223    7.8916 N   0  0  0  0  0  0  0  0  0  0  0  0
    6.5718   -0.0352    8.6461 C   0  0  0  0  0  0  0  0  0  0  0  0
    6.0601   -1.1888    9.2821 C   0  0  0  0  0  0  0  0  0  0  0  0
    6.9053   -1.9802   10.0616 C   0  0  0  0  0  0  0  0  0  0  0  0
    8.2028   -1.7401   10.2577 N   0  0  0  0  0  0  0  0  0  0  0  0
    8.6943   -0.6562    9.6491 C   0  0  0  0  0  0  0  0  0  0  0  0
    7.9501    0.2093    8.8512 C   0  0  0  0  0  0  0  0  0  0  0  0
    6.3360    1.5379    6.7523 C   0  0  0  0  0  0  0  0  0  0  0  0
    5.5643    2.8275    6.4575 C   0  0  0  0  0  0  0  0  0  0  0  0
    2.4614    5.5501    4.0039 N   0  0  0  0  0  0  0  0  0  0  0  0
    1.2187    6.0858    3.7358 C   0  0  0  0  0  0  0  0  0  0  0  0
    0.4423    5.5585    2.9486 O   0  0  0  0  0  0  0  0  0  0  0  0
    0.8674    7.3418    4.4690 C   0  0  0  0  0  0  0  0  0  0  0  0
   -0.2203    8.1005    3.9950 C   0  0  0  0  0  0  0  0  0  0  0  0
   -0.6025    9.2724    4.6296 C   0  0  0  0  0  0  0  0  0  0  0  0
    0.0878    9.7175    5.7742 C   0  0  0  0  0  0  0  0  0  0  0  0
   -0.3563   10.8688    6.3264 O   0  0  0  0  0  0  0  0  0  0  0  0
    0.2809   11.3830    7.4759 C   0  0  0  0  0  0  0  0  0  0  0  0
    1.1627    8.9610    6.2698 C   0  0  0  0  0  0  0  0  0  0  0  0
    1.5396    7.7848    5.6160 C   0  0  0  0  0  0  0  0  0  0  0  0
   -0.0587    0.5792    3.7894 H   0  0  0  0  0  0  0  0  0  0  0  0
   -0.4442   -0.2020    2.2054 H   0  0  0  0  0  0  0  0  0  0  0  0
   -1.5152    1.0789    2.8477 H   0  0  0  0  0  0  0  0  0  0  0  0
    0.6890    4.1597    1.1212 H   0  0  0  0  0  0  0  0  0  0  0  0
    0.7057    3.5036   -0.5445 H   0  0  0  0  0  0  0  0  0  0  0  0
    4.8598    1.6949   -2.9495 H   0  0  0  0  0  0  0  0  0  0  0  0
    3.3623    0.7757   -2.5896 H   0  0  0  0  0  0  0  0  0  0  0  0
    3.6078   -0.3688   -0.5281 H   0  0  0  0  0  0  0  0  0  0  0  0
    4.8972    3.7690   -2.1649 H   0  0  0  0  0  0  0  0  0  0  0  0
    5.5871    3.3439   -0.5835 H   0  0  0  0  0  0  0  0  0  0  0  0
    2.9800    4.8751   -1.1584 H   0  0  0  0  0  0  0  0  0  0  0  0
    4.4257    5.4770   -0.3017 H   0  0  0  0  0  0  0  0  0  0  0  0
    2.0393    3.7522    3.1194 H   0  0  0  0  0  0  0  0  0  0  0  0
    4.7669    4.3131    4.3655 H   0  0  0  0  0  0  0  0  0  0  0  0
    4.4607    2.8761    3.3949 H   0  0  0  0  0  0  0  0  0  0  0  0
    2.5269    1.6217    7.2133 H   0  0  0  0  0  0  0  0  0  0  0  0
    3.6126    2.5041    8.3288 H   0  0  0  0  0  0  0  0  0  0  0  0
    4.1531   -0.1903    6.9491 H   0  0  0  0  0  0  0  0  0  0  0  0
    3.9529    0.1486    8.6868 H   0  0  0  0  0  0  0  0  0  0  0  0
    5.0205   -1.4934    9.1696 H   0  0  0  0  0  0  0  0  0  0  0  0
    6.4939   -2.8733   10.5483 H   0  0  0  0  0  0  0  0  0  0  0  0
    9.7602   -0.4489    9.8057 H   0  0  0  0  0  0  0  0  0  0  0  0
    8.4488    1.0770    8.4192 H   0  0  0  0  0  0  0  0  0  0  0  0
    6.3187    0.8948    5.8465 H   0  0  0  0  0  0  0  0  0  0  0  0
    7.3828    1.7975    6.9464 H   0  0  0  0  0  0  0  0  0  0  0  0
    5.9762    3.2862    5.5517 H   0  0  0  0  0  0  0  0  0  0  0  0
    5.7136    3.5361    7.2943 H   0  0  0  0  0  0  0  0  0  0  0  0
    3.1879    6.2131    4.2560 H   0  0  0  0  0  0  0  0  0  0  0  0
   -0.7558    7.7414    3.1143 H   0  0  0  0  0  0  0  0  0  0  0  0
   -1.4396    9.8714    4.2657 H   0  0  0  0  0  0  0  0  0  0  0  0
   -0.2425   12.3135    7.7326 H   0  0  0  0  0  0  0  0  0  0  0  0
    1.3453   11.6109    7.2874 H   0  0  0  0  0  0  0  0  0  0  0  0
    0.2108   10.6860    8.3301 H   0  0  0  0  0  0  0  0  0  0  0  0
    1.7026    9.2704    7.1646 H   0  0  0  0  0  0  0  0  0  0  0  0
    2.3575    7.1945    6.0355 H   0  0  0  0  0  0  0  0  0  0  0  0
  1  2  1  0
  1 47  1  0
  1 48  1  0
  1 49  1  0
  2  3  1  0
  3  4  2  0
  3  5  1  0
  5  6  1  0
  5 50  1  0
  5 51  1  0
  6  7  1  1
  6  8  1  0
  6 17  1  0
  8  9  2  0
  8 10  1  0
 10 11  1  0
 10 15  1  0
 11 12  1  0
 11 52  1  0
 11 53  1  0
 12 13  2  0
 12 14  1  0
 14 54  1  0
 15 16  1  0
 15 55  1  0
 15 56  1  0
 16 17  1  0
 16 57  1  0
 16 58  1  0
 17 18  1  0
 18 19  2  0
 18 20  1  0
 20 21  1  0
 20 36  1  0
 20 59  1  6
 21 22  1  0
 21 60  1  0
 21 61  1  0
 22 23  2  0
 22 24  1  0
 24 25  1  0
 24 35  1  0
 25 26  1  0
 25 62  1  0
 25 63  1  0
 26 27  1  0
 26 64  1  0
 26 65  1  0
 27 28  1  0
 27 34  1  0
 28 29  2  0
 28 33  1  0
 29 30  1  0
 29 66  1  0
 30 31  2  0
 30 67  1  0
 31 32  1  0
 32 33  2  0
 32 68  1  0
 33 69  1  0
 34 35  1  0
 34 70  1  0
 34 71  1  0
 35 72  1  0
 35 73  1  0
 36 37  1  0
 36 74  1  0
 37 38  2  0
 37 39  1  0
 39 40  2  0
 39 46  1  0
 40 41  1  0
 40 75  1  0
 41 42  2  0
 41 76  1  0
 42 43  1  0
 42 45  1  0
 43 44  1  0
 44 77  1  0
 44 78  1  0
 44 79  1  0
 45 46  2  0
 45 80  1  0
 46 81  1  0
M  END

