
     RDKit          3D

 46 49  0  0  0  0  0  0  0  0999 V2000
    1.2101    2.3085    1.0880 C   0  0  0  0  0  0  0  0  0  0  0  0
    2.6362    2.2952    1.0272 O   0  0  0  0  0  0  0  0  0  0  0  0
    3.1997    1.0915    0.8509 C   0  0  0  0  0  0  0  0  0  0  0  0
    2.5800    0.0667    0.7020 O   0  0  0  0  0  0  0  0  0  0  0  0
    4.6855    1.1566    0.8674 C   0  0  0  0  0  0  0  0  0  0  0  0
    5.5526    0.2694    1.5611 C   0  0  0  0  0  0  0  0  0  0  0  0
    5.2239   -0.8372    2.4739 C   0  0  0  0  0  0  0  0  0  0  0  0
    5.9676   -1.9788    2.5078 C   0  0  0  0  0  0  0  0  0  0  0  0
    5.6631   -3.0489    3.4190 C   0  0  0  0  0  0  0  0  0  0  0  0
    6.3854   -4.2589    3.4892 C   0  0  0  0  0  0  0  0  0  0  0  0
    6.0133   -5.2532    4.3860 C   0  0  0  0  0  0  0  0  0  0  0  0
    4.9067   -5.0562    5.2305 C   0  0  0  0  0  0  0  0  0  0  0  0
    4.1761   -3.8711    5.1819 C   0  0  0  0  0  0  0  0  0  0  0  0
    4.5584   -2.8742    4.2782 C   0  0  0  0  0  0  0  0  0  0  0  0
    3.8371   -1.7245    4.2550 O   0  0  0  0  0  0  0  0  0  0  0  0
    4.1125   -0.6515    3.4275 C   0  0  0  0  0  0  0  0  0  0  0  0
    3.4479    0.3436    3.5572 O   0  0  0  0  0  0  0  0  0  0  0  0
    6.8269    0.5578    1.2947 N   0  0  0  0  0  0  0  0  0  0  0  0
    6.8195    1.6106    0.4660 N   0  0  0  0  0  0  0  0  0  0  0  0
    8.0789    2.0741   -0.0410 C   0  0  0  0  0  0  0  0  0  0  0  0
    8.9559    1.1312   -0.5928 C   0  0  0  0  0  0  0  0  0  0  0  0
   10.2078    1.5402   -1.0534 C   0  0  0  0  0  0  0  0  0  0  0  0
   10.5844    2.8843   -0.9645 C   0  0  0  0  0  0  0  0  0  0  0  0
    9.7060    3.8166   -0.4055 C   0  0  0  0  0  0  0  0  0  0  0  0
    8.4525    3.4179    0.0652 C   0  0  0  0  0  0  0  0  0  0  0  0
    5.5353    2.0081    0.1671 C   0  0  0  0  0  0  0  0  0  0  0  0
    5.1855    3.0960   -0.7831 C   0  0  0  0  0  0  0  0  0  0  0  0
    5.7908    4.1320   -0.9281 O   0  0  0  0  0  0  0  0  0  0  0  0
    4.0851    2.7742   -1.4771 O   0  0  0  0  0  0  0  0  0  0  0  0
    3.5732    3.7794   -2.3533 C   0  0  0  0  0  0  0  0  0  0  0  0
    0.9207    3.3550    1.2454 H   0  0  0  0  0  0  0  0  0  0  0  0
    0.8581    1.6847    1.9229 H   0  0  0  0  0  0  0  0  0  0  0  0
    0.7728    1.9250    0.1533 H   0  0  0  0  0  0  0  0  0  0  0  0
    6.8105   -2.0876    1.8209 H   0  0  0  0  0  0  0  0  0  0  0  0
    7.2421   -4.4006    2.8253 H   0  0  0  0  0  0  0  0  0  0  0  0
    6.5779   -6.1868    4.4346 H   0  0  0  0  0  0  0  0  0  0  0  0
    4.6138   -5.8388    5.9347 H   0  0  0  0  0  0  0  0  0  0  0  0
    3.3146   -3.6954    5.8283 H   0  0  0  0  0  0  0  0  0  0  0  0
    8.6495    0.0859   -0.6486 H   0  0  0  0  0  0  0  0  0  0  0  0
   10.8907    0.8049   -1.4859 H   0  0  0  0  0  0  0  0  0  0  0  0
   11.5644    3.2039   -1.3275 H   0  0  0  0  0  0  0  0  0  0  0  0
    9.9981    4.8664   -0.3253 H   0  0  0  0  0  0  0  0  0  0  0  0
    7.7656    4.1409    0.5006 H   0  0  0  0  0  0  0  0  0  0  0  0
    2.6863    3.3436   -2.8287 H   0  0  0  0  0  0  0  0  0  0  0  0
    4.3210    4.0520   -3.1126 H   0  0  0  0  0  0  0  0  0  0  0  0
    3.3008    4.6837   -1.7883 H   0  0  0  0  0  0  0  0  0  0  0  0
  1  2  1  0
  1 31  1  0
  1 32  1  0
  1 33  1  0
  2  3  1  0
  3  4  2  0
  3  5  1  0
  5  6  1  0
  5 26  2  0
  6  7  1  0
  6 18  2  0
  7  8  2  0
  7 16  1  0
  8  9  1  0
  8 34  1  0
  9 10  2  0
  9 14  1  0
 10 11  1  0
 10 35  1  0
 11 12  2  0
 11 36  1  0
 12 13  1  0
 12 37  1  0
 13 14  2  0
 13 38  1  0
 14 15  1  0
 15 16  1  0
 16 17  2  0
 18 19  1  0
 19 20  1  0
 19 26  1  0
 20 21  2  0
 20 25  1  0
 21 22  1  0
 21 39  1  0
 22 23  2  0
 22 40  1  0
 23 24  1  0
 23 41  1  0
 24 25  2  0
 24 42  1  0
 25 43  1  0
 26 27  1  0
 27 28  2  0
 27 29  1  0
 29 30  1  0
 30 44  1  0
 30 45  1  0
 30 46  1  0
M  END

