
     RDKit          3D

 40 42  0  0  0  0  0  0  0  0999 V2000
    2.4206   -1.0805    0.7031 O   0  0  0  0  0  0  0  0  0  0  0  0
    2.0834   -0.1069    0.0803 C   0  0  0  0  0  0  0  0  0  0  0  0
    2.9410    0.9015   -0.2729 O   0  0  0  0  0  0  0  0  0  0  0  0
    4.2890    0.8882    0.0231 C   0  0  0  0  0  0  0  0  0  0  0  0
    5.0856   -0.2668   -0.0294 C   0  0  0  0  0  0  0  0  0  0  0  0
    6.4494   -0.1584    0.2209 C   0  0  0  0  0  0  0  0  0  0  0  0
    7.0384    1.0846    0.5237 C   0  0  0  0  0  0  0  0  0  0  0  0
    8.4752    1.2064    0.7871 C   0  0  0  0  0  0  0  0  0  0  0  0
    9.2742    0.2069    0.7781 N   0  0  0  0  0  0  0  0  0  0  0  0
   10.6455    0.3647    0.9585 C   0  0  0  0  0  0  0  0  0  0  0  0
   11.3265   -0.5767    1.7607 C   0  0  0  0  0  0  0  0  0  0  0  0
   12.6964   -0.4749    1.9684 C   0  0  0  0  0  0  0  0  0  0  0  0
   13.4017    0.5602    1.3460 C   0  0  0  0  0  0  0  0  0  0  0  0
   14.8558    0.6650    1.5520 N   0  0  0  0  0  0  0  0  0  0  0  0
   15.3861   -0.1628    2.2771 O   0  0  0  0  0  0  0  0  0  0  0  0
   15.4441    1.5751    0.9873 O   0  0  0  0  0  0  0  0  0  0  0  0
   12.7624    1.4895    0.5232 C   0  0  0  0  0  0  0  0  0  0  0  0
   11.3872    1.3910    0.3321 C   0  0  0  0  0  0  0  0  0  0  0  0
    6.2209    2.2279    0.5677 C   0  0  0  0  0  0  0  0  0  0  0  0
    4.8541    2.1337    0.3189 C   0  0  0  0  0  0  0  0  0  0  0  0
    0.6979    0.1651   -0.3956 C   0  0  0  0  0  0  0  0  0  0  0  0
   -0.2946   -0.7763   -0.0742 C   0  0  0  0  0  0  0  0  0  0  0  0
   -1.6093   -0.5776   -0.4935 C   0  0  0  0  0  0  0  0  0  0  0  0
   -1.9415    0.5606   -1.2372 C   0  0  0  0  0  0  0  0  0  0  0  0
   -0.9566    1.5001   -1.5604 C   0  0  0  0  0  0  0  0  0  0  0  0
    0.3608    1.3067   -1.1417 C   0  0  0  0  0  0  0  0  0  0  0  0
    4.6392   -1.2334   -0.2531 H   0  0  0  0  0  0  0  0  0  0  0  0
    7.0896   -1.0421    0.1871 H   0  0  0  0  0  0  0  0  0  0  0  0
    8.8343    2.2302    1.0140 H   0  0  0  0  0  0  0  0  0  0  0  0
   10.7493   -1.3810    2.2202 H   0  0  0  0  0  0  0  0  0  0  0  0
   13.2363   -1.1843    2.5951 H   0  0  0  0  0  0  0  0  0  0  0  0
   13.3531    2.2702    0.0442 H   0  0  0  0  0  0  0  0  0  0  0  0
   10.8805    2.0945   -0.3317 H   0  0  0  0  0  0  0  0  0  0  0  0
    6.6617    3.2013    0.8005 H   0  0  0  0  0  0  0  0  0  0  0  0
    4.2085    3.0131    0.3487 H   0  0  0  0  0  0  0  0  0  0  0  0
   -0.0119   -1.6569    0.5057 H   0  0  0  0  0  0  0  0  0  0  0  0
   -2.3787   -1.3113   -0.2412 H   0  0  0  0  0  0  0  0  0  0  0  0
   -2.9722    0.7160   -1.5663 H   0  0  0  0  0  0  0  0  0  0  0  0
   -1.2170    2.3880   -2.1417 H   0  0  0  0  0  0  0  0  0  0  0  0
    1.1330    2.0352   -1.3904 H   0  0  0  0  0  0  0  0  0  0  0  0
  1  2  2  0
  2  3  1  0
  2 21  1  0
  3  4  1  0
  4  5  2  0
  4 20  1  0
  5  6  1  0
  5 27  1  0
  6  7  2  0
  6 28  1  0
  7  8  1  0
  7 19  1  0
  8  9  2  0
  8 29  1  0
  9 10  1  0
 10 11  2  0
 10 18  1  0
 11 12  1  0
 11 30  1  0
 12 13  2  0
 12 31  1  0
 13 14  1  0
 13 17  1  0
 14 15  2  0
 14 16  1  0
 17 18  2  0
 17 32  1  0
 18 33  1  0
 19 20  2  0
 19 34  1  0
 20 35  1  0
 21 22  2  0
 21 26  1  0
 22 23  1  0
 22 36  1  0
 23 24  2  0
 23 37  1  0
 24 25  1  0
 24 38  1  0
 25 26  2  0
 25 39  1  0
 26 40  1  0
M  CHG  2  14   1  16  -1
M  END

