
     RDKit          3D

 55 57  0  0  0  0  0  0  0  0999 V2000
    4.7886    0.7219   -5.1465 N   0  0  0  0  0  0  0  0  0  0  0  0
    4.8818    0.0041   -3.9972 C   0  0  0  0  0  0  0  0  0  0  0  0
    5.4770   -1.0486   -3.8792 O   0  0  0  0  0  0  0  0  0  0  0  0
    4.2252    0.6316   -2.9926 O   0  0  0  0  0  0  0  0  0  0  0  0
    4.2201   -0.0236   -1.7063 C   0  0  1  0  0  0  0  0  0  0  0  0
    5.5435    0.2930   -0.9770 C   0  0  0  0  0  0  0  0  0  0  0  0
    5.7056   -0.4590    0.3437 C   0  0  0  0  0  0  0  0  0  0  0  0
    5.4750    0.1013    1.4047 O   0  0  0  0  0  0  0  0  0  0  0  0
    6.0842   -1.7829    0.2848 N   0  0  0  0  0  0  0  0  0  0  0  0
    6.2891   -2.5074    1.5383 C   0  0  0  0  0  0  0  0  0  0  0  0
    5.6593   -3.9054    1.4596 C   0  0  0  0  0  0  0  0  0  0  0  0
    6.1015   -4.6761    0.3004 N   0  0  0  0  0  0  0  0  0  0  0  0
    7.3810   -5.3565    0.4440 C   0  0  0  0  0  0  0  0  0  0  0  0
    7.2476   -6.6965    1.1993 C   0  0  0  0  0  0  0  0  0  0  0  0
    8.5626   -7.4293    1.3287 C   0  0  0  0  0  0  0  0  0  0  0  0
    9.4368   -7.1771    2.3983 C   0  0  0  0  0  0  0  0  0  0  0  0
   10.6685   -7.8242    2.4896 C   0  0  0  0  0  0  0  0  0  0  0  0
   11.0602   -8.7430    1.5102 C   0  0  0  0  0  0  0  0  0  0  0  0
   12.6014   -9.5402    1.6515 Cl  0  0  0  0  0  0  0  0  0  0  0  0
   10.1973   -9.0068    0.4340 C   0  0  0  0  0  0  0  0  0  0  0  0
   10.6332  -10.1473   -0.8084 Cl  0  0  0  0  0  0  0  0  0  0  0  0
    8.9647   -8.3509    0.3523 C   0  0  0  0  0  0  0  0  0  0  0  0
    5.8988   -3.9148   -0.9251 C   0  0  0  0  0  0  0  0  0  0  0  0
    6.5265   -2.5100   -0.9052 C   0  0  0  0  0  0  0  0  0  0  0  0
    2.9863    0.4343   -0.9578 C   0  0  0  0  0  0  0  0  0  0  0  0
    2.2269   -0.4883   -0.2268 C   0  0  0  0  0  0  0  0  0  0  0  0
    1.1040   -0.0745    0.4960 C   0  0  0  0  0  0  0  0  0  0  0  0
    0.7230    1.2692    0.4870 C   0  0  0  0  0  0  0  0  0  0  0  0
    1.4717    2.1962   -0.2459 C   0  0  0  0  0  0  0  0  0  0  0  0
    2.5971    1.7824   -0.9608 C   0  0  0  0  0  0  0  0  0  0  0  0
    5.1871    0.3295   -5.9880 H   0  0  0  0  0  0  0  0  0  0  0  0
    4.2056    1.5463   -5.1964 H   0  0  0  0  0  0  0  0  0  0  0  0
    4.1548   -1.1064   -1.8848 H   0  0  0  0  0  0  0  0  0  0  0  0
    5.5661    1.3607   -0.7216 H   0  0  0  0  0  0  0  0  0  0  0  0
    6.3750    0.0779   -1.6630 H   0  0  0  0  0  0  0  0  0  0  0  0
    5.8475   -1.9105    2.3461 H   0  0  0  0  0  0  0  0  0  0  0  0
    7.3754   -2.5891    1.7408 H   0  0  0  0  0  0  0  0  0  0  0  0
    4.5609   -3.7944    1.4081 H   0  0  0  0  0  0  0  0  0  0  0  0
    5.8792   -4.4630    2.3834 H   0  0  0  0  0  0  0  0  0  0  0  0
    8.1578   -4.7402    0.9462 H   0  0  0  0  0  0  0  0  0  0  0  0
    7.7751   -5.5671   -0.5632 H   0  0  0  0  0  0  0  0  0  0  0  0
    6.5103   -7.3152    0.6646 H   0  0  0  0  0  0  0  0  0  0  0  0
    6.8334   -6.5089    2.2036 H   0  0  0  0  0  0  0  0  0  0  0  0
    9.1489   -6.4682    3.1793 H   0  0  0  0  0  0  0  0  0  0  0  0
   11.3424   -7.6281    3.3253 H   0  0  0  0  0  0  0  0  0  0  0  0
    8.3115   -8.5790   -0.4927 H   0  0  0  0  0  0  0  0  0  0  0  0
    4.8104   -3.8016   -1.0858 H   0  0  0  0  0  0  0  0  0  0  0  0
    6.2931   -4.4825   -1.7822 H   0  0  0  0  0  0  0  0  0  0  0  0
    6.2494   -1.9803   -1.8248 H   0  0  0  0  0  0  0  0  0  0  0  0
    7.6319   -2.5974   -0.8932 H   0  0  0  0  0  0  0  0  0  0  0  0
    2.5170   -1.5427   -0.2213 H   0  0  0  0  0  0  0  0  0  0  0  0
    0.5235   -0.8063    1.0635 H   0  0  0  0  0  0  0  0  0  0  0  0
   -0.1564    1.5947    1.0486 H   0  0  0  0  0  0  0  0  0  0  0  0
    1.1774    3.2489   -0.2588 H   0  0  0  0  0  0  0  0  0  0  0  0
    3.1759    2.5084   -1.5361 H   0  0  0  0  0  0  0  0  0  0  0  0
  1  2  1  0
  1 31  1  0
  1 32  1  0
  2  3  2  0
  2  4  1  0
  4  5  1  0
  5  6  1  0
  5 25  1  0
  5 33  1  6
  6  7  1  0
  6 34  1  0
  6 35  1  0
  7  8  2  0
  7  9  1  0
  9 10  1  0
  9 24  1  0
 10 11  1  0
 10 36  1  0
 10 37  1  0
 11 12  1  0
 11 38  1  0
 11 39  1  0
 12 13  1  0
 12 23  1  0
 13 14  1  0
 13 40  1  0
 13 41  1  0
 14 15  1  0
 14 42  1  0
 14 43  1  0
 15 16  2  0
 15 22  1  0
 16 17  1  0
 16 44  1  0
 17 18  2  0
 17 45  1  0
 18 19  1  0
 18 20  1  0
 20 21  1  0
 20 22  2  0
 22 46  1  0
 23 24  1  0
 23 47  1  0
 23 48  1  0
 24 49  1  0
 24 50  1  0
 25 26  2  0
 25 30  1  0
 26 27  1  0
 26 51  1  0
 27 28  2  0
 27 52  1  0
 28 29  1  0
 28 53  1  0
 29 30  2  0
 29 54  1  0
 30 55  1  0
M  END

