
     RDKit          3D

 27 28  0  0  0  0  0  0  0  0999 V2000
    0.9753    0.1434    0.7300 C   0  0  0  0  0  0  0  0  0  0  0  0
    2.0408    0.0982   -0.1915 O   0  0  0  0  0  0  0  0  0  0  0  0
    2.7447    1.2310   -0.4490 C   0  0  0  0  0  0  0  0  0  0  0  0
    2.4867    2.4754    0.1396 C   0  0  0  0  0  0  0  0  0  0  0  0
    3.2937    3.5679   -0.2125 C   0  0  0  0  0  0  0  0  0  0  0  0
    4.3325    3.4420   -1.1261 C   0  0  0  0  0  0  0  0  0  0  0  0
    4.5830    2.1868   -1.7135 C   0  0  0  0  0  0  0  0  0  0  0  0
    5.6171    2.1382   -2.5990 O   0  0  0  0  0  0  0  0  0  0  0  0
    5.8896    0.9527   -3.3055 C   0  0  1  0  0  0  0  0  0  0  0  0
    7.0358    1.1099   -4.3221 C   0  0  0  0  0  0  0  0  0  0  0  0
    7.5995   -0.2498   -3.8537 C   0  0  2  0  0  0  0  0  0  0  0  0
    7.1182   -1.7478   -5.0473 Br  0  0  0  0  0  0  0  0  0  0  0  0
    6.7069   -0.1619   -2.5962 C   0  0  0  0  0  0  0  0  0  0  0  0
    3.7948    1.0846   -1.3755 C   0  0  0  0  0  0  0  0  0  0  0  0
    0.5624   -0.8732    0.7812 H   0  0  0  0  0  0  0  0  0  0  0  0
    0.1786    0.8368    0.4050 H   0  0  0  0  0  0  0  0  0  0  0  0
    1.3151    0.4424    1.7382 H   0  0  0  0  0  0  0  0  0  0  0  0
    1.6793    2.6078    0.8589 H   0  0  0  0  0  0  0  0  0  0  0  0
    3.0961    4.5417    0.2434 H   0  0  0  0  0  0  0  0  0  0  0  0
    4.9608    4.2888   -1.4067 H   0  0  0  0  0  0  0  0  0  0  0  0
    4.9698    0.5586   -3.7701 H   0  0  0  0  0  0  0  0  0  0  0  0
    7.7017    1.9301   -4.0108 H   0  0  0  0  0  0  0  0  0  0  0  0
    6.7805    1.2290   -5.3838 H   0  0  0  0  0  0  0  0  0  0  0  0
    8.6825   -0.3389   -3.7137 H   0  0  0  0  0  0  0  0  0  0  0  0
    7.2743    0.2591   -1.7508 H   0  0  0  0  0  0  0  0  0  0  0  0
    6.1894   -1.0742   -2.2693 H   0  0  0  0  0  0  0  0  0  0  0  0
    3.9606    0.0939   -1.7963 H   0  0  0  0  0  0  0  0  0  0  0  0
  1  2  1  0
  1 15  1  0
  1 16  1  0
  1 17  1  0
  2  3  1  0
  3  4  2  0
  3 14  1  0
  4  5  1  0
  4 18  1  0
  5  6  2  0
  5 19  1  0
  6  7  1  0
  6 20  1  0
  7  8  1  0
  7 14  2  0
  8  9  1  0
  9 10  1  0
  9 13  1  0
  9 21  1  6
 10 11  1  0
 10 22  1  0
 10 23  1  0
 11 12  1  0
 11 13  1  0
 11 24  1  1
 13 25  1  0
 13 26  1  0
 14 27  1  0
M  END

