
     RDKit          3D

 69 69  0  0  0  0  0  0  0  0999 V2000
    2.3363   -1.0018    1.6339 C   0  0  0  0  0  0  0  0  0  0  0  0
    3.6571   -0.4922    1.1135 C   0  0  0  0  0  0  0  0  0  0  0  0
    3.8159    0.8568    0.7606 C   0  0  0  0  0  0  0  0  0  0  0  0
    5.0613    1.2904    0.2796 C   0  0  0  0  0  0  0  0  0  0  0  0
    5.3531    2.6031   -0.1063 N   0  0  0  0  0  0  0  0  0  0  0  0
    4.5463    3.7208   -0.1111 C   0  0  0  0  0  0  0  0  0  0  0  0
    3.3313    3.7452    0.2596 N   0  0  0  0  0  0  0  0  0  0  0  0
    2.5585    4.9680    0.2190 C   0  0  0  0  0  0  0  0  0  0  0  0
    1.1316    4.7411    0.7195 C   0  0  0  0  0  0  0  0  0  0  0  0
    0.2671    6.0029    0.6958 C   0  0  0  0  0  0  0  0  0  0  0  0
   -1.1611    5.7775    1.2013 C   0  0  0  0  0  0  0  0  0  0  0  0
   -2.0336    7.0358    1.1764 C   0  0  0  0  0  0  0  0  0  0  0  0
   -3.4599    6.8105    1.6868 C   0  0  0  0  0  0  0  0  0  0  0  0
   -4.3343    8.0675    1.6585 C   0  0  0  0  0  0  0  0  0  0  0  0
   -5.7586    7.8427    2.1747 C   0  0  0  0  0  0  0  0  0  0  0  0
   -6.6313    9.0999    2.1446 C   0  0  0  0  0  0  0  0  0  0  0  0
   -8.0495    8.8591    2.6766 C   0  0  0  0  0  0  0  0  0  0  0  0
   -8.9017   10.0313    2.6402 N   0  0  0  0  0  0  0  0  0  0  0  0
   -9.0665   10.8504    3.7205 C   0  0  0  0  0  0  0  0  0  0  0  0
   -8.6064   10.6364    4.8250 O   0  0  0  0  0  0  0  0  0  0  0  0
   -9.8240   11.9157    3.3678 O   0  0  0  0  0  0  0  0  0  0  0  0
  -10.1939   12.9524    4.3310 C   0  0  1  0  0  0  0  0  0  0  0  0
   -8.9373   13.6521    4.8611 C   0  0  0  0  0  0  0  0  0  0  0  0
  -11.0344   13.9156    3.4898 C   0  0  0  0  0  0  0  0  0  0  0  0
  -11.0340   12.3461    5.4607 C   0  0  0  0  0  0  0  0  0  0  0  0
    5.2282    4.8845   -0.5872 N   0  0  0  0  0  0  0  0  0  0  0  0
    6.4978    4.9281   -0.9932 C   0  0  0  0  0  0  0  0  0  0  0  0
    7.6107    4.9149   -1.3372 N   0  0  0  0  0  0  0  0  0  0  0  0
    6.0917    0.3377    0.1774 C   0  0  0  0  0  0  0  0  0  0  0  0
    5.8241   -0.9753    0.5559 C   0  0  0  0  0  0  0  0  0  0  0  0
    4.6438   -1.3951    1.0136 N   0  0  0  0  0  0  0  0  0  0  0  0
    1.5797   -0.2071    1.6957 H   0  0  0  0  0  0  0  0  0  0  0  0
    2.4702   -1.4456    2.6335 H   0  0  0  0  0  0  0  0  0  0  0  0
    1.9574   -1.8046    0.9809 H   0  0  0  0  0  0  0  0  0  0  0  0
    2.9977    1.5658    0.8528 H   0  0  0  0  0  0  0  0  0  0  0  0
    6.3046    2.7420   -0.4306 H   0  0  0  0  0  0  0  0  0  0  0  0
    2.5100    5.3760   -0.8146 H   0  0  0  0  0  0  0  0  0  0  0  0
    3.0293    5.7600    0.8421 H   0  0  0  0  0  0  0  0  0  0  0  0
    1.1848    4.3354    1.7447 H   0  0  0  0  0  0  0  0  0  0  0  0
    0.6695    3.9515    0.1018 H   0  0  0  0  0  0  0  0  0  0  0  0
    0.2283    6.4043   -0.3345 H   0  0  0  0  0  0  0  0  0  0  0  0
    0.7475    6.7910    1.3058 H   0  0  0  0  0  0  0  0  0  0  0  0
   -1.1229    5.3793    2.2321 H   0  0  0  0  0  0  0  0  0  0  0  0
   -1.6411    4.9877    0.5942 H   0  0  0  0  0  0  0  0  0  0  0  0
   -2.0736    7.4318    0.1444 H   0  0  0  0  0  0  0  0  0  0  0  0
   -1.5511    7.8266    1.7807 H   0  0  0  0  0  0  0  0  0  0  0  0
   -3.4194    6.4178    2.7198 H   0  0  0  0  0  0  0  0  0  0  0  0
   -3.9414    6.0172    1.0850 H   0  0  0  0  0  0  0  0  0  0  0  0
   -4.3783    8.4583    0.6247 H   0  0  0  0  0  0  0  0  0  0  0  0
   -3.8519    8.8618    2.2576 H   0  0  0  0  0  0  0  0  0  0  0  0
   -5.7143    7.4554    3.2094 H   0  0  0  0  0  0  0  0  0  0  0  0
   -6.2408    7.0459    1.5776 H   0  0  0  0  0  0  0  0  0  0  0  0
   -6.6905    9.4868    1.1102 H   0  0  0  0  0  0  0  0  0  0  0  0
   -6.1625    9.8971    2.7475 H   0  0  0  0  0  0  0  0  0  0  0  0
   -8.0029    8.5312    3.7257 H   0  0  0  0  0  0  0  0  0  0  0  0
   -8.5348    8.0498    2.1030 H   0  0  0  0  0  0  0  0  0  0  0  0
   -9.2747   10.3567    1.7564 H   0  0  0  0  0  0  0  0  0  0  0  0
   -8.3359   14.0429    4.0251 H   0  0  0  0  0  0  0  0  0  0  0  0
   -8.3203   12.9600    5.4479 H   0  0  0  0  0  0  0  0  0  0  0  0
   -9.2250   14.5015    5.5004 H   0  0  0  0  0  0  0  0  0  0  0  0
  -10.4423   14.3166    2.6530 H   0  0  0  0  0  0  0  0  0  0  0  0
  -11.3827   14.7582    4.1062 H   0  0  0  0  0  0  0  0  0  0  0  0
  -11.9135   13.4002    3.0739 H   0  0  0  0  0  0  0  0  0  0  0  0
  -10.4419   11.6380    6.0540 H   0  0  0  0  0  0  0  0  0  0  0  0
  -11.9077   11.8187    5.0465 H   0  0  0  0  0  0  0  0  0  0  0  0
  -11.4008   13.1458    6.1233 H   0  0  0  0  0  0  0  0  0  0  0  0
    4.6895    5.7435   -0.6136 H   0  0  0  0  0  0  0  0  0  0  0  0
    7.0834    0.6159   -0.1904 H   0  0  0  0  0  0  0  0  0  0  0  0
    6.6180   -1.7287    0.4816 H   0  0  0  0  0  0  0  0  0  0  0  0
  1  2  1  0
  1 32  1  0
  1 33  1  0
  1 34  1  0
  2  3  2  0
  2 31  1  0
  3  4  1  0
  3 35  1  0
  4  5  1  0
  4 29  2  0
  5  6  1  0
  5 36  1  0
  6  7  2  0
  6 26  1  0
  7  8  1  0
  8  9  1  0
  8 37  1  0
  8 38  1  0
  9 10  1  0
  9 39  1  0
  9 40  1  0
 10 11  1  0
 10 41  1  0
 10 42  1  0
 11 12  1  0
 11 43  1  0
 11 44  1  0
 12 13  1  0
 12 45  1  0
 12 46  1  0
 13 14  1  0
 13 47  1  0
 13 48  1  0
 14 15  1  0
 14 49  1  0
 14 50  1  0
 15 16  1  0
 15 51  1  0
 15 52  1  0
 16 17  1  0
 16 53  1  0
 16 54  1  0
 17 18  1  0
 17 55  1  0
 17 56  1  0
 18 19  1  0
 18 57  1  0
 19 20  2  0
 19 21  1  0
 22 21  1  6
 22 23  1  0
 22 24  1  0
 22 25  1  0
 23 58  1  0
 23 59  1  0
 23 60  1  0
 24 61  1  0
 24 62  1  0
 24 63  1  0
 25 64  1  0
 25 65  1  0
 25 66  1  0
 26 27  1  0
 26 67  1  0
 27 28  3  0
 29 30  1  0
 29 68  1  0
 30 31  2  0
 30 69  1  0
M  END

