
     RDKit          3D

 30 31  0  0  0  0  0  0  0  0999 V2000
    0.9111    0.0776   -0.0157 N   0  0  0  0  0  0  0  0  0  0  0  0
    2.3628   -0.0041   -0.1273 C   0  0  1  0  0  0  0  0  0  0  0  0
    2.8691   -0.8066   -1.3695 C   0  0  0  0  0  0  0  0  0  0  0  0
    2.4191   -2.2472   -1.3684 C   0  0  0  0  0  0  0  0  0  0  0  0
    1.2464   -2.6486   -2.0262 C   0  0  0  0  0  0  0  0  0  0  0  0
    0.8083   -3.9752   -1.9820 C   0  0  0  0  0  0  0  0  0  0  0  0
    1.5423   -4.9278   -1.2713 C   0  0  0  0  0  0  0  0  0  0  0  0
    1.1027   -6.3686   -1.2116 C   0  0  1  0  0  0  0  0  0  0  0  0
   -0.0628   -6.5736   -1.8479 F   0  0  0  0  0  0  0  0  0  0  0  0
    2.0140   -7.1877   -1.7717 F   0  0  0  0  0  0  0  0  0  0  0  0
    0.9440   -6.7839    0.0603 F   0  0  0  0  0  0  0  0  0  0  0  0
    2.7172   -4.5457   -0.6086 C   0  0  0  0  0  0  0  0  0  0  0  0
    3.1455   -3.2212   -0.6588 C   0  0  0  0  0  0  0  0  0  0  0  0
    2.9601    1.3858   -0.1013 C   0  0  0  0  0  0  0  0  0  0  0  0
    2.2573    2.6356   -0.2347 C   0  0  0  0  0  0  0  0  0  0  0  0
    3.1898    3.6267   -0.1506 C   0  0  0  0  0  0  0  0  0  0  0  0
    4.4279    3.0930    0.0328 O   0  0  0  0  0  0  0  0  0  0  0  0
    4.2724    1.7516    0.0615 C   0  0  0  0  0  0  0  0  0  0  0  0
    5.8177    0.7383    0.3683 Br  0  0  0  0  0  0  0  0  0  0  0  0
    0.5155   -0.8438    0.1645 H   0  0  0  0  0  0  0  0  0  0  0  0
    0.5015    0.3986   -0.8949 H   0  0  0  0  0  0  0  0  0  0  0  0
    2.7228   -0.5362    0.7709 H   0  0  0  0  0  0  0  0  0  0  0  0
    3.9687   -0.7651   -1.3942 H   0  0  0  0  0  0  0  0  0  0  0  0
    2.5078   -0.2931   -2.2764 H   0  0  0  0  0  0  0  0  0  0  0  0
    0.6697   -1.9151   -2.5960 H   0  0  0  0  0  0  0  0  0  0  0  0
   -0.1032   -4.2711   -2.5035 H   0  0  0  0  0  0  0  0  0  0  0  0
    3.2974   -5.2876   -0.0551 H   0  0  0  0  0  0  0  0  0  0  0  0
    4.0658   -2.9338   -0.1425 H   0  0  0  0  0  0  0  0  0  0  0  0
    1.1830    2.7569   -0.3463 H   0  0  0  0  0  0  0  0  0  0  0  0
    3.1410    4.7113   -0.1906 H   0  0  0  0  0  0  0  0  0  0  0  0
  1  2  1  0
  1 20  1  0
  1 21  1  0
  2  3  1  0
  2 14  1  0
  2 22  1  1
  3  4  1  0
  3 23  1  0
  3 24  1  0
  4  5  2  0
  4 13  1  0
  5  6  1  0
  5 25  1  0
  6  7  2  0
  6 26  1  0
  7  8  1  0
  7 12  1  0
  8  9  1  6
  8 10  1  0
  8 11  1  0
 12 13  2  0
 12 27  1  0
 13 28  1  0
 14 15  1  0
 14 18  2  0
 15 16  2  0
 15 29  1  0
 16 17  1  0
 16 30  1  0
 17 18  1  0
 18 19  1  0
M  END

