
     RDKit          3D

 60 61  0  0  0  0  0  0  0  0999 V2000
    9.4480   -0.4359    1.1904 C   0  0  0  0  0  0  0  0  0  0  0  0
   10.0409    0.8226    0.5557 C   0  0  0  0  0  0  0  0  0  0  0  0
    9.0893    2.0240    0.5756 C   0  0  0  0  0  0  0  0  0  0  0  0
    9.6938    3.2867   -0.0468 C   0  0  0  0  0  0  0  0  0  0  0  0
    8.7291    4.4800   -0.1802 C   0  0  1  0  0  0  0  0  0  0  0  0
    8.1716    5.0090    1.1613 C   0  0  0  0  0  0  0  0  0  0  0  0
    9.2032    5.5091    2.1784 C   0  0  0  0  0  0  0  0  0  0  0  0
    9.3735    5.6190   -0.9855 C   0  0  0  0  0  0  0  0  0  0  0  0
    9.7168    5.2666   -2.3246 O   0  0  0  0  0  0  0  0  0  0  0  0
    8.6593    5.2744   -3.2580 C   0  0  0  0  0  0  0  0  0  0  0  0
    9.2078    4.8401   -4.6304 C   0  0  1  0  0  0  0  0  0  0  0  0
    9.7369    3.3472   -4.6494 C   0  0  1  0  0  0  0  0  0  0  0  0
   10.0712    3.0206   -5.9525 O   0  0  0  0  0  0  0  0  0  0  0  0
   10.8858    3.2752   -3.8414 O   0  0  0  0  0  0  0  0  0  0  0  0
    8.6812    2.3084   -4.1481 C   0  0  1  0  0  0  0  0  0  0  0  0
    7.3681    2.6060   -4.5754 O   0  0  0  0  0  0  0  0  0  0  0  0
    9.0883    0.8747   -4.4914 C   0  0  0  0  0  0  0  0  0  0  0  0
    8.3083    0.1164   -5.3724 C   0  0  0  0  0  0  0  0  0  0  0  0
    8.6575   -1.2019   -5.6820 C   0  0  0  0  0  0  0  0  0  0  0  0
    9.7917   -1.7827   -5.1098 C   0  0  0  0  0  0  0  0  0  0  0  0
   10.5730   -1.0340   -4.2233 C   0  0  0  0  0  0  0  0  0  0  0  0
   10.2234    0.2824   -3.9138 C   0  0  0  0  0  0  0  0  0  0  0  0
    8.1917    4.9456   -5.6070 O   0  0  0  0  0  0  0  0  0  0  0  0
    7.7575    6.2487   -5.9629 C   0  0  0  0  0  0  0  0  0  0  0  0
    8.7855    7.3623   -5.7809 C   0  0  0  0  0  0  0  0  0  0  0  0
    8.5247    8.4999   -6.0903 O   0  0  0  0  0  0  0  0  0  0  0  0
   10.1215    6.9883   -5.1551 C   0  0  0  0  0  0  0  0  0  0  0  0
   10.3258    5.5963   -5.0349 O   0  0  0  0  0  0  0  0  0  0  0  0
   10.1575   -1.2779    1.1567 H   0  0  0  0  0  0  0  0  0  0  0  0
    8.5313   -0.7541    0.6664 H   0  0  0  0  0  0  0  0  0  0  0  0
    9.1822   -0.2667    2.2477 H   0  0  0  0  0  0  0  0  0  0  0  0
   10.3279    0.6079   -0.4892 H   0  0  0  0  0  0  0  0  0  0  0  0
   10.9777    1.0935    1.0763 H   0  0  0  0  0  0  0  0  0  0  0  0
    8.7834    2.2220    1.6186 H   0  0  0  0  0  0  0  0  0  0  0  0
    8.1612    1.7591    0.0350 H   0  0  0  0  0  0  0  0  0  0  0  0
   10.0716    3.0378   -1.0523 H   0  0  0  0  0  0  0  0  0  0  0  0
   10.5836    3.5941    0.5329 H   0  0  0  0  0  0  0  0  0  0  0  0
    7.8511    4.1327   -0.7565 H   0  0  0  0  0  0  0  0  0  0  0  0
    7.5683    4.2121    1.6262 H   0  0  0  0  0  0  0  0  0  0  0  0
    7.4574    5.8232    0.9421 H   0  0  0  0  0  0  0  0  0  0  0  0
    9.9030    4.7145    2.4820 H   0  0  0  0  0  0  0  0  0  0  0  0
    8.7015    5.8666    3.0915 H   0  0  0  0  0  0  0  0  0  0  0  0
    9.8036    6.3483    1.7908 H   0  0  0  0  0  0  0  0  0  0  0  0
   10.3204    5.9332   -0.5200 H   0  0  0  0  0  0  0  0  0  0  0  0
    8.7028    6.5000   -1.0054 H   0  0  0  0  0  0  0  0  0  0  0  0
    8.2182    6.2890   -3.3148 H   0  0  0  0  0  0  0  0  0  0  0  0
    7.8420    4.5820   -2.9951 H   0  0  0  0  0  0  0  0  0  0  0  0
   10.7209    3.6797   -6.2422 H   0  0  0  0  0  0  0  0  0  0  0  0
   10.8193    3.9528   -3.1450 H   0  0  0  0  0  0  0  0  0  0  0  0
    8.6842    2.3968   -3.0478 H   0  0  0  0  0  0  0  0  0  0  0  0
    7.4206    3.1568   -5.3708 H   0  0  0  0  0  0  0  0  0  0  0  0
    7.4138    0.5668   -5.8042 H   0  0  0  0  0  0  0  0  0  0  0  0
    8.0356   -1.7785   -6.3724 H   0  0  0  0  0  0  0  0  0  0  0  0
   10.0644   -2.8140   -5.3491 H   0  0  0  0  0  0  0  0  0  0  0  0
   11.4620   -1.4786   -3.7676 H   0  0  0  0  0  0  0  0  0  0  0  0
   10.8469    0.8665   -3.2352 H   0  0  0  0  0  0  0  0  0  0  0  0
    6.8485    6.5429   -5.4029 H   0  0  0  0  0  0  0  0  0  0  0  0
    7.4775    6.2245   -7.0288 H   0  0  0  0  0  0  0  0  0  0  0  0
   10.1991    7.4998   -4.1753 H   0  0  0  0  0  0  0  0  0  0  0  0
   10.9267    7.3900   -5.7898 H   0  0  0  0  0  0  0  0  0  0  0  0
  1  2  1  0
  1 29  1  0
  1 30  1  0
  1 31  1  0
  2  3  1  0
  2 32  1  0
  2 33  1  0
  3  4  1  0
  3 34  1  0
  3 35  1  0
  4  5  1  0
  4 36  1  0
  4 37  1  0
  5  6  1  0
  5  8  1  0
  5 38  1  6
  6  7  1  0
  6 39  1  0
  6 40  1  0
  7 41  1  0
  7 42  1  0
  7 43  1  0
  8  9  1  0
  8 44  1  0
  8 45  1  0
  9 10  1  0
 11 10  1  1
 10 46  1  0
 10 47  1  0
 11 12  1  0
 11 23  1  0
 11 28  1  0
 12 13  1  6
 12 14  1  0
 12 15  1  0
 13 48  1  0
 14 49  1  0
 15 16  1  0
 15 17  1  0
 15 50  1  1
 16 51  1  0
 17 18  2  0
 17 22  1  0
 18 19  1  0
 18 52  1  0
 19 20  2  0
 19 53  1  0
 20 21  1  0
 20 54  1  0
 21 22  2  0
 21 55  1  0
 22 56  1  0
 23 24  1  0
 24 25  1  0
 24 57  1  0
 24 58  1  0
 25 26  2  0
 25 27  1  0
 27 28  1  0
 27 59  1  0
 27 60  1  0
M  END

