
     RDKit          3D

 64 65  0  0  0  0  0  0  0  0999 V2000
    2.2016    3.0365    3.0673 C   0  0  0  0  0  0  0  0  0  0  0  0
    2.2276    2.3960    1.6755 C   0  0  0  0  0  0  0  0  0  0  0  0
    3.1455    1.2661    1.5470 N   0  0  0  0  0  0  0  0  0  0  0  0
    2.6903   -0.0786    1.9219 C   0  0  0  0  0  0  0  0  0  0  0  0
    1.1835   -0.3094    1.8646 C   0  0  0  0  0  0  0  0  0  0  0  0
    4.4957    1.4879    1.3628 C   0  0  0  0  0  0  0  0  0  0  0  0
    5.4393    0.4120    1.4436 C   0  0  0  0  0  0  0  0  0  0  0  0
    6.7813    0.6408    1.2244 C   0  0  0  0  0  0  0  0  0  0  0  0
    7.2994    1.9229    0.9242 C   0  0  0  0  0  0  0  0  0  0  0  0
    8.6988    2.1126    0.7078 C   0  0  0  0  0  0  0  0  0  0  0  0
    9.2151    3.2834    0.4342 N   0  0  0  0  0  0  0  0  0  0  0  0
   10.5600    3.4673    0.2259 C   0  0  0  0  0  0  0  0  0  0  0  0
   11.4693    2.3498    0.3066 C   0  0  0  0  0  0  0  0  0  0  0  0
   12.1072    1.3827    0.3966 N   0  0  0  0  0  0  0  0  0  0  0  0
   11.0829    4.7199   -0.0648 C   0  0  0  0  0  0  0  0  0  0  0  0
   10.1788    5.8431   -0.1449 C   0  0  0  0  0  0  0  0  0  0  0  0
    9.5240    6.7995   -0.2291 N   0  0  0  0  0  0  0  0  0  0  0  0
   12.4288    4.8705   -0.2674 N   0  0  0  0  0  0  0  0  0  0  0  0
   12.9619    6.0212   -0.5407 C   0  0  0  0  0  0  0  0  0  0  0  0
   14.3817    6.1717   -0.7551 C   0  0  0  0  0  0  0  0  0  0  0  0
   15.2737    5.0786   -0.6785 C   0  0  0  0  0  0  0  0  0  0  0  0
   16.6336    5.2119   -0.8783 C   0  0  0  0  0  0  0  0  0  0  0  0
   17.2060    6.4828   -1.1854 C   0  0  0  0  0  0  0  0  0  0  0  0
   18.5570    6.6271   -1.4219 N   0  0  0  0  0  0  0  0  0  0  0  0
   19.4667    5.4860   -1.3318 C   0  0  0  0  0  0  0  0  0  0  0  0
   19.9290    5.1270    0.0847 C   0  0  0  0  0  0  0  0  0  0  0  0
   19.1394    7.9345   -1.7100 C   0  0  0  0  0  0  0  0  0  0  0  0
   19.4291    8.8089   -0.4844 C   0  0  0  0  0  0  0  0  0  0  0  0
   16.3199    7.5882   -1.2520 C   0  0  0  0  0  0  0  0  0  0  0  0
   14.9480    7.4387   -1.0490 C   0  0  0  0  0  0  0  0  0  0  0  0
   14.1070    8.4983   -1.1209 O   0  0  0  0  0  0  0  0  0  0  0  0
    6.3631    3.0082    0.8599 C   0  0  0  0  0  0  0  0  0  0  0  0
    6.7576    4.2498    0.5929 O   0  0  0  0  0  0  0  0  0  0  0  0
    5.0041    2.7782    1.0844 C   0  0  0  0  0  0  0  0  0  0  0  0
    1.4956    3.8825    3.0871 H   0  0  0  0  0  0  0  0  0  0  0  0
    3.1946    3.4153    3.3531 H   0  0  0  0  0  0  0  0  0  0  0  0
    1.8824    2.3130    3.8349 H   0  0  0  0  0  0  0  0  0  0  0  0
    2.4860    3.1478    0.9163 H   0  0  0  0  0  0  0  0  0  0  0  0
    1.2201    2.0551    1.4058 H   0  0  0  0  0  0  0  0  0  0  0  0
    3.0578   -0.3393    2.9348 H   0  0  0  0  0  0  0  0  0  0  0  0
    3.1599   -0.7983    1.2337 H   0  0  0  0  0  0  0  0  0  0  0  0
    0.6257    0.2870    2.6021 H   0  0  0  0  0  0  0  0  0  0  0  0
    0.9863   -1.3693    2.0880 H   0  0  0  0  0  0  0  0  0  0  0  0
    0.7733   -0.1001    0.8642 H   0  0  0  0  0  0  0  0  0  0  0  0
    5.1175   -0.5977    1.6843 H   0  0  0  0  0  0  0  0  0  0  0  0
    7.4810   -0.1978    1.2899 H   0  0  0  0  0  0  0  0  0  0  0  0
    9.3414    1.2182    0.7809 H   0  0  0  0  0  0  0  0  0  0  0  0
   12.3522    6.9361   -0.6222 H   0  0  0  0  0  0  0  0  0  0  0  0
   14.8467    4.1004   -0.4480 H   0  0  0  0  0  0  0  0  0  0  0  0
   17.2605    4.3268   -0.7953 H   0  0  0  0  0  0  0  0  0  0  0  0
   20.3441    5.7209   -1.9544 H   0  0  0  0  0  0  0  0  0  0  0  0
   18.9941    4.6107   -1.8049 H   0  0  0  0  0  0  0  0  0  0  0  0
   20.4923    5.9526    0.5463 H   0  0  0  0  0  0  0  0  0  0  0  0
   20.5875    4.2437    0.0557 H   0  0  0  0  0  0  0  0  0  0  0  0
   19.0763    4.8931    0.7400 H   0  0  0  0  0  0  0  0  0  0  0  0
   18.4821    8.4753   -2.4109 H   0  0  0  0  0  0  0  0  0  0  0  0
   20.0760    7.7602   -2.2620 H   0  0  0  0  0  0  0  0  0  0  0  0
   18.5183    8.9962    0.1045 H   0  0  0  0  0  0  0  0  0  0  0  0
   19.8373    9.7828   -0.8004 H   0  0  0  0  0  0  0  0  0  0  0  0
   20.1659    8.3345    0.1815 H   0  0  0  0  0  0  0  0  0  0  0  0
   16.6928    8.5905   -1.4638 H   0  0  0  0  0  0  0  0  0  0  0  0
   14.6032    9.3011   -1.3270 H   0  0  0  0  0  0  0  0  0  0  0  0
    7.7438    4.2425    0.4625 H   0  0  0  0  0  0  0  0  0  0  0  0
    4.3621    3.6538    1.0269 H   0  0  0  0  0  0  0  0  0  0  0  0
  1  2  1  0
  1 35  1  0
  1 36  1  0
  1 37  1  0
  2  3  1  0
  2 38  1  0
  2 39  1  0
  3  4  1  0
  3  6  1  0
  4  5  1  0
  4 40  1  0
  4 41  1  0
  5 42  1  0
  5 43  1  0
  5 44  1  0
  6  7  2  0
  6 34  1  0
  7  8  1  0
  7 45  1  0
  8  9  2  0
  8 46  1  0
  9 10  1  0
  9 32  1  0
 10 11  2  0
 10 47  1  0
 11 12  1  0
 12 13  1  0
 12 15  2  0
 13 14  3  0
 15 16  1  0
 15 18  1  0
 16 17  3  0
 18 19  2  0
 19 20  1  0
 19 48  1  0
 20 21  2  0
 20 30  1  0
 21 22  1  0
 21 49  1  0
 22 23  2  0
 22 50  1  0
 23 24  1  0
 23 29  1  0
 24 25  1  0
 24 27  1  0
 25 26  1  0
 25 51  1  0
 25 52  1  0
 26 53  1  0
 26 54  1  0
 26 55  1  0
 27 28  1  0
 27 56  1  0
 27 57  1  0
 28 58  1  0
 28 59  1  0
 28 60  1  0
 29 30  2  0
 29 61  1  0
 30 31  1  0
 31 62  1  0
 32 33  1  0
 32 34  2  0
 33 63  1  0
 34 64  1  0
M  END

