
     RDKit          3D

 37 39  0  0  0  0  0  0  0  0999 V2000
    1.1114   -0.0335    0.3267 C   0  0  0  0  0  0  0  0  0  0  0  0
    2.5356    0.0093    0.0547 N   0  0  0  0  0  0  0  0  0  0  0  0
    3.2428   -1.2175   -0.2626 C   0  0  0  0  0  0  0  0  0  0  0  0
    3.2124    1.2056    0.0929 C   0  0  0  0  0  0  0  0  0  0  0  0
    2.5488    2.4246    0.4030 C   0  0  0  0  0  0  0  0  0  0  0  0
    3.2373    3.6269    0.4403 C   0  0  0  0  0  0  0  0  0  0  0  0
    4.6205    3.7012    0.1745 C   0  0  0  0  0  0  0  0  0  0  0  0
    5.3539    4.9663    0.2123 C   0  0  0  0  0  0  0  0  0  0  0  0
    4.8456    6.2041    0.4973 C   0  0  0  0  0  0  0  0  0  0  0  0
    5.6953    7.3559    0.4950 C   0  0  0  0  0  0  0  0  0  0  0  0
    5.2231    8.6616    0.7828 C   0  0  0  0  0  0  0  0  0  0  0  0
    6.0825    9.7462    0.7687 C   0  0  0  0  0  0  0  0  0  0  0  0
    7.4411    9.5470    0.4646 C   0  0  0  0  0  0  0  0  0  0  0  0
    8.3479   10.7059    0.4519 N   0  0  0  0  0  0  0  0  0  0  0  0
    7.8672   11.8000    0.7100 O   0  0  0  0  0  0  0  0  0  0  0  0
    9.5221   10.5045    0.1849 O   0  0  0  0  0  0  0  0  0  0  0  0
    7.9456    8.2858    0.1768 C   0  0  0  0  0  0  0  0  0  0  0  0
    7.0739    7.1906    0.1918 C   0  0  0  0  0  0  0  0  0  0  0  0
    7.6055    5.8515   -0.1128 C   0  0  0  0  0  0  0  0  0  0  0  0
    8.7426    5.5769   -0.3834 O   0  0  0  0  0  0  0  0  0  0  0  0
    6.6774    4.8207   -0.0765 O   0  0  0  0  0  0  0  0  0  0  0  0
    5.2803    2.4932   -0.1337 C   0  0  0  0  0  0  0  0  0  0  0  0
    4.6047    1.2822   -0.1749 C   0  0  0  0  0  0  0  0  0  0  0  0
    0.7558   -1.0679    0.2427 H   0  0  0  0  0  0  0  0  0  0  0  0
    0.5330    0.5800   -0.3879 H   0  0  0  0  0  0  0  0  0  0  0  0
    0.8713    0.3231    1.3450 H   0  0  0  0  0  0  0  0  0  0  0  0
    2.5402   -2.0597   -0.2360 H   0  0  0  0  0  0  0  0  0  0  0  0
    4.0503   -1.4295    0.4612 H   0  0  0  0  0  0  0  0  0  0  0  0
    3.6959   -1.1876   -1.2702 H   0  0  0  0  0  0  0  0  0  0  0  0
    1.4813    2.4322    0.6179 H   0  0  0  0  0  0  0  0  0  0  0  0
    2.6745    4.5300    0.6842 H   0  0  0  0  0  0  0  0  0  0  0  0
    3.7884    6.3199    0.7283 H   0  0  0  0  0  0  0  0  0  0  0  0
    4.1662    8.8068    1.0180 H   0  0  0  0  0  0  0  0  0  0  0  0
    5.7362   10.7561    0.9875 H   0  0  0  0  0  0  0  0  0  0  0  0
    9.0007    8.1466   -0.0570 H   0  0  0  0  0  0  0  0  0  0  0  0
    6.3497    2.5137   -0.3451 H   0  0  0  0  0  0  0  0  0  0  0  0
    5.1693    0.3837   -0.4195 H   0  0  0  0  0  0  0  0  0  0  0  0
  1  2  1  0
  1 24  1  0
  1 25  1  0
  1 26  1  0
  2  3  1  0
  2  4  1  0
  3 27  1  0
  3 28  1  0
  3 29  1  0
  4  5  2  0
  4 23  1  0
  5  6  1  0
  5 30  1  0
  6  7  2  0
  6 31  1  0
  7  8  1  0
  7 22  1  0
  8  9  2  0
  8 21  1  0
  9 10  1  0
  9 32  1  0
 10 11  2  0
 10 18  1  0
 11 12  1  0
 11 33  1  0
 12 13  2  0
 12 34  1  0
 13 14  1  0
 13 17  1  0
 14 15  2  0
 14 16  1  0
 17 18  2  0
 17 35  1  0
 18 19  1  0
 19 20  2  0
 19 21  1  0
 22 23  2  0
 22 36  1  0
 23 37  1  0
M  CHG  2  14   1  16  -1
M  END

