
     RDKit          3D

 17 17  0  0  0  0  0  0  0  0999 V2000
    1.0776    0.3566    0.0021 N   0  0  0  0  0  0  0  0  0  0  0  0
    2.4718   -0.0165    0.1066 C   0  0  1  0  0  0  0  0  0  0  0  0
    2.8094   -1.4456    0.5327 C   0  0  0  0  0  0  0  0  0  0  0  0
    3.8841   -1.7066    1.4500 C   0  0  0  0  0  0  0  0  0  0  0  0
    4.0597   -3.0354    1.7235 C   0  0  0  0  0  0  0  0  0  0  0  0
    5.3352   -3.8050    2.8699 Br  0  0  0  0  0  0  0  0  0  0  0  0
    2.9177   -4.0303    0.8720 S   0  0  0  0  0  0  0  0  0  0  0  0
    2.2070   -2.6207    0.1372 C   0  0  0  0  0  0  0  0  0  0  0  0
    0.7709   -2.8935   -1.0594 Br  0  0  0  0  0  0  0  0  0  0  0  0
    3.1808    0.3515   -1.2063 C   0  0  1  0  0  0  0  0  0  0  0  0
    2.6407   -0.2915   -2.2559 F   0  0  0  0  0  0  0  0  0  0  0  0
    3.1067    1.6635   -1.4501 F   0  0  0  0  0  0  0  0  0  0  0  0
    4.4842    0.0229   -1.1545 F   0  0  0  0  0  0  0  0  0  0  0  0
    0.6113    0.2552    0.9013 H   0  0  0  0  0  0  0  0  0  0  0  0
    0.5869   -0.2340   -0.6672 H   0  0  0  0  0  0  0  0  0  0  0  0
    2.9395    0.6479    0.8516 H   0  0  0  0  0  0  0  0  0  0  0  0
    4.5026   -0.9199    1.8838 H   0  0  0  0  0  0  0  0  0  0  0  0
  1  2  1  0
  1 14  1  0
  1 15  1  0
  2  3  1  0
  2 10  1  0
  2 16  1  1
  3  4  1  0
  3  8  2  0
  4  5  2  0
  4 17  1  0
  5  6  1  0
  5  7  1  0
  7  8  1  0
  8  9  1  0
 10 11  1  6
 10 12  1  0
 10 13  1  0
M  END

