
     RDKit          3D

 33 33  0  0  0  0  0  0  0  0999 V2000
    0.6812    0.0871    0.2374 C   0  0  0  0  0  0  0  0  0  0  0  0
    2.2093    0.1065    0.1864 C   0  0  0  0  0  0  0  0  0  0  0  0
    2.8387    0.8796    1.3487 C   0  0  0  0  0  0  0  0  0  0  0  0
    4.3667    0.9100    1.2944 C   0  0  1  0  0  0  0  0  0  0  0  0
    4.8962    1.4305    0.0811 O   0  0  0  0  0  0  0  0  0  0  0  0
    4.6146    2.7858   -0.1994 C   0  0  0  0  0  0  0  0  0  0  0  0
    4.9831    1.6122    2.5287 C   0  0  0  0  0  0  0  0  0  0  0  0
    4.2695    2.0741    3.3968 O   0  0  0  0  0  0  0  0  0  0  0  0
    6.4827    1.6773    2.6604 C   0  0  0  0  0  0  0  0  0  0  0  0
    7.0038    2.2959    3.8111 C   0  0  0  0  0  0  0  0  0  0  0  0
    8.3774    2.3664    4.0212 C   0  0  0  0  0  0  0  0  0  0  0  0
    9.2543    1.8129    3.0780 C   0  0  0  0  0  0  0  0  0  0  0  0
   10.7428    1.8389    3.3322 C   0  0  1  0  0  0  0  0  0  0  0  0
   11.1141    2.9429    4.0033 F   0  0  0  0  0  0  0  0  0  0  0  0
   11.1324    0.7815    4.0695 F   0  0  0  0  0  0  0  0  0  0  0  0
   11.4478    1.8026    2.1887 F   0  0  0  0  0  0  0  0  0  0  0  0
    8.7493    1.2001    1.9265 C   0  0  0  0  0  0  0  0  0  0  0  0
    7.3711    1.1330    1.7163 C   0  0  0  0  0  0  0  0  0  0  0  0
    0.2566   -0.4783   -0.6073 H   0  0  0  0  0  0  0  0  0  0  0  0
    0.2656    1.1080    0.1967 H   0  0  0  0  0  0  0  0  0  0  0  0
    0.3154   -0.3784    1.1679 H   0  0  0  0  0  0  0  0  0  0  0  0
    2.5483    0.5419   -0.7686 H   0  0  0  0  0  0  0  0  0  0  0  0
    2.5937   -0.9298    0.1904 H   0  0  0  0  0  0  0  0  0  0  0  0
    2.5469    0.4280    2.3108 H   0  0  0  0  0  0  0  0  0  0  0  0
    2.4455    1.9094    1.3885 H   0  0  0  0  0  0  0  0  0  0  0  0
    4.7366   -0.1315    1.3166 H   0  0  0  0  0  0  0  0  0  0  0  0
    5.1912    3.0514   -1.0970 H   0  0  0  0  0  0  0  0  0  0  0  0
    4.9192    3.4612    0.6226 H   0  0  0  0  0  0  0  0  0  0  0  0
    3.5439    2.9597   -0.4103 H   0  0  0  0  0  0  0  0  0  0  0  0
    6.3020    2.7155    4.5341 H   0  0  0  0  0  0  0  0  0  0  0  0
    8.7746    2.8539    4.9135 H   0  0  0  0  0  0  0  0  0  0  0  0
    9.4358    0.7834    1.1875 H   0  0  0  0  0  0  0  0  0  0  0  0
    6.9874    0.6827    0.8012 H   0  0  0  0  0  0  0  0  0  0  0  0
  1  2  1  0
  1 19  1  0
  1 20  1  0
  1 21  1  0
  2  3  1  0
  2 22  1  0
  2 23  1  0
  3  4  1  0
  3 24  1  0
  3 25  1  0
  4  5  1  0
  4  7  1  0
  4 26  1  1
  5  6  1  0
  6 27  1  0
  6 28  1  0
  6 29  1  0
  7  8  2  0
  7  9  1  0
  9 10  2  0
  9 18  1  0
 10 11  1  0
 10 30  1  0
 11 12  2  0
 11 31  1  0
 12 13  1  0
 12 17  1  0
 13 14  1  1
 13 15  1  0
 13 16  1  0
 17 18  2  0
 17 32  1  0
 18 33  1  0
M  END

