
     RDKit          3D

 35 36  0  0  0  0  0  0  0  0999 V2000
    1.1261   -0.0640    0.5811 C   0  0  0  0  0  0  0  0  0  0  0  0
    2.5876   -0.0159    0.1193 C   0  0  1  0  0  0  0  0  0  0  0  0
    3.0047   -1.3146   -0.5959 C   0  0  0  0  0  0  0  0  0  0  0  0
    4.5028   -1.4559   -0.9115 C   0  0  0  0  0  0  0  0  0  0  0  0
    5.0561   -0.4407   -1.9280 C   0  0  0  0  0  0  0  0  0  0  0  0
    5.4346    0.9454   -1.3782 C   0  0  0  0  0  0  0  0  0  0  0  0
    4.4285    1.5638   -0.3859 C   0  0  0  0  0  0  0  0  0  0  0  0
    3.0234    1.1953   -0.6182 N   0  0  0  0  0  0  0  0  0  0  0  0
    2.4227    1.8542   -1.6678 C   0  0  0  0  0  0  0  0  0  0  0  0
    3.0419    2.7082   -2.2936 O   0  0  0  0  0  0  0  0  0  0  0  0
    0.9895    1.5307   -2.0787 C   0  0  1  0  0  0  0  0  0  0  0  0
    0.3433    2.5418   -3.0654 C   0  0  0  0  0  0  0  0  0  0  0  0
   -0.1710    1.3536   -3.8751 C   0  0  2  0  0  0  0  0  0  0  0  0
   -0.0669    1.4255   -5.2238 F   0  0  0  0  0  0  0  0  0  0  0  0
   -1.4740    1.0552   -3.5936 F   0  0  0  0  0  0  0  0  0  0  0  0
    0.7959    0.4083   -3.1562 C   0  0  0  0  0  0  0  0  0  0  0  0
    1.0430   -0.8047    1.3915 H   0  0  0  0  0  0  0  0  0  0  0  0
    0.4294   -0.3788   -0.2082 H   0  0  0  0  0  0  0  0  0  0  0  0
    0.7979    0.9066    0.9825 H   0  0  0  0  0  0  0  0  0  0  0  0
    3.1766    0.0330    1.0495 H   0  0  0  0  0  0  0  0  0  0  0  0
    2.4280   -1.4071   -1.5335 H   0  0  0  0  0  0  0  0  0  0  0  0
    2.6909   -2.1615    0.0395 H   0  0  0  0  0  0  0  0  0  0  0  0
    4.6590   -2.4723   -1.3103 H   0  0  0  0  0  0  0  0  0  0  0  0
    5.0893   -1.4131    0.0254 H   0  0  0  0  0  0  0  0  0  0  0  0
    4.3174   -0.3220   -2.7404 H   0  0  0  0  0  0  0  0  0  0  0  0
    5.9518   -0.8658   -2.4108 H   0  0  0  0  0  0  0  0  0  0  0  0
    5.5659    1.6306   -2.2289 H   0  0  0  0  0  0  0  0  0  0  0  0
    6.4117    0.8870   -0.8667 H   0  0  0  0  0  0  0  0  0  0  0  0
    4.5092    2.6585   -0.4274 H   0  0  0  0  0  0  0  0  0  0  0  0
    4.6702    1.2521    0.6407 H   0  0  0  0  0  0  0  0  0  0  0  0
    0.3405    1.3561   -1.2171 H   0  0  0  0  0  0  0  0  0  0  0  0
    1.1183    3.0967   -3.6095 H   0  0  0  0  0  0  0  0  0  0  0  0
   -0.4223    3.2253   -2.6724 H   0  0  0  0  0  0  0  0  0  0  0  0
    1.7026    0.2481   -3.7565 H   0  0  0  0  0  0  0  0  0  0  0  0
    0.3735   -0.5547   -2.8357 H   0  0  0  0  0  0  0  0  0  0  0  0
  1  2  1  0
  1 17  1  0
  1 18  1  0
  1 19  1  0
  2  3  1  0
  2  8  1  0
  2 20  1  1
  3  4  1  0
  3 21  1  0
  3 22  1  0
  4  5  1  0
  4 23  1  0
  4 24  1  0
  5  6  1  0
  5 25  1  0
  5 26  1  0
  6  7  1  0
  6 27  1  0
  6 28  1  0
  7  8  1  0
  7 29  1  0
  7 30  1  0
  8  9  1  0
  9 10  2  0
  9 11  1  0
 11 12  1  0
 11 16  1  0
 11 31  1  1
 12 13  1  0
 12 32  1  0
 12 33  1  0
 13 14  1  6
 13 15  1  0
 13 16  1  0
 16 34  1  0
 16 35  1  0
M  END

