
     RDKit          3D

 41 41  0  0  0  0  0  0  0  0999 V2000
    2.4763   -0.6061    0.6996 C   0  0  0  0  0  0  0  0  0  0  0  0
    2.2999   -0.7230   -0.8185 C   0  0  2  0  0  0  0  0  0  0  0  0
    2.7811   -2.0833   -1.3415 C   0  0  0  0  0  0  0  0  0  0  0  0
    2.9253    0.4812   -1.5788 C   0  0  2  0  0  0  0  0  0  0  0  0
    2.6175    1.3938   -1.0325 H   0  0  0  0  0  0  0  0  0  0  0  0
    2.4965    0.4793   -2.9788 N   0  0  0  0  0  0  0  0  0  0  0  0
    4.4615    0.4755   -1.4838 C   0  0  0  0  0  0  0  0  0  0  0  0
    5.0478    0.7667   -0.4484 O   0  0  0  0  0  0  0  0  0  0  0  0
    5.1059    0.1120   -2.6227 N   0  0  0  0  0  0  0  0  0  0  0  0
    6.5441    0.1003   -2.7081 C   0  0  1  0  0  0  0  0  0  0  0  0
    7.1722   -1.1730   -2.0847 C   0  0  0  0  0  0  0  0  0  0  0  0
    6.7725   -2.4956   -2.7357 C   0  0  1  0  0  0  0  0  0  0  0  0
    7.4738   -2.8676   -4.0716 C   0  0  0  0  0  0  0  0  0  0  0  0
    7.4648   -4.4183   -4.0874 C   0  0  0  0  0  0  0  0  0  0  0  0
    6.9180   -4.8121   -2.6831 C   0  0  0  0  0  0  0  0  0  0  0  0
    7.0132   -3.6259   -1.8303 N   0  0  0  0  0  0  0  0  0  0  0  0
    6.9521    0.3206   -4.1669 C   0  0  0  0  0  0  0  0  0  0  0  0
    6.1780    0.3319   -5.0857 O   0  0  0  0  0  0  0  0  0  0  0  0
    8.2737    0.4911   -4.3762 O   0  0  0  0  0  0  0  0  0  0  0  0
    1.9714   -1.4431    1.2082 H   0  0  0  0  0  0  0  0  0  0  0  0
    2.0452    0.3326    1.0833 H   0  0  0  0  0  0  0  0  0  0  0  0
    3.5401   -0.6165    0.9777 H   0  0  0  0  0  0  0  0  0  0  0  0
    1.2146   -0.6486   -1.0293 H   0  0  0  0  0  0  0  0  0  0  0  0
    3.8358   -2.2677   -1.0792 H   0  0  0  0  0  0  0  0  0  0  0  0
    2.6854   -2.1549   -2.4355 H   0  0  0  0  0  0  0  0  0  0  0  0
    2.1875   -2.8969   -0.8947 H   0  0  0  0  0  0  0  0  0  0  0  0
    2.5683    1.4113   -3.3865 H   0  0  0  0  0  0  0  0  0  0  0  0
    1.5206    0.1965   -3.0595 H   0  0  0  0  0  0  0  0  0  0  0  0
    4.5441   -0.0409   -3.4599 H   0  0  0  0  0  0  0  0  0  0  0  0
    6.9219    0.9539   -2.1141 H   0  0  0  0  0  0  0  0  0  0  0  0
    6.8507   -1.1836   -1.0326 H   0  0  0  0  0  0  0  0  0  0  0  0
    8.2755   -1.0779   -2.0704 H   0  0  0  0  0  0  0  0  0  0  0  0
    5.6823   -2.4649   -2.9163 H   0  0  0  0  0  0  0  0  0  0  0  0
    8.5080   -2.4840   -4.0687 H   0  0  0  0  0  0  0  0  0  0  0  0
    6.9739   -2.4295   -4.9479 H   0  0  0  0  0  0  0  0  0  0  0  0
    8.4789   -4.8163   -4.2487 H   0  0  0  0  0  0  0  0  0  0  0  0
    6.8327   -4.8222   -4.8932 H   0  0  0  0  0  0  0  0  0  0  0  0
    7.4464   -5.6633   -2.2277 H   0  0  0  0  0  0  0  0  0  0  0  0
    5.8554   -5.0996   -2.7653 H   0  0  0  0  0  0  0  0  0  0  0  0
    7.9661   -3.5543   -1.4659 H   0  0  0  0  0  0  0  0  0  0  0  0
    8.7587    0.4715   -3.5383 H   0  0  0  0  0  0  0  0  0  0  0  0
  1  2  1  0
  1 20  1  0
  1 21  1  0
  1 22  1  0
  2  3  1  0
  2  4  1  0
  2 23  1  1
  3 24  1  0
  3 25  1  0
  3 26  1  0
  4  5  1  1
  4  6  1  0
  4  7  1  0
  6 27  1  0
  6 28  1  0
  7  8  2  0
  7  9  1  0
  9 10  1  0
  9 29  1  0
 10 11  1  0
 10 17  1  0
 10 30  1  1
 11 12  1  0
 11 31  1  0
 11 32  1  0
 12 13  1  0
 12 16  1  0
 12 33  1  6
 13 14  1  0
 13 34  1  0
 13 35  1  0
 14 15  1  0
 14 36  1  0
 14 37  1  0
 15 16  1  0
 15 38  1  0
 15 39  1  0
 16 40  1  0
 17 18  2  0
 17 19  1  0
 19 41  1  0
M  END

