
     RDKit          3D

 50 51  0  0  0  0  0  0  0  0999 V2000
    0.5441   -1.6242    0.5089 C   0  0  0  0  0  0  0  0  0  0  0  0
    2.0527   -1.5225    0.7069 C   0  0  0  0  0  0  0  0  0  0  0  0
    2.7267   -1.1953   -0.5412 N   0  0  0  0  0  0  0  0  0  0  0  0
    4.1709   -0.9711   -0.4573 C   0  0  1  0  0  0  0  0  0  0  0  0
    4.9388   -2.2883   -0.2299 C   0  0  0  0  0  0  0  0  0  0  0  0
    4.8311   -3.2450   -1.4239 C   0  0  0  0  0  0  0  0  0  0  0  0
    5.2745   -2.5883   -2.7454 C   0  0  2  0  0  0  0  0  0  0  0  0
    6.7676   -2.4344   -2.8222 C   0  0  0  0  0  0  0  0  0  0  0  0
    7.6923   -2.9422   -2.0606 N   0  0  0  0  0  0  0  0  0  0  0  0
    8.8568   -2.4987   -2.6463 C   0  0  0  0  0  0  0  0  0  0  0  0
   10.2543   -2.7822   -2.1409 C   0  0  1  0  0  0  0  0  0  0  0  0
   10.4091   -2.3332   -0.8104 O   0  0  0  0  0  0  0  0  0  0  0  0
   10.4311   -0.9372   -0.6435 C   0  0  0  0  0  0  0  0  0  0  0  0
   10.6876   -4.2771   -2.2115 C   0  0  1  0  0  0  0  0  0  0  0  0
   10.4247   -4.8186   -3.6278 C   0  0  0  0  0  0  0  0  0  0  0  0
   12.1991   -4.3337   -1.9165 C   0  0  0  0  0  0  0  0  0  0  0  0
    9.9313   -5.1232   -1.1710 C   0  0  0  0  0  0  0  0  0  0  0  0
    8.6649   -1.7482   -3.7023 N   0  0  0  0  0  0  0  0  0  0  0  0
    7.2803   -1.7066   -3.8290 O   0  0  0  0  0  0  0  0  0  0  0  0
    4.5393   -1.2468   -2.9722 C   0  0  0  0  0  0  0  0  0  0  0  0
    4.6617   -0.3143   -1.7598 C   0  0  0  0  0  0  0  0  0  0  0  0
    0.0394   -1.9024    1.4472 H   0  0  0  0  0  0  0  0  0  0  0  0
    0.3019   -2.3786   -0.2558 H   0  0  0  0  0  0  0  0  0  0  0  0
    0.1188   -0.6609    0.1777 H   0  0  0  0  0  0  0  0  0  0  0  0
    2.4328   -2.4902    1.0752 H   0  0  0  0  0  0  0  0  0  0  0  0
    2.2740   -0.7848    1.5136 H   0  0  0  0  0  0  0  0  0  0  0  0
    2.2861   -0.3684   -0.9452 H   0  0  0  0  0  0  0  0  0  0  0  0
    4.4168   -0.2870    0.3870 H   0  0  0  0  0  0  0  0  0  0  0  0
    4.5780   -2.7913    0.6815 H   0  0  0  0  0  0  0  0  0  0  0  0
    5.9978   -2.0478   -0.0413 H   0  0  0  0  0  0  0  0  0  0  0  0
    3.7815   -3.5552   -1.5433 H   0  0  0  0  0  0  0  0  0  0  0  0
    5.4275   -4.1505   -1.2371 H   0  0  0  0  0  0  0  0  0  0  0  0
    5.0093   -3.2623   -3.5811 H   0  0  0  0  0  0  0  0  0  0  0  0
   10.9257   -2.2107   -2.8123 H   0  0  0  0  0  0  0  0  0  0  0  0
   10.5906   -0.7383    0.4262 H   0  0  0  0  0  0  0  0  0  0  0  0
    9.4826   -0.4576   -0.9518 H   0  0  0  0  0  0  0  0  0  0  0  0
   11.2528   -0.4670   -1.2195 H   0  0  0  0  0  0  0  0  0  0  0  0
   10.8988   -4.1901   -4.3996 H   0  0  0  0  0  0  0  0  0  0  0  0
    9.3486   -4.8751   -3.8544 H   0  0  0  0  0  0  0  0  0  0  0  0
   10.8365   -5.8359   -3.7245 H   0  0  0  0  0  0  0  0  0  0  0  0
   12.7768   -3.7810   -2.6763 H   0  0  0  0  0  0  0  0  0  0  0  0
   12.5532   -5.3770   -1.9189 H   0  0  0  0  0  0  0  0  0  0  0  0
   12.4215   -3.8960   -0.9327 H   0  0  0  0  0  0  0  0  0  0  0  0
    8.8460   -5.1009   -1.3427 H   0  0  0  0  0  0  0  0  0  0  0  0
   10.1169   -4.7470   -0.1549 H   0  0  0  0  0  0  0  0  0  0  0  0
   10.2715   -6.1705   -1.2210 H   0  0  0  0  0  0  0  0  0  0  0  0
    3.4773   -1.4751   -3.1489 H   0  0  0  0  0  0  0  0  0  0  0  0
    4.9229   -0.7532   -3.8782 H   0  0  0  0  0  0  0  0  0  0  0  0
    4.0980    0.6174   -1.9454 H   0  0  0  0  0  0  0  0  0  0  0  0
    5.7135   -0.0083   -1.6241 H   0  0  0  0  0  0  0  0  0  0  0  0
  1  2  1  0
  1 22  1  0
  1 23  1  0
  1 24  1  0
  2  3  1  0
  2 25  1  0
  2 26  1  0
  3  4  1  0
  3 27  1  0
  4  5  1  0
  4 21  1  0
  4 28  1  1
  5  6  1  0
  5 29  1  0
  5 30  1  0
  6  7  1  0
  6 31  1  0
  6 32  1  0
  7  8  1  0
  7 20  1  0
  7 33  1  6
  8  9  2  0
  8 19  1  0
  9 10  1  0
 10 11  1  0
 10 18  2  0
 11 12  1  0
 11 14  1  0
 11 34  1  6
 12 13  1  0
 13 35  1  0
 13 36  1  0
 13 37  1  0
 14 15  1  6
 14 16  1  0
 14 17  1  0
 15 38  1  0
 15 39  1  0
 15 40  1  0
 16 41  1  0
 16 42  1  0
 16 43  1  0
 17 44  1  0
 17 45  1  0
 17 46  1  0
 18 19  1  0
 20 21  1  0
 20 47  1  0
 20 48  1  0
 21 49  1  0
 21 50  1  0
M  END

