
     RDKit          3D

 31 31  0  0  0  0  0  0  0  0999 V2000
    3.5137    2.3570    1.9898 C   0  0  0  0  0  0  0  0  0  0  0  0
    4.2385    1.1089    1.8820 N   0  0  0  0  0  0  0  0  0  0  0  0
    3.8779    0.1151    1.0216 C   0  0  0  0  0  0  0  0  0  0  0  0
    2.9532    0.1911    0.2318 O   0  0  0  0  0  0  0  0  0  0  0  0
    4.7576   -1.1443    1.0699 C   0  0  0  0  0  0  0  0  0  0  0  0
    5.6106   -1.2909    2.2400 N   0  0  0  0  0  0  0  0  0  0  0  0
    4.9586   -1.8783    3.4071 C   0  0  0  0  0  0  0  0  0  0  0  0
    6.9992   -1.3970    2.1920 C   0  0  0  0  0  0  0  0  0  0  0  0
    7.6146   -1.9821    3.0723 O   0  0  0  0  0  0  0  0  0  0  0  0
    7.7317   -0.7494    1.0733 C   0  0  0  0  0  0  0  0  0  0  0  0
    7.4452    0.3389    0.2687 C   0  0  0  0  0  0  0  0  0  0  0  0
    8.5077    0.6829   -0.6205 C   0  0  0  0  0  0  0  0  0  0  0  0
    8.4266    1.7039   -1.5709 N   0  0  0  0  0  0  0  0  0  0  0  0
    9.6030   -0.1591   -0.4798 C   0  0  0  0  0  0  0  0  0  0  0  0
   10.8730   -0.1090   -1.2730 C   0  0  0  0  0  0  0  0  0  0  0  0
    9.3354   -1.3398    0.7617 S   0  0  0  0  0  0  0  0  0  0  0  0
    3.0422    2.4707    2.9809 H   0  0  0  0  0  0  0  0  0  0  0  0
    2.7268    2.3527    1.2236 H   0  0  0  0  0  0  0  0  0  0  0  0
    4.1740    3.2235    1.8189 H   0  0  0  0  0  0  0  0  0  0  0  0
    5.0061    0.9116    2.5155 H   0  0  0  0  0  0  0  0  0  0  0  0
    5.3601   -1.1552    0.1517 H   0  0  0  0  0  0  0  0  0  0  0  0
    4.0663   -2.0010    0.9930 H   0  0  0  0  0  0  0  0  0  0  0  0
    4.0042   -1.3621    3.5909 H   0  0  0  0  0  0  0  0  0  0  0  0
    5.6105   -1.7778    4.2823 H   0  0  0  0  0  0  0  0  0  0  0  0
    4.7526   -2.9543    3.2594 H   0  0  0  0  0  0  0  0  0  0  0  0
    6.5173    0.9087    0.3283 H   0  0  0  0  0  0  0  0  0  0  0  0
    7.6954    2.3858   -1.4001 H   0  0  0  0  0  0  0  0  0  0  0  0
    9.3067    2.1615   -1.7869 H   0  0  0  0  0  0  0  0  0  0  0  0
   11.4896    0.7721   -1.0142 H   0  0  0  0  0  0  0  0  0  0  0  0
   10.6560   -0.0520   -2.3539 H   0  0  0  0  0  0  0  0  0  0  0  0
   11.4958   -0.9994   -1.1043 H   0  0  0  0  0  0  0  0  0  0  0  0
  1  2  1  0
  1 17  1  0
  1 18  1  0
  1 19  1  0
  2  3  1  0
  2 20  1  0
  3  4  2  0
  3  5  1  0
  5  6  1  0
  5 21  1  0
  5 22  1  0
  6  7  1  0
  6  8  1  0
  7 23  1  0
  7 24  1  0
  7 25  1  0
  8  9  2  0
  8 10  1  0
 10 11  2  0
 10 16  1  0
 11 12  1  0
 11 26  1  0
 12 13  1  0
 12 14  2  0
 13 27  1  0
 13 28  1  0
 14 15  1  0
 14 16  1  0
 15 29  1  0
 15 30  1  0
 15 31  1  0
M  END

