
     RDKit          3D

 32 32  0  0  0  0  0  0  0  0999 V2000
    1.6495    2.7157   -3.5380 C   0  0  0  0  0  0  0  0  0  0  0  0
    2.3577    2.3026   -4.8297 C   0  0  0  0  0  0  0  0  0  0  0  0
    3.5442    1.3745   -4.5646 C   0  0  0  0  0  0  0  0  0  0  0  0
    4.3420    0.8781   -6.1162 S   0  0  1  0  0  0  0  0  0  0  0  0
    3.4502   -0.0380   -6.8211 O   0  0  0  0  0  0  0  0  0  0  0  0
    4.8707    2.0852   -6.7513 O   0  0  0  0  0  0  0  0  0  0  0  0
    5.6422   -0.0920   -5.6419 N   0  0  0  0  0  0  0  0  0  0  0  0
    6.8343    0.2682   -4.9990 C   0  0  0  0  0  0  0  0  0  0  0  0
    7.3300    1.5922   -4.9937 C   0  0  0  0  0  0  0  0  0  0  0  0
    8.5252    1.8240   -4.3234 C   0  0  0  0  0  0  0  0  0  0  0  0
    9.1946    0.7648   -3.7027 C   0  0  0  0  0  0  0  0  0  0  0  0
    8.6311   -0.5178   -3.7805 C   0  0  0  0  0  0  0  0  0  0  0  0
    9.3149   -1.6571   -3.1561 C   0  0  0  0  0  0  0  0  0  0  0  0
    8.8778   -2.9284   -3.1823 C   0  0  0  0  0  0  0  0  0  0  0  0
    9.6562   -4.0090   -2.5131 C   0  0  0  0  0  0  0  0  0  0  0  0
   10.6808   -3.8337   -1.9052 O   0  0  0  0  0  0  0  0  0  0  0  0
    9.1323   -5.2535   -2.6256 O   0  0  0  0  0  0  0  0  0  0  0  0
    7.4648   -0.7439   -4.4134 N   0  0  0  0  0  0  0  0  0  0  0  0
    0.8019    3.3832   -3.7567 H   0  0  0  0  0  0  0  0  0  0  0  0
    2.3302    3.2530   -2.8572 H   0  0  0  0  0  0  0  0  0  0  0  0
    1.2543    1.8413   -2.9955 H   0  0  0  0  0  0  0  0  0  0  0  0
    2.7200    3.1916   -5.3703 H   0  0  0  0  0  0  0  0  0  0  0  0
    1.6529    1.7887   -5.5034 H   0  0  0  0  0  0  0  0  0  0  0  0
    3.2393    0.4362   -4.0762 H   0  0  0  0  0  0  0  0  0  0  0  0
    4.3233    1.8601   -3.9558 H   0  0  0  0  0  0  0  0  0  0  0  0
    5.4144   -1.0831   -5.6004 H   0  0  0  0  0  0  0  0  0  0  0  0
    6.7991    2.3827   -5.5219 H   0  0  0  0  0  0  0  0  0  0  0  0
    8.9435    2.8332   -4.2958 H   0  0  0  0  0  0  0  0  0  0  0  0
   10.1375    0.9204   -3.1757 H   0  0  0  0  0  0  0  0  0  0  0  0
   10.2532   -1.4527   -2.6308 H   0  0  0  0  0  0  0  0  0  0  0  0
    7.9432   -3.1608   -3.7028 H   0  0  0  0  0  0  0  0  0  0  0  0
    8.3173   -5.2313   -3.1462 H   0  0  0  0  0  0  0  0  0  0  0  0
  1  2  1  0
  1 19  1  0
  1 20  1  0
  1 21  1  0
  2  3  1  0
  2 22  1  0
  2 23  1  0
  3  4  1  0
  3 24  1  0
  3 25  1  0
  4  5  2  0
  4  6  2  0
  4  7  1  1
  7  8  1  0
  7 26  1  0
  8  9  2  0
  8 18  1  0
  9 10  1  0
  9 27  1  0
 10 11  2  0
 10 28  1  0
 11 12  1  0
 11 29  1  0
 12 13  1  0
 12 18  2  0
 13 14  2  0
 13 30  1  0
 14 15  1  0
 14 31  1  0
 15 16  2  0
 15 17  1  0
 17 32  1  0
M  END

