
     RDKit          3D

 63 66  0  0  0  0  0  0  0  0999 V2000
    0.8351    0.6499   -1.4166 C   0  0  0  0  0  0  0  0  0  0  0  0
    2.3560    0.5719   -1.5641 C   0  0  0  0  0  0  0  0  0  0  0  0
    3.0947    1.3545   -0.4748 C   0  0  0  0  0  0  0  0  0  0  0  0
    4.6493    1.3357   -0.5364 C   0  0  2  0  0  0  0  0  0  0  0  0
    5.1906    2.1849    0.6497 C   0  0  0  0  0  0  0  0  0  0  0  0
    6.7127    2.2964    0.7746 C   0  0  0  0  0  0  0  0  0  0  0  0
    7.1445    3.1501    1.9686 C   0  0  0  0  0  0  0  0  0  0  0  0
    5.1730    1.8386   -1.8830 C   0  0  0  0  0  0  0  0  0  0  0  0
    4.9958    3.0847   -2.4803 C   0  0  0  0  0  0  0  0  0  0  0  0
    5.5723    3.3322   -3.7347 C   0  0  0  0  0  0  0  0  0  0  0  0
    6.3192    2.3399   -4.3831 C   0  0  0  0  0  0  0  0  0  0  0  0
    6.5016    1.0865   -3.7892 C   0  0  0  0  0  0  0  0  0  0  0  0
    5.9261    0.8394   -2.5379 C   0  0  0  0  0  0  0  0  0  0  0  0
    5.9468   -0.3575   -1.6867 C   0  0  0  0  0  0  0  0  0  0  0  0
    6.5489   -1.6074   -1.8622 C   0  0  0  0  0  0  0  0  0  0  0  0
    6.4051   -2.5791   -0.8700 C   0  0  0  0  0  0  0  0  0  0  0  0
    5.6666   -2.3311    0.3064 C   0  0  0  0  0  0  0  0  0  0  0  0
    5.5250   -3.3776    1.3519 C   0  0  0  0  0  0  0  0  0  0  0  0
    6.5718   -4.2649    1.6517 C   0  0  0  0  0  0  0  0  0  0  0  0
    6.4376   -5.2478    2.6360 C   0  0  0  0  0  0  0  0  0  0  0  0
    5.2517   -5.3973    3.3721 C   0  0  0  0  0  0  0  0  0  0  0  0
    5.0656   -6.4681    4.4641 C   0  0  1  0  0  0  0  0  0  0  0  0
    6.3216   -7.3394    4.6461 C   0  0  0  0  0  0  0  0  0  0  0  0
    4.7570   -5.7781    5.8132 C   0  0  0  0  0  0  0  0  0  0  0  0
    3.8877   -7.3939    4.0803 C   0  0  0  0  0  0  0  0  0  0  0  0
    4.2048   -4.5062    3.0687 C   0  0  0  0  0  0  0  0  0  0  0  0
    4.3339   -3.5244    2.0889 C   0  0  0  0  0  0  0  0  0  0  0  0
    5.0649   -1.0633    0.4660 C   0  0  0  0  0  0  0  0  0  0  0  0
    5.2040   -0.0902   -0.5174 C   0  0  0  0  0  0  0  0  0  0  0  0
    0.3242    0.0810   -2.2097 H   0  0  0  0  0  0  0  0  0  0  0  0
    0.4767    1.6919   -1.4728 H   0  0  0  0  0  0  0  0  0  0  0  0
    0.5015    0.2407   -0.4479 H   0  0  0  0  0  0  0  0  0  0  0  0
    2.6486    0.9548   -2.5563 H   0  0  0  0  0  0  0  0  0  0  0  0
    2.6735   -0.4843   -1.5399 H   0  0  0  0  0  0  0  0  0  0  0  0
    2.7897    0.9727    0.5165 H   0  0  0  0  0  0  0  0  0  0  0  0
    2.7664    2.4094   -0.5003 H   0  0  0  0  0  0  0  0  0  0  0  0
    4.7803    1.7630    1.5851 H   0  0  0  0  0  0  0  0  0  0  0  0
    4.7584    3.1987    0.5666 H   0  0  0  0  0  0  0  0  0  0  0  0
    7.1287    2.7250   -0.1528 H   0  0  0  0  0  0  0  0  0  0  0  0
    7.1501    1.2880    0.8673 H   0  0  0  0  0  0  0  0  0  0  0  0
    6.7544    4.1792    1.8916 H   0  0  0  0  0  0  0  0  0  0  0  0
    8.2419    3.2165    2.0394 H   0  0  0  0  0  0  0  0  0  0  0  0
    6.7760    2.7299    2.9198 H   0  0  0  0  0  0  0  0  0  0  0  0
    4.4151    3.8671   -1.9837 H   0  0  0  0  0  0  0  0  0  0  0  0
    5.4381    4.3072   -4.2103 H   0  0  0  0  0  0  0  0  0  0  0  0
    6.7627    2.5471   -5.3604 H   0  0  0  0  0  0  0  0  0  0  0  0
    7.0851    0.3151   -4.2985 H   0  0  0  0  0  0  0  0  0  0  0  0
    7.1201   -1.8324   -2.7667 H   0  0  0  0  0  0  0  0  0  0  0  0
    6.8541   -3.5634   -1.0195 H   0  0  0  0  0  0  0  0  0  0  0  0
    7.5241   -4.1730    1.1241 H   0  0  0  0  0  0  0  0  0  0  0  0
    7.2902   -5.8999    2.8278 H   0  0  0  0  0  0  0  0  0  0  0  0
    7.1964   -6.7420    4.9471 H   0  0  0  0  0  0  0  0  0  0  0  0
    6.5802   -7.8854    3.7254 H   0  0  0  0  0  0  0  0  0  0  0  0
    6.1456   -8.0876    5.4350 H   0  0  0  0  0  0  0  0  0  0  0  0
    5.5829   -5.1145    6.1151 H   0  0  0  0  0  0  0  0  0  0  0  0
    4.6159   -6.5298    6.6074 H   0  0  0  0  0  0  0  0  0  0  0  0
    3.8407   -5.1703    5.7636 H   0  0  0  0  0  0  0  0  0  0  0  0
    4.0822   -7.9040    3.1235 H   0  0  0  0  0  0  0  0  0  0  0  0
    2.9442   -6.8368    3.9764 H   0  0  0  0  0  0  0  0  0  0  0  0
    3.7360   -8.1653    4.8534 H   0  0  0  0  0  0  0  0  0  0  0  0
    3.2545   -4.5815    3.6029 H   0  0  0  0  0  0  0  0  0  0  0  0
    3.4825   -2.8744    1.8733 H   0  0  0  0  0  0  0  0  0  0  0  0
    4.5100   -0.8449    1.3819 H   0  0  0  0  0  0  0  0  0  0  0  0
  1  2  1  0
  1 30  1  0
  1 31  1  0
  1 32  1  0
  2  3  1  0
  2 33  1  0
  2 34  1  0
  4  3  1  6
  3 35  1  0
  3 36  1  0
  4  5  1  0
  4  8  1  0
  4 29  1  0
  5  6  1  0
  5 37  1  0
  5 38  1  0
  6  7  1  0
  6 39  1  0
  6 40  1  0
  7 41  1  0
  7 42  1  0
  7 43  1  0
  8  9  2  0
  8 13  1  0
  9 10  1  0
  9 44  1  0
 10 11  2  0
 10 45  1  0
 11 12  1  0
 11 46  1  0
 12 13  2  0
 12 47  1  0
 13 14  1  0
 14 15  2  0
 14 29  1  0
 15 16  1  0
 15 48  1  0
 16 17  2  0
 16 49  1  0
 17 18  1  0
 17 28  1  0
 18 19  2  0
 18 27  1  0
 19 20  1  0
 19 50  1  0
 20 21  2  0
 20 51  1  0
 21 22  1  0
 21 26  1  0
 22 23  1  1
 22 24  1  0
 22 25  1  0
 23 52  1  0
 23 53  1  0
 23 54  1  0
 24 55  1  0
 24 56  1  0
 24 57  1  0
 25 58  1  0
 25 59  1  0
 25 60  1  0
 26 27  2  0
 26 61  1  0
 27 62  1  0
 28 29  2  0
 28 63  1  0
M  END

