
     RDKit          3D

 37 39  0  0  0  0  0  0  0  0999 V2000
    1.5465   -0.8998   -9.0171 O   0  0  0  0  0  0  0  0  0  0  0  0
    1.2180   -1.8399   -8.3423 C   0  0  0  0  0  0  0  0  0  0  0  0
    0.0307   -2.4538   -8.5600 O   0  0  0  0  0  0  0  0  0  0  0  0
    2.0682   -2.4011   -7.2380 C   0  0  0  0  0  0  0  0  0  0  0  0
    1.5584   -3.2046   -6.2046 C   0  0  0  0  0  0  0  0  0  0  0  0
    2.3947   -3.6816   -5.1956 C   0  0  0  0  0  0  0  0  0  0  0  0
    3.7628   -3.3722   -5.1958 C   0  0  0  0  0  0  0  0  0  0  0  0
    4.6649   -3.8438   -4.0687 C   0  0  0  0  0  0  0  0  0  0  0  0
    4.3166   -5.1521   -3.5453 N   0  0  0  0  0  0  0  0  0  0  0  0
    4.8368   -5.4227   -2.2134 C   0  0  0  0  0  0  0  0  0  0  0  0
    4.1314   -6.6371   -1.6103 C   0  0  0  0  0  0  0  0  0  0  0  0
    4.0866   -7.8017   -2.5713 C   0  0  0  0  0  0  0  0  0  0  0  0
    3.7956   -9.1218   -2.0892 C   0  0  0  0  0  0  0  0  0  0  0  0
    3.7599  -10.1573   -2.9758 C   0  0  0  0  0  0  0  0  0  0  0  0
    3.9983   -9.9373   -4.3005 N   0  0  0  0  0  0  0  0  0  0  0  0
    3.9772  -10.7076   -4.9633 H   0  0  0  0  0  0  0  0  0  0  0  0
    4.2925   -8.6893   -4.8710 C   0  0  0  0  0  0  0  0  0  0  0  0
    4.5000   -8.5892   -6.0738 O   0  0  0  0  0  0  0  0  0  0  0  0
    4.3150   -7.5891   -3.9104 C   0  0  0  0  0  0  0  0  0  0  0  0
    4.6194   -6.2297   -4.4777 C   0  0  0  0  0  0  0  0  0  0  0  0
    4.2684   -2.5662   -6.2275 C   0  0  0  0  0  0  0  0  0  0  0  0
    3.4324   -2.0743   -7.2281 C   0  0  0  0  0  0  0  0  0  0  0  0
   -0.0256   -3.2694   -8.0431 H   0  0  0  0  0  0  0  0  0  0  0  0
    0.4913   -3.4437   -6.1552 H   0  0  0  0  0  0  0  0  0  0  0  0
    1.9986   -4.3076   -4.3933 H   0  0  0  0  0  0  0  0  0  0  0  0
    4.5796   -3.1185   -3.2396 H   0  0  0  0  0  0  0  0  0  0  0  0
    5.7243   -3.7936   -4.4097 H   0  0  0  0  0  0  0  0  0  0  0  0
    4.6657   -4.5397   -1.5780 H   0  0  0  0  0  0  0  0  0  0  0  0
    5.9381   -5.5990   -2.2257 H   0  0  0  0  0  0  0  0  0  0  0  0
    3.0964   -6.3629   -1.3373 H   0  0  0  0  0  0  0  0  0  0  0  0
    4.6311   -6.9423   -0.6752 H   0  0  0  0  0  0  0  0  0  0  0  0
    3.6102   -9.3011   -1.0294 H   0  0  0  0  0  0  0  0  0  0  0  0
    3.5493  -11.1884   -2.6846 H   0  0  0  0  0  0  0  0  0  0  0  0
    4.0434   -6.0982   -5.4077 H   0  0  0  0  0  0  0  0  0  0  0  0
    5.6901   -6.2078   -4.7970 H   0  0  0  0  0  0  0  0  0  0  0  0
    5.3341   -2.3204   -6.2462 H   0  0  0  0  0  0  0  0  0  0  0  0
    3.8195   -1.4367   -8.0252 H   0  0  0  0  0  0  0  0  0  0  0  0
  1  2  2  0
  2  3  1  0
  2  4  1  0
  3 23  1  0
  4  5  2  0
  4 22  1  0
  5  6  1  0
  5 24  1  0
  6  7  2  0
  6 25  1  0
  7  8  1  0
  7 21  1  0
  8  9  1  0
  8 26  1  0
  8 27  1  0
  9 10  1  0
  9 20  1  0
 10 11  1  0
 10 28  1  0
 10 29  1  0
 11 12  1  0
 11 30  1  0
 11 31  1  0
 12 13  1  0
 12 19  2  0
 13 14  2  0
 13 32  1  0
 14 15  1  0
 14 33  1  0
 15 16  1  0
 15 17  1  0
 17 18  2  0
 17 19  1  0
 19 20  1  0
 20 34  1  0
 20 35  1  0
 21 22  2  0
 21 36  1  0
 22 37  1  0
M  END

