
     RDKit          3D

 44 48  0  0  0  0  0  0  0  0999 V2000
    1.5261    2.6458   -7.7045 C   0  0  0  0  0  0  0  0  0  0  0  0
    2.3260    1.4413   -7.3298 C   0  0  0  0  0  0  0  0  0  0  0  0
    3.4738    0.9736   -7.8559 C   0  0  0  0  0  0  0  0  0  0  0  0
    3.9304   -0.2105   -7.0148 C   0  0  2  0  0  0  0  0  0  0  0  0
    4.6700   -0.8859   -7.4635 H   0  0  0  0  0  0  0  0  0  0  0  0
    2.5584   -0.8011   -6.6151 C   0  0  0  0  0  0  0  0  0  0  0  0
    2.0084    0.5554   -6.1220 C   0  0  1  0  0  0  0  0  0  0  0  0
    0.9770    0.5903   -5.7462 H   0  0  0  0  0  0  0  0  0  0  0  0
    3.0820    0.9355   -5.0363 C   0  0  1  0  0  0  0  0  0  0  0  0
    3.0672    2.0137   -4.8199 H   0  0  0  0  0  0  0  0  0  0  0  0
    2.9104    0.1865   -3.7230 C   0  0  0  0  0  0  0  0  0  0  0  0
    2.0016    0.3096   -2.9397 O   0  0  0  0  0  0  0  0  0  0  0  0
    4.0008   -0.6972   -3.5694 N   0  0  0  0  0  0  0  0  0  0  0  0
    4.1498   -1.5852   -2.4594 C   0  0  0  0  0  0  0  0  0  0  0  0
    3.8797   -1.1332   -1.1609 C   0  0  0  0  0  0  0  0  0  0  0  0
    4.0252   -2.0133   -0.0870 C   0  0  0  0  0  0  0  0  0  0  0  0
    4.4386   -3.3289   -0.2946 C   0  0  0  0  0  0  0  0  0  0  0  0
    4.7039   -3.7634   -1.5964 C   0  0  0  0  0  0  0  0  0  0  0  0
    5.1652   -5.0660   -1.7033 O   0  0  0  0  0  0  0  0  0  0  0  0
    4.8866   -5.8753   -2.7579 C   0  0  0  0  0  0  0  0  0  0  0  0
    4.2212   -5.5726   -3.7174 O   0  0  0  0  0  0  0  0  0  0  0  0
    5.5016   -7.1976   -2.5871 C   0  0  0  0  0  0  0  0  0  0  0  0
    5.4636   -8.2889   -3.4225 C   0  0  0  0  0  0  0  0  0  0  0  0
    6.2238   -9.3079   -2.7776 C   0  0  0  0  0  0  0  0  0  0  0  0
    6.6641   -8.7570   -1.6014 C   0  0  0  0  0  0  0  0  0  0  0  0
    6.2344   -7.4863   -1.4767 O   0  0  0  0  0  0  0  0  0  0  0  0
    4.5631   -2.9051   -2.6890 C   0  0  0  0  0  0  0  0  0  0  0  0
    4.9079   -0.6312   -4.6507 C   0  0  0  0  0  0  0  0  0  0  0  0
    5.9073   -1.2973   -4.7573 O   0  0  0  0  0  0  0  0  0  0  0  0
    4.3976    0.4039   -5.6418 C   0  0  1  0  0  0  0  0  0  0  0  0
    5.1845    1.1569   -5.7896 H   0  0  0  0  0  0  0  0  0  0  0  0
    1.9526    3.1615   -8.5779 H   0  0  0  0  0  0  0  0  0  0  0  0
    1.4790    3.3686   -6.8701 H   0  0  0  0  0  0  0  0  0  0  0  0
    0.4818    2.3745   -7.9388 H   0  0  0  0  0  0  0  0  0  0  0  0
    4.0452    1.4142   -8.6760 H   0  0  0  0  0  0  0  0  0  0  0  0
    2.6045   -1.5830   -5.8400 H   0  0  0  0  0  0  0  0  0  0  0  0
    2.0025   -1.1904   -7.4797 H   0  0  0  0  0  0  0  0  0  0  0  0
    3.5455   -0.1104   -0.9956 H   0  0  0  0  0  0  0  0  0  0  0  0
    3.8143   -1.6661    0.9271 H   0  0  0  0  0  0  0  0  0  0  0  0
    4.5657   -4.0290    0.5328 H   0  0  0  0  0  0  0  0  0  0  0  0
    4.9478   -8.3328   -4.3786 H   0  0  0  0  0  0  0  0  0  0  0  0
    6.4210  -10.3163   -3.1349 H   0  0  0  0  0  0  0  0  0  0  0  0
    7.2714   -9.1396   -0.7845 H   0  0  0  0  0  0  0  0  0  0  0  0
    4.7749   -3.2517   -3.6947 H   0  0  0  0  0  0  0  0  0  0  0  0
  1  2  1  0
  1 32  1  0
  1 33  1  0
  1 34  1  0
  2  3  2  0
  2  7  1  0
  3  4  1  0
  3 35  1  0
  4  5  1  6
  4  6  1  0
  4 30  1  0
  6  7  1  0
  6 36  1  0
  6 37  1  0
  7  8  1  1
  7  9  1  0
  9 10  1  1
  9 11  1  0
  9 30  1  0
 11 12  2  0
 11 13  1  0
 13 14  1  0
 13 28  1  0
 14 15  2  0
 14 27  1  0
 15 16  1  0
 15 38  1  0
 16 17  2  0
 16 39  1  0
 17 18  1  0
 17 40  1  0
 18 19  1  0
 18 27  2  0
 19 20  1  0
 20 21  2  0
 20 22  1  0
 22 23  2  0
 22 26  1  0
 23 24  1  0
 23 41  1  0
 24 25  2  0
 24 42  1  0
 25 26  1  0
 25 43  1  0
 27 44  1  0
 28 29  2  0
 28 30  1  0
 30 31  1  6
M  END

