
     RDKit          3D

 34 34  0  0  0  0  0  0  0  0999 V2000
    1.1844    2.1463    1.5652 C   0  0  0  0  0  0  0  0  0  0  0  0
    2.5344    2.1137    1.0356 N   0  0  0  0  0  0  0  0  0  0  0  0
    3.1925    0.8125    1.0578 C   0  0  1  0  0  0  0  0  0  0  0  0
    2.5263   -0.1833    0.1043 C   0  0  0  0  0  0  0  0  0  0  0  0
    4.6904    1.0069    0.7469 C   0  0  1  0  0  0  0  0  0  0  0  0
    4.9763    1.5670   -0.6472 C   0  0  0  0  0  0  0  0  0  0  0  0
    5.1872    1.8738    1.7667 O   0  0  0  0  0  0  0  0  0  0  0  0
    6.5685    1.8074    2.0324 C   0  0  0  0  0  0  0  0  0  0  0  0
    6.8961    2.7412    3.1858 C   0  0  1  0  0  0  0  0  0  0  0  0
    6.2508    2.3831    4.5328 C   0  0  0  0  0  0  0  0  0  0  0  0
    7.1592    3.1232    5.5142 C   0  0  0  0  0  0  0  0  0  0  0  0
    8.4618    3.0866    4.9415 O   0  0  0  0  0  0  0  0  0  0  0  0
    8.3889    2.7676    3.5592 C   0  0  0  0  0  0  0  0  0  0  0  0
    0.8439    3.1910    1.6396 H   0  0  0  0  0  0  0  0  0  0  0  0
    1.0759    1.6820    2.5726 H   0  0  0  0  0  0  0  0  0  0  0  0
    0.4804    1.6290    0.8931 H   0  0  0  0  0  0  0  0  0  0  0  0
    3.1219    2.7591    1.5618 H   0  0  0  0  0  0  0  0  0  0  0  0
    3.1632    0.3673    2.0805 H   0  0  0  0  0  0  0  0  0  0  0  0
    2.4401    0.2361   -0.9100 H   0  0  0  0  0  0  0  0  0  0  0  0
    1.5134   -0.4435    0.4462 H   0  0  0  0  0  0  0  0  0  0  0  0
    3.1024   -1.1213    0.0520 H   0  0  0  0  0  0  0  0  0  0  0  0
    5.1807    0.0180    0.8537 H   0  0  0  0  0  0  0  0  0  0  0  0
    4.4182    2.5013   -0.8013 H   0  0  0  0  0  0  0  0  0  0  0  0
    4.6751    0.8518   -1.4276 H   0  0  0  0  0  0  0  0  0  0  0  0
    6.0508    1.7644   -0.7825 H   0  0  0  0  0  0  0  0  0  0  0  0
    7.1638    2.0904    1.1406 H   0  0  0  0  0  0  0  0  0  0  0  0
    6.8595    0.7679    2.2968 H   0  0  0  0  0  0  0  0  0  0  0  0
    6.5759    3.7582    2.8987 H   0  0  0  0  0  0  0  0  0  0  0  0
    6.3088    1.2931    4.6986 H   0  0  0  0  0  0  0  0  0  0  0  0
    5.1946    2.6795    4.6006 H   0  0  0  0  0  0  0  0  0  0  0  0
    7.1962    2.6585    6.5134 H   0  0  0  0  0  0  0  0  0  0  0  0
    6.8280    4.1734    5.6446 H   0  0  0  0  0  0  0  0  0  0  0  0
    8.8583    1.7782    3.3817 H   0  0  0  0  0  0  0  0  0  0  0  0
    8.9573    3.5123    2.9746 H   0  0  0  0  0  0  0  0  0  0  0  0
  1  2  1  0
  1 14  1  0
  1 15  1  0
  1 16  1  0
  2  3  1  0
  2 17  1  0
  3  4  1  0
  3  5  1  0
  3 18  1  1
  4 19  1  0
  4 20  1  0
  4 21  1  0
  5  6  1  0
  5  7  1  0
  5 22  1  6
  6 23  1  0
  6 24  1  0
  6 25  1  0
  7  8  1  0
  8  9  1  0
  8 26  1  0
  8 27  1  0
  9 10  1  0
  9 13  1  0
  9 28  1  6
 10 11  1  0
 10 29  1  0
 10 30  1  0
 11 12  1  0
 11 31  1  0
 11 32  1  0
 12 13  1  0
 13 33  1  0
 13 34  1  0
M  END

