
     RDKit          3D

 26 28  0  0  0  0  0  0  0  0999 V2000
    0.8628   -0.3412    0.0629 C   0  0  0  0  0  0  0  0  0  0  0  0
    2.3575   -0.2440    0.0565 C   0  0  0  0  0  0  0  0  0  0  0  0
    3.2740   -1.2838    0.0533 C   0  0  0  0  0  0  0  0  0  0  0  0
    4.6081   -0.8166    0.0474 C   0  0  0  0  0  0  0  0  0  0  0  0
    4.7038    0.5728    0.0461 C   0  0  0  0  0  0  0  0  0  0  0  0
    3.1391    1.3186    0.0522 S   0  0  0  0  0  0  0  0  0  0  0  0
    6.0889    0.9958    0.0394 C   0  0  0  0  0  0  0  0  0  0  0  0
    6.5591    2.2928    0.0363 C   0  0  0  0  0  0  0  0  0  0  0  0
    5.6488    3.3980    0.0398 C   0  0  0  0  0  0  0  0  0  0  0  0
    4.8991    4.2860    0.0428 N   0  0  0  0  0  0  0  0  0  0  0  0
    7.9514    2.6208    0.0295 C   0  0  0  0  0  0  0  0  0  0  0  0
    9.0814    2.8923    0.0239 N   0  0  0  0  0  0  0  0  0  0  0  0
    6.8794   -0.2695    0.0366 C   0  0  0  0  0  0  0  0  0  0  0  0
    8.2550   -0.4953    0.0304 C   0  0  0  0  0  0  0  0  0  0  0  0
    8.7132   -1.8167    0.0293 C   0  0  0  0  0  0  0  0  0  0  0  0
   10.0235   -2.0653    0.0234 F   0  0  0  0  0  0  0  0  0  0  0  0
    7.8193   -2.8901    0.0341 C   0  0  0  0  0  0  0  0  0  0  0  0
    8.2980   -4.1328    0.0329 F   0  0  0  0  0  0  0  0  0  0  0  0
    6.4356   -2.6764    0.0404 C   0  0  0  0  0  0  0  0  0  0  0  0
    5.9720   -1.3673    0.0415 C   0  0  0  0  0  0  0  0  0  0  0  0
    0.5543   -1.3965    0.0649 H   0  0  0  0  0  0  0  0  0  0  0  0
    0.4189    0.1418   -0.8233 H   0  0  0  0  0  0  0  0  0  0  0  0
    0.4265    0.1429    0.9523 H   0  0  0  0  0  0  0  0  0  0  0  0
    2.9721   -2.3322    0.0553 H   0  0  0  0  0  0  0  0  0  0  0  0
    8.9944    0.3053    0.0264 H   0  0  0  0  0  0  0  0  0  0  0  0
    5.7684   -3.5401    0.0441 H   0  0  0  0  0  0  0  0  0  0  0  0
  1  2  1  0
  1 21  1  0
  1 22  1  0
  1 23  1  0
  2  3  2  0
  2  6  1  0
  3  4  1  0
  3 24  1  0
  4  5  2  0
  4 20  1  0
  5  6  1  0
  5  7  1  0
  7  8  2  0
  7 13  1  0
  8  9  1  0
  8 11  1  0
  9 10  3  0
 11 12  3  0
 13 14  1  0
 13 20  2  0
 14 15  2  0
 14 25  1  0
 15 16  1  0
 15 17  1  0
 17 18  1  0
 17 19  2  0
 19 20  1  0
 19 26  1  0
M  END

