
     RDKit          3D

 44 45  0  0  0  0  0  0  0  0999 V2000
    2.9787   -1.1808   -2.8211 C   0  0  0  0  0  0  0  0  0  0  0  0
    4.4515   -1.3656   -2.4151 C   0  0  1  0  0  0  0  0  0  0  0  0
    5.3905   -0.6899   -3.4174 C   0  0  0  0  0  0  0  0  0  0  0  0
    4.7671   -0.8864   -1.0676 N   0  0  0  0  0  0  0  0  0  0  0  0
    4.2036   -1.6265    0.0542 C   0  0  0  0  0  0  0  0  0  0  0  0
    4.8826   -2.9640    0.2899 C   0  0  0  0  0  0  0  0  0  0  0  0
    6.2790   -3.0905    0.2274 C   0  0  0  0  0  0  0  0  0  0  0  0
    6.9187   -4.2988    0.4914 C   0  0  0  0  0  0  0  0  0  0  0  0
    6.1771   -5.4580    0.8309 C   0  0  0  0  0  0  0  0  0  0  0  0
    6.8006   -6.6615    1.0895 N   0  0  0  0  0  0  0  0  0  0  0  0
    6.1019   -7.8349    1.5956 C   0  0  0  0  0  0  0  0  0  0  0  0
    7.2353   -8.7879    1.9945 C   0  0  0  0  0  0  0  0  0  0  0  0
    8.4116   -8.4077    1.0631 C   0  0  2  0  0  0  0  0  0  0  0  0
    8.2266   -9.0415   -0.3284 C   0  0  0  0  0  0  0  0  0  0  0  0
    9.7738   -8.8037    1.6416 C   0  0  0  0  0  0  0  0  0  0  0  0
    8.2345   -6.8730    0.9776 C   0  0  0  0  0  0  0  0  0  0  0  0
    4.7689   -5.3322    0.8892 C   0  0  0  0  0  0  0  0  0  0  0  0
    4.1498   -4.1107    0.6206 C   0  0  0  0  0  0  0  0  0  0  0  0
    2.7822   -1.6072   -3.8185 H   0  0  0  0  0  0  0  0  0  0  0  0
    2.7159   -0.1086   -2.8587 H   0  0  0  0  0  0  0  0  0  0  0  0
    2.2931   -1.6721   -2.1130 H   0  0  0  0  0  0  0  0  0  0  0  0
    4.6728   -2.4476   -2.4164 H   0  0  0  0  0  0  0  0  0  0  0  0
    5.2262    0.4024   -3.4324 H   0  0  0  0  0  0  0  0  0  0  0  0
    5.2228   -1.0630   -4.4404 H   0  0  0  0  0  0  0  0  0  0  0  0
    6.4411   -0.8677   -3.1439 H   0  0  0  0  0  0  0  0  0  0  0  0
    4.5442    0.1048   -0.9874 H   0  0  0  0  0  0  0  0  0  0  0  0
    3.1082   -1.8012   -0.0250 H   0  0  0  0  0  0  0  0  0  0  0  0
    4.3368   -0.9919    0.9495 H   0  0  0  0  0  0  0  0  0  0  0  0
    6.8715   -2.2125   -0.0419 H   0  0  0  0  0  0  0  0  0  0  0  0
    8.0075   -4.3424    0.4411 H   0  0  0  0  0  0  0  0  0  0  0  0
    5.4419   -8.2807    0.8246 H   0  0  0  0  0  0  0  0  0  0  0  0
    5.4551   -7.5804    2.4545 H   0  0  0  0  0  0  0  0  0  0  0  0
    6.9498   -9.8479    1.9096 H   0  0  0  0  0  0  0  0  0  0  0  0
    7.5246   -8.6059    3.0430 H   0  0  0  0  0  0  0  0  0  0  0  0
    8.2403  -10.1418   -0.2636 H   0  0  0  0  0  0  0  0  0  0  0  0
    9.0367   -8.7351   -1.0100 H   0  0  0  0  0  0  0  0  0  0  0  0
    7.2737   -8.7408   -0.7911 H   0  0  0  0  0  0  0  0  0  0  0  0
    9.8606   -9.8990    1.7301 H   0  0  0  0  0  0  0  0  0  0  0  0
    9.9275   -8.3714    2.6437 H   0  0  0  0  0  0  0  0  0  0  0  0
   10.5977   -8.4582    0.9953 H   0  0  0  0  0  0  0  0  0  0  0  0
    8.6267   -6.4728    0.0261 H   0  0  0  0  0  0  0  0  0  0  0  0
    8.7907   -6.3654    1.7935 H   0  0  0  0  0  0  0  0  0  0  0  0
    4.1502   -6.1975    1.1295 H   0  0  0  0  0  0  0  0  0  0  0  0
    3.0573   -4.0542    0.6685 H   0  0  0  0  0  0  0  0  0  0  0  0
  1  2  1  0
  1 19  1  0
  1 20  1  0
  1 21  1  0
  2  3  1  0
  2  4  1  0
  2 22  1  1
  3 23  1  0
  3 24  1  0
  3 25  1  0
  4  5  1  0
  4 26  1  0
  5  6  1  0
  5 27  1  0
  5 28  1  0
  6  7  2  0
  6 18  1  0
  7  8  1  0
  7 29  1  0
  8  9  2  0
  8 30  1  0
  9 10  1  0
  9 17  1  0
 10 11  1  0
 10 16  1  0
 11 12  1  0
 11 31  1  0
 11 32  1  0
 12 13  1  0
 12 33  1  0
 12 34  1  0
 13 14  1  6
 13 15  1  0
 13 16  1  0
 14 35  1  0
 14 36  1  0
 14 37  1  0
 15 38  1  0
 15 39  1  0
 15 40  1  0
 16 41  1  0
 16 42  1  0
 17 18  2  0
 17 43  1  0
 18 44  1  0
M  END

