
     RDKit          3D

 87 92  0  0  0  0  0  0  0  0999 V2000
    9.8913  -10.3403    5.7044 C   0  0  0  0  0  0  0  0  0  0  0  0
    8.6030  -10.3621    4.8923 C   0  0  0  0  0  0  0  0  0  0  0  0
    8.6412   -9.4857    3.7695 O   0  0  0  0  0  0  0  0  0  0  0  0
    9.2547   -9.9745    2.5835 C   0  0  1  0  0  0  0  0  0  0  0  0
    8.2444  -10.6138    1.6096 C   0  0  0  0  0  0  0  0  0  0  0  0
    7.1198   -9.6981    1.1808 C   0  0  0  0  0  0  0  0  0  0  0  0
    7.2505   -8.8573    0.0595 C   0  0  0  0  0  0  0  0  0  0  0  0
    6.2253   -7.9969   -0.3211 C   0  0  0  0  0  0  0  0  0  0  0  0
    5.0271   -7.9467    0.4113 C   0  0  0  0  0  0  0  0  0  0  0  0
    4.0931   -7.0652   -0.0387 O   0  0  0  0  0  0  0  0  0  0  0  0
    2.8466   -6.9216    0.6165 C   0  0  0  0  0  0  0  0  0  0  0  0
    1.8297   -7.9581    0.1454 C   0  0  0  0  0  0  0  0  0  0  0  0
    0.6240   -7.6769    0.8146 O   0  0  0  0  0  0  0  0  0  0  0  0
   -0.4562   -8.5674    0.5461 C   0  0  2  0  0  0  0  0  0  0  0  0
   -0.9270   -8.4883   -0.8969 C   0  0  0  0  0  0  0  0  0  0  0  0
   -0.7928   -9.6166   -1.7199 C   0  0  0  0  0  0  0  0  0  0  0  0
   -1.0930   -9.5945   -3.0862 C   0  0  0  0  0  0  0  0  0  0  0  0
   -0.9137  -10.8281   -3.9531 C   0  0  0  0  0  0  0  0  0  0  0  0
   -2.1625  -11.2628   -4.7026 C   0  0  0  0  0  0  0  0  0  0  0  0
   -2.1676  -11.3643   -6.1011 C   0  0  0  0  0  0  0  0  0  0  0  0
   -3.3131  -11.7801   -6.7892 C   0  0  0  0  0  0  0  0  0  0  0  0
   -4.4753  -12.1014   -6.0848 C   0  0  0  0  0  0  0  0  0  0  0  0
   -4.4839  -12.0030   -4.6886 C   0  0  0  0  0  0  0  0  0  0  0  0
   -3.3395  -11.5866   -4.0064 C   0  0  0  0  0  0  0  0  0  0  0  0
   -1.5279   -8.3778   -3.6392 C   0  0  0  0  0  0  0  0  0  0  0  0
   -1.6705   -7.2498   -2.8411 C   0  0  0  0  0  0  0  0  0  0  0  0
   -1.4059   -7.2768   -1.4529 C   0  0  0  0  0  0  0  0  0  0  0  0
   -1.6821   -6.0682   -0.6806 C   0  0  0  0  0  0  0  0  0  0  0  0
   -2.0096   -5.9574    0.6295 C   0  0  0  0  0  0  0  0  0  0  0  0
   -2.1735   -7.0139    1.6245 C   0  0  0  0  0  0  0  0  0  0  0  0
   -3.0546   -6.7732    2.7030 C   0  0  0  0  0  0  0  0  0  0  0  0
   -3.3436   -7.7487    3.6485 C   0  0  0  0  0  0  0  0  0  0  0  0
   -2.7454   -9.0182    3.5709 C   0  0  0  0  0  0  0  0  0  0  0  0
   -3.0392  -10.0850    4.6103 C   0  0  0  0  0  0  0  0  0  0  0  0
   -4.5069  -10.4600    4.7358 C   0  0  0  0  0  0  0  0  0  0  0  0
   -5.2188  -10.9483    3.6269 C   0  0  0  0  0  0  0  0  0  0  0  0
   -6.5621  -11.3104    3.7406 C   0  0  0  0  0  0  0  0  0  0  0  0
   -7.2234  -11.1881    4.9681 C   0  0  0  0  0  0  0  0  0  0  0  0
   -6.5287  -10.7017    6.0774 C   0  0  0  0  0  0  0  0  0  0  0  0
   -5.1816  -10.3412    5.9593 C   0  0  0  0  0  0  0  0  0  0  0  0
   -1.8428   -9.2493    2.5277 C   0  0  0  0  0  0  0  0  0  0  0  0
   -1.5362   -8.2765    1.5652 C   0  0  0  0  0  0  0  0  0  0  0  0
    4.8780   -8.7800    1.5303 C   0  0  0  0  0  0  0  0  0  0  0  0
    5.9203   -9.6370    1.9002 C   0  0  0  0  0  0  0  0  0  0  0  0
   10.0105   -8.8086    1.9176 C   0  0  0  0  0  0  0  0  0  0  0  0
   10.5957   -8.9360    0.8740 O   0  0  0  0  0  0  0  0  0  0  0  0
    9.9607   -7.6646    2.6000 O   0  0  0  0  0  0  0  0  0  0  0  0
    9.7984  -10.9975    6.5840 H   0  0  0  0  0  0  0  0  0  0  0  0
   10.1110   -9.3212    6.0598 H   0  0  0  0  0  0  0  0  0  0  0  0
   10.7538  -10.6910    5.1157 H   0  0  0  0  0  0  0  0  0  0  0  0
    7.7557  -10.0207    5.5076 H   0  0  0  0  0  0  0  0  0  0  0  0
    8.3656  -11.3890    4.5585 H   0  0  0  0  0  0  0  0  0  0  0  0
   10.0265  -10.7279    2.8293 H   0  0  0  0  0  0  0  0  0  0  0  0
    7.8339  -11.5165    2.0912 H   0  0  0  0  0  0  0  0  0  0  0  0
    8.8232  -10.9503    0.7359 H   0  0  0  0  0  0  0  0  0  0  0  0
    8.1766   -8.8750   -0.5205 H   0  0  0  0  0  0  0  0  0  0  0  0
    6.3279   -7.3445   -1.1906 H   0  0  0  0  0  0  0  0  0  0  0  0
    2.4770   -5.9191    0.3555 H   0  0  0  0  0  0  0  0  0  0  0  0
    2.9516   -6.9595    1.7139 H   0  0  0  0  0  0  0  0  0  0  0  0
    2.1804   -8.9854    0.3754 H   0  0  0  0  0  0  0  0  0  0  0  0
    1.7249   -7.8875   -0.9536 H   0  0  0  0  0  0  0  0  0  0  0  0
   -0.1067   -9.6042    0.7160 H   0  0  0  0  0  0  0  0  0  0  0  0
   -0.4153  -10.5438   -1.2766 H   0  0  0  0  0  0  0  0  0  0  0  0
   -0.5621  -11.6586   -3.3180 H   0  0  0  0  0  0  0  0  0  0  0  0
   -0.1096  -10.6434   -4.6856 H   0  0  0  0  0  0  0  0  0  0  0  0
   -1.2606  -11.1176   -6.6610 H   0  0  0  0  0  0  0  0  0  0  0  0
   -3.2947  -11.8520   -7.8799 H   0  0  0  0  0  0  0  0  0  0  0  0
   -5.3717  -12.4262   -6.6192 H   0  0  0  0  0  0  0  0  0  0  0  0
   -5.3893  -12.2517   -4.1285 H   0  0  0  0  0  0  0  0  0  0  0  0
   -3.3583  -11.5059   -2.9158 H   0  0  0  0  0  0  0  0  0  0  0  0
   -1.7621   -8.3201   -4.7056 H   0  0  0  0  0  0  0  0  0  0  0  0
   -2.0215   -6.3159   -3.2889 H   0  0  0  0  0  0  0  0  0  0  0  0
   -1.7265   -5.1480   -1.2730 H   0  0  0  0  0  0  0  0  0  0  0  0
   -2.2881   -4.9571    0.9778 H   0  0  0  0  0  0  0  0  0  0  0  0
   -3.5379   -5.7949    2.7754 H   0  0  0  0  0  0  0  0  0  0  0  0
   -4.0472   -7.5292    4.4561 H   0  0  0  0  0  0  0  0  0  0  0  0
   -2.6781   -9.7425    5.5950 H   0  0  0  0  0  0  0  0  0  0  0  0
   -2.4524  -10.9869    4.3673 H   0  0  0  0  0  0  0  0  0  0  0  0
   -4.7129  -11.0402    2.6616 H   0  0  0  0  0  0  0  0  0  0  0  0
   -7.0979  -11.6893    2.8662 H   0  0  0  0  0  0  0  0  0  0  0  0
   -8.2756  -11.4701    5.0569 H   0  0  0  0  0  0  0  0  0  0  0  0
   -7.0350  -10.6005    7.0411 H   0  0  0  0  0  0  0  0  0  0  0  0
   -4.6445   -9.9637    6.8345 H   0  0  0  0  0  0  0  0  0  0  0  0
   -1.3359  -10.2178    2.4719 H   0  0  0  0  0  0  0  0  0  0  0  0
    3.9596   -8.7767    2.1178 H   0  0  0  0  0  0  0  0  0  0  0  0
    5.7826  -10.2811    2.7734 H   0  0  0  0  0  0  0  0  0  0  0  0
    9.4019   -7.8433    3.3847 H   0  0  0  0  0  0  0  0  0  0  0  0
  1  2  1  0
  1 48  1  0
  1 49  1  0
  1 50  1  0
  2  3  1  0
  2 51  1  0
  2 52  1  0
  3  4  1  0
  4  5  1  0
  4 45  1  0
  4 53  1  1
  5  6  1  0
  5 54  1  0
  5 55  1  0
  6  7  2  0
  6 44  1  0
  7  8  1  0
  7 56  1  0
  8  9  2  0
  8 57  1  0
  9 10  1  0
  9 43  1  0
 10 11  1  0
 11 12  1  0
 11 58  1  0
 11 59  1  0
 12 13  1  0
 12 60  1  0
 12 61  1  0
 13 14  1  0
 14 15  1  0
 14 42  1  0
 14 62  1  1
 15 16  2  0
 15 27  1  0
 16 17  1  0
 16 63  1  0
 17 18  1  0
 17 25  2  0
 18 19  1  0
 18 64  1  0
 18 65  1  0
 19 20  2  0
 19 24  1  0
 20 21  1  0
 20 66  1  0
 21 22  2  0
 21 67  1  0
 22 23  1  0
 22 68  1  0
 23 24  2  0
 23 69  1  0
 24 70  1  0
 25 26  1  0
 25 71  1  0
 26 27  2  0
 26 72  1  0
 27 28  1  0
 28 29  2  0
 28 73  1  0
 29 30  1  0
 29 74  1  0
 30 31  1  0
 30 42  2  0
 31 32  2  0
 31 75  1  0
 32 33  1  0
 32 76  1  0
 33 34  1  0
 33 41  2  0
 34 35  1  0
 34 77  1  0
 34 78  1  0
 35 36  2  0
 35 40  1  0
 36 37  1  0
 36 79  1  0
 37 38  2  0
 37 80  1  0
 38 39  1  0
 38 81  1  0
 39 40  2  0
 39 82  1  0
 40 83  1  0
 41 42  1  0
 41 84  1  0
 43 44  2  0
 43 85  1  0
 44 86  1  0
 45 46  2  0
 45 47  1  0
 47 87  1  0
M  END

