
     RDKit          3D

 45 48  0  0  0  0  0  0  0  0999 V2000
    1.1595   -0.0343    0.6306 C   0  0  0  0  0  0  0  0  0  0  0  0
    2.4207    0.0010    0.0001 O   0  0  0  0  0  0  0  0  0  0  0  0
    3.0069    1.1954   -0.2793 C   0  0  0  0  0  0  0  0  0  0  0  0
    2.4069    2.4356    0.0312 C   0  0  0  0  0  0  0  0  0  0  0  0
    3.0632    3.6156   -0.2857 C   0  0  0  0  0  0  0  0  0  0  0  0
    4.3168    3.6044   -0.9115 C   0  0  0  0  0  0  0  0  0  0  0  0
    4.9974    4.8814   -1.2528 C   0  0  0  0  0  0  0  0  0  0  0  0
    4.4976    5.9768   -1.0050 O   0  0  0  0  0  0  0  0  0  0  0  0
    6.3000    4.7217   -1.8894 C   0  0  0  0  0  0  0  0  0  0  0  0
    6.8348    3.4912   -2.1634 C   0  0  0  0  0  0  0  0  0  0  0  0
    8.1398    3.3026   -2.8060 C   0  0  0  0  0  0  0  0  0  0  0  0
    8.8099    4.1755   -3.7076 C   0  0  0  0  0  0  0  0  0  0  0  0
    9.9862    3.6876   -4.0789 N   0  0  0  0  0  0  0  0  0  0  0  0
   10.1092    2.5156   -3.4329 N   0  0  0  0  0  0  0  0  0  0  0  0
   11.2780    1.6745   -3.6651 C   0  0  0  0  0  0  0  0  0  0  0  0
   11.0744    0.6207   -4.7387 C   0  0  0  0  0  0  0  0  0  0  0  0
   10.6733    0.9925   -6.0324 C   0  0  0  0  0  0  0  0  0  0  0  0
   10.5003    0.0241   -7.0228 C   0  0  0  0  0  0  0  0  0  0  0  0
   10.7301   -1.3268   -6.7365 C   0  0  0  0  0  0  0  0  0  0  0  0
   11.1317   -1.7041   -5.4532 C   0  0  0  0  0  0  0  0  0  0  0  0
   11.2998   -0.7336   -4.4594 C   0  0  0  0  0  0  0  0  0  0  0  0
    9.0257    2.2354   -2.6651 C   0  0  0  0  0  0  0  0  0  0  0  0
    6.1503    2.3434   -1.8267 N   0  0  0  0  0  0  0  0  0  0  0  0
    6.5144    1.4591   -2.1558 H   0  0  0  0  0  0  0  0  0  0  0  0
    4.9084    2.3552   -1.2115 C   0  0  0  0  0  0  0  0  0  0  0  0
    4.2661    1.1343   -0.9030 C   0  0  0  0  0  0  0  0  0  0  0  0
    4.9154   -0.1868   -1.2295 C   0  0  0  0  0  0  0  0  0  0  0  0
    0.9010   -1.0952    0.7486 H   0  0  0  0  0  0  0  0  0  0  0  0
    0.3805    0.4573    0.0213 H   0  0  0  0  0  0  0  0  0  0  0  0
    1.1837    0.4404    1.6276 H   0  0  0  0  0  0  0  0  0  0  0  0
    1.4321    2.4739    0.5161 H   0  0  0  0  0  0  0  0  0  0  0  0
    2.6257    4.5908   -0.0617 H   0  0  0  0  0  0  0  0  0  0  0  0
    6.8589    5.6279   -2.1219 H   0  0  0  0  0  0  0  0  0  0  0  0
    8.4618    5.1310   -4.0983 H   0  0  0  0  0  0  0  0  0  0  0  0
   11.5553    1.1992   -2.7126 H   0  0  0  0  0  0  0  0  0  0  0  0
   12.0877    2.3647   -3.9434 H   0  0  0  0  0  0  0  0  0  0  0  0
   10.4932    2.0475   -6.2549 H   0  0  0  0  0  0  0  0  0  0  0  0
   10.1872    0.3248   -8.0259 H   0  0  0  0  0  0  0  0  0  0  0  0
   10.5962   -2.0829   -7.5143 H   0  0  0  0  0  0  0  0  0  0  0  0
   11.3127   -2.7568   -5.2212 H   0  0  0  0  0  0  0  0  0  0  0  0
   11.6135   -1.0354   -3.4554 H   0  0  0  0  0  0  0  0  0  0  0  0
    8.9807    1.3338   -2.0569 H   0  0  0  0  0  0  0  0  0  0  0  0
    5.9111   -0.2783   -0.7594 H   0  0  0  0  0  0  0  0  0  0  0  0
    5.0507   -0.3215   -2.3185 H   0  0  0  0  0  0  0  0  0  0  0  0
    4.3014   -1.0208   -0.8711 H   0  0  0  0  0  0  0  0  0  0  0  0
  1  2  1  0
  1 28  1  0
  1 29  1  0
  1 30  1  0
  2  3  1  0
  3  4  2  0
  3 26  1  0
  4  5  1  0
  4 31  1  0
  5  6  2  0
  5 32  1  0
  6  7  1  0
  6 25  1  0
  7  8  2  0
  7  9  1  0
  9 10  2  0
  9 33  1  0
 10 11  1  0
 10 23  1  0
 11 12  1  0
 11 22  2  0
 12 13  2  0
 12 34  1  0
 13 14  1  0
 14 15  1  0
 14 22  1  0
 15 16  1  0
 15 35  1  0
 15 36  1  0
 16 17  2  0
 16 21  1  0
 17 18  1  0
 17 37  1  0
 18 19  2  0
 18 38  1  0
 19 20  1  0
 19 39  1  0
 20 21  2  0
 20 40  1  0
 21 41  1  0
 22 42  1  0
 23 24  1  0
 23 25  1  0
 25 26  2  0
 26 27  1  0
 27 43  1  0
 27 44  1  0
 27 45  1  0
M  END

