
     RDKit          3D

 52 55  0  0  0  0  0  0  0  0999 V2000
    1.1124    0.5650    3.3585 C   0  0  0  0  0  0  0  0  0  0  0  0
    1.2235    0.1418    1.8853 C   0  0  0  0  0  0  0  0  0  0  0  0
    2.0258   -1.1252    1.6825 C   0  0  0  0  0  0  0  0  0  0  0  0
    1.4228   -2.3911    1.7448 C   0  0  0  0  0  0  0  0  0  0  0  0
    2.1507   -3.5708    1.5977 C   0  0  0  0  0  0  0  0  0  0  0  0
    3.5426   -3.5196    1.3788 C   0  0  0  0  0  0  0  0  0  0  0  0
    4.3226   -4.6904    1.2204 N   0  0  0  0  0  0  0  0  0  0  0  0
    5.7470   -4.6078    0.8927 C   0  0  0  0  0  0  0  0  0  0  0  0
    6.1762   -6.0491    0.5622 C   0  0  2  0  0  0  0  0  0  0  0  0
    6.2259   -6.2746   -0.9638 C   0  0  0  0  0  0  0  0  0  0  0  0
    5.8716   -5.3967   -1.7405 O   0  0  0  0  0  0  0  0  0  0  0  0
    6.6617   -7.4953   -1.4106 N   0  0  0  0  0  0  0  0  0  0  0  0
    7.2250   -8.5550   -0.5936 C   0  0  0  0  0  0  0  0  0  0  0  0
    6.6161   -7.7632   -2.8551 C   0  0  0  0  0  0  0  0  0  0  0  0
    7.9487   -7.5813   -3.5564 C   0  0  0  0  0  0  0  0  0  0  0  0
    8.6611   -8.6834   -4.0432 C   0  0  0  0  0  0  0  0  0  0  0  0
    9.9040   -8.5429   -4.6964 C   0  0  0  0  0  0  0  0  0  0  0  0
   10.3935   -7.2584   -4.8344 C   0  0  0  0  0  0  0  0  0  0  0  0
    9.6896   -6.1492   -4.3502 C   0  0  0  0  0  0  0  0  0  0  0  0
    8.4718   -6.2725   -3.7116 C   0  0  0  0  0  0  0  0  0  0  0  0
   10.4104   -5.0150   -4.6056 O   0  0  0  0  0  0  0  0  0  0  0  0
   11.5102   -5.4151   -5.4162 C   0  0  0  0  0  0  0  0  0  0  0  0
   11.5655   -6.8393   -5.3992 O   0  0  0  0  0  0  0  0  0  0  0  0
    5.1046   -6.9121    1.2552 C   0  0  0  0  0  0  0  0  0  0  0  0
    3.8992   -5.9911    1.4283 C   0  0  0  0  0  0  0  0  0  0  0  0
    2.7831   -6.3668    1.7240 O   0  0  0  0  0  0  0  0  0  0  0  0
    4.1594   -2.2555    1.3138 C   0  0  0  0  0  0  0  0  0  0  0  0
    3.4088   -1.0881    1.4633 C   0  0  0  0  0  0  0  0  0  0  0  0
    0.5199    1.4886    3.4636 H   0  0  0  0  0  0  0  0  0  0  0  0
    2.1075    0.7484    3.7951 H   0  0  0  0  0  0  0  0  0  0  0  0
    0.6276   -0.2196    3.9615 H   0  0  0  0  0  0  0  0  0  0  0  0
    1.6822    0.9613    1.3062 H   0  0  0  0  0  0  0  0  0  0  0  0
    0.2103    0.0016    1.4718 H   0  0  0  0  0  0  0  0  0  0  0  0
    0.3428   -2.4629    1.9072 H   0  0  0  0  0  0  0  0  0  0  0  0
    1.6558   -4.5367    1.6514 H   0  0  0  0  0  0  0  0  0  0  0  0
    6.3177   -4.2089    1.7505 H   0  0  0  0  0  0  0  0  0  0  0  0
    5.9027   -3.9544    0.0245 H   0  0  0  0  0  0  0  0  0  0  0  0
    7.1782   -6.2384    0.9745 H   0  0  0  0  0  0  0  0  0  0  0  0
    7.4197   -8.2199    0.4305 H   0  0  0  0  0  0  0  0  0  0  0  0
    8.1843   -8.8877   -1.0238 H   0  0  0  0  0  0  0  0  0  0  0  0
    6.5521   -9.4308   -0.5467 H   0  0  0  0  0  0  0  0  0  0  0  0
    5.8693   -7.0799   -3.2793 H   0  0  0  0  0  0  0  0  0  0  0  0
    6.2593   -8.7965   -2.9962 H   0  0  0  0  0  0  0  0  0  0  0  0
    8.2393   -9.6855   -3.9269 H   0  0  0  0  0  0  0  0  0  0  0  0
   10.4558   -9.4042   -5.0759 H   0  0  0  0  0  0  0  0  0  0  0  0
    7.9234   -5.4037   -3.3444 H   0  0  0  0  0  0  0  0  0  0  0  0
   12.4461   -5.0019   -5.0054 H   0  0  0  0  0  0  0  0  0  0  0  0
   11.3580   -5.0605   -6.4551 H   0  0  0  0  0  0  0  0  0  0  0  0
    5.4220   -7.2456    2.2577 H   0  0  0  0  0  0  0  0  0  0  0  0
    4.7969   -7.8084    0.6994 H   0  0  0  0  0  0  0  0  0  0  0  0
    5.2315   -2.1662    1.1415 H   0  0  0  0  0  0  0  0  0  0  0  0
    3.9203   -0.1227    1.4012 H   0  0  0  0  0  0  0  0  0  0  0  0
  1  2  1  0
  1 29  1  0
  1 30  1  0
  1 31  1  0
  2  3  1  0
  2 32  1  0
  2 33  1  0
  3  4  2  0
  3 28  1  0
  4  5  1  0
  4 34  1  0
  5  6  2  0
  5 35  1  0
  6  7  1  0
  6 27  1  0
  7  8  1  0
  7 25  1  0
  8  9  1  0
  8 36  1  0
  8 37  1  0
  9 10  1  0
  9 24  1  0
  9 38  1  1
 10 11  2  0
 10 12  1  0
 12 13  1  0
 12 14  1  0
 13 39  1  0
 13 40  1  0
 13 41  1  0
 14 15  1  0
 14 42  1  0
 14 43  1  0
 15 16  2  0
 15 20  1  0
 16 17  1  0
 16 44  1  0
 17 18  2  0
 17 45  1  0
 18 19  1  0
 18 23  1  0
 19 20  2  0
 19 21  1  0
 20 46  1  0
 21 22  1  0
 22 23  1  0
 22 47  1  0
 22 48  1  0
 24 25  1  0
 24 49  1  0
 24 50  1  0
 25 26  2  0
 27 28  2  0
 27 51  1  0
 28 52  1  0
M  END

