
     RDKit          3D

 52 56  0  0  0  0  0  0  0  0999 V2000
    1.1689   -0.0023   -0.3300 N   0  0  0  0  0  0  0  0  0  0  0  0
    2.3251    0.0281   -0.2108 C   0  0  0  0  0  0  0  0  0  0  0  0
    3.7531    0.0584   -0.0845 C   0  0  0  0  0  0  0  0  0  0  0  0
    4.4416    1.3008   -0.2160 C   0  0  0  0  0  0  0  0  0  0  0  0
    3.7390    2.4995   -0.3481 N   0  0  0  0  0  0  0  0  0  0  0  0
    4.3840    3.6381   -0.9956 C   0  0  0  0  0  0  0  0  0  0  0  0
    3.3362    4.5902   -1.5844 C   0  0  0  0  0  0  0  0  0  0  0  0
    2.3189    5.0365   -0.5300 C   0  0  0  0  0  0  0  0  0  0  0  0
    1.7075    3.8192    0.1709 C   0  0  0  0  0  0  0  0  0  0  0  0
    2.8003    2.8984    0.7116 C   0  0  0  0  0  0  0  0  0  0  0  0
    5.8422    1.2395   -0.2839 C   0  0  0  0  0  0  0  0  0  0  0  0
    6.5601    0.0417   -0.1532 C   0  0  0  0  0  0  0  0  0  0  0  0
    8.0358    0.1279   -0.3696 C   0  0  0  0  0  0  0  0  0  0  0  0
    8.8194    1.0544    0.3396 C   0  0  0  0  0  0  0  0  0  0  0  0
   10.1899    1.1828    0.0980 C   0  0  0  0  0  0  0  0  0  0  0  0
   10.7900    0.3824   -0.8761 C   0  0  0  0  0  0  0  0  0  0  0  0
   12.6588    0.5504   -1.2181 Br  0  0  0  0  0  0  0  0  0  0  0  0
   10.0327   -0.5399   -1.6050 C   0  0  0  0  0  0  0  0  0  0  0  0
    8.6675   -0.6628   -1.3465 C   0  0  0  0  0  0  0  0  0  0  0  0
    5.8712   -1.1722    0.1122 C   0  0  0  0  0  0  0  0  0  0  0  0
    4.4556   -1.1532    0.0806 C   0  0  0  0  0  0  0  0  0  0  0  0
    3.7123   -2.4663    0.1938 C   0  0  0  0  0  0  0  0  0  0  0  0
    4.5026   -3.5900   -0.4825 C   0  0  0  0  0  0  0  0  0  0  0  0
    5.8769   -3.6746    0.1330 C   0  0  0  0  0  0  0  0  0  0  0  0
    6.4778   -4.8995    0.4422 C   0  0  0  0  0  0  0  0  0  0  0  0
    7.7169   -4.9513    1.0850 C   0  0  0  0  0  0  0  0  0  0  0  0
    8.3512   -3.7604    1.4474 C   0  0  0  0  0  0  0  0  0  0  0  0
    7.7651   -2.5327    1.1369 C   0  0  0  0  0  0  0  0  0  0  0  0
    6.5376   -2.4627    0.4509 C   0  0  0  0  0  0  0  0  0  0  0  0
    5.0352    3.2661   -1.7995 H   0  0  0  0  0  0  0  0  0  0  0  0
    5.0301    4.1955   -0.2809 H   0  0  0  0  0  0  0  0  0  0  0  0
    2.8134    4.0692   -2.4049 H   0  0  0  0  0  0  0  0  0  0  0  0
    3.8505    5.4593   -2.0274 H   0  0  0  0  0  0  0  0  0  0  0  0
    1.5333    5.6578   -0.9905 H   0  0  0  0  0  0  0  0  0  0  0  0
    2.8242    5.6744    0.2191 H   0  0  0  0  0  0  0  0  0  0  0  0
    1.0828    3.2458   -0.5344 H   0  0  0  0  0  0  0  0  0  0  0  0
    1.0550    4.1325    1.0027 H   0  0  0  0  0  0  0  0  0  0  0  0
    2.3537    2.0065    1.1654 H   0  0  0  0  0  0  0  0  0  0  0  0
    3.3633    3.4231    1.5153 H   0  0  0  0  0  0  0  0  0  0  0  0
    6.4069    2.1540   -0.4603 H   0  0  0  0  0  0  0  0  0  0  0  0
    8.3551    1.6761    1.1092 H   0  0  0  0  0  0  0  0  0  0  0  0
   10.7861    1.8995    0.6653 H   0  0  0  0  0  0  0  0  0  0  0  0
   10.5063   -1.1559   -2.3712 H   0  0  0  0  0  0  0  0  0  0  0  0
    8.0794   -1.3827   -1.9194 H   0  0  0  0  0  0  0  0  0  0  0  0
    2.7073   -2.3756   -0.2414 H   0  0  0  0  0  0  0  0  0  0  0  0
    3.5695   -2.7142    1.2627 H   0  0  0  0  0  0  0  0  0  0  0  0
    4.5760   -3.3780   -1.5660 H   0  0  0  0  0  0  0  0  0  0  0  0
    3.9755   -4.5508   -0.3813 H   0  0  0  0  0  0  0  0  0  0  0  0
    5.9572   -5.8269    0.1859 H   0  0  0  0  0  0  0  0  0  0  0  0
    8.1729   -5.9159    1.3221 H   0  0  0  0  0  0  0  0  0  0  0  0
    9.3041   -3.7840    1.9820 H   0  0  0  0  0  0  0  0  0  0  0  0
    8.2650   -1.6164    1.4493 H   0  0  0  0  0  0  0  0  0  0  0  0
  1  2  3  0
  2  3  1  0
  3  4  2  0
  3 21  1  0
  4  5  1  0
  4 11  1  0
  5  6  1  0
  5 10  1  0
  6  7  1  0
  6 30  1  0
  6 31  1  0
  7  8  1  0
  7 32  1  0
  7 33  1  0
  8  9  1  0
  8 34  1  0
  8 35  1  0
  9 10  1  0
  9 36  1  0
  9 37  1  0
 10 38  1  0
 10 39  1  0
 11 12  2  0
 11 40  1  0
 12 13  1  0
 12 20  1  0
 13 14  2  0
 13 19  1  0
 14 15  1  0
 14 41  1  0
 15 16  2  0
 15 42  1  0
 16 17  1  0
 16 18  1  0
 18 19  2  0
 18 43  1  0
 19 44  1  0
 20 21  2  0
 20 29  1  0
 21 22  1  0
 22 23  1  0
 22 45  1  0
 22 46  1  0
 23 24  1  0
 23 47  1  0
 23 48  1  0
 24 25  1  0
 24 29  2  0
 25 26  2  0
 25 49  1  0
 26 27  1  0
 26 50  1  0
 27 28  2  0
 27 51  1  0
 28 29  1  0
 28 52  1  0
M  END

