
     RDKit          3D

 59 61  0  0  0  0  0  0  0  0999 V2000
    1.8984    1.3522   -2.6466 C   0  0  0  0  0  0  0  0  0  0  0  0
    1.3227    0.5117   -1.5037 C   0  0  1  0  0  0  0  0  0  0  0  0
    1.3824   -1.0000   -1.7621 C   0  0  0  0  0  0  0  0  0  0  0  0
    2.7494   -1.4970   -1.6604 N   0  0  0  0  0  0  0  0  0  0  0  0
    2.8896   -2.9027   -2.0178 C   0  0  0  0  0  0  0  0  0  0  0  0
    2.8131   -3.1836   -3.5324 C   0  0  1  0  0  0  0  0  0  0  0  0
    3.9023   -2.4465   -4.3359 C   0  0  0  0  0  0  0  0  0  0  0  0
    5.2873   -3.0819   -4.1825 C   0  0  0  0  0  0  0  0  0  0  0  0
    5.2545   -4.5126   -4.4861 N   0  0  0  0  0  0  0  0  0  0  0  0
    6.1663   -5.0296   -5.3685 C   0  0  0  0  0  0  0  0  0  0  0  0
    7.0136   -4.3436   -5.9252 O   0  0  0  0  0  0  0  0  0  0  0  0
    6.1118   -6.5419   -5.6608 C   0  0  0  0  0  0  0  0  0  0  0  0
    4.8628   -7.0072   -6.1284 O   0  0  0  0  0  0  0  0  0  0  0  0
    4.5473   -6.6483   -7.4668 C   0  0  0  0  0  0  0  0  0  0  0  0
    5.0695   -7.6597   -8.4829 C   0  0  1  0  0  0  0  0  0  0  0  0
    4.5046   -9.0812   -8.3420 C   0  0  0  0  0  0  0  0  0  0  0  0
    4.7512   -9.6471   -9.7399 C   0  0  0  0  0  0  0  0  0  0  0  0
    4.5781   -8.5541  -10.6337 O   0  0  0  0  0  0  0  0  0  0  0  0
    4.6935   -7.3205   -9.9380 C   0  0  0  0  0  0  0  0  0  0  0  0
    4.2909   -5.2827   -3.7033 C   0  0  0  0  0  0  0  0  0  0  0  0
    2.8793   -4.6938   -3.8356 C   0  0  0  0  0  0  0  0  0  0  0  0
    3.2950   -1.1828   -0.3453 C   0  0  0  0  0  0  0  0  0  0  0  0
    3.2466    0.3240   -0.0801 C   0  0  2  0  0  0  0  0  0  0  0  0
    3.6845    0.6899    1.3288 C   0  0  0  0  0  0  0  0  0  0  0  0
    1.9229    0.8162   -0.2485 O   0  0  0  0  0  0  0  0  0  0  0  0
    1.2773    1.2448   -3.5503 H   0  0  0  0  0  0  0  0  0  0  0  0
    2.9224    1.0476   -2.9074 H   0  0  0  0  0  0  0  0  0  0  0  0
    1.9083    2.4150   -2.3605 H   0  0  0  0  0  0  0  0  0  0  0  0
    0.2626    0.7857   -1.3730 H   0  0  0  0  0  0  0  0  0  0  0  0
    0.9791   -1.2117   -2.7640 H   0  0  0  0  0  0  0  0  0  0  0  0
    0.7199   -1.5118   -1.0256 H   0  0  0  0  0  0  0  0  0  0  0  0
    2.1240   -3.5280   -1.5012 H   0  0  0  0  0  0  0  0  0  0  0  0
    3.8633   -3.2418   -1.6292 H   0  0  0  0  0  0  0  0  0  0  0  0
    1.8312   -2.8252   -3.8851 H   0  0  0  0  0  0  0  0  0  0  0  0
    3.9469   -1.3938   -4.0173 H   0  0  0  0  0  0  0  0  0  0  0  0
    3.6299   -2.4570   -5.4052 H   0  0  0  0  0  0  0  0  0  0  0  0
    5.6650   -2.9421   -3.1511 H   0  0  0  0  0  0  0  0  0  0  0  0
    6.0176   -2.6212   -4.8586 H   0  0  0  0  0  0  0  0  0  0  0  0
    6.3384   -7.1121   -4.7448 H   0  0  0  0  0  0  0  0  0  0  0  0
    6.9239   -6.7252   -6.3837 H   0  0  0  0  0  0  0  0  0  0  0  0
    4.9292   -5.6363   -7.6995 H   0  0  0  0  0  0  0  0  0  0  0  0
    3.4462   -6.6069   -7.5240 H   0  0  0  0  0  0  0  0  0  0  0  0
    6.1703   -7.7075   -8.4051 H   0  0  0  0  0  0  0  0  0  0  0  0
    3.4222   -9.0370   -8.1289 H   0  0  0  0  0  0  0  0  0  0  0  0
    4.9823   -9.6623   -7.5402 H   0  0  0  0  0  0  0  0  0  0  0  0
    4.0485  -10.4489  -10.0201 H   0  0  0  0  0  0  0  0  0  0  0  0
    5.7788  -10.0559   -9.8246 H   0  0  0  0  0  0  0  0  0  0  0  0
    3.7246   -6.7823   -9.9816 H   0  0  0  0  0  0  0  0  0  0  0  0
    5.4482   -6.6809  -10.4287 H   0  0  0  0  0  0  0  0  0  0  0  0
    4.6078   -5.2832   -2.6417 H   0  0  0  0  0  0  0  0  0  0  0  0
    4.2756   -6.3214   -4.0472 H   0  0  0  0  0  0  0  0  0  0  0  0
    2.1926   -5.2526   -3.1770 H   0  0  0  0  0  0  0  0  0  0  0  0
    2.5382   -4.8665   -4.8702 H   0  0  0  0  0  0  0  0  0  0  0  0
    4.3416   -1.5258   -0.2969 H   0  0  0  0  0  0  0  0  0  0  0  0
    2.7350   -1.7055    0.4666 H   0  0  0  0  0  0  0  0  0  0  0  0
    3.9227    0.8139   -0.8092 H   0  0  0  0  0  0  0  0  0  0  0  0
    3.0303    0.2090    2.0730 H   0  0  0  0  0  0  0  0  0  0  0  0
    3.6195    1.7787    1.4718 H   0  0  0  0  0  0  0  0  0  0  0  0
    4.7233    0.3741    1.5134 H   0  0  0  0  0  0  0  0  0  0  0  0
  1  2  1  0
  1 26  1  0
  1 27  1  0
  1 28  1  0
  2  3  1  0
  2 25  1  0
  2 29  1  1
  3  4  1  0
  3 30  1  0
  3 31  1  0
  4  5  1  0
  4 22  1  0
  5  6  1  0
  5 32  1  0
  5 33  1  0
  6  7  1  0
  6 21  1  0
  6 34  1  6
  7  8  1  0
  7 35  1  0
  7 36  1  0
  8  9  1  0
  8 37  1  0
  8 38  1  0
  9 10  1  0
  9 20  1  0
 10 11  2  0
 10 12  1  0
 12 13  1  0
 12 39  1  0
 12 40  1  0
 13 14  1  0
 14 15  1  0
 14 41  1  0
 14 42  1  0
 15 16  1  0
 15 19  1  0
 15 43  1  6
 16 17  1  0
 16 44  1  0
 16 45  1  0
 17 18  1  0
 17 46  1  0
 17 47  1  0
 18 19  1  0
 19 48  1  0
 19 49  1  0
 20 21  1  0
 20 50  1  0
 20 51  1  0
 21 52  1  0
 21 53  1  0
 22 23  1  0
 22 54  1  0
 22 55  1  0
 23 24  1  0
 23 25  1  0
 23 56  1  6
 24 57  1  0
 24 58  1  0
 24 59  1  0
M  END

