
     RDKit          3D

 31 31  0  0  0  0  0  0  0  0999 V2000
    3.2407    0.9135    0.7377 C   0  0  0  0  0  0  0  0  0  0  0  0
    2.6134   -0.3534    0.7405 O   0  0  0  0  0  0  0  0  0  0  0  0
    3.2294   -1.4158    0.1516 C   0  0  0  0  0  0  0  0  0  0  0  0
    4.4952   -1.3282   -0.4336 C   0  0  0  0  0  0  0  0  0  0  0  0
    5.0830   -2.4671   -1.0210 C   0  0  0  0  0  0  0  0  0  0  0  0
    6.3848   -2.3624   -1.6193 C   0  0  0  0  0  0  0  0  0  0  0  0
    7.4376   -2.2738   -2.1018 N   0  0  0  0  0  0  0  0  0  0  0  0
    4.3981   -3.6890   -1.0152 C   0  0  0  0  0  0  0  0  0  0  0  0
    3.1338   -3.7541   -0.4246 C   0  0  0  0  0  0  0  0  0  0  0  0
    2.5171   -2.6441    0.1622 C   0  0  0  0  0  0  0  0  0  0  0  0
    1.1431   -2.7846    0.8211 C   0  0  1  0  0  0  0  0  0  0  0  0
    1.1474   -2.4487    2.2470 N   0  0  0  0  0  0  0  0  0  0  0  0
    0.0077   -2.0154    0.0890 C   0  0  1  0  0  0  0  0  0  0  0  0
   -0.0091   -2.3015   -1.4174 C   0  0  0  0  0  0  0  0  0  0  0  0
   -1.3519   -2.3386    0.7209 C   0  0  0  0  0  0  0  0  0  0  0  0
    2.5511    1.6014    1.2441 H   0  0  0  0  0  0  0  0  0  0  0  0
    3.4204    1.2762   -0.2893 H   0  0  0  0  0  0  0  0  0  0  0  0
    4.1990    0.8971    1.2860 H   0  0  0  0  0  0  0  0  0  0  0  0
    5.0454   -0.3889   -0.4479 H   0  0  0  0  0  0  0  0  0  0  0  0
    4.8503   -4.5733   -1.4667 H   0  0  0  0  0  0  0  0  0  0  0  0
    2.5995   -4.7081   -0.4202 H   0  0  0  0  0  0  0  0  0  0  0  0
    0.8824   -3.8561    0.7510 H   0  0  0  0  0  0  0  0  0  0  0  0
    1.4700   -1.4887    2.3680 H   0  0  0  0  0  0  0  0  0  0  0  0
    1.8056   -3.0446    2.7485 H   0  0  0  0  0  0  0  0  0  0  0  0
    0.2055   -0.9387    0.2304 H   0  0  0  0  0  0  0  0  0  0  0  0
   -0.1578   -3.3774   -1.6166 H   0  0  0  0  0  0  0  0  0  0  0  0
    0.9245   -1.9970   -1.9146 H   0  0  0  0  0  0  0  0  0  0  0  0
   -0.8371   -1.7612   -1.9036 H   0  0  0  0  0  0  0  0  0  0  0  0
   -1.6204   -3.3967    0.5539 H   0  0  0  0  0  0  0  0  0  0  0  0
   -2.1477   -1.7201    0.2752 H   0  0  0  0  0  0  0  0  0  0  0  0
   -1.3326   -2.1660    1.8053 H   0  0  0  0  0  0  0  0  0  0  0  0
  1  2  1  0
  1 16  1  0
  1 17  1  0
  1 18  1  0
  2  3  1  0
  3  4  2  0
  3 10  1  0
  4  5  1  0
  4 19  1  0
  5  6  1  0
  5  8  2  0
  6  7  3  0
  8  9  1  0
  8 20  1  0
  9 10  2  0
  9 21  1  0
 10 11  1  0
 11 12  1  0
 11 13  1  0
 11 22  1  1
 12 23  1  0
 12 24  1  0
 13 14  1  0
 13 15  1  0
 13 25  1  6
 14 26  1  0
 14 27  1  0
 14 28  1  0
 15 29  1  0
 15 30  1  0
 15 31  1  0
M  END

