
     RDKit          3D

 54 56  0  0  0  0  0  0  0  0999 V2000
    4.8820   -7.6769    2.2678 O   0  0  0  0  0  0  0  0  0  0  0  0
    5.5449   -6.8605    1.6309 C   0  0  0  0  0  0  0  0  0  0  0  0
    6.3064   -5.6815    2.2206 C   0  0  0  0  0  0  0  0  0  0  0  0
    5.5257   -4.4157    2.6425 C   0  0  2  0  0  0  0  0  0  0  0  0
    6.2470   -3.5846    2.6224 H   0  0  0  0  0  0  0  0  0  0  0  0
    4.8368   -4.4011    3.9892 C   0  0  0  0  0  0  0  0  0  0  0  0
    4.2654   -5.5524    4.5563 C   0  0  0  0  0  0  0  0  0  0  0  0
    3.6283   -5.4801    5.7991 C   0  0  0  0  0  0  0  0  0  0  0  0
    3.5481   -4.2663    6.4867 C   0  0  0  0  0  0  0  0  0  0  0  0
    4.1141   -3.1159    5.9276 C   0  0  0  0  0  0  0  0  0  0  0  0
    4.7546   -3.1835    4.6892 C   0  0  0  0  0  0  0  0  0  0  0  0
    4.3874   -3.8098    1.2927 S   0  0  1  0  0  0  0  0  0  0  0  0
    4.1707   -2.3846    1.5715 O   0  0  0  0  0  0  0  0  0  0  0  0
    4.9890   -4.2219    0.0068 O   0  0  0  0  0  0  0  0  0  0  0  0
    2.9389   -4.6344    1.4755 N   0  0  0  0  0  0  0  0  0  0  0  0
    1.8564   -3.9604    2.2190 C   0  0  0  0  0  0  0  0  0  0  0  0
    0.9553   -3.1534    1.2786 C   0  0  0  0  0  0  0  0  0  0  0  0
    0.4224   -4.0116    0.1292 C   0  0  2  0  0  0  0  0  0  0  0  0
   -0.4845   -4.9545    0.7346 O   0  0  0  0  0  0  0  0  0  0  0  0
   -1.4766   -5.5481    0.0607 C   0  0  0  0  0  0  0  0  0  0  0  0
   -1.7638   -5.3245   -1.3003 C   0  0  0  0  0  0  0  0  0  0  0  0
   -2.8075   -5.9889   -1.9422 C   0  0  0  0  0  0  0  0  0  0  0  0
   -3.5874   -6.9167   -1.2455 C   0  0  0  0  0  0  0  0  0  0  0  0
   -4.8875   -7.7532   -2.0553 Cl  0  0  0  0  0  0  0  0  0  0  0  0
   -3.3197   -7.1761    0.0957 C   0  0  0  0  0  0  0  0  0  0  0  0
   -2.2900   -6.4897    0.7408 C   0  0  0  0  0  0  0  0  0  0  0  0
   -2.0898   -6.7969    2.1702 N   0  0  0  0  0  0  0  0  0  0  0  0
   -1.6642   -5.9164    2.8969 O   0  0  0  0  0  0  0  0  0  0  0  0
   -2.3951   -7.9218    2.5384 O   0  0  0  0  0  0  0  0  0  0  0  0
    1.5581   -4.7523   -0.5900 C   0  0  0  0  0  0  0  0  0  0  0  0
    2.4498   -5.5107    0.4002 C   0  0  0  0  0  0  0  0  0  0  0  0
    5.7027   -7.0146    0.2890 N   0  0  0  0  0  0  0  0  0  0  0  0
    4.8819   -7.9642   -0.3066 O   0  0  0  0  0  0  0  0  0  0  0  0
    7.0737   -5.3791    1.4949 H   0  0  0  0  0  0  0  0  0  0  0  0
    6.8315   -6.0551    3.1133 H   0  0  0  0  0  0  0  0  0  0  0  0
    4.3208   -6.5061    4.0277 H   0  0  0  0  0  0  0  0  0  0  0  0
    3.1901   -6.3837    6.2304 H   0  0  0  0  0  0  0  0  0  0  0  0
    3.0485   -4.2162    7.4575 H   0  0  0  0  0  0  0  0  0  0  0  0
    4.0609   -2.1624    6.4592 H   0  0  0  0  0  0  0  0  0  0  0  0
    5.1865   -2.2801    4.2516 H   0  0  0  0  0  0  0  0  0  0  0  0
    2.2891   -3.3135    2.9901 H   0  0  0  0  0  0  0  0  0  0  0  0
    1.2744   -4.7443    2.7283 H   0  0  0  0  0  0  0  0  0  0  0  0
    1.5338   -2.3156    0.8585 H   0  0  0  0  0  0  0  0  0  0  0  0
    0.1059   -2.7337    1.8397 H   0  0  0  0  0  0  0  0  0  0  0  0
   -0.1368   -3.3736   -0.5747 H   0  0  0  0  0  0  0  0  0  0  0  0
   -1.1610   -4.6226   -1.8752 H   0  0  0  0  0  0  0  0  0  0  0  0
   -3.0131   -5.7915   -2.9956 H   0  0  0  0  0  0  0  0  0  0  0  0
   -3.8963   -7.9074    0.6601 H   0  0  0  0  0  0  0  0  0  0  0  0
    2.1696   -4.0156   -1.1372 H   0  0  0  0  0  0  0  0  0  0  0  0
    1.1511   -5.4536   -1.3364 H   0  0  0  0  0  0  0  0  0  0  0  0
    3.2881   -5.9851   -0.1190 H   0  0  0  0  0  0  0  0  0  0  0  0
    1.8797   -6.3177    0.8881 H   0  0  0  0  0  0  0  0  0  0  0  0
    5.7911   -6.1747   -0.2853 H   0  0  0  0  0  0  0  0  0  0  0  0
    4.4821   -8.3946    0.4826 H   0  0  0  0  0  0  0  0  0  0  0  0
  1  2  2  0
  2  3  1  0
  2 32  1  0
  3  4  1  0
  3 34  1  0
  3 35  1  0
  4  5  1  1
  4  6  1  0
  4 12  1  0
  6  7  2  0
  6 11  1  0
  7  8  1  0
  7 36  1  0
  8  9  2  0
  8 37  1  0
  9 10  1  0
  9 38  1  0
 10 11  2  0
 10 39  1  0
 11 40  1  0
 12 13  2  0
 12 14  2  0
 12 15  1  1
 15 16  1  0
 15 31  1  0
 16 17  1  0
 16 41  1  0
 16 42  1  0
 17 18  1  0
 17 43  1  0
 17 44  1  0
 18 19  1  0
 18 30  1  0
 18 45  1  6
 19 20  1  0
 20 21  2  0
 20 26  1  0
 21 22  1  0
 21 46  1  0
 22 23  2  0
 22 47  1  0
 23 24  1  0
 23 25  1  0
 25 26  2  0
 25 48  1  0
 26 27  1  0
 27 28  1  0
 27 29  1  0
 30 31  1  0
 30 49  1  0
 30 50  1  0
 31 51  1  0
 31 52  1  0
 32 33  2  0
 32 53  1  0
 33 54  1  0
M  CHG  4  28  -1  29  -1  32   1  33   1
M  END

