
     RDKit          3D

 68 71  0  0  0  0  0  0  0  0999 V2000
   -1.2711    3.1122   -0.5796 C   0  0  0  0  0  0  0  0  0  0  0  0
   -0.0422    3.2601   -0.0590 C   0  0  0  0  0  0  0  0  0  0  0  0
    1.2600    3.1214   -0.7076 C   0  0  0  0  0  0  0  0  0  0  0  0
    2.4726    2.8218   -0.0646 C   0  0  0  0  0  0  0  0  0  0  0  0
    2.7172    2.6685    1.3920 C   0  0  0  0  0  0  0  0  0  0  0  0
    2.8824    1.4752    1.9981 C   0  0  0  0  0  0  0  0  0  0  0  0
    2.8182    0.1226    1.3694 C   0  0  0  0  0  0  0  0  0  0  0  0
    2.8278    3.8938    2.2782 C   0  0  0  0  0  0  0  0  0  0  0  0
    2.9653    3.8161    3.4935 O   0  0  0  0  0  0  0  0  0  0  0  0
    2.7758    5.0920    1.6256 N   0  0  0  0  0  0  0  0  0  0  0  0
    2.8521    6.3647    2.3262 C   0  0  0  0  0  0  0  0  0  0  0  0
    1.4988    6.9894    2.6171 C   0  0  0  0  0  0  0  0  0  0  0  0
    0.6468    6.4149    3.5752 C   0  0  0  0  0  0  0  0  0  0  0  0
   -0.6036    6.9747    3.8368 C   0  0  0  0  0  0  0  0  0  0  0  0
   -1.0440    8.1185    3.1484 C   0  0  0  0  0  0  0  0  0  0  0  0
   -2.3819    8.7286    3.4504 C   0  0  0  0  0  0  0  0  0  0  0  0
   -2.2006   10.3513    4.3645 S   0  0  0  0  0  0  0  0  0  0  0  0
   -1.5796   11.2830    3.3537 O   0  0  0  0  0  0  0  0  0  0  0  0
   -3.8897   10.6749    4.5343 N   0  0  0  0  0  0  0  0  0  0  0  0
   -4.2804   11.2923    5.8082 C   0  0  0  0  0  0  0  0  0  0  0  0
   -4.2789   12.8199    5.7341 C   0  0  0  0  0  0  0  0  0  0  0  0
   -5.0634   13.2694    4.6485 O   0  0  0  0  0  0  0  0  0  0  0  0
   -4.5729   12.7813    3.4117 C   0  0  0  0  0  0  0  0  0  0  0  0
   -4.5869   11.2507    3.3765 C   0  0  0  0  0  0  0  0  0  0  0  0
   -0.1890    8.6964    2.1960 C   0  0  0  0  0  0  0  0  0  0  0  0
    1.0640    8.1359    1.9382 C   0  0  0  0  0  0  0  0  0  0  0  0
    3.4006    2.6597   -1.1247 C   0  0  0  0  0  0  0  0  0  0  0  0
    2.8392    2.8535   -2.3089 N   0  0  0  0  0  0  0  0  0  0  0  0
    1.5450    3.1378   -2.0575 N   0  0  0  0  0  0  0  0  0  0  0  0
    0.7108    3.4863   -3.1636 C   0  0  0  0  0  0  0  0  0  0  0  0
    0.6522    2.6356   -4.2708 C   0  0  0  0  0  0  0  0  0  0  0  0
   -0.1289    2.9859   -5.3743 C   0  0  0  0  0  0  0  0  0  0  0  0
   -0.8662    4.1791   -5.3983 C   0  0  0  0  0  0  0  0  0  0  0  0
   -1.7203    4.5548   -6.5843 C   0  0  0  0  0  0  0  0  0  0  0  0
   -0.7843    5.0241   -4.2777 C   0  0  0  0  0  0  0  0  0  0  0  0
   -0.0001    4.6927   -3.1739 C   0  0  0  0  0  0  0  0  0  0  0  0
   -2.1500    3.2167    0.0612 H   0  0  0  0  0  0  0  0  0  0  0  0
   -1.4497    2.8778   -1.6303 H   0  0  0  0  0  0  0  0  0  0  0  0
    0.0430    3.4639    1.0132 H   0  0  0  0  0  0  0  0  0  0  0  0
    3.0787    1.5216    3.0756 H   0  0  0  0  0  0  0  0  0  0  0  0
    2.5837    0.1603    0.2964 H   0  0  0  0  0  0  0  0  0  0  0  0
    2.0569   -0.4979    1.8745 H   0  0  0  0  0  0  0  0  0  0  0  0
    3.7769   -0.4105    1.4991 H   0  0  0  0  0  0  0  0  0  0  0  0
    2.6104    5.0877    0.6258 H   0  0  0  0  0  0  0  0  0  0  0  0
    3.4640    7.0604    1.7305 H   0  0  0  0  0  0  0  0  0  0  0  0
    3.3812    6.1675    3.2698 H   0  0  0  0  0  0  0  0  0  0  0  0
    0.9783    5.5249    4.1165 H   0  0  0  0  0  0  0  0  0  0  0  0
   -1.2517    6.5155    4.5893 H   0  0  0  0  0  0  0  0  0  0  0  0
   -3.0007    8.0936    4.0994 H   0  0  0  0  0  0  0  0  0  0  0  0
   -2.9449    8.9811    2.5390 H   0  0  0  0  0  0  0  0  0  0  0  0
   -3.6056   10.9362    6.6029 H   0  0  0  0  0  0  0  0  0  0  0  0
   -5.2988   10.9410    6.0547 H   0  0  0  0  0  0  0  0  0  0  0  0
   -3.2354   13.1864    5.6357 H   0  0  0  0  0  0  0  0  0  0  0  0
   -4.7110   13.2542    6.6497 H   0  0  0  0  0  0  0  0  0  0  0  0
   -3.5379   13.1326    3.2386 H   0  0  0  0  0  0  0  0  0  0  0  0
   -5.2240   13.1922    2.6243 H   0  0  0  0  0  0  0  0  0  0  0  0
   -4.1133   10.8998    2.4476 H   0  0  0  0  0  0  0  0  0  0  0  0
   -5.6295   10.8844    3.3886 H   0  0  0  0  0  0  0  0  0  0  0  0
   -0.5029    9.6041    1.6771 H   0  0  0  0  0  0  0  0  0  0  0  0
    1.7179    8.6046    1.1964 H   0  0  0  0  0  0  0  0  0  0  0  0
    4.4607    2.4156   -1.0531 H   0  0  0  0  0  0  0  0  0  0  0  0
    1.2301    1.7104   -4.2629 H   0  0  0  0  0  0  0  0  0  0  0  0
   -0.1653    2.3133   -6.2357 H   0  0  0  0  0  0  0  0  0  0  0  0
   -1.6165    3.8293   -7.4043 H   0  0  0  0  0  0  0  0  0  0  0  0
   -1.4472    5.5488   -6.9756 H   0  0  0  0  0  0  0  0  0  0  0  0
   -2.7878    4.6005   -6.3098 H   0  0  0  0  0  0  0  0  0  0  0  0
   -1.3351    5.9691   -4.2741 H   0  0  0  0  0  0  0  0  0  0  0  0
    0.0625    5.3682   -2.3191 H   0  0  0  0  0  0  0  0  0  0  0  0
  1  2  2  0
  1 37  1  0
  1 38  1  0
  2  3  1  0
  2 39  1  0
  3  4  2  0
  3 29  1  0
  4  5  1  0
  4 27  1  0
  5  6  2  0
  5  8  1  0
  6  7  1  0
  6 40  1  0
  7 41  1  0
  7 42  1  0
  7 43  1  0
  8  9  2  0
  8 10  1  0
 10 11  1  0
 10 44  1  0
 11 12  1  0
 11 45  1  0
 11 46  1  0
 12 13  2  0
 12 26  1  0
 13 14  1  0
 13 47  1  0
 14 15  2  0
 14 48  1  0
 15 16  1  0
 15 25  1  0
 16 17  1  0
 16 49  1  0
 16 50  1  0
 17 18  1  6
 17 19  1  0
 19 20  1  0
 19 24  1  0
 20 21  1  0
 20 51  1  0
 20 52  1  0
 21 22  1  0
 21 53  1  0
 21 54  1  0
 22 23  1  0
 23 24  1  0
 23 55  1  0
 23 56  1  0
 24 57  1  0
 24 58  1  0
 25 26  2  0
 25 59  1  0
 26 60  1  0
 27 28  2  0
 27 61  1  0
 28 29  1  0
 29 30  1  0
 30 31  2  0
 30 36  1  0
 31 32  1  0
 31 62  1  0
 32 33  2  0
 32 63  1  0
 33 34  1  0
 33 35  1  0
 34 64  1  0
 34 65  1  0
 34 66  1  0
 35 36  2  0
 35 67  1  0
 36 68  1  0
M  CHG  2  17   1  18  -1
M  END

