
     RDKit          3D

 38 39  0  0  0  0  0  0  0  0999 V2000
    1.1185    2.1646    0.5012 C   0  0  0  0  0  0  0  0  0  0  0  0
    2.6282    1.9939    0.6731 C   0  0  0  0  0  0  0  0  0  0  0  0
    3.0488    0.5554    0.9867 C   0  0  0  0  0  0  0  0  0  0  0  0
    4.5584    0.3751    1.1896 C   0  0  0  0  0  0  0  0  0  0  0  0
    5.1046    1.1261    2.3256 N   0  0  0  0  0  0  0  0  0  0  0  0
    4.8095    0.4846    3.6062 C   0  0  0  0  0  0  0  0  0  0  0  0
    4.9394    1.3915    4.8334 C   0  0  0  0  0  0  0  0  0  0  0  0
    4.5026    0.6994    6.1166 C   0  0  1  0  0  0  0  0  0  0  0  0
    4.4402    1.5179    7.4316 C   0  0  0  0  0  0  0  0  0  0  0  0
    3.1851    0.8240    7.7710 N   0  0  0  0  0  0  0  0  0  0  0  0
    2.9966    0.4145    6.3683 C   0  0  0  0  0  0  0  0  0  0  0  0
    6.4978    1.4445    2.1647 C   0  0  1  0  0  0  0  0  0  0  0  0
    6.8944    2.4998    1.1668 C   0  0  0  0  0  0  0  0  0  0  0  0
    7.0303    2.7738    2.6419 C   0  0  0  0  0  0  0  0  0  0  0  0
    0.8521    3.2095    0.2743 H   0  0  0  0  0  0  0  0  0  0  0  0
    0.5754    1.8759    1.4172 H   0  0  0  0  0  0  0  0  0  0  0  0
    0.7310    1.5376   -0.3198 H   0  0  0  0  0  0  0  0  0  0  0  0
    2.9948    2.6516    1.4786 H   0  0  0  0  0  0  0  0  0  0  0  0
    3.1446    2.3272   -0.2462 H   0  0  0  0  0  0  0  0  0  0  0  0
    2.7376   -0.1119    0.1623 H   0  0  0  0  0  0  0  0  0  0  0  0
    2.4987    0.1976    1.8757 H   0  0  0  0  0  0  0  0  0  0  0  0
    5.0746    0.7262    0.2826 H   0  0  0  0  0  0  0  0  0  0  0  0
    4.7919   -0.7102    1.2765 H   0  0  0  0  0  0  0  0  0  0  0  0
    5.4484   -0.4186    3.7517 H   0  0  0  0  0  0  0  0  0  0  0  0
    3.7732    0.1136    3.5647 H   0  0  0  0  0  0  0  0  0  0  0  0
    4.3326    2.2996    4.6707 H   0  0  0  0  0  0  0  0  0  0  0  0
    5.9829    1.7281    4.9478 H   0  0  0  0  0  0  0  0  0  0  0  0
    5.0908   -0.2203    6.2720 H   0  0  0  0  0  0  0  0  0  0  0  0
    4.3308    2.6032    7.2276 H   0  0  0  0  0  0  0  0  0  0  0  0
    5.2611    1.3854    8.1586 H   0  0  0  0  0  0  0  0  0  0  0  0
    2.4471    1.3948    8.1800 H   0  0  0  0  0  0  0  0  0  0  0  0
    2.3521    1.0915    5.7692 H   0  0  0  0  0  0  0  0  0  0  0  0
    2.6337   -0.6192    6.2280 H   0  0  0  0  0  0  0  0  0  0  0  0
    7.1956    0.5912    2.2588 H   0  0  0  0  0  0  0  0  0  0  0  0
    6.0853    3.0106    0.6378 H   0  0  0  0  0  0  0  0  0  0  0  0
    7.7975    2.3367    0.5722 H   0  0  0  0  0  0  0  0  0  0  0  0
    6.3098    3.4644    3.0855 H   0  0  0  0  0  0  0  0  0  0  0  0
    8.0300    2.8036    3.0852 H   0  0  0  0  0  0  0  0  0  0  0  0
  1  2  1  0
  1 15  1  0
  1 16  1  0
  1 17  1  0
  2  3  1  0
  2 18  1  0
  2 19  1  0
  3  4  1  0
  3 20  1  0
  3 21  1  0
  4  5  1  0
  4 22  1  0
  4 23  1  0
  5  6  1  0
  5 12  1  0
  6  7  1  0
  6 24  1  0
  6 25  1  0
  7  8  1  0
  7 26  1  0
  7 27  1  0
  8  9  1  0
  8 11  1  0
  8 28  1  1
  9 10  1  0
  9 29  1  0
  9 30  1  0
 10 11  1  0
 10 31  1  0
 11 32  1  0
 11 33  1  0
 12 13  1  0
 12 14  1  0
 12 34  1  6
 13 14  1  0
 13 35  1  0
 13 36  1  0
 14 37  1  0
 14 38  1  0
M  END

