
     RDKit          3D

 27 27  0  0  0  0  0  0  0  0999 V2000
    1.1246   -0.6202    0.2279 C   0  0  0  0  0  0  0  0  0  0  0  0
    2.4595   -0.1623    0.0106 O   0  0  0  0  0  0  0  0  0  0  0  0
    3.0062    0.5746    0.9985 C   0  0  0  0  0  0  0  0  0  0  0  0
    2.4205    0.8533    2.0148 O   0  0  0  0  0  0  0  0  0  0  0  0
    4.4259    0.9766    0.6364 C   0  0  0  0  0  0  0  0  0  0  0  0
    5.1097    1.9034    1.6306 C   0  0  1  0  0  0  0  0  0  0  0  0
    5.3881    1.2206    2.9708 C   0  0  0  0  0  0  0  0  0  0  0  0
    6.4076    2.1678    4.1571 S   0  0  0  0  0  0  0  0  0  0  0  0
    5.2643    2.3323    5.5455 C   0  0  0  0  0  0  0  0  0  0  0  0
    5.8603    3.1236    6.6921 C   0  0  0  0  0  0  0  0  0  0  0  0
    4.1566    1.8625    5.5643 O   0  0  0  0  0  0  0  0  0  0  0  0
    6.0851    2.9044    1.0500 C   0  0  0  0  0  0  0  0  0  0  0  0
    4.7490    3.3648    1.5778 C   0  0  0  0  0  0  0  0  0  0  0  0
    0.8514   -1.2020   -0.6611 H   0  0  0  0  0  0  0  0  0  0  0  0
    0.4345    0.2277    0.3553 H   0  0  0  0  0  0  0  0  0  0  0  0
    1.0675   -1.2500    1.1288 H   0  0  0  0  0  0  0  0  0  0  0  0
    4.3860    1.4371   -0.3642 H   0  0  0  0  0  0  0  0  0  0  0  0
    5.0068    0.0461    0.4998 H   0  0  0  0  0  0  0  0  0  0  0  0
    5.9144    0.2679    2.7974 H   0  0  0  0  0  0  0  0  0  0  0  0
    4.4428    1.0109    3.4955 H   0  0  0  0  0  0  0  0  0  0  0  0
    6.9100    3.3990    6.5217 H   0  0  0  0  0  0  0  0  0  0  0  0
    5.7756    2.5273    7.6138 H   0  0  0  0  0  0  0  0  0  0  0  0
    5.2615    4.0374    6.8337 H   0  0  0  0  0  0  0  0  0  0  0  0
    6.2487    2.8940   -0.0319 H   0  0  0  0  0  0  0  0  0  0  0  0
    6.9740    3.1572    1.6348 H   0  0  0  0  0  0  0  0  0  0  0  0
    3.9797    3.6786    0.8664 H   0  0  0  0  0  0  0  0  0  0  0  0
    4.7420    3.9175    2.5210 H   0  0  0  0  0  0  0  0  0  0  0  0
  1  2  1  0
  1 14  1  0
  1 15  1  0
  1 16  1  0
  2  3  1  0
  3  4  2  0
  3  5  1  0
  6  5  1  6
  5 17  1  0
  5 18  1  0
  6  7  1  0
  6 12  1  0
  6 13  1  0
  7  8  1  0
  7 19  1  0
  7 20  1  0
  8  9  2  0
  9 10  1  0
  9 11  1  0
 10 21  1  0
 10 22  1  0
 10 23  1  0
 12 13  1  0
 12 24  1  0
 12 25  1  0
 13 26  1  0
 13 27  1  0
M  CHG  2   8   1  11  -1
M  END

