
     RDKit          3D

 29 30  0  0  0  0  0  0  0  0999 V2000
    0.2892   -0.2527   -2.4740 C   0  0  0  0  0  0  0  0  0  0  0  0
    0.9653    0.0028   -1.1275 C   0  0  0  0  0  0  0  0  0  0  0  0
    2.1537    0.8441   -1.2383 N   0  0  0  0  0  0  0  0  0  0  0  0
    2.0305    2.1310   -0.8657 N   0  0  0  0  0  0  0  0  0  0  0  0
    3.1691    2.7216   -1.0467 N   0  0  0  0  0  0  0  0  0  0  0  0
    4.0529    1.8184   -1.5323 C   0  0  0  0  0  0  0  0  0  0  0  0
    3.4312    0.5816   -1.6620 C   0  0  0  0  0  0  0  0  0  0  0  0
    3.9848   -0.6881   -2.2900 C   0  0  1  0  0  0  0  0  0  0  0  0
    3.6794   -0.7081   -3.6877 O   0  0  0  0  0  0  0  0  0  0  0  0
    5.5101   -0.7730   -2.0496 C   0  0  0  0  0  0  0  0  0  0  0  0
    5.8234   -1.0761   -0.5755 C   0  0  0  0  0  0  0  0  0  0  0  0
    5.0241   -2.2835   -0.0813 C   0  0  0  0  0  0  0  0  0  0  0  0
    3.6390   -2.1642   -0.3747 O   0  0  0  0  0  0  0  0  0  0  0  0
    3.4008   -2.0077   -1.7524 C   0  0  0  0  0  0  0  0  0  0  0  0
   -0.5732   -0.9253   -2.3432 H   0  0  0  0  0  0  0  0  0  0  0  0
    0.9850   -0.7055   -3.1971 H   0  0  0  0  0  0  0  0  0  0  0  0
   -0.0754    0.6941   -2.9024 H   0  0  0  0  0  0  0  0  0  0  0  0
    1.2458   -0.9272   -0.6128 H   0  0  0  0  0  0  0  0  0  0  0  0
    0.2937    0.5538   -0.4548 H   0  0  0  0  0  0  0  0  0  0  0  0
    5.0825    2.0964   -1.7482 H   0  0  0  0  0  0  0  0  0  0  0  0
    3.8829    0.1651   -4.0495 H   0  0  0  0  0  0  0  0  0  0  0  0
    6.0192    0.1450   -2.3850 H   0  0  0  0  0  0  0  0  0  0  0  0
    5.8791   -1.5867   -2.6966 H   0  0  0  0  0  0  0  0  0  0  0  0
    5.5747   -0.1999    0.0453 H   0  0  0  0  0  0  0  0  0  0  0  0
    6.9016   -1.2700   -0.4443 H   0  0  0  0  0  0  0  0  0  0  0  0
    5.1020   -2.3926    1.0111 H   0  0  0  0  0  0  0  0  0  0  0  0
    5.4176   -3.2136   -0.5441 H   0  0  0  0  0  0  0  0  0  0  0  0
    2.3208   -2.0771   -1.9202 H   0  0  0  0  0  0  0  0  0  0  0  0
    3.8691   -2.8241   -2.3375 H   0  0  0  0  0  0  0  0  0  0  0  0
  1  2  1  0
  1 15  1  0
  1 16  1  0
  1 17  1  0
  2  3  1  0
  2 18  1  0
  2 19  1  0
  3  4  1  0
  3  7  1  0
  4  5  2  0
  5  6  1  0
  6  7  2  0
  6 20  1  0
  7  8  1  0
  8  9  1  6
  8 10  1  0
  8 14  1  0
  9 21  1  0
 10 11  1  0
 10 22  1  0
 10 23  1  0
 11 12  1  0
 11 24  1  0
 11 25  1  0
 12 13  1  0
 12 26  1  0
 12 27  1  0
 13 14  1  0
 14 28  1  0
 14 29  1  0
M  END

