
     RDKit          3D

 43 44  0  0  0  0  0  0  0  0999 V2000
    1.6748   -1.5138    1.5779 C   0  0  0  0  0  0  0  0  0  0  0  0
    2.4080   -0.5663    0.9891 C   0  0  0  0  0  0  0  0  0  0  0  0
    2.9950   -0.6956   -0.3920 C   0  0  0  0  0  0  0  0  0  0  0  0
    4.4744   -0.7676   -0.3763 N   0  0  0  0  0  0  0  0  0  0  0  0
    5.1740    0.4359   -0.3408 C   0  0  0  0  0  0  0  0  0  0  0  0
    4.6181    1.5105   -0.3457 O   0  0  0  0  0  0  0  0  0  0  0  0
    6.5689    0.3154   -0.2983 N   0  0  0  0  0  0  0  0  0  0  0  0
    7.3640    1.5497   -0.3283 C   0  0  0  0  0  0  0  0  0  0  0  0
    7.7651    2.0028   -1.7081 C   0  0  0  0  0  0  0  0  0  0  0  0
    7.4706    1.4088   -2.8647 C   0  0  0  0  0  0  0  0  0  0  0  0
    7.2470   -0.8933   -0.2335 C   0  0  0  0  0  0  0  0  0  0  0  0
    8.4613   -0.9551   -0.1564 O   0  0  0  0  0  0  0  0  0  0  0  0
    6.4587   -2.0377   -0.2605 N   0  0  0  0  0  0  0  0  0  0  0  0
    7.1392   -3.3385   -0.1544 C   0  0  0  0  0  0  0  0  0  0  0  0
    7.7003   -3.8722   -1.4890 C   0  0  0  0  0  0  0  0  0  0  0  0
    7.2039   -4.8431   -2.0288 O   0  0  0  0  0  0  0  0  0  0  0  0
    8.7869   -3.1812   -1.9601 N   0  0  0  0  0  0  0  0  0  0  0  0
    9.5139   -3.4325   -3.1357 C   0  0  0  0  0  0  0  0  0  0  0  0
    9.2326   -4.4528   -4.0611 C   0  0  0  0  0  0  0  0  0  0  0  0
   10.0228   -4.6170   -5.2024 C   0  0  0  0  0  0  0  0  0  0  0  0
   11.0986   -3.7639   -5.4257 C   0  0  0  0  0  0  0  0  0  0  0  0
   11.8569   -3.9205   -6.5198 F   0  0  0  0  0  0  0  0  0  0  0  0
   11.4116   -2.7412   -4.5312 C   0  0  0  0  0  0  0  0  0  0  0  0
   10.6137   -2.5965   -3.4055 C   0  0  0  0  0  0  0  0  0  0  0  0
   10.8938   -1.6193   -2.5239 F   0  0  0  0  0  0  0  0  0  0  0  0
    5.0545   -2.0338   -0.3102 C   0  0  0  0  0  0  0  0  0  0  0  0
    4.4038   -3.0509   -0.2941 O   0  0  0  0  0  0  0  0  0  0  0  0
    1.2567   -1.3713    2.5784 H   0  0  0  0  0  0  0  0  0  0  0  0
    1.4660   -2.4668    1.0814 H   0  0  0  0  0  0  0  0  0  0  0  0
    2.6116    0.3783    1.5066 H   0  0  0  0  0  0  0  0  0  0  0  0
    2.7361    0.1802   -1.0020 H   0  0  0  0  0  0  0  0  0  0  0  0
    2.6389   -1.6072   -0.8852 H   0  0  0  0  0  0  0  0  0  0  0  0
    8.2629    1.3755    0.2806 H   0  0  0  0  0  0  0  0  0  0  0  0
    6.7627    2.3309    0.1585 H   0  0  0  0  0  0  0  0  0  0  0  0
    8.3615    2.9231   -1.7107 H   0  0  0  0  0  0  0  0  0  0  0  0
    6.8795    0.4895   -2.9151 H   0  0  0  0  0  0  0  0  0  0  0  0
    7.8135    1.8232   -3.8157 H   0  0  0  0  0  0  0  0  0  0  0  0
    6.3954   -4.0668    0.1805 H   0  0  0  0  0  0  0  0  0  0  0  0
    7.9448   -3.2384    0.5862 H   0  0  0  0  0  0  0  0  0  0  0  0
    9.0963   -2.3828   -1.4029 H   0  0  0  0  0  0  0  0  0  0  0  0
    8.3892   -5.1114   -3.8683 H   0  0  0  0  0  0  0  0  0  0  0  0
    9.8076   -5.4080   -5.9228 H   0  0  0  0  0  0  0  0  0  0  0  0
   12.2554   -2.0723   -4.7028 H   0  0  0  0  0  0  0  0  0  0  0  0
  1  2  2  0
  1 28  1  0
  1 29  1  0
  2  3  1  0
  2 30  1  0
  3  4  1  0
  3 31  1  0
  3 32  1  0
  4  5  1  0
  4 26  1  0
  5  6  2  0
  5  7  1  0
  7  8  1  0
  7 11  1  0
  8  9  1  0
  8 33  1  0
  8 34  1  0
  9 10  2  0
  9 35  1  0
 10 36  1  0
 10 37  1  0
 11 12  2  0
 11 13  1  0
 13 14  1  0
 13 26  1  0
 14 15  1  0
 14 38  1  0
 14 39  1  0
 15 16  2  0
 15 17  1  0
 17 18  1  0
 17 40  1  0
 18 19  2  0
 18 24  1  0
 19 20  1  0
 19 41  1  0
 20 21  2  0
 20 42  1  0
 21 22  1  0
 21 23  1  0
 23 24  2  0
 23 43  1  0
 24 25  1  0
 26 27  2  0
M  END

