
     RDKit          3D

 30 30  0  0  0  0  0  0  0  0999 V2000
    0.8734   -0.1935   -0.0193 C   0  0  0  0  0  0  0  0  0  0  0  0
    2.3685    0.1667   -0.0164 C   0  0  0  0  0  0  0  0  0  0  0  0
    2.9006    0.5344    1.3567 C   0  0  0  0  0  0  0  0  0  0  0  0
    2.8586    1.8806    1.7482 C   0  0  0  0  0  0  0  0  0  0  0  0
    3.2947    2.3023    3.0074 C   0  0  0  0  0  0  0  0  0  0  0  0
    3.2464    3.7546    3.4188 C   0  0  0  0  0  0  0  0  0  0  0  0
    3.7870    1.3246    3.8800 C   0  0  0  0  0  0  0  0  0  0  0  0
    3.8508   -0.0313    3.5296 C   0  0  0  0  0  0  0  0  0  0  0  0
    4.3767   -1.0107    4.5650 C   0  0  0  0  0  0  0  0  0  0  0  0
    3.2716   -1.7239    5.3598 C   0  0  0  0  0  0  0  0  0  0  0  0
    3.3987   -0.4415    2.2512 C   0  0  0  0  0  0  0  0  0  0  0  0
    3.4587   -1.8914    1.8152 C   0  0  0  0  0  0  0  0  0  0  0  0
    0.5286   -0.4486   -1.0348 H   0  0  0  0  0  0  0  0  0  0  0  0
    0.2653    0.6505    0.3433 H   0  0  0  0  0  0  0  0  0  0  0  0
    0.6603   -1.0544    0.6342 H   0  0  0  0  0  0  0  0  0  0  0  0
    2.5261    1.0202   -0.6967 H   0  0  0  0  0  0  0  0  0  0  0  0
    2.9446   -0.6691   -0.4439 H   0  0  0  0  0  0  0  0  0  0  0  0
    2.4763    2.6229    1.0398 H   0  0  0  0  0  0  0  0  0  0  0  0
    2.8761    4.3942    2.6037 H   0  0  0  0  0  0  0  0  0  0  0  0
    4.2441    4.1243    3.7094 H   0  0  0  0  0  0  0  0  0  0  0  0
    2.5842    3.9040    4.2885 H   0  0  0  0  0  0  0  0  0  0  0  0
    4.1438    1.6270    4.8702 H   0  0  0  0  0  0  0  0  0  0  0  0
    5.0206   -0.4602    5.2702 H   0  0  0  0  0  0  0  0  0  0  0  0
    5.0305   -1.7611    4.0913 H   0  0  0  0  0  0  0  0  0  0  0  0
    2.6349   -0.9954    5.8868 H   0  0  0  0  0  0  0  0  0  0  0  0
    3.7006   -2.4065    6.1118 H   0  0  0  0  0  0  0  0  0  0  0  0
    2.6156   -2.3165    4.7023 H   0  0  0  0  0  0  0  0  0  0  0  0
    3.8507   -2.5520    2.5973 H   0  0  0  0  0  0  0  0  0  0  0  0
    4.1048   -2.0180    0.9298 H   0  0  0  0  0  0  0  0  0  0  0  0
    2.4647   -2.2763    1.5354 H   0  0  0  0  0  0  0  0  0  0  0  0
  1  2  1  0
  1 13  1  0
  1 14  1  0
  1 15  1  0
  2  3  1  0
  2 16  1  0
  2 17  1  0
  3  4  2  0
  3 11  1  0
  4  5  1  0
  4 18  1  0
  5  6  1  0
  5  7  2  0
  6 19  1  0
  6 20  1  0
  6 21  1  0
  7  8  1  0
  7 22  1  0
  8  9  1  0
  8 11  2  0
  9 10  1  0
  9 23  1  0
  9 24  1  0
 10 25  1  0
 10 26  1  0
 10 27  1  0
 11 12  1  0
 12 28  1  0
 12 29  1  0
 12 30  1  0
M  END

