
     RDKit          3D

 52 54  0  0  0  0  0  0  0  0999 V2000
    1.6054    0.9587   -2.8991 C   0  0  0  0  0  0  0  0  0  0  0  0
    2.8178    0.4932   -2.0930 C   0  0  0  0  0  0  0  0  0  0  0  0
    3.2917    1.4185   -0.9902 C   0  0  0  0  0  0  0  0  0  0  0  0
    2.4980    2.4800   -0.5302 C   0  0  0  0  0  0  0  0  0  0  0  0
    2.9514    3.3548    0.4571 C   0  0  0  0  0  0  0  0  0  0  0  0
    4.2209    3.1872    1.0084 C   0  0  0  0  0  0  0  0  0  0  0  0
    5.0455    2.1346    0.5935 C   0  0  0  0  0  0  0  0  0  0  0  0
    6.4138    1.9464    1.2037 C   0  0  0  0  0  0  0  0  0  0  0  0
    4.5670    1.2527   -0.4012 C   0  0  0  0  0  0  0  0  0  0  0  0
    5.4392    0.2066   -0.8297 N   0  0  0  0  0  0  0  0  0  0  0  0
    5.1899   -1.1412   -0.7110 C   0  0  0  0  0  0  0  0  0  0  0  0
    4.1412   -1.5908   -0.2737 O   0  0  0  0  0  0  0  0  0  0  0  0
    6.3117   -2.0354   -1.1443 C   0  0  0  0  0  0  0  0  0  0  0  0
    7.2550   -1.8387   -2.0908 C   0  0  0  0  0  0  0  0  0  0  0  0
    7.5266   -0.7296   -3.0550 C   0  0  0  0  0  0  0  0  0  0  0  0
    8.1500   -3.0376   -2.0923 C   0  0  0  0  0  0  0  0  0  0  0  0
    9.1111   -3.2393   -2.7856 O   0  0  0  0  0  0  0  0  0  0  0  0
    7.7037   -3.9021   -1.1504 O   0  0  0  0  0  0  0  0  0  0  0  0
    6.4994   -3.4073   -0.5130 C   0  0  2  0  0  0  0  0  0  0  0  0
    5.3582   -4.3926   -0.8374 C   0  0  0  0  0  0  0  0  0  0  0  0
    5.6007   -5.7733   -0.2175 C   0  0  0  0  0  0  0  0  0  0  0  0
    5.8260   -5.7037    1.3021 C   0  0  1  0  0  0  0  0  0  0  0  0
    6.0736   -7.0877    1.9063 C   0  0  0  0  0  0  0  0  0  0  0  0
    6.9750   -4.7307    1.6147 C   0  0  0  0  0  0  0  0  0  0  0  0
    6.7487   -3.3426    1.0048 C   0  0  0  0  0  0  0  0  0  0  0  0
    1.3931    0.2420   -3.7076 H   0  0  0  0  0  0  0  0  0  0  0  0
    1.7692    1.9457   -3.3617 H   0  0  0  0  0  0  0  0  0  0  0  0
    0.6961    1.0247   -2.2808 H   0  0  0  0  0  0  0  0  0  0  0  0
    3.6651    0.3164   -2.7787 H   0  0  0  0  0  0  0  0  0  0  0  0
    2.6092   -0.4921   -1.6439 H   0  0  0  0  0  0  0  0  0  0  0  0
    1.5078    2.6340   -0.9610 H   0  0  0  0  0  0  0  0  0  0  0  0
    2.3124    4.1749    0.7939 H   0  0  0  0  0  0  0  0  0  0  0  0
    4.5789    3.8736    1.7803 H   0  0  0  0  0  0  0  0  0  0  0  0
    6.5762    2.6554    2.0277 H   0  0  0  0  0  0  0  0  0  0  0  0
    7.2247    2.1147    0.4715 H   0  0  0  0  0  0  0  0  0  0  0  0
    6.5467    0.9271    1.6018 H   0  0  0  0  0  0  0  0  0  0  0  0
    6.4053    0.4666   -0.9918 H   0  0  0  0  0  0  0  0  0  0  0  0
    6.6424   -0.1069   -3.2456 H   0  0  0  0  0  0  0  0  0  0  0  0
    7.8862   -1.1550   -4.0043 H   0  0  0  0  0  0  0  0  0  0  0  0
    8.3412   -0.0795   -2.6890 H   0  0  0  0  0  0  0  0  0  0  0  0
    5.2635   -4.4679   -1.9329 H   0  0  0  0  0  0  0  0  0  0  0  0
    4.4250   -3.9507   -0.4597 H   0  0  0  0  0  0  0  0  0  0  0  0
    6.4819   -6.2392   -0.6919 H   0  0  0  0  0  0  0  0  0  0  0  0
    4.7396   -6.4258   -0.4412 H   0  0  0  0  0  0  0  0  0  0  0  0
    4.9049   -5.2897    1.7574 H   0  0  0  0  0  0  0  0  0  0  0  0
    6.9839   -7.5457    1.4832 H   0  0  0  0  0  0  0  0  0  0  0  0
    5.2325   -7.7707    1.7038 H   0  0  0  0  0  0  0  0  0  0  0  0
    6.2054   -7.0325    2.9993 H   0  0  0  0  0  0  0  0  0  0  0  0
    7.9189   -5.1481    1.2230 H   0  0  0  0  0  0  0  0  0  0  0  0
    7.1022   -4.6324    2.7062 H   0  0  0  0  0  0  0  0  0  0  0  0
    7.6155   -2.6887    1.1958 H   0  0  0  0  0  0  0  0  0  0  0  0
    5.8665   -2.8671    1.4641 H   0  0  0  0  0  0  0  0  0  0  0  0
  1  2  1  0
  1 26  1  0
  1 27  1  0
  1 28  1  0
  2  3  1  0
  2 29  1  0
  2 30  1  0
  3  4  2  0
  3  9  1  0
  4  5  1  0
  4 31  1  0
  5  6  2  0
  5 32  1  0
  6  7  1  0
  6 33  1  0
  7  8  1  0
  7  9  2  0
  8 34  1  0
  8 35  1  0
  8 36  1  0
  9 10  1  0
 10 11  1  0
 10 37  1  0
 11 12  2  0
 11 13  1  0
 13 14  2  0
 13 19  1  0
 14 15  1  0
 14 16  1  0
 15 38  1  0
 15 39  1  0
 15 40  1  0
 16 17  2  0
 16 18  1  0
 19 18  1  6
 19 20  1  0
 19 25  1  0
 20 21  1  0
 20 41  1  0
 20 42  1  0
 21 22  1  0
 21 43  1  0
 21 44  1  0
 22 23  1  0
 22 24  1  0
 22 45  1  1
 23 46  1  0
 23 47  1  0
 23 48  1  0
 24 25  1  0
 24 49  1  0
 24 50  1  0
 25 51  1  0
 25 52  1  0
M  END

