
     RDKit          3D

 83 90  0  0  0  0  0  0  0  0999 V2000
    2.2548    0.3773    0.5185 C   0  0  0  0  0  0  0  0  0  0  0  0
    2.8675    0.3472   -0.7494 O   0  0  0  0  0  0  0  0  0  0  0  0
    3.0719   -0.8363   -1.3841 C   0  0  0  0  0  0  0  0  0  0  0  0
    2.6363   -2.0644   -0.8649 C   0  0  0  0  0  0  0  0  0  0  0  0
    2.9051   -3.2540   -1.5617 C   0  0  0  0  0  0  0  0  0  0  0  0
    3.6494   -3.1981   -2.7604 C   0  0  0  0  0  0  0  0  0  0  0  0
    4.0376   -1.9743   -3.2929 C   0  0  0  0  0  0  0  0  0  0  0  0
    3.7563   -0.7677   -2.6306 C   0  0  0  0  0  0  0  0  0  0  0  0
    4.1817    0.5202   -3.2407 C   0  0  0  0  0  0  0  0  0  0  0  0
    3.9939    0.7322   -4.6213 C   0  0  0  0  0  0  0  0  0  0  0  0
    4.4147    1.9063   -5.2401 C   0  0  0  0  0  0  0  0  0  0  0  0
    5.0463    2.9115   -4.4859 C   0  0  0  0  0  0  0  0  0  0  0  0
    5.4831    4.1263   -5.1145 C   0  0  0  0  0  0  0  0  0  0  0  0
    5.8363    5.1093   -5.6223 N   0  0  0  0  0  0  0  0  0  0  0  0
    5.2429    2.7125   -3.1061 C   0  0  0  0  0  0  0  0  0  0  0  0
    4.8127    1.5378   -2.4971 C   0  0  0  0  0  0  0  0  0  0  0  0
    3.9932   -4.5833   -3.2423 C   0  0  0  0  0  0  0  0  0  0  0  0
    3.4031   -5.4525   -2.1650 C   0  0  0  0  0  0  0  0  0  0  0  0
    3.5135   -6.8205   -1.9922 C   0  0  0  0  0  0  0  0  0  0  0  0
    2.9230   -7.4527   -0.8877 C   0  0  0  0  0  0  0  0  0  0  0  0
    2.1482   -6.7350    0.0053 C   0  0  0  0  0  0  0  0  0  0  0  0
    1.9506   -5.3338   -0.1906 C   0  0  0  0  0  0  0  0  0  0  0  0
    2.6686   -4.6732   -1.2197 C   0  0  0  0  0  0  0  0  0  0  0  0
    0.9287   -4.9067    0.7890 C   0  0  0  0  0  0  0  0  0  0  0  0
    0.1884   -3.7199    0.9159 C   0  0  0  0  0  0  0  0  0  0  0  0
   -0.7961   -3.6127    1.9089 C   0  0  0  0  0  0  0  0  0  0  0  0
   -1.5820   -2.5135    2.0519 O   0  0  0  0  0  0  0  0  0  0  0  0
   -1.5889   -1.5132    1.0591 C   0  0  0  0  0  0  0  0  0  0  0  0
   -1.0470   -4.6835    2.8133 C   0  0  0  0  0  0  0  0  0  0  0  0
   -2.0758   -4.5935    3.8824 C   0  0  0  0  0  0  0  0  0  0  0  0
   -2.9304   -5.6852    4.1349 C   0  0  0  0  0  0  0  0  0  0  0  0
   -3.8751   -5.6470    5.1569 C   0  0  0  0  0  0  0  0  0  0  0  0
   -3.9909   -4.5024    5.9661 C   0  0  0  0  0  0  0  0  0  0  0  0
   -4.9623   -4.4533    7.0223 C   0  0  0  0  0  0  0  0  0  0  0  0
   -5.7478   -4.4128    7.8769 N   0  0  0  0  0  0  0  0  0  0  0  0
   -3.1444   -3.4035    5.7250 C   0  0  0  0  0  0  0  0  0  0  0  0
   -2.2079   -3.4510    4.6974 C   0  0  0  0  0  0  0  0  0  0  0  0
   -0.3237   -5.8747    2.6364 C   0  0  0  0  0  0  0  0  0  0  0  0
    0.6295   -5.9991    1.6326 C   0  0  0  0  0  0  0  0  0  0  0  0
    1.4044   -7.2229    1.2191 C   0  0  0  0  0  0  0  0  0  0  0  0
    3.2653   -8.9029   -0.9461 C   0  0  0  0  0  0  0  0  0  0  0  0
    2.9681   -9.7894   -0.1753 O   0  0  0  0  0  0  0  0  0  0  0  0
    4.0345   -9.0673   -2.1102 N   0  0  0  0  0  0  0  0  0  0  0  0
    4.6003  -10.3453   -2.5263 C   0  0  0  0  0  0  0  0  0  0  0  0
    3.5851  -11.3093   -3.1548 C   0  0  0  0  0  0  0  0  0  0  0  0
    2.9005  -10.8460   -4.4540 C   0  0  1  0  0  0  0  0  0  0  0  0
    3.8951  -10.6061   -5.5981 C   0  0  0  0  0  0  0  0  0  0  0  0
    1.8200  -11.8555   -4.8646 C   0  0  0  0  0  0  0  0  0  0  0  0
    4.2398   -7.8531   -2.7858 C   0  0  0  0  0  0  0  0  0  0  0  0
    4.8899   -7.7127   -3.7995 O   0  0  0  0  0  0  0  0  0  0  0  0
    2.2403    1.4293    0.8326 H   0  0  0  0  0  0  0  0  0  0  0  0
    2.8160   -0.2143    1.2634 H   0  0  0  0  0  0  0  0  0  0  0  0
    1.2159    0.0054    0.4790 H   0  0  0  0  0  0  0  0  0  0  0  0
    2.1347   -2.0952    0.0979 H   0  0  0  0  0  0  0  0  0  0  0  0
    4.6161   -1.9438   -4.2194 H   0  0  0  0  0  0  0  0  0  0  0  0
    3.4888   -0.0308   -5.2174 H   0  0  0  0  0  0  0  0  0  0  0  0
    4.2509    2.0544   -6.3093 H   0  0  0  0  0  0  0  0  0  0  0  0
    5.7393    3.4856   -2.5164 H   0  0  0  0  0  0  0  0  0  0  0  0
    4.9758    1.3998   -1.4291 H   0  0  0  0  0  0  0  0  0  0  0  0
    5.0791   -4.7405   -3.3552 H   0  0  0  0  0  0  0  0  0  0  0  0
    3.5540   -4.8246   -4.2269 H   0  0  0  0  0  0  0  0  0  0  0  0
    0.3365   -2.9040    0.2140 H   0  0  0  0  0  0  0  0  0  0  0  0
   -2.3730   -0.7986    1.3422 H   0  0  0  0  0  0  0  0  0  0  0  0
   -1.8197   -1.9278    0.0621 H   0  0  0  0  0  0  0  0  0  0  0  0
   -0.6251   -0.9770    1.0057 H   0  0  0  0  0  0  0  0  0  0  0  0
   -2.8690   -6.5739    3.5034 H   0  0  0  0  0  0  0  0  0  0  0  0
   -4.5336   -6.5004    5.3296 H   0  0  0  0  0  0  0  0  0  0  0  0
   -3.2256   -2.5138    6.3524 H   0  0  0  0  0  0  0  0  0  0  0  0
   -1.5606   -2.5916    4.5255 H   0  0  0  0  0  0  0  0  0  0  0  0
   -0.5208   -6.7165    3.3045 H   0  0  0  0  0  0  0  0  0  0  0  0
    0.7555   -8.0852    0.9910 H   0  0  0  0  0  0  0  0  0  0  0  0
    2.1075   -7.5765    1.9945 H   0  0  0  0  0  0  0  0  0  0  0  0
    5.0373  -10.8188   -1.6335 H   0  0  0  0  0  0  0  0  0  0  0  0
    5.4176  -10.1103   -3.2224 H   0  0  0  0  0  0  0  0  0  0  0  0
    2.8173  -11.5383   -2.3971 H   0  0  0  0  0  0  0  0  0  0  0  0
    4.1167  -12.2595   -3.3475 H   0  0  0  0  0  0  0  0  0  0  0  0
    2.3917   -9.8862   -4.2425 H   0  0  0  0  0  0  0  0  0  0  0  0
    4.4720  -11.5218   -5.8175 H   0  0  0  0  0  0  0  0  0  0  0  0
    4.6032   -9.7966   -5.3659 H   0  0  0  0  0  0  0  0  0  0  0  0
    3.3657  -10.3217   -6.5220 H   0  0  0  0  0  0  0  0  0  0  0  0
    2.2655  -12.8392   -5.0938 H   0  0  0  0  0  0  0  0  0  0  0  0
    1.2797  -11.5192   -5.7642 H   0  0  0  0  0  0  0  0  0  0  0  0
    1.0788  -12.0057   -4.0627 H   0  0  0  0  0  0  0  0  0  0  0  0
  1  2  1  0
  1 51  1  0
  1 52  1  0
  1 53  1  0
  2  3  1  0
  3  4  2  0
  3  8  1  0
  4  5  1  0
  4 54  1  0
  5  6  2  0
  5 23  1  0
  6  7  1  0
  6 17  1  0
  7  8  2  0
  7 55  1  0
  8  9  1  0
  9 10  2  0
  9 16  1  0
 10 11  1  0
 10 56  1  0
 11 12  2  0
 11 57  1  0
 12 13  1  0
 12 15  1  0
 13 14  3  0
 15 16  2  0
 15 58  1  0
 16 59  1  0
 17 18  1  0
 17 60  1  0
 17 61  1  0
 18 19  1  0
 18 23  2  0
 19 20  2  0
 19 49  1  0
 20 21  1  0
 20 41  1  0
 21 22  2  0
 21 40  1  0
 22 23  1  0
 22 24  1  0
 24 25  2  0
 24 39  1  0
 25 26  1  0
 25 62  1  0
 26 27  1  0
 26 29  2  0
 27 28  1  0
 28 63  1  0
 28 64  1  0
 28 65  1  0
 29 30  1  0
 29 38  1  0
 30 31  2  0
 30 37  1  0
 31 32  1  0
 31 66  1  0
 32 33  2  0
 32 67  1  0
 33 34  1  0
 33 36  1  0
 34 35  3  0
 36 37  2  0
 36 68  1  0
 37 69  1  0
 38 39  2  0
 38 70  1  0
 39 40  1  0
 40 71  1  0
 40 72  1  0
 41 42  2  0
 41 43  1  0
 43 44  1  0
 43 49  1  0
 44 45  1  0
 44 73  1  0
 44 74  1  0
 45 46  1  0
 45 75  1  0
 45 76  1  0
 46 47  1  0
 46 48  1  0
 46 77  1  1
 47 78  1  0
 47 79  1  0
 47 80  1  0
 48 81  1  0
 48 82  1  0
 48 83  1  0
 49 50  2  0
M  END

