
     RDKit          3D

 31 32  0  0  0  0  0  0  0  0999 V2000
    1.2522   -1.0014    0.1812 C   0  0  0  0  0  0  0  0  0  0  0  0
    2.4287   -0.3510    0.0949 C   0  0  0  0  0  0  0  0  0  0  0  0
    3.0399    0.2590    1.3282 C   0  0  0  0  0  0  0  0  0  0  0  0
    4.0798    0.8757    1.3514 O   0  0  0  0  0  0  0  0  0  0  0  0
    2.2998    0.0467    2.4332 O   0  0  0  0  0  0  0  0  0  0  0  0
    2.8145    0.5873    3.6490 C   0  0  0  0  0  0  0  0  0  0  0  0
    3.1712   -0.2167   -1.1887 C   0  0  0  0  0  0  0  0  0  0  0  0
    3.8115    0.9805   -1.5622 C   0  0  0  0  0  0  0  0  0  0  0  0
    4.4575    1.0805   -2.7923 C   0  0  0  0  0  0  0  0  0  0  0  0
    4.4811    0.0049   -3.6897 C   0  0  0  0  0  0  0  0  0  0  0  0
    3.8485   -1.2025   -3.3270 C   0  0  0  0  0  0  0  0  0  0  0  0
    3.2187   -1.3011   -2.0794 C   0  0  0  0  0  0  0  0  0  0  0  0
    3.8213   -2.2920   -4.2097 N   0  0  0  0  0  0  0  0  0  0  0  0
    4.6404   -2.5428   -5.2894 C   0  0  0  0  0  0  0  0  0  0  0  0
    4.4617   -3.5092   -6.0045 O   0  0  0  0  0  0  0  0  0  0  0  0
    5.8074   -1.5732   -5.4837 C   0  0  1  0  0  0  0  0  0  0  0  0
    6.4731   -1.7432   -6.8434 C   0  0  0  0  0  0  0  0  0  0  0  0
    5.2325    0.1675   -5.2851 S   0  0  0  0  0  0  0  0  0  0  0  0
    0.7403   -1.1132    1.1373 H   0  0  0  0  0  0  0  0  0  0  0  0
    0.7735   -1.4207   -0.7070 H   0  0  0  0  0  0  0  0  0  0  0  0
    2.0921    0.3222    4.4308 H   0  0  0  0  0  0  0  0  0  0  0  0
    2.9179    1.6808    3.5791 H   0  0  0  0  0  0  0  0  0  0  0  0
    3.8022    0.1605    3.8810 H   0  0  0  0  0  0  0  0  0  0  0  0
    3.8133    1.8316   -0.8833 H   0  0  0  0  0  0  0  0  0  0  0  0
    4.9577    2.0115   -3.0693 H   0  0  0  0  0  0  0  0  0  0  0  0
    2.7649   -2.2540   -1.7956 H   0  0  0  0  0  0  0  0  0  0  0  0
    3.1272   -3.0162   -4.0487 H   0  0  0  0  0  0  0  0  0  0  0  0
    6.5357   -1.7665   -4.6757 H   0  0  0  0  0  0  0  0  0  0  0  0
    5.7701   -1.5110   -7.6574 H   0  0  0  0  0  0  0  0  0  0  0  0
    6.7934   -2.7867   -6.9689 H   0  0  0  0  0  0  0  0  0  0  0  0
    7.3498   -1.0850   -6.9313 H   0  0  0  0  0  0  0  0  0  0  0  0
  1  2  2  0
  1 19  1  0
  1 20  1  0
  2  3  1  0
  2  7  1  0
  3  4  2  0
  3  5  1  0
  5  6  1  0
  6 21  1  0
  6 22  1  0
  6 23  1  0
  7  8  2  0
  7 12  1  0
  8  9  1  0
  8 24  1  0
  9 10  2  0
  9 25  1  0
 10 11  1  0
 10 18  1  0
 11 12  2  0
 11 13  1  0
 12 26  1  0
 13 14  1  0
 13 27  1  0
 14 15  2  0
 14 16  1  0
 16 17  1  0
 16 18  1  0
 16 28  1  1
 17 29  1  0
 17 30  1  0
 17 31  1  0
M  END

