
     RDKit          3D

 34 35  0  0  0  0  0  0  0  0999 V2000
    0.9912    0.4578   -0.6528 N   0  0  0  0  0  0  0  0  0  0  0  0
    2.3402    0.6016   -0.8109 C   0  0  0  0  0  0  0  0  0  0  0  0
    2.9274    0.1874   -1.7937 O   0  0  0  0  0  0  0  0  0  0  0  0
    3.0496    1.3508    0.3179 C   0  0  0  0  0  0  0  0  0  0  0  0
    4.5004    0.9066    0.4943 C   0  0  0  0  0  0  0  0  0  0  0  0
    5.2934    1.7964    1.4503 C   0  0  0  0  0  0  0  0  0  0  0  0
    6.6472    1.2940    1.6180 N   0  0  0  0  0  0  0  0  0  0  0  0
    7.5241    1.9895    2.5553 C   0  0  1  0  0  0  0  0  0  0  0  0
    7.7300    3.5347    2.3707 C   0  0  0  0  0  0  0  0  0  0  0  0
    6.9344    4.2459    3.4933 C   0  0  0  0  0  0  0  0  0  0  0  0
    6.7002    3.1473    4.5011 C   0  0  0  0  0  0  0  0  0  0  0  0
    6.2041    3.2391    5.7997 C   0  0  0  0  0  0  0  0  0  0  0  0
    5.8898    4.4480    6.3011 F   0  0  0  0  0  0  0  0  0  0  0  0
    6.0243    2.1026    6.5852 C   0  0  0  0  0  0  0  0  0  0  0  0
    6.3383    0.8455    6.0505 C   0  0  0  0  0  0  0  0  0  0  0  0
    6.8306    0.7266    4.7464 C   0  0  0  0  0  0  0  0  0  0  0  0
    7.0182    1.8849    3.9872 C   0  0  0  0  0  0  0  0  0  0  0  0
    0.4652    0.0117   -1.3952 H   0  0  0  0  0  0  0  0  0  0  0  0
    0.4987    0.7991    0.1609 H   0  0  0  0  0  0  0  0  0  0  0  0
    2.4868    1.2510    1.2623 H   0  0  0  0  0  0  0  0  0  0  0  0
    3.0156    2.4243    0.0525 H   0  0  0  0  0  0  0  0  0  0  0  0
    4.9757    0.8971   -0.5009 H   0  0  0  0  0  0  0  0  0  0  0  0
    4.5388   -0.1323    0.8613 H   0  0  0  0  0  0  0  0  0  0  0  0
    4.8042    1.8051    2.4401 H   0  0  0  0  0  0  0  0  0  0  0  0
    5.2517    2.8472    1.0799 H   0  0  0  0  0  0  0  0  0  0  0  0
    7.1055    1.2055    0.7122 H   0  0  0  0  0  0  0  0  0  0  0  0
    8.4993    1.4810    2.4709 H   0  0  0  0  0  0  0  0  0  0  0  0
    7.4352    3.8645    1.3626 H   0  0  0  0  0  0  0  0  0  0  0  0
    8.8016    3.7649    2.4790 H   0  0  0  0  0  0  0  0  0  0  0  0
    5.9701    4.6472    3.1325 H   0  0  0  0  0  0  0  0  0  0  0  0
    7.4794    5.1007    3.9247 H   0  0  0  0  0  0  0  0  0  0  0  0
    5.6403    2.2136    7.6014 H   0  0  0  0  0  0  0  0  0  0  0  0
    6.1949   -0.0467    6.6654 H   0  0  0  0  0  0  0  0  0  0  0  0
    7.0625   -0.2530    4.3221 H   0  0  0  0  0  0  0  0  0  0  0  0
  1  2  1  0
  1 18  1  0
  1 19  1  0
  2  3  2  0
  2  4  1  0
  4  5  1  0
  4 20  1  0
  4 21  1  0
  5  6  1  0
  5 22  1  0
  5 23  1  0
  6  7  1  0
  6 24  1  0
  6 25  1  0
  7  8  1  0
  7 26  1  0
  8  9  1  0
  8 17  1  0
  8 27  1  1
  9 10  1  0
  9 28  1  0
  9 29  1  0
 10 11  1  0
 10 30  1  0
 10 31  1  0
 11 12  2  0
 11 17  1  0
 12 13  1  0
 12 14  1  0
 14 15  2  0
 14 32  1  0
 15 16  1  0
 15 33  1  0
 16 17  2  0
 16 34  1  0
M  END

