
     RDKit          3D

 34 34  0  0  0  0  0  0  0  0999 V2000
    1.2839    0.7095   -0.0094 C   0  0  0  0  0  0  0  0  0  0  0  0
    2.6644    0.3863   -0.0215 O   0  0  0  0  0  0  0  0  0  0  0  0
    3.2992    0.3640   -1.2418 C   0  0  0  0  0  0  0  0  0  0  0  0
    3.6411    1.5975   -1.8486 C   0  0  0  0  0  0  0  0  0  0  0  0
    3.3236    2.9102   -1.1734 C   0  0  0  0  0  0  0  0  0  0  0  0
    4.3278    1.5926   -3.0660 C   0  0  0  0  0  0  0  0  0  0  0  0
    4.6875    0.3821   -3.6567 C   0  0  0  0  0  0  0  0  0  0  0  0
    5.5541    0.3839   -5.1783 Cl  0  0  0  0  0  0  0  0  0  0  0  0
    4.3868   -0.8258   -3.0369 C   0  0  0  0  0  0  0  0  0  0  0  0
    3.6799   -0.8694   -1.8197 C   0  0  0  0  0  0  0  0  0  0  0  0
    3.5209   -2.2622   -1.1679 C   0  0  1  0  0  0  0  0  0  0  0  0
    4.8603   -2.6283   -0.4947 C   0  0  0  0  0  0  0  0  0  0  0  0
    2.3899   -2.4203   -0.1226 C   0  0  0  0  0  0  0  0  0  0  0  0
    3.2166   -3.3239   -2.2620 C   0  0  0  0  0  0  0  0  0  0  0  0
    3.8504   -4.3585   -2.3848 O   0  0  0  0  0  0  0  0  0  0  0  0
    2.1287   -3.0584   -3.0474 N   0  0  0  0  0  0  0  0  0  0  0  0
    1.7284   -3.9114   -4.0789 N   0  0  0  0  0  0  0  0  0  0  0  0
    0.9191    0.5167    1.0094 H   0  0  0  0  0  0  0  0  0  0  0  0
    0.7128    0.0821   -0.7162 H   0  0  0  0  0  0  0  0  0  0  0  0
    1.0983    1.7686   -0.2550 H   0  0  0  0  0  0  0  0  0  0  0  0
    3.3774    2.8130   -0.0793 H   0  0  0  0  0  0  0  0  0  0  0  0
    2.3121    3.2729   -1.4254 H   0  0  0  0  0  0  0  0  0  0  0  0
    4.0326    3.6891   -1.4896 H   0  0  0  0  0  0  0  0  0  0  0  0
    4.6028    2.5337   -3.5458 H   0  0  0  0  0  0  0  0  0  0  0  0
    4.7229   -1.7520   -3.5060 H   0  0  0  0  0  0  0  0  0  0  0  0
    5.0880   -1.9001    0.2983 H   0  0  0  0  0  0  0  0  0  0  0  0
    5.6870   -2.6276   -1.2187 H   0  0  0  0  0  0  0  0  0  0  0  0
    4.8051   -3.6345   -0.0554 H   0  0  0  0  0  0  0  0  0  0  0  0
    2.6043   -1.8457    0.7856 H   0  0  0  0  0  0  0  0  0  0  0  0
    2.3113   -3.4847    0.1496 H   0  0  0  0  0  0  0  0  0  0  0  0
    1.4108   -2.1067   -0.5118 H   0  0  0  0  0  0  0  0  0  0  0  0
    1.6977   -2.1415   -3.0436 H   0  0  0  0  0  0  0  0  0  0  0  0
    1.4500   -4.8038   -3.6638 H   0  0  0  0  0  0  0  0  0  0  0  0
    2.5486   -4.1326   -4.6506 H   0  0  0  0  0  0  0  0  0  0  0  0
  1  2  1  0
  1 18  1  0
  1 19  1  0
  1 20  1  0
  2  3  1  0
  3  4  2  0
  3 10  1  0
  4  5  1  0
  4  6  1  0
  5 21  1  0
  5 22  1  0
  5 23  1  0
  6  7  2  0
  6 24  1  0
  7  8  1  0
  7  9  1  0
  9 10  2  0
  9 25  1  0
 10 11  1  0
 11 12  1  0
 11 13  1  0
 11 14  1  6
 12 26  1  0
 12 27  1  0
 12 28  1  0
 13 29  1  0
 13 30  1  0
 13 31  1  0
 14 15  2  0
 14 16  1  0
 16 17  1  0
 16 32  1  0
 17 33  1  0
 17 34  1  0
M  END

