
     RDKit          3D

 44 46  0  0  0  0  0  0  0  0999 V2000
   11.3589   -1.4129    1.1462 C   0  0  0  0  0  0  0  0  0  0  0  0
   10.1725   -1.4378    1.9837 N   0  0  0  0  0  0  0  0  0  0  0  0
    9.2532   -2.5517    1.7584 C   0  0  1  0  0  0  0  0  0  0  0  0
    9.9105   -3.8874    2.1157 C   0  0  0  0  0  0  0  0  0  0  0  0
    7.9872   -2.2847    2.6043 C   0  0  0  0  0  0  0  0  0  0  0  0
    6.8114   -3.1453    2.2671 C   0  0  0  0  0  0  0  0  0  0  0  0
    5.7684   -2.6596    1.6367 N   0  0  0  0  0  0  0  0  0  0  0  0
    4.9160   -3.7569    1.5143 O   0  0  0  0  0  0  0  0  0  0  0  0
    5.5386   -4.8036    2.0855 C   0  0  0  0  0  0  0  0  0  0  0  0
    4.8968   -6.0986    2.1186 C   0  0  0  0  0  0  0  0  0  0  0  0
    5.4340   -7.2654    2.7319 C   0  0  0  0  0  0  0  0  0  0  0  0
    4.6293   -8.2970    2.5918 N   0  0  0  0  0  0  0  0  0  0  0  0
    3.5556   -7.8302    1.8999 N   0  0  0  0  0  0  0  0  0  0  0  0
    2.5172   -8.7472    1.5764 C   0  0  0  0  0  0  0  0  0  0  0  0
    2.8618  -10.0609    1.2247 C   0  0  0  0  0  0  0  0  0  0  0  0
    1.8596  -10.9813    0.9229 C   0  0  0  0  0  0  0  0  0  0  0  0
    0.5138  -10.6056    0.9594 C   0  0  0  0  0  0  0  0  0  0  0  0
    0.1767   -9.2973    1.3184 C   0  0  0  0  0  0  0  0  0  0  0  0
   -1.2693   -8.8620    1.3265 C   0  0  1  0  0  0  0  0  0  0  0  0
   -2.0972   -9.8826    1.6011 F   0  0  0  0  0  0  0  0  0  0  0  0
   -1.4948   -7.8971    2.2359 F   0  0  0  0  0  0  0  0  0  0  0  0
   -1.6385   -8.3654    0.1298 F   0  0  0  0  0  0  0  0  0  0  0  0
    1.1723   -8.3689    1.6416 C   0  0  0  0  0  0  0  0  0  0  0  0
    3.6729   -6.5015    1.5753 C   0  0  0  0  0  0  0  0  0  0  0  0
    2.6854   -5.7325    0.7577 C   0  0  0  0  0  0  0  0  0  0  0  0
    6.7096   -4.4829    2.5675 N   0  0  0  0  0  0  0  0  0  0  0  0
   11.8924   -0.4618    1.2984 H   0  0  0  0  0  0  0  0  0  0  0  0
   11.1539   -1.5169    0.0563 H   0  0  0  0  0  0  0  0  0  0  0  0
   12.0564   -2.2185    1.4251 H   0  0  0  0  0  0  0  0  0  0  0  0
    9.6650   -0.5622    1.8663 H   0  0  0  0  0  0  0  0  0  0  0  0
    8.9331   -2.6023    0.6903 H   0  0  0  0  0  0  0  0  0  0  0  0
   10.3108   -3.8433    3.1419 H   0  0  0  0  0  0  0  0  0  0  0  0
   10.7412   -4.1240    1.4336 H   0  0  0  0  0  0  0  0  0  0  0  0
    9.1815   -4.7076    2.0620 H   0  0  0  0  0  0  0  0  0  0  0  0
    7.6706   -1.2407    2.4549 H   0  0  0  0  0  0  0  0  0  0  0  0
    8.2372   -2.4070    3.6705 H   0  0  0  0  0  0  0  0  0  0  0  0
    6.3788   -7.3569    3.2660 H   0  0  0  0  0  0  0  0  0  0  0  0
    3.9146  -10.3427    1.2077 H   0  0  0  0  0  0  0  0  0  0  0  0
    2.1310  -12.0045    0.6535 H   0  0  0  0  0  0  0  0  0  0  0  0
   -0.2707  -11.3261    0.7231 H   0  0  0  0  0  0  0  0  0  0  0  0
    0.8896   -7.3705    1.9707 H   0  0  0  0  0  0  0  0  0  0  0  0
    2.2116   -6.3670   -0.0052 H   0  0  0  0  0  0  0  0  0  0  0  0
    3.1898   -4.8941    0.2621 H   0  0  0  0  0  0  0  0  0  0  0  0
    1.8844   -5.3004    1.3811 H   0  0  0  0  0  0  0  0  0  0  0  0
  1  2  1  0
  1 27  1  0
  1 28  1  0
  1 29  1  0
  2  3  1  0
  2 30  1  0
  3  4  1  0
  3  5  1  0
  3 31  1  6
  4 32  1  0
  4 33  1  0
  4 34  1  0
  5  6  1  0
  5 35  1  0
  5 36  1  0
  6  7  2  0
  6 26  1  0
  7  8  1  0
  8  9  1  0
  9 10  1  0
  9 26  2  0
 10 11  1  0
 10 24  2  0
 11 12  2  0
 11 37  1  0
 12 13  1  0
 13 14  1  0
 13 24  1  0
 14 15  2  0
 14 23  1  0
 15 16  1  0
 15 38  1  0
 16 17  2  0
 16 39  1  0
 17 18  1  0
 17 40  1  0
 18 19  1  0
 18 23  2  0
 19 20  1  1
 19 21  1  0
 19 22  1  0
 23 41  1  0
 24 25  1  0
 25 42  1  0
 25 43  1  0
 25 44  1  0
M  END

