
     RDKit          3D

 43 44  0  0  0  0  0  0  0  0999 V2000
    3.4240    1.3885   -1.5975 C   0  0  0  0  0  0  0  0  0  0  0  0
    2.9088    0.8235   -0.2697 C   0  0  1  0  0  0  0  0  0  0  0  0
    3.4360   -0.5853    0.0312 C   0  0  0  0  0  0  0  0  0  0  0  0
    3.1232    1.7539    0.8732 N   0  0  0  0  0  0  0  0  0  0  0  0
    1.9207    2.0404    1.6754 C   0  0  0  0  0  0  0  0  0  0  0  0
    0.9022    2.9151    0.9657 C   0  0  0  0  0  0  0  0  0  0  0  0
   -0.3586    2.4114    0.6162 C   0  0  0  0  0  0  0  0  0  0  0  0
   -1.3014    3.2197   -0.0290 C   0  0  0  0  0  0  0  0  0  0  0  0
   -0.9900    4.5463   -0.3345 C   0  0  0  0  0  0  0  0  0  0  0  0
    0.2643    5.0608    0.0147 C   0  0  0  0  0  0  0  0  0  0  0  0
    1.2022    4.2540    0.6616 C   0  0  0  0  0  0  0  0  0  0  0  0
    4.3889    2.1242    1.1889 C   0  0  0  0  0  0  0  0  0  0  0  0
    5.3842    1.6746    0.6206 O   0  0  0  0  0  0  0  0  0  0  0  0
    4.6366    3.2093    2.2847 C   0  0  0  0  0  0  0  0  0  0  0  0
    3.7761    3.9409    2.7579 O   0  0  0  0  0  0  0  0  0  0  0  0
    5.9565    3.2386    2.5903 N   0  0  0  0  0  0  0  0  0  0  0  0
    6.6364    4.0698    3.4907 C   0  0  0  0  0  0  0  0  0  0  0  0
    6.0268    5.0498    4.2878 C   0  0  0  0  0  0  0  0  0  0  0  0
    6.7971    5.8255    5.1608 C   0  0  0  0  0  0  0  0  0  0  0  0
    8.1767    5.6353    5.2474 C   0  0  0  0  0  0  0  0  0  0  0  0
    8.7950    4.6607    4.4560 C   0  0  0  0  0  0  0  0  0  0  0  0
    8.0368    3.8808    3.5832 C   0  0  0  0  0  0  0  0  0  0  0  0
    8.5691    2.9138    2.7834 O   0  0  0  0  0  0  0  0  0  0  0  0
    3.1109    0.7274   -2.4212 H   0  0  0  0  0  0  0  0  0  0  0  0
    4.5192    1.4620   -1.6042 H   0  0  0  0  0  0  0  0  0  0  0  0
    3.0000    2.3872   -1.7839 H   0  0  0  0  0  0  0  0  0  0  0  0
    1.8139    0.7600   -0.3575 H   0  0  0  0  0  0  0  0  0  0  0  0
    4.5315   -0.5849    0.1103 H   0  0  0  0  0  0  0  0  0  0  0  0
    3.1416   -1.2753   -0.7757 H   0  0  0  0  0  0  0  0  0  0  0  0
    3.0161   -0.9723    0.9739 H   0  0  0  0  0  0  0  0  0  0  0  0
    2.2283    2.5204    2.6085 H   0  0  0  0  0  0  0  0  0  0  0  0
    1.4542    1.0727    1.9271 H   0  0  0  0  0  0  0  0  0  0  0  0
   -0.6102    1.3735    0.8558 H   0  0  0  0  0  0  0  0  0  0  0  0
   -2.2794    2.8094   -0.2939 H   0  0  0  0  0  0  0  0  0  0  0  0
   -1.7230    5.1806   -0.8398 H   0  0  0  0  0  0  0  0  0  0  0  0
    0.5101    6.1017   -0.2121 H   0  0  0  0  0  0  0  0  0  0  0  0
    2.1715    4.6603    0.9579 H   0  0  0  0  0  0  0  0  0  0  0  0
    6.5209    2.5969    2.0306 H   0  0  0  0  0  0  0  0  0  0  0  0
    4.9511    5.1904    4.2081 H   0  0  0  0  0  0  0  0  0  0  0  0
    6.3075    6.5850    5.7746 H   0  0  0  0  0  0  0  0  0  0  0  0
    8.7797    6.2411    5.9277 H   0  0  0  0  0  0  0  0  0  0  0  0
    9.8764    4.5008    4.5138 H   0  0  0  0  0  0  0  0  0  0  0  0
    9.5259    2.8710    2.9053 H   0  0  0  0  0  0  0  0  0  0  0  0
  1  2  1  0
  1 24  1  0
  1 25  1  0
  1 26  1  0
  2  3  1  0
  2  4  1  0
  2 27  1  6
  3 28  1  0
  3 29  1  0
  3 30  1  0
  4  5  1  0
  4 12  1  0
  5  6  1  0
  5 31  1  0
  5 32  1  0
  6  7  2  0
  6 11  1  0
  7  8  1  0
  7 33  1  0
  8  9  2  0
  8 34  1  0
  9 10  1  0
  9 35  1  0
 10 11  2  0
 10 36  1  0
 11 37  1  0
 12 13  2  0
 12 14  1  0
 14 15  2  0
 14 16  1  0
 16 17  1  0
 16 38  1  0
 17 18  2  0
 17 22  1  0
 18 19  1  0
 18 39  1  0
 19 20  2  0
 19 40  1  0
 20 21  1  0
 20 41  1  0
 21 22  2  0
 21 42  1  0
 22 23  1  0
 23 43  1  0
M  END

