
     RDKit          3D

 21 20  0  0  0  0  0  0  0  0999 V2000
    0.9641    0.3838   -1.0072 C   0  0  0  0  0  0  0  0  0  0  0  0
    2.4082    0.4555   -0.5712 C   0  0  0  0  0  0  0  0  0  0  0  0
    2.9868    1.2765    0.2232 N   0  0  0  0  0  0  0  0  0  0  0  0
    2.4047    2.3088    0.9016 C   0  0  0  0  0  0  0  0  0  0  0  0
    1.0431    2.4437    0.8041 F   0  0  0  0  0  0  0  0  0  0  0  0
    3.0847    3.1910    1.6708 C   0  0  0  0  0  0  0  0  0  0  0  0
    2.3803    4.3059    2.3911 C   0  0  0  0  0  0  0  0  0  0  0  0
    4.5846    3.0952    1.8172 C   0  0  0  0  0  0  0  0  0  0  0  0
    5.3529    4.1189    0.9651 C   0  0  0  0  0  0  0  0  0  0  0  0
    0.8503   -0.3491   -1.8190 H   0  0  0  0  0  0  0  0  0  0  0  0
    0.5893    1.3603   -1.3472 H   0  0  0  0  0  0  0  0  0  0  0  0
    0.3154    0.0737   -0.1705 H   0  0  0  0  0  0  0  0  0  0  0  0
    3.0692   -0.3168   -0.9968 H   0  0  0  0  0  0  0  0  0  0  0  0
    1.3051    4.3302    2.1753 H   0  0  0  0  0  0  0  0  0  0  0  0
    2.8112    5.2852    2.1194 H   0  0  0  0  0  0  0  0  0  0  0  0
    2.5139    4.2013    3.4830 H   0  0  0  0  0  0  0  0  0  0  0  0
    4.9096    2.0821    1.5440 H   0  0  0  0  0  0  0  0  0  0  0  0
    4.8404    3.2497    2.8816 H   0  0  0  0  0  0  0  0  0  0  0  0
    5.1604    3.9555   -0.1070 H   0  0  0  0  0  0  0  0  0  0  0  0
    6.4384    4.0285    1.1321 H   0  0  0  0  0  0  0  0  0  0  0  0
    5.0671    5.1562    1.2040 H   0  0  0  0  0  0  0  0  0  0  0  0
  1  2  1  0
  1 10  1  0
  1 11  1  0
  1 12  1  0
  2  3  2  0
  2 13  1  0
  3  4  1  0
  4  5  1  0
  4  6  2  0
  6  7  1  0
  6  8  1  0
  7 14  1  0
  7 15  1  0
  7 16  1  0
  8  9  1  0
  8 17  1  0
  8 18  1  0
  9 19  1  0
  9 20  1  0
  9 21  1  0
M  END

