
     RDKit          3D

 30 30  0  0  0  0  0  0  0  0999 V2000
    4.8651    1.3360   -1.9690 C   0  0  0  0  0  0  0  0  0  0  0  0
    4.0862    0.6083   -0.9632 N   0  0  0  0  0  0  0  0  0  0  0  0
    3.1831    1.1382   -0.0610 C   0  0  0  0  0  0  0  0  0  0  0  0
    2.7169    2.5813   -0.0175 C   0  0  1  0  0  0  0  0  0  0  0  0
    1.9202    2.9426   -1.2808 C   0  0  0  0  0  0  0  0  0  0  0  0
    1.8581    2.8388    1.2274 C   0  0  0  0  0  0  0  0  0  0  0  0
    3.8420    3.5112   -0.0380 O   0  0  0  0  0  0  0  0  0  0  0  0
    4.7822    3.4749    0.9467 C   0  0  0  0  0  0  0  0  0  0  0  0
    4.8189    2.6855    1.8635 O   0  0  0  0  0  0  0  0  0  0  0  0
    5.7021    4.4601    0.7325 N   0  0  0  0  0  0  0  0  0  0  0  0
    6.7570    4.6920    1.6104 N   0  0  0  0  0  0  0  0  0  0  0  0
    2.7448    0.0625    0.7036 C   0  0  0  0  0  0  0  0  0  0  0  0
    3.3408   -1.0870    0.3113 N   0  0  0  0  0  0  0  0  0  0  0  0
    4.1311   -0.7381   -0.6723 C   0  0  0  0  0  0  0  0  0  0  0  0
    4.9590   -1.6890   -1.3890 N   0  0  0  0  0  0  0  0  0  0  0  0
    5.5732   -1.2712   -2.3707 O   0  0  0  0  0  0  0  0  0  0  0  0
    4.9836   -2.8309   -0.9789 O   0  0  0  0  0  0  0  0  0  0  0  0
    4.7178    2.4075   -1.8127 H   0  0  0  0  0  0  0  0  0  0  0  0
    4.5519    1.0454   -2.9802 H   0  0  0  0  0  0  0  0  0  0  0  0
    5.9281    1.0903   -1.8659 H   0  0  0  0  0  0  0  0  0  0  0  0
    1.0227    2.3112   -1.3482 H   0  0  0  0  0  0  0  0  0  0  0  0
    2.5122    2.7982   -2.1949 H   0  0  0  0  0  0  0  0  0  0  0  0
    1.6104    3.9972   -1.2353 H   0  0  0  0  0  0  0  0  0  0  0  0
    0.9257    2.2583    1.1762 H   0  0  0  0  0  0  0  0  0  0  0  0
    1.5917    3.9056    1.2609 H   0  0  0  0  0  0  0  0  0  0  0  0
    2.3982    2.5757    2.1444 H   0  0  0  0  0  0  0  0  0  0  0  0
    5.5585    5.1343   -0.0108 H   0  0  0  0  0  0  0  0  0  0  0  0
    7.3583    3.8659    1.6350 H   0  0  0  0  0  0  0  0  0  0  0  0
    6.3890    4.8024    2.5583 H   0  0  0  0  0  0  0  0  0  0  0  0
    2.0291    0.0812    1.5224 H   0  0  0  0  0  0  0  0  0  0  0  0
  1  2  1  0
  1 18  1  0
  1 19  1  0
  1 20  1  0
  2  3  1  0
  2 14  1  0
  3  4  1  0
  3 12  2  0
  4  5  1  0
  4  6  1  0
  4  7  1  1
  5 21  1  0
  5 22  1  0
  5 23  1  0
  6 24  1  0
  6 25  1  0
  6 26  1  0
  7  8  1  0
  8  9  2  0
  8 10  1  0
 10 11  1  0
 10 27  1  0
 11 28  1  0
 11 29  1  0
 12 13  1  0
 12 30  1  0
 13 14  2  0
 14 15  1  0
 15 16  2  0
 15 17  1  0
M  CHG  2  15   1  17  -1
M  END

