
     RDKit          3D

 63 68  0  0  0  0  0  0  0  0999 V2000
    5.2872   -3.2274    5.3241 C   0  0  0  0  0  0  0  0  0  0  0  0
    5.0256   -3.2463    3.9383 O   0  0  0  0  0  0  0  0  0  0  0  0
    6.0439   -3.4292    3.0638 C   0  0  0  0  0  0  0  0  0  0  0  0
    7.3885   -3.6190    3.4449 C   0  0  0  0  0  0  0  0  0  0  0  0
    8.3918   -3.8025    2.4824 C   0  0  0  0  0  0  0  0  0  0  0  0
    8.0459   -3.7976    1.1356 C   0  0  0  0  0  0  0  0  0  0  0  0
    6.7072   -3.6057    0.7685 C   0  0  0  0  0  0  0  0  0  0  0  0
    5.6960   -3.4210    1.7013 C   0  0  0  0  0  0  0  0  0  0  0  0
    6.6085   -3.6333   -0.7153 C   0  0  0  0  0  0  0  0  0  0  0  0
    5.6216   -3.5136   -1.4263 O   0  0  0  0  0  0  0  0  0  0  0  0
    7.8989   -3.8232   -1.1765 N   0  0  0  0  0  0  0  0  0  0  0  0
    8.1723   -4.0510   -2.5755 C   0  0  0  0  0  0  0  0  0  0  0  0
    8.3670   -2.7573   -3.4190 C   0  0  1  0  0  0  0  0  0  0  0  0
    8.5648   -3.1430   -4.8921 C   0  0  0  0  0  0  0  0  0  0  0  0
    7.5947   -2.8344   -5.8546 C   0  0  0  0  0  0  0  0  0  0  0  0
    7.7578   -3.2268   -7.1839 C   0  0  0  0  0  0  0  0  0  0  0  0
    8.8964   -3.9396   -7.5991 C   0  0  0  0  0  0  0  0  0  0  0  0
    9.0683   -4.3577   -9.0132 C   0  0  0  0  0  0  0  0  0  0  0  0
   10.3297   -4.3348   -9.6407 C   0  0  0  0  0  0  0  0  0  0  0  0
   10.5423   -4.6863  -10.9087 N   0  0  0  0  0  0  0  0  0  0  0  0
    9.5000   -5.0828  -11.6373 C   0  0  0  0  0  0  0  0  0  0  0  0
    8.1918   -5.1594  -11.1309 C   0  0  0  0  0  0  0  0  0  0  0  0
    7.0967   -5.6131  -12.0616 C   0  0  0  0  0  0  0  0  0  0  0  0
    7.2102   -5.5255  -13.2717 O   0  0  0  0  0  0  0  0  0  0  0  0
    5.9722   -6.1239  -11.4579 N   0  0  0  0  0  0  0  0  0  0  0  0
    4.8883   -6.6556  -12.2325 C   0  0  1  0  0  0  0  0  0  0  0  0
    3.5030   -6.5801  -11.6476 C   0  0  0  0  0  0  0  0  0  0  0  0
    3.8761   -5.7112  -12.8218 C   0  0  0  0  0  0  0  0  0  0  0  0
    7.9856   -4.7815   -9.8002 C   0  0  0  0  0  0  0  0  0  0  0  0
    9.8706   -4.2381   -6.6283 C   0  0  0  0  0  0  0  0  0  0  0  0
    9.7091   -3.8487   -5.2991 C   0  0  0  0  0  0  0  0  0  0  0  0
    7.2761   -1.8145   -3.2133 N   0  0  0  0  0  0  0  0  0  0  0  0
    7.6920   -0.6221   -2.6679 C   0  0  0  0  0  0  0  0  0  0  0  0
    7.0291    0.3137   -2.2993 O   0  0  0  0  0  0  0  0  0  0  0  0
    9.1045   -0.7022   -2.6003 N   0  0  0  0  0  0  0  0  0  0  0  0
    9.5888   -1.9454   -2.9082 C   0  0  0  0  0  0  0  0  0  0  0  0
   10.7256   -2.3442   -2.7934 O   0  0  0  0  0  0  0  0  0  0  0  0
    8.8842   -3.9724   -0.1075 C   0  0  0  0  0  0  0  0  0  0  0  0
    4.3222   -3.0615    5.8210 H   0  0  0  0  0  0  0  0  0  0  0  0
    5.9768   -2.4099    5.6016 H   0  0  0  0  0  0  0  0  0  0  0  0
    5.7100   -4.1857    5.6765 H   0  0  0  0  0  0  0  0  0  0  0  0
    7.6651   -3.6246    4.4992 H   0  0  0  0  0  0  0  0  0  0  0  0
    9.4266   -3.9469    2.8049 H   0  0  0  0  0  0  0  0  0  0  0  0
    4.6584   -3.2693    1.3997 H   0  0  0  0  0  0  0  0  0  0  0  0
    7.3224   -4.6001   -3.0109 H   0  0  0  0  0  0  0  0  0  0  0  0
    9.0722   -4.6738   -2.6751 H   0  0  0  0  0  0  0  0  0  0  0  0
    6.7119   -2.2634   -5.5634 H   0  0  0  0  0  0  0  0  0  0  0  0
    6.9965   -2.9463   -7.9157 H   0  0  0  0  0  0  0  0  0  0  0  0
   11.2054   -3.9840   -9.0822 H   0  0  0  0  0  0  0  0  0  0  0  0
    9.6815   -5.3609  -12.6804 H   0  0  0  0  0  0  0  0  0  0  0  0
    6.0425   -6.4195  -10.4907 H   0  0  0  0  0  0  0  0  0  0  0  0
    5.1398   -7.5388  -12.8330 H   0  0  0  0  0  0  0  0  0  0  0  0
    3.3927   -6.0949  -10.6730 H   0  0  0  0  0  0  0  0  0  0  0  0
    2.8336   -7.4297  -11.8064 H   0  0  0  0  0  0  0  0  0  0  0  0
    4.0281   -4.6446  -12.6390 H   0  0  0  0  0  0  0  0  0  0  0  0
    3.4731   -5.9527  -13.8086 H   0  0  0  0  0  0  0  0  0  0  0  0
    6.9827   -4.8055   -9.3667 H   0  0  0  0  0  0  0  0  0  0  0  0
   10.7629   -4.8011   -6.9110 H   0  0  0  0  0  0  0  0  0  0  0  0
   10.4926   -4.0754   -4.5740 H   0  0  0  0  0  0  0  0  0  0  0  0
    6.3424   -2.1508   -2.9763 H   0  0  0  0  0  0  0  0  0  0  0  0
    9.6690    0.0538   -2.2270 H   0  0  0  0  0  0  0  0  0  0  0  0
    9.6915   -3.2234   -0.1901 H   0  0  0  0  0  0  0  0  0  0  0  0
    9.3632   -4.9689   -0.1524 H   0  0  0  0  0  0  0  0  0  0  0  0
  1  2  1  0
  1 39  1  0
  1 40  1  0
  1 41  1  0
  2  3  1  0
  3  4  2  0
  3  8  1  0
  4  5  1  0
  4 42  1  0
  5  6  2  0
  5 43  1  0
  6  7  1  0
  6 38  1  0
  7  8  2  0
  7  9  1  0
  8 44  1  0
  9 10  2  0
  9 11  1  0
 11 12  1  0
 11 38  1  0
 13 12  1  1
 12 45  1  0
 12 46  1  0
 13 14  1  0
 13 32  1  0
 13 36  1  0
 14 15  2  0
 14 31  1  0
 15 16  1  0
 15 47  1  0
 16 17  2  0
 16 48  1  0
 17 18  1  0
 17 30  1  0
 18 19  2  0
 18 29  1  0
 19 20  1  0
 19 49  1  0
 20 21  2  0
 21 22  1  0
 21 50  1  0
 22 23  1  0
 22 29  2  0
 23 24  2  0
 23 25  1  0
 25 26  1  0
 25 51  1  0
 26 27  1  0
 26 28  1  0
 26 52  1  6
 27 28  1  0
 27 53  1  0
 27 54  1  0
 28 55  1  0
 28 56  1  0
 29 57  1  0
 30 31  2  0
 30 58  1  0
 31 59  1  0
 32 33  1  0
 32 60  1  0
 33 34  2  0
 33 35  1  0
 35 36  1  0
 35 61  1  0
 36 37  2  0
 38 62  1  0
 38 63  1  0
M  END

