
     RDKit          3D

 63 64  0  0  0  0  0  0  0  0999 V2000
    9.4350   -4.3607   -2.3640 C   0  0  0  0  0  0  0  0  0  0  0  0
    8.6219   -3.2327   -1.7282 C   0  0  0  0  0  0  0  0  0  0  0  0
    8.8083   -1.8799   -2.4228 C   0  0  0  0  0  0  0  0  0  0  0  0
    7.9902   -0.7544   -1.7807 C   0  0  0  0  0  0  0  0  0  0  0  0
    8.1860    0.5878   -2.4826 C   0  0  0  0  0  0  0  0  0  0  0  0
    7.2035    1.8932   -1.6986 S   0  0  1  0  0  0  0  0  0  0  0  0
    5.7874    1.5601   -1.9072 O   0  0  0  0  0  0  0  0  0  0  0  0
    7.7384    2.0900   -0.3442 O   0  0  0  0  0  0  0  0  0  0  0  0
    7.5688    3.2625   -2.6192 N   0  0  0  0  0  0  0  0  0  0  0  0
    6.5338    3.7934   -3.5185 C   0  0  0  0  0  0  0  0  0  0  0  0
    5.7376    4.9159   -2.8366 C   0  0  0  0  0  0  0  0  0  0  0  0
    6.5787    5.9791   -2.2820 N   0  0  0  0  0  0  0  0  0  0  0  0
    7.1373    6.9961   -3.1852 C   0  0  1  0  0  0  0  0  0  0  0  0
    6.2465    7.3353   -4.3867 C   0  0  0  0  0  0  0  0  0  0  0  0
    7.4082    8.3232   -2.4320 C   0  0  0  0  0  0  0  0  0  0  0  0
    8.2178    9.1293   -2.8649 O   0  0  0  0  0  0  0  0  0  0  0  0
    6.6420    8.5144   -1.3287 N   0  0  0  0  0  0  0  0  0  0  0  0
    6.7000    9.7259   -0.5167 C   0  0  1  0  0  0  0  0  0  0  0  0
    5.5870   10.7269   -0.8914 C   0  0  0  0  0  0  0  0  0  0  0  0
    4.1962   10.2384   -0.4636 C   0  0  0  0  0  0  0  0  0  0  0  0
    4.1109    9.8987    1.0409 C   0  0  2  0  0  0  0  0  0  0  0  0
    4.1038   11.1508    1.9305 C   0  0  0  0  0  0  0  0  0  0  0  0
    5.2363    8.9100    1.4182 C   0  0  0  0  0  0  0  0  0  0  0  0
    6.6312    9.3880    0.9832 C   0  0  0  0  0  0  0  0  0  0  0  0
    7.5787    5.4050   -1.3712 C   0  0  0  0  0  0  0  0  0  0  0  0
    8.4233    4.2981   -2.0185 C   0  0  0  0  0  0  0  0  0  0  0  0
    9.2770   -5.3165   -1.8399 H   0  0  0  0  0  0  0  0  0  0  0  0
   10.5157   -4.1416   -2.3369 H   0  0  0  0  0  0  0  0  0  0  0  0
    9.1559   -4.5110   -3.4205 H   0  0  0  0  0  0  0  0  0  0  0  0
    8.8969   -3.1318   -0.6628 H   0  0  0  0  0  0  0  0  0  0  0  0
    7.5493   -3.4977   -1.7369 H   0  0  0  0  0  0  0  0  0  0  0  0
    8.5309   -1.9751   -3.4891 H   0  0  0  0  0  0  0  0  0  0  0  0
    9.8803   -1.6084   -2.4128 H   0  0  0  0  0  0  0  0  0  0  0  0
    8.2694   -0.6420   -0.7199 H   0  0  0  0  0  0  0  0  0  0  0  0
    6.9176   -1.0092   -1.7987 H   0  0  0  0  0  0  0  0  0  0  0  0
    7.8632    0.5623   -3.5347 H   0  0  0  0  0  0  0  0  0  0  0  0
    9.2300    0.9343   -2.4420 H   0  0  0  0  0  0  0  0  0  0  0  0
    5.8621    2.9774   -3.8149 H   0  0  0  0  0  0  0  0  0  0  0  0
    7.0398    4.1653   -4.4277 H   0  0  0  0  0  0  0  0  0  0  0  0
    5.1726    4.4629   -2.0036 H   0  0  0  0  0  0  0  0  0  0  0  0
    4.9975    5.3357   -3.5309 H   0  0  0  0  0  0  0  0  0  0  0  0
    8.1298    6.7084   -3.5854 H   0  0  0  0  0  0  0  0  0  0  0  0
    5.2352    7.6302   -4.0640 H   0  0  0  0  0  0  0  0  0  0  0  0
    6.1597    6.4977   -5.0947 H   0  0  0  0  0  0  0  0  0  0  0  0
    6.6976    8.1827   -4.9214 H   0  0  0  0  0  0  0  0  0  0  0  0
    6.0232    7.7411   -1.0962 H   0  0  0  0  0  0  0  0  0  0  0  0
    7.6726   10.1828   -0.7524 H   0  0  0  0  0  0  0  0  0  0  0  0
    5.6176   10.9109   -1.9772 H   0  0  0  0  0  0  0  0  0  0  0  0
    5.8153   11.6927   -0.4081 H   0  0  0  0  0  0  0  0  0  0  0  0
    3.9416    9.3350   -1.0467 H   0  0  0  0  0  0  0  0  0  0  0  0
    3.4332   10.9915   -0.7243 H   0  0  0  0  0  0  0  0  0  0  0  0
    3.1489    9.3829    1.2104 H   0  0  0  0  0  0  0  0  0  0  0  0
    5.0281   11.7433    1.8393 H   0  0  0  0  0  0  0  0  0  0  0  0
    3.9935   10.8785    2.9930 H   0  0  0  0  0  0  0  0  0  0  0  0
    3.2637   11.8144    1.6682 H   0  0  0  0  0  0  0  0  0  0  0  0
    5.0209    7.9323    0.9489 H   0  0  0  0  0  0  0  0  0  0  0  0
    5.2273    8.7226    2.5054 H   0  0  0  0  0  0  0  0  0  0  0  0
    7.3910    8.6274    1.2274 H   0  0  0  0  0  0  0  0  0  0  0  0
    6.9068   10.2934    1.5496 H   0  0  0  0  0  0  0  0  0  0  0  0
    7.0567    4.9679   -0.5025 H   0  0  0  0  0  0  0  0  0  0  0  0
    8.2319    6.2058   -0.9917 H   0  0  0  0  0  0  0  0  0  0  0  0
    9.0783    3.8360   -1.2690 H   0  0  0  0  0  0  0  0  0  0  0  0
    9.0639    4.7068   -2.8195 H   0  0  0  0  0  0  0  0  0  0  0  0
  1  2  1  0
  1 27  1  0
  1 28  1  0
  1 29  1  0
  2  3  1  0
  2 30  1  0
  2 31  1  0
  3  4  1  0
  3 32  1  0
  3 33  1  0
  4  5  1  0
  4 34  1  0
  4 35  1  0
  6  5  1  6
  5 36  1  0
  5 37  1  0
  6  7  2  0
  6  8  2  0
  6  9  1  0
  9 10  1  0
  9 26  1  0
 10 11  1  0
 10 38  1  0
 10 39  1  0
 11 12  1  0
 11 40  1  0
 11 41  1  0
 12 13  1  0
 12 25  1  0
 13 14  1  0
 13 15  1  0
 13 42  1  6
 14 43  1  0
 14 44  1  0
 14 45  1  0
 15 16  2  0
 15 17  1  0
 17 18  1  0
 17 46  1  0
 18 19  1  0
 18 24  1  0
 18 47  1  1
 19 20  1  0
 19 48  1  0
 19 49  1  0
 20 21  1  0
 20 50  1  0
 20 51  1  0
 21 22  1  0
 21 23  1  0
 21 52  1  6
 22 53  1  0
 22 54  1  0
 22 55  1  0
 23 24  1  0
 23 56  1  0
 23 57  1  0
 24 58  1  0
 24 59  1  0
 25 26  1  0
 25 60  1  0
 25 61  1  0
 26 62  1  0
 26 63  1  0
M  END

