
     RDKit          3D

 31 32  0  0  0  0  0  0  0  0999 V2000
    0.9863   -0.5202    0.4493 O   0  0  0  0  0  0  0  0  0  0  0  0
    2.0817   -0.0969    0.1770 C   0  0  0  0  0  0  0  0  0  0  0  0
    2.4826    0.0578   -1.0833 O   0  0  0  0  0  0  0  0  0  0  0  0
    3.1163    0.2663    1.2910 C   0  0  1  0  0  0  0  0  0  0  0  0
    2.3045    0.5451    2.4624 N   0  0  0  0  0  0  0  0  0  0  0  0
    2.6871    0.6277    3.7942 C   0  0  0  0  0  0  0  0  0  0  0  0
    3.9816    0.9673    4.2451 C   0  0  0  0  0  0  0  0  0  0  0  0
    4.2545    1.0676    5.6115 C   0  0  0  0  0  0  0  0  0  0  0  0
    3.2704    0.8486    6.5761 C   0  0  0  0  0  0  0  0  0  0  0  0
    1.9878    0.5179    6.1269 C   0  0  0  0  0  0  0  0  0  0  0  0
    0.6029    0.2060    7.4056 Br  0  0  0  0  0  0  0  0  0  0  0  0
    1.6897    0.4010    4.7737 C   0  0  0  0  0  0  0  0  0  0  0  0
    4.0778   -0.9495    1.4769 C   0  0  0  0  0  0  0  0  0  0  0  0
    5.0743   -1.1206    0.3201 C   0  0  0  0  0  0  0  0  0  0  0  0
    5.7212    0.2133   -0.0440 C   0  0  0  0  0  0  0  0  0  0  0  0
    4.7240    1.2075   -0.3041 O   0  0  0  0  0  0  0  0  0  0  0  0
    3.9339    1.5065    0.8461 C   0  0  0  0  0  0  0  0  0  0  0  0
    3.3703    0.4896   -1.1049 H   0  0  0  0  0  0  0  0  0  0  0  0
    1.3576    0.1992    2.3170 H   0  0  0  0  0  0  0  0  0  0  0  0
    4.7845    1.1693    3.5386 H   0  0  0  0  0  0  0  0  0  0  0  0
    5.2662    1.3324    5.9305 H   0  0  0  0  0  0  0  0  0  0  0  0
    3.4873    0.9335    7.6410 H   0  0  0  0  0  0  0  0  0  0  0  0
    0.6787    0.1339    4.4596 H   0  0  0  0  0  0  0  0  0  0  0  0
    3.4737   -1.8594    1.6181 H   0  0  0  0  0  0  0  0  0  0  0  0
    4.6320   -0.7957    2.4156 H   0  0  0  0  0  0  0  0  0  0  0  0
    4.5687   -1.5328   -0.5687 H   0  0  0  0  0  0  0  0  0  0  0  0
    5.8569   -1.8454    0.5989 H   0  0  0  0  0  0  0  0  0  0  0  0
    6.3278    0.1407   -0.9582 H   0  0  0  0  0  0  0  0  0  0  0  0
    6.3771    0.5715    0.7730 H   0  0  0  0  0  0  0  0  0  0  0  0
    3.2639    2.3351    0.5747 H   0  0  0  0  0  0  0  0  0  0  0  0
    4.5885    1.8551    1.6613 H   0  0  0  0  0  0  0  0  0  0  0  0
  1  2  2  0
  2  3  1  0
  4  2  1  6
  3 18  1  0
  4  5  1  0
  4 13  1  0
  4 17  1  0
  5  6  1  0
  5 19  1  0
  6  7  2  0
  6 12  1  0
  7  8  1  0
  7 20  1  0
  8  9  2  0
  8 21  1  0
  9 10  1  0
  9 22  1  0
 10 11  1  0
 10 12  2  0
 12 23  1  0
 13 14  1  0
 13 24  1  0
 13 25  1  0
 14 15  1  0
 14 26  1  0
 14 27  1  0
 15 16  1  0
 15 28  1  0
 15 29  1  0
 16 17  1  0
 17 30  1  0
 17 31  1  0
M  END

