
     RDKit          3D

 63 64  0  0  0  0  0  0  0  0999 V2000
   -0.0260    0.7408    2.0283 C   0  0  0  0  0  0  0  0  0  0  0  0
    1.3590    0.4990    1.7687 O   0  0  0  0  0  0  0  0  0  0  0  0
    1.8678    1.0570    0.6624 C   0  0  0  0  0  0  0  0  0  0  0  0
    1.2222    1.7341   -0.1040 O   0  0  0  0  0  0  0  0  0  0  0  0
    3.3549    0.7589    0.5126 C   0  0  1  0  0  0  0  0  0  0  0  0
    3.4984   -0.3299    0.6000 H   0  0  0  0  0  0  0  0  0  0  0  0
    3.7641    1.1506   -0.8207 N   0  0  0  0  0  0  0  0  0  0  0  0
    4.5057    0.3112   -1.6156 C   0  0  0  0  0  0  0  0  0  0  0  0
    4.9624   -0.7444   -1.1941 O   0  0  0  0  0  0  0  0  0  0  0  0
    4.7333    0.7607   -3.0303 C   0  0  0  0  0  0  0  0  0  0  0  0
    4.4684    2.0495   -3.4977 C   0  0  0  0  0  0  0  0  0  0  0  0
    4.7123    2.3793   -4.8375 C   0  0  0  0  0  0  0  0  0  0  0  0
    5.2254    1.4285   -5.7237 C   0  0  0  0  0  0  0  0  0  0  0  0
    5.4839    1.6497   -7.0322 O   0  0  0  0  0  0  0  0  0  0  0  0
    5.2242    2.9221   -7.5790 C   0  0  0  0  0  0  0  0  0  0  0  0
    5.5182    0.1154   -5.2501 C   0  0  0  0  0  0  0  0  0  0  0  0
    6.0445   -0.7245   -6.1705 O   0  0  0  0  0  0  0  0  0  0  0  0
    6.2726   -2.1107   -5.8751 C   0  0  1  0  0  0  0  0  0  0  0  0
    4.9616   -2.9067   -5.9606 C   0  0  0  0  0  0  0  0  0  0  0  0
    4.4356   -2.9563   -7.4093 C   0  0  0  0  0  0  0  0  0  0  0  0
    5.4054   -3.4766   -8.3751 N   0  0  0  0  0  0  0  0  0  0  0  0
    5.5563   -4.9433   -8.3802 C   0  0  1  0  0  0  0  0  0  0  0  0
    4.2728   -5.6077   -8.9027 C   0  0  0  0  0  0  0  0  0  0  0  0
    6.7382   -5.4018   -9.2422 C   0  0  0  0  0  0  0  0  0  0  0  0
    6.6174   -2.6584   -8.3208 C   0  0  0  0  0  0  0  0  0  0  0  0
    7.2698   -2.6050   -6.9270 C   0  0  0  0  0  0  0  0  0  0  0  0
    5.2682   -0.1950   -3.9169 C   0  0  0  0  0  0  0  0  0  0  0  0
    4.1750    1.4322    1.6555 C   0  0  1  0  0  0  0  0  0  0  0  0
    5.6440    0.9999    1.6055 C   0  0  0  0  0  0  0  0  0  0  0  0
    4.0405    2.9593    1.6409 C   0  0  0  0  0  0  0  0  0  0  0  0
   -0.2586    0.2105    2.9596 H   0  0  0  0  0  0  0  0  0  0  0  0
   -0.6481    0.3591    1.2050 H   0  0  0  0  0  0  0  0  0  0  0  0
   -0.2199    1.8179    2.1423 H   0  0  0  0  0  0  0  0  0  0  0  0
    3.1750    1.8482   -1.2638 H   0  0  0  0  0  0  0  0  0  0  0  0
    4.0919    2.8278   -2.8309 H   0  0  0  0  0  0  0  0  0  0  0  0
    4.5009    3.3913   -5.1825 H   0  0  0  0  0  0  0  0  0  0  0  0
    5.4999    2.8678   -8.6407 H   0  0  0  0  0  0  0  0  0  0  0  0
    5.8275    3.7100   -7.0925 H   0  0  0  0  0  0  0  0  0  0  0  0
    4.1559    3.1940   -7.4998 H   0  0  0  0  0  0  0  0  0  0  0  0
    6.7174   -2.1968   -4.8689 H   0  0  0  0  0  0  0  0  0  0  0  0
    4.2020   -2.4652   -5.2956 H   0  0  0  0  0  0  0  0  0  0  0  0
    5.1519   -3.9260   -5.5831 H   0  0  0  0  0  0  0  0  0  0  0  0
    4.1671   -1.9316   -7.7181 H   0  0  0  0  0  0  0  0  0  0  0  0
    3.5083   -3.5442   -7.4492 H   0  0  0  0  0  0  0  0  0  0  0  0
    5.7364   -5.3377   -7.3529 H   0  0  0  0  0  0  0  0  0  0  0  0
    4.0633   -5.2660   -9.9292 H   0  0  0  0  0  0  0  0  0  0  0  0
    3.3927   -5.3780   -8.2847 H   0  0  0  0  0  0  0  0  0  0  0  0
    4.3845   -6.7035   -8.9117 H   0  0  0  0  0  0  0  0  0  0  0  0
    6.6564   -4.9949  -10.2637 H   0  0  0  0  0  0  0  0  0  0  0  0
    6.7383   -6.5001   -9.3135 H   0  0  0  0  0  0  0  0  0  0  0  0
    7.7131   -5.1044   -8.8289 H   0  0  0  0  0  0  0  0  0  0  0  0
    6.3353   -1.6305   -8.6043 H   0  0  0  0  0  0  0  0  0  0  0  0
    7.3429   -2.9966   -9.0720 H   0  0  0  0  0  0  0  0  0  0  0  0
    8.1468   -1.9375   -6.9349 H   0  0  0  0  0  0  0  0  0  0  0  0
    7.6230   -3.6067   -6.6283 H   0  0  0  0  0  0  0  0  0  0  0  0
    5.4789   -1.1832   -3.5103 H   0  0  0  0  0  0  0  0  0  0  0  0
    3.7360    1.0515    2.5936 H   0  0  0  0  0  0  0  0  0  0  0  0
    6.1365    1.3723    0.6934 H   0  0  0  0  0  0  0  0  0  0  0  0
    5.7467   -0.0953    1.6094 H   0  0  0  0  0  0  0  0  0  0  0  0
    6.1919    1.4047    2.4718 H   0  0  0  0  0  0  0  0  0  0  0  0
    4.4317    3.3772    0.6988 H   0  0  0  0  0  0  0  0  0  0  0  0
    4.6151    3.4074    2.4668 H   0  0  0  0  0  0  0  0  0  0  0  0
    2.9947    3.2908    1.7468 H   0  0  0  0  0  0  0  0  0  0  0  0
  1  2  1  0
  1 31  1  0
  1 32  1  0
  1 33  1  0
  2  3  1  0
  3  4  2  0
  3  5  1  0
  5  6  1  6
  5  7  1  0
  5 28  1  0
  7  8  1  0
  7 34  1  0
  8  9  2  0
  8 10  1  0
 10 11  2  0
 10 27  1  0
 11 12  1  0
 11 35  1  0
 12 13  2  0
 12 36  1  0
 13 14  1  0
 13 16  1  0
 14 15  1  0
 15 37  1  0
 15 38  1  0
 15 39  1  0
 16 17  1  0
 16 27  2  0
 17 18  1  0
 18 19  1  0
 18 26  1  0
 18 40  1  1
 19 20  1  0
 19 41  1  0
 19 42  1  0
 20 21  1  0
 20 43  1  0
 20 44  1  0
 21 22  1  0
 21 25  1  0
 22 23  1  0
 22 24  1  0
 22 45  1  1
 23 46  1  0
 23 47  1  0
 23 48  1  0
 24 49  1  0
 24 50  1  0
 24 51  1  0
 25 26  1  0
 25 52  1  0
 25 53  1  0
 26 54  1  0
 26 55  1  0
 27 56  1  0
 28 29  1  0
 28 30  1  0
 28 57  1  1
 29 58  1  0
 29 59  1  0
 29 60  1  0
 30 61  1  0
 30 62  1  0
 30 63  1  0
M  END

