
     RDKit          3D

 44 44  0  0  0  0  0  0  0  0999 V2000
    2.4772   -1.7641   -1.7237 C   0  0  0  0  0  0  0  0  0  0  0  0
    2.3538   -0.5880   -0.7514 C   0  0  1  0  0  0  0  0  0  0  0  0
    0.8850   -0.2385   -0.4829 C   0  0  0  0  0  0  0  0  0  0  0  0
    3.0709   -0.8216    0.5953 C   0  0  0  0  0  0  0  0  0  0  0  0
    4.5100   -1.1148    0.5185 N   0  0  0  0  0  0  0  0  0  0  0  0
    5.3155   -0.0184    0.2534 C   0  0  0  0  0  0  0  0  0  0  0  0
    4.8474    1.0633   -0.0911 O   0  0  0  0  0  0  0  0  0  0  0  0
    6.6830   -0.1771    0.3742 N   0  0  0  0  0  0  0  0  0  0  0  0
    7.5681    0.9395    0.0936 C   0  0  1  0  0  0  0  0  0  0  0  0
    7.7529    1.8776    1.3017 C   0  0  0  0  0  0  0  0  0  0  0  0
    8.8949    0.3962   -0.3848 C   0  0  0  0  0  0  0  0  0  0  0  0
    9.5082   -0.6223    0.1481 N   0  0  0  0  0  0  0  0  0  0  0  0
   10.7185   -0.8696   -0.4581 C   0  0  0  0  0  0  0  0  0  0  0  0
   11.5683   -2.0053    0.0202 C   0  0  0  0  0  0  0  0  0  0  0  0
   12.6292   -2.2960   -0.4661 O   0  0  0  0  0  0  0  0  0  0  0  0
   11.0298   -2.6728    1.0535 O   0  0  0  0  0  0  0  0  0  0  0  0
   11.0501   -0.0178   -1.4800 C   0  0  0  0  0  0  0  0  0  0  0  0
    9.7890    1.1355   -1.6979 S   0  0  0  0  0  0  0  0  0  0  0  0
    5.0396   -2.3459    1.1373 C   0  0  1  0  0  0  0  0  0  0  0  0
    5.1229   -2.2308    2.6685 C   0  0  0  0  0  0  0  0  0  0  0  0
    4.2893   -3.6119    0.7077 C   0  0  0  0  0  0  0  0  0  0  0  0
    1.9906   -1.5267   -2.6836 H   0  0  0  0  0  0  0  0  0  0  0  0
    1.9947   -2.6742   -1.3262 H   0  0  0  0  0  0  0  0  0  0  0  0
    3.5305   -2.0021   -1.9372 H   0  0  0  0  0  0  0  0  0  0  0  0
    2.8371    0.2898   -1.2074 H   0  0  0  0  0  0  0  0  0  0  0  0
    0.3511   -1.0796   -0.0055 H   0  0  0  0  0  0  0  0  0  0  0  0
    0.3562   -0.0030   -1.4202 H   0  0  0  0  0  0  0  0  0  0  0  0
    0.7910    0.6368    0.1804 H   0  0  0  0  0  0  0  0  0  0  0  0
    2.5857   -1.6565    1.1225 H   0  0  0  0  0  0  0  0  0  0  0  0
    2.9238    0.0793    1.2140 H   0  0  0  0  0  0  0  0  0  0  0  0
    7.1051   -0.9954    0.7898 H   0  0  0  0  0  0  0  0  0  0  0  0
    7.1007    1.5205   -0.7150 H   0  0  0  0  0  0  0  0  0  0  0  0
    8.1999    1.3348    2.1491 H   0  0  0  0  0  0  0  0  0  0  0  0
    6.7698    2.2710    1.5974 H   0  0  0  0  0  0  0  0  0  0  0  0
    8.4080    2.7259    1.0478 H   0  0  0  0  0  0  0  0  0  0  0  0
   10.1797   -2.2445    1.2676 H   0  0  0  0  0  0  0  0  0  0  0  0
   11.9534   -0.0358   -2.0865 H   0  0  0  0  0  0  0  0  0  0  0  0
    6.0578   -2.4768    0.7394 H   0  0  0  0  0  0  0  0  0  0  0  0
    4.1185   -2.1208    3.1084 H   0  0  0  0  0  0  0  0  0  0  0  0
    5.7200   -1.3560    2.9702 H   0  0  0  0  0  0  0  0  0  0  0  0
    5.5845   -3.1294    3.1084 H   0  0  0  0  0  0  0  0  0  0  0  0
    3.2617   -3.6465    1.0999 H   0  0  0  0  0  0  0  0  0  0  0  0
    4.8164   -4.4958    1.0991 H   0  0  0  0  0  0  0  0  0  0  0  0
    4.2435   -3.6971   -0.3867 H   0  0  0  0  0  0  0  0  0  0  0  0
  1  2  1  0
  1 22  1  0
  1 23  1  0
  1 24  1  0
  2  3  1  0
  2  4  1  0
  2 25  1  6
  3 26  1  0
  3 27  1  0
  3 28  1  0
  4  5  1  0
  4 29  1  0
  4 30  1  0
  5  6  1  0
  5 19  1  0
  6  7  2  0
  6  8  1  0
  8  9  1  0
  8 31  1  0
  9 10  1  0
  9 11  1  0
  9 32  1  6
 10 33  1  0
 10 34  1  0
 10 35  1  0
 11 12  2  0
 11 18  1  0
 12 13  1  0
 13 14  1  0
 13 17  2  0
 14 15  2  0
 14 16  1  0
 16 36  1  0
 17 18  1  0
 17 37  1  0
 19 20  1  0
 19 21  1  0
 19 38  1  6
 20 39  1  0
 20 40  1  0
 20 41  1  0
 21 42  1  0
 21 43  1  0
 21 44  1  0
M  END

