
     RDKit          3D

 53 54  0  0  0  0  0  0  0  0999 V2000
    0.9987    0.2643    0.2828 C   0  0  0  0  0  0  0  0  0  0  0  0
    2.5127    0.3128    0.3745 C   0  0  0  0  0  0  0  0  0  0  0  0
    2.9887   -0.9580    0.7663 O   0  0  0  0  0  0  0  0  0  0  0  0
    4.3795   -1.0638    0.8658 C   0  0  1  0  0  0  0  0  0  0  0  0
    5.0768   -0.4643    2.1159 C   0  0  0  0  0  0  0  0  0  0  0  0
    5.8351   -1.8063    2.3205 C   0  0  2  0  0  0  0  0  0  0  0  0
    7.2804   -1.7754    2.0943 N   0  0  0  0  0  0  0  0  0  0  0  0
    7.9132   -0.8517    1.1600 C   0  0  0  0  0  0  0  0  0  0  0  0
    8.1678   -2.9921    2.8063 S   0  0  1  0  0  0  0  0  0  0  0  0
    7.4773   -4.2761    2.6704 O   0  0  0  0  0  0  0  0  0  0  0  0
    9.5488   -2.8473    2.3273 O   0  0  0  0  0  0  0  0  0  0  0  0
    8.0514   -2.6047    4.4520 N   0  0  0  0  0  0  0  0  0  0  0  0
    8.0759   -3.7192    5.4129 C   0  0  0  0  0  0  0  0  0  0  0  0
    9.5042   -4.0924    5.8213 C   0  0  0  0  0  0  0  0  0  0  0  0
   10.2575   -2.9105    6.2686 N   0  0  0  0  0  0  0  0  0  0  0  0
   10.2349   -2.5310    7.9164 S   0  0  1  0  0  0  0  0  0  0  0  0
   11.9033   -2.9320    8.4546 C   0  0  0  0  0  0  0  0  0  0  0  0
   10.0745   -1.0790    8.0551 O   0  0  0  0  0  0  0  0  0  0  0  0
    9.3269   -3.4630    8.5937 O   0  0  0  0  0  0  0  0  0  0  0  0
   10.2523   -1.7999    5.3043 C   0  0  0  0  0  0  0  0  0  0  0  0
    8.8210   -1.4328    4.8934 C   0  0  0  0  0  0  0  0  0  0  0  0
    4.9011   -2.4850    1.2397 C   0  0  1  0  0  0  0  0  0  0  0  0
    3.8337   -3.3432    1.9253 C   0  0  0  0  0  0  0  0  0  0  0  0
    5.5734   -3.2669    0.1139 C   0  0  0  0  0  0  0  0  0  0  0  0
    0.5976    1.2414   -0.0287 H   0  0  0  0  0  0  0  0  0  0  0  0
    0.5598    0.0020    1.2580 H   0  0  0  0  0  0  0  0  0  0  0  0
    0.6808   -0.4941   -0.4494 H   0  0  0  0  0  0  0  0  0  0  0  0
    2.8297    1.0884    1.1022 H   0  0  0  0  0  0  0  0  0  0  0  0
    2.9531    0.5978   -0.6045 H   0  0  0  0  0  0  0  0  0  0  0  0
    4.8528   -0.7000   -0.0701 H   0  0  0  0  0  0  0  0  0  0  0  0
    4.3606   -0.2818    2.9298 H   0  0  0  0  0  0  0  0  0  0  0  0
    5.6800    0.4427    1.9731 H   0  0  0  0  0  0  0  0  0  0  0  0
    5.6832   -2.2330    3.3209 H   0  0  0  0  0  0  0  0  0  0  0  0
    7.3699   -0.8281    0.2021 H   0  0  0  0  0  0  0  0  0  0  0  0
    8.9369   -1.1894    0.9633 H   0  0  0  0  0  0  0  0  0  0  0  0
    7.9539    0.1749    1.5628 H   0  0  0  0  0  0  0  0  0  0  0  0
    7.5508   -4.5760    4.9728 H   0  0  0  0  0  0  0  0  0  0  0  0
    7.5191   -3.3932    6.3076 H   0  0  0  0  0  0  0  0  0  0  0  0
   10.0441   -4.5261    4.9621 H   0  0  0  0  0  0  0  0  0  0  0  0
    9.4844   -4.8368    6.6276 H   0  0  0  0  0  0  0  0  0  0  0  0
   12.6142   -2.3116    7.8943 H   0  0  0  0  0  0  0  0  0  0  0  0
   12.0830   -4.0003    8.2800 H   0  0  0  0  0  0  0  0  0  0  0  0
   11.9493   -2.7012    9.5279 H   0  0  0  0  0  0  0  0  0  0  0  0
   10.8211   -2.1212    4.4177 H   0  0  0  0  0  0  0  0  0  0  0  0
   10.7510   -0.9298    5.7500 H   0  0  0  0  0  0  0  0  0  0  0  0
    8.8237   -0.6771    4.0944 H   0  0  0  0  0  0  0  0  0  0  0  0
    8.2958   -0.9965    5.7597 H   0  0  0  0  0  0  0  0  0  0  0  0
    3.3377   -2.8066    2.7488 H   0  0  0  0  0  0  0  0  0  0  0  0
    4.3006   -4.2529    2.3354 H   0  0  0  0  0  0  0  0  0  0  0  0
    3.0497   -3.6375    1.2116 H   0  0  0  0  0  0  0  0  0  0  0  0
    6.3234   -2.6680   -0.4251 H   0  0  0  0  0  0  0  0  0  0  0  0
    4.8188   -3.5905   -0.6221 H   0  0  0  0  0  0  0  0  0  0  0  0
    6.0802   -4.1593    0.5101 H   0  0  0  0  0  0  0  0  0  0  0  0
  1  2  1  0
  1 25  1  0
  1 26  1  0
  1 27  1  0
  2  3  1  0
  2 28  1  0
  2 29  1  0
  3  4  1  0
  4  5  1  0
  4 22  1  0
  4 30  1  6
  5  6  1  0
  5 31  1  0
  5 32  1  0
  6  7  1  0
  6 22  1  0
  6 33  1  1
  7  8  1  0
  9  7  1  6
  8 34  1  0
  8 35  1  0
  8 36  1  0
  9 10  2  0
  9 11  2  0
  9 12  1  0
 12 13  1  0
 12 21  1  0
 13 14  1  0
 13 37  1  0
 13 38  1  0
 14 15  1  0
 14 39  1  0
 14 40  1  0
 15 16  1  0
 15 20  1  0
 16 17  1  1
 16 18  2  0
 16 19  2  0
 17 41  1  0
 17 42  1  0
 17 43  1  0
 20 21  1  0
 20 44  1  0
 20 45  1  0
 21 46  1  0
 21 47  1  0
 22 23  1  1
 22 24  1  0
 23 48  1  0
 23 49  1  0
 23 50  1  0
 24 51  1  0
 24 52  1  0
 24 53  1  0
M  END

