
     RDKit          3D

 68 71  0  0  0  0  0  0  0  0999 V2000
    2.4211   -0.4071   -1.8810 C   0  0  0  0  0  0  0  0  0  0  0  0
    1.0501   -0.6059   -2.5217 C   0  0  0  0  0  0  0  0  0  0  0  0
   -0.0647   -0.2008   -1.6638 N   0  0  0  0  0  0  0  0  0  0  0  0
   -0.2134    1.2391   -1.5056 C   0  0  0  0  0  0  0  0  0  0  0  0
   -0.6478    1.5822   -0.0799 C   0  0  0  0  0  0  0  0  0  0  0  0
   -0.8894    2.9961    0.0693 O   0  0  0  0  0  0  0  0  0  0  0  0
   -2.1136    3.4532   -0.2243 C   0  0  0  0  0  0  0  0  0  0  0  0
   -3.0300    2.7627   -0.6048 O   0  0  0  0  0  0  0  0  0  0  0  0
   -2.1986    4.9673   -0.0475 C   0  0  1  0  0  0  0  0  0  0  0  0
   -1.3096    5.6708   -1.1176 C   0  0  0  0  0  0  0  0  0  0  0  0
   -1.1934    7.1619   -0.9161 C   0  0  0  0  0  0  0  0  0  0  0  0
   -1.9459    8.0102   -1.6707 C   0  0  0  0  0  0  0  0  0  0  0  0
   -1.9323    9.4641   -1.5042 C   0  0  0  0  0  0  0  0  0  0  0  0
   -2.5989   10.2554   -2.1525 O   0  0  0  0  0  0  0  0  0  0  0  0
   -1.0654    9.9045   -0.5053 N   0  0  0  0  0  0  0  0  0  0  0  0
   -1.0487   10.9119   -0.3725 H   0  0  0  0  0  0  0  0  0  0  0  0
   -0.2616    9.1083    0.2810 C   0  0  0  0  0  0  0  0  0  0  0  0
    0.5884    9.6794    1.2478 C   0  0  0  0  0  0  0  0  0  0  0  0
    1.4012    8.8686    2.0291 C   0  0  0  0  0  0  0  0  0  0  0  0
    1.3851    7.4746    1.8603 C   0  0  0  0  0  0  0  0  0  0  0  0
    0.5478    6.9056    0.9084 C   0  0  0  0  0  0  0  0  0  0  0  0
   -0.2951    7.6987    0.0999 C   0  0  0  0  0  0  0  0  0  0  0  0
   -3.5856    5.3589   -0.1033 N   0  0  0  0  0  0  0  0  0  0  0  0
   -4.1284    6.2501    0.7846 C   0  0  0  0  0  0  0  0  0  0  0  0
   -3.4404    6.8921    1.5641 O   0  0  0  0  0  0  0  0  0  0  0  0
   -5.6236    6.4100    0.7300 C   0  0  0  0  0  0  0  0  0  0  0  0
   -6.4932    5.4298    0.2261 C   0  0  0  0  0  0  0  0  0  0  0  0
   -7.8744    5.6311    0.2271 C   0  0  0  0  0  0  0  0  0  0  0  0
   -8.3907    6.8266    0.7359 C   0  0  0  0  0  0  0  0  0  0  0  0
  -10.1174    7.0883    0.7334 Cl  0  0  0  0  0  0  0  0  0  0  0  0
   -7.5423    7.8115    1.2537 C   0  0  0  0  0  0  0  0  0  0  0  0
   -6.1663    7.5929    1.2551 C   0  0  0  0  0  0  0  0  0  0  0  0
   -1.3207   -0.8590   -2.0146 C   0  0  0  0  0  0  0  0  0  0  0  0
   -1.3703   -2.3350   -1.6612 C   0  0  0  0  0  0  0  0  0  0  0  0
   -0.8359   -2.8052   -0.4511 C   0  0  0  0  0  0  0  0  0  0  0  0
   -0.9340   -4.1547   -0.1045 C   0  0  0  0  0  0  0  0  0  0  0  0
   -1.5699   -5.0587   -0.9624 C   0  0  0  0  0  0  0  0  0  0  0  0
   -2.1021   -4.6024   -2.1711 C   0  0  0  0  0  0  0  0  0  0  0  0
   -1.9985   -3.2512   -2.5171 C   0  0  0  0  0  0  0  0  0  0  0  0
    3.2147   -0.7532   -2.5622 H   0  0  0  0  0  0  0  0  0  0  0  0
    2.4967   -0.9777   -0.9422 H   0  0  0  0  0  0  0  0  0  0  0  0
    2.6288    0.6506   -1.6516 H   0  0  0  0  0  0  0  0  0  0  0  0
    0.9190   -1.6765   -2.7417 H   0  0  0  0  0  0  0  0  0  0  0  0
    1.0096   -0.0832   -3.5048 H   0  0  0  0  0  0  0  0  0  0  0  0
   -0.9424    1.6663   -2.2261 H   0  0  0  0  0  0  0  0  0  0  0  0
    0.7483    1.7353   -1.7029 H   0  0  0  0  0  0  0  0  0  0  0  0
    0.1522    1.3427    0.6327 H   0  0  0  0  0  0  0  0  0  0  0  0
   -1.5572    1.0326    0.1991 H   0  0  0  0  0  0  0  0  0  0  0  0
   -1.8172    5.2285    0.9512 H   0  0  0  0  0  0  0  0  0  0  0  0
   -1.7465    5.4695   -2.1078 H   0  0  0  0  0  0  0  0  0  0  0  0
   -0.3157    5.2003   -1.1000 H   0  0  0  0  0  0  0  0  0  0  0  0
   -2.6213    7.6405   -2.4441 H   0  0  0  0  0  0  0  0  0  0  0  0
    0.6001   10.7652    1.3748 H   0  0  0  0  0  0  0  0  0  0  0  0
    2.0559    9.3226    2.7771 H   0  0  0  0  0  0  0  0  0  0  0  0
    2.0261    6.8391    2.4750 H   0  0  0  0  0  0  0  0  0  0  0  0
    0.5443    5.8208    0.7886 H   0  0  0  0  0  0  0  0  0  0  0  0
   -4.1836    4.7989   -0.6998 H   0  0  0  0  0  0  0  0  0  0  0  0
   -6.1083    4.4766   -0.1456 H   0  0  0  0  0  0  0  0  0  0  0  0
   -8.5513    4.8659   -0.1558 H   0  0  0  0  0  0  0  0  0  0  0  0
   -7.9638    8.7360    1.6516 H   0  0  0  0  0  0  0  0  0  0  0  0
   -5.4830    8.3383    1.6660 H   0  0  0  0  0  0  0  0  0  0  0  0
   -1.5586   -0.7350   -3.0951 H   0  0  0  0  0  0  0  0  0  0  0  0
   -2.1350   -0.3442   -1.4763 H   0  0  0  0  0  0  0  0  0  0  0  0
   -0.3309   -2.0988    0.2116 H   0  0  0  0  0  0  0  0  0  0  0  0
   -0.5116   -4.5042    0.8415 H   0  0  0  0  0  0  0  0  0  0  0  0
   -1.6458   -6.1149   -0.6913 H   0  0  0  0  0  0  0  0  0  0  0  0
   -2.5953   -5.3012   -2.8520 H   0  0  0  0  0  0  0  0  0  0  0  0
   -2.4120   -2.9026   -3.4684 H   0  0  0  0  0  0  0  0  0  0  0  0
  1  2  1  0
  1 40  1  0
  1 41  1  0
  1 42  1  0
  2  3  1  0
  2 43  1  0
  2 44  1  0
  3  4  1  0
  3 33  1  0
  4  5  1  0
  4 45  1  0
  4 46  1  0
  5  6  1  0
  5 47  1  0
  5 48  1  0
  6  7  1  0
  7  8  2  0
  7  9  1  0
  9 10  1  0
  9 23  1  0
  9 49  1  1
 10 11  1  0
 10 50  1  0
 10 51  1  0
 11 12  2  0
 11 22  1  0
 12 13  1  0
 12 52  1  0
 13 14  2  0
 13 15  1  0
 15 16  1  0
 15 17  1  0
 17 18  1  0
 17 22  2  0
 18 19  2  0
 18 53  1  0
 19 20  1  0
 19 54  1  0
 20 21  2  0
 20 55  1  0
 21 22  1  0
 21 56  1  0
 23 24  1  0
 23 57  1  0
 24 25  2  0
 24 26  1  0
 26 27  2  0
 26 32  1  0
 27 28  1  0
 27 58  1  0
 28 29  2  0
 28 59  1  0
 29 30  1  0
 29 31  1  0
 31 32  2  0
 31 60  1  0
 32 61  1  0
 33 34  1  0
 33 62  1  0
 33 63  1  0
 34 35  2  0
 34 39  1  0
 35 36  1  0
 35 64  1  0
 36 37  2  0
 36 65  1  0
 37 38  1  0
 37 66  1  0
 38 39  2  0
 38 67  1  0
 39 68  1  0
M  END

