
     RDKit          3D

 50 53  0  0  0  0  0  0  0  0999 V2000
    4.3944   -0.8019   -0.2122 C   0  0  0  0  0  0  0  0  0  0  0  0
    3.0775   -0.2654    0.3507 C   0  0  1  0  0  0  0  0  0  0  0  0
    2.3596   -1.2651    1.2587 C   0  0  0  0  0  0  0  0  0  0  0  0
    3.2993    1.0187    1.0624 N   0  0  0  0  0  0  0  0  0  0  0  0
    4.0906    0.9610    2.1272 N   0  0  0  0  0  0  0  0  0  0  0  0
    4.3659    2.0177    2.8400 C   0  0  0  0  0  0  0  0  0  0  0  0
    5.2816    1.7638    4.0086 C   0  0  0  0  0  0  0  0  0  0  0  0
    5.6824    2.6224    4.7904 O   0  0  0  0  0  0  0  0  0  0  0  0
    5.6536    0.4659    4.1527 N   0  0  0  0  0  0  0  0  0  0  0  0
    6.5055    0.1322    5.1745 N   0  0  0  0  0  0  0  0  0  0  0  0
    6.9685   -1.1446    5.2521 C   0  0  0  0  0  0  0  0  0  0  0  0
    6.6366   -1.9870    4.4252 O   0  0  0  0  0  0  0  0  0  0  0  0
    7.8813   -1.4096    6.4209 C   0  0  0  0  0  0  0  0  0  0  0  0
    7.5960   -0.8486    7.6315 C   0  0  0  0  0  0  0  0  0  0  0  0
    8.4217   -1.0607    8.8239 C   0  0  0  0  0  0  0  0  0  0  0  0
    8.2027   -0.5778    9.9223 O   0  0  0  0  0  0  0  0  0  0  0  0
    9.5207   -1.8853    8.5992 N   0  0  0  0  0  0  0  0  0  0  0  0
   10.1059   -2.0424    9.4156 H   0  0  0  0  0  0  0  0  0  0  0  0
    9.8592   -2.4885    7.4055 C   0  0  0  0  0  0  0  0  0  0  0  0
   11.0058   -3.3011    7.3173 C   0  0  0  0  0  0  0  0  0  0  0  0
   11.3388   -3.9040    6.1119 C   0  0  0  0  0  0  0  0  0  0  0  0
   10.5366   -3.7113    4.9745 C   0  0  0  0  0  0  0  0  0  0  0  0
    9.4036   -2.9123    5.0509 C   0  0  0  0  0  0  0  0  0  0  0  0
    9.0398   -2.2791    6.2613 C   0  0  0  0  0  0  0  0  0  0  0  0
    3.8253    3.3298    2.5188 C   0  0  0  0  0  0  0  0  0  0  0  0
    4.0814    4.5144    3.2482 C   0  0  0  0  0  0  0  0  0  0  0  0
    3.5059    5.7131    2.8456 C   0  0  0  0  0  0  0  0  0  0  0  0
    2.6674    5.7717    1.7179 C   0  0  0  0  0  0  0  0  0  0  0  0
    2.4057    4.6186    0.9904 C   0  0  0  0  0  0  0  0  0  0  0  0
    2.9792    3.3972    1.3835 C   0  0  0  0  0  0  0  0  0  0  0  0
    2.6793    2.1926    0.5884 C   0  0  0  0  0  0  0  0  0  0  0  0
    1.9626    2.1755   -0.3983 O   0  0  0  0  0  0  0  0  0  0  0  0
    4.2057   -1.7158   -0.7963 H   0  0  0  0  0  0  0  0  0  0  0  0
    5.1017   -1.0514    0.5939 H   0  0  0  0  0  0  0  0  0  0  0  0
    4.8700   -0.0654   -0.8782 H   0  0  0  0  0  0  0  0  0  0  0  0
    2.4147    0.0111   -0.4789 H   0  0  0  0  0  0  0  0  0  0  0  0
    2.9794   -1.5306    2.1291 H   0  0  0  0  0  0  0  0  0  0  0  0
    2.1422   -2.1882    0.6996 H   0  0  0  0  0  0  0  0  0  0  0  0
    1.4047   -0.8553    1.6223 H   0  0  0  0  0  0  0  0  0  0  0  0
    5.3883   -0.2884    3.5250 H   0  0  0  0  0  0  0  0  0  0  0  0
    6.7972    0.9228    5.7443 H   0  0  0  0  0  0  0  0  0  0  0  0
    6.7153   -0.2241    7.7884 H   0  0  0  0  0  0  0  0  0  0  0  0
   11.6261   -3.4499    8.2051 H   0  0  0  0  0  0  0  0  0  0  0  0
   12.2302   -4.5336    6.0536 H   0  0  0  0  0  0  0  0  0  0  0  0
   10.7996   -4.1935    4.0307 H   0  0  0  0  0  0  0  0  0  0  0  0
    8.7633   -2.7791    4.1802 H   0  0  0  0  0  0  0  0  0  0  0  0
    4.7314    4.4639    4.1193 H   0  0  0  0  0  0  0  0  0  0  0  0
    3.7100    6.6225    3.4165 H   0  0  0  0  0  0  0  0  0  0  0  0
    2.2233    6.7233    1.4157 H   0  0  0  0  0  0  0  0  0  0  0  0
    1.7605    4.6242    0.1103 H   0  0  0  0  0  0  0  0  0  0  0  0
  1  2  1  0
  1 33  1  0
  1 34  1  0
  1 35  1  0
  2  3  1  0
  2  4  1  0
  2 36  1  6
  3 37  1  0
  3 38  1  0
  3 39  1  0
  4  5  1  0
  4 31  1  0
  5  6  2  0
  6  7  1  0
  6 25  1  0
  7  8  2  0
  7  9  1  0
  9 10  1  0
  9 40  1  0
 10 11  1  0
 10 41  1  0
 11 12  2  0
 11 13  1  0
 13 14  2  0
 13 24  1  0
 14 15  1  0
 14 42  1  0
 15 16  2  0
 15 17  1  0
 17 18  1  0
 17 19  1  0
 19 20  1  0
 19 24  2  0
 20 21  2  0
 20 43  1  0
 21 22  1  0
 21 44  1  0
 22 23  2  0
 22 45  1  0
 23 24  1  0
 23 46  1  0
 25 26  1  0
 25 30  2  0
 26 27  2  0
 26 47  1  0
 27 28  1  0
 27 48  1  0
 28 29  2  0
 28 49  1  0
 29 30  1  0
 29 50  1  0
 30 31  1  0
 31 32  2  0
M  END

