
     RDKit          3D

 38 38  0  0  0  0  0  0  0  0999 V2000
    1.7207   -0.3999    0.3649 C   0  0  0  0  0  0  0  0  0  0  0  0
    2.7310    0.4005   -0.4544 C   0  0  0  0  0  0  0  0  0  0  0  0
    3.1951    1.6287    0.2154 N   0  0  0  0  0  0  0  0  0  0  0  0
    2.8838    2.8843   -0.4189 C   0  0  0  0  0  0  0  0  0  0  0  0
    1.4579    3.3779   -0.1911 C   0  0  1  0  0  0  0  0  0  0  0  0
    0.5437    2.5428   -0.7235 F   0  0  0  0  0  0  0  0  0  0  0  0
    1.1635    3.5123    1.1084 F   0  0  0  0  0  0  0  0  0  0  0  0
    1.2925    4.5768   -0.7795 F   0  0  0  0  0  0  0  0  0  0  0  0
    4.1740    1.4588    1.1980 C   0  0  0  0  0  0  0  0  0  0  0  0
    4.6309    0.3157    1.3635 O   0  0  0  0  0  0  0  0  0  0  0  0
    4.6738    2.5528    2.0180 C   0  0  0  0  0  0  0  0  0  0  0  0
    4.0137    4.1915    2.2832 S   0  0  0  0  0  0  0  0  0  0  0  0
    5.2845    4.4741    3.4656 C   0  0  0  0  0  0  0  0  0  0  0  0
    5.3961    5.6746    4.0790 N   0  0  0  0  0  0  0  0  0  0  0  0
    6.3142    5.9213    5.1751 C   0  0  0  0  0  0  0  0  0  0  0  0
    6.6859    7.3931    5.2131 C   0  0  0  0  0  0  0  0  0  0  0  0
    5.4937    8.1384    5.3105 O   0  0  0  0  0  0  0  0  0  0  0  0
    5.6794    9.5309    5.3066 C   0  0  0  0  0  0  0  0  0  0  0  0
    6.0896    3.4665    3.6814 N   0  0  0  0  0  0  0  0  0  0  0  0
    5.7586    2.3888    2.9054 C   0  0  0  0  0  0  0  0  0  0  0  0
    6.4828    1.2588    3.0321 N   0  0  0  0  0  0  0  0  0  0  0  0
    1.4089   -1.2979   -0.1933 H   0  0  0  0  0  0  0  0  0  0  0  0
    0.8225    0.1967    0.5852 H   0  0  0  0  0  0  0  0  0  0  0  0
    2.1724   -0.7287    1.3118 H   0  0  0  0  0  0  0  0  0  0  0  0
    2.2811    0.7028   -1.4112 H   0  0  0  0  0  0  0  0  0  0  0  0
    3.6080   -0.2277   -0.6722 H   0  0  0  0  0  0  0  0  0  0  0  0
    3.0131    2.8148   -1.5141 H   0  0  0  0  0  0  0  0  0  0  0  0
    3.5582    3.6797   -0.0778 H   0  0  0  0  0  0  0  0  0  0  0  0
    4.6606    6.3623    3.9596 H   0  0  0  0  0  0  0  0  0  0  0  0
    7.2090    5.3004    5.0293 H   0  0  0  0  0  0  0  0  0  0  0  0
    5.8639    5.6308    6.1436 H   0  0  0  0  0  0  0  0  0  0  0  0
    7.2431    7.6704    4.2943 H   0  0  0  0  0  0  0  0  0  0  0  0
    7.3502    7.5877    6.0800 H   0  0  0  0  0  0  0  0  0  0  0  0
    4.6890   10.0028    5.3796 H   0  0  0  0  0  0  0  0  0  0  0  0
    6.1715    9.8803    4.3767 H   0  0  0  0  0  0  0  0  0  0  0  0
    6.2942    9.8665    6.1655 H   0  0  0  0  0  0  0  0  0  0  0  0
    7.1754    1.2134    3.7660 H   0  0  0  0  0  0  0  0  0  0  0  0
    6.1164    0.4371    2.5536 H   0  0  0  0  0  0  0  0  0  0  0  0
  1  2  1  0
  1 22  1  0
  1 23  1  0
  1 24  1  0
  2  3  1  0
  2 25  1  0
  2 26  1  0
  3  4  1  0
  3  9  1  0
  4  5  1  0
  4 27  1  0
  4 28  1  0
  5  6  1  6
  5  7  1  0
  5  8  1  0
  9 10  2  0
  9 11  1  0
 11 12  1  0
 11 20  2  0
 12 13  1  0
 13 14  1  0
 13 19  2  0
 14 15  1  0
 14 29  1  0
 15 16  1  0
 15 30  1  0
 15 31  1  0
 16 17  1  0
 16 32  1  0
 16 33  1  0
 17 18  1  0
 18 34  1  0
 18 35  1  0
 18 36  1  0
 19 20  1  0
 20 21  1  0
 21 37  1  0
 21 38  1  0
M  END

