
     RDKit          3D

 36 35  0  0  0  0  0  0  0  0999 V2000
    0.9453    0.0452    0.1317 C   0  0  0  0  0  0  0  0  0  0  0  0
    2.4710   -0.0143    0.0458 C   0  0  0  0  0  0  0  0  0  0  0  0
    3.0284    0.4490   -1.3039 C   0  0  0  0  0  0  0  0  0  0  0  0
    4.5558    0.3929   -1.3977 C   0  0  0  0  0  0  0  0  0  0  0  0
    5.1118    0.8553   -2.7476 C   0  0  0  0  0  0  0  0  0  0  0  0
    6.6466    0.8015   -2.8332 C   0  0  0  0  0  0  0  0  0  0  0  0
    7.1872    1.2098   -4.1756 C   0  0  0  0  0  0  0  0  0  0  0  0
    8.0005    2.2479   -4.4070 C   0  0  0  0  0  0  0  0  0  0  0  0
    8.5268    2.6816   -5.7533 C   0  0  1  0  0  0  0  0  0  0  0  0
    8.0115    4.0879   -6.1065 C   0  0  0  0  0  0  0  0  0  0  0  0
   10.0705    2.6377   -5.8075 C   0  0  0  0  0  0  0  0  0  0  0  0
   10.6744    1.2430   -5.6440 C   0  0  0  0  0  0  0  0  0  0  0  0
    0.5804   -0.2945    1.1143 H   0  0  0  0  0  0  0  0  0  0  0  0
    0.4751   -0.5924   -0.6359 H   0  0  0  0  0  0  0  0  0  0  0  0
    0.5746    1.0724   -0.0234 H   0  0  0  0  0  0  0  0  0  0  0  0
    2.8117   -1.0472    0.2432 H   0  0  0  0  0  0  0  0  0  0  0  0
    2.9102    0.6034    0.8505 H   0  0  0  0  0  0  0  0  0  0  0  0
    2.6882    1.4827   -1.5027 H   0  0  0  0  0  0  0  0  0  0  0  0
    2.5900   -0.1689   -2.1100 H   0  0  0  0  0  0  0  0  0  0  0  0
    4.8962   -0.6405   -1.1981 H   0  0  0  0  0  0  0  0  0  0  0  0
    4.9935    1.0115   -0.5920 H   0  0  0  0  0  0  0  0  0  0  0  0
    4.7766    1.8878   -2.9533 H   0  0  0  0  0  0  0  0  0  0  0  0
    4.6799    0.2335   -3.5537 H   0  0  0  0  0  0  0  0  0  0  0  0
    6.9719   -0.2327   -2.6083 H   0  0  0  0  0  0  0  0  0  0  0  0
    7.0843    1.4398   -2.0458 H   0  0  0  0  0  0  0  0  0  0  0  0
    6.8625    0.5983   -5.0298 H   0  0  0  0  0  0  0  0  0  0  0  0
    8.3230    2.8643   -3.5541 H   0  0  0  0  0  0  0  0  0  0  0  0
    8.1425    1.9751   -6.5124 H   0  0  0  0  0  0  0  0  0  0  0  0
    8.3613    4.8332   -5.3718 H   0  0  0  0  0  0  0  0  0  0  0  0
    6.9108    4.1192   -6.1147 H   0  0  0  0  0  0  0  0  0  0  0  0
    8.3712    4.4056   -7.0991 H   0  0  0  0  0  0  0  0  0  0  0  0
   10.4714    3.3118   -5.0274 H   0  0  0  0  0  0  0  0  0  0  0  0
   10.3965    3.0682   -6.7711 H   0  0  0  0  0  0  0  0  0  0  0  0
   10.3957    0.7921   -4.6785 H   0  0  0  0  0  0  0  0  0  0  0  0
   11.7745    1.2757   -5.6961 H   0  0  0  0  0  0  0  0  0  0  0  0
   10.3244    0.5611   -6.4375 H   0  0  0  0  0  0  0  0  0  0  0  0
  1  2  1  0
  1 13  1  0
  1 14  1  0
  1 15  1  0
  2  3  1  0
  2 16  1  0
  2 17  1  0
  3  4  1  0
  3 18  1  0
  3 19  1  0
  4  5  1  0
  4 20  1  0
  4 21  1  0
  5  6  1  0
  5 22  1  0
  5 23  1  0
  6  7  1  0
  6 24  1  0
  6 25  1  0
  7  8  2  0
  7 26  1  0
  8  9  1  0
  8 27  1  0
  9 10  1  0
  9 11  1  0
  9 28  1  6
 10 29  1  0
 10 30  1  0
 10 31  1  0
 11 12  1  0
 11 32  1  0
 11 33  1  0
 12 34  1  0
 12 35  1  0
 12 36  1  0
M  END

