
     RDKit          3D

 62 66  0  0  0  0  0  0  0  0999 V2000
    5.4827    6.0365    3.7717 C   0  0  0  0  0  0  0  0  0  0  0  0
    6.7249    6.6936    3.6573 O   0  0  0  0  0  0  0  0  0  0  0  0
    7.6754    6.1781    2.8335 C   0  0  0  0  0  0  0  0  0  0  0  0
    7.5315    4.9943    2.0977 C   0  0  0  0  0  0  0  0  0  0  0  0
    8.5517    4.5519    1.2492 C   0  0  0  0  0  0  0  0  0  0  0  0
    9.7394    5.2789    1.1158 C   0  0  0  0  0  0  0  0  0  0  0  0
   10.8434    4.8010    0.1858 C   0  0  0  0  0  0  0  0  0  0  0  0
   10.3751    4.7754   -1.2565 C   0  0  0  0  0  0  0  0  0  0  0  0
    9.8548    3.8318   -1.8006 O   0  0  0  0  0  0  0  0  0  0  0  0
   10.5836    5.9630   -1.8656 O   0  0  0  0  0  0  0  0  0  0  0  0
   10.1350    6.0981   -3.2163 C   0  0  0  0  0  0  0  0  0  0  0  0
    8.6427    6.4238   -3.2992 C   0  0  1  0  0  0  0  0  0  0  0  0
    8.0652    5.5656   -2.9302 H   0  0  0  0  0  0  0  0  0  0  0  0
    8.2734    7.5504   -2.4920 O   0  0  0  0  0  0  0  0  0  0  0  0
    8.2579    8.7212   -3.2564 C   0  0  1  0  0  0  0  0  0  0  0  0
    7.4729    9.3818   -2.8572 H   0  0  0  0  0  0  0  0  0  0  0  0
    9.5614    9.4073   -3.1516 N   0  0  0  0  0  0  0  0  0  0  0  0
   10.3995    9.3346   -2.0459 C   0  0  0  0  0  0  0  0  0  0  0  0
   11.4097   10.1651   -2.0934 N   0  0  0  0  0  0  0  0  0  0  0  0
   11.2339   10.8485   -3.2762 C   0  0  0  0  0  0  0  0  0  0  0  0
   11.9726   11.8807   -3.9045 C   0  0  0  0  0  0  0  0  0  0  0  0
   13.0985   12.3889   -3.3568 N   0  0  0  0  0  0  0  0  0  0  0  0
   11.5348   12.3620   -5.0785 N   0  0  0  0  0  0  0  0  0  0  0  0
   10.4205   11.8465   -5.6126 C   0  0  0  0  0  0  0  0  0  0  0  0
    9.6421   10.8788   -5.1262 N   0  0  0  0  0  0  0  0  0  0  0  0
   10.0869   10.4080   -3.9544 C   0  0  0  0  0  0  0  0  0  0  0  0
    7.9058    8.2999   -4.6937 C   0  0  2  0  0  0  0  0  0  0  0  0
    8.4338    8.9018   -5.4467 H   0  0  0  0  0  0  0  0  0  0  0  0
    6.5032    8.3780   -4.8534 O   0  0  0  0  0  0  0  0  0  0  0  0
    6.0407    7.1816   -5.4642 C   0  0  1  0  0  0  0  0  0  0  0  0
    4.6670    6.8498   -4.9074 C   0  0  0  0  0  0  0  0  0  0  0  0
    6.0586    7.3118   -6.9894 C   0  0  0  0  0  0  0  0  0  0  0  0
    6.9612    6.1748   -5.0440 O   0  0  0  0  0  0  0  0  0  0  0  0
    8.2015    6.7730   -4.7326 C   0  0  2  0  0  0  0  0  0  0  0  0
    8.9654    6.5007   -5.4823 H   0  0  0  0  0  0  0  0  0  0  0  0
    9.8841    6.4581    1.8613 C   0  0  0  0  0  0  0  0  0  0  0  0
    8.8797    6.9155    2.7163 C   0  0  0  0  0  0  0  0  0  0  0  0
    9.0680    8.1017    3.3640 O   0  0  0  0  0  0  0  0  0  0  0  0
    9.1087    8.0822    4.7832 C   0  0  0  0  0  0  0  0  0  0  0  0
    4.8738    6.6370    4.4608 H   0  0  0  0  0  0  0  0  0  0  0  0
    5.5908    5.0174    4.1855 H   0  0  0  0  0  0  0  0  0  0  0  0
    4.9633    5.9713    2.7989 H   0  0  0  0  0  0  0  0  0  0  0  0
    6.6144    4.4097    2.1719 H   0  0  0  0  0  0  0  0  0  0  0  0
    8.4111    3.6323    0.6759 H   0  0  0  0  0  0  0  0  0  0  0  0
   11.1420    3.7727    0.4399 H   0  0  0  0  0  0  0  0  0  0  0  0
   11.7199    5.4574    0.2715 H   0  0  0  0  0  0  0  0  0  0  0  0
   10.3198    5.1622   -3.7659 H   0  0  0  0  0  0  0  0  0  0  0  0
   10.7496    6.9010   -3.6460 H   0  0  0  0  0  0  0  0  0  0  0  0
   10.1999    8.6124   -1.2559 H   0  0  0  0  0  0  0  0  0  0  0  0
   13.4189   12.0518   -2.4598 H   0  0  0  0  0  0  0  0  0  0  0  0
   13.5772   13.1450   -3.8271 H   0  0  0  0  0  0  0  0  0  0  0  0
   10.1110   12.2766   -6.5728 H   0  0  0  0  0  0  0  0  0  0  0  0
    3.9466    7.6358   -5.1769 H   0  0  0  0  0  0  0  0  0  0  0  0
    4.7297    6.7790   -3.8127 H   0  0  0  0  0  0  0  0  0  0  0  0
    4.3147    5.8898   -5.3115 H   0  0  0  0  0  0  0  0  0  0  0  0
    5.3761    8.1117   -7.3128 H   0  0  0  0  0  0  0  0  0  0  0  0
    5.7483    6.3654   -7.4566 H   0  0  0  0  0  0  0  0  0  0  0  0
    7.0700    7.5579   -7.3476 H   0  0  0  0  0  0  0  0  0  0  0  0
   10.7920    7.0620    1.7914 H   0  0  0  0  0  0  0  0  0  0  0  0
    9.3399    9.1079    5.1036 H   0  0  0  0  0  0  0  0  0  0  0  0
    9.9048    7.4077    5.1492 H   0  0  0  0  0  0  0  0  0  0  0  0
    8.1458    7.7741    5.2189 H   0  0  0  0  0  0  0  0  0  0  0  0
  1  2  1  0
  1 40  1  0
  1 41  1  0
  1 42  1  0
  2  3  1  0
  3  4  2  0
  3 37  1  0
  4  5  1  0
  4 43  1  0
  5  6  2  0
  5 44  1  0
  6  7  1  0
  6 36  1  0
  7  8  1  0
  7 45  1  0
  7 46  1  0
  8  9  2  0
  8 10  1  0
 10 11  1  0
 11 12  1  0
 11 47  1  0
 11 48  1  0
 12 13  1  1
 12 14  1  0
 12 34  1  0
 14 15  1  0
 15 16  1  1
 15 17  1  0
 15 27  1  0
 17 18  1  0
 17 26  1  0
 18 19  2  0
 18 49  1  0
 19 20  1  0
 20 21  1  0
 20 26  2  0
 21 22  1  0
 21 23  2  0
 22 50  1  0
 22 51  1  0
 23 24  1  0
 24 25  2  0
 24 52  1  0
 25 26  1  0
 27 28  1  6
 27 29  1  0
 27 34  1  0
 29 30  1  0
 30 31  1  1
 30 32  1  0
 30 33  1  0
 31 53  1  0
 31 54  1  0
 31 55  1  0
 32 56  1  0
 32 57  1  0
 32 58  1  0
 33 34  1  0
 34 35  1  6
 36 37  2  0
 36 59  1  0
 37 38  1  0
 38 39  1  0
 39 60  1  0
 39 61  1  0
 39 62  1  0
M  END

