
     RDKit          3D

 29 29  0  0  0  0  0  0  0  0999 V2000
    1.3965    0.3799   -1.0004 C   0  0  0  0  0  0  0  0  0  0  0  0
    2.6635    0.1056   -0.2355 C   0  0  0  0  0  0  0  0  0  0  0  0
    3.6225    1.1289    0.0625 C   0  0  0  0  0  0  0  0  0  0  0  0
    4.7348    0.6634    0.7151 C   0  0  0  0  0  0  0  0  0  0  0  0
    4.6670   -1.0402    0.9614 S   0  0  0  0  0  0  0  0  0  0  0  0
    3.0886   -1.1318    0.2222 C   0  0  0  0  0  0  0  0  0  0  0  0
    2.5170   -2.4999    0.0398 C   0  0  0  0  0  0  0  0  0  0  0  0
    3.2261   -3.4163   -0.3595 O   0  0  0  0  0  0  0  0  0  0  0  0
    1.1829   -2.7005    0.3372 N   0  0  0  0  0  0  0  0  0  0  0  0
    0.3774   -1.8201    1.1694 C   0  0  0  0  0  0  0  0  0  0  0  0
    0.6442   -4.0166    0.0006 C   0  0  1  0  0  0  0  0  0  0  0  0
    0.7228   -4.9858    1.1924 C   0  0  0  0  0  0  0  0  0  0  0  0
   -0.7224   -3.9116   -0.6966 C   0  0  0  0  0  0  0  0  0  0  0  0
   -1.6282   -4.8438   -0.3473 N   0  0  0  0  0  0  0  0  0  0  0  0
   -1.0468   -2.7826   -1.8700 S   0  0  0  0  0  0  0  0  0  0  0  0
    1.6127    1.0044   -1.8821 H   0  0  0  0  0  0  0  0  0  0  0  0
    0.6712    0.9389   -0.3842 H   0  0  0  0  0  0  0  0  0  0  0  0
    0.9063   -0.5397   -1.3479 H   0  0  0  0  0  0  0  0  0  0  0  0
    3.4829    2.1756   -0.2155 H   0  0  0  0  0  0  0  0  0  0  0  0
    5.5978    1.2334    1.0577 H   0  0  0  0  0  0  0  0  0  0  0  0
    1.0015   -1.0144    1.5713 H   0  0  0  0  0  0  0  0  0  0  0  0
   -0.0387   -2.3795    2.0250 H   0  0  0  0  0  0  0  0  0  0  0  0
   -0.4588   -1.3812    0.6039 H   0  0  0  0  0  0  0  0  0  0  0  0
    1.3276   -4.4098   -0.7687 H   0  0  0  0  0  0  0  0  0  0  0  0
    0.0717   -4.6897    2.0309 H   0  0  0  0  0  0  0  0  0  0  0  0
    1.7613   -5.0127    1.5506 H   0  0  0  0  0  0  0  0  0  0  0  0
    0.4663   -6.0152    0.8940 H   0  0  0  0  0  0  0  0  0  0  0  0
   -1.4524   -5.5345    0.3714 H   0  0  0  0  0  0  0  0  0  0  0  0
   -2.5207   -4.8498   -0.8287 H   0  0  0  0  0  0  0  0  0  0  0  0
  1  2  1  0
  1 16  1  0
  1 17  1  0
  1 18  1  0
  2  3  2  0
  2  6  1  0
  3  4  1  0
  3 19  1  0
  4  5  2  0
  4 20  1  0
  5  6  1  0
  6  7  2  0
  7  8  1  0
  7  9  1  0
  9 10  1  0
  9 11  1  0
 10 21  1  0
 10 22  1  0
 10 23  1  0
 11 12  1  0
 11 13  1  0
 11 24  1  6
 12 25  1  0
 12 26  1  0
 12 27  1  0
 13 14  1  0
 13 15  2  0
 14 28  1  0
 14 29  1  0
M  CHG  2   5   1   8  -1
M  END

