
     RDKit          3D

 35 36  0  0  0  0  0  0  0  0999 V2000
    0.1253   -1.3935   -1.4229 O   0  0  0  0  0  0  0  0  0  0  0  0
    0.9449   -1.2699   -0.5504 C   0  0  0  0  0  0  0  0  0  0  0  0
    0.6664   -0.7264    0.6447 O   0  0  0  0  0  0  0  0  0  0  0  0
    2.3615   -1.6988   -0.6830 C   0  0  0  0  0  0  0  0  0  0  0  0
    3.0203   -2.2967   -1.7418 C   0  0  0  0  0  0  0  0  0  0  0  0
    4.2844   -2.4628   -1.2861 N   0  0  0  0  0  0  0  0  0  0  0  0
    5.4523   -2.9942   -1.9780 C   0  0  0  0  0  0  0  0  0  0  0  0
    6.3676   -1.8897   -2.5175 C   0  0  0  0  0  0  0  0  0  0  0  0
    7.5151   -2.4773   -3.1748 N   0  0  0  0  0  0  0  0  0  0  0  0
    8.5943   -1.5476   -3.4868 C   0  0  0  0  0  0  0  0  0  0  0  0
    9.7680   -2.2476   -4.1663 C   0  0  1  0  0  0  0  0  0  0  0  0
   10.9341   -1.3039   -4.5327 C   0  0  0  0  0  0  0  0  0  0  0  0
   12.1947   -2.2077   -4.6342 C   0  0  0  0  0  0  0  0  0  0  0  0
   11.7622   -3.6015   -4.1053 C   0  0  0  0  0  0  0  0  0  0  0  0
   10.4551   -3.3471   -3.3399 C   0  0  0  0  0  0  0  0  0  0  0  0
    4.4093   -1.9932   -0.0286 N   0  0  0  0  0  0  0  0  0  0  0  0
    3.2536   -1.5374    0.3329 N   0  0  0  0  0  0  0  0  0  0  0  0
    1.4823   -0.7349    1.1811 H   0  0  0  0  0  0  0  0  0  0  0  0
    2.6858   -2.6026   -2.7290 H   0  0  0  0  0  0  0  0  0  0  0  0
    5.0873   -3.6377   -2.7932 H   0  0  0  0  0  0  0  0  0  0  0  0
    6.0096   -3.6239   -1.2715 H   0  0  0  0  0  0  0  0  0  0  0  0
    6.7170   -1.2883   -1.6623 H   0  0  0  0  0  0  0  0  0  0  0  0
    5.7733   -1.2007   -3.1605 H   0  0  0  0  0  0  0  0  0  0  0  0
    7.2267   -2.9623   -4.0252 H   0  0  0  0  0  0  0  0  0  0  0  0
    8.9423   -1.0988   -2.5383 H   0  0  0  0  0  0  0  0  0  0  0  0
    8.2553   -0.6975   -4.1224 H   0  0  0  0  0  0  0  0  0  0  0  0
    9.3949   -2.7114   -5.1020 H   0  0  0  0  0  0  0  0  0  0  0  0
   11.0626   -0.5597   -3.7277 H   0  0  0  0  0  0  0  0  0  0  0  0
   10.7389   -0.7367   -5.4562 H   0  0  0  0  0  0  0  0  0  0  0  0
   13.0182   -1.7925   -4.0323 H   0  0  0  0  0  0  0  0  0  0  0  0
   12.5696   -2.2716   -5.6675 H   0  0  0  0  0  0  0  0  0  0  0  0
   12.5355   -4.0835   -3.4873 H   0  0  0  0  0  0  0  0  0  0  0  0
   11.5641   -4.2816   -4.9511 H   0  0  0  0  0  0  0  0  0  0  0  0
   10.6696   -2.9563   -2.3280 H   0  0  0  0  0  0  0  0  0  0  0  0
    9.8334   -4.2454   -3.2114 H   0  0  0  0  0  0  0  0  0  0  0  0
  1  2  2  0
  2  3  1  0
  2  4  1  0
  3 18  1  0
  4  5  2  0
  4 17  1  0
  5  6  1  0
  5 19  1  0
  6  7  1  0
  6 16  1  0
  7  8  1  0
  7 20  1  0
  7 21  1  0
  8  9  1  0
  8 22  1  0
  8 23  1  0
  9 10  1  0
  9 24  1  0
 10 11  1  0
 10 25  1  0
 10 26  1  0
 11 12  1  0
 11 15  1  0
 11 27  1  6
 12 13  1  0
 12 28  1  0
 12 29  1  0
 13 14  1  0
 13 30  1  0
 13 31  1  0
 14 15  1  0
 14 32  1  0
 14 33  1  0
 15 34  1  0
 15 35  1  0
 16 17  2  0
M  END

