
     RDKit          3D

 34 35  0  0  0  0  0  0  0  0999 V2000
    3.4968   -0.2032    1.2800 C   0  0  0  0  0  0  0  0  0  0  0  0
    2.6310    0.6538    0.5704 O   0  0  0  0  0  0  0  0  0  0  0  0
    3.1383    1.4555   -0.4000 C   0  0  0  0  0  0  0  0  0  0  0  0
    4.4912    1.5022   -0.7709 C   0  0  0  0  0  0  0  0  0  0  0  0
    4.9174    2.3788   -1.7730 C   0  0  0  0  0  0  0  0  0  0  0  0
    3.9993    3.1972   -2.4433 C   0  0  0  0  0  0  0  0  0  0  0  0
    4.4313    4.1048   -3.4468 N   0  0  0  0  0  0  0  0  0  0  0  0
    5.2238    3.6436   -4.8680 S   0  0  1  0  0  0  0  0  0  0  0  0
    5.4467    4.9026   -5.5761 O   0  0  0  0  0  0  0  0  0  0  0  0
    6.3099    2.7441   -4.4840 O   0  0  0  0  0  0  0  0  0  0  0  0
    4.0440    2.6794   -5.8232 C   0  0  0  0  0  0  0  0  0  0  0  0
    3.2131    3.3344   -6.7384 C   0  0  0  0  0  0  0  0  0  0  0  0
    2.2768    2.5920   -7.4564 C   0  0  0  0  0  0  0  0  0  0  0  0
    2.1622    1.2037   -7.2695 C   0  0  0  0  0  0  0  0  0  0  0  0
    1.1527    0.4135   -8.0420 C   0  0  0  0  0  0  0  0  0  0  0  0
    1.8772   -0.2342   -9.7789 Br  0  0  0  0  0  0  0  0  0  0  0  0
    3.0180    0.5678   -6.3553 C   0  0  0  0  0  0  0  0  0  0  0  0
    3.9619    1.2968   -5.6315 C   0  0  0  0  0  0  0  0  0  0  0  0
    2.6423    3.1357   -2.0779 C   0  0  0  0  0  0  0  0  0  0  0  0
    2.2185    2.2893   -1.0597 C   0  0  0  0  0  0  0  0  0  0  0  0
    2.8744   -0.7498    2.0012 H   0  0  0  0  0  0  0  0  0  0  0  0
    4.2722    0.3589    1.8314 H   0  0  0  0  0  0  0  0  0  0  0  0
    3.9936   -0.9314    0.6134 H   0  0  0  0  0  0  0  0  0  0  0  0
    5.2314    0.8751   -0.2736 H   0  0  0  0  0  0  0  0  0  0  0  0
    5.9712    2.4294   -2.0470 H   0  0  0  0  0  0  0  0  0  0  0  0
    3.8300    4.9058   -3.6246 H   0  0  0  0  0  0  0  0  0  0  0  0
    3.3191    4.4098   -6.8924 H   0  0  0  0  0  0  0  0  0  0  0  0
    1.6312    3.0946   -8.1815 H   0  0  0  0  0  0  0  0  0  0  0  0
    0.2723    1.0091   -8.3095 H   0  0  0  0  0  0  0  0  0  0  0  0
    0.8385   -0.4929   -7.5121 H   0  0  0  0  0  0  0  0  0  0  0  0
    2.9503   -0.5141   -6.2145 H   0  0  0  0  0  0  0  0  0  0  0  0
    4.6405    0.8030   -4.9346 H   0  0  0  0  0  0  0  0  0  0  0  0
    1.9133    3.7656   -2.5955 H   0  0  0  0  0  0  0  0  0  0  0  0
    1.1692    2.2453   -0.7615 H   0  0  0  0  0  0  0  0  0  0  0  0
  1  2  1  0
  1 21  1  0
  1 22  1  0
  1 23  1  0
  2  3  1  0
  3  4  2  0
  3 20  1  0
  4  5  1  0
  4 24  1  0
  5  6  2  0
  5 25  1  0
  6  7  1  0
  6 19  1  0
  8  7  1  1
  7 26  1  0
  8  9  2  0
  8 10  2  0
  8 11  1  0
 11 12  2  0
 11 18  1  0
 12 13  1  0
 12 27  1  0
 13 14  2  0
 13 28  1  0
 14 15  1  0
 14 17  1  0
 15 16  1  0
 15 29  1  0
 15 30  1  0
 17 18  2  0
 17 31  1  0
 18 32  1  0
 19 20  2  0
 19 33  1  0
 20 34  1  0
M  END

