
     RDKit          3D

 55 57  0  0  0  0  0  0  0  0999 V2000
   -2.5836   14.3143   -5.6133 C   0  0  0  0  0  0  0  0  0  0  0  0
   -2.8456   13.3896   -4.5851 O   0  0  0  0  0  0  0  0  0  0  0  0
   -1.8462   12.5649   -4.1693 C   0  0  0  0  0  0  0  0  0  0  0  0
   -2.2130   11.6697   -3.1236 C   0  0  0  0  0  0  0  0  0  0  0  0
   -1.3111   10.7669   -2.5902 C   0  0  0  0  0  0  0  0  0  0  0  0
   -0.0055   10.7553   -3.1137 C   0  0  0  0  0  0  0  0  0  0  0  0
    1.0844    9.9875   -2.7938 N   0  0  0  0  0  0  0  0  0  0  0  0
    1.1539    9.2510   -2.1008 H   0  0  0  0  0  0  0  0  0  0  0  0
    2.1499   10.3447   -3.5870 C   0  0  0  0  0  0  0  0  0  0  0  0
    3.4138    9.6045   -3.3814 C   0  0  0  0  0  0  0  0  0  0  0  0
    3.4878    8.6888   -2.5909 O   0  0  0  0  0  0  0  0  0  0  0  0
    4.4707   10.0744   -4.1716 N   0  0  0  0  0  0  0  0  0  0  0  0
    5.7562    9.5888   -4.2997 C   0  0  0  0  0  0  0  0  0  0  0  0
    6.4099    8.2401   -3.6119 S   0  0  0  0  0  0  0  0  0  0  0  0
    6.5420   10.3896   -5.1188 N   0  0  0  0  0  0  0  0  0  0  0  0
    6.0491   11.4420   -5.8574 N   0  0  0  0  0  0  0  0  0  0  0  0
    5.8006   11.3877   -7.2254 C   0  0  0  0  0  0  0  0  0  0  0  0
    5.4720   12.3807   -7.8329 O   0  0  0  0  0  0  0  0  0  0  0  0
    5.9617   10.0197   -7.8858 C   0  0  0  0  0  0  0  0  0  0  0  0
    7.3135    9.6330   -7.7501 O   0  0  0  0  0  0  0  0  0  0  0  0
    7.7423    8.4828   -8.3627 C   0  0  0  0  0  0  0  0  0  0  0  0
    9.1049    8.1836   -8.2335 C   0  0  0  0  0  0  0  0  0  0  0  0
    9.6223    7.0318   -8.8217 C   0  0  0  0  0  0  0  0  0  0  0  0
    8.8117    6.1472   -9.5537 C   0  0  0  0  0  0  0  0  0  0  0  0
    9.3960    4.8912  -10.1885 C   0  0  1  0  0  0  0  0  0  0  0  0
    8.7862    3.6083   -9.5973 C   0  0  0  0  0  0  0  0  0  0  0  0
    9.2772    4.9101  -11.7224 C   0  0  0  0  0  0  0  0  0  0  0  0
    7.4528    6.4693   -9.6710 C   0  0  0  0  0  0  0  0  0  0  0  0
    6.9114    7.6206   -9.0881 C   0  0  0  0  0  0  0  0  0  0  0  0
    1.7549   11.3641   -4.4454 C   0  0  0  0  0  0  0  0  0  0  0  0
    0.3823   11.6433   -4.1597 C   0  0  0  0  0  0  0  0  0  0  0  0
   -0.5568   12.5595   -4.6920 C   0  0  0  0  0  0  0  0  0  0  0  0
   -3.5161   14.8691   -5.7841 H   0  0  0  0  0  0  0  0  0  0  0  0
   -2.2889   13.8127   -6.5536 H   0  0  0  0  0  0  0  0  0  0  0  0
   -1.7885   15.0291   -5.3320 H   0  0  0  0  0  0  0  0  0  0  0  0
   -3.2395   11.7222   -2.7558 H   0  0  0  0  0  0  0  0  0  0  0  0
   -1.6084   10.0869   -1.7888 H   0  0  0  0  0  0  0  0  0  0  0  0
    4.2737   10.9044   -4.7249 H   0  0  0  0  0  0  0  0  0  0  0  0
    7.4452    9.9977   -5.3755 H   0  0  0  0  0  0  0  0  0  0  0  0
    6.1791   12.3835   -5.4838 H   0  0  0  0  0  0  0  0  0  0  0  0
    5.6772   10.1471   -8.9423 H   0  0  0  0  0  0  0  0  0  0  0  0
    5.2833    9.2802   -7.4180 H   0  0  0  0  0  0  0  0  0  0  0  0
    9.7439    8.8658   -7.6689 H   0  0  0  0  0  0  0  0  0  0  0  0
   10.6882    6.8132   -8.7088 H   0  0  0  0  0  0  0  0  0  0  0  0
   10.4724    4.8854   -9.9434 H   0  0  0  0  0  0  0  0  0  0  0  0
    7.7081    3.5369   -9.8176 H   0  0  0  0  0  0  0  0  0  0  0  0
    8.9055    3.5751   -8.5032 H   0  0  0  0  0  0  0  0  0  0  0  0
    9.2706    2.7134  -10.0213 H   0  0  0  0  0  0  0  0  0  0  0  0
    8.2225    4.9014  -12.0442 H   0  0  0  0  0  0  0  0  0  0  0  0
    9.7648    4.0253  -12.1637 H   0  0  0  0  0  0  0  0  0  0  0  0
    9.7490    5.8085  -12.1501 H   0  0  0  0  0  0  0  0  0  0  0  0
    6.7829    5.8105  -10.2301 H   0  0  0  0  0  0  0  0  0  0  0  0
    5.8468    7.8251   -9.2055 H   0  0  0  0  0  0  0  0  0  0  0  0
    2.3623   11.8551   -5.2046 H   0  0  0  0  0  0  0  0  0  0  0  0
   -0.2589   13.2369   -5.4921 H   0  0  0  0  0  0  0  0  0  0  0  0
  1  2  1  0
  1 33  1  0
  1 34  1  0
  1 35  1  0
  2  3  1  0
  3  4  2  0
  3 32  1  0
  4  5  1  0
  4 36  1  0
  5  6  2  0
  5 37  1  0
  6  7  1  0
  6 31  1  0
  7  8  1  0
  7  9  1  0
  9 10  1  0
  9 30  2  0
 10 11  2  0
 10 12  1  0
 12 13  1  0
 12 38  1  0
 13 14  2  0
 13 15  1  0
 15 16  1  0
 15 39  1  0
 16 17  1  0
 16 40  1  0
 17 18  2  0
 17 19  1  0
 19 20  1  0
 19 41  1  0
 19 42  1  0
 20 21  1  0
 21 22  2  0
 21 29  1  0
 22 23  1  0
 22 43  1  0
 23 24  2  0
 23 44  1  0
 24 25  1  0
 24 28  1  0
 25 26  1  0
 25 27  1  0
 25 45  1  6
 26 46  1  0
 26 47  1  0
 26 48  1  0
 27 49  1  0
 27 50  1  0
 27 51  1  0
 28 29  2  0
 28 52  1  0
 29 53  1  0
 30 31  1  0
 30 54  1  0
 31 32  2  0
 32 55  1  0
M  END

