
     RDKit          3D

 46 45  0  0  0  0  0  0  0  0999 V2000
    0.9406   -0.5383   -0.6118 C   0  0  0  0  0  0  0  0  0  0  0  0
    2.0131    0.2774   -0.1667 O   0  0  0  0  0  0  0  0  0  0  0  0
    2.6341    1.0898   -1.1401 C   0  0  1  0  0  0  0  0  0  0  0  0
    2.0977    2.5336   -1.0656 C   0  0  1  0  0  0  0  0  0  0  0  0
    2.6744    3.4524   -2.1419 C   0  0  0  0  0  0  0  0  0  0  0  0
    2.2508    4.7950   -1.9033 O   0  0  0  0  0  0  0  0  0  0  0  0
    1.3369    5.3526   -2.7376 C   0  0  0  0  0  0  0  0  0  0  0  0
    0.9904    6.7442   -2.2725 C   0  0  0  0  0  0  0  0  0  0  0  0
    0.8793    4.7964   -3.7024 O   0  0  0  0  0  0  0  0  0  0  0  0
    0.6762    2.4825   -1.2412 O   0  0  0  0  0  0  0  0  0  0  0  0
   -0.1199    3.1067   -0.3325 C   0  0  0  0  0  0  0  0  0  0  0  0
   -1.5688    2.9597   -0.7231 C   0  0  0  0  0  0  0  0  0  0  0  0
    0.2927    3.6913    0.6348 O   0  0  0  0  0  0  0  0  0  0  0  0
    4.1547    1.0486   -0.9172 C   0  0  1  0  0  0  0  0  0  0  0  0
    4.4762    1.8026    0.2602 O   0  0  0  0  0  0  0  0  0  0  0  0
    5.5858    2.5853    0.2625 C   0  0  0  0  0  0  0  0  0  0  0  0
    5.7479    3.2690    1.5935 C   0  0  0  0  0  0  0  0  0  0  0  0
    6.3183    2.7036   -0.6878 O   0  0  0  0  0  0  0  0  0  0  0  0
    4.6801   -0.3855   -0.6745 C   0  0  1  0  0  0  0  0  0  0  0  0
    4.1783   -1.3694   -1.6517 C   0  0  0  0  0  0  0  0  0  0  0  0
    3.7084   -2.1653   -2.3493 N   0  0  0  0  0  0  0  0  0  0  0  0
    6.1014   -0.4009   -0.5473 O   0  0  0  0  0  0  0  0  0  0  0  0
    6.8473   -0.1701   -1.6722 C   0  0  0  0  0  0  0  0  0  0  0  0
    8.3070   -0.0628   -1.3362 C   0  0  0  0  0  0  0  0  0  0  0  0
    6.3520   -0.0507   -2.7605 O   0  0  0  0  0  0  0  0  0  0  0  0
    0.5770   -1.0888    0.2677 H   0  0  0  0  0  0  0  0  0  0  0  0
    1.2759   -1.2658   -1.3724 H   0  0  0  0  0  0  0  0  0  0  0  0
    0.1147    0.0601   -1.0281 H   0  0  0  0  0  0  0  0  0  0  0  0
    2.4435    0.6891   -2.1534 H   0  0  0  0  0  0  0  0  0  0  0  0
    2.3066    2.9418   -0.0684 H   0  0  0  0  0  0  0  0  0  0  0  0
    2.3428    3.1314   -3.1402 H   0  0  0  0  0  0  0  0  0  0  0  0
    3.7732    3.4622   -2.1024 H   0  0  0  0  0  0  0  0  0  0  0  0
    1.9011    7.3600   -2.2198 H   0  0  0  0  0  0  0  0  0  0  0  0
    0.5715    6.6982   -1.2553 H   0  0  0  0  0  0  0  0  0  0  0  0
    0.2673    7.1956   -2.9619 H   0  0  0  0  0  0  0  0  0  0  0  0
   -1.7113    3.2895   -1.7630 H   0  0  0  0  0  0  0  0  0  0  0  0
   -2.1954    3.5474   -0.0419 H   0  0  0  0  0  0  0  0  0  0  0  0
   -1.8633    1.8995   -0.6732 H   0  0  0  0  0  0  0  0  0  0  0  0
    4.6797    1.4763   -1.7805 H   0  0  0  0  0  0  0  0  0  0  0  0
    4.8566    3.8760    1.8145 H   0  0  0  0  0  0  0  0  0  0  0  0
    6.6422    3.9027    1.5761 H   0  0  0  0  0  0  0  0  0  0  0  0
    5.8315    2.5143    2.3904 H   0  0  0  0  0  0  0  0  0  0  0  0
    4.3048   -0.6973    0.3100 H   0  0  0  0  0  0  0  0  0  0  0  0
    8.5855   -0.7616   -0.5358 H   0  0  0  0  0  0  0  0  0  0  0  0
    8.4916    0.9639   -0.9807 H   0  0  0  0  0  0  0  0  0  0  0  0
    8.9037   -0.2393   -2.2394 H   0  0  0  0  0  0  0  0  0  0  0  0
  1  2  1  0
  1 26  1  0
  1 27  1  0
  1 28  1  0
  2  3  1  0
  3  4  1  0
  3 14  1  0
  3 29  1  6
  4  5  1  0
  4 10  1  0
  4 30  1  1
  5  6  1  0
  5 31  1  0
  5 32  1  0
  6  7  1  0
  7  8  1  0
  7  9  2  0
  8 33  1  0
  8 34  1  0
  8 35  1  0
 10 11  1  0
 11 12  1  0
 11 13  2  0
 12 36  1  0
 12 37  1  0
 12 38  1  0
 14 15  1  0
 14 19  1  0
 14 39  1  6
 15 16  1  0
 16 17  1  0
 16 18  2  0
 17 40  1  0
 17 41  1  0
 17 42  1  0
 19 20  1  0
 19 22  1  0
 19 43  1  1
 20 21  3  0
 22 23  1  0
 23 24  1  0
 23 25  2  0
 24 44  1  0
 24 45  1  0
 24 46  1  0
M  END

