
     RDKit          3D

 34 35  0  0  0  0  0  0  0  0999 V2000
    1.8641   -2.0823    1.8111 C   0  0  0  0  0  0  0  0  0  0  0  0
    2.3977   -1.5505    0.4798 C   0  0  0  0  0  0  0  0  0  0  0  0
    3.1294   -0.2955    0.5930 N   0  0  0  0  0  0  0  0  0  0  0  0
    4.4381   -0.2089    0.9460 C   0  0  0  0  0  0  0  0  0  0  0  0
    5.0852    1.0451    1.0976 C   0  0  0  0  0  0  0  0  0  0  0  0
    6.4323    1.0502    1.4465 C   0  0  0  0  0  0  0  0  0  0  0  0
    7.2231    2.2978    1.6367 C   0  0  0  0  0  0  0  0  0  0  0  0
    6.6613    3.5786    1.4776 C   0  0  0  0  0  0  0  0  0  0  0  0
    7.4443    4.7151    1.6663 C   0  0  0  0  0  0  0  0  0  0  0  0
    8.7938    4.5950    2.0153 C   0  0  0  0  0  0  0  0  0  0  0  0
    9.3798    3.3319    2.1809 C   0  0  0  0  0  0  0  0  0  0  0  0
   10.8329    3.1811    2.5625 C   0  0  0  0  0  0  0  0  0  0  0  0
    8.5794    2.1970    1.9870 C   0  0  0  0  0  0  0  0  0  0  0  0
    7.0924   -0.1205    1.6314 N   0  0  0  0  0  0  0  0  0  0  0  0
    6.3974   -1.2266    1.4639 C   0  0  0  0  0  0  0  0  0  0  0  0
    7.1267   -2.5542    1.6785 C   0  0  1  0  0  0  0  0  0  0  0  0
    8.4139   -2.3818    1.9814 F   0  0  0  0  0  0  0  0  0  0  0  0
    6.5570   -3.2469    2.6797 F   0  0  0  0  0  0  0  0  0  0  0  0
    7.0614   -3.3149    0.5735 F   0  0  0  0  0  0  0  0  0  0  0  0
    5.1160   -1.3521    1.1373 N   0  0  0  0  0  0  0  0  0  0  0  0
    1.3002   -3.0156    1.6518 H   0  0  0  0  0  0  0  0  0  0  0  0
    1.1903   -1.3560    2.2945 H   0  0  0  0  0  0  0  0  0  0  0  0
    2.6952   -2.2996    2.4987 H   0  0  0  0  0  0  0  0  0  0  0  0
    1.5704   -1.3844   -0.2293 H   0  0  0  0  0  0  0  0  0  0  0  0
    3.0734   -2.2913    0.0287 H   0  0  0  0  0  0  0  0  0  0  0  0
    2.6085    0.5699    0.5334 H   0  0  0  0  0  0  0  0  0  0  0  0
    4.5274    1.9680    0.9383 H   0  0  0  0  0  0  0  0  0  0  0  0
    5.6115    3.6996    1.2054 H   0  0  0  0  0  0  0  0  0  0  0  0
    7.0016    5.7065    1.5403 H   0  0  0  0  0  0  0  0  0  0  0  0
    9.3983    5.4949    2.1599 H   0  0  0  0  0  0  0  0  0  0  0  0
   11.3401    4.1552    2.6243 H   0  0  0  0  0  0  0  0  0  0  0  0
   11.3757    2.5613    1.8301 H   0  0  0  0  0  0  0  0  0  0  0  0
   10.9376    2.6837    3.5413 H   0  0  0  0  0  0  0  0  0  0  0  0
    8.9998    1.1967    2.1055 H   0  0  0  0  0  0  0  0  0  0  0  0
  1  2  1  0
  1 21  1  0
  1 22  1  0
  1 23  1  0
  2  3  1  0
  2 24  1  0
  2 25  1  0
  3  4  1  0
  3 26  1  0
  4  5  2  0
  4 20  1  0
  5  6  1  0
  5 27  1  0
  6  7  1  0
  6 14  2  0
  7  8  2  0
  7 13  1  0
  8  9  1  0
  8 28  1  0
  9 10  2  0
  9 29  1  0
 10 11  1  0
 10 30  1  0
 11 12  1  0
 11 13  2  0
 12 31  1  0
 12 32  1  0
 12 33  1  0
 13 34  1  0
 14 15  1  0
 15 16  1  0
 15 20  2  0
 16 17  1  1
 16 18  1  0
 16 19  1  0
M  END

