
     RDKit          3D

 46 49  0  0  0  0  0  0  0  0999 V2000
    1.4154   -0.4723    0.5389 O   0  0  0  0  0  0  0  0  0  0  0  0
    2.5896   -0.4165    0.2635 C   0  0  0  0  0  0  0  0  0  0  0  0
    3.3774   -1.5560    0.1597 N   0  0  0  0  0  0  0  0  0  0  0  0
    4.6485   -1.6696   -0.4055 C   0  0  0  0  0  0  0  0  0  0  0  0
    5.2319   -2.7256   -0.4328 O   0  0  0  0  0  0  0  0  0  0  0  0
    5.1598   -0.4889   -0.9771 N   0  0  0  0  0  0  0  0  0  0  0  0
    6.3904   -0.5814   -1.7299 C   0  0  0  0  0  0  0  0  0  0  0  0
    6.4578   -1.3722   -2.8801 C   0  0  0  0  0  0  0  0  0  0  0  0
    7.6530   -1.4458   -3.5980 C   0  0  0  0  0  0  0  0  0  0  0  0
    8.7736   -0.7248   -3.1748 C   0  0  0  0  0  0  0  0  0  0  0  0
    8.6980    0.0693   -2.0270 C   0  0  0  0  0  0  0  0  0  0  0  0
    7.5080    0.1390   -1.2995 C   0  0  0  0  0  0  0  0  0  0  0  0
    4.4594    0.7371   -0.9844 C   0  0  0  0  0  0  0  0  0  0  0  0
    4.7566    1.6336   -1.7351 O   0  0  0  0  0  0  0  0  0  0  0  0
    3.3700    0.8708    0.0713 C   0  0  2  0  0  0  0  0  0  0  0  0
    2.6623    1.6318   -0.2787 H   0  0  0  0  0  0  0  0  0  0  0  0
    3.9976    1.3161    1.4502 C   0  0  1  0  0  0  0  0  0  0  0  0
    4.8366    2.5905    1.3639 C   0  0  0  0  0  0  0  0  0  0  0  0
    4.4718    3.7048    0.5918 C   0  0  0  0  0  0  0  0  0  0  0  0
    5.2364    4.8731    0.6027 C   0  0  0  0  0  0  0  0  0  0  0  0
    6.3818    4.9264    1.3925 C   0  0  0  0  0  0  0  0  0  0  0  0
    7.1203    6.0445    1.4039 F   0  0  0  0  0  0  0  0  0  0  0  0
    6.7802    3.8383    2.1648 C   0  0  0  0  0  0  0  0  0  0  0  0
    6.0027    2.6789    2.1423 C   0  0  0  0  0  0  0  0  0  0  0  0
    2.9454    1.4041    2.5554 C   0  0  0  0  0  0  0  0  0  0  0  0
    2.9985    0.5212    3.6432 C   0  0  0  0  0  0  0  0  0  0  0  0
    2.0600    0.5828    4.6772 C   0  0  0  0  0  0  0  0  0  0  0  0
    1.0544    1.5416    4.6113 C   0  0  0  0  0  0  0  0  0  0  0  0
    0.1478    1.6116    5.5956 F   0  0  0  0  0  0  0  0  0  0  0  0
    0.9700    2.4346    3.5438 C   0  0  0  0  0  0  0  0  0  0  0  0
    1.9173    2.3598    2.5238 C   0  0  0  0  0  0  0  0  0  0  0  0
    2.9437   -2.4433    0.4057 H   0  0  0  0  0  0  0  0  0  0  0  0
    5.5804   -1.9324   -3.2076 H   0  0  0  0  0  0  0  0  0  0  0  0
    7.7067   -2.0680   -4.4946 H   0  0  0  0  0  0  0  0  0  0  0  0
    9.7066   -0.7815   -3.7408 H   0  0  0  0  0  0  0  0  0  0  0  0
    9.5696    0.6368   -1.6924 H   0  0  0  0  0  0  0  0  0  0  0  0
    7.4414    0.7582   -0.4027 H   0  0  0  0  0  0  0  0  0  0  0  0
    4.6869    0.5092    1.7432 H   0  0  0  0  0  0  0  0  0  0  0  0
    3.5931    3.6699   -0.0534 H   0  0  0  0  0  0  0  0  0  0  0  0
    4.9611    5.7389   -0.0024 H   0  0  0  0  0  0  0  0  0  0  0  0
    7.6861    3.9097    2.7697 H   0  0  0  0  0  0  0  0  0  0  0  0
    6.3086    1.8255    2.7542 H   0  0  0  0  0  0  0  0  0  0  0  0
    3.7886   -0.2337    3.6901 H   0  0  0  0  0  0  0  0  0  0  0  0
    2.0977   -0.1008    5.5273 H   0  0  0  0  0  0  0  0  0  0  0  0
    0.1667    3.1735    3.5256 H   0  0  0  0  0  0  0  0  0  0  0  0
    1.8503    3.0667    1.6941 H   0  0  0  0  0  0  0  0  0  0  0  0
  1  2  2  0
  2  3  1  0
  2 15  1  0
  3  4  1  0
  3 32  1  0
  4  5  2  0
  4  6  1  0
  6  7  1  0
  6 13  1  0
  7  8  2  0
  7 12  1  0
  8  9  1  0
  8 33  1  0
  9 10  2  0
  9 34  1  0
 10 11  1  0
 10 35  1  0
 11 12  2  0
 11 36  1  0
 12 37  1  0
 13 14  2  0
 13 15  1  0
 15 16  1  6
 15 17  1  0
 17 18  1  0
 17 25  1  0
 17 38  1  1
 18 19  2  0
 18 24  1  0
 19 20  1  0
 19 39  1  0
 20 21  2  0
 20 40  1  0
 21 22  1  0
 21 23  1  0
 23 24  2  0
 23 41  1  0
 24 42  1  0
 25 26  2  0
 25 31  1  0
 26 27  1  0
 26 43  1  0
 27 28  2  0
 27 44  1  0
 28 29  1  0
 28 30  1  0
 30 31  2  0
 30 45  1  0
 31 46  1  0
M  END

