
     RDKit          3D

 33 34  0  0  0  0  0  0  0  0999 V2000
    0.6375    0.5268    0.0279 C   0  0  0  0  0  0  0  0  0  0  0  0
    2.0551    0.3236   -0.2289 N   0  0  0  0  0  0  0  0  0  0  0  0
    2.2815   -0.4280   -1.4560 C   0  0  0  0  0  0  0  0  0  0  0  0
    1.9444   -1.9045   -1.3340 C   0  0  0  0  0  0  0  0  0  0  0  0
    2.0626   -2.5973   -0.1210 C   0  0  0  0  0  0  0  0  0  0  0  0
    1.7856   -3.9638   -0.0423 C   0  0  0  0  0  0  0  0  0  0  0  0
    1.3849   -4.6711   -1.1783 C   0  0  0  0  0  0  0  0  0  0  0  0
    1.2631   -3.9985   -2.3963 C   0  0  0  0  0  0  0  0  0  0  0  0
    0.7649   -4.8393   -3.8378 Cl  0  0  0  0  0  0  0  0  0  0  0  0
    1.5437   -2.6285   -2.4626 C   0  0  0  0  0  0  0  0  0  0  0  0
    1.4305   -1.9960   -3.6390 F   0  0  0  0  0  0  0  0  0  0  0  0
    2.8364    1.5543   -0.1646 C   0  0  0  0  0  0  0  0  0  0  0  0
    2.9373    2.1445    1.2359 C   0  0  1  0  0  0  0  0  0  0  0  0
    3.6580    1.3168    2.3331 C   0  0  0  0  0  0  0  0  0  0  0  0
    4.4047    2.5938    2.7767 C   0  0  2  0  0  0  0  0  0  0  0  0
    3.6302    3.4335    4.3900 Br  0  0  0  0  0  0  0  0  0  0  0  0
    3.9714    3.2825    1.4635 C   0  0  0  0  0  0  0  0  0  0  0  0
    0.1084   -0.4371    0.0042 H   0  0  0  0  0  0  0  0  0  0  0  0
    0.1588    1.1967   -0.7223 H   0  0  0  0  0  0  0  0  0  0  0  0
    0.4778    0.9640    1.0240 H   0  0  0  0  0  0  0  0  0  0  0  0
    3.3517   -0.3451   -1.7144 H   0  0  0  0  0  0  0  0  0  0  0  0
    1.7307    0.0006   -2.3202 H   0  0  0  0  0  0  0  0  0  0  0  0
    2.3683   -2.0324    0.7615 H   0  0  0  0  0  0  0  0  0  0  0  0
    1.8815   -4.4872    0.9119 H   0  0  0  0  0  0  0  0  0  0  0  0
    1.1638   -5.7388   -1.1364 H   0  0  0  0  0  0  0  0  0  0  0  0
    2.4427    2.3338   -0.8606 H   0  0  0  0  0  0  0  0  0  0  0  0
    3.8570    1.3190   -0.5123 H   0  0  0  0  0  0  0  0  0  0  0  0
    1.9487    2.4700    1.5941 H   0  0  0  0  0  0  0  0  0  0  0  0
    4.3599    0.5839    1.9013 H   0  0  0  0  0  0  0  0  0  0  0  0
    3.0420    0.8074    3.0867 H   0  0  0  0  0  0  0  0  0  0  0  0
    5.4773    2.5200    2.9918 H   0  0  0  0  0  0  0  0  0  0  0  0
    4.7911    3.2558    0.7252 H   0  0  0  0  0  0  0  0  0  0  0  0
    3.5991    4.3138    1.5362 H   0  0  0  0  0  0  0  0  0  0  0  0
  1  2  1  0
  1 18  1  0
  1 19  1  0
  1 20  1  0
  2  3  1  0
  2 12  1  0
  3  4  1  0
  3 21  1  0
  3 22  1  0
  4  5  2  0
  4 10  1  0
  5  6  1  0
  5 23  1  0
  6  7  2  0
  6 24  1  0
  7  8  1  0
  7 25  1  0
  8  9  1  0
  8 10  2  0
 10 11  1  0
 12 13  1  0
 12 26  1  0
 12 27  1  0
 13 14  1  0
 13 17  1  0
 13 28  1  1
 14 15  1  0
 14 29  1  0
 14 30  1  0
 15 16  1  0
 15 17  1  0
 15 31  1  1
 17 32  1  0
 17 33  1  0
M  END

