
     RDKit          3D

 44 44  0  0  0  0  0  0  0  0999 V2000
    3.5973   -2.2597   -0.6300 C   0  0  0  0  0  0  0  0  0  0  0  0
    3.8236   -0.9261   -0.2540 O   0  0  0  0  0  0  0  0  0  0  0  0
    4.6016   -0.6400    0.9230 C   0  0  1  0  0  0  0  0  0  0  0  0
    3.8402   -1.0874    2.1801 C   0  0  0  0  0  0  0  0  0  0  0  0
    5.9684   -1.3376    0.8374 C   0  0  0  0  0  0  0  0  0  0  0  0
    4.7100    0.9041    0.8443 C   0  0  0  0  0  0  0  0  0  0  0  0
    5.1624    1.7167    2.0686 C   0  0  0  0  0  0  0  0  0  0  0  0
    6.6599    1.6582    2.4508 C   0  0  1  0  0  0  0  0  0  0  0  0
    7.5942    1.8693    1.3414 N   0  0  0  0  0  0  0  0  0  0  0  0
    7.4749    3.0617    0.5996 N   0  0  0  0  0  0  0  0  0  0  0  0
    7.0286    2.5904    3.6127 C   0  0  0  0  0  0  0  0  0  0  0  0
    8.3887    2.8156    3.8978 C   0  0  0  0  0  0  0  0  0  0  0  0
    8.7880    3.6419    4.9499 C   0  0  0  0  0  0  0  0  0  0  0  0
    7.8340    4.2690    5.7568 C   0  0  0  0  0  0  0  0  0  0  0  0
    6.4869    4.0342    5.4835 C   0  0  0  0  0  0  0  0  0  0  0  0
    5.2304    4.8390    6.4974 S   0  0  1  0  0  0  0  0  0  0  0  0
    4.9435    3.6816    7.8571 C   0  0  0  0  0  0  0  0  0  0  0  0
    5.8238    6.0503    7.0808 O   0  0  0  0  0  0  0  0  0  0  0  0
    3.9868    4.8991    5.7146 O   0  0  0  0  0  0  0  0  0  0  0  0
    6.0746    3.2204    4.4232 C   0  0  0  0  0  0  0  0  0  0  0  0
    2.9016   -2.2325   -1.4821 H   0  0  0  0  0  0  0  0  0  0  0  0
    3.1283   -2.8664    0.1683 H   0  0  0  0  0  0  0  0  0  0  0  0
    4.5157   -2.7812   -0.9610 H   0  0  0  0  0  0  0  0  0  0  0  0
    3.6621   -2.1736    2.1742 H   0  0  0  0  0  0  0  0  0  0  0  0
    2.8644   -0.5810    2.2409 H   0  0  0  0  0  0  0  0  0  0  0  0
    4.4076   -0.8619    3.0958 H   0  0  0  0  0  0  0  0  0  0  0  0
    5.8639   -2.4334    0.8549 H   0  0  0  0  0  0  0  0  0  0  0  0
    6.6107   -1.0693    1.6877 H   0  0  0  0  0  0  0  0  0  0  0  0
    6.4847   -1.0614   -0.0958 H   0  0  0  0  0  0  0  0  0  0  0  0
    3.6945    1.2406    0.5826 H   0  0  0  0  0  0  0  0  0  0  0  0
    5.3314    1.1487   -0.0335 H   0  0  0  0  0  0  0  0  0  0  0  0
    4.5592    1.4321    2.9444 H   0  0  0  0  0  0  0  0  0  0  0  0
    4.8966    2.7702    1.8737 H   0  0  0  0  0  0  0  0  0  0  0  0
    6.8817    0.6361    2.8074 H   0  0  0  0  0  0  0  0  0  0  0  0
    7.5916    1.0804    0.7012 H   0  0  0  0  0  0  0  0  0  0  0  0
    7.9481    3.8140    1.0995 H   0  0  0  0  0  0  0  0  0  0  0  0
    6.5010    3.3505    0.4651 H   0  0  0  0  0  0  0  0  0  0  0  0
    9.1327    2.3395    3.2557 H   0  0  0  0  0  0  0  0  0  0  0  0
    9.8519    3.8083    5.1370 H   0  0  0  0  0  0  0  0  0  0  0  0
    8.1186    4.9424    6.5675 H   0  0  0  0  0  0  0  0  0  0  0  0
    5.8742    3.5477    8.4231 H   0  0  0  0  0  0  0  0  0  0  0  0
    4.5736    2.7305    7.4533 H   0  0  0  0  0  0  0  0  0  0  0  0
    4.1764    4.1620    8.4810 H   0  0  0  0  0  0  0  0  0  0  0  0
    5.0049    3.1149    4.2433 H   0  0  0  0  0  0  0  0  0  0  0  0
  1  2  1  0
  1 21  1  0
  1 22  1  0
  1 23  1  0
  3  2  1  6
  3  4  1  0
  3  5  1  0
  3  6  1  0
  4 24  1  0
  4 25  1  0
  4 26  1  0
  5 27  1  0
  5 28  1  0
  5 29  1  0
  6  7  1  0
  6 30  1  0
  6 31  1  0
  7  8  1  0
  7 32  1  0
  7 33  1  0
  8  9  1  0
  8 11  1  0
  8 34  1  1
  9 10  1  0
  9 35  1  0
 10 36  1  0
 10 37  1  0
 11 12  2  0
 11 20  1  0
 12 13  1  0
 12 38  1  0
 13 14  2  0
 13 39  1  0
 14 15  1  0
 14 40  1  0
 15 16  1  0
 15 20  2  0
 16 17  1  1
 16 18  2  0
 16 19  2  0
 17 41  1  0
 17 42  1  0
 17 43  1  0
 20 44  1  0
M  END

