
     RDKit          3D

 56 58  0  0  0  0  0  0  0  0999 V2000
    2.5767   -1.6879    0.9929 C   0  0  0  0  0  0  0  0  0  0  0  0
    3.4656   -0.6442    0.6706 O   0  0  0  0  0  0  0  0  0  0  0  0
    4.5939   -0.9300   -0.0321 C   0  0  0  0  0  0  0  0  0  0  0  0
    4.9588   -2.2064   -0.4756 C   0  0  0  0  0  0  0  0  0  0  0  0
    6.1485   -2.3846   -1.1941 C   0  0  0  0  0  0  0  0  0  0  0  0
    6.9896   -1.3066   -1.4822 C   0  0  0  0  0  0  0  0  0  0  0  0
    8.1532   -1.4196   -2.1732 O   0  0  0  0  0  0  0  0  0  0  0  0
    8.5631   -2.6829   -2.6487 C   0  0  0  0  0  0  0  0  0  0  0  0
    6.6260   -0.0062   -1.0350 C   0  0  0  0  0  0  0  0  0  0  0  0
    7.4648    1.1610   -1.3055 C   0  0  0  0  0  0  0  0  0  0  0  0
    8.6568    1.3804   -1.9546 C   0  0  0  0  0  0  0  0  0  0  0  0
    8.8630    2.7789   -1.8165 C   0  0  0  0  0  0  0  0  0  0  0  0
   10.0238    3.5675   -2.3468 C   0  0  0  0  0  0  0  0  0  0  0  0
   10.9107    3.0290   -2.9942 O   0  0  0  0  0  0  0  0  0  0  0  0
    9.9932    4.8908   -2.0409 N   0  0  0  0  0  0  0  0  0  0  0  0
   11.0207    5.8061   -2.5034 C   0  0  0  0  0  0  0  0  0  0  0  0
   10.7595    6.3606   -3.9115 C   0  0  1  0  0  0  0  0  0  0  0  0
   10.6174    5.5007   -4.5851 H   0  0  0  0  0  0  0  0  0  0  0  0
    9.5276    7.2797   -4.0019 C   0  0  0  0  0  0  0  0  0  0  0  0
    9.8723    8.1595   -5.1993 C   0  0  0  0  0  0  0  0  0  0  0  0
   11.2747    8.3540   -5.1248 O   0  0  0  0  0  0  0  0  0  0  0  0
   11.9061    7.2568   -4.4518 C   0  0  2  0  0  0  0  0  0  0  0  0
   12.4641    7.6838   -3.5936 H   0  0  0  0  0  0  0  0  0  0  0  0
   12.9566    6.5875   -5.3865 C   0  0  1  0  0  0  0  0  0  0  0  0
   14.0233    7.6484   -5.7227 C   0  0  0  0  0  0  0  0  0  0  0  0
   13.6280    5.4011   -4.6713 C   0  0  0  0  0  0  0  0  0  0  0  0
   12.3047    6.1063   -6.6955 C   0  0  0  0  0  0  0  0  0  0  0  0
    7.8860    3.3530   -1.1479 N   0  0  0  0  0  0  0  0  0  0  0  0
    7.0118    2.3510   -0.8266 O   0  0  0  0  0  0  0  0  0  0  0  0
    5.4335    0.1548   -0.3179 C   0  0  0  0  0  0  0  0  0  0  0  0
    1.7487   -1.2334    1.5536 H   0  0  0  0  0  0  0  0  0  0  0  0
    3.0552   -2.4575    1.6262 H   0  0  0  0  0  0  0  0  0  0  0  0
    2.1687   -2.1770    0.0892 H   0  0  0  0  0  0  0  0  0  0  0  0
    4.3335   -3.0760   -0.2737 H   0  0  0  0  0  0  0  0  0  0  0  0
    6.4090   -3.3888   -1.5272 H   0  0  0  0  0  0  0  0  0  0  0  0
    9.5149   -2.5246   -3.1729 H   0  0  0  0  0  0  0  0  0  0  0  0
    7.8308   -3.1112   -3.3562 H   0  0  0  0  0  0  0  0  0  0  0  0
    8.7238   -3.3987   -1.8228 H   0  0  0  0  0  0  0  0  0  0  0  0
    9.2963    0.6651   -2.4541 H   0  0  0  0  0  0  0  0  0  0  0  0
    9.1850    5.2351   -1.5324 H   0  0  0  0  0  0  0  0  0  0  0  0
   11.9747    5.2627   -2.4852 H   0  0  0  0  0  0  0  0  0  0  0  0
   11.0953    6.6374   -1.7826 H   0  0  0  0  0  0  0  0  0  0  0  0
    9.4479    7.8996   -3.0913 H   0  0  0  0  0  0  0  0  0  0  0  0
    8.5820    6.7298   -4.1229 H   0  0  0  0  0  0  0  0  0  0  0  0
    9.3817    9.1459   -5.1802 H   0  0  0  0  0  0  0  0  0  0  0  0
    9.5922    7.6597   -6.1489 H   0  0  0  0  0  0  0  0  0  0  0  0
   14.5435    7.9908   -4.8122 H   0  0  0  0  0  0  0  0  0  0  0  0
   13.5630    8.5267   -6.1983 H   0  0  0  0  0  0  0  0  0  0  0  0
   14.7825    7.2367   -6.4076 H   0  0  0  0  0  0  0  0  0  0  0  0
   14.0964    5.7148   -3.7227 H   0  0  0  0  0  0  0  0  0  0  0  0
   14.4273    4.9821   -5.3042 H   0  0  0  0  0  0  0  0  0  0  0  0
   12.9215    4.5856   -4.4501 H   0  0  0  0  0  0  0  0  0  0  0  0
   11.8149    6.9413   -7.2191 H   0  0  0  0  0  0  0  0  0  0  0  0
   11.5564    5.3162   -6.5235 H   0  0  0  0  0  0  0  0  0  0  0  0
   13.0688    5.6868   -7.3697 H   0  0  0  0  0  0  0  0  0  0  0  0
    5.1393    1.1438    0.0326 H   0  0  0  0  0  0  0  0  0  0  0  0
  1  2  1  0
  1 31  1  0
  1 32  1  0
  1 33  1  0
  2  3  1  0
  3  4  2  0
  3 30  1  0
  4  5  1  0
  4 34  1  0
  5  6  2  0
  5 35  1  0
  6  7  1  0
  6  9  1  0
  7  8  1  0
  8 36  1  0
  8 37  1  0
  8 38  1  0
  9 10  1  0
  9 30  2  0
 10 11  2  0
 10 29  1  0
 11 12  1  0
 11 39  1  0
 12 13  1  0
 12 28  2  0
 13 14  2  0
 13 15  1  0
 15 16  1  0
 15 40  1  0
 16 17  1  0
 16 41  1  0
 16 42  1  0
 17 18  1  6
 17 19  1  0
 17 22  1  0
 19 20  1  0
 19 43  1  0
 19 44  1  0
 20 21  1  0
 20 45  1  0
 20 46  1  0
 21 22  1  0
 22 23  1  1
 22 24  1  0
 24 25  1  6
 24 26  1  0
 24 27  1  0
 25 47  1  0
 25 48  1  0
 25 49  1  0
 26 50  1  0
 26 51  1  0
 26 52  1  0
 27 53  1  0
 27 54  1  0
 27 55  1  0
 28 29  1  0
 30 56  1  0
M  END

