
     RDKit          3D

 39 40  0  0  0  0  0  0  0  0999 V2000
    6.8024    0.4514   -4.7216 C   0  0  0  0  0  0  0  0  0  0  0  0
    6.3797    0.6585   -3.3096 C   0  0  0  0  0  0  0  0  0  0  0  0
    6.8609    1.4159   -2.2788 C   0  0  0  0  0  0  0  0  0  0  0  0
    5.9702    1.1250   -1.1999 C   0  0  0  0  0  0  0  0  0  0  0  0
    5.9748    1.7019    0.1899 C   0  0  0  0  0  0  0  0  0  0  0  0
    5.5131    3.0876    0.2275 N   0  0  0  0  0  0  0  0  0  0  0  0
    4.0828    3.3322    0.1586 C   0  0  0  0  0  0  0  0  0  0  0  0
    6.4724    4.0793    0.1743 C   0  0  0  0  0  0  0  0  0  0  0  0
    7.6639    3.8309    0.0232 O   0  0  0  0  0  0  0  0  0  0  0  0
    6.0016    5.3755    0.2906 N   0  0  0  0  0  0  0  0  0  0  0  0
    6.9164    6.4968    0.3367 C   0  0  0  0  0  0  0  0  0  0  0  0
    6.5128    7.6541   -0.5592 C   0  0  0  0  0  0  0  0  0  0  0  0
    6.7734    8.9769   -0.1672 C   0  0  0  0  0  0  0  0  0  0  0  0
    6.4486   10.0492   -0.9999 C   0  0  0  0  0  0  0  0  0  0  0  0
    5.8473    9.8207   -2.2403 C   0  0  0  0  0  0  0  0  0  0  0  0
    5.5783    8.5074   -2.6363 C   0  0  0  0  0  0  0  0  0  0  0  0
    4.9248    8.2137   -3.9643 C   0  0  1  0  0  0  0  0  0  0  0  0
    4.6552    9.3305   -4.6602 F   0  0  0  0  0  0  0  0  0  0  0  0
    5.7055    7.4370   -4.7393 F   0  0  0  0  0  0  0  0  0  0  0  0
    3.7617    7.5510   -3.8047 F   0  0  0  0  0  0  0  0  0  0  0  0
    5.9100    7.4325   -1.8024 C   0  0  0  0  0  0  0  0  0  0  0  0
    5.0374    0.2736   -1.5624 N   0  0  0  0  0  0  0  0  0  0  0  0
    5.2943   -0.0244   -2.8889 O   0  0  0  0  0  0  0  0  0  0  0  0
    7.6902    1.0573   -4.9460 H   0  0  0  0  0  0  0  0  0  0  0  0
    5.9971    0.7347   -5.4186 H   0  0  0  0  0  0  0  0  0  0  0  0
    7.0422   -0.6080   -4.9087 H   0  0  0  0  0  0  0  0  0  0  0  0
    7.7140    2.0885   -2.2597 H   0  0  0  0  0  0  0  0  0  0  0  0
    6.9948    1.6809    0.5928 H   0  0  0  0  0  0  0  0  0  0  0  0
    5.3253    1.0870    0.8311 H   0  0  0  0  0  0  0  0  0  0  0  0
    3.5882    2.4496   -0.2726 H   0  0  0  0  0  0  0  0  0  0  0  0
    3.8535    4.1814   -0.5038 H   0  0  0  0  0  0  0  0  0  0  0  0
    3.6304    3.5243    1.1509 H   0  0  0  0  0  0  0  0  0  0  0  0
    5.0582    5.5322    0.6213 H   0  0  0  0  0  0  0  0  0  0  0  0
    7.8958    6.0973    0.0286 H   0  0  0  0  0  0  0  0  0  0  0  0
    7.0446    6.8679    1.3704 H   0  0  0  0  0  0  0  0  0  0  0  0
    7.2358    9.1676    0.8057 H   0  0  0  0  0  0  0  0  0  0  0  0
    6.6578   11.0723   -0.6781 H   0  0  0  0  0  0  0  0  0  0  0  0
    5.5842   10.6533   -2.8939 H   0  0  0  0  0  0  0  0  0  0  0  0
    5.6946    6.4095   -2.1180 H   0  0  0  0  0  0  0  0  0  0  0  0
  1  2  1  0
  1 24  1  0
  1 25  1  0
  1 26  1  0
  2  3  2  0
  2 23  1  0
  3  4  1  0
  3 27  1  0
  4  5  1  0
  4 22  2  0
  5  6  1  0
  5 28  1  0
  5 29  1  0
  6  7  1  0
  6  8  1  0
  7 30  1  0
  7 31  1  0
  7 32  1  0
  8  9  2  0
  8 10  1  0
 10 11  1  0
 10 33  1  0
 11 12  1  0
 11 34  1  0
 11 35  1  0
 12 13  2  0
 12 21  1  0
 13 14  1  0
 13 36  1  0
 14 15  2  0
 14 37  1  0
 15 16  1  0
 15 38  1  0
 16 17  1  0
 16 21  2  0
 17 18  1  6
 17 19  1  0
 17 20  1  0
 21 39  1  0
 22 23  1  0
M  END

