
     RDKit          3D

 33 33  0  0  0  0  0  0  0  0999 V2000
    2.0286   -0.1980    0.7972 C   0  0  0  0  0  0  0  0  0  0  0  0
    2.5792   -0.1383   -0.6354 C   0  0  1  0  0  0  0  0  0  0  0  0
    1.5589   -0.5324   -1.6298 C   0  0  0  0  0  0  0  0  0  0  0  0
    0.7420   -0.8370   -2.3923 N   0  0  0  0  0  0  0  0  0  0  0  0
    3.1257    1.1704   -1.0018 N   0  0  0  0  0  0  0  0  0  0  0  0
    4.7588    1.5078   -0.7011 S   0  0  1  0  0  0  0  0  0  0  0  0
    4.8017    2.8292   -0.0727 O   0  0  0  0  0  0  0  0  0  0  0  0
    5.3477    0.3240   -0.0614 O   0  0  0  0  0  0  0  0  0  0  0  0
    5.4647    1.6508   -2.3607 C   0  0  0  0  0  0  0  0  0  0  0  0
    6.9594    1.9609   -2.2979 C   0  0  0  0  0  0  0  0  0  0  0  0
    7.5809    2.0981   -3.7006 C   0  0  0  0  0  0  0  0  0  0  0  0
    9.0623    2.4061   -3.6567 C   0  0  0  0  0  0  0  0  0  0  0  0
   10.0113    1.3721   -3.6232 C   0  0  0  0  0  0  0  0  0  0  0  0
   11.3780    1.6536   -3.5447 C   0  0  0  0  0  0  0  0  0  0  0  0
   11.8198    2.9791   -3.4976 C   0  0  0  0  0  0  0  0  0  0  0  0
   10.8857    4.0187   -3.5308 C   0  0  0  0  0  0  0  0  0  0  0  0
    9.5200    3.7324   -3.6094 C   0  0  0  0  0  0  0  0  0  0  0  0
    1.6290   -1.1984    1.0216 H   0  0  0  0  0  0  0  0  0  0  0  0
    1.2191    0.5354    0.9384 H   0  0  0  0  0  0  0  0  0  0  0  0
    2.8445    0.0239    1.4997 H   0  0  0  0  0  0  0  0  0  0  0  0
    3.4111   -0.8563   -0.7165 H   0  0  0  0  0  0  0  0  0  0  0  0
    2.5552    1.9750   -0.7427 H   0  0  0  0  0  0  0  0  0  0  0  0
    4.8885    2.4461   -2.8573 H   0  0  0  0  0  0  0  0  0  0  0  0
    5.2530    0.6943   -2.8627 H   0  0  0  0  0  0  0  0  0  0  0  0
    7.4710    1.1615   -1.7385 H   0  0  0  0  0  0  0  0  0  0  0  0
    7.1107    2.8923   -1.7293 H   0  0  0  0  0  0  0  0  0  0  0  0
    7.0537    2.8945   -4.2532 H   0  0  0  0  0  0  0  0  0  0  0  0
    7.4139    1.1637   -4.2634 H   0  0  0  0  0  0  0  0  0  0  0  0
    9.6756    0.3314   -3.6642 H   0  0  0  0  0  0  0  0  0  0  0  0
   12.1010    0.8340   -3.5237 H   0  0  0  0  0  0  0  0  0  0  0  0
   12.8883    3.2012   -3.4388 H   0  0  0  0  0  0  0  0  0  0  0  0
   11.2216    5.0585   -3.4988 H   0  0  0  0  0  0  0  0  0  0  0  0
    8.7968    4.5531   -3.6392 H   0  0  0  0  0  0  0  0  0  0  0  0
  1  2  1  0
  1 18  1  0
  1 19  1  0
  1 20  1  0
  2  3  1  0
  2  5  1  0
  2 21  1  1
  3  4  3  0
  6  5  1  6
  5 22  1  0
  6  7  2  0
  6  8  2  0
  6  9  1  0
  9 10  1  0
  9 23  1  0
  9 24  1  0
 10 11  1  0
 10 25  1  0
 10 26  1  0
 11 12  1  0
 11 27  1  0
 11 28  1  0
 12 13  2  0
 12 17  1  0
 13 14  1  0
 13 29  1  0
 14 15  2  0
 14 30  1  0
 15 16  1  0
 15 31  1  0
 16 17  2  0
 16 32  1  0
 17 33  1  0
M  END

