
     RDKit          3D

 51 53  0  0  0  0  0  0  0  0999 V2000
    2.2604   -0.0527   -1.9776 C   0  0  0  0  0  0  0  0  0  0  0  0
    2.2997    0.2237   -0.4673 C   0  0  1  0  0  0  0  0  0  0  0  0
    0.8943    0.6950    0.0117 C   0  0  0  0  0  0  0  0  0  0  0  0
    0.1231    1.2550   -0.7488 O   0  0  0  0  0  0  0  0  0  0  0  0
    0.6744    0.4663    1.3402 N   0  0  0  0  0  0  0  0  0  0  0  0
   -0.4311    0.8060    2.1389 C   0  0  0  0  0  0  0  0  0  0  0  0
   -0.3948    0.4341    3.4961 C   0  0  0  0  0  0  0  0  0  0  0  0
   -1.4580    0.7417    4.3440 C   0  0  0  0  0  0  0  0  0  0  0  0
   -2.5761    1.4245    3.8544 C   0  0  0  0  0  0  0  0  0  0  0  0
   -2.6122    1.7933    2.5067 C   0  0  0  0  0  0  0  0  0  0  0  0
   -1.5549    1.4931    1.6441 C   0  0  0  0  0  0  0  0  0  0  0  0
    2.8463   -0.8097    0.4143 N   0  0  0  0  0  0  0  0  0  0  0  0
    2.3256   -2.1739    0.2942 C   0  0  0  0  0  0  0  0  0  0  0  0
    3.1495   -3.0755   -0.6396 C   0  0  0  0  0  0  0  0  0  0  0  0
    4.5657   -3.0247   -0.2787 N   0  0  0  0  0  0  0  0  0  0  0  0
    5.1771   -4.1617    0.1848 C   0  0  0  0  0  0  0  0  0  0  0  0
    4.6044   -5.2331    0.2948 O   0  0  0  0  0  0  0  0  0  0  0  0
    6.6614   -4.0775    0.4930 C   0  0  0  0  0  0  0  0  0  0  0  0
    7.5642   -4.0363   -0.5788 C   0  0  0  0  0  0  0  0  0  0  0  0
    8.9427   -4.0915   -0.3608 C   0  0  0  0  0  0  0  0  0  0  0  0
    9.4382   -4.1788    0.9415 C   0  0  0  0  0  0  0  0  0  0  0  0
    8.5509   -4.2128    2.0189 C   0  0  0  0  0  0  0  0  0  0  0  0
    7.1683   -4.1679    1.8044 C   0  0  0  0  0  0  0  0  0  0  0  0
    6.2421   -4.2331    3.0009 C   0  0  1  0  0  0  0  0  0  0  0  0
    5.2157   -3.3571    2.8816 F   0  0  0  0  0  0  0  0  0  0  0  0
    5.7059   -5.4462    3.1702 F   0  0  0  0  0  0  0  0  0  0  0  0
    6.8848   -3.9211    4.1409 F   0  0  0  0  0  0  0  0  0  0  0  0
    5.1217   -1.6771   -0.2220 C   0  0  0  0  0  0  0  0  0  0  0  0
    4.2739   -0.7955    0.7143 C   0  0  0  0  0  0  0  0  0  0  0  0
    1.8254    0.8141   -2.4925 H   0  0  0  0  0  0  0  0  0  0  0  0
    1.6268   -0.9203   -2.2172 H   0  0  0  0  0  0  0  0  0  0  0  0
    3.2699   -0.2323   -2.3755 H   0  0  0  0  0  0  0  0  0  0  0  0
    2.9381    1.1127   -0.3136 H   0  0  0  0  0  0  0  0  0  0  0  0
    1.4451   -0.0338    1.7813 H   0  0  0  0  0  0  0  0  0  0  0  0
    0.4768   -0.1009    3.8850 H   0  0  0  0  0  0  0  0  0  0  0  0
   -1.4106    0.4443    5.3948 H   0  0  0  0  0  0  0  0  0  0  0  0
   -3.4101    1.6658    4.5176 H   0  0  0  0  0  0  0  0  0  0  0  0
   -3.4805    2.3273    2.1114 H   0  0  0  0  0  0  0  0  0  0  0  0
   -1.5824    1.7788    0.5949 H   0  0  0  0  0  0  0  0  0  0  0  0
    1.2780   -2.1399   -0.0418 H   0  0  0  0  0  0  0  0  0  0  0  0
    2.3279   -2.6378    1.2976 H   0  0  0  0  0  0  0  0  0  0  0  0
    3.0382   -2.7566   -1.6897 H   0  0  0  0  0  0  0  0  0  0  0  0
    2.8228   -4.1197   -0.5548 H   0  0  0  0  0  0  0  0  0  0  0  0
    7.1754   -3.9702   -1.5981 H   0  0  0  0  0  0  0  0  0  0  0  0
    9.6290   -4.0660   -1.2109 H   0  0  0  0  0  0  0  0  0  0  0  0
   10.5148   -4.2185    1.1222 H   0  0  0  0  0  0  0  0  0  0  0  0
    8.9312   -4.2706    3.0397 H   0  0  0  0  0  0  0  0  0  0  0  0
    5.1436   -1.2480   -1.2408 H   0  0  0  0  0  0  0  0  0  0  0  0
    6.1563   -1.7161    0.1417 H   0  0  0  0  0  0  0  0  0  0  0  0
    4.6426    0.2417    0.6869 H   0  0  0  0  0  0  0  0  0  0  0  0
    4.4227   -1.1731    1.7420 H   0  0  0  0  0  0  0  0  0  0  0  0
  1  2  1  0
  1 30  1  0
  1 31  1  0
  1 32  1  0
  2  3  1  0
  2 12  1  0
  2 33  1  6
  3  4  2  0
  3  5  1  0
  5  6  1  0
  5 34  1  0
  6  7  2  0
  6 11  1  0
  7  8  1  0
  7 35  1  0
  8  9  2  0
  8 36  1  0
  9 10  1  0
  9 37  1  0
 10 11  2  0
 10 38  1  0
 11 39  1  0
 12 13  1  0
 12 29  1  0
 13 14  1  0
 13 40  1  0
 13 41  1  0
 14 15  1  0
 14 42  1  0
 14 43  1  0
 15 16  1  0
 15 28  1  0
 16 17  2  0
 16 18  1  0
 18 19  2  0
 18 23  1  0
 19 20  1  0
 19 44  1  0
 20 21  2  0
 20 45  1  0
 21 22  1  0
 21 46  1  0
 22 23  2  0
 22 47  1  0
 23 24  1  0
 24 25  1  6
 24 26  1  0
 24 27  1  0
 28 29  1  0
 28 48  1  0
 28 49  1  0
 29 50  1  0
 29 51  1  0
M  END

