
     RDKit          3D

 78 79  0  0  0  0  0  0  0  0999 V2000
    4.1001    0.3604    8.6088 C   0  0  0  0  0  0  0  0  0  0  0  0
    5.1597    0.5984    7.8306 C   0  0  0  0  0  0  0  0  0  0  0  0
    6.5218    1.0181    8.3089 C   0  0  0  0  0  0  0  0  0  0  0  0
    7.6338    0.0296    7.9215 C   0  0  0  0  0  0  0  0  0  0  0  0
    9.0257    0.4799    8.3732 C   0  0  0  0  0  0  0  0  0  0  0  0
   10.1500   -0.4722    7.9821 C   0  0  0  0  0  0  0  0  0  0  0  0
   10.2495   -0.6358    6.5544 O   0  0  0  0  0  0  0  0  0  0  0  0
   11.0392    0.2248    5.8791 C   0  0  0  0  0  0  0  0  0  0  0  0
   11.6560    1.1201    6.4097 O   0  0  0  0  0  0  0  0  0  0  0  0
   11.0407   -0.0588    4.3927 C   0  0  0  0  0  0  0  0  0  0  0  0
   10.3113    1.0242    3.5676 C   0  0  0  0  0  0  0  0  0  0  0  0
   10.8760    2.4491    3.6568 C   0  0  0  0  0  0  0  0  0  0  0  0
   12.3269    2.5772    3.1789 C   0  0  0  0  0  0  0  0  0  0  0  0
   12.8778    3.9979    3.2692 C   0  0  2  0  0  0  0  0  0  0  0  0
   12.7741    4.3440    4.3127 H   0  0  0  0  0  0  0  0  0  0  0  0
   11.9433    5.2053    2.2257 S   0  0  0  0  0  0  0  0  0  0  0  0
   13.2555    6.4252    2.5593 C   0  0  0  0  0  0  0  0  0  0  0  0
   14.5852    5.6658    2.4170 C   0  0  1  0  0  0  0  0  0  0  0  0
   15.3761    6.1869    2.9785 H   0  0  0  0  0  0  0  0  0  0  0  0
   14.3785    4.1961    2.8977 C   0  0  2  0  0  0  0  0  0  0  0  0
   14.9939    3.9539    3.7753 H   0  0  0  0  0  0  0  0  0  0  0  0
   14.8461    3.3949    1.7665 N   0  0  0  0  0  0  0  0  0  0  0  0
   15.2844    2.0826    2.0026 C   0  0  0  0  0  0  0  0  0  0  0  0
   15.3157    1.6235    3.1257 O   0  0  0  0  0  0  0  0  0  0  0  0
   15.6351    1.4664    0.8851 O   0  0  0  0  0  0  0  0  0  0  0  0
   16.2241    0.1178    0.8732 C   0  0  1  0  0  0  0  0  0  0  0  0
   15.2157   -0.8964    1.4200 C   0  0  0  0  0  0  0  0  0  0  0  0
   16.4824   -0.1121   -0.6162 C   0  0  0  0  0  0  0  0  0  0  0  0
   17.5350    0.1163    1.6647 C   0  0  0  0  0  0  0  0  0  0  0  0
   15.1182    4.1663    0.6081 C   0  0  0  0  0  0  0  0  0  0  0  0
   15.4205    3.7628   -0.4774 O   0  0  0  0  0  0  0  0  0  0  0  0
   15.0030    5.5117    1.0228 N   0  0  0  0  0  0  0  0  0  0  0  0
   15.3903    6.6560    0.3130 C   0  0  0  0  0  0  0  0  0  0  0  0
   15.3990    7.7439    0.8527 O   0  0  0  0  0  0  0  0  0  0  0  0
   15.7192    6.3868   -0.9395 O   0  0  0  0  0  0  0  0  0  0  0  0
   16.1855    7.4221   -1.8762 C   0  0  1  0  0  0  0  0  0  0  0  0
   17.4828    8.0471   -1.3553 C   0  0  0  0  0  0  0  0  0  0  0  0
   16.4371    6.6184   -3.1524 C   0  0  0  0  0  0  0  0  0  0  0  0
   15.0842    8.4641   -2.0904 C   0  0  0  0  0  0  0  0  0  0  0  0
    3.1378    0.0535    8.1894 H   0  0  0  0  0  0  0  0  0  0  0  0
    4.1532    0.4679    9.6978 H   0  0  0  0  0  0  0  0  0  0  0  0
    5.0550    0.4740    6.7439 H   0  0  0  0  0  0  0  0  0  0  0  0
    6.5059    1.1546    9.4044 H   0  0  0  0  0  0  0  0  0  0  0  0
    6.7676    2.0073    7.8768 H   0  0  0  0  0  0  0  0  0  0  0  0
    7.6358   -0.1128    6.8269 H   0  0  0  0  0  0  0  0  0  0  0  0
    7.4055   -0.9608    8.3550 H   0  0  0  0  0  0  0  0  0  0  0  0
    9.0481    0.5812    9.4736 H   0  0  0  0  0  0  0  0  0  0  0  0
    9.2552    1.4815    7.9711 H   0  0  0  0  0  0  0  0  0  0  0  0
    9.9607   -1.4855    8.3679 H   0  0  0  0  0  0  0  0  0  0  0  0
   11.1141   -0.1099    8.3666 H   0  0  0  0  0  0  0  0  0  0  0  0
   10.5728   -1.0368    4.2130 H   0  0  0  0  0  0  0  0  0  0  0  0
   12.0948   -0.1257    4.0794 H   0  0  0  0  0  0  0  0  0  0  0  0
    9.2495    1.0410    3.8690 H   0  0  0  0  0  0  0  0  0  0  0  0
   10.3201    0.6945    2.5139 H   0  0  0  0  0  0  0  0  0  0  0  0
   10.8096    2.8116    4.6956 H   0  0  0  0  0  0  0  0  0  0  0  0
   10.2271    3.1092    3.0564 H   0  0  0  0  0  0  0  0  0  0  0  0
   12.4112    2.2191    2.1379 H   0  0  0  0  0  0  0  0  0  0  0  0
   12.9766    1.9386    3.7945 H   0  0  0  0  0  0  0  0  0  0  0  0
   13.1568    6.8107    3.5874 H   0  0  0  0  0  0  0  0  0  0  0  0
   13.1955    7.2748    1.8697 H   0  0  0  0  0  0  0  0  0  0  0  0
   14.2662   -0.8288    0.8665 H   0  0  0  0  0  0  0  0  0  0  0  0
   15.0202   -0.7278    2.4868 H   0  0  0  0  0  0  0  0  0  0  0  0
   15.6127   -1.9154    1.2909 H   0  0  0  0  0  0  0  0  0  0  0  0
   15.5402   -0.0670   -1.1822 H   0  0  0  0  0  0  0  0  0  0  0  0
   16.9436   -1.0987   -0.7745 H   0  0  0  0  0  0  0  0  0  0  0  0
   17.1531    0.6636   -1.0134 H   0  0  0  0  0  0  0  0  0  0  0  0
   17.3581    0.3054    2.7314 H   0  0  0  0  0  0  0  0  0  0  0  0
   18.2201    0.8845    1.2736 H   0  0  0  0  0  0  0  0  0  0  0  0
   18.0267   -0.8633    1.5589 H   0  0  0  0  0  0  0  0  0  0  0  0
   18.2370    7.2665   -1.1697 H   0  0  0  0  0  0  0  0  0  0  0  0
   17.3116    8.6057   -0.4261 H   0  0  0  0  0  0  0  0  0  0  0  0
   17.8873    8.7378   -2.1115 H   0  0  0  0  0  0  0  0  0  0  0  0
   17.1837    5.8316   -2.9702 H   0  0  0  0  0  0  0  0  0  0  0  0
   16.8042    7.2798   -3.9518 H   0  0  0  0  0  0  0  0  0  0  0  0
   15.5097    6.1335   -3.4912 H   0  0  0  0  0  0  0  0  0  0  0  0
   14.8902    9.0341   -1.1728 H   0  0  0  0  0  0  0  0  0  0  0  0
   14.1513    7.9753   -2.4115 H   0  0  0  0  0  0  0  0  0  0  0  0
   15.3911    9.1651   -2.8822 H   0  0  0  0  0  0  0  0  0  0  0  0
  1  2  2  0
  1 40  1  0
  1 41  1  0
  2  3  1  0
  2 42  1  0
  3  4  1  0
  3 43  1  0
  3 44  1  0
  4  5  1  0
  4 45  1  0
  4 46  1  0
  5  6  1  0
  5 47  1  0
  5 48  1  0
  6  7  1  0
  6 49  1  0
  6 50  1  0
  7  8  1  0
  8  9  2  0
  8 10  1  0
 10 11  1  0
 10 51  1  0
 10 52  1  0
 11 12  1  0
 11 53  1  0
 11 54  1  0
 12 13  1  0
 12 55  1  0
 12 56  1  0
 13 14  1  0
 13 57  1  0
 13 58  1  0
 14 15  1  1
 14 16  1  0
 14 20  1  0
 16 17  1  0
 17 18  1  0
 17 59  1  0
 17 60  1  0
 18 19  1  1
 18 20  1  0
 18 32  1  0
 20 21  1  1
 20 22  1  0
 22 23  1  0
 22 30  1  0
 23 24  2  0
 23 25  1  0
 26 25  1  6
 26 27  1  0
 26 28  1  0
 26 29  1  0
 27 61  1  0
 27 62  1  0
 27 63  1  0
 28 64  1  0
 28 65  1  0
 28 66  1  0
 29 67  1  0
 29 68  1  0
 29 69  1  0
 30 31  2  0
 30 32  1  0
 32 33  1  0
 33 34  2  0
 33 35  1  0
 36 35  1  1
 36 37  1  0
 36 38  1  0
 36 39  1  0
 37 70  1  0
 37 71  1  0
 37 72  1  0
 38 73  1  0
 38 74  1  0
 38 75  1  0
 39 76  1  0
 39 77  1  0
 39 78  1  0
M  END

