
     RDKit          3D

 34 34  0  0  0  0  0  0  0  0999 V2000
    1.1206    0.2296   -0.2172 C   0  0  0  0  0  0  0  0  0  0  0  0
    2.6075    0.0379    0.0356 C   0  0  1  0  0  0  0  0  0  0  0  0
    3.1087    0.8302    1.1336 O   0  0  0  0  0  0  0  0  0  0  0  0
    2.7094    0.5099    2.4368 C   0  0  1  0  0  0  0  0  0  0  0  0
    3.9691    0.1861    3.2636 C   0  0  1  0  0  0  0  0  0  0  0  0
    4.8094    1.2212    3.3330 F   0  0  0  0  0  0  0  0  0  0  0  0
    3.6500   -0.1805    4.5105 F   0  0  0  0  0  0  0  0  0  0  0  0
    4.6308   -0.8377    2.6963 F   0  0  0  0  0  0  0  0  0  0  0  0
    1.9043    1.6866    3.0211 C   0  0  1  0  0  0  0  0  0  0  0  0
    0.7940    1.8866    2.2957 F   0  0  0  0  0  0  0  0  0  0  0  0
    1.5248    1.4301    4.2806 F   0  0  0  0  0  0  0  0  0  0  0  0
    2.6034    2.8236    3.0185 F   0  0  0  0  0  0  0  0  0  0  0  0
    2.9478   -1.4530    0.2551 C   0  0  0  0  0  0  0  0  0  0  0  0
    2.1071   -2.1875    0.7630 O   0  0  0  0  0  0  0  0  0  0  0  0
    4.1849   -1.8966   -0.1166 N   0  0  0  0  0  0  0  0  0  0  0  0
    4.5296   -3.3007    0.1221 C   0  0  0  0  0  0  0  0  0  0  0  0
    5.2842   -3.8666   -1.0791 C   0  0  0  0  0  0  0  0  0  0  0  0
    6.4472   -3.0365   -1.3621 N   0  0  0  0  0  0  0  0  0  0  0  0
    6.0768   -1.6627   -1.6621 C   0  0  0  0  0  0  0  0  0  0  0  0
    5.3368   -1.0647   -0.4650 C   0  0  0  0  0  0  0  0  0  0  0  0
    0.8921    1.2989   -0.3242 H   0  0  0  0  0  0  0  0  0  0  0  0
    0.5128   -0.1964    0.5914 H   0  0  0  0  0  0  0  0  0  0  0  0
    0.8381   -0.2898   -1.1460 H   0  0  0  0  0  0  0  0  0  0  0  0
    3.1622    0.4375   -0.8228 H   0  0  0  0  0  0  0  0  0  0  0  0
    2.0673   -0.3856    2.4854 H   0  0  0  0  0  0  0  0  0  0  0  0
    3.5999   -3.8494    0.3137 H   0  0  0  0  0  0  0  0  0  0  0  0
    5.1656   -3.3683    1.0238 H   0  0  0  0  0  0  0  0  0  0  0  0
    4.5783   -3.9321   -1.9384 H   0  0  0  0  0  0  0  0  0  0  0  0
    5.6158   -4.8910   -0.8451 H   0  0  0  0  0  0  0  0  0  0  0  0
    7.0087   -3.4353   -2.1111 H   0  0  0  0  0  0  0  0  0  0  0  0
    5.4225   -1.5713   -2.5602 H   0  0  0  0  0  0  0  0  0  0  0  0
    6.9867   -1.0711   -1.8529 H   0  0  0  0  0  0  0  0  0  0  0  0
    5.0250   -0.0368   -0.6792 H   0  0  0  0  0  0  0  0  0  0  0  0
    6.0219   -1.0263    0.4008 H   0  0  0  0  0  0  0  0  0  0  0  0
  1  2  1  0
  1 21  1  0
  1 22  1  0
  1 23  1  0
  2  3  1  0
  2 13  1  0
  2 24  1  6
  3  4  1  0
  4  5  1  0
  4  9  1  0
  4 25  1  6
  5  6  1  1
  5  7  1  0
  5  8  1  0
  9 10  1  6
  9 11  1  0
  9 12  1  0
 13 14  2  0
 13 15  1  0
 15 16  1  0
 15 20  1  0
 16 17  1  0
 16 26  1  0
 16 27  1  0
 17 18  1  0
 17 28  1  0
 17 29  1  0
 18 19  1  0
 18 30  1  0
 19 20  1  0
 19 31  1  0
 19 32  1  0
 20 33  1  0
 20 34  1  0
M  END

