
     RDKit          3D

 37 38  0  0  0  0  0  0  0  0999 V2000
    6.5324    4.7989    5.9978 C   0  0  0  0  0  0  0  0  0  0  0  0
    6.8337    4.2197    4.7543 O   0  0  0  0  0  0  0  0  0  0  0  0
    7.9102    3.3276    4.7945 C   0  0  0  0  0  0  0  0  0  0  0  0
    8.1276    2.7769    3.4227 C   0  0  0  0  0  0  0  0  0  0  0  0
    7.5052    2.9806    2.2273 C   0  0  0  0  0  0  0  0  0  0  0  0
    8.2251    2.1264    1.3333 C   0  0  0  0  0  0  0  0  0  0  0  0
    7.9912    1.9203   -0.1408 C   0  0  0  0  0  0  0  0  0  0  0  0
    7.9593    3.1312   -0.8623 O   0  0  0  0  0  0  0  0  0  0  0  0
    9.2330    3.7485   -1.0984 C   0  0  1  0  0  0  0  0  0  0  0  0
    9.8397    3.1869   -2.3974 C   0  0  0  0  0  0  0  0  0  0  0  0
    9.0638    3.5070   -3.5890 N   0  0  0  0  0  0  0  0  0  0  0  0
    8.8335    4.9441   -3.7274 C   0  0  0  0  0  0  0  0  0  0  0  0
    8.2016    5.5901   -2.4828 C   0  0  0  0  0  0  0  0  0  0  0  0
    8.9893    5.2681   -1.1942 C   0  0  2  0  0  0  0  0  0  0  0  0
   10.2925    6.0700   -1.0727 C   0  0  0  0  0  0  0  0  0  0  0  0
    9.1929    1.4873    1.9494 N   0  0  0  0  0  0  0  0  0  0  0  0
    9.1284    1.8915    3.2745 O   0  0  0  0  0  0  0  0  0  0  0  0
    5.6791    5.4760    5.8512 H   0  0  0  0  0  0  0  0  0  0  0  0
    7.3843    5.3838    6.3995 H   0  0  0  0  0  0  0  0  0  0  0  0
    6.2545    4.0363    6.7530 H   0  0  0  0  0  0  0  0  0  0  0  0
    7.7238    2.4893    5.5008 H   0  0  0  0  0  0  0  0  0  0  0  0
    8.8425    3.8234    5.1432 H   0  0  0  0  0  0  0  0  0  0  0  0
    6.6669    3.6367    2.0166 H   0  0  0  0  0  0  0  0  0  0  0  0
    7.0050    1.4510   -0.2895 H   0  0  0  0  0  0  0  0  0  0  0  0
    8.7554    1.2175   -0.5192 H   0  0  0  0  0  0  0  0  0  0  0  0
    9.9083    3.5399   -0.2470 H   0  0  0  0  0  0  0  0  0  0  0  0
    9.9429    2.0917   -2.3195 H   0  0  0  0  0  0  0  0  0  0  0  0
   10.8646    3.5812   -2.5191 H   0  0  0  0  0  0  0  0  0  0  0  0
    8.1631    3.0316   -3.5222 H   0  0  0  0  0  0  0  0  0  0  0  0
    8.1965    5.1162   -4.6109 H   0  0  0  0  0  0  0  0  0  0  0  0
    9.8036    5.4231   -3.9543 H   0  0  0  0  0  0  0  0  0  0  0  0
    7.1742    5.2048   -2.3694 H   0  0  0  0  0  0  0  0  0  0  0  0
    8.1199    6.6835   -2.6148 H   0  0  0  0  0  0  0  0  0  0  0  0
    8.3563    5.5294   -0.3293 H   0  0  0  0  0  0  0  0  0  0  0  0
   10.9902    5.8801   -1.9036 H   0  0  0  0  0  0  0  0  0  0  0  0
   10.8227    5.8299   -0.1365 H   0  0  0  0  0  0  0  0  0  0  0  0
   10.0795    7.1509   -1.0664 H   0  0  0  0  0  0  0  0  0  0  0  0
  1  2  1  0
  1 18  1  0
  1 19  1  0
  1 20  1  0
  2  3  1  0
  3  4  1  0
  3 21  1  0
  3 22  1  0
  4  5  2  0
  4 17  1  0
  5  6  1  0
  5 23  1  0
  6  7  1  0
  6 16  2  0
  7  8  1  0
  7 24  1  0
  7 25  1  0
  8  9  1  0
  9 10  1  0
  9 14  1  0
  9 26  1  1
 10 11  1  0
 10 27  1  0
 10 28  1  0
 11 12  1  0
 11 29  1  0
 12 13  1  0
 12 30  1  0
 12 31  1  0
 13 14  1  0
 13 32  1  0
 13 33  1  0
 14 15  1  0
 14 34  1  1
 15 35  1  0
 15 36  1  0
 15 37  1  0
 16 17  1  0
M  END

