
     RDKit          3D

 34 35  0  0  0  0  0  0  0  0999 V2000
    1.1491    0.9159    0.3447 C   0  0  0  0  0  0  0  0  0  0  0  0
    1.7509   -0.0978   -0.4253 O   0  0  0  0  0  0  0  0  0  0  0  0
    2.7287    0.2323   -1.3115 C   0  0  0  0  0  0  0  0  0  0  0  0
    3.1930    1.5380   -1.5223 C   0  0  0  0  0  0  0  0  0  0  0  0
    4.2053    1.7351   -2.4723 C   0  0  0  0  0  0  0  0  0  0  0  0
    4.7477    0.6803   -3.1939 C   0  0  0  0  0  0  0  0  0  0  0  0
    4.2848   -0.6422   -2.9798 C   0  0  0  0  0  0  0  0  0  0  0  0
    4.8769   -1.6837   -3.6776 N   0  0  0  0  0  0  0  0  0  0  0  0
    4.3332   -3.0319   -3.7879 C   0  0  1  0  0  0  0  0  0  0  0  0
    3.0913   -3.0977   -4.6887 C   0  0  0  0  0  0  0  0  0  0  0  0
    5.4604   -3.9873   -4.1872 C   0  0  0  0  0  0  0  0  0  0  0  0
    6.6732   -3.9443   -3.4749 C   0  0  0  0  0  0  0  0  0  0  0  0
    7.7264   -4.8063   -3.7779 C   0  0  0  0  0  0  0  0  0  0  0  0
    7.5666   -5.7267   -4.8130 C   0  0  0  0  0  0  0  0  0  0  0  0
    8.5757   -6.5584   -5.1127 F   0  0  0  0  0  0  0  0  0  0  0  0
    6.3841   -5.7977   -5.5406 C   0  0  0  0  0  0  0  0  0  0  0  0
    5.3370   -4.9255   -5.2220 C   0  0  0  0  0  0  0  0  0  0  0  0
    3.2646   -0.8454   -2.0360 C   0  0  0  0  0  0  0  0  0  0  0  0
    0.3998    0.4245    0.9804 H   0  0  0  0  0  0  0  0  0  0  0  0
    0.6427    1.6689   -0.2864 H   0  0  0  0  0  0  0  0  0  0  0  0
    1.8810    1.4335    0.9913 H   0  0  0  0  0  0  0  0  0  0  0  0
    2.7864    2.3868   -0.9743 H   0  0  0  0  0  0  0  0  0  0  0  0
    4.5764    2.7483   -2.6499 H   0  0  0  0  0  0  0  0  0  0  0  0
    5.5398    0.8619   -3.9254 H   0  0  0  0  0  0  0  0  0  0  0  0
    5.4671   -1.4012   -4.4520 H   0  0  0  0  0  0  0  0  0  0  0  0
    4.0219   -3.3305   -2.7710 H   0  0  0  0  0  0  0  0  0  0  0  0
    3.3431   -2.8505   -5.7326 H   0  0  0  0  0  0  0  0  0  0  0  0
    2.3412   -2.3723   -4.3417 H   0  0  0  0  0  0  0  0  0  0  0  0
    2.6262   -4.0957   -4.6706 H   0  0  0  0  0  0  0  0  0  0  0  0
    6.7906   -3.2131   -2.6719 H   0  0  0  0  0  0  0  0  0  0  0  0
    8.6680   -4.7775   -3.2257 H   0  0  0  0  0  0  0  0  0  0  0  0
    6.2926   -6.5283   -6.3467 H   0  0  0  0  0  0  0  0  0  0  0  0
    4.4146   -4.9917   -5.8000 H   0  0  0  0  0  0  0  0  0  0  0  0
    2.8575   -1.8343   -1.8275 H   0  0  0  0  0  0  0  0  0  0  0  0
  1  2  1  0
  1 19  1  0
  1 20  1  0
  1 21  1  0
  2  3  1  0
  3  4  2  0
  3 18  1  0
  4  5  1  0
  4 22  1  0
  5  6  2  0
  5 23  1  0
  6  7  1  0
  6 24  1  0
  7  8  1  0
  7 18  2  0
  8  9  1  0
  8 25  1  0
  9 10  1  0
  9 11  1  0
  9 26  1  1
 10 27  1  0
 10 28  1  0
 10 29  1  0
 11 12  2  0
 11 17  1  0
 12 13  1  0
 12 30  1  0
 13 14  2  0
 13 31  1  0
 14 15  1  0
 14 16  1  0
 16 17  2  0
 16 32  1  0
 17 33  1  0
 18 34  1  0
M  END

