
     RDKit          3D

 70 74  0  0  0  0  0  0  0  0999 V2000
    4.0722   -3.3364    0.2524 C   0  0  0  0  0  0  0  0  0  0  0  0
    4.3227   -2.1314   -0.6555 C   0  0  0  0  0  0  0  0  0  0  0  0
    4.3059   -0.7774    0.0677 C   0  0  0  0  0  0  0  0  0  0  0  0
    5.4793   -0.5641    0.9827 C   0  0  0  0  0  0  0  0  0  0  0  0
    6.5586   -1.2991    1.0271 N   0  0  0  0  0  0  0  0  0  0  0  0
    7.3853   -0.7214    1.9639 C   0  0  0  0  0  0  0  0  0  0  0  0
    8.8012   -1.0842    2.1227 C   0  0  0  0  0  0  0  0  0  0  0  0
    9.6148   -0.3823    2.7062 O   0  0  0  0  0  0  0  0  0  0  0  0
    9.1293   -2.2254    1.5080 O   0  0  0  0  0  0  0  0  0  0  0  0
   10.5218   -2.4201    1.1944 C   0  0  0  0  0  0  0  0  0  0  0  0
   10.9032   -1.6002   -0.0184 C   0  0  0  0  0  0  0  0  0  0  0  0
   12.0892   -0.8589   -0.0591 C   0  0  0  0  0  0  0  0  0  0  0  0
   12.4017   -0.0736   -1.1722 C   0  0  0  0  0  0  0  0  0  0  0  0
   11.5240    0.0083   -2.2640 C   0  0  0  0  0  0  0  0  0  0  0  0
   11.8437    0.8471   -3.4546 C   0  0  0  0  0  0  0  0  0  0  0  0
   13.0518    0.6246   -4.1385 C   0  0  0  0  0  0  0  0  0  0  0  0
   13.3663    1.3114   -5.3120 C   0  0  0  0  0  0  0  0  0  0  0  0
   12.4637    2.2409   -5.8349 C   0  0  0  0  0  0  0  0  0  0  0  0
   11.2697    2.4934   -5.1609 C   0  0  0  0  0  0  0  0  0  0  0  0
   10.9522    1.8231   -3.9667 C   0  0  0  0  0  0  0  0  0  0  0  0
    9.7114    2.2125   -3.2668 C   0  0  0  0  0  0  0  0  0  0  0  0
    9.5974    2.3735   -1.9187 N   0  0  0  0  0  0  0  0  0  0  0  0
    8.3811    2.7813   -1.6963 N   0  0  0  0  0  0  0  0  0  0  0  0
    7.7966    2.8616   -2.8786 N   0  0  0  0  0  0  0  0  0  0  0  0
    6.8137    3.1537   -2.9569 H   0  0  0  0  0  0  0  0  0  0  0  0
    8.5721    2.5238   -3.8906 N   0  0  0  0  0  0  0  0  0  0  0  0
   10.3416   -0.7523   -2.2241 C   0  0  0  0  0  0  0  0  0  0  0  0
   10.0368   -1.5460   -1.1221 C   0  0  0  0  0  0  0  0  0  0  0  0
    6.7784    0.3894    2.5353 C   0  0  0  0  0  0  0  0  0  0  0  0
    7.2577    1.3578    3.5986 C   0  0  1  0  0  0  0  0  0  0  0  0
    7.5352    0.6706    4.9424 C   0  0  0  0  0  0  0  0  0  0  0  0
    8.3576    2.1125    3.1381 O   0  0  0  0  0  0  0  0  0  0  0  0
    5.5598    0.4902    1.8890 N   0  0  0  0  0  0  0  0  0  0  0  0
    4.7156    1.6733    1.8943 C   0  0  0  0  0  0  0  0  0  0  0  0
    5.3493    2.8276    1.1185 C   0  0  1  0  0  0  0  0  0  0  0  0
    5.3260    2.5509   -0.2915 O   0  0  0  0  0  0  0  0  0  0  0  0
    5.0981    3.6907   -0.9724 C   0  0  0  0  0  0  0  0  0  0  0  0
    5.2136    3.8092   -2.1598 O   0  0  0  0  0  0  0  0  0  0  0  0
    4.7218    4.6728   -0.1383 O   0  0  0  0  0  0  0  0  0  0  0  0
    4.5995    4.1710    1.2082 C   0  0  2  0  0  0  0  0  0  0  0  0
    5.1648    5.1679    2.1976 C   0  0  0  0  0  0  0  0  0  0  0  0
    4.0598   -4.2709   -0.3309 H   0  0  0  0  0  0  0  0  0  0  0  0
    3.1001   -3.2565    0.7691 H   0  0  0  0  0  0  0  0  0  0  0  0
    4.8609   -3.4283    1.0137 H   0  0  0  0  0  0  0  0  0  0  0  0
    3.5550   -2.0977   -1.4469 H   0  0  0  0  0  0  0  0  0  0  0  0
    5.2938   -2.2461   -1.1624 H   0  0  0  0  0  0  0  0  0  0  0  0
    3.3658   -0.6778    0.6422 H   0  0  0  0  0  0  0  0  0  0  0  0
    4.2950    0.0375   -0.6774 H   0  0  0  0  0  0  0  0  0  0  0  0
   10.6045   -3.4996    0.9986 H   0  0  0  0  0  0  0  0  0  0  0  0
   11.1457   -2.1612    2.0611 H   0  0  0  0  0  0  0  0  0  0  0  0
   12.7671   -0.8719    0.7991 H   0  0  0  0  0  0  0  0  0  0  0  0
   13.3195    0.5195   -1.1745 H   0  0  0  0  0  0  0  0  0  0  0  0
   13.7403   -0.1305   -3.7514 H   0  0  0  0  0  0  0  0  0  0  0  0
   14.3104    1.1094   -5.8244 H   0  0  0  0  0  0  0  0  0  0  0  0
   12.6931    2.7767   -6.7592 H   0  0  0  0  0  0  0  0  0  0  0  0
   10.5673    3.2368   -5.5434 H   0  0  0  0  0  0  0  0  0  0  0  0
    9.6526   -0.7183   -3.0714 H   0  0  0  0  0  0  0  0  0  0  0  0
    9.0993   -2.1067   -1.0975 H   0  0  0  0  0  0  0  0  0  0  0  0
    6.4561    2.0936    3.7754 H   0  0  0  0  0  0  0  0  0  0  0  0
    8.3340   -0.0767    4.8393 H   0  0  0  0  0  0  0  0  0  0  0  0
    6.6325    0.1730    5.3320 H   0  0  0  0  0  0  0  0  0  0  0  0
    7.8644    1.4284    5.6698 H   0  0  0  0  0  0  0  0  0  0  0  0
    9.0575    1.4616    2.9292 H   0  0  0  0  0  0  0  0  0  0  0  0
    4.5292    1.9972    2.9295 H   0  0  0  0  0  0  0  0  0  0  0  0
    3.7423    1.4203    1.4526 H   0  0  0  0  0  0  0  0  0  0  0  0
    6.4066    2.9435    1.4144 H   0  0  0  0  0  0  0  0  0  0  0  0
    3.5225    4.0040    1.3955 H   0  0  0  0  0  0  0  0  0  0  0  0
    6.2286    5.3593    1.9922 H   0  0  0  0  0  0  0  0  0  0  0  0
    5.0722    4.7776    3.2234 H   0  0  0  0  0  0  0  0  0  0  0  0
    4.6156    6.1190    2.1435 H   0  0  0  0  0  0  0  0  0  0  0  0
  1  2  1  0
  1 42  1  0
  1 43  1  0
  1 44  1  0
  2  3  1  0
  2 45  1  0
  2 46  1  0
  3  4  1  0
  3 47  1  0
  3 48  1  0
  4  5  2  0
  4 33  1  0
  5  6  1  0
  6  7  1  0
  6 29  2  0
  7  8  2  0
  7  9  1  0
  9 10  1  0
 10 11  1  0
 10 49  1  0
 10 50  1  0
 11 12  2  0
 11 28  1  0
 12 13  1  0
 12 51  1  0
 13 14  2  0
 13 52  1  0
 14 15  1  0
 14 27  1  0
 15 16  2  0
 15 20  1  0
 16 17  1  0
 16 53  1  0
 17 18  2  0
 17 54  1  0
 18 19  1  0
 18 55  1  0
 19 20  2  0
 19 56  1  0
 20 21  1  0
 21 22  1  0
 21 26  2  0
 22 23  2  0
 23 24  1  0
 24 25  1  0
 24 26  1  0
 27 28  2  0
 27 57  1  0
 28 58  1  0
 29 30  1  0
 29 33  1  0
 30 31  1  0
 30 32  1  0
 30 59  1  1
 31 60  1  0
 31 61  1  0
 31 62  1  0
 32 63  1  0
 33 34  1  0
 34 35  1  0
 34 64  1  0
 34 65  1  0
 35 36  1  0
 35 40  1  0
 35 66  1  1
 36 37  1  0
 37 38  2  0
 37 39  1  0
 39 40  1  0
 40 41  1  0
 40 67  1  1
 41 68  1  0
 41 69  1  0
 41 70  1  0
M  END

