
     RDKit          3D

 48 51  0  0  0  0  0  0  0  0999 V2000
    1.0783   -0.1917   -0.0336 C   0  0  0  0  0  0  0  0  0  0  0  0
    2.5974   -0.0730   -0.2922 C   0  0  1  0  0  0  0  0  0  0  0  0
    3.2977    0.0277    1.0844 C   0  0  0  0  0  0  0  0  0  0  0  0
    3.1119   -1.3836   -0.9777 C   0  0  0  0  0  0  0  0  0  0  0  0
    3.8615   -2.1246   -0.3539 O   0  0  0  0  0  0  0  0  0  0  0  0
    2.7068   -1.7117   -2.2516 N   0  0  0  0  0  0  0  0  0  0  0  0
    3.1879   -2.9658   -2.8370 C   0  0  0  0  0  0  0  0  0  0  0  0
    2.0186   -3.8433   -3.2947 C   0  0  0  0  0  0  0  0  0  0  0  0
    1.0951   -3.0848   -4.2528 C   0  0  2  0  0  0  0  0  0  0  0  0
    0.6698   -1.7469   -3.6420 C   0  0  0  0  0  0  0  0  0  0  0  0
    1.8843   -0.9346   -3.1743 C   0  0  0  0  0  0  0  0  0  0  0  0
   -0.0335   -3.8948   -4.5630 O   0  0  0  0  0  0  0  0  0  0  0  0
   -0.1667   -3.9768   -5.9710 C   0  0  0  0  0  0  0  0  0  0  0  0
    1.2621   -3.7388   -6.4539 C   0  0  0  0  0  0  0  0  0  0  0  0
    1.7548   -2.8231   -5.4929 O   0  0  0  0  0  0  0  0  0  0  0  0
    2.9533    1.1661   -1.0972 C   0  0  0  0  0  0  0  0  0  0  0  0
    2.1632    2.2751   -1.3196 C   0  0  0  0  0  0  0  0  0  0  0  0
    2.8632    3.2271   -2.0313 N   0  0  0  0  0  0  0  0  0  0  0  0
    2.5005    4.1260   -2.3164 H   0  0  0  0  0  0  0  0  0  0  0  0
    4.1349    2.7603   -2.2848 C   0  0  0  0  0  0  0  0  0  0  0  0
    5.2049    3.3557   -2.9669 C   0  0  0  0  0  0  0  0  0  0  0  0
    6.3928    2.6389   -3.0680 C   0  0  0  0  0  0  0  0  0  0  0  0
    6.4908    1.3576   -2.4939 C   0  0  0  0  0  0  0  0  0  0  0  0
    7.6614    0.7032   -2.6155 F   0  0  0  0  0  0  0  0  0  0  0  0
    5.4472    0.7497   -1.8163 C   0  0  0  0  0  0  0  0  0  0  0  0
    4.2328    1.4611   -1.7052 C   0  0  0  0  0  0  0  0  0  0  0  0
    0.8625   -1.1175    0.5214 H   0  0  0  0  0  0  0  0  0  0  0  0
    0.4763   -0.2001   -0.9531 H   0  0  0  0  0  0  0  0  0  0  0  0
    0.7312    0.6496    0.5870 H   0  0  0  0  0  0  0  0  0  0  0  0
    3.0850   -0.8580    1.6989 H   0  0  0  0  0  0  0  0  0  0  0  0
    2.9398    0.9283    1.6064 H   0  0  0  0  0  0  0  0  0  0  0  0
    4.3877    0.0989    0.9762 H   0  0  0  0  0  0  0  0  0  0  0  0
    3.7996   -3.4739   -2.0840 H   0  0  0  0  0  0  0  0  0  0  0  0
    3.8274   -2.7321   -3.7072 H   0  0  0  0  0  0  0  0  0  0  0  0
    1.4248   -4.1729   -2.4271 H   0  0  0  0  0  0  0  0  0  0  0  0
    2.3948   -4.7463   -3.8013 H   0  0  0  0  0  0  0  0  0  0  0  0
    0.0023   -1.9588   -2.7915 H   0  0  0  0  0  0  0  0  0  0  0  0
    0.0997   -1.1794   -4.3942 H   0  0  0  0  0  0  0  0  0  0  0  0
    1.5740    0.0053   -2.7134 H   0  0  0  0  0  0  0  0  0  0  0  0
    2.4956   -0.6692   -4.0558 H   0  0  0  0  0  0  0  0  0  0  0  0
   -0.8556   -3.1999   -6.3561 H   0  0  0  0  0  0  0  0  0  0  0  0
   -0.5673   -4.9669   -6.2376 H   0  0  0  0  0  0  0  0  0  0  0  0
    1.3281   -3.2790   -7.4514 H   0  0  0  0  0  0  0  0  0  0  0  0
    1.8477   -4.6787   -6.4559 H   0  0  0  0  0  0  0  0  0  0  0  0
    1.1343    2.4633   -1.0202 H   0  0  0  0  0  0  0  0  0  0  0  0
    5.1166    4.3519   -3.4071 H   0  0  0  0  0  0  0  0  0  0  0  0
    7.2619    3.0487   -3.5859 H   0  0  0  0  0  0  0  0  0  0  0  0
    5.5845   -0.2438   -1.3867 H   0  0  0  0  0  0  0  0  0  0  0  0
  1  2  1  0
  1 27  1  0
  1 28  1  0
  1 29  1  0
  2  3  1  0
  2  4  1  6
  2 16  1  0
  3 30  1  0
  3 31  1  0
  3 32  1  0
  4  5  2  0
  4  6  1  0
  6  7  1  0
  6 11  1  0
  7  8  1  0
  7 33  1  0
  7 34  1  0
  8  9  1  0
  8 35  1  0
  8 36  1  0
  9 10  1  0
  9 12  1  6
  9 15  1  0
 10 11  1  0
 10 37  1  0
 10 38  1  0
 11 39  1  0
 11 40  1  0
 12 13  1  0
 13 14  1  0
 13 41  1  0
 13 42  1  0
 14 15  1  0
 14 43  1  0
 14 44  1  0
 16 17  2  0
 16 26  1  0
 17 18  1  0
 17 45  1  0
 18 19  1  0
 18 20  1  0
 20 21  1  0
 20 26  2  0
 21 22  2  0
 21 46  1  0
 22 23  1  0
 22 47  1  0
 23 24  1  0
 23 25  2  0
 25 26  1  0
 25 48  1  0
M  END

