
     RDKit          3D

 47 50  0  0  0  0  0  0  0  0999 V2000
    1.1291    2.2427   -0.6570 C   0  0  0  0  0  0  0  0  0  0  0  0
    2.1305    1.3604   -0.6928 C   0  0  0  0  0  0  0  0  0  0  0  0
    3.3652    1.5045   -1.5475 C   0  0  0  0  0  0  0  0  0  0  0  0
    4.6086    1.3184   -0.8084 N   0  0  0  0  0  0  0  0  0  0  0  0
    5.2845    2.2448   -0.0264 C   0  0  0  0  0  0  0  0  0  0  0  0
    4.8622    3.6816    0.0866 C   0  0  1  0  0  0  0  0  0  0  0  0
    3.7787    3.7609   -0.0887 H   0  0  0  0  0  0  0  0  0  0  0  0
    5.1909    4.3319    1.4341 C   0  0  0  0  0  0  0  0  0  0  0  0
    5.3552    5.8107    1.1126 C   0  0  0  0  0  0  0  0  0  0  0  0
    5.3163    6.7185    1.9140 O   0  0  0  0  0  0  0  0  0  0  0  0
    5.5786    5.9207   -0.2605 N   0  0  0  0  0  0  0  0  0  0  0  0
    5.9116    7.1046   -0.9616 C   0  0  0  0  0  0  0  0  0  0  0  0
    5.6881    8.3777   -0.4089 C   0  0  0  0  0  0  0  0  0  0  0  0
    6.0227    9.5118   -1.1546 C   0  0  0  0  0  0  0  0  0  0  0  0
    6.5706    9.4177   -2.4302 C   0  0  0  0  0  0  0  0  0  0  0  0
    6.7996    8.1479   -2.9814 C   0  0  0  0  0  0  0  0  0  0  0  0
    7.3442    8.1250   -4.2271 O   0  0  0  0  0  0  0  0  0  0  0  0
    7.6210    6.8911   -4.8446 C   0  0  0  0  0  0  0  0  0  0  0  0
    6.4736    6.9958   -2.2527 C   0  0  0  0  0  0  0  0  0  0  0  0
    5.5860    4.6151   -0.9164 C   0  0  0  0  0  0  0  0  0  0  0  0
    6.3496    1.7466    0.5507 N   0  0  0  0  0  0  0  0  0  0  0  0
    6.4029    0.4221    0.1632 C   0  0  0  0  0  0  0  0  0  0  0  0
    7.3309   -0.5798    0.4866 C   0  0  0  0  0  0  0  0  0  0  0  0
    7.1387   -1.8506   -0.0511 C   0  0  0  0  0  0  0  0  0  0  0  0
    6.0439   -2.1315   -0.8964 C   0  0  0  0  0  0  0  0  0  0  0  0
    5.1089   -1.1509   -1.2300 C   0  0  0  0  0  0  0  0  0  0  0  0
    5.3095    0.1255   -0.6906 C   0  0  0  0  0  0  0  0  0  0  0  0
    0.2458    2.0787   -0.0342 H   0  0  0  0  0  0  0  0  0  0  0  0
    1.1484    3.1611   -1.2540 H   0  0  0  0  0  0  0  0  0  0  0  0
    2.0833    0.4510   -0.0816 H   0  0  0  0  0  0  0  0  0  0  0  0
    3.3764    2.4856   -2.0468 H   0  0  0  0  0  0  0  0  0  0  0  0
    3.3574    0.7496   -2.3512 H   0  0  0  0  0  0  0  0  0  0  0  0
    6.1469    3.9422    1.8218 H   0  0  0  0  0  0  0  0  0  0  0  0
    4.4275    4.1869    2.2104 H   0  0  0  0  0  0  0  0  0  0  0  0
    5.2731    8.4670    0.5905 H   0  0  0  0  0  0  0  0  0  0  0  0
    5.8457   10.4991   -0.7198 H   0  0  0  0  0  0  0  0  0  0  0  0
    6.8319   10.3004   -3.0164 H   0  0  0  0  0  0  0  0  0  0  0  0
    8.0527    7.1218   -5.8280 H   0  0  0  0  0  0  0  0  0  0  0  0
    6.7068    6.2868   -4.9919 H   0  0  0  0  0  0  0  0  0  0  0  0
    8.3508    6.2934   -4.2680 H   0  0  0  0  0  0  0  0  0  0  0  0
    6.6721    6.0162   -2.6794 H   0  0  0  0  0  0  0  0  0  0  0  0
    6.6174    4.2609   -1.0955 H   0  0  0  0  0  0  0  0  0  0  0  0
    5.0705    4.6653   -1.8883 H   0  0  0  0  0  0  0  0  0  0  0  0
    8.1740   -0.3539    1.1426 H   0  0  0  0  0  0  0  0  0  0  0  0
    7.8461   -2.6493    0.1849 H   0  0  0  0  0  0  0  0  0  0  0  0
    5.9237   -3.1410   -1.2975 H   0  0  0  0  0  0  0  0  0  0  0  0
    4.2625   -1.3831   -1.8803 H   0  0  0  0  0  0  0  0  0  0  0  0
  1  2  2  0
  1 28  1  0
  1 29  1  0
  2  3  1  0
  2 30  1  0
  3  4  1  0
  3 31  1  0
  3 32  1  0
  4  5  1  0
  4 27  1  0
  5  6  1  0
  5 21  2  0
  6  7  1  6
  6  8  1  0
  6 20  1  0
  8  9  1  0
  8 33  1  0
  8 34  1  0
  9 10  2  0
  9 11  1  0
 11 12  1  0
 11 20  1  0
 12 13  2  0
 12 19  1  0
 13 14  1  0
 13 35  1  0
 14 15  2  0
 14 36  1  0
 15 16  1  0
 15 37  1  0
 16 17  1  0
 16 19  2  0
 17 18  1  0
 18 38  1  0
 18 39  1  0
 18 40  1  0
 19 41  1  0
 20 42  1  0
 20 43  1  0
 21 22  1  0
 22 23  1  0
 22 27  2  0
 23 24  2  0
 23 44  1  0
 24 25  1  0
 24 45  1  0
 25 26  2  0
 25 46  1  0
 26 27  1  0
 26 47  1  0
M  END

