
     RDKit          3D

 30 31  0  0  0  0  0  0  0  0999 V2000
    1.0034    0.5040   -0.5520 C   0  0  0  0  0  0  0  0  0  0  0  0
    2.4300    0.1115   -0.1476 C   0  0  1  0  0  0  0  0  0  0  0  0
    2.5112   -0.2453    1.2802 N   0  0  0  0  0  0  0  0  0  0  0  0
    3.0877    0.5072    2.2850 C   0  0  0  0  0  0  0  0  0  0  0  0
    3.6300   -0.1287    3.4237 C   0  0  0  0  0  0  0  0  0  0  0  0
    4.1680    0.6154    4.4676 C   0  0  0  0  0  0  0  0  0  0  0  0
    4.6671   -0.0409    5.5271 F   0  0  0  0  0  0  0  0  0  0  0  0
    4.2189    2.0065    4.4434 C   0  0  0  0  0  0  0  0  0  0  0  0
    3.6884    2.6512    3.3222 C   0  0  0  0  0  0  0  0  0  0  0  0
    3.1327    1.9201    2.2818 C   0  0  0  0  0  0  0  0  0  0  0  0
    2.5954    2.5975    1.2373 F   0  0  0  0  0  0  0  0  0  0  0  0
    3.0072   -1.0301   -0.9783 C   0  0  0  0  0  0  0  0  0  0  0  0
    2.2805   -2.2053   -1.2301 C   0  0  0  0  0  0  0  0  0  0  0  0
    2.8466   -3.2556   -1.9523 C   0  0  0  0  0  0  0  0  0  0  0  0
    4.1511   -3.1555   -2.4471 C   0  0  0  0  0  0  0  0  0  0  0  0
    4.8268   -4.4791   -3.3505 Cl  0  0  0  0  0  0  0  0  0  0  0  0
    4.8879   -1.9836   -2.2068 C   0  0  0  0  0  0  0  0  0  0  0  0
    6.5116   -1.8049   -2.8062 Cl  0  0  0  0  0  0  0  0  0  0  0  0
    4.3131   -0.9386   -1.4765 C   0  0  0  0  0  0  0  0  0  0  0  0
    0.6895    1.3824    0.0291 H   0  0  0  0  0  0  0  0  0  0  0  0
    0.2880   -0.3085   -0.3500 H   0  0  0  0  0  0  0  0  0  0  0  0
    0.9520    0.7542   -1.6235 H   0  0  0  0  0  0  0  0  0  0  0  0
    3.0769    0.9839   -0.3055 H   0  0  0  0  0  0  0  0  0  0  0  0
    2.5126   -1.2423    1.4592 H   0  0  0  0  0  0  0  0  0  0  0  0
    3.6364   -1.2184    3.4948 H   0  0  0  0  0  0  0  0  0  0  0  0
    4.6556    2.5575    5.2767 H   0  0  0  0  0  0  0  0  0  0  0  0
    3.6839    3.7403    3.2439 H   0  0  0  0  0  0  0  0  0  0  0  0
    1.2550   -2.3094   -0.8686 H   0  0  0  0  0  0  0  0  0  0  0  0
    2.2795   -4.1673   -2.1480 H   0  0  0  0  0  0  0  0  0  0  0  0
    4.9079   -0.0397   -1.3018 H   0  0  0  0  0  0  0  0  0  0  0  0
  1  2  1  0
  1 20  1  0
  1 21  1  0
  1 22  1  0
  2  3  1  0
  2 12  1  0
  2 23  1  1
  3  4  1  0
  3 24  1  0
  4  5  2  0
  4 10  1  0
  5  6  1  0
  5 25  1  0
  6  7  1  0
  6  8  2  0
  8  9  1  0
  8 26  1  0
  9 10  2  0
  9 27  1  0
 10 11  1  0
 12 13  2  0
 12 19  1  0
 13 14  1  0
 13 28  1  0
 14 15  2  0
 14 29  1  0
 15 16  1  0
 15 17  1  0
 17 18  1  0
 17 19  2  0
 19 30  1  0
M  END

