
     RDKit          3D

 22 22  0  0  0  0  0  0  0  0999 V2000
    3.4402    1.5236   -1.5484 C   0  0  0  0  0  0  0  0  0  0  0  0
    3.2237    0.4532   -0.4937 C   0  0  0  0  0  0  0  0  0  0  0  0
    3.6123    0.9230    0.8199 O   0  0  0  0  0  0  0  0  0  0  0  0
    4.8907    0.7899    1.1714 C   0  0  0  0  0  0  0  0  0  0  0  0
    5.7571    0.2763    0.5140 O   0  0  0  0  0  0  0  0  0  0  0  0
    5.1338    1.3775    2.5437 C   0  0  0  0  0  0  0  0  0  0  0  0
    5.2733    2.7611    2.7490 C   0  0  0  0  0  0  0  0  0  0  0  0
    5.1114    3.8432    1.3934 Cl  0  0  0  0  0  0  0  0  0  0  0  0
    5.5365    3.3116    3.9181 N   0  0  0  0  0  0  0  0  0  0  0  0
    5.6926    2.5444    4.9777 C   0  0  0  0  0  0  0  0  0  0  0  0
    6.0112    3.3188    6.4968 Cl  0  0  0  0  0  0  0  0  0  0  0  0
    5.5843    1.1482    4.9078 C   0  0  0  0  0  0  0  0  0  0  0  0
    5.7562    0.3121    6.1130 N   0  0  0  0  0  0  0  0  0  0  0  0
    6.8841    0.2211    6.5538 O   0  0  0  0  0  0  0  0  0  0  0  0
    4.7530   -0.2106    6.5569 O   0  0  0  0  0  0  0  0  0  0  0  0
    5.2960    0.5601    3.6705 C   0  0  0  0  0  0  0  0  0  0  0  0
    5.1495   -1.1570    3.5342 Cl  0  0  0  0  0  0  0  0  0  0  0  0
    3.0579    1.1689   -2.5188 H   0  0  0  0  0  0  0  0  0  0  0  0
    4.5098    1.7517   -1.6654 H   0  0  0  0  0  0  0  0  0  0  0  0
    2.9076    2.4498   -1.2843 H   0  0  0  0  0  0  0  0  0  0  0  0
    3.7930   -0.4588   -0.7240 H   0  0  0  0  0  0  0  0  0  0  0  0
    2.1600    0.1990   -0.3871 H   0  0  0  0  0  0  0  0  0  0  0  0
  1  2  1  0
  1 18  1  0
  1 19  1  0
  1 20  1  0
  2  3  1  0
  2 21  1  0
  2 22  1  0
  3  4  1  0
  4  5  2  0
  4  6  1  0
  6  7  2  0
  6 16  1  0
  7  8  1  0
  7  9  1  0
  9 10  2  0
 10 11  1  0
 10 12  1  0
 12 13  1  0
 12 16  2  0
 13 14  2  0
 13 15  1  0
 16 17  1  0
M  CHG  2  13   1  15  -1
M  END

