
     RDKit          3D

 41 42  0  0  0  0  0  0  0  0999 V2000
    3.6100   -0.7770   -0.7938 C   0  0  0  0  0  0  0  0  0  0  0  0
    2.7562   -0.2886    0.3873 C   0  0  0  0  0  0  0  0  0  0  0  0
    3.0873    1.1148    0.8430 C   0  0  0  0  0  0  0  0  0  0  0  0
    3.9560    1.3821    1.8747 C   0  0  0  0  0  0  0  0  0  0  0  0
    4.7318    0.3889    2.7151 C   0  0  0  0  0  0  0  0  0  0  0  0
    5.2493    0.9174    3.9610 N   0  0  0  0  0  0  0  0  0  0  0  0
    4.6065    1.0362    5.1797 C   0  0  0  0  0  0  0  0  0  0  0  0
    5.2290    1.3991    6.1652 O   0  0  0  0  0  0  0  0  0  0  0  0
    3.1507    0.7122    5.2088 C   0  0  0  0  0  0  0  0  0  0  0  0
    2.4695    0.7963    6.3603 C   0  0  0  0  0  0  0  0  0  0  0  0
    0.9964    0.5493    6.5265 C   0  0  0  0  0  0  0  0  0  0  0  0
    0.3611   -0.1486    5.4215 N   0  0  0  0  0  0  0  0  0  0  0  0
    0.6038   -1.5803    5.4500 C   0  0  0  0  0  0  0  0  0  0  0  0
   -1.0482    0.1641    5.2770 C   0  0  0  0  0  0  0  0  0  0  0  0
    4.2047    3.0914    2.1905 S   0  0  0  0  0  0  0  0  0  0  0  0
    3.1189    3.5063    0.8906 C   0  0  0  0  0  0  0  0  0  0  0  0
    2.8322    4.7636    0.5674 N   0  0  0  0  0  0  0  0  0  0  0  0
    1.9813    4.9029   -0.4399 C   0  0  0  0  0  0  0  0  0  0  0  0
    1.4085    3.9046   -1.1298 N   0  0  0  0  0  0  0  0  0  0  0  0
    1.6992    2.6686   -0.7968 C   0  0  0  0  0  0  0  0  0  0  0  0
    0.9107    1.4207   -1.7499 Cl  0  0  0  0  0  0  0  0  0  0  0  0
    2.5910    2.3448    0.2530 C   0  0  0  0  0  0  0  0  0  0  0  0
    3.3419   -1.8105   -1.0657 H   0  0  0  0  0  0  0  0  0  0  0  0
    4.6844   -0.7589   -0.5496 H   0  0  0  0  0  0  0  0  0  0  0  0
    3.4547   -0.1459   -1.6816 H   0  0  0  0  0  0  0  0  0  0  0  0
    2.8863   -0.9792    1.2359 H   0  0  0  0  0  0  0  0  0  0  0  0
    1.6935   -0.3407    0.1119 H   0  0  0  0  0  0  0  0  0  0  0  0
    5.5934    0.0210    2.1320 H   0  0  0  0  0  0  0  0  0  0  0  0
    4.1044   -0.4977    2.8998 H   0  0  0  0  0  0  0  0  0  0  0  0
    6.2389    1.1367    4.0151 H   0  0  0  0  0  0  0  0  0  0  0  0
    2.6197    0.4323    4.2966 H   0  0  0  0  0  0  0  0  0  0  0  0
    3.0235    1.1065    7.2541 H   0  0  0  0  0  0  0  0  0  0  0  0
    0.5155    1.5385    6.6436 H   0  0  0  0  0  0  0  0  0  0  0  0
    0.8256    0.0368    7.5033 H   0  0  0  0  0  0  0  0  0  0  0  0
    1.6832   -1.7848    5.5081 H   0  0  0  0  0  0  0  0  0  0  0  0
    0.2193   -2.0485    4.5298 H   0  0  0  0  0  0  0  0  0  0  0  0
    0.1164   -2.0848    6.3163 H   0  0  0  0  0  0  0  0  0  0  0  0
   -1.1897    1.2502    5.1619 H   0  0  0  0  0  0  0  0  0  0  0  0
   -1.6687   -0.1722    6.1401 H   0  0  0  0  0  0  0  0  0  0  0  0
   -1.4488   -0.3232    4.3738 H   0  0  0  0  0  0  0  0  0  0  0  0
    1.7178    5.9224   -0.7416 H   0  0  0  0  0  0  0  0  0  0  0  0
  1  2  1  0
  1 23  1  0
  1 24  1  0
  1 25  1  0
  2  3  1  0
  2 26  1  0
  2 27  1  0
  3  4  2  0
  3 22  1  0
  4  5  1  0
  4 15  1  0
  5  6  1  0
  5 28  1  0
  5 29  1  0
  6  7  1  0
  6 30  1  0
  7  8  2  0
  7  9  1  0
  9 10  2  0
  9 31  1  0
 10 11  1  0
 10 32  1  0
 11 12  1  0
 11 33  1  0
 11 34  1  0
 12 13  1  0
 12 14  1  0
 13 35  1  0
 13 36  1  0
 13 37  1  0
 14 38  1  0
 14 39  1  0
 14 40  1  0
 15 16  1  0
 16 17  1  0
 16 22  2  0
 17 18  2  0
 18 19  1  0
 18 41  1  0
 19 20  2  0
 20 21  1  0
 20 22  1  0
M  END

