
     RDKit          3D

 20 20  0  0  0  0  0  0  0  0999 V2000
    1.0831    0.0132    0.1204 C   0  0  0  0  0  0  0  0  0  0  0  0
    2.5827    0.0162   -0.0028 C   0  0  0  0  0  0  0  0  0  0  0  0
    3.3469    1.1865    0.0786 C   0  0  0  0  0  0  0  0  0  0  0  0
    4.7393    1.1589   -0.0465 C   0  0  0  0  0  0  0  0  0  0  0  0
    5.6064    2.6754    0.0502 Cl  0  0  0  0  0  0  0  0  0  0  0  0
    5.4225   -0.0570   -0.2383 C   0  0  0  0  0  0  0  0  0  0  0  0
    7.1880   -0.1670   -0.4893 S   0  0  0  0  0  0  0  0  0  0  0  0
    7.8245    0.2229    1.2001 C   0  0  0  0  0  0  0  0  0  0  0  0
    7.5247   -0.8070    2.1888 C   0  0  0  0  0  0  0  0  0  0  0  0
    7.2658   -1.6289    2.9641 N   0  0  0  0  0  0  0  0  0  0  0  0
    4.6636   -1.2359   -0.3152 C   0  0  0  0  0  0  0  0  0  0  0  0
    3.2803   -1.1817   -0.2049 C   0  0  0  0  0  0  0  0  0  0  0  0
    2.5784   -2.3225   -0.2858 F   0  0  0  0  0  0  0  0  0  0  0  0
    0.6939    1.0311    0.2612 H   0  0  0  0  0  0  0  0  0  0  0  0
    0.7578   -0.6034    0.9742 H   0  0  0  0  0  0  0  0  0  0  0  0
    0.6130   -0.4178   -0.7783 H   0  0  0  0  0  0  0  0  0  0  0  0
    2.8508    2.1460    0.2349 H   0  0  0  0  0  0  0  0  0  0  0  0
    7.4326    1.1984    1.5250 H   0  0  0  0  0  0  0  0  0  0  0  0
    8.9149    0.3192    1.0786 H   0  0  0  0  0  0  0  0  0  0  0  0
    5.1543   -2.2001   -0.4542 H   0  0  0  0  0  0  0  0  0  0  0  0
  1  2  1  0
  1 14  1  0
  1 15  1  0
  1 16  1  0
  2  3  2  0
  2 12  1  0
  3  4  1  0
  3 17  1  0
  4  5  1  0
  4  6  2  0
  6  7  1  0
  6 11  1  0
  7  8  1  0
  8  9  1  0
  8 18  1  0
  8 19  1  0
  9 10  3  0
 11 12  2  0
 11 20  1  0
 12 13  1  0
M  END

