
     RDKit          3D

 36 37  0  0  0  0  0  0  0  0999 V2000
    0.7839    0.0670   -1.0085 N   0  0  0  0  0  0  0  0  0  0  0  0
    2.2055   -0.0179   -0.6831 C   0  0  0  0  0  0  0  0  0  0  0  0
    2.8671    1.3570   -0.7398 C   0  0  1  0  0  0  0  0  0  0  0  0
    2.3194    2.3970    0.2469 C   0  0  0  0  0  0  0  0  0  0  0  0
    3.3754    3.5245    0.2566 C   0  0  0  0  0  0  0  0  0  0  0  0
    4.7122    2.8529   -0.1599 C   0  0  0  0  0  0  0  0  0  0  0  0
    4.3739    1.3596   -0.4069 C   0  0  2  0  0  0  0  0  0  0  0  0
    5.2087    0.7232   -1.4117 N   0  0  0  0  0  0  0  0  0  0  0  0
    6.1378   -0.2225   -1.1163 C   0  0  0  0  0  0  0  0  0  0  0  0
    6.3006   -0.6806    0.0050 O   0  0  0  0  0  0  0  0  0  0  0  0
    6.9554   -0.7943   -2.2712 C   0  0  0  0  0  0  0  0  0  0  0  0
    7.3879   -2.1190   -2.0678 C   0  0  0  0  0  0  0  0  0  0  0  0
    8.1531   -2.8051   -3.0041 C   0  0  0  0  0  0  0  0  0  0  0  0
    8.5152   -2.1371   -4.1726 C   0  0  0  0  0  0  0  0  0  0  0  0
    9.3328   -2.8385   -5.1894 N   0  0  0  0  0  0  0  0  0  0  0  0
    9.6493   -3.9914   -4.9520 O   0  0  0  0  0  0  0  0  0  0  0  0
    9.6334   -2.2181   -6.1953 O   0  0  0  0  0  0  0  0  0  0  0  0
    8.1379   -0.8208   -4.4150 C   0  0  0  0  0  0  0  0  0  0  0  0
    7.3589   -0.1578   -3.4632 C   0  0  0  0  0  0  0  0  0  0  0  0
    6.9605    1.5134   -3.8418 Cl  0  0  0  0  0  0  0  0  0  0  0  0
    0.3304   -0.8350   -0.8653 H   0  0  0  0  0  0  0  0  0  0  0  0
    0.6605    0.2900   -1.9975 H   0  0  0  0  0  0  0  0  0  0  0  0
    2.7801   -0.7151   -1.3309 H   0  0  0  0  0  0  0  0  0  0  0  0
    2.2992   -0.4094    0.3455 H   0  0  0  0  0  0  0  0  0  0  0  0
    2.7500    1.7573   -1.7694 H   0  0  0  0  0  0  0  0  0  0  0  0
    2.2479    1.9293    1.2450 H   0  0  0  0  0  0  0  0  0  0  0  0
    1.3083    2.7370   -0.0151 H   0  0  0  0  0  0  0  0  0  0  0  0
    3.4414    4.0151    1.2395 H   0  0  0  0  0  0  0  0  0  0  0  0
    3.1033    4.3102   -0.4659 H   0  0  0  0  0  0  0  0  0  0  0  0
    5.5059    2.9594    0.5949 H   0  0  0  0  0  0  0  0  0  0  0  0
    5.1042    3.2958   -1.0901 H   0  0  0  0  0  0  0  0  0  0  0  0
    4.5323    0.7841    0.5171 H   0  0  0  0  0  0  0  0  0  0  0  0
    5.1772    1.0969   -2.3535 H   0  0  0  0  0  0  0  0  0  0  0  0
    7.1040   -2.5904   -1.1259 H   0  0  0  0  0  0  0  0  0  0  0  0
    8.4763   -3.8333   -2.8459 H   0  0  0  0  0  0  0  0  0  0  0  0
    8.4539   -0.3254   -5.3314 H   0  0  0  0  0  0  0  0  0  0  0  0
  1  2  1  0
  1 21  1  0
  1 22  1  0
  2  3  1  0
  2 23  1  0
  2 24  1  0
  3  4  1  0
  3  7  1  0
  3 25  1  6
  4  5  1  0
  4 26  1  0
  4 27  1  0
  5  6  1  0
  5 28  1  0
  5 29  1  0
  6  7  1  0
  6 30  1  0
  6 31  1  0
  7  8  1  0
  7 32  1  1
  8  9  1  0
  8 33  1  0
  9 10  2  0
  9 11  1  0
 11 12  2  0
 11 19  1  0
 12 13  1  0
 12 34  1  0
 13 14  2  0
 13 35  1  0
 14 15  1  0
 14 18  1  0
 15 16  2  0
 15 17  1  0
 18 19  2  0
 18 36  1  0
 19 20  1  0
M  CHG  2  15   1  17  -1
M  END

