
     RDKit          3D

 51 53  0  0  0  0  0  0  0  0999 V2000
    5.4638   -1.1369    1.3464 N   0  0  0  0  0  0  0  0  0  0  0  0
    4.9188    0.1751    1.6729 C   0  0  0  0  0  0  0  0  0  0  0  0
    3.3862    0.1972    1.5390 C   0  0  2  0  0  0  0  0  0  0  0  0
    3.1304   -0.0277    0.4907 H   0  0  0  0  0  0  0  0  0  0  0  0
    2.7890    1.5468    1.9612 C   0  0  0  0  0  0  0  0  0  0  0  0
    2.4811    1.3702    3.3845 N   0  0  0  0  0  0  0  0  0  0  0  0
    2.2593    2.4549    4.1842 C   0  0  0  0  0  0  0  0  0  0  0  0
    2.2678    3.5934    3.7319 O   0  0  0  0  0  0  0  0  0  0  0  0
    2.0069    2.1658    5.6649 C   0  0  0  0  0  0  0  0  0  0  0  0
    1.7907    3.4252    6.5054 C   0  0  0  0  0  0  0  0  0  0  0  0
    0.4671    4.1215    6.2230 C   0  0  0  0  0  0  0  0  0  0  0  0
    0.3288    5.1816    7.1780 O   0  0  0  0  0  0  0  0  0  0  0  0
   -0.5049    6.2202    6.9248 C   0  0  0  0  0  0  0  0  0  0  0  0
   -0.0756    7.5132    7.2607 C   0  0  0  0  0  0  0  0  0  0  0  0
   -0.8943    8.6291    7.0813 C   0  0  0  0  0  0  0  0  0  0  0  0
   -2.1642    8.4503    6.5381 C   0  0  0  0  0  0  0  0  0  0  0  0
   -2.9610    9.5132    6.3482 F   0  0  0  0  0  0  0  0  0  0  0  0
   -2.6312    7.1863    6.1876 C   0  0  0  0  0  0  0  0  0  0  0  0
   -1.8017    6.0876    6.3954 C   0  0  0  0  0  0  0  0  0  0  0  0
   -2.2726    4.8662    6.0863 F   0  0  0  0  0  0  0  0  0  0  0  0
    2.5653   -0.0302    3.8073 C   0  0  0  0  0  0  0  0  0  0  0  0
    2.6953   -0.8247    2.4916 C   0  0  1  0  0  0  0  0  0  0  0  0
    3.3737   -1.6784    2.6257 H   0  0  0  0  0  0  0  0  0  0  0  0
    1.3833   -1.3497    1.9306 C   0  0  0  0  0  0  0  0  0  0  0  0
    0.1657   -0.6617    2.0683 C   0  0  0  0  0  0  0  0  0  0  0  0
   -1.0120   -1.1643    1.5058 C   0  0  0  0  0  0  0  0  0  0  0  0
   -0.9966   -2.3655    0.7923 C   0  0  0  0  0  0  0  0  0  0  0  0
    0.2074   -3.0614    0.6468 C   0  0  0  0  0  0  0  0  0  0  0  0
    1.3817   -2.5568    1.2106 C   0  0  0  0  0  0  0  0  0  0  0  0
    6.4561   -1.1861    1.5739 H   0  0  0  0  0  0  0  0  0  0  0  0
    5.3886   -1.3171    0.3443 H   0  0  0  0  0  0  0  0  0  0  0  0
    5.3251    1.0030    1.0534 H   0  0  0  0  0  0  0  0  0  0  0  0
    5.1983    0.4132    2.7141 H   0  0  0  0  0  0  0  0  0  0  0  0
    1.8728    1.7864    1.3945 H   0  0  0  0  0  0  0  0  0  0  0  0
    3.4774    2.3952    1.8256 H   0  0  0  0  0  0  0  0  0  0  0  0
    2.8663    1.5966    6.0599 H   0  0  0  0  0  0  0  0  0  0  0  0
    1.1423    1.4836    5.7565 H   0  0  0  0  0  0  0  0  0  0  0  0
    2.6117    4.1365    6.3276 H   0  0  0  0  0  0  0  0  0  0  0  0
    1.8141    3.1556    7.5741 H   0  0  0  0  0  0  0  0  0  0  0  0
   -0.3728    3.4130    6.3244 H   0  0  0  0  0  0  0  0  0  0  0  0
    0.4595    4.5302    5.2006 H   0  0  0  0  0  0  0  0  0  0  0  0
    0.9296    7.6160    7.6739 H   0  0  0  0  0  0  0  0  0  0  0  0
   -0.5566    9.6325    7.3456 H   0  0  0  0  0  0  0  0  0  0  0  0
   -3.6301    7.0476    5.7724 H   0  0  0  0  0  0  0  0  0  0  0  0
    1.6818   -0.3380    4.3875 H   0  0  0  0  0  0  0  0  0  0  0  0
    3.4490   -0.1985    4.4498 H   0  0  0  0  0  0  0  0  0  0  0  0
    0.1295    0.2795    2.6223 H   0  0  0  0  0  0  0  0  0  0  0  0
   -1.9473   -0.6116    1.6276 H   0  0  0  0  0  0  0  0  0  0  0  0
   -1.9177   -2.7589    0.3548 H   0  0  0  0  0  0  0  0  0  0  0  0
    0.2318   -4.0056    0.0961 H   0  0  0  0  0  0  0  0  0  0  0  0
    2.3193   -3.1088    1.0957 H   0  0  0  0  0  0  0  0  0  0  0  0
  1  2  1  0
  1 30  1  0
  1 31  1  0
  2  3  1  0
  2 32  1  0
  2 33  1  0
  3  4  1  6
  3  5  1  0
  3 22  1  0
  5  6  1  0
  5 34  1  0
  5 35  1  0
  6  7  1  0
  6 21  1  0
  7  8  2  0
  7  9  1  0
  9 10  1  0
  9 36  1  0
  9 37  1  0
 10 11  1  0
 10 38  1  0
 10 39  1  0
 11 12  1  0
 11 40  1  0
 11 41  1  0
 12 13  1  0
 13 14  2  0
 13 19  1  0
 14 15  1  0
 14 42  1  0
 15 16  2  0
 15 43  1  0
 16 17  1  0
 16 18  1  0
 18 19  2  0
 18 44  1  0
 19 20  1  0
 21 22  1  0
 21 45  1  0
 21 46  1  0
 22 23  1  1
 22 24  1  0
 24 25  2  0
 24 29  1  0
 25 26  1  0
 25 47  1  0
 26 27  2  0
 26 48  1  0
 27 28  1  0
 27 49  1  0
 28 29  2  0
 28 50  1  0
 29 51  1  0
M  END

