
     RDKit          3D

 36 35  0  0  0  0  0  0  0  0999 V2000
    0.8852   -1.7779   -1.6101 C   0  0  0  0  0  0  0  0  0  0  0  0
    2.3373   -2.1810   -1.8705 C   0  0  0  0  0  0  0  0  0  0  0  0
    2.9218   -3.1945   -0.8607 C   0  0  1  0  0  0  0  0  0  0  0  0
    2.2041   -4.5506   -0.8804 C   0  0  0  0  0  0  0  0  0  0  0  0
    4.4039   -3.4045   -1.1900 C   0  0  0  0  0  0  0  0  0  0  0  0
    4.7605   -3.9815   -2.2057 O   0  0  0  0  0  0  0  0  0  0  0  0
    5.2908   -2.8762   -0.2917 N   0  0  0  0  0  0  0  0  0  0  0  0
    6.7292   -2.9963   -0.4479 C   0  0  0  0  0  0  0  0  0  0  0  0
    7.3496   -4.1143    0.3986 C   0  0  0  0  0  0  0  0  0  0  0  0
    8.8642   -4.2297    0.2133 C   0  0  0  0  0  0  0  0  0  0  0  0
    9.4918   -5.3440    1.0670 C   0  0  0  0  0  0  0  0  0  0  0  0
   10.9843   -5.4666    0.9099 C   0  0  0  0  0  0  0  0  0  0  0  0
   11.4802   -5.9364   -0.2805 N   0  0  0  0  0  0  0  0  0  0  0  0
   11.7190   -5.1460    1.9206 N   0  0  0  0  0  0  0  0  0  0  0  0
   13.0868   -5.2951    1.5902 O   0  0  0  0  0  0  0  0  0  0  0  0
    0.5583   -1.0109   -2.3301 H   0  0  0  0  0  0  0  0  0  0  0  0
    0.7573   -1.3571   -0.5981 H   0  0  0  0  0  0  0  0  0  0  0  0
    0.1935   -2.6294   -1.7055 H   0  0  0  0  0  0  0  0  0  0  0  0
    2.9700   -1.2759   -1.8562 H   0  0  0  0  0  0  0  0  0  0  0  0
    2.4427   -2.6085   -2.8818 H   0  0  0  0  0  0  0  0  0  0  0  0
    2.8348   -2.7586    0.1522 H   0  0  0  0  0  0  0  0  0  0  0  0
    2.3178   -5.0195   -1.8695 H   0  0  0  0  0  0  0  0  0  0  0  0
    1.1318   -4.4447   -0.6586 H   0  0  0  0  0  0  0  0  0  0  0  0
    2.6336   -5.2368   -0.1330 H   0  0  0  0  0  0  0  0  0  0  0  0
    4.9273   -2.4587    0.5563 H   0  0  0  0  0  0  0  0  0  0  0  0
    7.2012   -2.0290   -0.2010 H   0  0  0  0  0  0  0  0  0  0  0  0
    6.9110   -3.1922   -1.5150 H   0  0  0  0  0  0  0  0  0  0  0  0
    6.8643   -5.0686    0.1297 H   0  0  0  0  0  0  0  0  0  0  0  0
    7.1213   -3.9392    1.4662 H   0  0  0  0  0  0  0  0  0  0  0  0
    9.3484   -3.2713    0.4722 H   0  0  0  0  0  0  0  0  0  0  0  0
    9.0816   -4.3998   -0.8572 H   0  0  0  0  0  0  0  0  0  0  0  0
    9.0233   -6.3125    0.8134 H   0  0  0  0  0  0  0  0  0  0  0  0
    9.2956   -5.1548    2.1325 H   0  0  0  0  0  0  0  0  0  0  0  0
   10.8935   -5.8967   -1.1026 H   0  0  0  0  0  0  0  0  0  0  0  0
   12.4769   -5.8187   -0.4230 H   0  0  0  0  0  0  0  0  0  0  0  0
   13.5279   -5.0218    2.4026 H   0  0  0  0  0  0  0  0  0  0  0  0
  1  2  1  0
  1 16  1  0
  1 17  1  0
  1 18  1  0
  2  3  1  0
  2 19  1  0
  2 20  1  0
  3  4  1  0
  3  5  1  0
  3 21  1  1
  4 22  1  0
  4 23  1  0
  4 24  1  0
  5  6  2  0
  5  7  1  0
  7  8  1  0
  7 25  1  0
  8  9  1  0
  8 26  1  0
  8 27  1  0
  9 10  1  0
  9 28  1  0
  9 29  1  0
 10 11  1  0
 10 30  1  0
 10 31  1  0
 11 12  1  0
 11 32  1  0
 11 33  1  0
 12 13  1  0
 12 14  2  0
 13 34  1  0
 13 35  1  0
 14 15  1  0
 15 36  1  0
M  END

