
     RDKit          3D

 42 45  0  0  0  0  0  0  0  0999 V2000
    1.4576    1.0652   -0.5269 C   0  0  0  0  0  0  0  0  0  0  0  0
    2.8521    1.1739   -0.8341 O   0  0  0  0  0  0  0  0  0  0  0  0
    3.5765    0.0610   -0.7557 C   0  0  0  0  0  0  0  0  0  0  0  0
    3.1418   -1.0218   -0.4338 O   0  0  0  0  0  0  0  0  0  0  0  0
    5.0194    0.2612   -1.1079 C   0  0  0  0  0  0  0  0  0  0  0  0
    5.5967    1.4294   -1.4885 C   0  0  0  0  0  0  0  0  0  0  0  0
    4.8538    2.7432   -1.6574 C   0  0  0  0  0  0  0  0  0  0  0  0
    4.4937    3.0797   -2.7671 O   0  0  0  0  0  0  0  0  0  0  0  0
    4.7056    3.6465   -0.4717 C   0  0  0  0  0  0  0  0  0  0  0  0
    4.1142    4.9071   -0.6713 C   0  0  0  0  0  0  0  0  0  0  0  0
    3.9634    5.7905    0.3956 C   0  0  0  0  0  0  0  0  0  0  0  0
    4.4055    5.4270    1.6743 C   0  0  0  0  0  0  0  0  0  0  0  0
    4.9982    4.1777    1.8816 C   0  0  0  0  0  0  0  0  0  0  0  0
    5.1479    3.2902    0.8133 C   0  0  0  0  0  0  0  0  0  0  0  0
    7.0835    1.5166   -1.8560 C   0  0  2  0  0  0  0  0  0  0  0  0
    7.5541    2.2704   -1.1999 H   0  0  0  0  0  0  0  0  0  0  0  0
    7.3703    1.9811   -3.2852 C   0  0  0  0  0  0  0  0  0  0  0  0
    8.0711    3.1821   -3.4625 C   0  0  0  0  0  0  0  0  0  0  0  0
    8.3714    3.6921   -4.7245 C   0  0  0  0  0  0  0  0  0  0  0  0
    7.9634    2.9770   -5.8519 C   0  0  0  0  0  0  0  0  0  0  0  0
    8.3248    3.5847   -7.4461 Cl  0  0  0  0  0  0  0  0  0  0  0  0
    7.2691    1.7727   -5.7200 C   0  0  0  0  0  0  0  0  0  0  0  0
    6.9773    1.2879   -4.4435 C   0  0  0  0  0  0  0  0  0  0  0  0
    6.1128   -0.2298   -4.3484 Cl  0  0  0  0  0  0  0  0  0  0  0  0
    7.6978    0.2309   -1.5395 N   0  0  0  0  0  0  0  0  0  0  0  0
    9.0293   -0.0276   -1.5951 N   0  0  0  0  0  0  0  0  0  0  0  0
    9.1682   -1.2613   -1.2687 N   0  0  0  0  0  0  0  0  0  0  0  0
    7.9784   -1.8540   -0.9910 N   0  0  0  0  0  0  0  0  0  0  0  0
    7.0787   -0.9079   -1.1658 C   0  0  0  0  0  0  0  0  0  0  0  0
    5.7306   -0.9257   -0.9984 N   0  0  0  0  0  0  0  0  0  0  0  0
    1.0456    2.0741   -0.6425 H   0  0  0  0  0  0  0  0  0  0  0  0
    1.3175    0.7048    0.5026 H   0  0  0  0  0  0  0  0  0  0  0  0
    0.9669    0.3659   -1.2193 H   0  0  0  0  0  0  0  0  0  0  0  0
    3.7821    5.1685   -1.6780 H   0  0  0  0  0  0  0  0  0  0  0  0
    3.5023    6.7682    0.2343 H   0  0  0  0  0  0  0  0  0  0  0  0
    4.2890    6.1211    2.5107 H   0  0  0  0  0  0  0  0  0  0  0  0
    5.3451    3.8940    2.8782 H   0  0  0  0  0  0  0  0  0  0  0  0
    5.6072    2.3134    0.9803 H   0  0  0  0  0  0  0  0  0  0  0  0
    8.3972    3.7361   -2.5782 H   0  0  0  0  0  0  0  0  0  0  0  0
    8.9191    4.6284   -4.8362 H   0  0  0  0  0  0  0  0  0  0  0  0
    6.9549    1.2136   -6.6008 H   0  0  0  0  0  0  0  0  0  0  0  0
    5.2404   -1.7618   -0.6963 H   0  0  0  0  0  0  0  0  0  0  0  0
  1  2  1  0
  1 31  1  0
  1 32  1  0
  1 33  1  0
  2  3  1  0
  3  4  2  0
  3  5  1  0
  5  6  2  0
  5 30  1  0
  6  7  1  0
  6 15  1  0
  7  8  2  0
  7  9  1  0
  9 10  2  0
  9 14  1  0
 10 11  1  0
 10 34  1  0
 11 12  2  0
 11 35  1  0
 12 13  1  0
 12 36  1  0
 13 14  2  0
 13 37  1  0
 14 38  1  0
 15 16  1  1
 15 17  1  0
 15 25  1  0
 17 18  2  0
 17 23  1  0
 18 19  1  0
 18 39  1  0
 19 20  2  0
 19 40  1  0
 20 21  1  0
 20 22  1  0
 22 23  2  0
 22 41  1  0
 23 24  1  0
 25 26  1  0
 25 29  1  0
 26 27  2  0
 27 28  1  0
 28 29  2  0
 29 30  1  0
 30 42  1  0
M  END

