
     RDKit          3D

 33 35  0  0  0  0  0  0  0  0999 V2000
    1.0808   -0.0834   -0.4629 C   0  0  0  0  0  0  0  0  0  0  0  0
    2.5011   -0.0143   -0.1713 N   0  0  0  0  0  0  0  0  0  0  0  0
    3.2790    1.1218   -0.0505 C   0  0  0  0  0  0  0  0  0  0  0  0
    2.7511    2.4943   -0.0191 C   0  0  0  0  0  0  0  0  0  0  0  0
    1.6418    2.8617    0.7683 C   0  0  0  0  0  0  0  0  0  0  0  0
    1.1945    4.1122    0.8695 N   0  0  0  0  0  0  0  0  0  0  0  0
    1.8422    5.0721    0.2080 C   0  0  0  0  0  0  0  0  0  0  0  0
    2.9646    4.8381   -0.6017 C   0  0  0  0  0  0  0  0  0  0  0  0
    3.6733    5.9641   -1.3328 C   0  0  0  0  0  0  0  0  0  0  0  0
    4.9563    5.6224   -1.7935 O   0  0  0  0  0  0  0  0  0  0  0  0
    3.4072    3.5209   -0.7193 C   0  0  0  0  0  0  0  0  0  0  0  0
    4.6179    0.7366    0.0815 C   0  0  0  0  0  0  0  0  0  0  0  0
    5.7185    1.6152    0.2587 C   0  0  0  0  0  0  0  0  0  0  0  0
    6.6219    2.3363    0.3934 N   0  0  0  0  0  0  0  0  0  0  0  0
    4.6606   -0.7039    0.0491 C   0  0  0  0  0  0  0  0  0  0  0  0
    5.6914   -1.6550    0.1409 C   0  0  0  0  0  0  0  0  0  0  0  0
    5.3602   -3.0041    0.0657 C   0  0  0  0  0  0  0  0  0  0  0  0
    4.0206   -3.4186   -0.0979 C   0  0  0  0  0  0  0  0  0  0  0  0
    2.9824   -2.4942   -0.1878 C   0  0  0  0  0  0  0  0  0  0  0  0
    3.3181   -1.1349   -0.1101 C   0  0  0  0  0  0  0  0  0  0  0  0
    0.7137    0.9011   -0.7743 H   0  0  0  0  0  0  0  0  0  0  0  0
    0.5030   -0.4163    0.4151 H   0  0  0  0  0  0  0  0  0  0  0  0
    0.9063   -0.7937   -1.2855 H   0  0  0  0  0  0  0  0  0  0  0  0
    1.1155    2.1095    1.3668 H   0  0  0  0  0  0  0  0  0  0  0  0
    1.4561    6.0926    0.3306 H   0  0  0  0  0  0  0  0  0  0  0  0
    3.6838    6.8643   -0.6852 H   0  0  0  0  0  0  0  0  0  0  0  0
    3.0913    6.2394   -2.2299 H   0  0  0  0  0  0  0  0  0  0  0  0
    5.5164    5.4084   -1.0332 H   0  0  0  0  0  0  0  0  0  0  0  0
    4.2701    3.3055   -1.3509 H   0  0  0  0  0  0  0  0  0  0  0  0
    6.7287   -1.3357    0.2664 H   0  0  0  0  0  0  0  0  0  0  0  0
    6.1481   -3.7580    0.1344 H   0  0  0  0  0  0  0  0  0  0  0  0
    3.7921   -4.4858   -0.1512 H   0  0  0  0  0  0  0  0  0  0  0  0
    1.9484   -2.8238   -0.3058 H   0  0  0  0  0  0  0  0  0  0  0  0
  1  2  1  0
  1 21  1  0
  1 22  1  0
  1 23  1  0
  2  3  1  0
  2 20  1  0
  3  4  1  0
  3 12  2  0
  4  5  2  0
  4 11  1  0
  5  6  1  0
  5 24  1  0
  6  7  2  0
  7  8  1  0
  7 25  1  0
  8  9  1  0
  8 11  2  0
  9 10  1  0
  9 26  1  0
  9 27  1  0
 10 28  1  0
 11 29  1  0
 12 13  1  0
 12 15  1  0
 13 14  3  0
 15 16  1  0
 15 20  2  0
 16 17  2  0
 16 30  1  0
 17 18  1  0
 17 31  1  0
 18 19  2  0
 18 32  1  0
 19 20  1  0
 19 33  1  0
M  END

