
     RDKit          3D

 61 64  0  0  0  0  0  0  0  0999 V2000
   -0.1428    1.8395    1.1983 C   0  0  0  0  0  0  0  0  0  0  0  0
    1.1975    1.4059    1.7868 C   0  0  1  0  0  0  0  0  0  0  0  0
    1.8183    2.3085    1.9702 H   0  0  0  0  0  0  0  0  0  0  0  0
    1.0457    0.6642    2.9871 O   0  0  0  0  0  0  0  0  0  0  0  0
    1.9673    0.4922    0.8417 C   0  0  1  0  0  0  0  0  0  0  0  0
    1.3612   -0.3995    0.6201 H   0  0  0  0  0  0  0  0  0  0  0  0
    2.5536    1.0800   -0.4542 C   0  0  0  0  0  0  0  0  0  0  0  0
    2.1428    1.5470   -1.4983 O   0  0  0  0  0  0  0  0  0  0  0  0
    3.8481    0.8332   -0.0490 N   0  0  0  0  0  0  0  0  0  0  0  0
    4.9389    0.1647   -0.6907 C   0  0  0  0  0  0  0  0  0  0  0  0
    5.5083    0.7743   -1.9273 C   0  0  0  0  0  0  0  0  0  0  0  0
    6.6162    0.5291   -2.3497 O   0  0  0  0  0  0  0  0  0  0  0  0
    4.7143    1.6311   -2.5750 O   0  0  0  0  0  0  0  0  0  0  0  0
    5.1978   -0.9911   -0.0019 C   0  0  0  0  0  0  0  0  0  0  0  0
    6.3660   -2.2877   -0.0402 S   0  0  0  0  0  0  0  0  0  0  0  0
    7.7664   -1.8958   -1.1601 C   0  0  1  0  0  0  0  0  0  0  0  0
    7.3623   -1.5057   -2.0974 H   0  0  0  0  0  0  0  0  0  0  0  0
    8.8255   -0.9544   -0.5787 C   0  0  0  0  0  0  0  0  0  0  0  0
   10.1657   -1.3940   -1.2360 C   0  0  2  0  0  0  0  0  0  0  0  0
   10.9190   -1.5664   -0.4396 H   0  0  0  0  0  0  0  0  0  0  0  0
   10.7411   -0.3735   -2.0886 N   0  0  0  0  0  0  0  0  0  0  0  0
    9.9970   -0.0313   -3.2992 C   0  0  0  0  0  0  0  0  0  0  0  0
   10.5147    1.2998   -3.8654 C   0  0  0  0  0  0  0  0  0  0  0  0
   11.9578    1.3310   -4.0858 N   0  0  0  0  0  0  0  0  0  0  0  0
   12.4107    0.6972   -5.3090 C   0  0  0  0  0  0  0  0  0  0  0  0
   12.6616    0.9239   -2.8767 C   0  0  0  0  0  0  0  0  0  0  0  0
   12.1790   -0.4234   -2.3161 C   0  0  0  0  0  0  0  0  0  0  0  0
    9.8314   -2.6754   -1.8975 N   0  0  0  0  0  0  0  0  0  0  0  0
   10.8813   -3.6620   -2.0021 C   0  0  0  0  0  0  0  0  0  0  0  0
    8.5630   -3.1798   -1.4088 C   0  0  0  0  0  0  0  0  0  0  0  0
    4.1075   -1.2351    1.0822 C   0  0  2  0  0  0  0  0  0  0  0  0
    4.5938   -1.4936    2.0354 H   0  0  0  0  0  0  0  0  0  0  0  0
    3.1612   -2.3847    0.7007 C   0  0  0  0  0  0  0  0  0  0  0  0
    3.4538    0.1645    1.2010 C   0  0  2  0  0  0  0  0  0  0  0  0
    3.8111    0.6989    2.0950 H   0  0  0  0  0  0  0  0  0  0  0  0
   -0.6649    2.5269    1.8845 H   0  0  0  0  0  0  0  0  0  0  0  0
   -0.7888    0.9623    1.0347 H   0  0  0  0  0  0  0  0  0  0  0  0
   -0.0057    2.3570    0.2361 H   0  0  0  0  0  0  0  0  0  0  0  0
    0.5854    1.2158    3.6333 H   0  0  0  0  0  0  0  0  0  0  0  0
    3.7809    1.6729   -2.2565 H   0  0  0  0  0  0  0  0  0  0  0  0
    8.8899   -1.0940    0.5115 H   0  0  0  0  0  0  0  0  0  0  0  0
    8.5986    0.0995   -0.7768 H   0  0  0  0  0  0  0  0  0  0  0  0
    8.9298    0.0842   -3.0596 H   0  0  0  0  0  0  0  0  0  0  0  0
   10.0724   -0.8363   -4.0617 H   0  0  0  0  0  0  0  0  0  0  0  0
   10.2595    2.0984   -3.1456 H   0  0  0  0  0  0  0  0  0  0  0  0
    9.9986    1.5331   -4.8108 H   0  0  0  0  0  0  0  0  0  0  0  0
   11.9016    1.1570   -6.1722 H   0  0  0  0  0  0  0  0  0  0  0  0
   12.2410   -0.4004   -5.3762 H   0  0  0  0  0  0  0  0  0  0  0  0
   13.4930    0.8680   -5.4350 H   0  0  0  0  0  0  0  0  0  0  0  0
   12.4936    1.6939   -2.1016 H   0  0  0  0  0  0  0  0  0  0  0  0
   13.7448    0.8849   -3.0803 H   0  0  0  0  0  0  0  0  0  0  0  0
   12.6883   -0.6306   -1.3596 H   0  0  0  0  0  0  0  0  0  0  0  0
   12.4752   -1.2343   -3.0207 H   0  0  0  0  0  0  0  0  0  0  0  0
   11.7696   -3.2351   -2.4883 H   0  0  0  0  0  0  0  0  0  0  0  0
   10.5462   -4.5113   -2.6205 H   0  0  0  0  0  0  0  0  0  0  0  0
   11.1986   -4.0718   -1.0143 H   0  0  0  0  0  0  0  0  0  0  0  0
    8.6664   -3.7637   -0.4609 H   0  0  0  0  0  0  0  0  0  0  0  0
    8.0799   -3.8448   -2.1455 H   0  0  0  0  0  0  0  0  0  0  0  0
    2.6808   -2.2104   -0.2750 H   0  0  0  0  0  0  0  0  0  0  0  0
    2.3737   -2.4962    1.4625 H   0  0  0  0  0  0  0  0  0  0  0  0
    3.7093   -3.3355    0.6336 H   0  0  0  0  0  0  0  0  0  0  0  0
  1  2  1  0
  1 36  1  0
  1 37  1  0
  1 38  1  0
  2  3  1  1
  2  4  1  0
  2  5  1  0
  4 39  1  0
  5  6  1  6
  5  7  1  0
  5 34  1  0
  7  8  2  0
  7  9  1  0
  9 10  1  0
  9 34  1  0
 10 11  1  0
 10 14  2  0
 11 12  2  0
 11 13  1  0
 13 40  1  0
 14 15  1  0
 14 31  1  0
 15 16  1  0
 16 17  1  6
 16 18  1  0
 16 30  1  0
 18 19  1  0
 18 41  1  0
 18 42  1  0
 19 20  1  1
 19 21  1  0
 19 28  1  0
 21 22  1  0
 21 27  1  0
 22 23  1  0
 22 43  1  0
 22 44  1  0
 23 24  1  0
 23 45  1  0
 23 46  1  0
 24 25  1  0
 24 26  1  0
 25 47  1  0
 25 48  1  0
 25 49  1  0
 26 27  1  0
 26 50  1  0
 26 51  1  0
 27 52  1  0
 27 53  1  0
 28 29  1  0
 28 30  1  0
 29 54  1  0
 29 55  1  0
 29 56  1  0
 30 57  1  0
 30 58  1  0
 31 32  1  1
 31 33  1  0
 31 34  1  0
 33 59  1  0
 33 60  1  0
 33 61  1  0
 34 35  1  1
M  END

