
     RDKit          3D

 42 40  0  0  0  0  0  0  0  0999 V2000
    0.3536    0.5805   -0.1707 C   0  0  0  0  0  0  0  0  0  0  0  0
    1.4140    1.1374    0.7898 C   0  0  0  0  0  0  0  0  0  0  0  0
    1.7512    0.3038    1.9400 N   0  0  0  0  0  0  0  0  0  0  0  0
    0.9258    0.1660    2.5207 H   0  0  0  0  0  0  0  0  0  0  0  0
    2.3938   -0.9820    1.6793 C   0  0  0  0  0  0  0  0  0  0  0  0
    3.8414   -0.8414    1.2102 C   0  0  0  0  0  0  0  0  0  0  0  0
    3.3680    2.2828    4.5751 C   0  0  0  0  0  0  0  0  0  0  0  0
    4.6536    2.6337    4.5005 C   0  0  0  0  0  0  0  0  0  0  0  0
    7.1646    1.5763    1.9058 N   0  0  0  0  0  0  0  0  0  0  0  0
    7.6156    2.3707    2.3573 H   0  0  0  0  0  0  0  0  0  0  0  0
    7.8030    0.3402    2.3226 C   0  0  0  0  0  0  0  0  0  0  0  0
    7.1746    1.7729    0.4610 C   0  0  0  0  0  0  0  0  0  0  0  0
    6.5216    3.0731    0.0561 C   0  0  0  0  0  0  0  0  0  0  0  0
    7.1325    4.3060    0.3143 C   0  0  0  0  0  0  0  0  0  0  0  0
    8.3251    4.2918    0.9417 F   0  0  0  0  0  0  0  0  0  0  0  0
    6.5741    5.5315   -0.0340 C   0  0  0  0  0  0  0  0  0  0  0  0
    5.3330    5.5376   -0.6763 C   0  0  0  0  0  0  0  0  0  0  0  0
    4.6757    4.3383   -0.9576 C   0  0  0  0  0  0  0  0  0  0  0  0
    5.2796    3.1391   -0.5852 C   0  0  0  0  0  0  0  0  0  0  0  0
    4.6379    1.9896   -0.8659 F   0  0  0  0  0  0  0  0  0  0  0  0
    0.1436    1.3001   -0.9793 H   0  0  0  0  0  0  0  0  0  0  0  0
   -0.5968    0.3839    0.3552 H   0  0  0  0  0  0  0  0  0  0  0  0
    0.6743   -0.3610   -0.6449 H   0  0  0  0  0  0  0  0  0  0  0  0
    1.0708    2.1110    1.1808 H   0  0  0  0  0  0  0  0  0  0  0  0
    2.3406    1.3536    0.2336 H   0  0  0  0  0  0  0  0  0  0  0  0
    1.8377   -1.6090    0.9472 H   0  0  0  0  0  0  0  0  0  0  0  0
    2.3804   -1.5445    2.6278 H   0  0  0  0  0  0  0  0  0  0  0  0
    3.9123   -0.3306    0.2376 H   0  0  0  0  0  0  0  0  0  0  0  0
    4.3026   -1.8360    1.0949 H   0  0  0  0  0  0  0  0  0  0  0  0
    4.4330   -0.2584    1.9332 H   0  0  0  0  0  0  0  0  0  0  0  0
    2.8855    1.6891    3.7888 H   0  0  0  0  0  0  0  0  0  0  0  0
    2.7465    2.5780    5.4285 H   0  0  0  0  0  0  0  0  0  0  0  0
    5.1322    3.2270    5.2880 H   0  0  0  0  0  0  0  0  0  0  0  0
    5.2795    2.3382    3.6507 H   0  0  0  0  0  0  0  0  0  0  0  0
    7.8098    0.2775    3.4213 H   0  0  0  0  0  0  0  0  0  0  0  0
    8.8493    0.2226    1.9623 H   0  0  0  0  0  0  0  0  0  0  0  0
    7.2282   -0.5231    1.9477 H   0  0  0  0  0  0  0  0  0  0  0  0
    6.6283    0.9395   -0.0051 H   0  0  0  0  0  0  0  0  0  0  0  0
    8.2043    1.7518    0.0380 H   0  0  0  0  0  0  0  0  0  0  0  0
    7.1106    6.4515    0.2028 H   0  0  0  0  0  0  0  0  0  0  0  0
    4.8729    6.4871   -0.9586 H   0  0  0  0  0  0  0  0  0  0  0  0
    3.7064    4.3144   -1.4577 H   0  0  0  0  0  0  0  0  0  0  0  0
  1  2  1  0
  1 21  1  0
  1 22  1  0
  1 23  1  0
  2  3  1  0
  2 24  1  0
  2 25  1  0
  3  4  1  0
  3  5  1  0
  5  6  1  0
  5 26  1  0
  5 27  1  0
  6 28  1  0
  6 29  1  0
  6 30  1  0
  7  8  2  0
  7 31  1  0
  7 32  1  0
  8 33  1  0
  8 34  1  0
  9 10  1  0
  9 11  1  0
  9 12  1  0
 11 35  1  0
 11 36  1  0
 11 37  1  0
 12 13  1  0
 12 38  1  0
 12 39  1  0
 13 14  2  0
 13 19  1  0
 14 15  1  0
 14 16  1  0
 16 17  2  0
 16 40  1  0
 17 18  1  0
 17 41  1  0
 18 19  2  0
 18 42  1  0
 19 20  1  0
M  END

