
     RDKit          3D

 70 76  0  0  0  0  0  0  0  0999 V2000
    2.9910   -0.3638   -0.8416 C   0  0  0  0  0  0  0  0  0  0  0  0
    2.4010    0.0708    0.5020 C   0  0  0  0  0  0  0  0  0  0  0  0
    2.9210    1.3360    0.9910 N   0  0  0  0  0  0  0  0  0  0  0  0
    4.0668    1.4944    1.7674 C   0  0  0  0  0  0  0  0  0  0  0  0
    4.9324    0.5220    2.2850 C   0  0  0  0  0  0  0  0  0  0  0  0
    6.0143    0.9555    3.0533 C   0  0  0  0  0  0  0  0  0  0  0  0
    6.2373    2.3229    3.3014 C   0  0  0  0  0  0  0  0  0  0  0  0
    5.3760    3.2887    2.7811 C   0  0  0  0  0  0  0  0  0  0  0  0
    4.2817    2.8802    2.0065 C   0  0  0  0  0  0  0  0  0  0  0  0
    3.2117    3.5847    1.3254 C   0  0  0  0  0  0  0  0  0  0  0  0
    2.8782    4.9330    1.1908 C   0  0  0  0  0  0  0  0  0  0  0  0
    1.7424    5.2978    0.4405 C   0  0  0  0  0  0  0  0  0  0  0  0
    1.3876    6.6707    0.2918 C   0  0  0  0  0  0  0  0  0  0  0  0
    1.0922    7.8481    0.1708 C   0  0  0  0  0  0  0  0  0  0  0  0
    0.7284    9.2233    0.0179 C   0  0  0  0  0  0  0  0  0  0  0  0
   -0.4035    9.5882   -0.7249 C   0  0  0  0  0  0  0  0  0  0  0  0
   -0.6860   10.9663   -0.8214 C   0  0  0  0  0  0  0  0  0  0  0  0
   -1.8248   11.4191   -1.5615 C   0  0  0  0  0  0  0  0  0  0  0  0
   -2.7997   11.7867   -2.1955 C   0  0  0  0  0  0  0  0  0  0  0  0
   -3.9347   12.2366   -2.9317 C   0  0  0  0  0  0  0  0  0  0  0  0
   -4.7885   11.3003   -3.5765 C   0  0  0  0  0  0  0  0  0  0  0  0
   -5.9041   11.7048   -4.3002 C   0  0  0  0  0  0  0  0  0  0  0  0
   -6.1753   13.0790   -4.3877 C   0  0  0  0  0  0  0  0  0  0  0  0
   -5.3369   14.0379   -3.7467 C   0  0  0  0  0  0  0  0  0  0  0  0
   -4.2212   13.6134   -3.0241 C   0  0  0  0  0  0  0  0  0  0  0  0
   -5.9077   15.3404   -4.0350 C   0  0  0  0  0  0  0  0  0  0  0  0
   -5.5530   16.6536   -3.6971 C   0  0  0  0  0  0  0  0  0  0  0  0
   -6.3443   17.7083   -4.1519 C   0  0  0  0  0  0  0  0  0  0  0  0
   -7.4847   17.4611   -4.9387 C   0  0  0  0  0  0  0  0  0  0  0  0
   -7.8602   16.1630   -5.2891 C   0  0  0  0  0  0  0  0  0  0  0  0
   -7.0609   15.1061   -4.8343 C   0  0  0  0  0  0  0  0  0  0  0  0
   -7.2001   13.7363   -5.0469 N   0  0  0  0  0  0  0  0  0  0  0  0
   -8.2826   13.1014   -5.7783 C   0  0  0  0  0  0  0  0  0  0  0  0
   -9.5038   12.7727   -4.9164 C   0  0  0  0  0  0  0  0  0  0  0  0
    0.0908   11.8872   -0.2321 N   0  0  0  0  0  0  0  0  0  0  0  0
    1.1414   11.4237    0.4477 C   0  0  0  0  0  0  0  0  0  0  0  0
    1.8882   12.3779    1.0176 O   0  0  0  0  0  0  0  0  0  0  0  0
    3.0301   11.9827    1.7639 C   0  0  0  0  0  0  0  0  0  0  0  0
    1.5059   10.1537    0.6083 N   0  0  0  0  0  0  0  0  0  0  0  0
    0.9533    4.2845   -0.1694 C   0  0  0  0  0  0  0  0  0  0  0  0
    1.2703    2.9368   -0.0467 C   0  0  0  0  0  0  0  0  0  0  0  0
    2.4015    2.5874    0.7070 C   0  0  0  0  0  0  0  0  0  0  0  0
    2.5587   -1.3274   -1.1551 H   0  0  0  0  0  0  0  0  0  0  0  0
    4.0833   -0.4840   -0.7751 H   0  0  0  0  0  0  0  0  0  0  0  0
    2.7788    0.3784   -1.6267 H   0  0  0  0  0  0  0  0  0  0  0  0
    2.5932   -0.6936    1.2715 H   0  0  0  0  0  0  0  0  0  0  0  0
    1.3055    0.1600    0.4302 H   0  0  0  0  0  0  0  0  0  0  0  0
    4.7768   -0.5421    2.0972 H   0  0  0  0  0  0  0  0  0  0  0  0
    6.7031    0.2152    3.4681 H   0  0  0  0  0  0  0  0  0  0  0  0
    7.0946    2.6278    3.9059 H   0  0  0  0  0  0  0  0  0  0  0  0
    5.5521    4.3498    2.9744 H   0  0  0  0  0  0  0  0  0  0  0  0
    3.4853    5.7107    1.6584 H   0  0  0  0  0  0  0  0  0  0  0  0
   -1.0357    8.8427   -1.2046 H   0  0  0  0  0  0  0  0  0  0  0  0
   -4.5552   10.2370   -3.4934 H   0  0  0  0  0  0  0  0  0  0  0  0
   -6.5456   10.9632   -4.7798 H   0  0  0  0  0  0  0  0  0  0  0  0
   -3.5662   14.3321   -2.5278 H   0  0  0  0  0  0  0  0  0  0  0  0
   -4.6686   16.8481   -3.0853 H   0  0  0  0  0  0  0  0  0  0  0  0
   -6.0796   18.7365   -3.8949 H   0  0  0  0  0  0  0  0  0  0  0  0
   -8.0927   18.3020   -5.2822 H   0  0  0  0  0  0  0  0  0  0  0  0
   -8.7511   15.9881   -5.8954 H   0  0  0  0  0  0  0  0  0  0  0  0
   -7.8848   12.1870   -6.2460 H   0  0  0  0  0  0  0  0  0  0  0  0
   -8.5661   13.7679   -6.6083 H   0  0  0  0  0  0  0  0  0  0  0  0
   -9.2393   12.0823   -4.1005 H   0  0  0  0  0  0  0  0  0  0  0  0
  -10.2866   12.2965   -5.5282 H   0  0  0  0  0  0  0  0  0  0  0  0
   -9.9280   13.6832   -4.4657 H   0  0  0  0  0  0  0  0  0  0  0  0
    3.4827   12.9126    2.1330 H   0  0  0  0  0  0  0  0  0  0  0  0
    3.7498   11.4339    1.1366 H   0  0  0  0  0  0  0  0  0  0  0  0
    2.7526   11.3347    2.6099 H   0  0  0  0  0  0  0  0  0  0  0  0
    0.0781    4.5826   -0.7500 H   0  0  0  0  0  0  0  0  0  0  0  0
    0.6495    2.1810   -0.5312 H   0  0  0  0  0  0  0  0  0  0  0  0
  1  2  1  0
  1 43  1  0
  1 44  1  0
  1 45  1  0
  2  3  1  0
  2 46  1  0
  2 47  1  0
  3  4  1  0
  3 42  1  0
  4  5  2  0
  4  9  1  0
  5  6  1  0
  5 48  1  0
  6  7  2  0
  6 49  1  0
  7  8  1  0
  7 50  1  0
  8  9  2  0
  8 51  1  0
  9 10  1  0
 10 11  1  0
 10 42  2  0
 11 12  2  0
 11 52  1  0
 12 13  1  0
 12 40  1  0
 13 14  3  0
 14 15  1  0
 15 16  2  0
 15 39  1  0
 16 17  1  0
 16 53  1  0
 17 18  1  0
 17 35  2  0
 18 19  3  0
 19 20  1  0
 20 21  2  0
 20 25  1  0
 21 22  1  0
 21 54  1  0
 22 23  2  0
 22 55  1  0
 23 24  1  0
 23 32  1  0
 24 25  2  0
 24 26  1  0
 25 56  1  0
 26 27  2  0
 26 31  1  0
 27 28  1  0
 27 57  1  0
 28 29  2  0
 28 58  1  0
 29 30  1  0
 29 59  1  0
 30 31  2  0
 30 60  1  0
 31 32  1  0
 32 33  1  0
 33 34  1  0
 33 61  1  0
 33 62  1  0
 34 63  1  0
 34 64  1  0
 34 65  1  0
 35 36  1  0
 36 37  1  0
 36 39  2  0
 37 38  1  0
 38 66  1  0
 38 67  1  0
 38 68  1  0
 40 41  2  0
 40 69  1  0
 41 42  1  0
 41 70  1  0
M  END

