
     RDKit          3D

 48 49  0  0  0  0  0  0  0  0999 V2000
    1.6582    4.6647    1.3996 C   0  0  0  0  0  0  0  0  0  0  0  0
    1.8942    3.2353    1.2227 N   0  0  0  0  0  0  0  0  0  0  0  0
    2.6648    2.7174   -0.1872 S   0  0  1  0  0  0  0  0  0  0  0  0
    2.2474    1.3231   -0.3488 O   0  0  0  0  0  0  0  0  0  0  0  0
    2.4860    3.7063   -1.2559 O   0  0  0  0  0  0  0  0  0  0  0  0
    4.3993    2.7453    0.2747 C   0  0  0  0  0  0  0  0  0  0  0  0
    4.8937    1.7610    1.1350 C   0  0  0  0  0  0  0  0  0  0  0  0
    6.2437    1.7791    1.4751 C   0  0  0  0  0  0  0  0  0  0  0  0
    7.1177    2.7624    0.9630 C   0  0  0  0  0  0  0  0  0  0  0  0
    8.5281    2.7201    1.3624 C   0  0  0  0  0  0  0  0  0  0  0  0
    9.5203    3.5448    0.9748 C   0  0  0  0  0  0  0  0  0  0  0  0
   10.9080    3.3058    1.4800 C   0  0  0  0  0  0  0  0  0  0  0  0
   11.1691    2.3164    2.1604 O   0  0  0  0  0  0  0  0  0  0  0  0
   11.8803    4.2160    1.1347 N   0  0  0  0  0  0  0  0  0  0  0  0
   11.6486    5.4932    0.4817 C   0  0  0  0  0  0  0  0  0  0  0  0
   13.2721    3.8985    1.4722 C   0  0  0  0  0  0  0  0  0  0  0  0
   13.7839    4.6045    2.7137 C   0  0  0  0  0  0  0  0  0  0  0  0
   13.3010    4.2564    3.9820 C   0  0  0  0  0  0  0  0  0  0  0  0
   13.7593    4.9063    5.1329 C   0  0  0  0  0  0  0  0  0  0  0  0
   14.7196    5.9254    5.0469 C   0  0  0  0  0  0  0  0  0  0  0  0
   15.2345    6.6182    6.0883 O   0  0  0  0  0  0  0  0  0  0  0  0
   14.7970    6.3137    7.3937 C   0  0  0  0  0  0  0  0  0  0  0  0
   15.2015    6.2648    3.7680 C   0  0  0  0  0  0  0  0  0  0  0  0
   16.1216    7.2332    3.6653 F   0  0  0  0  0  0  0  0  0  0  0  0
   14.7469    5.6232    2.6246 C   0  0  0  0  0  0  0  0  0  0  0  0
    6.5880    3.7330    0.0880 C   0  0  0  0  0  0  0  0  0  0  0  0
    5.2390    3.7276   -0.2593 C   0  0  0  0  0  0  0  0  0  0  0  0
    1.1593    4.8126    2.3687 H   0  0  0  0  0  0  0  0  0  0  0  0
    1.0446    5.1141    0.6004 H   0  0  0  0  0  0  0  0  0  0  0  0
    2.6201    5.1981    1.4389 H   0  0  0  0  0  0  0  0  0  0  0  0
    1.0789    2.6360    1.3536 H   0  0  0  0  0  0  0  0  0  0  0  0
    4.2264    0.9895    1.5232 H   0  0  0  0  0  0  0  0  0  0  0  0
    6.6411    1.0141    2.1469 H   0  0  0  0  0  0  0  0  0  0  0  0
    8.8146    1.9197    2.0528 H   0  0  0  0  0  0  0  0  0  0  0  0
    9.3307    4.3585    0.2740 H   0  0  0  0  0  0  0  0  0  0  0  0
   10.6425    5.8777    0.6880 H   0  0  0  0  0  0  0  0  0  0  0  0
   11.7910    5.4397   -0.6140 H   0  0  0  0  0  0  0  0  0  0  0  0
   12.3573    6.2351    0.8808 H   0  0  0  0  0  0  0  0  0  0  0  0
   13.9027    4.1626    0.6068 H   0  0  0  0  0  0  0  0  0  0  0  0
   13.3209    2.8113    1.6141 H   0  0  0  0  0  0  0  0  0  0  0  0
   12.5586    3.4596    4.0666 H   0  0  0  0  0  0  0  0  0  0  0  0
   13.3658    4.6078    6.1050 H   0  0  0  0  0  0  0  0  0  0  0  0
   15.3402    6.9875    8.0695 H   0  0  0  0  0  0  0  0  0  0  0  0
   15.0251    5.2684    7.6703 H   0  0  0  0  0  0  0  0  0  0  0  0
   13.7118    6.4842    7.5140 H   0  0  0  0  0  0  0  0  0  0  0  0
   15.1688    5.9289    1.6637 H   0  0  0  0  0  0  0  0  0  0  0  0
    7.2376    4.5030   -0.3327 H   0  0  0  0  0  0  0  0  0  0  0  0
    4.8272    4.4674   -0.9477 H   0  0  0  0  0  0  0  0  0  0  0  0
  1  2  1  0
  1 28  1  0
  1 29  1  0
  1 30  1  0
  3  2  1  1
  2 31  1  0
  3  4  2  0
  3  5  2  0
  3  6  1  0
  6  7  2  0
  6 27  1  0
  7  8  1  0
  7 32  1  0
  8  9  2  0
  8 33  1  0
  9 10  1  0
  9 26  1  0
 10 11  2  0
 10 34  1  0
 11 12  1  0
 11 35  1  0
 12 13  2  0
 12 14  1  0
 14 15  1  0
 14 16  1  0
 15 36  1  0
 15 37  1  0
 15 38  1  0
 16 17  1  0
 16 39  1  0
 16 40  1  0
 17 18  2  0
 17 25  1  0
 18 19  1  0
 18 41  1  0
 19 20  2  0
 19 42  1  0
 20 21  1  0
 20 23  1  0
 21 22  1  0
 22 43  1  0
 22 44  1  0
 22 45  1  0
 23 24  1  0
 23 25  2  0
 25 46  1  0
 26 27  2  0
 26 47  1  0
 27 48  1  0
M  END

