
     RDKit          3D

 39 40  0  0  0  0  0  0  0  0999 V2000
    5.5157    3.7762    4.5424 C   0  0  0  0  0  0  0  0  0  0  0  0
    6.1693    3.3528    3.2517 C   0  0  0  0  0  0  0  0  0  0  0  0
    5.4115    2.9590    2.1471 C   0  0  0  0  0  0  0  0  0  0  0  0
    5.9892    2.5767    0.9258 C   0  0  0  0  0  0  0  0  0  0  0  0
    5.1329    2.1238   -0.2388 C   0  0  0  0  0  0  0  0  0  0  0  0
    4.0870    3.0855   -0.6191 N   0  0  0  0  0  0  0  0  0  0  0  0
    4.5684    4.4057   -1.0561 C   0  0  0  0  0  0  0  0  0  0  0  0
    5.0367    4.4649   -2.5122 C   0  0  0  0  0  0  0  0  0  0  0  0
    3.6716    4.0872   -3.6769 S   0  0  0  0  0  0  0  0  0  0  0  0
    3.1788    2.4945   -2.9311 C   0  0  0  0  0  0  0  0  0  0  0  0
    3.0179    2.5248   -1.4034 C   0  0  2  0  0  0  0  0  0  0  0  0
    1.3678    3.3007   -0.9513 S   0  0  1  0  0  0  0  0  0  0  0  0
    1.1404    2.7682    0.7629 C   0  0  0  0  0  0  0  0  0  0  0  0
    1.4388    4.7703   -0.9267 O   0  0  0  0  0  0  0  0  0  0  0  0
    0.3583    2.6160   -1.7780 O   0  0  0  0  0  0  0  0  0  0  0  0
    7.3856    2.5999    0.8340 C   0  0  0  0  0  0  0  0  0  0  0  0
    8.1726    2.9793    1.9214 C   0  0  0  0  0  0  0  0  0  0  0  0
    7.5859    3.3612    3.1406 C   0  0  0  0  0  0  0  0  0  0  0  0
    8.3705    3.7932    4.2010 N   0  0  0  0  0  0  0  0  0  0  0  0
    4.4197    3.7562    4.4617 H   0  0  0  0  0  0  0  0  0  0  0  0
    5.8146    4.7997    4.8297 H   0  0  0  0  0  0  0  0  0  0  0  0
    5.7929    3.1138    5.3841 H   0  0  0  0  0  0  0  0  0  0  0  0
    4.3216    2.9592    2.2377 H   0  0  0  0  0  0  0  0  0  0  0  0
    4.6163    1.1853    0.0303 H   0  0  0  0  0  0  0  0  0  0  0  0
    5.8030    1.8666   -1.0860 H   0  0  0  0  0  0  0  0  0  0  0  0
    5.3950    4.6889   -0.3866 H   0  0  0  0  0  0  0  0  0  0  0  0
    3.7565    5.1323   -0.9131 H   0  0  0  0  0  0  0  0  0  0  0  0
    5.8862    3.7864   -2.7021 H   0  0  0  0  0  0  0  0  0  0  0  0
    5.3667    5.4850   -2.7608 H   0  0  0  0  0  0  0  0  0  0  0  0
    3.9276    1.7225   -3.1795 H   0  0  0  0  0  0  0  0  0  0  0  0
    2.2265    2.2020   -3.3962 H   0  0  0  0  0  0  0  0  0  0  0  0
    2.8483    1.4868   -1.0734 H   0  0  0  0  0  0  0  0  0  0  0  0
    1.9882    3.1321    1.3555 H   0  0  0  0  0  0  0  0  0  0  0  0
    1.0464    1.6755    0.8035 H   0  0  0  0  0  0  0  0  0  0  0  0
    0.2063    3.2503    1.0812 H   0  0  0  0  0  0  0  0  0  0  0  0
    7.8729    2.3123   -0.1025 H   0  0  0  0  0  0  0  0  0  0  0  0
    9.2624    2.9891    1.8265 H   0  0  0  0  0  0  0  0  0  0  0  0
    9.3556    3.5608    4.1556 H   0  0  0  0  0  0  0  0  0  0  0  0
    7.9836    3.7010    5.1323 H   0  0  0  0  0  0  0  0  0  0  0  0
  1  2  1  0
  1 20  1  0
  1 21  1  0
  1 22  1  0
  2  3  2  0
  2 18  1  0
  3  4  1  0
  3 23  1  0
  4  5  1  0
  4 16  2  0
  5  6  1  0
  5 24  1  0
  5 25  1  0
  6  7  1  0
  6 11  1  0
  7  8  1  0
  7 26  1  0
  7 27  1  0
  8  9  1  0
  8 28  1  0
  8 29  1  0
  9 10  1  0
 10 11  1  0
 10 30  1  0
 10 31  1  0
 11 12  1  0
 11 32  1  1
 12 13  1  1
 12 14  2  0
 12 15  2  0
 13 33  1  0
 13 34  1  0
 13 35  1  0
 16 17  1  0
 16 36  1  0
 17 18  2  0
 17 37  1  0
 18 19  1  0
 19 38  1  0
 19 39  1  0
M  END

