
     RDKit          3D

 64 66  0  0  0  0  0  0  0  0999 V2000
    2.5035    5.9237   -2.2316 C   0  0  0  0  0  0  0  0  0  0  0  0
    3.8405    5.2707   -1.8776 C   0  0  0  0  0  0  0  0  0  0  0  0
    3.7280    4.0281   -0.9713 C   0  0  1  0  0  0  0  0  0  0  0  0
    3.0101    2.8464   -1.6271 C   0  0  0  0  0  0  0  0  0  0  0  0
    5.0546    3.6087   -0.5201 N   0  0  0  0  0  0  0  0  0  0  0  0
    5.5867    4.0188    0.6552 C   0  0  0  0  0  0  0  0  0  0  0  0
    4.9597    4.6718    1.4798 O   0  0  0  0  0  0  0  0  0  0  0  0
    7.0249    3.5422    0.9954 C   0  0  1  0  0  0  0  0  0  0  0  0
    7.9406    3.0936   -0.1703 C   0  0  0  0  0  0  0  0  0  0  0  0
    7.5825    1.7871   -0.8536 C   0  0  0  0  0  0  0  0  0  0  0  0
    7.4875    1.7243   -2.2545 C   0  0  0  0  0  0  0  0  0  0  0  0
    7.1869    0.5240   -2.9080 C   0  0  0  0  0  0  0  0  0  0  0  0
    6.9749   -0.6417   -2.1688 C   0  0  0  0  0  0  0  0  0  0  0  0
    7.0719   -0.5974   -0.7738 C   0  0  0  0  0  0  0  0  0  0  0  0
    7.3734    0.6022   -0.1254 C   0  0  0  0  0  0  0  0  0  0  0  0
    7.6772    4.5643    1.8247 N   0  0  0  0  0  0  0  0  0  0  0  0
    7.8360    4.2799    3.2509 C   0  0  0  0  0  0  0  0  0  0  0  0
    8.6265    3.0147    3.5482 C   0  0  0  0  0  0  0  0  0  0  0  0
   10.0174    2.9331    3.3300 C   0  0  0  0  0  0  0  0  0  0  0  0
   10.8858    4.3078    2.6755 Cl  0  0  0  0  0  0  0  0  0  0  0  0
   10.7654    1.7907    3.6222 C   0  0  0  0  0  0  0  0  0  0  0  0
   10.1243    0.6721    4.1537 C   0  0  0  0  0  0  0  0  0  0  0  0
    8.7509    0.7006    4.3880 C   0  0  0  0  0  0  0  0  0  0  0  0
    8.0248    1.8565    4.0837 C   0  0  0  0  0  0  0  0  0  0  0  0
    6.2956    1.8064    4.3859 Cl  0  0  0  0  0  0  0  0  0  0  0  0
    7.7872    5.8234    1.2745 C   0  0  0  0  0  0  0  0  0  0  0  0
    7.4559    6.0235    0.1133 O   0  0  0  0  0  0  0  0  0  0  0  0
    8.3571    6.9621    2.1165 C   0  0  0  0  0  0  0  0  0  0  0  0
    7.4150    7.5903    3.1279 C   0  0  0  0  0  0  0  0  0  0  0  0
    6.0448    7.2826    3.1766 C   0  0  0  0  0  0  0  0  0  0  0  0
    5.1956    7.9000    4.0997 C   0  0  0  0  0  0  0  0  0  0  0  0
    5.6969    8.8449    4.9971 C   0  0  0  0  0  0  0  0  0  0  0  0
    7.0543    9.1713    4.9706 C   0  0  0  0  0  0  0  0  0  0  0  0
    7.8927    8.5472    4.0442 C   0  0  0  0  0  0  0  0  0  0  0  0
    9.5944    8.9927    4.0386 Cl  0  0  0  0  0  0  0  0  0  0  0  0
    2.6602    6.8465   -2.8121 H   0  0  0  0  0  0  0  0  0  0  0  0
    1.9409    6.1972   -1.3231 H   0  0  0  0  0  0  0  0  0  0  0  0
    1.8602    5.2638   -2.8357 H   0  0  0  0  0  0  0  0  0  0  0  0
    4.4821    5.9999   -1.3570 H   0  0  0  0  0  0  0  0  0  0  0  0
    4.3804    4.9911   -2.8017 H   0  0  0  0  0  0  0  0  0  0  0  0
    3.1897    4.3220   -0.0571 H   0  0  0  0  0  0  0  0  0  0  0  0
    3.5406    2.5115   -2.5356 H   0  0  0  0  0  0  0  0  0  0  0  0
    1.9855    3.1177   -1.9219 H   0  0  0  0  0  0  0  0  0  0  0  0
    2.9500    1.9929   -0.9347 H   0  0  0  0  0  0  0  0  0  0  0  0
    5.6341    3.0974   -1.1760 H   0  0  0  0  0  0  0  0  0  0  0  0
    6.8628    2.6757    1.6530 H   0  0  0  0  0  0  0  0  0  0  0  0
    8.9517    2.9984    0.2596 H   0  0  0  0  0  0  0  0  0  0  0  0
    7.9978    3.9061   -0.9068 H   0  0  0  0  0  0  0  0  0  0  0  0
    7.6616    2.6306   -2.8425 H   0  0  0  0  0  0  0  0  0  0  0  0
    7.1213    0.5022   -3.9990 H   0  0  0  0  0  0  0  0  0  0  0  0
    6.7382   -1.5809   -2.6750 H   0  0  0  0  0  0  0  0  0  0  0  0
    6.9134   -1.5054   -0.1859 H   0  0  0  0  0  0  0  0  0  0  0  0
    7.4530    0.6114    0.9651 H   0  0  0  0  0  0  0  0  0  0  0  0
    6.8456    4.2031    3.7212 H   0  0  0  0  0  0  0  0  0  0  0  0
    8.3528    5.1241    3.7206 H   0  0  0  0  0  0  0  0  0  0  0  0
   11.8395    1.7908    3.4336 H   0  0  0  0  0  0  0  0  0  0  0  0
   10.6995   -0.2265    4.3880 H   0  0  0  0  0  0  0  0  0  0  0  0
    8.2308   -0.1633    4.8032 H   0  0  0  0  0  0  0  0  0  0  0  0
    8.6533    7.7274    1.3825 H   0  0  0  0  0  0  0  0  0  0  0  0
    9.2849    6.6478    2.6173 H   0  0  0  0  0  0  0  0  0  0  0  0
    5.6319    6.5366    2.4922 H   0  0  0  0  0  0  0  0  0  0  0  0
    4.1357    7.6351    4.1124 H   0  0  0  0  0  0  0  0  0  0  0  0
    5.0374    9.3312    5.7203 H   0  0  0  0  0  0  0  0  0  0  0  0
    7.4725    9.9067    5.6600 H   0  0  0  0  0  0  0  0  0  0  0  0
  1  2  1  0
  1 36  1  0
  1 37  1  0
  1 38  1  0
  2  3  1  0
  2 39  1  0
  2 40  1  0
  3  4  1  0
  3  5  1  0
  3 41  1  1
  4 42  1  0
  4 43  1  0
  4 44  1  0
  5  6  1  0
  5 45  1  0
  6  7  2  0
  6  8  1  0
  8  9  1  0
  8 16  1  0
  8 46  1  1
  9 10  1  0
  9 47  1  0
  9 48  1  0
 10 11  2  0
 10 15  1  0
 11 12  1  0
 11 49  1  0
 12 13  2  0
 12 50  1  0
 13 14  1  0
 13 51  1  0
 14 15  2  0
 14 52  1  0
 15 53  1  0
 16 17  1  0
 16 26  1  0
 17 18  1  0
 17 54  1  0
 17 55  1  0
 18 19  2  0
 18 24  1  0
 19 20  1  0
 19 21  1  0
 21 22  2  0
 21 56  1  0
 22 23  1  0
 22 57  1  0
 23 24  2  0
 23 58  1  0
 24 25  1  0
 26 27  2  0
 26 28  1  0
 28 29  1  0
 28 59  1  0
 28 60  1  0
 29 30  2  0
 29 34  1  0
 30 31  1  0
 30 61  1  0
 31 32  2  0
 31 62  1  0
 32 33  1  0
 32 63  1  0
 33 34  2  0
 33 64  1  0
 34 35  1  0
M  END

