
     RDKit          3D

 43 45  0  0  0  0  0  0  0  0999 V2000
    4.5441   -4.9097   -4.9168 C   0  0  0  0  0  0  0  0  0  0  0  0
    3.5131   -3.8562   -4.5895 C   0  0  0  0  0  0  0  0  0  0  0  0
    3.5203   -2.6015   -5.2109 C   0  0  0  0  0  0  0  0  0  0  0  0
    2.5569   -1.6269   -4.9219 C   0  0  0  0  0  0  0  0  0  0  0  0
    1.5554   -1.9098   -3.9895 C   0  0  0  0  0  0  0  0  0  0  0  0
    0.5706   -1.0187   -3.6185 O   0  0  0  0  0  0  0  0  0  0  0  0
    0.4064    0.1874   -4.2657 C   0  0  0  0  0  0  0  0  0  0  0  0
   -0.0437    0.2569   -5.5837 C   0  0  0  0  0  0  0  0  0  0  0  0
   -0.2444    1.5015   -6.1861 C   0  0  0  0  0  0  0  0  0  0  0  0
    0.0003    2.6674   -5.4553 C   0  0  0  0  0  0  0  0  0  0  0  0
    0.4334    2.6068   -4.1287 C   0  0  0  0  0  0  0  0  0  0  0  0
    0.6399    1.3598   -3.5120 C   0  0  0  0  0  0  0  0  0  0  0  0
    1.0450    1.1909   -2.1787 N   0  0  0  0  0  0  0  0  0  0  0  0
    1.4412    2.1530   -1.2844 C   0  0  0  0  0  0  0  0  0  0  0  0
    1.5202    3.3463   -1.5245 O   0  0  0  0  0  0  0  0  0  0  0  0
    1.7952    1.5859    0.0856 C   0  0  2  0  0  0  0  0  0  0  0  0
    0.8935    1.1223    0.5191 H   0  0  0  0  0  0  0  0  0  0  0  0
    2.5114    2.5064    1.0958 C   0  0  0  0  0  0  0  0  0  0  0  0
    3.4232    1.3175    1.5052 C   0  0  0  0  0  0  0  0  0  0  0  0
    2.9861    0.5936    0.1981 C   0  0  1  0  0  0  0  0  0  0  0  0
    3.7188    0.7682   -0.6100 H   0  0  0  0  0  0  0  0  0  0  0  0
    2.6379   -0.8791    0.1805 C   0  0  0  0  0  0  0  0  0  0  0  0
    1.6997   -1.3197   -0.4364 O   0  0  0  0  0  0  0  0  0  0  0  0
    3.4443   -1.6997    0.8787 O   0  0  0  0  0  0  0  0  0  0  0  0
    1.5317   -3.1535   -3.3442 C   0  0  0  0  0  0  0  0  0  0  0  0
    2.4995   -4.1070   -3.6462 C   0  0  0  0  0  0  0  0  0  0  0  0
    5.3319   -4.5131   -5.5748 H   0  0  0  0  0  0  0  0  0  0  0  0
    4.0887   -5.7748   -5.4291 H   0  0  0  0  0  0  0  0  0  0  0  0
    5.0299   -5.2973   -4.0059 H   0  0  0  0  0  0  0  0  0  0  0  0
    4.2989   -2.3686   -5.9433 H   0  0  0  0  0  0  0  0  0  0  0  0
    2.5922   -0.6578   -5.4209 H   0  0  0  0  0  0  0  0  0  0  0  0
   -0.2307   -0.6724   -6.1257 H   0  0  0  0  0  0  0  0  0  0  0  0
   -0.5947    1.5567   -7.2194 H   0  0  0  0  0  0  0  0  0  0  0  0
   -0.1534    3.6452   -5.9186 H   0  0  0  0  0  0  0  0  0  0  0  0
    0.6232    3.5108   -3.5548 H   0  0  0  0  0  0  0  0  0  0  0  0
    1.0397    0.2242   -1.8436 H   0  0  0  0  0  0  0  0  0  0  0  0
    1.8946    2.9598    1.8842 H   0  0  0  0  0  0  0  0  0  0  0  0
    3.0591    3.3040    0.5745 H   0  0  0  0  0  0  0  0  0  0  0  0
    3.0528    0.8018    2.4059 H   0  0  0  0  0  0  0  0  0  0  0  0
    4.4970    1.5250    1.6304 H   0  0  0  0  0  0  0  0  0  0  0  0
    4.1371   -1.1905    1.3246 H   0  0  0  0  0  0  0  0  0  0  0  0
    0.7587   -3.3421   -2.5977 H   0  0  0  0  0  0  0  0  0  0  0  0
    2.4695   -5.0724   -3.1320 H   0  0  0  0  0  0  0  0  0  0  0  0
  1  2  1  0
  1 27  1  0
  1 28  1  0
  1 29  1  0
  2  3  2  0
  2 26  1  0
  3  4  1  0
  3 30  1  0
  4  5  2  0
  4 31  1  0
  5  6  1  0
  5 25  1  0
  6  7  1  0
  7  8  2  0
  7 12  1  0
  8  9  1  0
  8 32  1  0
  9 10  2  0
  9 33  1  0
 10 11  1  0
 10 34  1  0
 11 12  2  0
 11 35  1  0
 12 13  1  0
 13 14  1  0
 13 36  1  0
 14 15  2  0
 14 16  1  0
 16 17  1  1
 16 18  1  0
 16 20  1  0
 18 19  1  0
 18 37  1  0
 18 38  1  0
 19 20  1  0
 19 39  1  0
 19 40  1  0
 20 21  1  6
 20 22  1  0
 22 23  2  0
 22 24  1  0
 24 41  1  0
 25 26  2  0
 25 42  1  0
 26 43  1  0
M  END

