
     RDKit          3D

 48 49  0  0  0  0  0  0  0  0999 V2000
    2.1443   -0.8442   -2.6224 C   0  0  0  0  0  0  0  0  0  0  0  0
    3.2466   -0.5488   -1.6349 C   0  0  0  0  0  0  0  0  0  0  0  0
    3.4820    0.7425   -1.1586 C   0  0  0  0  0  0  0  0  0  0  0  0
    4.5132    0.9894   -0.2427 C   0  0  0  0  0  0  0  0  0  0  0  0
    5.3485   -0.0259    0.2323 C   0  0  0  0  0  0  0  0  0  0  0  0
    6.4975    0.2239    1.2033 C   0  0  1  0  0  0  0  0  0  0  0  0
    7.8515    0.2222    0.4656 C   0  0  0  0  0  0  0  0  0  0  0  0
    6.3384    1.5028    2.0352 C   0  0  0  0  0  0  0  0  0  0  0  0
    5.1041   -1.3336   -0.2573 C   0  0  0  0  0  0  0  0  0  0  0  0
    5.9359   -2.3121    0.2266 O   0  0  0  0  0  0  0  0  0  0  0  0
    5.8464   -3.6200   -0.2645 C   0  0  0  0  0  0  0  0  0  0  0  0
    4.6531   -4.4443    0.2146 C   0  0  0  0  0  0  0  0  0  0  0  0
    4.2941   -5.4542   -0.3299 O   0  0  0  0  0  0  0  0  0  0  0  0
    4.0953   -3.9403    1.3331 O   0  0  0  0  0  0  0  0  0  0  0  0
    2.9805   -4.6381    1.8983 C   0  0  0  0  0  0  0  0  0  0  0  0
    2.0376   -3.6895    2.6378 C   0  0  0  0  0  0  0  0  0  0  0  0
    1.1333   -4.1578    3.3021 O   0  0  0  0  0  0  0  0  0  0  0  0
    2.3022   -2.3596    2.4574 N   0  0  0  0  0  0  0  0  0  0  0  0
    1.6313   -1.2513    3.0008 C   0  0  0  0  0  0  0  0  0  0  0  0
    0.5266   -1.3737    3.8612 C   0  0  0  0  0  0  0  0  0  0  0  0
   -0.0638   -0.2104    4.3589 C   0  0  0  0  0  0  0  0  0  0  0  0
   -1.4376   -0.3565    5.4297 Cl  0  0  0  0  0  0  0  0  0  0  0  0
    0.4033    1.0663    4.0363 C   0  0  0  0  0  0  0  0  0  0  0  0
    1.5005    1.1554    3.1766 C   0  0  0  0  0  0  0  0  0  0  0  0
    2.1234    2.7349    2.7492 Cl  0  0  0  0  0  0  0  0  0  0  0  0
    2.1162    0.0220    2.6521 C   0  0  0  0  0  0  0  0  0  0  0  0
    4.0725   -1.5881   -1.1669 C   0  0  0  0  0  0  0  0  0  0  0  0
    1.5677    0.0604   -2.8636 H   0  0  0  0  0  0  0  0  0  0  0  0
    1.4412   -1.5969   -2.2284 H   0  0  0  0  0  0  0  0  0  0  0  0
    2.5497   -1.2466   -3.5662 H   0  0  0  0  0  0  0  0  0  0  0  0
    2.8528    1.5697   -1.4963 H   0  0  0  0  0  0  0  0  0  0  0  0
    4.6572    2.0096    0.1166 H   0  0  0  0  0  0  0  0  0  0  0  0
    6.5101   -0.6314    1.9000 H   0  0  0  0  0  0  0  0  0  0  0  0
    7.9044    1.0557   -0.2543 H   0  0  0  0  0  0  0  0  0  0  0  0
    8.0063   -0.7164   -0.0860 H   0  0  0  0  0  0  0  0  0  0  0  0
    8.6835    0.3380    1.1795 H   0  0  0  0  0  0  0  0  0  0  0  0
    6.4413    2.4094    1.4162 H   0  0  0  0  0  0  0  0  0  0  0  0
    7.1230    1.5501    2.8066 H   0  0  0  0  0  0  0  0  0  0  0  0
    5.3622    1.5540    2.5420 H   0  0  0  0  0  0  0  0  0  0  0  0
    6.7481   -4.1442    0.0929 H   0  0  0  0  0  0  0  0  0  0  0  0
    5.8562   -3.6664   -1.3667 H   0  0  0  0  0  0  0  0  0  0  0  0
    3.3362   -5.3910    2.6186 H   0  0  0  0  0  0  0  0  0  0  0  0
    2.4212   -5.1667    1.1114 H   0  0  0  0  0  0  0  0  0  0  0  0
    3.1116   -2.1522    1.8788 H   0  0  0  0  0  0  0  0  0  0  0  0
    0.1476   -2.3561    4.1290 H   0  0  0  0  0  0  0  0  0  0  0  0
   -0.0713    1.9592    4.4408 H   0  0  0  0  0  0  0  0  0  0  0  0
    2.9617    0.1266    1.9710 H   0  0  0  0  0  0  0  0  0  0  0  0
    3.8934   -2.5995   -1.5369 H   0  0  0  0  0  0  0  0  0  0  0  0
  1  2  1  0
  1 28  1  0
  1 29  1  0
  1 30  1  0
  2  3  2  0
  2 27  1  0
  3  4  1  0
  3 31  1  0
  4  5  2  0
  4 32  1  0
  5  6  1  0
  5  9  1  0
  6  7  1  0
  6  8  1  0
  6 33  1  1
  7 34  1  0
  7 35  1  0
  7 36  1  0
  8 37  1  0
  8 38  1  0
  8 39  1  0
  9 10  1  0
  9 27  2  0
 10 11  1  0
 11 12  1  0
 11 40  1  0
 11 41  1  0
 12 13  2  0
 12 14  1  0
 14 15  1  0
 15 16  1  0
 15 42  1  0
 15 43  1  0
 16 17  2  0
 16 18  1  0
 18 19  1  0
 18 44  1  0
 19 20  2  0
 19 26  1  0
 20 21  1  0
 20 45  1  0
 21 22  1  0
 21 23  2  0
 23 24  1  0
 23 46  1  0
 24 25  1  0
 24 26  2  0
 26 47  1  0
 27 48  1  0
M  END

