
     RDKit          3D

 84 85  0  0  0  0  0  0  0  0999 V2000
    5.0238    7.0362   -1.1056 C   0  0  0  0  0  0  0  0  0  0  0  0
    5.6713    7.8485   -2.2362 C   0  0  1  0  0  0  0  0  0  0  0  0
    7.1076    8.2520   -1.8733 C   0  0  0  0  0  0  0  0  0  0  0  0
    5.5771    7.1874   -3.6307 C   0  0  0  0  0  0  0  0  0  0  0  0
    6.4295    5.9463   -3.9443 C   0  0  0  0  0  0  0  0  0  0  0  0
    6.0271    4.6580   -3.3581 N   0  0  0  0  0  0  0  0  0  0  0  0
    5.1018    3.7984   -4.0728 C   0  0  0  0  0  0  0  0  0  0  0  0
    3.7003    3.6290   -3.4431 C   0  0  1  0  0  0  0  0  0  0  0  0
    3.2882    2.3465   -3.7513 F   0  0  0  0  0  0  0  0  0  0  0  0
    3.7712    3.6967   -2.0780 F   0  0  0  0  0  0  0  0  0  0  0  0
    2.6250    4.5959   -3.9681 C   0  0  1  0  0  0  0  0  0  0  0  0
    2.4474    4.3457   -5.3453 O   0  0  0  0  0  0  0  0  0  0  0  0
    1.2616    4.6606   -3.2229 C   0  0  1  0  0  0  0  0  0  0  0  0
    0.4012    3.3729   -3.2196 C   0  0  0  0  0  0  0  0  0  0  0  0
    0.6646    2.3223   -2.1094 C   0  0  1  0  0  0  0  0  0  0  0  0
   -0.2406    2.5231   -0.8696 C   0  0  0  0  0  0  0  0  0  0  0  0
   -1.7041    2.1255   -1.1147 C   0  0  0  0  0  0  0  0  0  0  0  0
   -1.8243    0.6941   -1.6536 C   0  0  0  0  0  0  0  0  0  0  0  0
   -0.9551    0.4927   -2.9018 C   0  0  0  0  0  0  0  0  0  0  0  0
    0.5055    0.8760   -2.6280 C   0  0  0  0  0  0  0  0  0  0  0  0
    1.4112    5.2718   -1.9145 N   0  0  0  0  0  0  0  0  0  0  0  0
    0.7325    6.3975   -1.5522 C   0  0  0  0  0  0  0  0  0  0  0  0
   -0.0157    7.0311   -2.2695 O   0  0  0  0  0  0  0  0  0  0  0  0
    1.0242    6.7168   -0.2679 O   0  0  0  0  0  0  0  0  0  0  0  0
    0.3796    7.8824    0.2829 C   0  0  0  0  0  0  0  0  0  0  0  0
   -0.9096    7.5421    0.9934 C   0  0  0  0  0  0  0  0  0  0  0  0
   -0.9287    7.3585    2.3839 C   0  0  0  0  0  0  0  0  0  0  0  0
   -2.1160    7.0318    3.0453 C   0  0  0  0  0  0  0  0  0  0  0  0
   -3.3010    6.8822    2.3193 C   0  0  0  0  0  0  0  0  0  0  0  0
   -3.2927    7.0619    0.9318 C   0  0  0  0  0  0  0  0  0  0  0  0
   -2.1061    7.3909    0.2721 C   0  0  0  0  0  0  0  0  0  0  0  0
    6.7984    4.1503   -2.3294 C   0  0  0  0  0  0  0  0  0  0  0  0
    7.6423    4.7966   -1.7369 O   0  0  0  0  0  0  0  0  0  0  0  0
    6.5009    2.8615   -2.0896 O   0  0  0  0  0  0  0  0  0  0  0  0
    7.0762    2.1162   -0.9636 C   0  0  1  0  0  0  0  0  0  0  0  0
    6.7141    2.8050    0.3558 C   0  0  0  0  0  0  0  0  0  0  0  0
    6.3822    0.7572   -1.0733 C   0  0  0  0  0  0  0  0  0  0  0  0
    8.5901    1.9744   -1.1473 C   0  0  0  0  0  0  0  0  0  0  0  0
    4.9838    7.6351   -0.1808 H   0  0  0  0  0  0  0  0  0  0  0  0
    5.6009    6.1280   -0.8799 H   0  0  0  0  0  0  0  0  0  0  0  0
    3.9912    6.7410   -1.3497 H   0  0  0  0  0  0  0  0  0  0  0  0
    5.0836    8.7809   -2.3336 H   0  0  0  0  0  0  0  0  0  0  0  0
    7.7330    7.3650   -1.6877 H   0  0  0  0  0  0  0  0  0  0  0  0
    7.1183    8.8635   -0.9564 H   0  0  0  0  0  0  0  0  0  0  0  0
    7.5766    8.8487   -2.6740 H   0  0  0  0  0  0  0  0  0  0  0  0
    5.8838    7.9448   -4.3746 H   0  0  0  0  0  0  0  0  0  0  0  0
    4.5184    6.9756   -3.8597 H   0  0  0  0  0  0  0  0  0  0  0  0
    7.4689    6.1248   -3.6389 H   0  0  0  0  0  0  0  0  0  0  0  0
    6.4354    5.8098   -5.0393 H   0  0  0  0  0  0  0  0  0  0  0  0
    5.5127    2.7838   -4.1577 H   0  0  0  0  0  0  0  0  0  0  0  0
    4.9490    4.1905   -5.0876 H   0  0  0  0  0  0  0  0  0  0  0  0
    3.0509    5.6071   -3.8902 H   0  0  0  0  0  0  0  0  0  0  0  0
    2.1820    3.4200   -5.4460 H   0  0  0  0  0  0  0  0  0  0  0  0
    0.7062    5.4004   -3.8165 H   0  0  0  0  0  0  0  0  0  0  0  0
    0.5010    2.9067   -4.2151 H   0  0  0  0  0  0  0  0  0  0  0  0
   -0.6490    3.7013   -3.1734 H   0  0  0  0  0  0  0  0  0  0  0  0
    1.7079    2.4247   -1.7772 H   0  0  0  0  0  0  0  0  0  0  0  0
   -0.1861    3.5659   -0.5189 H   0  0  0  0  0  0  0  0  0  0  0  0
    0.1598    1.9009   -0.0483 H   0  0  0  0  0  0  0  0  0  0  0  0
   -2.1684    2.8237   -1.8346 H   0  0  0  0  0  0  0  0  0  0  0  0
   -2.2790    2.2345   -0.1798 H   0  0  0  0  0  0  0  0  0  0  0  0
   -2.8783    0.4528   -1.8730 H   0  0  0  0  0  0  0  0  0  0  0  0
   -1.4995   -0.0170   -0.8709 H   0  0  0  0  0  0  0  0  0  0  0  0
   -1.3558    1.1058   -3.7301 H   0  0  0  0  0  0  0  0  0  0  0  0
   -1.0116   -0.5547   -3.2440 H   0  0  0  0  0  0  0  0  0  0  0  0
    1.1238    0.7346   -3.5298 H   0  0  0  0  0  0  0  0  0  0  0  0
    0.9127    0.1861   -1.8662 H   0  0  0  0  0  0  0  0  0  0  0  0
    1.9968    4.8322   -1.2148 H   0  0  0  0  0  0  0  0  0  0  0  0
    0.2024    8.6014   -0.5289 H   0  0  0  0  0  0  0  0  0  0  0  0
    1.1104    8.3008    0.9885 H   0  0  0  0  0  0  0  0  0  0  0  0
   -0.0033    7.4760    2.9556 H   0  0  0  0  0  0  0  0  0  0  0  0
   -2.1160    6.8953    4.1299 H   0  0  0  0  0  0  0  0  0  0  0  0
   -4.2313    6.6285    2.8343 H   0  0  0  0  0  0  0  0  0  0  0  0
   -4.2179    6.9489    0.3604 H   0  0  0  0  0  0  0  0  0  0  0  0
   -2.0924    7.5258   -0.8119 H   0  0  0  0  0  0  0  0  0  0  0  0
    5.6254    2.9557    0.4192 H   0  0  0  0  0  0  0  0  0  0  0  0
    7.2130    3.7783    0.4458 H   0  0  0  0  0  0  0  0  0  0  0  0
    7.0238    2.1709    1.2011 H   0  0  0  0  0  0  0  0  0  0  0  0
    5.2904    0.8771   -1.0100 H   0  0  0  0  0  0  0  0  0  0  0  0
    6.7128    0.0932   -0.2604 H   0  0  0  0  0  0  0  0  0  0  0  0
    6.6203    0.2757   -2.0341 H   0  0  0  0  0  0  0  0  0  0  0  0
    9.0869    2.9512   -1.0936 H   0  0  0  0  0  0  0  0  0  0  0  0
    8.8167    1.5132   -2.1215 H   0  0  0  0  0  0  0  0  0  0  0  0
    8.9993    1.3230   -0.3591 H   0  0  0  0  0  0  0  0  0  0  0  0
  1  2  1  0
  1 39  1  0
  1 40  1  0
  1 41  1  0
  2  3  1  0
  2  4  1  0
  2 42  1  6
  3 43  1  0
  3 44  1  0
  3 45  1  0
  4  5  1  0
  4 46  1  0
  4 47  1  0
  5  6  1  0
  5 48  1  0
  5 49  1  0
  6  7  1  0
  6 32  1  0
  7  8  1  0
  7 50  1  0
  7 51  1  0
  8  9  1  1
  8 10  1  0
  8 11  1  0
 11 12  1  0
 11 13  1  0
 11 52  1  6
 12 53  1  0
 13 14  1  0
 13 21  1  0
 13 54  1  6
 14 15  1  0
 14 55  1  0
 14 56  1  0
 15 16  1  0
 15 20  1  0
 15 57  1  1
 16 17  1  0
 16 58  1  0
 16 59  1  0
 17 18  1  0
 17 60  1  0
 17 61  1  0
 18 19  1  0
 18 62  1  0
 18 63  1  0
 19 20  1  0
 19 64  1  0
 19 65  1  0
 20 66  1  0
 20 67  1  0
 21 22  1  0
 21 68  1  0
 22 23  2  0
 22 24  1  0
 24 25  1  0
 25 26  1  0
 25 69  1  0
 25 70  1  0
 26 27  2  0
 26 31  1  0
 27 28  1  0
 27 71  1  0
 28 29  2  0
 28 72  1  0
 29 30  1  0
 29 73  1  0
 30 31  2  0
 30 74  1  0
 31 75  1  0
 32 33  2  0
 32 34  1  0
 35 34  1  6
 35 36  1  0
 35 37  1  0
 35 38  1  0
 36 76  1  0
 36 77  1  0
 36 78  1  0
 37 79  1  0
 37 80  1  0
 37 81  1  0
 38 82  1  0
 38 83  1  0
 38 84  1  0
M  END

