
     RDKit          3D

 48 51  0  0  0  0  0  0  0  0999 V2000
    0.6868    8.8172   -1.6570 O   0  0  0  0  0  0  0  0  0  0  0  0
    1.4893    8.5971   -2.5259 C   0  0  0  0  0  0  0  0  0  0  0  0
    1.8624    9.5843   -3.3741 O   0  0  0  0  0  0  0  0  0  0  0  0
    2.1213    7.2513   -2.7435 C   0  0  0  0  0  0  0  0  0  0  0  0
    1.5123    6.1372   -2.1469 C   0  0  0  0  0  0  0  0  0  0  0  0
    2.0539    4.8638   -2.3130 C   0  0  0  0  0  0  0  0  0  0  0  0
    3.2289    4.6691   -3.0558 C   0  0  0  0  0  0  0  0  0  0  0  0
    3.8506    3.2864   -3.1765 C   0  0  0  0  0  0  0  0  0  0  0  0
    4.5198    3.0661   -4.4488 N   0  0  0  0  0  0  0  0  0  0  0  0
    5.5833    2.0610   -4.4470 C   0  0  0  0  0  0  0  0  0  0  0  0
    5.0470    0.6219   -4.5561 C   0  0  0  0  0  0  0  0  0  0  0  0
    4.1566    0.4304   -5.7002 N   0  0  0  0  0  0  0  0  0  0  0  0
    4.8109    0.2323   -6.9884 C   0  0  0  0  0  0  0  0  0  0  0  0
    3.9732   -0.5780   -7.9407 C   0  0  0  0  0  0  0  0  0  0  0  0
    3.0097   -1.5233   -7.6104 C   0  0  0  0  0  0  0  0  0  0  0  0
    2.5585   -2.0238   -8.8108 N   0  0  0  0  0  0  0  0  0  0  0  0
    1.6103   -2.9744   -9.0956 C   0  0  0  0  0  0  0  0  0  0  0  0
    1.3573   -3.2815  -10.4083 C   0  0  0  0  0  0  0  0  0  0  0  0
    0.1563   -4.4900  -10.7845 Cl  0  0  0  0  0  0  0  0  0  0  0  0
    2.0581   -2.6318  -11.4663 C   0  0  0  0  0  0  0  0  0  0  0  0
    3.0053   -1.6792  -11.1679 C   0  0  0  0  0  0  0  0  0  0  0  0
    3.2805   -1.3495   -9.8187 C   0  0  0  0  0  0  0  0  0  0  0  0
    4.1289   -0.4768   -9.2881 N   0  0  0  0  0  0  0  0  0  0  0  0
    3.0892    1.4362   -5.7041 C   0  0  0  0  0  0  0  0  0  0  0  0
    3.6233    2.8764   -5.5953 C   0  0  0  0  0  0  0  0  0  0  0  0
    3.8462    5.7862   -3.6375 C   0  0  0  0  0  0  0  0  0  0  0  0
    3.3005    7.0605   -3.4834 C   0  0  0  0  0  0  0  0  0  0  0  0
    2.4033    9.2261   -4.0913 H   0  0  0  0  0  0  0  0  0  0  0  0
    0.6051    6.2941   -1.5603 H   0  0  0  0  0  0  0  0  0  0  0  0
    1.5569    4.0030   -1.8559 H   0  0  0  0  0  0  0  0  0  0  0  0
    3.0719    2.5321   -2.9311 H   0  0  0  0  0  0  0  0  0  0  0  0
    4.6124    3.1891   -2.3821 H   0  0  0  0  0  0  0  0  0  0  0  0
    6.1938    2.1802   -3.5365 H   0  0  0  0  0  0  0  0  0  0  0  0
    6.2490    2.2665   -5.3058 H   0  0  0  0  0  0  0  0  0  0  0  0
    4.4834    0.3730   -3.6373 H   0  0  0  0  0  0  0  0  0  0  0  0
    5.8804   -0.0971   -4.6198 H   0  0  0  0  0  0  0  0  0  0  0  0
    5.7547   -0.3122   -6.8091 H   0  0  0  0  0  0  0  0  0  0  0  0
    5.1027    1.1641   -7.5157 H   0  0  0  0  0  0  0  0  0  0  0  0
    2.6284   -1.8576   -6.6506 H   0  0  0  0  0  0  0  0  0  0  0  0
    1.0987   -3.4470   -8.2576 H   0  0  0  0  0  0  0  0  0  0  0  0
    1.8313   -2.9015  -12.4984 H   0  0  0  0  0  0  0  0  0  0  0  0
    3.5641   -1.1581  -11.9461 H   0  0  0  0  0  0  0  0  0  0  0  0
    2.4154    1.2259   -4.8533 H   0  0  0  0  0  0  0  0  0  0  0  0
    2.4849    1.3187   -6.6175 H   0  0  0  0  0  0  0  0  0  0  0  0
    2.7896    3.5933   -5.5267 H   0  0  0  0  0  0  0  0  0  0  0  0
    4.1824    3.1328   -6.5131 H   0  0  0  0  0  0  0  0  0  0  0  0
    4.7605    5.6367   -4.2152 H   0  0  0  0  0  0  0  0  0  0  0  0
    3.8295    7.9110   -3.9253 H   0  0  0  0  0  0  0  0  0  0  0  0
  1  2  2  0
  2  3  1  0
  2  4  1  0
  3 28  1  0
  4  5  2  0
  4 27  1  0
  5  6  1  0
  5 29  1  0
  6  7  2  0
  6 30  1  0
  7  8  1  0
  7 26  1  0
  8  9  1  0
  8 31  1  0
  8 32  1  0
  9 10  1  0
  9 25  1  0
 10 11  1  0
 10 33  1  0
 10 34  1  0
 11 12  1  0
 11 35  1  0
 11 36  1  0
 12 13  1  0
 12 24  1  0
 13 14  1  0
 13 37  1  0
 13 38  1  0
 14 15  2  0
 14 23  1  0
 15 16  1  0
 15 39  1  0
 16 17  1  0
 16 22  1  0
 17 18  2  0
 17 40  1  0
 18 19  1  0
 18 20  1  0
 20 21  2  0
 20 41  1  0
 21 22  1  0
 21 42  1  0
 22 23  2  0
 24 25  1  0
 24 43  1  0
 24 44  1  0
 25 45  1  0
 25 46  1  0
 26 27  2  0
 26 47  1  0
 27 48  1  0
M  END

