
     RDKit          3D

 69 73  0  0  0  0  0  0  0  0999 V2000
    0.1844   -0.4964   -0.1243 C   0  0  0  0  0  0  0  0  0  0  0  0
    1.5136   -0.2742   -0.5362 O   0  0  0  0  0  0  0  0  0  0  0  0
    1.7842    0.7487   -1.3875 C   0  0  0  0  0  0  0  0  0  0  0  0
    0.8212    1.6214   -1.9148 C   0  0  0  0  0  0  0  0  0  0  0  0
    1.2265    2.6558   -2.7689 C   0  0  0  0  0  0  0  0  0  0  0  0
    2.5666    2.8310   -3.1016 C   0  0  0  0  0  0  0  0  0  0  0  0
    3.5304    1.9395   -2.5975 C   0  0  0  0  0  0  0  0  0  0  0  0
    4.9823    2.2224   -2.9054 C   0  0  0  0  0  0  0  0  0  0  0  0
    5.4043    3.3666   -2.8051 O   0  0  0  0  0  0  0  0  0  0  0  0
    5.7971    1.1725   -3.2642 N   0  0  0  0  0  0  0  0  0  0  0  0
    7.2220    1.4198   -3.4576 C   0  0  0  0  0  0  0  0  0  0  0  0
    8.0590    0.3490   -2.7469 C   0  0  0  0  0  0  0  0  0  0  0  0
    7.6217   -1.1211   -2.9095 C   0  0  2  0  0  0  0  0  0  0  0  0
    6.0798   -1.2653   -3.0355 C   0  0  0  0  0  0  0  0  0  0  0  0
    5.3750   -0.1271   -3.7755 C   0  0  0  0  0  0  0  0  0  0  0  0
    8.0394   -1.7572   -1.7029 O   0  0  0  0  0  0  0  0  0  0  0  0
    8.0775   -3.1484   -1.9322 C   0  0  0  0  0  0  0  0  0  0  0  0
    8.6438   -3.2758   -3.3591 C   0  0  1  0  0  0  0  0  0  0  0  0
    9.7304   -3.4204   -3.3354 H   0  0  0  0  0  0  0  0  0  0  0  0
    7.9352   -4.3844   -4.1589 C   0  0  0  0  0  0  0  0  0  0  0  0
    6.7165   -4.3438   -4.3082 O   0  0  0  0  0  0  0  0  0  0  0  0
    8.6814   -5.4073   -4.6403 N   0  0  0  0  0  0  0  0  0  0  0  0
    8.0217   -6.4980   -5.3728 C   0  0  0  0  0  0  0  0  0  0  0  0
    9.1568   -7.4916   -5.6413 C   0  0  0  0  0  0  0  0  0  0  0  0
   10.3923   -6.5867   -5.7521 C   0  0  0  0  0  0  0  0  0  0  0  0
   10.1501   -5.5218   -4.6740 C   0  0  0  0  0  0  0  0  0  0  0  0
    8.3632   -1.9476   -3.9324 N   0  0  0  0  0  0  0  0  0  0  0  0
    9.1335   -1.6089   -5.0198 C   0  0  0  0  0  0  0  0  0  0  0  0
   10.0199   -2.3617   -5.4181 O   0  0  0  0  0  0  0  0  0  0  0  0
    8.8233   -0.3774   -5.8260 C   0  0  0  0  0  0  0  0  0  0  0  0
    7.6194   -0.3444   -6.5431 C   0  0  0  0  0  0  0  0  0  0  0  0
    7.3378    0.7075   -7.4191 C   0  0  0  0  0  0  0  0  0  0  0  0
    8.2660    1.7387   -7.5697 C   0  0  0  0  0  0  0  0  0  0  0  0
    9.4782    1.6936   -6.8733 C   0  0  0  0  0  0  0  0  0  0  0  0
    9.7934    0.6331   -6.0121 C   0  0  0  0  0  0  0  0  0  0  0  0
   11.1387    0.5698   -5.3311 C   0  0  0  0  0  0  0  0  0  0  0  0
    3.1359    0.9107   -1.7387 C   0  0  0  0  0  0  0  0  0  0  0  0
    0.2074   -1.3575    0.5572 H   0  0  0  0  0  0  0  0  0  0  0  0
   -0.4777   -0.7343   -0.9768 H   0  0  0  0  0  0  0  0  0  0  0  0
   -0.2312    0.3744    0.4146 H   0  0  0  0  0  0  0  0  0  0  0  0
   -0.2340    1.5134   -1.6636 H   0  0  0  0  0  0  0  0  0  0  0  0
    0.4730    3.3392   -3.1693 H   0  0  0  0  0  0  0  0  0  0  0  0
    2.8863    3.6565   -3.7394 H   0  0  0  0  0  0  0  0  0  0  0  0
    7.4490    2.4096   -3.0439 H   0  0  0  0  0  0  0  0  0  0  0  0
    7.4457    1.4592   -4.5346 H   0  0  0  0  0  0  0  0  0  0  0  0
    7.9828    0.5226   -1.6629 H   0  0  0  0  0  0  0  0  0  0  0  0
    9.1227    0.4528   -3.0042 H   0  0  0  0  0  0  0  0  0  0  0  0
    5.7029   -1.2856   -2.0001 H   0  0  0  0  0  0  0  0  0  0  0  0
    5.8418   -2.2316   -3.5036 H   0  0  0  0  0  0  0  0  0  0  0  0
    4.2896   -0.2378   -3.6768 H   0  0  0  0  0  0  0  0  0  0  0  0
    5.6007   -0.1689   -4.8547 H   0  0  0  0  0  0  0  0  0  0  0  0
    7.0734   -3.6017   -1.8672 H   0  0  0  0  0  0  0  0  0  0  0  0
    8.7309   -3.6055   -1.1757 H   0  0  0  0  0  0  0  0  0  0  0  0
    7.5801   -6.1088   -6.3077 H   0  0  0  0  0  0  0  0  0  0  0  0
    7.1921   -6.9125   -4.7803 H   0  0  0  0  0  0  0  0  0  0  0  0
    8.9785   -8.1007   -6.5397 H   0  0  0  0  0  0  0  0  0  0  0  0
    9.2672   -8.1824   -4.7882 H   0  0  0  0  0  0  0  0  0  0  0  0
   10.4235   -6.1079   -6.7449 H   0  0  0  0  0  0  0  0  0  0  0  0
   11.3436   -7.1203   -5.6088 H   0  0  0  0  0  0  0  0  0  0  0  0
   10.6036   -4.5536   -4.9238 H   0  0  0  0  0  0  0  0  0  0  0  0
   10.5395   -5.8602   -3.6955 H   0  0  0  0  0  0  0  0  0  0  0  0
    6.9086   -1.1657   -6.4246 H   0  0  0  0  0  0  0  0  0  0  0  0
    6.3980    0.7204   -7.9763 H   0  0  0  0  0  0  0  0  0  0  0  0
    8.0550    2.5764   -8.2391 H   0  0  0  0  0  0  0  0  0  0  0  0
   10.2073    2.4970   -7.0107 H   0  0  0  0  0  0  0  0  0  0  0  0
   11.7299    1.4741   -5.5346 H   0  0  0  0  0  0  0  0  0  0  0  0
   11.7032   -0.3085   -5.6795 H   0  0  0  0  0  0  0  0  0  0  0  0
   11.0450    0.4661   -4.2375 H   0  0  0  0  0  0  0  0  0  0  0  0
    3.8609    0.2237   -1.2987 H   0  0  0  0  0  0  0  0  0  0  0  0
  1  2  1  0
  1 38  1  0
  1 39  1  0
  1 40  1  0
  2  3  1  0
  3  4  2  0
  3 37  1  0
  4  5  1  0
  4 41  1  0
  5  6  2  0
  5 42  1  0
  6  7  1  0
  6 43  1  0
  7  8  1  0
  7 37  2  0
  8  9  2  0
  8 10  1  0
 10 11  1  0
 10 15  1  0
 11 12  1  0
 11 44  1  0
 11 45  1  0
 12 13  1  0
 12 46  1  0
 12 47  1  0
 13 14  1  0
 13 16  1  1
 13 27  1  0
 14 15  1  0
 14 48  1  0
 14 49  1  0
 15 50  1  0
 15 51  1  0
 16 17  1  0
 17 18  1  0
 17 52  1  0
 17 53  1  0
 18 19  1  1
 18 20  1  0
 18 27  1  0
 20 21  2  0
 20 22  1  0
 22 23  1  0
 22 26  1  0
 23 24  1  0
 23 54  1  0
 23 55  1  0
 24 25  1  0
 24 56  1  0
 24 57  1  0
 25 26  1  0
 25 58  1  0
 25 59  1  0
 26 60  1  0
 26 61  1  0
 27 28  1  0
 28 29  2  0
 28 30  1  0
 30 31  2  0
 30 35  1  0
 31 32  1  0
 31 62  1  0
 32 33  2  0
 32 63  1  0
 33 34  1  0
 33 64  1  0
 34 35  2  0
 34 65  1  0
 35 36  1  0
 36 66  1  0
 36 67  1  0
 36 68  1  0
 37 69  1  0
M  END

