
     RDKit          3D

 34 36  0  0  0  0  0  0  0  0999 V2000
    1.1874    0.1246   -0.1191 C   0  0  0  0  0  0  0  0  0  0  0  0
    2.6918    0.1055   -0.1065 C   0  0  0  0  0  0  0  0  0  0  0  0
    3.3339    1.2834   -0.1647 N   0  0  0  0  0  0  0  0  0  0  0  0
    4.6635    1.2392   -0.1524 C   0  0  0  0  0  0  0  0  0  0  0  0
    5.3935    0.0471   -0.0775 C   0  0  0  0  0  0  0  0  0  0  0  0
    4.6270   -1.1322   -0.0222 C   0  0  0  0  0  0  0  0  0  0  0  0
    3.2890   -1.0883   -0.0367 N   0  0  0  0  0  0  0  0  0  0  0  0
    5.2745   -2.4936    0.0883 C   0  0  0  0  0  0  0  0  0  0  0  0
    6.7628   -2.4841   -0.2725 C   0  0  0  0  0  0  0  0  0  0  0  0
    7.4720   -1.3094    0.4041 C   0  0  0  0  0  0  0  0  0  0  0  0
    6.9124    0.0405   -0.0868 C   0  0  1  0  0  0  0  0  0  0  0  0
    7.3785    0.3983   -1.4262 N   0  0  0  0  0  0  0  0  0  0  0  0
    8.5936    0.9798   -1.6828 C   0  0  0  0  0  0  0  0  0  0  0  0
    8.9853    1.2849   -3.0129 C   0  0  0  0  0  0  0  0  0  0  0  0
   10.2142    1.8886   -3.2250 C   0  0  0  0  0  0  0  0  0  0  0  0
   11.0280    2.1779   -2.1193 C   0  0  0  0  0  0  0  0  0  0  0  0
   12.7290    3.0039   -2.3450 Br  0  0  0  0  0  0  0  0  0  0  0  0
   10.5649    1.8425   -0.8479 C   0  0  0  0  0  0  0  0  0  0  0  0
    9.3848    1.2572   -0.6372 N   0  0  0  0  0  0  0  0  0  0  0  0
    0.8185    1.1538   -0.2083 H   0  0  0  0  0  0  0  0  0  0  0  0
    0.7944   -0.3283    0.8054 H   0  0  0  0  0  0  0  0  0  0  0  0
    0.8057   -0.4818   -0.9558 H   0  0  0  0  0  0  0  0  0  0  0  0
    5.1914    2.2010   -0.2009 H   0  0  0  0  0  0  0  0  0  0  0  0
    4.6964   -3.2021   -0.5254 H   0  0  0  0  0  0  0  0  0  0  0  0
    5.1432   -2.8332    1.1329 H   0  0  0  0  0  0  0  0  0  0  0  0
    6.8842   -2.3998   -1.3675 H   0  0  0  0  0  0  0  0  0  0  0  0
    7.2275   -3.4404    0.0146 H   0  0  0  0  0  0  0  0  0  0  0  0
    8.5570   -1.3257    0.2255 H   0  0  0  0  0  0  0  0  0  0  0  0
    7.3300   -1.3711    1.4981 H   0  0  0  0  0  0  0  0  0  0  0  0
    7.2851    0.8296    0.5845 H   0  0  0  0  0  0  0  0  0  0  0  0
    6.7957    0.1553   -2.2159 H   0  0  0  0  0  0  0  0  0  0  0  0
    8.3278    1.0514   -3.8541 H   0  0  0  0  0  0  0  0  0  0  0  0
   10.5440    2.1366   -4.2359 H   0  0  0  0  0  0  0  0  0  0  0  0
   11.1777    2.0537    0.0353 H   0  0  0  0  0  0  0  0  0  0  0  0
  1  2  1  0
  1 20  1  0
  1 21  1  0
  1 22  1  0
  2  3  2  0
  2  7  1  0
  3  4  1  0
  4  5  2  0
  4 23  1  0
  5  6  1  0
  5 11  1  0
  6  7  2  0
  6  8  1  0
  8  9  1  0
  8 24  1  0
  8 25  1  0
  9 10  1  0
  9 26  1  0
  9 27  1  0
 10 11  1  0
 10 28  1  0
 10 29  1  0
 11 12  1  0
 11 30  1  1
 12 13  1  0
 12 31  1  0
 13 14  2  0
 13 19  1  0
 14 15  1  0
 14 32  1  0
 15 16  2  0
 15 33  1  0
 16 17  1  0
 16 18  1  0
 18 19  2  0
 18 34  1  0
M  END

