
     RDKit          3D

 59 60  0  0  0  0  0  0  0  0999 V2000
    4.2123   -1.2216   -2.2996 C   0  0  0  0  0  0  0  0  0  0  0  0
    5.4804   -2.0500   -2.4990 C   0  0  0  0  0  0  0  0  0  0  0  0
    6.8051   -1.3334   -2.2037 C   0  0  0  0  0  0  0  0  0  0  0  0
    7.0351   -0.9360   -0.8025 N   0  0  0  0  0  0  0  0  0  0  0  0
    7.2994    0.4811   -0.5336 C   0  0  0  0  0  0  0  0  0  0  0  0
    6.0600    1.3845   -0.4678 C   0  0  0  0  0  0  0  0  0  0  0  0
    5.1480    1.1314    0.7323 C   0  0  0  0  0  0  0  0  0  0  0  0
    7.3221   -1.9476    0.0797 C   0  0  0  0  0  0  0  0  0  0  0  0
    7.2941   -3.1225   -0.2604 O   0  0  0  0  0  0  0  0  0  0  0  0
    7.6838   -1.5691    1.5359 C   0  0  0  0  0  0  0  0  0  0  0  0
    7.8290   -2.7437    2.3584 N   0  0  0  0  0  0  0  0  0  0  0  0
    6.6037   -3.3943    2.7825 C   0  0  0  0  0  0  0  0  0  0  0  0
    9.0908   -3.2011    2.6980 C   0  0  0  0  0  0  0  0  0  0  0  0
   10.0467   -2.2701    2.8366 N   0  0  0  0  0  0  0  0  0  0  0  0
   11.2438   -2.6451    3.2848 C   0  0  0  0  0  0  0  0  0  0  0  0
   12.2998   -1.5981    3.4136 C   0  0  0  0  0  0  0  0  0  0  0  0
   12.0278   -0.2554    3.1094 C   0  0  0  0  0  0  0  0  0  0  0  0
   13.0206    0.7178    3.2263 C   0  0  0  0  0  0  0  0  0  0  0  0
   14.3035    0.3598    3.6526 C   0  0  0  0  0  0  0  0  0  0  0  0
   15.3939    1.3900    3.7966 C   0  0  1  0  0  0  0  0  0  0  0  0
   14.9970    2.6148    3.4093 F   0  0  0  0  0  0  0  0  0  0  0  0
   15.8137    1.4931    5.0733 F   0  0  0  0  0  0  0  0  0  0  0  0
   16.4778    1.0707    3.0623 F   0  0  0  0  0  0  0  0  0  0  0  0
   14.5859   -0.9784    3.9623 C   0  0  0  0  0  0  0  0  0  0  0  0
   13.5928   -1.9464    3.8448 C   0  0  0  0  0  0  0  0  0  0  0  0
   11.5678   -3.8896    3.6467 N   0  0  0  0  0  0  0  0  0  0  0  0
   10.6597   -4.8517    3.4308 C   0  0  0  0  0  0  0  0  0  0  0  0
   11.0929   -6.2586    3.7611 C   0  0  0  0  0  0  0  0  0  0  0  0
    9.3903   -4.5810    2.8881 C   0  0  0  0  0  0  0  0  0  0  0  0
    8.4893   -5.6902    2.4015 C   0  0  0  0  0  0  0  0  0  0  0  0
    3.3179   -1.8052   -2.5703 H   0  0  0  0  0  0  0  0  0  0  0  0
    4.2130   -0.3133   -2.9264 H   0  0  0  0  0  0  0  0  0  0  0  0
    4.0890   -0.9055   -1.2522 H   0  0  0  0  0  0  0  0  0  0  0  0
    5.5346   -2.3849   -3.5503 H   0  0  0  0  0  0  0  0  0  0  0  0
    5.4430   -2.9656   -1.8904 H   0  0  0  0  0  0  0  0  0  0  0  0
    6.8778   -0.4190   -2.8136 H   0  0  0  0  0  0  0  0  0  0  0  0
    7.6291   -2.0008   -2.5071 H   0  0  0  0  0  0  0  0  0  0  0  0
    7.9730    0.8555   -1.3250 H   0  0  0  0  0  0  0  0  0  0  0  0
    7.8638    0.5728    0.4039 H   0  0  0  0  0  0  0  0  0  0  0  0
    5.4869    1.2829   -1.4044 H   0  0  0  0  0  0  0  0  0  0  0  0
    6.4176    2.4289   -0.4459 H   0  0  0  0  0  0  0  0  0  0  0  0
    4.7932    0.0887    0.7572 H   0  0  0  0  0  0  0  0  0  0  0  0
    4.2594    1.7810    0.7007 H   0  0  0  0  0  0  0  0  0  0  0  0
    5.6696    1.3316    1.6832 H   0  0  0  0  0  0  0  0  0  0  0  0
    6.9137   -0.8991    1.9552 H   0  0  0  0  0  0  0  0  0  0  0  0
    8.6347   -1.0191    1.5575 H   0  0  0  0  0  0  0  0  0  0  0  0
    5.8912   -2.6211    3.1217 H   0  0  0  0  0  0  0  0  0  0  0  0
    6.7975   -4.0512    3.6391 H   0  0  0  0  0  0  0  0  0  0  0  0
    6.1180   -3.9763    1.9822 H   0  0  0  0  0  0  0  0  0  0  0  0
   11.0234    0.0161    2.7840 H   0  0  0  0  0  0  0  0  0  0  0  0
   12.8002    1.7594    2.9878 H   0  0  0  0  0  0  0  0  0  0  0  0
   15.5874   -1.2612    4.2948 H   0  0  0  0  0  0  0  0  0  0  0  0
   13.7956   -2.9909    4.0826 H   0  0  0  0  0  0  0  0  0  0  0  0
   12.0164   -6.2210    4.3529 H   0  0  0  0  0  0  0  0  0  0  0  0
   11.3008   -6.8336    2.8420 H   0  0  0  0  0  0  0  0  0  0  0  0
   10.3217   -6.8104    4.3204 H   0  0  0  0  0  0  0  0  0  0  0  0
    9.0858   -6.5547    2.0765 H   0  0  0  0  0  0  0  0  0  0  0  0
    7.9072   -5.3480    1.5346 H   0  0  0  0  0  0  0  0  0  0  0  0
    7.7825   -6.0601    3.1640 H   0  0  0  0  0  0  0  0  0  0  0  0
  1  2  1  0
  1 31  1  0
  1 32  1  0
  1 33  1  0
  2  3  1  0
  2 34  1  0
  2 35  1  0
  3  4  1  0
  3 36  1  0
  3 37  1  0
  4  5  1  0
  4  8  1  0
  5  6  1  0
  5 38  1  0
  5 39  1  0
  6  7  1  0
  6 40  1  0
  6 41  1  0
  7 42  1  0
  7 43  1  0
  7 44  1  0
  8  9  2  0
  8 10  1  0
 10 11  1  0
 10 45  1  0
 10 46  1  0
 11 12  1  0
 11 13  1  0
 12 47  1  0
 12 48  1  0
 12 49  1  0
 13 14  2  0
 13 29  1  0
 14 15  1  0
 15 16  1  0
 15 26  2  0
 16 17  2  0
 16 25  1  0
 17 18  1  0
 17 50  1  0
 18 19  2  0
 18 51  1  0
 19 20  1  0
 19 24  1  0
 20 21  1  6
 20 22  1  0
 20 23  1  0
 24 25  2  0
 24 52  1  0
 25 53  1  0
 26 27  1  0
 27 28  1  0
 27 29  2  0
 28 54  1  0
 28 55  1  0
 28 56  1  0
 29 30  1  0
 30 57  1  0
 30 58  1  0
 30 59  1  0
M  END

