
     RDKit          3D

 35 35  0  0  0  0  0  0  0  0999 V2000
    0.8326   -0.3814   -0.6653 C   0  0  0  0  0  0  0  0  0  0  0  0
    2.0650    0.1005    0.1133 C   0  0  1  0  0  0  0  0  0  0  0  0
    3.1910   -0.9562    0.0926 C   0  0  0  0  0  0  0  0  0  0  0  0
    4.0059   -0.9225   -1.1757 C   0  0  0  0  0  0  0  0  0  0  0  0
    3.9827    0.1020   -2.0394 C   0  0  0  0  0  0  0  0  0  0  0  0
    3.1336    1.3321   -1.8482 C   0  0  0  0  0  0  0  0  0  0  0  0
    2.5800    1.4616   -0.4154 C   0  0  2  0  0  0  0  0  0  0  0  0
    3.6163    2.0767    0.5284 C   0  0  0  0  0  0  0  0  0  0  0  0
    3.8759    3.4056    0.1300 O   0  0  0  0  0  0  0  0  0  0  0  0
    4.8722    4.0566    0.8810 C   0  0  0  0  0  0  0  0  0  0  0  0
    5.0214    5.4888    0.3843 C   0  0  0  0  0  0  0  0  0  0  0  0
    3.7470    6.3249    0.5641 C   0  0  0  0  0  0  0  0  0  0  0  0
    3.9088    7.7294    0.0075 C   0  0  0  0  0  0  0  0  0  0  0  0
    2.2813    8.8201    0.2431 Br  0  0  0  0  0  0  0  0  0  0  0  0
    0.4076   -1.2867   -0.2025 H   0  0  0  0  0  0  0  0  0  0  0  0
    1.0806   -0.6320   -1.7089 H   0  0  0  0  0  0  0  0  0  0  0  0
    0.0437    0.3882   -0.6808 H   0  0  0  0  0  0  0  0  0  0  0  0
    1.7523    0.2457    1.1629 H   0  0  0  0  0  0  0  0  0  0  0  0
    2.7583   -1.9632    0.2314 H   0  0  0  0  0  0  0  0  0  0  0  0
    3.8650   -0.8188    0.9603 H   0  0  0  0  0  0  0  0  0  0  0  0
    4.6538   -1.7830   -1.3779 H   0  0  0  0  0  0  0  0  0  0  0  0
    4.5996    0.0551   -2.9441 H   0  0  0  0  0  0  0  0  0  0  0  0
    2.3015    1.3174   -2.5773 H   0  0  0  0  0  0  0  0  0  0  0  0
    3.7119    2.2384   -2.0926 H   0  0  0  0  0  0  0  0  0  0  0  0
    1.7326    2.1687   -0.4311 H   0  0  0  0  0  0  0  0  0  0  0  0
    4.5574    1.4896    0.5191 H   0  0  0  0  0  0  0  0  0  0  0  0
    3.2324    2.0607    1.5704 H   0  0  0  0  0  0  0  0  0  0  0  0
    5.8401    3.5205    0.7886 H   0  0  0  0  0  0  0  0  0  0  0  0
    4.6069    4.0530    1.9604 H   0  0  0  0  0  0  0  0  0  0  0  0
    5.3050    5.4592   -0.6825 H   0  0  0  0  0  0  0  0  0  0  0  0
    5.8649    5.9552    0.9234 H   0  0  0  0  0  0  0  0  0  0  0  0
    3.4870    6.3823    1.6350 H   0  0  0  0  0  0  0  0  0  0  0  0
    2.9095    5.8174    0.0619 H   0  0  0  0  0  0  0  0  0  0  0  0
    4.1047    7.7265   -1.0732 H   0  0  0  0  0  0  0  0  0  0  0  0
    4.7092    8.2889    0.5103 H   0  0  0  0  0  0  0  0  0  0  0  0
  1  2  1  0
  1 15  1  0
  1 16  1  0
  1 17  1  0
  2  3  1  0
  2  7  1  0
  2 18  1  1
  3  4  1  0
  3 19  1  0
  3 20  1  0
  4  5  2  0
  4 21  1  0
  5  6  1  0
  5 22  1  0
  6  7  1  0
  6 23  1  0
  6 24  1  0
  7  8  1  0
  7 25  1  6
  8  9  1  0
  8 26  1  0
  8 27  1  0
  9 10  1  0
 10 11  1  0
 10 28  1  0
 10 29  1  0
 11 12  1  0
 11 30  1  0
 11 31  1  0
 12 13  1  0
 12 32  1  0
 12 33  1  0
 13 14  1  0
 13 34  1  0
 13 35  1  0
M  END

