
     RDKit          3D

 37 39  0  0  0  0  0  0  0  0999 V2000
    1.6251    1.9853    1.2683 C   0  0  0  0  0  0  0  0  0  0  0  0
    2.4448    1.0727    0.3546 C   0  0  0  0  0  0  0  0  0  0  0  0
    3.1473   -0.0944    1.0504 C   0  0  1  0  0  0  0  0  0  0  0  0
    3.4325   -1.2466    0.0547 C   0  0  0  0  0  0  0  0  0  0  0  0
    3.0218   -1.2690   -1.0936 O   0  0  0  0  0  0  0  0  0  0  0  0
    4.1670   -2.2386    0.6126 N   0  0  0  0  0  0  0  0  0  0  0  0
    4.6199   -3.4305   -0.1079 C   0  0  0  0  0  0  0  0  0  0  0  0
    5.2384   -4.2918    1.0039 C   0  0  0  0  0  0  0  0  0  0  0  0
    5.7372   -3.2653    2.0346 C   0  0  0  0  0  0  0  0  0  0  0  0
    4.6591   -2.1747    1.9902 C   0  0  1  0  0  0  0  0  0  0  0  0
    5.1608   -0.7717    2.3356 C   0  0  0  0  0  0  0  0  0  0  0  0
    6.1385   -0.5887    3.0344 O   0  0  0  0  0  0  0  0  0  0  0  0
    4.4098    0.2415    1.7739 N   0  0  0  0  0  0  0  0  0  0  0  0
    4.8447    1.5878    2.0000 C   0  0  0  0  0  0  0  0  0  0  0  0
    5.4584    2.3209    0.9778 C   0  0  0  0  0  0  0  0  0  0  0  0
    5.8919    3.6247    1.2134 C   0  0  0  0  0  0  0  0  0  0  0  0
    5.7395    4.2082    2.4761 C   0  0  0  0  0  0  0  0  0  0  0  0
    6.3014    5.8353    2.7214 Cl  0  0  0  0  0  0  0  0  0  0  0  0
    5.1463    3.4656    3.5119 C   0  0  0  0  0  0  0  0  0  0  0  0
    4.9226    4.1939    5.2516 Br  0  0  0  0  0  0  0  0  0  0  0  0
    4.7033    2.1635    3.2677 C   0  0  0  0  0  0  0  0  0  0  0  0
    1.0885    2.7404    0.6729 H   0  0  0  0  0  0  0  0  0  0  0  0
    2.2445    2.5232    2.0008 H   0  0  0  0  0  0  0  0  0  0  0  0
    0.8688    1.4096    1.8282 H   0  0  0  0  0  0  0  0  0  0  0  0
    3.1723    1.6543   -0.2317 H   0  0  0  0  0  0  0  0  0  0  0  0
    1.7864    0.6056   -0.3924 H   0  0  0  0  0  0  0  0  0  0  0  0
    2.4368   -0.5075    1.7960 H   0  0  0  0  0  0  0  0  0  0  0  0
    5.3603   -3.1506   -0.8784 H   0  0  0  0  0  0  0  0  0  0  0  0
    3.7774   -3.9110   -0.6282 H   0  0  0  0  0  0  0  0  0  0  0  0
    6.0381   -4.9478    0.6307 H   0  0  0  0  0  0  0  0  0  0  0  0
    4.4652   -4.9367    1.4535 H   0  0  0  0  0  0  0  0  0  0  0  0
    6.7025   -2.8315    1.7314 H   0  0  0  0  0  0  0  0  0  0  0  0
    5.8691   -3.6792    3.0432 H   0  0  0  0  0  0  0  0  0  0  0  0
    3.8417   -2.4142    2.7036 H   0  0  0  0  0  0  0  0  0  0  0  0
    5.6074    1.8651   -0.0026 H   0  0  0  0  0  0  0  0  0  0  0  0
    6.3662    4.2042    0.4200 H   0  0  0  0  0  0  0  0  0  0  0  0
    4.2493    1.5898    4.0756 H   0  0  0  0  0  0  0  0  0  0  0  0
  1  2  1  0
  1 22  1  0
  1 23  1  0
  1 24  1  0
  2  3  1  0
  2 25  1  0
  2 26  1  0
  3  4  1  0
  3 13  1  0
  3 27  1  1
  4  5  2  0
  4  6  1  0
  6  7  1  0
  6 10  1  0
  7  8  1  0
  7 28  1  0
  7 29  1  0
  8  9  1  0
  8 30  1  0
  8 31  1  0
  9 10  1  0
  9 32  1  0
  9 33  1  0
 10 11  1  0
 10 34  1  1
 11 12  2  0
 11 13  1  0
 13 14  1  0
 14 15  2  0
 14 21  1  0
 15 16  1  0
 15 35  1  0
 16 17  2  0
 16 36  1  0
 17 18  1  0
 17 19  1  0
 19 20  1  0
 19 21  2  0
 21 37  1  0
M  END

