
     RDKit          3D

 28 28  0  0  0  0  0  0  0  0999 V2000
    1.1276    0.2037    0.3851 C   0  0  0  0  0  0  0  0  0  0  0  0
    2.5846    0.1069    0.0142 C   0  0  0  0  0  0  0  0  0  0  0  0
    3.3900    1.2560   -0.0250 C   0  0  0  0  0  0  0  0  0  0  0  0
    4.7497    1.2171   -0.3628 C   0  0  0  0  0  0  0  0  0  0  0  0
    5.5660    2.4931   -0.4333 C   0  0  0  0  0  0  0  0  0  0  0  0
    5.1688    3.4676    0.5681 N   0  0  0  0  0  0  0  0  0  0  0  0
    5.8917    4.7277    0.5097 C   0  0  0  0  0  0  0  0  0  0  0  0
    5.3358    5.7248    1.5260 C   0  0  0  0  0  0  0  0  0  0  0  0
    5.3460    5.1621    2.8776 N   0  0  0  0  0  0  0  0  0  0  0  0
    5.3248   -0.0230   -0.6675 C   0  0  0  0  0  0  0  0  0  0  0  0
    4.5555   -1.1878   -0.6439 C   0  0  0  0  0  0  0  0  0  0  0  0
    3.2027   -1.1155   -0.3067 C   0  0  0  0  0  0  0  0  0  0  0  0
    2.1913   -2.7428   -0.2811 Br  0  0  0  0  0  0  0  0  0  0  0  0
    0.8449    1.2460    0.5907 H   0  0  0  0  0  0  0  0  0  0  0  0
    0.9005   -0.4006    1.2788 H   0  0  0  0  0  0  0  0  0  0  0  0
    0.4822   -0.1783   -0.4225 H   0  0  0  0  0  0  0  0  0  0  0  0
    2.9504    2.2243    0.2255 H   0  0  0  0  0  0  0  0  0  0  0  0
    5.4189    2.9553   -1.4286 H   0  0  0  0  0  0  0  0  0  0  0  0
    6.6474    2.2315   -0.3877 H   0  0  0  0  0  0  0  0  0  0  0  0
    5.2992    3.0653    1.4974 H   0  0  0  0  0  0  0  0  0  0  0  0
    5.7841    5.1504   -0.5052 H   0  0  0  0  0  0  0  0  0  0  0  0
    6.9829    4.5995    0.6902 H   0  0  0  0  0  0  0  0  0  0  0  0
    4.3278    6.0466    1.1925 H   0  0  0  0  0  0  0  0  0  0  0  0
    5.9777    6.6211    1.5125 H   0  0  0  0  0  0  0  0  0  0  0  0
    4.4897    4.6325    3.0423 H   0  0  0  0  0  0  0  0  0  0  0  0
    5.3520    5.9024    3.5774 H   0  0  0  0  0  0  0  0  0  0  0  0
    6.3862   -0.0865   -0.9241 H   0  0  0  0  0  0  0  0  0  0  0  0
    5.0055   -2.1535   -0.8803 H   0  0  0  0  0  0  0  0  0  0  0  0
  1  2  1  0
  1 14  1  0
  1 15  1  0
  1 16  1  0
  2  3  2  0
  2 12  1  0
  3  4  1  0
  3 17  1  0
  4  5  1  0
  4 10  2  0
  5  6  1  0
  5 18  1  0
  5 19  1  0
  6  7  1  0
  6 20  1  0
  7  8  1  0
  7 21  1  0
  7 22  1  0
  8  9  1  0
  8 23  1  0
  8 24  1  0
  9 25  1  0
  9 26  1  0
 10 11  1  0
 10 27  1  0
 11 12  2  0
 11 28  1  0
 12 13  1  0
M  END

