
     RDKit          3D

 36 36  0  0  0  0  0  0  0  0999 V2000
    1.0258    0.3575    0.0823 C   0  0  0  0  0  0  0  0  0  0  0  0
    2.5377    0.1637    0.1306 C   0  0  1  0  0  0  0  0  0  0  0  0
    3.1849    1.2549    0.7832 O   0  0  0  0  0  0  0  0  0  0  0  0
    2.9504   -1.1603    0.7781 C   0  0  0  0  0  0  0  0  0  0  0  0
    4.3935   -1.2966    0.7519 N   0  0  0  0  0  0  0  0  0  0  0  0
    4.9463   -2.4103    1.5087 C   0  0  1  0  0  0  0  0  0  0  0  0
    4.5651   -3.7301    0.8437 C   0  0  0  0  0  0  0  0  0  0  0  0
    4.0898   -4.8178    1.5875 C   0  0  0  0  0  0  0  0  0  0  0  0
    3.7757   -6.0335    0.9688 C   0  0  0  0  0  0  0  0  0  0  0  0
    3.9316   -6.1645   -0.4058 C   0  0  0  0  0  0  0  0  0  0  0  0
    3.6335   -7.3134   -1.0220 F   0  0  0  0  0  0  0  0  0  0  0  0
    4.3960   -5.0808   -1.1605 C   0  0  0  0  0  0  0  0  0  0  0  0
    4.5281   -5.2224   -2.4843 F   0  0  0  0  0  0  0  0  0  0  0  0
    4.7075   -3.8753   -0.5461 C   0  0  0  0  0  0  0  0  0  0  0  0
    6.4894   -2.2521    1.6496 C   0  0  1  0  0  0  0  0  0  0  0  0
    6.8745   -0.9152    2.3023 C   0  0  0  0  0  0  0  0  0  0  0  0
    7.1153   -3.4138    2.4313 C   0  0  0  0  0  0  0  0  0  0  0  0
    0.7813    1.3296   -0.3715 H   0  0  0  0  0  0  0  0  0  0  0  0
    0.5911    0.3337    1.0974 H   0  0  0  0  0  0  0  0  0  0  0  0
    0.5374   -0.4345   -0.5073 H   0  0  0  0  0  0  0  0  0  0  0  0
    2.9444    0.1757   -0.8942 H   0  0  0  0  0  0  0  0  0  0  0  0
    2.7851    1.3520    1.6597 H   0  0  0  0  0  0  0  0  0  0  0  0
    2.4792   -1.9984    0.2364 H   0  0  0  0  0  0  0  0  0  0  0  0
    2.5330   -1.1903    1.8155 H   0  0  0  0  0  0  0  0  0  0  0  0
    4.7936   -0.4127    1.0583 H   0  0  0  0  0  0  0  0  0  0  0  0
    4.5345   -2.4431    2.5459 H   0  0  0  0  0  0  0  0  0  0  0  0
    3.9596   -4.7188    2.6680 H   0  0  0  0  0  0  0  0  0  0  0  0
    3.4033   -6.8881    1.5376 H   0  0  0  0  0  0  0  0  0  0  0  0
    5.0440   -3.0354   -1.1568 H   0  0  0  0  0  0  0  0  0  0  0  0
    6.9025   -2.2621    0.6248 H   0  0  0  0  0  0  0  0  0  0  0  0
    6.4004   -0.8045    3.2932 H   0  0  0  0  0  0  0  0  0  0  0  0
    6.5999   -0.0418    1.6909 H   0  0  0  0  0  0  0  0  0  0  0  0
    7.9646   -0.8625    2.4524 H   0  0  0  0  0  0  0  0  0  0  0  0
    6.7222   -3.4579    3.4620 H   0  0  0  0  0  0  0  0  0  0  0  0
    8.2071   -3.2861    2.5014 H   0  0  0  0  0  0  0  0  0  0  0  0
    6.9228   -4.3871    1.9574 H   0  0  0  0  0  0  0  0  0  0  0  0
  1  2  1  0
  1 18  1  0
  1 19  1  0
  1 20  1  0
  2  3  1  0
  2  4  1  0
  2 21  1  6
  3 22  1  0
  4  5  1  0
  4 23  1  0
  4 24  1  0
  5  6  1  0
  5 25  1  0
  6  7  1  0
  6 15  1  0
  6 26  1  1
  7  8  2  0
  7 14  1  0
  8  9  1  0
  8 27  1  0
  9 10  2  0
  9 28  1  0
 10 11  1  0
 10 12  1  0
 12 13  1  0
 12 14  2  0
 14 29  1  0
 15 16  1  0
 15 17  1  0
 15 30  1  6
 16 31  1  0
 16 32  1  0
 16 33  1  0
 17 34  1  0
 17 35  1  0
 17 36  1  0
M  END

