
     RDKit          3D

 56 59  0  0  0  0  0  0  0  0999 V2000
    1.2462    0.3458    0.5897 C   0  0  0  0  0  0  0  0  0  0  0  0
    2.6524    0.2099    0.1104 C   0  0  0  0  0  0  0  0  0  0  0  0
    3.6315    1.1620   -0.1818 C   0  0  0  0  0  0  0  0  0  0  0  0
    3.4935    2.6404   -0.0392 C   0  0  0  0  0  0  0  0  0  0  0  0
    2.5422    3.0959    0.5924 O   0  0  0  0  0  0  0  0  0  0  0  0
    4.4775    3.4453   -0.5752 N   0  0  0  0  0  0  0  0  0  0  0  0
    5.1642    3.1376   -1.8293 C   0  0  0  0  0  0  0  0  0  0  0  0
    4.6433    3.9649   -3.0130 C   0  0  0  0  0  0  0  0  0  0  0  0
    4.9117    3.6493   -4.1583 O   0  0  0  0  0  0  0  0  0  0  0  0
    3.8890    5.0642   -2.7064 N   0  0  0  0  0  0  0  0  0  0  0  0
    3.5495    5.5694   -1.3776 C   0  0  2  0  0  0  0  0  0  0  0  0
    3.6806    7.0969   -1.3075 C   0  0  0  0  0  0  0  0  0  0  0  0
    3.4284    7.6118    0.1152 C   0  0  0  0  0  0  0  0  0  0  0  0
    4.3498    6.9232    1.1320 C   0  0  0  0  0  0  0  0  0  0  0  0
    4.2034    5.3955    1.0776 C   0  0  0  0  0  0  0  0  0  0  0  0
    4.4710    4.8992   -0.3477 C   0  0  1  0  0  0  0  0  0  0  0  0
    4.7795    0.5049   -0.5251 N   0  0  0  0  0  0  0  0  0  0  0  0
    4.5863   -0.7657   -0.4806 N   0  0  0  0  0  0  0  0  0  0  0  0
    3.2952   -0.9749   -0.1014 N   0  0  0  0  0  0  0  0  0  0  0  0
    2.8252   -2.3118    0.0537 C   0  0  0  0  0  0  0  0  0  0  0  0
    3.6247   -3.2439    0.7340 C   0  0  0  0  0  0  0  0  0  0  0  0
    3.1941   -4.5559    0.8743 C   0  0  0  0  0  0  0  0  0  0  0  0
    1.9539   -4.9692    0.3481 C   0  0  0  0  0  0  0  0  0  0  0  0
    1.6255   -6.2620    0.5672 O   0  0  0  0  0  0  0  0  0  0  0  0
    0.4193   -6.8406    0.0456 C   0  0  1  0  0  0  0  0  0  0  0  0
    0.5941   -7.2140   -1.4250 C   0  0  0  0  0  0  0  0  0  0  0  0
    0.1161   -8.0435    0.9289 C   0  0  0  0  0  0  0  0  0  0  0  0
    1.1615   -4.0344   -0.3393 C   0  0  0  0  0  0  0  0  0  0  0  0
    1.6039   -2.7164   -0.4884 C   0  0  0  0  0  0  0  0  0  0  0  0
    1.1380    1.3200    1.0805 H   0  0  0  0  0  0  0  0  0  0  0  0
    0.9841   -0.4629    1.2881 H   0  0  0  0  0  0  0  0  0  0  0  0
    0.5284    0.3111   -0.2471 H   0  0  0  0  0  0  0  0  0  0  0  0
    5.0692    2.0809   -2.0913 H   0  0  0  0  0  0  0  0  0  0  0  0
    6.2464    3.3331   -1.7314 H   0  0  0  0  0  0  0  0  0  0  0  0
    3.5257    5.5581   -3.5175 H   0  0  0  0  0  0  0  0  0  0  0  0
    2.5094    5.2903   -1.1226 H   0  0  0  0  0  0  0  0  0  0  0  0
    2.9788    7.5643   -2.0204 H   0  0  0  0  0  0  0  0  0  0  0  0
    4.6980    7.3757   -1.6362 H   0  0  0  0  0  0  0  0  0  0  0  0
    2.3757    7.4214    0.3917 H   0  0  0  0  0  0  0  0  0  0  0  0
    3.5660    8.7051    0.1474 H   0  0  0  0  0  0  0  0  0  0  0  0
    4.1263    7.2804    2.1505 H   0  0  0  0  0  0  0  0  0  0  0  0
    5.3976    7.2095    0.9253 H   0  0  0  0  0  0  0  0  0  0  0  0
    3.1957    5.0992    1.3944 H   0  0  0  0  0  0  0  0  0  0  0  0
    4.9138    4.9089    1.7657 H   0  0  0  0  0  0  0  0  0  0  0  0
    5.5005    5.2174   -0.5980 H   0  0  0  0  0  0  0  0  0  0  0  0
    4.5859   -2.9266    1.1404 H   0  0  0  0  0  0  0  0  0  0  0  0
    3.8017   -5.2939    1.4012 H   0  0  0  0  0  0  0  0  0  0  0  0
   -0.4018   -6.1084    0.1518 H   0  0  0  0  0  0  0  0  0  0  0  0
    1.4040   -7.9523   -1.5346 H   0  0  0  0  0  0  0  0  0  0  0  0
    0.8454   -6.3385   -2.0419 H   0  0  0  0  0  0  0  0  0  0  0  0
   -0.3337   -7.6552   -1.8219 H   0  0  0  0  0  0  0  0  0  0  0  0
    0.9376   -8.7750    0.8750 H   0  0  0  0  0  0  0  0  0  0  0  0
   -0.8122   -8.5367    0.6023 H   0  0  0  0  0  0  0  0  0  0  0  0
   -0.0014   -7.7344    1.9781 H   0  0  0  0  0  0  0  0  0  0  0  0
    0.2056   -4.3185   -0.7781 H   0  0  0  0  0  0  0  0  0  0  0  0
    0.9938   -2.0095   -1.0525 H   0  0  0  0  0  0  0  0  0  0  0  0
  1  2  1  0
  1 30  1  0
  1 31  1  0
  1 32  1  0
  2  3  2  0
  2 19  1  0
  3  4  1  0
  3 17  1  0
  4  5  2  0
  4  6  1  0
  6  7  1  0
  6 16  1  0
  7  8  1  0
  7 33  1  0
  7 34  1  0
  8  9  2  0
  8 10  1  0
 10 11  1  0
 10 35  1  0
 11 12  1  0
 11 16  1  0
 11 36  1  1
 12 13  1  0
 12 37  1  0
 12 38  1  0
 13 14  1  0
 13 39  1  0
 13 40  1  0
 14 15  1  0
 14 41  1  0
 14 42  1  0
 15 16  1  0
 15 43  1  0
 15 44  1  0
 16 45  1  6
 17 18  2  0
 18 19  1  0
 19 20  1  0
 20 21  2  0
 20 29  1  0
 21 22  1  0
 21 46  1  0
 22 23  2  0
 22 47  1  0
 23 24  1  0
 23 28  1  0
 24 25  1  0
 25 26  1  0
 25 27  1  0
 25 48  1  6
 26 49  1  0
 26 50  1  0
 26 51  1  0
 27 52  1  0
 27 53  1  0
 27 54  1  0
 28 29  2  0
 28 55  1  0
 29 56  1  0
M  END

