
     RDKit          3D

 43 44  0  0  0  0  0  0  0  0999 V2000
    4.9181   -2.3442    0.2298 C   0  0  0  0  0  0  0  0  0  0  0  0
    4.2834   -0.9772    0.1085 C   0  0  0  0  0  0  0  0  0  0  0  0
    5.0751    0.1667    0.1734 C   0  0  0  0  0  0  0  0  0  0  0  0
    4.5045    1.4466    0.0547 C   0  0  0  0  0  0  0  0  0  0  0  0
    5.0121    2.7925    0.0697 C   0  0  0  0  0  0  0  0  0  0  0  0
    3.9324    3.6260   -0.0997 C   0  0  0  0  0  0  0  0  0  0  0  0
    2.7798    2.8734   -0.2171 N   0  0  0  0  0  0  0  0  0  0  0  0
    1.8502    3.2435   -0.3622 H   0  0  0  0  0  0  0  0  0  0  0  0
    3.0972    1.5364   -0.1281 C   0  0  0  0  0  0  0  0  0  0  0  0
    2.2672    0.4114   -0.1900 C   0  0  0  0  0  0  0  0  0  0  0  0
    2.8681   -0.8443   -0.0763 C   0  0  0  0  0  0  0  0  0  0  0  0
    2.1228   -2.0490   -0.1291 N   0  0  0  0  0  0  0  0  0  0  0  0
    0.7919   -2.2399   -0.4230 C   0  0  0  0  0  0  0  0  0  0  0  0
   -0.0020   -1.3098   -0.5911 O   0  0  0  0  0  0  0  0  0  0  0  0
    0.4306   -3.5619   -0.5413 N   0  0  0  0  0  0  0  0  0  0  0  0
   -0.9451   -4.1102   -0.4594 C   0  0  1  0  0  0  0  0  0  0  0  0
   -0.8415   -5.5744   -0.9159 C   0  0  0  0  0  0  0  0  0  0  0  0
   -1.4438   -4.0430    0.9965 C   0  0  0  0  0  0  0  0  0  0  0  0
   -1.9341   -3.3365   -1.3667 C   0  0  0  0  0  0  0  0  0  0  0  0
   -1.4845   -3.1233   -2.8259 C   0  0  0  0  0  0  0  0  0  0  0  0
   -1.9638   -1.7983   -3.4196 C   0  0  0  0  0  0  0  0  0  0  0  0
   -2.6226   -1.7220   -4.4249 O   0  0  0  0  0  0  0  0  0  0  0  0
   -1.5919   -0.7009   -2.7431 O   0  0  0  0  0  0  0  0  0  0  0  0
    6.0062   -2.2578    0.3560 H   0  0  0  0  0  0  0  0  0  0  0  0
    4.7482   -2.9684   -0.6668 H   0  0  0  0  0  0  0  0  0  0  0  0
    4.5422   -2.9099    1.1031 H   0  0  0  0  0  0  0  0  0  0  0  0
    6.1542    0.0601    0.3148 H   0  0  0  0  0  0  0  0  0  0  0  0
    6.0476    3.1038    0.1900 H   0  0  0  0  0  0  0  0  0  0  0  0
    3.8907    4.7127   -0.1474 H   0  0  0  0  0  0  0  0  0  0  0  0
    1.1915    0.4923   -0.3199 H   0  0  0  0  0  0  0  0  0  0  0  0
    2.6681   -2.8824    0.0446 H   0  0  0  0  0  0  0  0  0  0  0  0
    1.1561   -4.2503   -0.3760 H   0  0  0  0  0  0  0  0  0  0  0  0
   -0.1384   -6.1413   -0.2815 H   0  0  0  0  0  0  0  0  0  0  0  0
   -0.4986   -5.6466   -1.9593 H   0  0  0  0  0  0  0  0  0  0  0  0
   -1.8223   -6.0667   -0.8413 H   0  0  0  0  0  0  0  0  0  0  0  0
   -0.7876   -4.6229    1.6655 H   0  0  0  0  0  0  0  0  0  0  0  0
   -2.4630   -4.4519    1.0813 H   0  0  0  0  0  0  0  0  0  0  0  0
   -1.4648   -3.0004    1.3486 H   0  0  0  0  0  0  0  0  0  0  0  0
   -2.1372   -2.3682   -0.8942 H   0  0  0  0  0  0  0  0  0  0  0  0
   -2.8875   -3.8893   -1.3510 H   0  0  0  0  0  0  0  0  0  0  0  0
   -1.8428   -3.9208   -3.4900 H   0  0  0  0  0  0  0  0  0  0  0  0
   -0.3821   -3.1246   -2.8767 H   0  0  0  0  0  0  0  0  0  0  0  0
   -1.0231   -0.9191   -1.9687 H   0  0  0  0  0  0  0  0  0  0  0  0
  1  2  1  0
  1 24  1  0
  1 25  1  0
  1 26  1  0
  2  3  2  0
  2 11  1  0
  3  4  1  0
  3 27  1  0
  4  5  1  0
  4  9  2  0
  5  6  2  0
  5 28  1  0
  6  7  1  0
  6 29  1  0
  7  8  1  0
  7  9  1  0
  9 10  1  0
 10 11  2  0
 10 30  1  0
 11 12  1  0
 12 13  1  0
 12 31  1  0
 13 14  2  0
 13 15  1  0
 16 15  1  1
 15 32  1  0
 16 17  1  0
 16 18  1  0
 16 19  1  0
 17 33  1  0
 17 34  1  0
 17 35  1  0
 18 36  1  0
 18 37  1  0
 18 38  1  0
 19 20  1  0
 19 39  1  0
 19 40  1  0
 20 21  1  0
 20 41  1  0
 20 42  1  0
 21 22  2  0
 21 23  1  0
 23 43  1  0
M  END

