
     RDKit          3D

 94106  0  0  0  0  0  0  0  0999 V2000
    1.0823   -0.2226   -0.3182 N   0  0  0  0  0  0  0  0  0  0  0  0
    2.2376   -0.1762   -0.2250 C   0  0  0  0  0  0  0  0  0  0  0  0
    3.6669   -0.1185   -0.1109 C   0  0  0  0  0  0  0  0  0  0  0  0
    4.3022    1.1473   -0.0686 C   0  0  0  0  0  0  0  0  0  0  0  0
    3.5162    2.3168   -0.0989 N   0  0  0  0  0  0  0  0  0  0  0  0
    2.6331    2.7300    0.9161 C   0  0  0  0  0  0  0  0  0  0  0  0
    2.3347    2.1277    2.1414 C   0  0  0  0  0  0  0  0  0  0  0  0
    1.4281    2.7673    2.9874 C   0  0  0  0  0  0  0  0  0  0  0  0
    0.8369    3.9865    2.6108 C   0  0  0  0  0  0  0  0  0  0  0  0
   -0.3953    4.8232    3.8022 Br  0  0  0  0  0  0  0  0  0  0  0  0
    1.1301    4.5925    1.3909 C   0  0  0  0  0  0  0  0  0  0  0  0
    2.0378    3.9568    0.5332 C   0  0  0  0  0  0  0  0  0  0  0  0
    2.5624    4.2922   -0.7775 C   0  0  0  0  0  0  0  0  0  0  0  0
    2.3186    5.3513   -1.6618 C   0  0  0  0  0  0  0  0  0  0  0  0
    2.9769    5.3515   -2.8901 C   0  0  0  0  0  0  0  0  0  0  0  0
    2.6712    6.7793   -4.1174 Br  0  0  0  0  0  0  0  0  0  0  0  0
    3.8573    4.3170   -3.2534 C   0  0  0  0  0  0  0  0  0  0  0  0
    4.1056    3.2574   -2.3803 C   0  0  0  0  0  0  0  0  0  0  0  0
    3.4651    3.2609   -1.1393 C   0  0  0  0  0  0  0  0  0  0  0  0
    5.7120    1.2038    0.0133 C   0  0  0  0  0  0  0  0  0  0  0  0
    6.4049    2.4310   -0.0094 N   0  0  0  0  0  0  0  0  0  0  0  0
    6.3816    3.4205    0.9888 C   0  0  0  0  0  0  0  0  0  0  0  0
    5.7411    3.4217    2.2298 C   0  0  0  0  0  0  0  0  0  0  0  0
    5.9058    4.5341    3.0558 C   0  0  0  0  0  0  0  0  0  0  0  0
    6.7047    5.6164    2.6464 C   0  0  0  0  0  0  0  0  0  0  0  0
    6.8976    7.1155    3.8099 Br  0  0  0  0  0  0  0  0  0  0  0  0
    7.3628    5.6137    1.4180 C   0  0  0  0  0  0  0  0  0  0  0  0
    7.2026    4.5016    0.5809 C   0  0  0  0  0  0  0  0  0  0  0  0
    7.7536    4.1510   -0.7149 C   0  0  0  0  0  0  0  0  0  0  0  0
    8.6104    4.8171   -1.6014 C   0  0  0  0  0  0  0  0  0  0  0  0
    8.9512    4.1830   -2.7944 C   0  0  0  0  0  0  0  0  0  0  0  0
   10.1158    5.0603   -4.0240 Br  0  0  0  0  0  0  0  0  0  0  0  0
    8.4567    2.9065   -3.1164 C   0  0  0  0  0  0  0  0  0  0  0  0
    7.6011    2.2361   -2.2415 C   0  0  0  0  0  0  0  0  0  0  0  0
    7.2553    2.8663   -1.0429 C   0  0  0  0  0  0  0  0  0  0  0  0
    6.4434   -0.0058    0.1120 C   0  0  0  0  0  0  0  0  0  0  0  0
    7.8725    0.0526    0.2270 C   0  0  0  0  0  0  0  0  0  0  0  0
    9.0278    0.1000    0.3198 N   0  0  0  0  0  0  0  0  0  0  0  0
    5.8058   -1.2711    0.1009 C   0  0  0  0  0  0  0  0  0  0  0  0
    6.5828   -2.4382    0.2440 N   0  0  0  0  0  0  0  0  0  0  0  0
    6.7977   -3.4235   -0.7355 C   0  0  0  0  0  0  0  0  0  0  0  0
    6.3634   -3.4736   -2.0619 C   0  0  0  0  0  0  0  0  0  0  0  0
    6.7458   -4.5669   -2.8400 C   0  0  0  0  0  0  0  0  0  0  0  0
    7.5549   -5.5817   -2.2987 C   0  0  0  0  0  0  0  0  0  0  0  0
    8.0502   -7.0567   -3.4018 Br  0  0  0  0  0  0  0  0  0  0  0  0
    8.0082   -5.5285   -0.9820 C   0  0  0  0  0  0  0  0  0  0  0  0
    7.6283   -4.4354   -0.1922 C   0  0  0  0  0  0  0  0  0  0  0  0
    7.9368   -4.0453    1.1710 C   0  0  0  0  0  0  0  0  0  0  0  0
    8.6923   -4.6429    2.1886 C   0  0  0  0  0  0  0  0  0  0  0  0
    8.7864   -3.9877    3.4148 C   0  0  0  0  0  0  0  0  0  0  0  0
    9.8072   -4.7721    4.8219 Br  0  0  0  0  0  0  0  0  0  0  0  0
    8.1453   -2.7569    3.6421 C   0  0  0  0  0  0  0  0  0  0  0  0
    7.3889   -2.1549    2.6359 C   0  0  0  0  0  0  0  0  0  0  0  0
    7.2906   -2.8064    1.4034 C   0  0  0  0  0  0  0  0  0  0  0  0
    4.4006   -1.3287   -0.0439 C   0  0  0  0  0  0  0  0  0  0  0  0
    3.7168   -2.5578   -0.1341 N   0  0  0  0  0  0  0  0  0  0  0  0
    3.0405   -3.0299   -1.2745 C   0  0  0  0  0  0  0  0  0  0  0  0
    2.8952   -2.4431   -2.5346 C   0  0  0  0  0  0  0  0  0  0  0  0
    2.1875   -3.1443   -3.5113 C   0  0  0  0  0  0  0  0  0  0  0  0
    1.6406   -4.4086   -3.2282 C   0  0  0  0  0  0  0  0  0  0  0  0
    0.6829   -5.3289   -4.5970 Br  0  0  0  0  0  0  0  0  0  0  0  0
    1.7824   -4.9999   -1.9745 C   0  0  0  0  0  0  0  0  0  0  0  0
    2.4895   -4.3025   -0.9859 C   0  0  0  0  0  0  0  0  0  0  0  0
    2.8247   -4.6070    0.3927 C   0  0  0  0  0  0  0  0  0  0  0  0
    2.5276   -5.6895    1.2312 C   0  0  0  0  0  0  0  0  0  0  0  0
    2.9814   -5.6491    2.5482 C   0  0  0  0  0  0  0  0  0  0  0  0
    2.5974   -7.1068    3.7170 Br  0  0  0  0  0  0  0  0  0  0  0  0
    3.7099   -4.5526    3.0424 C   0  0  0  0  0  0  0  0  0  0  0  0
    4.0097   -3.4694    2.2156 C   0  0  0  0  0  0  0  0  0  0  0  0
    3.5755   -3.5119    0.8889 C   0  0  0  0  0  0  0  0  0  0  0  0
    2.7804    1.1778    2.4422 H   0  0  0  0  0  0  0  0  0  0  0  0
    1.1702    2.3166    3.9468 H   0  0  0  0  0  0  0  0  0  0  0  0
    0.6637    5.5392    1.1143 H   0  0  0  0  0  0  0  0  0  0  0  0
    1.6262    6.1533   -1.4018 H   0  0  0  0  0  0  0  0  0  0  0  0
    4.3495    4.3437   -4.2266 H   0  0  0  0  0  0  0  0  0  0  0  0
    4.7845    2.4579   -2.6766 H   0  0  0  0  0  0  0  0  0  0  0  0
    5.1253    2.5858    2.5616 H   0  0  0  0  0  0  0  0  0  0  0  0
    5.4117    4.5649    4.0278 H   0  0  0  0  0  0  0  0  0  0  0  0
    7.9919    6.4545    1.1223 H   0  0  0  0  0  0  0  0  0  0  0  0
    9.0017    5.8082   -1.3673 H   0  0  0  0  0  0  0  0  0  0  0  0
    8.7498    2.4357   -4.0558 H   0  0  0  0  0  0  0  0  0  0  0  0
    7.2303    1.2425   -2.4999 H   0  0  0  0  0  0  0  0  0  0  0  0
    5.7423   -2.6900   -2.4955 H   0  0  0  0  0  0  0  0  0  0  0  0
    6.4154   -4.6354   -3.8774 H   0  0  0  0  0  0  0  0  0  0  0  0
    8.6486   -6.3160   -0.5820 H   0  0  0  0  0  0  0  0  0  0  0  0
    9.1945   -5.5982    2.0290 H   0  0  0  0  0  0  0  0  0  0  0  0
    8.2457   -2.2674    4.6118 H   0  0  0  0  0  0  0  0  0  0  0  0
    6.9027   -1.1957    2.8228 H   0  0  0  0  0  0  0  0  0  0  0  0
    3.3082   -1.4592   -2.7647 H   0  0  0  0  0  0  0  0  0  0  0  0
    2.0516   -2.7074   -4.5016 H   0  0  0  0  0  0  0  0  0  0  0  0
    1.3535   -5.9823   -1.7716 H   0  0  0  0  0  0  0  0  0  0  0  0
    1.9497   -6.5405    0.8680 H   0  0  0  0  0  0  0  0  0  0  0  0
    4.0426   -4.5494    4.0813 H   0  0  0  0  0  0  0  0  0  0  0  0
    4.5685   -2.6222    2.6127 H   0  0  0  0  0  0  0  0  0  0  0  0
  1  2  3  0
  2  3  1  0
  3  4  2  0
  3 55  1  0
  4  5  1  0
  4 20  1  0
  5  6  1  0
  5 19  1  0
  6  7  2  0
  6 12  1  0
  7  8  1  0
  7 71  1  0
  8  9  2  0
  8 72  1  0
  9 10  1  0
  9 11  1  0
 11 12  2  0
 11 73  1  0
 12 13  1  0
 13 14  1  0
 13 19  2  0
 14 15  2  0
 14 74  1  0
 15 16  1  0
 15 17  1  0
 17 18  2  0
 17 75  1  0
 18 19  1  0
 18 76  1  0
 20 21  1  0
 20 36  2  0
 21 22  1  0
 21 35  1  0
 22 23  2  0
 22 28  1  0
 23 24  1  0
 23 77  1  0
 24 25  2  0
 24 78  1  0
 25 26  1  0
 25 27  1  0
 27 28  2  0
 27 79  1  0
 28 29  1  0
 29 30  1  0
 29 35  2  0
 30 31  2  0
 30 80  1  0
 31 32  1  0
 31 33  1  0
 33 34  2  0
 33 81  1  0
 34 35  1  0
 34 82  1  0
 36 37  1  0
 36 39  1  0
 37 38  3  0
 39 40  1  0
 39 55  2  0
 40 41  1  0
 40 54  1  0
 41 42  2  0
 41 47  1  0
 42 43  1  0
 42 83  1  0
 43 44  2  0
 43 84  1  0
 44 45  1  0
 44 46  1  0
 46 47  2  0
 46 85  1  0
 47 48  1  0
 48 49  1  0
 48 54  2  0
 49 50  2  0
 49 86  1  0
 50 51  1  0
 50 52  1  0
 52 53  2  0
 52 87  1  0
 53 54  1  0
 53 88  1  0
 55 56  1  0
 56 57  1  0
 56 70  1  0
 57 58  2  0
 57 63  1  0
 58 59  1  0
 58 89  1  0
 59 60  2  0
 59 90  1  0
 60 61  1  0
 60 62  1  0
 62 63  2  0
 62 91  1  0
 63 64  1  0
 64 65  1  0
 64 70  2  0
 65 66  2  0
 65 92  1  0
 66 67  1  0
 66 68  1  0
 68 69  2  0
 68 93  1  0
 69 70  1  0
 69 94  1  0
M  END

