
     RDKit          3D

 33 35  0  0  0  0  0  0  0  0999 V2000
    1.1897   -0.0251   -0.5326 N   0  0  0  0  0  0  0  0  0  0  0  0
    2.5272   -0.0398   -0.1655 C   0  0  0  0  0  0  0  0  0  0  0  0
    3.1044    1.0518    0.5147 C   0  0  0  0  0  0  0  0  0  0  0  0
    4.4449    1.0211    0.8978 C   0  0  0  0  0  0  0  0  0  0  0  0
    5.2450   -0.0896    0.6249 C   0  0  0  0  0  0  0  0  0  0  0  0
    4.6807   -1.1956   -0.0268 C   0  0  0  0  0  0  0  0  0  0  0  0
    5.5820   -2.3706   -0.3047 C   0  0  0  0  0  0  0  0  0  0  0  0
    6.7864   -2.2374   -0.4357 O   0  0  0  0  0  0  0  0  0  0  0  0
    4.9289   -3.5892   -0.3744 N   0  0  0  0  0  0  0  0  0  0  0  0
    5.4579   -4.8593   -0.6537 C   0  0  0  0  0  0  0  0  0  0  0  0
    6.8029   -5.0672   -0.9295 C   0  0  0  0  0  0  0  0  0  0  0  0
    7.2916   -6.3601   -1.2128 C   0  0  0  0  0  0  0  0  0  0  0  0
    6.4586   -7.4578   -1.2216 C   0  0  0  0  0  0  0  0  0  0  0  0
    7.0987   -9.0370   -1.5713 Cl  0  0  0  0  0  0  0  0  0  0  0  0
    5.0636   -7.3051   -0.9435 C   0  0  0  0  0  0  0  0  0  0  0  0
    4.2637   -8.3999   -0.9570 N   0  0  0  0  0  0  0  0  0  0  0  0
    2.9824   -8.2631   -0.7069 C   0  0  0  0  0  0  0  0  0  0  0  0
    2.3728   -7.0170   -0.4214 C   0  0  0  0  0  0  0  0  0  0  0  0
    3.1649   -5.8899   -0.4017 C   0  0  0  0  0  0  0  0  0  0  0  0
    4.5593   -5.9858   -0.6597 C   0  0  0  0  0  0  0  0  0  0  0  0
    3.3360   -1.1636   -0.4253 C   0  0  0  0  0  0  0  0  0  0  0  0
    0.7513    0.8859   -0.6045 H   0  0  0  0  0  0  0  0  0  0  0  0
    0.9160   -0.6533   -1.2795 H   0  0  0  0  0  0  0  0  0  0  0  0
    2.4926    1.9318    0.7328 H   0  0  0  0  0  0  0  0  0  0  0  0
    4.8716    1.8843    1.4150 H   0  0  0  0  0  0  0  0  0  0  0  0
    6.2985   -0.1206    0.9048 H   0  0  0  0  0  0  0  0  0  0  0  0
    3.9563   -3.5617   -0.1033 H   0  0  0  0  0  0  0  0  0  0  0  0
    7.4809   -4.2178   -0.9191 H   0  0  0  0  0  0  0  0  0  0  0  0
    8.3533   -6.4944   -1.4264 H   0  0  0  0  0  0  0  0  0  0  0  0
    2.3730   -9.1756   -0.7267 H   0  0  0  0  0  0  0  0  0  0  0  0
    1.3004   -6.9590   -0.2239 H   0  0  0  0  0  0  0  0  0  0  0  0
    2.6944   -4.9276   -0.1849 H   0  0  0  0  0  0  0  0  0  0  0  0
    2.9052   -1.9970   -0.9879 H   0  0  0  0  0  0  0  0  0  0  0  0
  1  2  1  0
  1 22  1  0
  1 23  1  0
  2  3  2  0
  2 21  1  0
  3  4  1  0
  3 24  1  0
  4  5  2  0
  4 25  1  0
  5  6  1  0
  5 26  1  0
  6  7  1  0
  6 21  2  0
  7  8  2  0
  7  9  1  0
  9 10  1  0
  9 27  1  0
 10 11  2  0
 10 20  1  0
 11 12  1  0
 11 28  1  0
 12 13  2  0
 12 29  1  0
 13 14  1  0
 13 15  1  0
 15 16  1  0
 15 20  2  0
 16 17  2  0
 17 18  1  0
 17 30  1  0
 18 19  2  0
 18 31  1  0
 19 20  1  0
 19 32  1  0
 21 33  1  0
M  END

