
     RDKit          3D

 32 33  0  0  0  0  0  0  0  0999 V2000
    1.1160    0.2200   -0.2259 C   0  0  0  0  0  0  0  0  0  0  0  0
    2.5475   -0.0153   -0.3288 N   0  0  0  0  0  0  0  0  0  0  0  0
    3.5228    0.9519   -0.3857 C   0  0  0  0  0  0  0  0  0  0  0  0
    3.1425    2.6661   -0.5061 S   0  0  0  0  0  0  0  0  0  0  0  0
    4.7517    3.3978   -0.0222 C   0  0  0  0  0  0  0  0  0  0  0  0
    5.8439    3.2723   -1.0784 C   0  0  0  0  0  0  0  0  0  0  0  0
    7.0641    4.1121   -0.7220 C   0  0  0  0  0  0  0  0  0  0  0  0
    7.0770    4.9591    0.1292 O   0  0  0  0  0  0  0  0  0  0  0  0
    8.1677    3.8631   -1.4610 O   0  0  0  0  0  0  0  0  0  0  0  0
    4.7191    0.4054   -0.3375 N   0  0  0  0  0  0  0  0  0  0  0  0
    4.5503   -0.9411   -0.2389 N   0  0  0  0  0  0  0  0  0  0  0  0
    3.2598   -1.2014   -0.2454 C   0  0  0  0  0  0  0  0  0  0  0  0
    2.7117   -2.5637   -0.1637 C   0  0  0  0  0  0  0  0  0  0  0  0
    3.4827   -3.5483    0.4883 C   0  0  0  0  0  0  0  0  0  0  0  0
    3.0350   -4.8655    0.5685 C   0  0  0  0  0  0  0  0  0  0  0  0
    1.8118   -5.2357    0.0059 C   0  0  0  0  0  0  0  0  0  0  0  0
    1.0389   -4.2679   -0.6583 C   0  0  0  0  0  0  0  0  0  0  0  0
   -0.2161   -4.6292   -1.2590 C   0  0  0  0  0  0  0  0  0  0  0  0
   -1.2323   -4.9142   -1.7430 N   0  0  0  0  0  0  0  0  0  0  0  0
    1.4925   -2.9388   -0.7467 C   0  0  0  0  0  0  0  0  0  0  0  0
    0.9525    1.2033    0.2375 H   0  0  0  0  0  0  0  0  0  0  0  0
    0.6564   -0.5477    0.4096 H   0  0  0  0  0  0  0  0  0  0  0  0
    0.6282    0.2119   -1.2134 H   0  0  0  0  0  0  0  0  0  0  0  0
    5.0661    2.9420    0.9266 H   0  0  0  0  0  0  0  0  0  0  0  0
    4.5211    4.4546    0.1742 H   0  0  0  0  0  0  0  0  0  0  0  0
    5.4727    3.6143   -2.0614 H   0  0  0  0  0  0  0  0  0  0  0  0
    6.1242    2.2120   -1.1872 H   0  0  0  0  0  0  0  0  0  0  0  0
    8.0088    3.1279   -2.0705 H   0  0  0  0  0  0  0  0  0  0  0  0
    4.4391   -3.2543    0.9230 H   0  0  0  0  0  0  0  0  0  0  0  0
    3.6442   -5.6141    1.0800 H   0  0  0  0  0  0  0  0  0  0  0  0
    1.4533   -6.2644    0.0719 H   0  0  0  0  0  0  0  0  0  0  0  0
    0.8895   -2.2218   -1.3029 H   0  0  0  0  0  0  0  0  0  0  0  0
  1  2  1  0
  1 21  1  0
  1 22  1  0
  1 23  1  0
  2  3  1  0
  2 12  1  0
  3  4  1  0
  3 10  2  0
  4  5  1  0
  5  6  1  0
  5 24  1  0
  5 25  1  0
  6  7  1  0
  6 26  1  0
  6 27  1  0
  7  8  2  0
  7  9  1  0
  9 28  1  0
 10 11  1  0
 11 12  2  0
 12 13  1  0
 13 14  2  0
 13 20  1  0
 14 15  1  0
 14 29  1  0
 15 16  2  0
 15 30  1  0
 16 17  1  0
 16 31  1  0
 17 18  1  0
 17 20  2  0
 18 19  3  0
 20 32  1  0
M  END

