
     RDKit          3D

 36 37  0  0  0  0  0  0  0  0999 V2000
    3.2816   -1.0831   -0.1071 C   0  0  0  0  0  0  0  0  0  0  0  0
    2.9055    0.3264   -0.1269 N   0  0  0  0  0  0  0  0  0  0  0  0
    3.1760    1.0546    1.1148 C   0  0  0  0  0  0  0  0  0  0  0  0
    1.9277    1.1518    2.0851 C   0  0  1  0  0  0  0  0  0  0  0  0
    0.7833    0.6204    1.4421 O   0  0  0  0  0  0  0  0  0  0  0  0
    2.1648    0.3356    3.3729 C   0  0  0  0  0  0  0  0  0  0  0  0
    2.2641   -1.0879    3.0747 N   0  0  0  0  0  0  0  0  0  0  0  0
    1.6795    2.6133    2.4716 C   0  0  1  0  0  0  0  0  0  0  0  0
    0.7996    3.5058    1.6328 C   0  0  0  0  0  0  0  0  0  0  0  0
    0.3375    3.0510    2.9940 C   0  0  0  0  0  0  0  0  0  0  0  0
    2.9449    1.0098   -1.3616 C   0  0  0  0  0  0  0  0  0  0  0  0
    2.5727    2.3700   -1.4564 C   0  0  0  0  0  0  0  0  0  0  0  0
    2.5862    3.0431   -2.6773 C   0  0  0  0  0  0  0  0  0  0  0  0
    2.9643    2.3658   -3.8336 C   0  0  0  0  0  0  0  0  0  0  0  0
    2.9727    3.0141   -5.0120 F   0  0  0  0  0  0  0  0  0  0  0  0
    3.3292    1.0262   -3.7798 C   0  0  0  0  0  0  0  0  0  0  0  0
    3.3241    0.3555   -2.5537 C   0  0  0  0  0  0  0  0  0  0  0  0
    3.1196   -1.4677    0.9090 H   0  0  0  0  0  0  0  0  0  0  0  0
    4.3439   -1.2405   -0.3818 H   0  0  0  0  0  0  0  0  0  0  0  0
    2.6590   -1.6629   -0.8060 H   0  0  0  0  0  0  0  0  0  0  0  0
    3.5214    2.0669    0.8704 H   0  0  0  0  0  0  0  0  0  0  0  0
    4.0017    0.5549    1.6449 H   0  0  0  0  0  0  0  0  0  0  0  0
    1.0932    0.3560    0.5534 H   0  0  0  0  0  0  0  0  0  0  0  0
    1.3490    0.5853    4.0802 H   0  0  0  0  0  0  0  0  0  0  0  0
    3.1054    0.6758    3.8407 H   0  0  0  0  0  0  0  0  0  0  0  0
    1.3658   -1.3964    2.7001 H   0  0  0  0  0  0  0  0  0  0  0  0
    2.4332   -1.6262    3.9235 H   0  0  0  0  0  0  0  0  0  0  0  0
    2.5543    3.0897    2.9308 H   0  0  0  0  0  0  0  0  0  0  0  0
    0.3008    3.0480    0.7756 H   0  0  0  0  0  0  0  0  0  0  0  0
    1.0940    4.5503    1.4960 H   0  0  0  0  0  0  0  0  0  0  0  0
   -0.4565    2.2998    3.0138 H   0  0  0  0  0  0  0  0  0  0  0  0
    0.3065    3.7781    3.8104 H   0  0  0  0  0  0  0  0  0  0  0  0
    2.2462    2.9109   -0.5695 H   0  0  0  0  0  0  0  0  0  0  0  0
    2.2938    4.0932   -2.7412 H   0  0  0  0  0  0  0  0  0  0  0  0
    3.6254    0.5130   -4.6971 H   0  0  0  0  0  0  0  0  0  0  0  0
    3.6277   -0.6899   -2.5396 H   0  0  0  0  0  0  0  0  0  0  0  0
  1  2  1  0
  1 18  1  0
  1 19  1  0
  1 20  1  0
  2  3  1  0
  2 11  1  0
  3  4  1  0
  3 21  1  0
  3 22  1  0
  4  5  1  6
  4  6  1  0
  4  8  1  0
  5 23  1  0
  6  7  1  0
  6 24  1  0
  6 25  1  0
  7 26  1  0
  7 27  1  0
  8  9  1  0
  8 10  1  0
  8 28  1  1
  9 10  1  0
  9 29  1  0
  9 30  1  0
 10 31  1  0
 10 32  1  0
 11 12  2  0
 11 17  1  0
 12 13  1  0
 12 33  1  0
 13 14  2  0
 13 34  1  0
 14 15  1  0
 14 16  1  0
 16 17  2  0
 16 35  1  0
 17 36  1  0
M  END

