
     RDKit          3D

 21 21  0  0  0  0  0  0  0  0999 V2000
    1.6338   -0.4557   -0.7856 N   0  0  0  0  0  0  0  0  0  0  0  0
    2.5691    0.0758    0.0406 C   0  0  0  0  0  0  0  0  0  0  0  0
    2.8877    1.2551    0.0534 O   0  0  0  0  0  0  0  0  0  0  0  0
    3.2056   -0.9312    0.9715 C   0  0  0  0  0  0  0  0  0  0  0  0
    4.1709   -0.4974    1.8689 C   0  0  0  0  0  0  0  0  0  0  0  0
    4.7683   -1.4417    2.7238 C   0  0  0  0  0  0  0  0  0  0  0  0
    5.7532   -0.9828    3.7614 C   0  0  1  0  0  0  0  0  0  0  0  0
    5.1571   -0.8132    4.9695 F   0  0  0  0  0  0  0  0  0  0  0  0
    6.7382   -1.9372    3.9522 F   0  0  0  0  0  0  0  0  0  0  0  0
    4.3666   -2.7740    2.6413 C   0  0  0  0  0  0  0  0  0  0  0  0
    4.8617   -3.7954    3.3803 O   0  0  0  0  0  0  0  0  0  0  0  0
    3.3584   -3.1227    1.6879 C   0  0  0  0  0  0  0  0  0  0  0  0
    2.9359   -4.4206    1.6277 N   0  0  0  0  0  0  0  0  0  0  0  0
    2.8120   -2.2160    0.8866 N   0  0  0  0  0  0  0  0  0  0  0  0
    1.1529    0.1475   -1.4393 H   0  0  0  0  0  0  0  0  0  0  0  0
    1.4295   -1.4457   -0.7243 H   0  0  0  0  0  0  0  0  0  0  0  0
    4.4425    0.5591    1.8860 H   0  0  0  0  0  0  0  0  0  0  0  0
    6.2563   -0.0430    3.4833 H   0  0  0  0  0  0  0  0  0  0  0  0
    5.6518   -3.4984    3.8593 H   0  0  0  0  0  0  0  0  0  0  0  0
    3.4871   -5.1290    2.0925 H   0  0  0  0  0  0  0  0  0  0  0  0
    2.3577   -4.6892    0.8428 H   0  0  0  0  0  0  0  0  0  0  0  0
  1  2  1  0
  1 15  1  0
  1 16  1  0
  2  3  2  0
  2  4  1  0
  4  5  2  0
  4 14  1  0
  5  6  1  0
  5 17  1  0
  6  7  1  0
  6 10  2  0
  7  8  1  0
  7  9  1  0
  7 18  1  6
 10 11  1  0
 10 12  1  0
 11 19  1  0
 12 13  1  0
 12 14  2  0
 13 20  1  0
 13 21  1  0
M  END

