
     RDKit          3D

166181  0  0  0  0  0  0  0  0999 V2000
    0.8775    1.2853   -1.3460 C   0  0  0  0  0  0  0  0  0  0  0  0
    1.9441    0.4501   -0.6378 C   0  0  0  0  0  0  0  0  0  0  0  0
    3.0183    1.2428    0.1621 C   0  0  2  0  0  0  0  0  0  0  0  0
    4.0022    0.2210    0.8024 C   0  0  0  0  0  0  0  0  0  0  0  0
    5.1397    0.8108    1.6359 C   0  0  0  0  0  0  0  0  0  0  0  0
    2.3871    2.1594    1.2108 C   0  0  0  0  0  0  0  0  0  0  0  0
    1.5867    1.8208    2.2997 C   0  0  0  0  0  0  0  0  0  0  0  0
    1.1112    2.8357    3.1427 C   0  0  0  0  0  0  0  0  0  0  0  0
    1.4350    4.1767    2.8968 C   0  0  0  0  0  0  0  0  0  0  0  0
    2.2378    4.5246    1.8060 C   0  0  0  0  0  0  0  0  0  0  0  0
    2.7122    3.5115    0.9645 C   0  0  0  0  0  0  0  0  0  0  0  0
    3.5572    3.5739   -0.2336 C   0  0  0  0  0  0  0  0  0  0  0  0
    4.1412    4.6619   -0.8937 C   0  0  0  0  0  0  0  0  0  0  0  0
    4.9107    4.4353   -2.0331 C   0  0  0  0  0  0  0  0  0  0  0  0
    5.1090    3.1249   -2.5304 C   0  0  0  0  0  0  0  0  0  0  0  0
    5.8961    2.9034   -3.6979 C   0  0  0  0  0  0  0  0  0  0  0  0
    6.5681    2.7035   -4.6985 C   0  0  0  0  0  0  0  0  0  0  0  0
    7.3445    2.4378   -5.8621 C   0  0  0  0  0  0  0  0  0  0  0  0
    7.4804    1.1130   -6.3051 C   0  0  0  0  0  0  0  0  0  0  0  0
    8.2297    0.7789   -7.4440 C   0  0  0  0  0  0  0  0  0  0  0  0
    8.3244   -0.5868   -7.8355 C   0  0  0  0  0  0  0  0  0  0  0  0
    8.3891   -1.7660   -8.1488 C   0  0  0  0  0  0  0  0  0  0  0  0
    8.4600   -3.1438   -8.5068 C   0  0  0  0  0  0  0  0  0  0  0  0
    7.7857   -4.1186   -7.7325 C   0  0  0  0  0  0  0  0  0  0  0  0
    7.8457   -5.4694   -8.0688 C   0  0  0  0  0  0  0  0  0  0  0  0
    8.5854   -5.8643   -9.1902 C   0  0  0  0  0  0  0  0  0  0  0  0
    9.2636   -4.9029   -9.9726 C   0  0  0  0  0  0  0  0  0  0  0  0
    9.2047   -3.5571   -9.6394 C   0  0  0  0  0  0  0  0  0  0  0  0
    9.9997   -5.5671  -11.1375 C   0  0  1  0  0  0  0  0  0  0  0  0
    9.4867   -5.0547  -12.5145 C   0  0  0  0  0  0  0  0  0  0  0  0
    7.9889   -5.2100  -12.7772 C   0  0  0  0  0  0  0  0  0  0  0  0
   11.5349   -5.3221  -11.0672 C   0  0  0  0  0  0  0  0  0  0  0  0
   12.2303   -5.7622   -9.7790 C   0  0  0  0  0  0  0  0  0  0  0  0
    9.6464   -7.0373  -10.9092 C   0  0  0  0  0  0  0  0  0  0  0  0
   10.0256   -8.1532  -11.6521 C   0  0  0  0  0  0  0  0  0  0  0  0
    9.5806   -9.4231  -11.2570 C   0  0  0  0  0  0  0  0  0  0  0  0
    8.7636   -9.5730  -10.1284 C   0  0  0  0  0  0  0  0  0  0  0  0
    8.3788   -8.4579   -9.3776 C   0  0  0  0  0  0  0  0  0  0  0  0
    8.8230   -7.1904   -9.7720 C   0  0  0  0  0  0  0  0  0  0  0  0
    8.8804    1.8136   -8.1852 C   0  0  0  0  0  0  0  0  0  0  0  0
    9.6561    1.5337   -9.3524 C   0  0  0  0  0  0  0  0  0  0  0  0
   10.2744    2.5322  -10.0536 C   0  0  0  0  0  0  0  0  0  0  0  0
   10.1718    3.8993   -9.6498 C   0  0  0  0  0  0  0  0  0  0  0  0
   10.8133    4.9516  -10.3741 C   0  0  0  0  0  0  0  0  0  0  0  0
   11.5896    4.6859  -11.5378 C   0  0  0  0  0  0  0  0  0  0  0  0
   12.2618    4.4860  -12.5382 C   0  0  0  0  0  0  0  0  0  0  0  0
   13.0494    4.2644  -13.7054 C   0  0  0  0  0  0  0  0  0  0  0  0
   13.2478    2.9540  -14.2025 C   0  0  0  0  0  0  0  0  0  0  0  0
   14.0178    2.7272  -15.3416 C   0  0  0  0  0  0  0  0  0  0  0  0
   14.6021    3.8152  -16.0014 C   0  0  0  0  0  0  0  0  0  0  0  0
   14.4121    5.1291  -15.5175 C   0  0  0  0  0  0  0  0  0  0  0  0
   13.6459    5.3568  -14.3833 C   0  0  0  0  0  0  0  0  0  0  0  0
   15.1414    6.1461  -16.3970 C   0  0  1  0  0  0  0  0  0  0  0  0
   14.1578    7.1680  -17.0379 C   0  0  0  0  0  0  0  0  0  0  0  0
   13.0209    6.5782  -17.8722 C   0  0  0  0  0  0  0  0  0  0  0  0
   16.2152    6.9389  -15.5968 C   0  0  0  0  0  0  0  0  0  0  0  0
   17.2816    6.1038  -14.8882 C   0  0  0  0  0  0  0  0  0  0  0  0
   15.7730    5.2295  -17.4455 C   0  0  0  0  0  0  0  0  0  0  0  0
   16.5739    5.5680  -18.5340 C   0  0  0  0  0  0  0  0  0  0  0  0
   17.0497    4.5530  -19.3767 C   0  0  0  0  0  0  0  0  0  0  0  0
   16.7257    3.2120  -19.1309 C   0  0  0  0  0  0  0  0  0  0  0  0
   15.9224    2.8642  -18.0404 C   0  0  0  0  0  0  0  0  0  0  0  0
   15.4477    3.8774  -17.1992 C   0  0  0  0  0  0  0  0  0  0  0  0
   10.6775    6.2764   -9.9310 C   0  0  0  0  0  0  0  0  0  0  0  0
    9.9284    6.6105   -8.7921 C   0  0  0  0  0  0  0  0  0  0  0  0
    9.8339    7.9761   -8.4003 C   0  0  0  0  0  0  0  0  0  0  0  0
    9.7695    9.1552   -8.0868 C   0  0  0  0  0  0  0  0  0  0  0  0
    9.6992   10.5329   -7.7279 C   0  0  0  0  0  0  0  0  0  0  0  0
   10.3714   11.5082   -8.5032 C   0  0  0  0  0  0  0  0  0  0  0  0
   10.3120   12.8588   -8.1661 C   0  0  0  0  0  0  0  0  0  0  0  0
    9.5751   13.2530   -7.0426 C   0  0  0  0  0  0  0  0  0  0  0  0
    8.8990   12.2910   -6.2590 C   0  0  0  0  0  0  0  0  0  0  0  0
    8.9572   10.9454   -6.5932 C   0  0  0  0  0  0  0  0  0  0  0  0
    8.1658   12.9543   -5.0918 C   0  0  1  0  0  0  0  0  0  0  0  0
    6.6304   12.7092   -5.1582 C   0  0  0  0  0  0  0  0  0  0  0  0
    5.9316   13.1501   -6.4443 C   0  0  0  0  0  0  0  0  0  0  0  0
    8.6824   12.4411   -3.7164 C   0  0  0  0  0  0  0  0  0  0  0  0
   10.1809   12.5965   -3.4575 C   0  0  0  0  0  0  0  0  0  0  0  0
    8.5183   14.4247   -5.3201 C   0  0  0  0  0  0  0  0  0  0  0  0
    8.1409   15.5401   -4.5755 C   0  0  0  0  0  0  0  0  0  0  0  0
    8.5846   16.8104   -4.9710 C   0  0  0  0  0  0  0  0  0  0  0  0
    9.3987   16.9611   -6.1016 C   0  0  0  0  0  0  0  0  0  0  0  0
    9.7818   15.8464   -6.8541 C   0  0  0  0  0  0  0  0  0  0  0  0
    9.3388   14.5786   -6.4593 C   0  0  0  0  0  0  0  0  0  0  0  0
    9.2775    5.5758   -8.0509 C   0  0  0  0  0  0  0  0  0  0  0  0
    8.5018    5.8556   -6.8837 C   0  0  0  0  0  0  0  0  0  0  0  0
    7.8834    4.8572   -6.1826 C   0  0  0  0  0  0  0  0  0  0  0  0
    7.9860    3.4901   -6.5864 C   0  0  0  0  0  0  0  0  0  0  0  0
    8.7542    3.1702   -7.7498 C   0  0  0  0  0  0  0  0  0  0  0  0
    9.4037    4.2192   -8.4864 C   0  0  0  0  0  0  0  0  0  0  0  0
    4.5128    2.0324   -1.8523 C   0  0  0  0  0  0  0  0  0  0  0  0
    3.7471    2.2600   -0.7177 C   0  0  0  0  0  0  0  0  0  0  0  0
    0.1699    0.6313   -1.8800 H   0  0  0  0  0  0  0  0  0  0  0  0
    1.3209    1.9690   -2.0866 H   0  0  0  0  0  0  0  0  0  0  0  0
    0.2970    1.8925   -0.6341 H   0  0  0  0  0  0  0  0  0  0  0  0
    2.4707   -0.1787   -1.3773 H   0  0  0  0  0  0  0  0  0  0  0  0
    1.4576   -0.2542    0.0598 H   0  0  0  0  0  0  0  0  0  0  0  0
    4.4230   -0.3965   -0.0106 H   0  0  0  0  0  0  0  0  0  0  0  0
    3.4089   -0.4709    1.4259 H   0  0  0  0  0  0  0  0  0  0  0  0
    5.7842    1.4718    1.0357 H   0  0  0  0  0  0  0  0  0  0  0  0
    5.7748    0.0072    2.0417 H   0  0  0  0  0  0  0  0  0  0  0  0
    4.7591    1.3961    2.4874 H   0  0  0  0  0  0  0  0  0  0  0  0
    1.3271    0.7779    2.5022 H   0  0  0  0  0  0  0  0  0  0  0  0
    0.4826    2.5786    3.9992 H   0  0  0  0  0  0  0  0  0  0  0  0
    1.0568    4.9563    3.5630 H   0  0  0  0  0  0  0  0  0  0  0  0
    2.4880    5.5718    1.6176 H   0  0  0  0  0  0  0  0  0  0  0  0
    3.9997    5.6813   -0.5260 H   0  0  0  0  0  0  0  0  0  0  0  0
    5.3716    5.2743   -2.5582 H   0  0  0  0  0  0  0  0  0  0  0  0
    6.9875    0.3168   -5.7462 H   0  0  0  0  0  0  0  0  0  0  0  0
    7.2132   -3.7950   -6.8610 H   0  0  0  0  0  0  0  0  0  0  0  0
    7.3181   -6.2065   -7.4582 H   0  0  0  0  0  0  0  0  0  0  0  0
    9.7246   -2.8037  -10.2358 H   0  0  0  0  0  0  0  0  0  0  0  0
   10.0553   -5.5807  -13.3016 H   0  0  0  0  0  0  0  0  0  0  0  0
    9.7680   -3.9906  -12.6043 H   0  0  0  0  0  0  0  0  0  0  0  0
    7.6773   -6.2657  -12.7446 H   0  0  0  0  0  0  0  0  0  0  0  0
    7.7312   -4.8176  -13.7739 H   0  0  0  0  0  0  0  0  0  0  0  0
    7.3864   -4.6594  -12.0380 H   0  0  0  0  0  0  0  0  0  0  0  0
   11.7122   -4.2446  -11.2318 H   0  0  0  0  0  0  0  0  0  0  0  0
   11.9967   -5.8353  -11.9290 H   0  0  0  0  0  0  0  0  0  0  0  0
   11.8284   -5.2361   -8.8990 H   0  0  0  0  0  0  0  0  0  0  0  0
   13.3090   -5.5451   -9.8315 H   0  0  0  0  0  0  0  0  0  0  0  0
   12.1166   -6.8435   -9.6042 H   0  0  0  0  0  0  0  0  0  0  0  0
   10.6628   -8.0494  -12.5348 H   0  0  0  0  0  0  0  0  0  0  0  0
    9.8735  -10.3038  -11.8343 H   0  0  0  0  0  0  0  0  0  0  0  0
    8.4249  -10.5694   -9.8332 H   0  0  0  0  0  0  0  0  0  0  0  0
    7.7414   -8.5790   -8.4979 H   0  0  0  0  0  0  0  0  0  0  0  0
    9.7467    0.4961   -9.6774 H   0  0  0  0  0  0  0  0  0  0  0  0
   10.8622    2.2975  -10.9424 H   0  0  0  0  0  0  0  0  0  0  0  0
   12.7866    2.1150  -13.6776 H   0  0  0  0  0  0  0  0  0  0  0  0
   14.1594    1.7077  -15.7091 H   0  0  0  0  0  0  0  0  0  0  0  0
   13.4910    6.3671  -13.9975 H   0  0  0  0  0  0  0  0  0  0  0  0
   14.7514    7.8599  -17.6610 H   0  0  0  0  0  0  0  0  0  0  0  0
   13.7364    7.7853  -16.2251 H   0  0  0  0  0  0  0  0  0  0  0  0
   13.4021    5.9929  -18.7235 H   0  0  0  0  0  0  0  0  0  0  0  0
   12.3860    7.3817  -18.2783 H   0  0  0  0  0  0  0  0  0  0  0  0
   12.3760    5.9171  -17.2724 H   0  0  0  0  0  0  0  0  0  0  0  0
   15.6884    7.5677  -14.8575 H   0  0  0  0  0  0  0  0  0  0  0  0
   16.7020    7.6432  -16.2942 H   0  0  0  0  0  0  0  0  0  0  0  0
   16.8380    5.4199  -14.1478 H   0  0  0  0  0  0  0  0  0  0  0  0
   17.9889    6.7578  -14.3538 H   0  0  0  0  0  0  0  0  0  0  0  0
   17.8625    5.4967  -15.5999 H   0  0  0  0  0  0  0  0  0  0  0  0
   16.8337    6.6108  -18.7364 H   0  0  0  0  0  0  0  0  0  0  0  0
   17.6787    4.8099  -20.2329 H   0  0  0  0  0  0  0  0  0  0  0  0
   17.1042    2.4324  -19.7969 H   0  0  0  0  0  0  0  0  0  0  0  0
   15.6720    1.8170  -17.8521 H   0  0  0  0  0  0  0  0  0  0  0  0
   11.1704    7.0726  -10.4899 H   0  0  0  0  0  0  0  0  0  0  0  0
   10.9417   11.1853   -9.3764 H   0  0  0  0  0  0  0  0  0  0  0  0
   10.8379   13.5964   -8.7776 H   0  0  0  0  0  0  0  0  0  0  0  0
    8.4390   10.1916   -5.9958 H   0  0  0  0  0  0  0  0  0  0  0  0
    6.1708   13.2218   -4.2949 H   0  0  0  0  0  0  0  0  0  0  0  0
    6.4537   11.6316   -4.9938 H   0  0  0  0  0  0  0  0  0  0  0  0
    6.0448   14.2314   -6.6189 H   0  0  0  0  0  0  0  0  0  0  0  0
    4.8530   12.9329   -6.3890 H   0  0  0  0  0  0  0  0  0  0  0  0
    6.3310   12.6244   -7.3257 H   0  0  0  0  0  0  0  0  0  0  0  0
    8.4014   11.3770   -3.6266 H   0  0  0  0  0  0  0  0  0  0  0  0
    8.1158   12.9667   -2.9276 H   0  0  0  0  0  0  0  0  0  0  0  0
   10.7815   12.0464   -4.1987 H   0  0  0  0  0  0  0  0  0  0  0  0
   10.4412   12.2034   -2.4618 H   0  0  0  0  0  0  0  0  0  0  0  0
   10.4922   13.6522   -3.4903 H   0  0  0  0  0  0  0  0  0  0  0  0
    7.5059   15.4357   -3.6913 H   0  0  0  0  0  0  0  0  0  0  0  0
    8.2931   17.6907   -4.3924 H   0  0  0  0  0  0  0  0  0  0  0  0
    9.7365   17.9577   -6.3970 H   0  0  0  0  0  0  0  0  0  0  0  0
   10.4169   15.9682   -7.7354 H   0  0  0  0  0  0  0  0  0  0  0  0
    8.4112    6.8933   -6.5587 H   0  0  0  0  0  0  0  0  0  0  0  0
    7.2956    5.0919   -5.2938 H   0  0  0  0  0  0  0  0  0  0  0  0
    4.6677    1.0221   -2.2382 H   0  0  0  0  0  0  0  0  0  0  0  0
  1  2  1  0
  1 93  1  0
  1 94  1  0
  1 95  1  0
  3  2  1  6
  2 96  1  0
  2 97  1  0
  3  4  1  0
  3  6  1  0
  3 92  1  0
  4  5  1  0
  4 98  1  0
  4 99  1  0
  5100  1  0
  5101  1  0
  5102  1  0
  6  7  2  0
  6 11  1  0
  7  8  1  0
  7103  1  0
  8  9  2  0
  8104  1  0
  9 10  1  0
  9105  1  0
 10 11  2  0
 10106  1  0
 11 12  1  0
 12 13  2  0
 12 92  1  0
 13 14  1  0
 13107  1  0
 14 15  2  0
 14108  1  0
 15 16  1  0
 15 91  1  0
 16 17  3  0
 17 18  1  0
 18 19  2  0
 18 88  1  0
 19 20  1  0
 19109  1  0
 20 21  1  0
 20 40  2  0
 21 22  3  0
 22 23  1  0
 23 24  2  0
 23 28  1  0
 24 25  1  0
 24110  1  0
 25 26  2  0
 25111  1  0
 26 27  1  0
 26 39  1  0
 27 28  2  0
 27 29  1  0
 28112  1  0
 29 30  1  6
 29 32  1  0
 29 34  1  0
 30 31  1  0
 30113  1  0
 30114  1  0
 31115  1  0
 31116  1  0
 31117  1  0
 32 33  1  0
 32118  1  0
 32119  1  0
 33120  1  0
 33121  1  0
 33122  1  0
 34 35  1  0
 34 39  2  0
 35 36  2  0
 35123  1  0
 36 37  1  0
 36124  1  0
 37 38  2  0
 37125  1  0
 38 39  1  0
 38126  1  0
 40 41  1  0
 40 89  1  0
 41 42  2  0
 41127  1  0
 42 43  1  0
 42128  1  0
 43 44  2  0
 43 90  1  0
 44 45  1  0
 44 64  1  0
 45 46  3  0
 46 47  1  0
 47 48  2  0
 47 52  1  0
 48 49  1  0
 48129  1  0
 49 50  2  0
 49130  1  0
 50 51  1  0
 50 63  1  0
 51 52  2  0
 51 53  1  0
 52131  1  0
 53 54  1  6
 53 56  1  0
 53 58  1  0
 54 55  1  0
 54132  1  0
 54133  1  0
 55134  1  0
 55135  1  0
 55136  1  0
 56 57  1  0
 56137  1  0
 56138  1  0
 57139  1  0
 57140  1  0
 57141  1  0
 58 59  1  0
 58 63  2  0
 59 60  2  0
 59142  1  0
 60 61  1  0
 60143  1  0
 61 62  2  0
 61144  1  0
 62 63  1  0
 62145  1  0
 64 65  2  0
 64146  1  0
 65 66  1  0
 65 85  1  0
 66 67  3  0
 67 68  1  0
 68 69  2  0
 68 73  1  0
 69 70  1  0
 69147  1  0
 70 71  2  0
 70148  1  0
 71 72  1  0
 71 84  1  0
 72 73  2  0
 72 74  1  0
 73149  1  0
 74 75  1  6
 74 77  1  0
 74 79  1  0
 75 76  1  0
 75150  1  0
 75151  1  0
 76152  1  0
 76153  1  0
 76154  1  0
 77 78  1  0
 77155  1  0
 77156  1  0
 78157  1  0
 78158  1  0
 78159  1  0
 79 80  1  0
 79 84  2  0
 80 81  2  0
 80160  1  0
 81 82  1  0
 81161  1  0
 82 83  2  0
 82162  1  0
 83 84  1  0
 83163  1  0
 85 86  2  0
 85 90  1  0
 86 87  1  0
 86164  1  0
 87 88  2  0
 87165  1  0
 88 89  1  0
 89 90  2  0
 91 92  2  0
 91166  1  0
M  END

