
     RDKit          3D

 44 45  0  0  0  0  0  0  0  0999 V2000
    3.4377   -1.1434   -0.1959 C   0  0  0  0  0  0  0  0  0  0  0  0
    2.7804   -1.6102   -1.5015 C   0  0  1  0  0  0  0  0  0  0  0  0
    1.2501   -1.7512   -1.3913 C   0  0  0  0  0  0  0  0  0  0  0  0
    0.5608   -0.3836   -1.3519 C   0  0  0  0  0  0  0  0  0  0  0  0
    1.0115    0.5058   -2.5130 C   0  0  0  0  0  0  0  0  0  0  0  0
    2.4680    0.6235   -2.5631 N   0  0  0  0  0  0  0  0  0  0  0  0
    2.9488    1.5589   -3.5718 C   0  0  0  0  0  0  0  0  0  0  0  0
    2.5269    3.0133   -3.3404 C   0  0  0  0  0  0  0  0  0  0  0  0
    2.9202    3.5325   -1.9540 C   0  0  0  0  0  0  0  0  0  0  0  0
    2.3659    4.8469   -1.6630 N   0  0  0  0  0  0  0  0  0  0  0  0
    1.0162    5.0376   -1.2862 C   0  0  0  0  0  0  0  0  0  0  0  0
    0.1915    4.1577   -1.1695 O   0  0  0  0  0  0  0  0  0  0  0  0
    0.8609    6.3818   -1.0935 N   0  0  0  0  0  0  0  0  0  0  0  0
    2.0727    7.1579   -1.3312 C   0  0  2  0  0  0  0  0  0  0  0  0
    2.5721    7.8696   -0.0648 C   0  0  0  0  0  0  0  0  0  0  0  0
    1.9192    8.1402   -2.5020 C   0  0  0  0  0  0  0  0  0  0  0  0
    3.0609    6.0341   -1.7203 C   0  0  0  0  0  0  0  0  0  0  0  0
    4.2261    6.1818   -2.0123 O   0  0  0  0  0  0  0  0  0  0  0  0
    3.1138   -0.6801   -2.6803 C   0  0  0  0  0  0  0  0  0  0  0  0
    3.1773   -1.8121    0.6409 H   0  0  0  0  0  0  0  0  0  0  0  0
    3.1276   -0.1225    0.0719 H   0  0  0  0  0  0  0  0  0  0  0  0
    4.5362   -1.1384   -0.2897 H   0  0  0  0  0  0  0  0  0  0  0  0
    3.1971   -2.6025   -1.7512 H   0  0  0  0  0  0  0  0  0  0  0  0
    0.9808   -2.3505   -0.5048 H   0  0  0  0  0  0  0  0  0  0  0  0
    0.8830   -2.3112   -2.2707 H   0  0  0  0  0  0  0  0  0  0  0  0
    0.7838    0.1310   -0.4026 H   0  0  0  0  0  0  0  0  0  0  0  0
   -0.5347   -0.5024   -1.3930 H   0  0  0  0  0  0  0  0  0  0  0  0
    0.5698    1.5052   -2.3883 H   0  0  0  0  0  0  0  0  0  0  0  0
    0.6177    0.0904   -3.4736 H   0  0  0  0  0  0  0  0  0  0  0  0
    2.6270    1.2566   -4.5971 H   0  0  0  0  0  0  0  0  0  0  0  0
    4.0513    1.5039   -3.5709 H   0  0  0  0  0  0  0  0  0  0  0  0
    1.4382    3.1222   -3.4641 H   0  0  0  0  0  0  0  0  0  0  0  0
    2.9945    3.6388   -4.1192 H   0  0  0  0  0  0  0  0  0  0  0  0
    4.0129    3.6231   -1.8634 H   0  0  0  0  0  0  0  0  0  0  0  0
    2.5666    2.8322   -1.1852 H   0  0  0  0  0  0  0  0  0  0  0  0
   -0.0356    6.7685   -0.8273 H   0  0  0  0  0  0  0  0  0  0  0  0
    1.8732    8.6690    0.2296 H   0  0  0  0  0  0  0  0  0  0  0  0
    3.5587    8.3181   -0.2524 H   0  0  0  0  0  0  0  0  0  0  0  0
    2.6634    7.1617    0.7729 H   0  0  0  0  0  0  0  0  0  0  0  0
    1.2094    8.9422   -2.2424 H   0  0  0  0  0  0  0  0  0  0  0  0
    1.5481    7.6251   -3.4009 H   0  0  0  0  0  0  0  0  0  0  0  0
    2.8919    8.5965   -2.7373 H   0  0  0  0  0  0  0  0  0  0  0  0
    4.2043   -0.5238   -2.7342 H   0  0  0  0  0  0  0  0  0  0  0  0
    2.8198   -1.1849   -3.6328 H   0  0  0  0  0  0  0  0  0  0  0  0
  1  2  1  0
  1 20  1  0
  1 21  1  0
  1 22  1  0
  2  3  1  0
  2 19  1  0
  2 23  1  6
  3  4  1  0
  3 24  1  0
  3 25  1  0
  4  5  1  0
  4 26  1  0
  4 27  1  0
  5  6  1  0
  5 28  1  0
  5 29  1  0
  6  7  1  0
  6 19  1  0
  7  8  1  0
  7 30  1  0
  7 31  1  0
  8  9  1  0
  8 32  1  0
  8 33  1  0
  9 10  1  0
  9 34  1  0
  9 35  1  0
 10 11  1  0
 10 17  1  0
 11 12  2  0
 11 13  1  0
 13 14  1  0
 13 36  1  0
 14 15  1  1
 14 16  1  0
 14 17  1  0
 15 37  1  0
 15 38  1  0
 15 39  1  0
 16 40  1  0
 16 41  1  0
 16 42  1  0
 17 18  2  0
 19 43  1  0
 19 44  1  0
M  END

