
     RDKit          3D

141147  0  0  0  0  0  0  0  0999 V2000
   15.0695   -4.6340    0.4544 C   0  0  0  0  0  0  0  0  0  0  0  0
   14.9755   -3.3579    1.2919 C   0  0  0  0  0  0  0  0  0  0  0  0
   14.5962   -2.1165    0.4784 C   0  0  0  0  0  0  0  0  0  0  0  0
   14.5002   -0.8341    1.3099 C   0  0  0  0  0  0  0  0  0  0  0  0
   14.1219    0.4080    0.4967 C   0  0  0  0  0  0  0  0  0  0  0  0
   14.0299    1.6863    1.3378 C   0  0  0  0  0  0  0  0  0  0  0  0
   13.7286    2.9684    0.5457 C   0  0  0  0  0  0  0  0  0  0  0  0
   12.3538    3.0428   -0.1364 C   0  0  0  0  0  0  0  0  0  0  0  0
   11.1454    3.1590    0.8050 C   0  0  0  0  0  0  0  0  0  0  0  0
   11.1323    4.3685    1.6297 N   0  0  0  0  0  0  0  0  0  0  0  0
   11.0753    5.7044    1.2360 C   0  0  0  0  0  0  0  0  0  0  0  0
   10.8169    6.2093   -0.1287 C   0  0  0  0  0  0  0  0  0  0  0  0
    9.9939    5.5689   -1.0635 C   0  0  0  0  0  0  0  0  0  0  0  0
    9.7606    6.1373   -2.3307 C   0  0  0  0  0  0  0  0  0  0  0  0
    8.8791    5.4029   -3.2626 C   0  0  0  0  0  0  0  0  0  0  0  0
    7.8436    4.7064   -2.8413 N   0  0  0  0  0  0  0  0  0  0  0  0
    7.2627    4.1758   -3.9698 C   0  0  0  0  0  0  0  0  0  0  0  0
    6.1219    3.3676   -4.1118 C   0  0  0  0  0  0  0  0  0  0  0  0
    5.7497    2.9745   -5.3914 C   0  0  0  0  0  0  0  0  0  0  0  0
    6.4789    3.3646   -6.5457 C   0  0  0  0  0  0  0  0  0  0  0  0
    6.0137    2.9109   -7.9094 C   0  0  0  0  0  0  0  0  0  0  0  0
    7.6138    4.1694   -6.4083 C   0  0  0  0  0  0  0  0  0  0  0  0
    7.9931    4.5667   -5.1180 C   0  0  0  0  0  0  0  0  0  0  0  0
    9.0335    5.3564   -4.6464 N   0  0  0  0  0  0  0  0  0  0  0  0
   10.1633    5.8136   -5.4600 C   0  0  0  0  0  0  0  0  0  0  0  0
   11.4698    5.0435   -5.2136 C   0  0  0  0  0  0  0  0  0  0  0  0
   11.4503    3.5501   -5.5711 C   0  0  0  0  0  0  0  0  0  0  0  0
   11.4412    3.2550   -7.0765 C   0  0  0  0  0  0  0  0  0  0  0  0
   11.3191    1.7667   -7.4388 C   0  0  0  0  0  0  0  0  0  0  0  0
   12.4414    0.8447   -6.9315 C   0  0  0  0  0  0  0  0  0  0  0  0
   13.8877    1.1544   -7.3590 C   0  0  0  0  0  0  0  0  0  0  0  0
   14.2393    0.9530   -8.8457 C   0  0  0  0  0  0  0  0  0  0  0  0
   13.8896    2.1070   -9.7911 C   0  0  0  0  0  0  0  0  0  0  0  0
   10.3073    7.3912   -2.6258 C   0  0  0  0  0  0  0  0  0  0  0  0
   11.1118    8.0669   -1.6903 C   0  0  0  0  0  0  0  0  0  0  0  0
   11.6814    9.3695   -2.0904 C   0  0  0  0  0  0  0  0  0  0  0  0
   12.0758    9.6026   -3.3255 N   0  0  0  0  0  0  0  0  0  0  0  0
   12.5735   10.8854   -3.3226 C   0  0  0  0  0  0  0  0  0  0  0  0
   13.1452   11.6448   -4.3575 C   0  0  0  0  0  0  0  0  0  0  0  0
   13.5813   12.9315   -4.0654 C   0  0  0  0  0  0  0  0  0  0  0  0
   13.4707   13.4939   -2.7661 C   0  0  0  0  0  0  0  0  0  0  0  0
   13.9712   14.8972   -2.5165 C   0  0  0  0  0  0  0  0  0  0  0  0
   12.9023   12.7423   -1.7332 C   0  0  0  0  0  0  0  0  0  0  0  0
   12.4615   11.4440   -2.0268 C   0  0  0  0  0  0  0  0  0  0  0  0
   11.8800   10.4578   -1.2435 N   0  0  0  0  0  0  0  0  0  0  0  0
   11.3910   10.6913    0.1168 C   0  0  0  0  0  0  0  0  0  0  0  0
   10.1410   11.5846    0.1879 C   0  0  0  0  0  0  0  0  0  0  0  0
    8.8555   10.9781   -0.3909 C   0  0  0  0  0  0  0  0  0  0  0  0
    8.2606    9.8243    0.4250 C   0  0  0  0  0  0  0  0  0  0  0  0
    6.9642    9.2627   -0.1681 C   0  0  0  0  0  0  0  0  0  0  0  0
    6.3908    8.0847    0.6277 C   0  0  0  0  0  0  0  0  0  0  0  0
    5.0491    7.5412    0.1167 C   0  0  0  0  0  0  0  0  0  0  0  0
    5.0844    6.9300   -1.2893 C   0  0  0  0  0  0  0  0  0  0  0  0
    3.7549    6.2962   -1.7032 C   0  0  0  0  0  0  0  0  0  0  0  0
   11.3858    7.4538   -0.4634 C   0  0  0  0  0  0  0  0  0  0  0  0
   11.2655    6.5372    2.2402 N   0  0  0  0  0  0  0  0  0  0  0  0
   11.4456    5.7531    3.3536 C   0  0  0  0  0  0  0  0  0  0  0  0
   11.6709    6.1132    4.6934 C   0  0  0  0  0  0  0  0  0  0  0  0
   11.8101    5.0995    5.6325 C   0  0  0  0  0  0  0  0  0  0  0  0
   11.7280    3.7258    5.2813 C   0  0  0  0  0  0  0  0  0  0  0  0
   11.8786    2.6727    6.3537 C   0  0  0  0  0  0  0  0  0  0  0  0
   11.5038    3.3636    3.9499 C   0  0  0  0  0  0  0  0  0  0  0  0
   11.3668    4.3849    2.9984 C   0  0  0  0  0  0  0  0  0  0  0  0
   15.3438   -5.5048    1.0711 H   0  0  0  0  0  0  0  0  0  0  0  0
   15.8285   -4.5373   -0.3402 H   0  0  0  0  0  0  0  0  0  0  0  0
   14.1086   -4.8637   -0.0362 H   0  0  0  0  0  0  0  0  0  0  0  0
   15.9409   -3.1775    1.7993 H   0  0  0  0  0  0  0  0  0  0  0  0
   14.2358   -3.5011    2.1008 H   0  0  0  0  0  0  0  0  0  0  0  0
   13.6301   -2.2959   -0.0299 H   0  0  0  0  0  0  0  0  0  0  0  0
   15.3361   -1.9719   -0.3312 H   0  0  0  0  0  0  0  0  0  0  0  0
   15.4657   -0.6558    1.8188 H   0  0  0  0  0  0  0  0  0  0  0  0
   13.7600   -0.9791    2.1191 H   0  0  0  0  0  0  0  0  0  0  0  0
   13.1613    0.2186   -0.0159 H   0  0  0  0  0  0  0  0  0  0  0  0
   14.8653    0.5569   -0.3089 H   0  0  0  0  0  0  0  0  0  0  0  0
   14.9877    1.8294    1.8687 H   0  0  0  0  0  0  0  0  0  0  0  0
   13.2791    1.5462    2.1362 H   0  0  0  0  0  0  0  0  0  0  0  0
   14.5016    3.0892   -0.2338 H   0  0  0  0  0  0  0  0  0  0  0  0
   13.8440    3.8390    1.2139 H   0  0  0  0  0  0  0  0  0  0  0  0
   12.1891    2.1516   -0.7662 H   0  0  0  0  0  0  0  0  0  0  0  0
   12.3426    3.8996   -0.8288 H   0  0  0  0  0  0  0  0  0  0  0  0
   11.1186    2.3085    1.5000 H   0  0  0  0  0  0  0  0  0  0  0  0
   10.2141    3.0977    0.2245 H   0  0  0  0  0  0  0  0  0  0  0  0
    9.4867    4.6336   -0.8348 H   0  0  0  0  0  0  0  0  0  0  0  0
    5.5516    3.0641   -3.2314 H   0  0  0  0  0  0  0  0  0  0  0  0
    4.8644    2.3454   -5.5212 H   0  0  0  0  0  0  0  0  0  0  0  0
    4.9966    3.2782   -8.1286 H   0  0  0  0  0  0  0  0  0  0  0  0
    5.9760    1.8103   -7.9753 H   0  0  0  0  0  0  0  0  0  0  0  0
    6.6788    3.2718   -8.7079 H   0  0  0  0  0  0  0  0  0  0  0  0
    8.1750    4.4780   -7.2931 H   0  0  0  0  0  0  0  0  0  0  0  0
   10.3353    6.8844   -5.2886 H   0  0  0  0  0  0  0  0  0  0  0  0
    9.8499    5.7231   -6.5093 H   0  0  0  0  0  0  0  0  0  0  0  0
   11.7482    5.1672   -4.1547 H   0  0  0  0  0  0  0  0  0  0  0  0
   12.2615    5.5533   -5.7911 H   0  0  0  0  0  0  0  0  0  0  0  0
   10.5798    3.0651   -5.0932 H   0  0  0  0  0  0  0  0  0  0  0  0
   12.3385    3.0824   -5.1142 H   0  0  0  0  0  0  0  0  0  0  0  0
   12.3519    3.6832   -7.5323 H   0  0  0  0  0  0  0  0  0  0  0  0
   10.5979    3.7860   -7.5513 H   0  0  0  0  0  0  0  0  0  0  0  0
   11.2313    1.6762   -8.5345 H   0  0  0  0  0  0  0  0  0  0  0  0
   10.3617    1.3882   -7.0374 H   0  0  0  0  0  0  0  0  0  0  0  0
   12.2022   -0.1882   -7.2434 H   0  0  0  0  0  0  0  0  0  0  0  0
   12.4118    0.8257   -5.8277 H   0  0  0  0  0  0  0  0  0  0  0  0
   14.5409    0.4900   -6.7671 H   0  0  0  0  0  0  0  0  0  0  0  0
   14.1673    2.1796   -7.0534 H   0  0  0  0  0  0  0  0  0  0  0  0
   13.7659    0.0206   -9.2054 H   0  0  0  0  0  0  0  0  0  0  0  0
   15.3268    0.7755   -8.9176 H   0  0  0  0  0  0  0  0  0  0  0  0
   12.8065    2.2905   -9.8543 H   0  0  0  0  0  0  0  0  0  0  0  0
   14.2456    1.8996  -10.8134 H   0  0  0  0  0  0  0  0  0  0  0  0
   14.3652    3.0466   -9.4626 H   0  0  0  0  0  0  0  0  0  0  0  0
   10.1043    7.8904   -3.5713 H   0  0  0  0  0  0  0  0  0  0  0  0
   13.2399   11.2225   -5.3602 H   0  0  0  0  0  0  0  0  0  0  0  0
   14.0282   13.5373   -4.8592 H   0  0  0  0  0  0  0  0  0  0  0  0
   15.0488   14.9842   -2.7367 H   0  0  0  0  0  0  0  0  0  0  0  0
   13.8174   15.2046   -1.4715 H   0  0  0  0  0  0  0  0  0  0  0  0
   13.4543   15.6284   -3.1610 H   0  0  0  0  0  0  0  0  0  0  0  0
   12.8148   13.1645   -0.7296 H   0  0  0  0  0  0  0  0  0  0  0  0
   12.2117   11.1579    0.6857 H   0  0  0  0  0  0  0  0  0  0  0  0
   11.1947    9.7249    0.5931 H   0  0  0  0  0  0  0  0  0  0  0  0
   10.3575   12.5391   -0.3190 H   0  0  0  0  0  0  0  0  0  0  0  0
    9.9820   11.8325    1.2527 H   0  0  0  0  0  0  0  0  0  0  0  0
    9.0387   10.6442   -1.4283 H   0  0  0  0  0  0  0  0  0  0  0  0
    8.1023   11.7818   -0.4717 H   0  0  0  0  0  0  0  0  0  0  0  0
    8.0704   10.1720    1.4578 H   0  0  0  0  0  0  0  0  0  0  0  0
    8.9929    9.0033    0.5174 H   0  0  0  0  0  0  0  0  0  0  0  0
    7.1551    8.9520   -1.2103 H   0  0  0  0  0  0  0  0  0  0  0  0
    6.2083   10.0690   -0.2267 H   0  0  0  0  0  0  0  0  0  0  0  0
    6.2692    8.3951    1.6814 H   0  0  0  0  0  0  0  0  0  0  0  0
    7.1326    7.2651    0.6404 H   0  0  0  0  0  0  0  0  0  0  0  0
    4.2922    8.3486    0.1456 H   0  0  0  0  0  0  0  0  0  0  0  0
    4.6909    6.7731    0.8264 H   0  0  0  0  0  0  0  0  0  0  0  0
    5.8870    6.1732   -1.3446 H   0  0  0  0  0  0  0  0  0  0  0  0
    5.3564    7.7057   -2.0268 H   0  0  0  0  0  0  0  0  0  0  0  0
    3.4645    5.4869   -1.0115 H   0  0  0  0  0  0  0  0  0  0  0  0
    3.8125    5.8632   -2.7147 H   0  0  0  0  0  0  0  0  0  0  0  0
    2.9359    7.0360   -1.7023 H   0  0  0  0  0  0  0  0  0  0  0  0
   12.0526    7.9153    0.2630 H   0  0  0  0  0  0  0  0  0  0  0  0
   11.7306    7.1668    4.9744 H   0  0  0  0  0  0  0  0  0  0  0  0
   11.9857    5.3605    6.6801 H   0  0  0  0  0  0  0  0  0  0  0  0
   12.8533    2.7559    6.8637 H   0  0  0  0  0  0  0  0  0  0  0  0
   11.8028    1.6561    5.9402 H   0  0  0  0  0  0  0  0  0  0  0  0
   11.1023    2.7775    7.1305 H   0  0  0  0  0  0  0  0  0  0  0  0
   11.4322    2.3086    3.6766 H   0  0  0  0  0  0  0  0  0  0  0  0
  1  2  1  0
  1 64  1  0
  1 65  1  0
  1 66  1  0
  2  3  1  0
  2 67  1  0
  2 68  1  0
  3  4  1  0
  3 69  1  0
  3 70  1  0
  4  5  1  0
  4 71  1  0
  4 72  1  0
  5  6  1  0
  5 73  1  0
  5 74  1  0
  6  7  1  0
  6 75  1  0
  6 76  1  0
  7  8  1  0
  7 77  1  0
  7 78  1  0
  8  9  1  0
  8 79  1  0
  8 80  1  0
  9 10  1  0
  9 81  1  0
  9 82  1  0
 10 11  1  0
 10 63  1  0
 11 12  1  0
 11 56  2  0
 12 13  2  0
 12 55  1  0
 13 14  1  0
 13 83  1  0
 14 15  1  0
 14 34  2  0
 15 16  2  0
 15 24  1  0
 16 17  1  0
 17 18  2  0
 17 23  1  0
 18 19  1  0
 18 84  1  0
 19 20  2  0
 19 85  1  0
 20 21  1  0
 20 22  1  0
 21 86  1  0
 21 87  1  0
 21 88  1  0
 22 23  2  0
 22 89  1  0
 23 24  1  0
 24 25  1  0
 25 26  1  0
 25 90  1  0
 25 91  1  0
 26 27  1  0
 26 92  1  0
 26 93  1  0
 27 28  1  0
 27 94  1  0
 27 95  1  0
 28 29  1  0
 28 96  1  0
 28 97  1  0
 29 30  1  0
 29 98  1  0
 29 99  1  0
 30 31  1  0
 30100  1  0
 30101  1  0
 31 32  1  0
 31102  1  0
 31103  1  0
 32 33  1  0
 32104  1  0
 32105  1  0
 33106  1  0
 33107  1  0
 33108  1  0
 34 35  1  0
 34109  1  0
 35 36  1  0
 35 55  2  0
 36 37  2  0
 36 45  1  0
 37 38  1  0
 38 39  2  0
 38 44  1  0
 39 40  1  0
 39110  1  0
 40 41  2  0
 40111  1  0
 41 42  1  0
 41 43  1  0
 42112  1  0
 42113  1  0
 42114  1  0
 43 44  2  0
 43115  1  0
 44 45  1  0
 45 46  1  0
 46 47  1  0
 46116  1  0
 46117  1  0
 47 48  1  0
 47118  1  0
 47119  1  0
 48 49  1  0
 48120  1  0
 48121  1  0
 49 50  1  0
 49122  1  0
 49123  1  0
 50 51  1  0
 50124  1  0
 50125  1  0
 51 52  1  0
 51126  1  0
 51127  1  0
 52 53  1  0
 52128  1  0
 52129  1  0
 53 54  1  0
 53130  1  0
 53131  1  0
 54132  1  0
 54133  1  0
 54134  1  0
 55135  1  0
 56 57  1  0
 57 58  1  0
 57 63  2  0
 58 59  2  0
 58136  1  0
 59 60  1  0
 59137  1  0
 60 61  1  0
 60 62  2  0
 61138  1  0
 61139  1  0
 61140  1  0
 62 63  1  0
 62141  1  0
M  END

