
     RDKit          3D

 40 43  0  0  0  0  0  0  0  0999 V2000
    5.7136    3.1785    5.1424 C   0  0  0  0  0  0  0  0  0  0  0  0
    5.6157    2.3012    3.9378 C   0  0  0  0  0  0  0  0  0  0  0  0
    6.0521    1.0684    3.9634 N   0  0  0  0  0  0  0  0  0  0  0  0
    5.8301    0.4960    2.7084 O   0  0  0  0  0  0  0  0  0  0  0  0
    5.2503    1.4143    1.9165 C   0  0  0  0  0  0  0  0  0  0  0  0
    4.9013    1.1756    0.6639 N   0  0  0  0  0  0  0  0  0  0  0  0
    4.3425    2.2094    0.0383 C   0  0  0  0  0  0  0  0  0  0  0  0
    4.1392    3.4728    0.6426 C   0  0  0  0  0  0  0  0  0  0  0  0
    3.4014    4.8090   -0.3119 S   0  0  1  0  0  0  0  0  0  0  0  0
    2.5168    4.1803   -1.2919 O   0  0  0  0  0  0  0  0  0  0  0  0
    2.9176    5.7935    0.6605 O   0  0  0  0  0  0  0  0  0  0  0  0
    4.6254    5.5590   -1.1735 N   0  0  0  0  0  0  0  0  0  0  0  0
    5.1478    4.9197   -2.3938 C   0  0  0  0  0  0  0  0  0  0  0  0
    5.5039    5.9858   -3.4320 C   0  0  0  0  0  0  0  0  0  0  0  0
    6.4354    7.0488   -2.8415 C   0  0  0  0  0  0  0  0  0  0  0  0
    5.8042    7.6712   -1.5933 C   0  0  0  0  0  0  0  0  0  0  0  0
    5.4151    6.6162   -0.5294 C   0  0  2  0  0  0  0  0  0  0  0  0
    6.6225    6.0936    0.2311 C   0  0  0  0  0  0  0  0  0  0  0  0
    7.4800    5.2157   -0.2029 N   0  0  0  0  0  0  0  0  0  0  0  0
    8.4792    4.9819    0.7060 C   0  0  0  0  0  0  0  0  0  0  0  0
    8.4027    5.7003    1.8697 C   0  0  0  0  0  0  0  0  0  0  0  0
    7.0021    6.7153    1.8354 S   0  0  0  0  0  0  0  0  0  0  0  0
    4.4944    3.6946    1.9730 C   0  0  0  0  0  0  0  0  0  0  0  0
    5.0791    2.6119    2.6357 C   0  0  0  0  0  0  0  0  0  0  0  0
    6.2103    2.6401    5.9605 H   0  0  0  0  0  0  0  0  0  0  0  0
    4.7127    3.4921    5.4805 H   0  0  0  0  0  0  0  0  0  0  0  0
    6.2868    4.0912    4.9134 H   0  0  0  0  0  0  0  0  0  0  0  0
    4.0117    2.0484   -0.9921 H   0  0  0  0  0  0  0  0  0  0  0  0
    4.3604    4.2622   -2.7835 H   0  0  0  0  0  0  0  0  0  0  0  0
    6.0365    4.3122   -2.1513 H   0  0  0  0  0  0  0  0  0  0  0  0
    4.5744    6.4622   -3.7893 H   0  0  0  0  0  0  0  0  0  0  0  0
    5.9717    5.4927   -4.2998 H   0  0  0  0  0  0  0  0  0  0  0  0
    6.6404    7.8369   -3.5843 H   0  0  0  0  0  0  0  0  0  0  0  0
    7.4050    6.5913   -2.5828 H   0  0  0  0  0  0  0  0  0  0  0  0
    4.8800    8.2042   -1.8737 H   0  0  0  0  0  0  0  0  0  0  0  0
    6.4785    8.4083   -1.1288 H   0  0  0  0  0  0  0  0  0  0  0  0
    4.7509    7.1042    0.1954 H   0  0  0  0  0  0  0  0  0  0  0  0
    9.2650    4.2615    0.4715 H   0  0  0  0  0  0  0  0  0  0  0  0
    9.0796    5.6850    2.7221 H   0  0  0  0  0  0  0  0  0  0  0  0
    4.3071    4.6595    2.4469 H   0  0  0  0  0  0  0  0  0  0  0  0
  1  2  1  0
  1 25  1  0
  1 26  1  0
  1 27  1  0
  2  3  2  0
  2 24  1  0
  3  4  1  0
  4  5  1  0
  5  6  1  0
  5 24  2  0
  6  7  2  0
  7  8  1  0
  7 28  1  0
  9  8  1  1
  8 23  2  0
  9 10  2  0
  9 11  2  0
  9 12  1  0
 12 13  1  0
 12 17  1  0
 13 14  1  0
 13 29  1  0
 13 30  1  0
 14 15  1  0
 14 31  1  0
 14 32  1  0
 15 16  1  0
 15 33  1  0
 15 34  1  0
 16 17  1  0
 16 35  1  0
 16 36  1  0
 17 18  1  0
 17 37  1  1
 18 19  2  0
 18 22  1  0
 19 20  1  0
 20 21  2  0
 20 38  1  0
 21 22  1  0
 21 39  1  0
 23 24  1  0
 23 40  1  0
M  END

