
     RDKit          3D

 46 49  0  0  0  0  0  0  0  0999 V2000
    2.5990    0.8844    5.5546 C   0  0  0  0  0  0  0  0  0  0  0  0
    1.9982   -0.2426    4.9582 O   0  0  0  0  0  0  0  0  0  0  0  0
    2.7694   -1.3048    4.6168 C   0  0  0  0  0  0  0  0  0  0  0  0
    2.1031   -2.3972    4.0356 C   0  0  0  0  0  0  0  0  0  0  0  0
    2.7998   -3.5362    3.6496 C   0  0  0  0  0  0  0  0  0  0  0  0
    4.1940   -3.6093    3.8277 C   0  0  0  0  0  0  0  0  0  0  0  0
    4.9448   -4.7553    3.5011 N   0  0  0  0  0  0  0  0  0  0  0  0
    4.7146   -5.7681    2.6338 C   0  0  0  0  0  0  0  0  0  0  0  0
    3.9184   -6.0111    1.5398 C   0  0  0  0  0  0  0  0  0  0  0  0
    3.0560   -5.1278    0.7405 C   0  0  0  0  0  0  0  0  0  0  0  0
    3.4077   -3.7789    0.5267 C   0  0  0  0  0  0  0  0  0  0  0  0
    2.6071   -2.9430   -0.2533 C   0  0  0  0  0  0  0  0  0  0  0  0
    1.4378   -3.4352   -0.8400 C   0  0  0  0  0  0  0  0  0  0  0  0
    1.0805   -4.7735   -0.6447 C   0  0  0  0  0  0  0  0  0  0  0  0
    1.8793   -5.6136    0.1321 C   0  0  0  0  0  0  0  0  0  0  0  0
    4.1724   -7.4190    1.1337 C   0  0  0  0  0  0  0  0  0  0  0  0
    3.6585   -8.0490    0.2407 O   0  0  0  0  0  0  0  0  0  0  0  0
    5.1868   -7.9583    1.9992 N   0  0  0  0  0  0  0  0  0  0  0  0
    5.7152   -9.2792    1.9250 C   0  0  0  0  0  0  0  0  0  0  0  0
    5.9194   -9.8882    0.6769 C   0  0  0  0  0  0  0  0  0  0  0  0
    6.4326  -11.1853    0.6152 C   0  0  0  0  0  0  0  0  0  0  0  0
    6.7594  -11.8782    1.7841 C   0  0  0  0  0  0  0  0  0  0  0  0
    6.5626  -11.2646    3.0242 C   0  0  0  0  0  0  0  0  0  0  0  0
    6.0366   -9.9737    3.1018 C   0  0  0  0  0  0  0  0  0  0  0  0
    5.5467   -6.9976    2.9228 C   0  0  0  0  0  0  0  0  0  0  0  0
    6.3636   -7.0737    3.8172 O   0  0  0  0  0  0  0  0  0  0  0  0
    4.8564   -2.5202    4.4116 C   0  0  0  0  0  0  0  0  0  0  0  0
    4.1583   -1.3779    4.8095 C   0  0  0  0  0  0  0  0  0  0  0  0
    1.7930    1.6060    5.7437 H   0  0  0  0  0  0  0  0  0  0  0  0
    3.3478    1.3524    4.8898 H   0  0  0  0  0  0  0  0  0  0  0  0
    3.0851    0.6326    6.5148 H   0  0  0  0  0  0  0  0  0  0  0  0
    1.0217   -2.3328    3.9011 H   0  0  0  0  0  0  0  0  0  0  0  0
    2.2566   -4.3796    3.2246 H   0  0  0  0  0  0  0  0  0  0  0  0
    5.7248   -4.9714    4.1234 H   0  0  0  0  0  0  0  0  0  0  0  0
    4.3309   -3.3881    0.9587 H   0  0  0  0  0  0  0  0  0  0  0  0
    2.9025   -1.9020   -0.4072 H   0  0  0  0  0  0  0  0  0  0  0  0
    0.8106   -2.7809   -1.4508 H   0  0  0  0  0  0  0  0  0  0  0  0
    0.1705   -5.1691   -1.1032 H   0  0  0  0  0  0  0  0  0  0  0  0
    1.5993   -6.6582    0.2669 H   0  0  0  0  0  0  0  0  0  0  0  0
    5.6636   -9.3542   -0.2366 H   0  0  0  0  0  0  0  0  0  0  0  0
    6.5827  -11.6541   -0.3606 H   0  0  0  0  0  0  0  0  0  0  0  0
    7.1662  -12.8909    1.7288 H   0  0  0  0  0  0  0  0  0  0  0  0
    6.8153  -11.7953    3.9457 H   0  0  0  0  0  0  0  0  0  0  0  0
    5.8895   -9.4988    4.0709 H   0  0  0  0  0  0  0  0  0  0  0  0
    5.9392   -2.5647    4.5569 H   0  0  0  0  0  0  0  0  0  0  0  0
    4.7094   -0.5533    5.2614 H   0  0  0  0  0  0  0  0  0  0  0  0
  1  2  1  0
  1 29  1  0
  1 30  1  0
  1 31  1  0
  2  3  1  0
  3  4  2  0
  3 28  1  0
  4  5  1  0
  4 32  1  0
  5  6  2  0
  5 33  1  0
  6  7  1  0
  6 27  1  0
  7  8  1  0
  7 34  1  0
  8  9  2  0
  8 25  1  0
  9 10  1  0
  9 16  1  0
 10 11  2  0
 10 15  1  0
 11 12  1  0
 11 35  1  0
 12 13  2  0
 12 36  1  0
 13 14  1  0
 13 37  1  0
 14 15  2  0
 14 38  1  0
 15 39  1  0
 16 17  2  0
 16 18  1  0
 18 19  1  0
 18 25  1  0
 19 20  2  0
 19 24  1  0
 20 21  1  0
 20 40  1  0
 21 22  2  0
 21 41  1  0
 22 23  1  0
 22 42  1  0
 23 24  2  0
 23 43  1  0
 24 44  1  0
 25 26  2  0
 27 28  2  0
 27 45  1  0
 28 46  1  0
M  END

