
     RDKit          3D

 36 36  0  0  0  0  0  0  0  0999 V2000
    2.9647    0.9702   -0.7338 C   0  0  0  0  0  0  0  0  0  0  0  0
    2.0495    0.2400    0.2665 C   0  0  0  0  0  0  0  0  0  0  0  0
    2.7366   -0.8082    1.1115 C   0  0  0  0  0  0  0  0  0  0  0  0
    3.3249   -0.5084    2.3636 C   0  0  0  0  0  0  0  0  0  0  0  0
    3.3099    0.7607    2.8774 N   0  0  0  0  0  0  0  0  0  0  0  0
    3.9640    1.1113    4.1203 C   0  0  0  0  0  0  0  0  0  0  0  0
    3.9097   -1.4531    3.1295 N   0  0  0  0  0  0  0  0  0  0  0  0
    3.9196   -2.6848    2.6392 C   0  0  0  0  0  0  0  0  0  0  0  0
    3.4409   -3.0953    1.4715 N   0  0  0  0  0  0  0  0  0  0  0  0
    2.8571   -2.1553    0.6985 C   0  0  0  0  0  0  0  0  0  0  0  0
    2.3587   -2.5738   -0.5111 N   0  0  0  0  0  0  0  0  0  0  0  0
    2.5955   -3.9108   -1.0525 C   0  0  1  0  0  0  0  0  0  0  0  0
    1.6586   -4.9541   -0.4306 C   0  0  0  0  0  0  0  0  0  0  0  0
    2.4224   -3.8765   -2.5748 C   0  0  0  0  0  0  0  0  0  0  0  0
    3.5703   -2.6824   -3.3690 S   0  0  0  0  0  0  0  0  0  0  0  0
    2.9333   -2.7426   -5.0731 C   0  0  0  0  0  0  0  0  0  0  0  0
    2.4089    1.7393   -1.2952 H   0  0  0  0  0  0  0  0  0  0  0  0
    3.4008    0.2699   -1.4640 H   0  0  0  0  0  0  0  0  0  0  0  0
    3.8035    1.4664   -0.2191 H   0  0  0  0  0  0  0  0  0  0  0  0
    1.2107   -0.2270   -0.2789 H   0  0  0  0  0  0  0  0  0  0  0  0
    1.5649    0.9792    0.9289 H   0  0  0  0  0  0  0  0  0  0  0  0
    3.0333    1.5122    2.2635 H   0  0  0  0  0  0  0  0  0  0  0  0
    3.6555    0.4279    4.9241 H   0  0  0  0  0  0  0  0  0  0  0  0
    3.6776    2.1371    4.3951 H   0  0  0  0  0  0  0  0  0  0  0  0
    5.0662    1.0570    4.0540 H   0  0  0  0  0  0  0  0  0  0  0  0
    4.3860   -3.4546    3.2690 H   0  0  0  0  0  0  0  0  0  0  0  0
    2.1716   -1.8523   -1.1956 H   0  0  0  0  0  0  0  0  0  0  0  0
    3.6330   -4.2054   -0.8156 H   0  0  0  0  0  0  0  0  0  0  0  0
    0.6044   -4.7071   -0.6373 H   0  0  0  0  0  0  0  0  0  0  0  0
    1.8104   -4.9775    0.6569 H   0  0  0  0  0  0  0  0  0  0  0  0
    1.8707   -5.9584   -0.8321 H   0  0  0  0  0  0  0  0  0  0  0  0
    1.3853   -3.5950   -2.8306 H   0  0  0  0  0  0  0  0  0  0  0  0
    2.6058   -4.8832   -2.9813 H   0  0  0  0  0  0  0  0  0  0  0  0
    3.5416   -2.0450   -5.6662 H   0  0  0  0  0  0  0  0  0  0  0  0
    1.8800   -2.4251   -5.1223 H   0  0  0  0  0  0  0  0  0  0  0  0
    3.0337   -3.7511   -5.5034 H   0  0  0  0  0  0  0  0  0  0  0  0
  1  2  1  0
  1 17  1  0
  1 18  1  0
  1 19  1  0
  2  3  1  0
  2 20  1  0
  2 21  1  0
  3  4  2  0
  3 10  1  0
  4  5  1  0
  4  7  1  0
  5  6  1  0
  5 22  1  0
  6 23  1  0
  6 24  1  0
  6 25  1  0
  7  8  2  0
  8  9  1  0
  8 26  1  0
  9 10  2  0
 10 11  1  0
 11 12  1  0
 11 27  1  0
 12 13  1  0
 12 14  1  0
 12 28  1  6
 13 29  1  0
 13 30  1  0
 13 31  1  0
 14 15  1  0
 14 32  1  0
 14 33  1  0
 15 16  1  0
 16 34  1  0
 16 35  1  0
 16 36  1  0
M  END

