
     RDKit          3D

 68 70  0  0  0  0  0  0  0  0999 V2000
    1.3490   -0.5976    1.0398 C   0  0  0  0  0  0  0  0  0  0  0  0
    2.8185   -0.5099    1.4751 C   0  0  1  0  0  0  0  0  0  0  0  0
    3.0283   -1.2130    2.8227 C   0  0  0  0  0  0  0  0  0  0  0  0
    3.7292   -1.0308    0.3341 C   0  0  1  0  0  0  0  0  0  0  0  0
    3.4814   -0.3133   -0.8643 O   0  0  0  0  0  0  0  0  0  0  0  0
    5.2775   -1.0435    0.5972 C   0  0  1  0  0  0  0  0  0  0  0  0
    5.6978    0.2879    1.2007 C   0  0  0  0  0  0  0  0  0  0  0  0
    6.0536    0.4757    2.3386 O   0  0  0  0  0  0  0  0  0  0  0  0
    5.5766    1.2887    0.2899 O   0  0  0  0  0  0  0  0  0  0  0  0
    5.9266    2.6344    0.7062 C   0  0  0  0  0  0  0  0  0  0  0  0
    4.7343    3.4030    1.2203 C   0  0  0  0  0  0  0  0  0  0  0  0
    4.3678    3.3373    2.5751 C   0  0  0  0  0  0  0  0  0  0  0  0
    3.2530    4.0388    3.0408 C   0  0  0  0  0  0  0  0  0  0  0  0
    2.4904    4.8132    2.1601 C   0  0  0  0  0  0  0  0  0  0  0  0
    2.8477    4.8855    0.8106 C   0  0  0  0  0  0  0  0  0  0  0  0
    3.9636    4.1843    0.3456 C   0  0  0  0  0  0  0  0  0  0  0  0
    5.8972   -2.2346    1.3804 C   0  0  1  0  0  0  0  0  0  0  0  0
    5.3488   -3.6009    0.9301 C   0  0  0  0  0  0  0  0  0  0  0  0
    7.4205   -2.2043    1.2717 C   0  0  0  0  0  0  0  0  0  0  0  0
    8.2236   -1.9897    2.4005 C   0  0  0  0  0  0  0  0  0  0  0  0
    9.6185   -1.9807    2.3346 C   0  0  0  0  0  0  0  0  0  0  0  0
   10.2573   -2.1888    1.1012 C   0  0  0  0  0  0  0  0  0  0  0  0
   11.6549   -2.1955    0.9388 N   0  0  0  0  0  0  0  0  0  0  0  0
   12.6277   -2.0279    1.8883 C   0  0  0  0  0  0  0  0  0  0  0  0
   12.4602   -1.8429    3.0746 O   0  0  0  0  0  0  0  0  0  0  0  0
   13.8401   -2.0948    1.2831 O   0  0  0  0  0  0  0  0  0  0  0  0
   15.0036   -1.9817    2.1277 C   0  0  0  0  0  0  0  0  0  0  0  0
   15.5091   -3.3294    2.5856 C   0  0  0  0  0  0  0  0  0  0  0  0
   16.5322   -3.9814    1.8815 C   0  0  0  0  0  0  0  0  0  0  0  0
   16.9935   -5.2358    2.2906 C   0  0  0  0  0  0  0  0  0  0  0  0
   16.4321   -5.8543    3.4114 C   0  0  0  0  0  0  0  0  0  0  0  0
   15.4106   -5.2130    4.1201 C   0  0  0  0  0  0  0  0  0  0  0  0
   14.9519   -3.9582    3.7117 C   0  0  0  0  0  0  0  0  0  0  0  0
    9.4667   -2.4007   -0.0420 C   0  0  0  0  0  0  0  0  0  0  0  0
    8.0763   -2.4078    0.0465 C   0  0  0  0  0  0  0  0  0  0  0  0
    0.6898   -0.1247    1.7852 H   0  0  0  0  0  0  0  0  0  0  0  0
    1.0336   -1.6506    0.9358 H   0  0  0  0  0  0  0  0  0  0  0  0
    1.1958   -0.1042    0.0705 H   0  0  0  0  0  0  0  0  0  0  0  0
    3.0590    0.5614    1.6131 H   0  0  0  0  0  0  0  0  0  0  0  0
    2.8948   -2.3047    2.7343 H   0  0  0  0  0  0  0  0  0  0  0  0
    2.2857   -0.8551    3.5538 H   0  0  0  0  0  0  0  0  0  0  0  0
    4.0226   -1.0158    3.2463 H   0  0  0  0  0  0  0  0  0  0  0  0
    3.4332   -2.0671    0.1081 H   0  0  0  0  0  0  0  0  0  0  0  0
    3.8923    0.5593   -0.7638 H   0  0  0  0  0  0  0  0  0  0  0  0
    5.6888   -1.0694   -0.4238 H   0  0  0  0  0  0  0  0  0  0  0  0
    6.3331    3.1035   -0.1999 H   0  0  0  0  0  0  0  0  0  0  0  0
    6.7136    2.5633    1.4683 H   0  0  0  0  0  0  0  0  0  0  0  0
    4.9609    2.7251    3.2582 H   0  0  0  0  0  0  0  0  0  0  0  0
    2.9791    3.9826    4.0975 H   0  0  0  0  0  0  0  0  0  0  0  0
    1.6194    5.3627    2.5265 H   0  0  0  0  0  0  0  0  0  0  0  0
    2.2580    5.4921    0.1185 H   0  0  0  0  0  0  0  0  0  0  0  0
    4.2436    4.2485   -0.7102 H   0  0  0  0  0  0  0  0  0  0  0  0
    5.6569   -2.1097    2.4446 H   0  0  0  0  0  0  0  0  0  0  0  0
    5.4529   -3.7493   -0.1573 H   0  0  0  0  0  0  0  0  0  0  0  0
    4.2854   -3.7247    1.1829 H   0  0  0  0  0  0  0  0  0  0  0  0
    5.9032   -4.4097    1.4297 H   0  0  0  0  0  0  0  0  0  0  0  0
    7.7448   -1.8106    3.3663 H   0  0  0  0  0  0  0  0  0  0  0  0
   10.2170   -1.8113    3.2270 H   0  0  0  0  0  0  0  0  0  0  0  0
   12.0025   -2.3473   -0.0011 H   0  0  0  0  0  0  0  0  0  0  0  0
   14.7523   -1.3423    2.9851 H   0  0  0  0  0  0  0  0  0  0  0  0
   15.7546   -1.4778    1.5038 H   0  0  0  0  0  0  0  0  0  0  0  0
   16.9751   -3.4995    1.0047 H   0  0  0  0  0  0  0  0  0  0  0  0
   17.7938   -5.7305    1.7341 H   0  0  0  0  0  0  0  0  0  0  0  0
   16.7920   -6.8347    3.7344 H   0  0  0  0  0  0  0  0  0  0  0  0
   14.9703   -5.6919    4.9986 H   0  0  0  0  0  0  0  0  0  0  0  0
   14.1490   -3.4575    4.2577 H   0  0  0  0  0  0  0  0  0  0  0  0
    9.9487   -2.5645   -1.0107 H   0  0  0  0  0  0  0  0  0  0  0  0
    7.4984   -2.5805   -0.8658 H   0  0  0  0  0  0  0  0  0  0  0  0
  1  2  1  0
  1 36  1  0
  1 37  1  0
  1 38  1  0
  2  3  1  0
  2  4  1  0
  2 39  1  1
  3 40  1  0
  3 41  1  0
  3 42  1  0
  4  5  1  0
  4  6  1  0
  4 43  1  6
  5 44  1  0
  6  7  1  0
  6 17  1  0
  6 45  1  6
  7  8  2  0
  7  9  1  0
  9 10  1  0
 10 11  1  0
 10 46  1  0
 10 47  1  0
 11 12  2  0
 11 16  1  0
 12 13  1  0
 12 48  1  0
 13 14  2  0
 13 49  1  0
 14 15  1  0
 14 50  1  0
 15 16  2  0
 15 51  1  0
 16 52  1  0
 17 18  1  0
 17 19  1  0
 17 53  1  1
 18 54  1  0
 18 55  1  0
 18 56  1  0
 19 20  2  0
 19 35  1  0
 20 21  1  0
 20 57  1  0
 21 22  2  0
 21 58  1  0
 22 23  1  0
 22 34  1  0
 23 24  1  0
 23 59  1  0
 24 25  2  0
 24 26  1  0
 26 27  1  0
 27 28  1  0
 27 60  1  0
 27 61  1  0
 28 29  2  0
 28 33  1  0
 29 30  1  0
 29 62  1  0
 30 31  2  0
 30 63  1  0
 31 32  1  0
 31 64  1  0
 32 33  2  0
 32 65  1  0
 33 66  1  0
 34 35  2  0
 34 67  1  0
 35 68  1  0
M  END

