
     RDKit          3D

 49 51  0  0  0  0  0  0  0  0999 V2000
    1.1582    0.2027    0.0430 C   0  0  0  0  0  0  0  0  0  0  0  0
    2.6464   -0.0301   -0.2366 C   0  0  1  0  0  0  0  0  0  0  0  0
    3.4589    1.2246    0.1473 C   0  0  0  0  0  0  0  0  0  0  0  0
    4.7808    0.7269    0.5033 N   0  0  0  0  0  0  0  0  0  0  0  0
    5.8695    1.4748    0.8487 C   0  0  0  0  0  0  0  0  0  0  0  0
    6.9279    0.9542    1.1791 O   0  0  0  0  0  0  0  0  0  0  0  0
    5.7007    2.9896    0.7844 C   0  0  0  0  0  0  0  0  0  0  0  0
    6.8712    3.7149    1.4550 C   0  0  0  0  0  0  0  0  0  0  0  0
    6.8276    5.1590    1.2830 N   0  0  0  0  0  0  0  0  0  0  0  0
    5.9412    5.9372    1.9701 C   0  0  0  0  0  0  0  0  0  0  0  0
    5.1160    5.4640    2.7411 O   0  0  0  0  0  0  0  0  0  0  0  0
    6.0122    7.4100    1.7421 C   0  0  0  0  0  0  0  0  0  0  0  0
    5.1403    8.3191    2.2999 C   0  0  0  0  0  0  0  0  0  0  0  0
    5.4200    9.6646    1.9303 C   0  0  0  0  0  0  0  0  0  0  0  0
    6.5056    9.7687    1.0940 C   0  0  0  0  0  0  0  0  0  0  0  0
    7.1996    8.2246    0.7533 S   0  0  0  0  0  0  0  0  0  0  0  0
    4.8304   -0.7283    0.5536 C   0  0  0  0  0  0  0  0  0  0  0  0
    3.3508   -1.1735    0.5419 C   0  0  2  0  0  0  0  0  0  0  0  0
    3.2433   -2.5102   -0.0473 N   0  0  0  0  0  0  0  0  0  0  0  0
    3.8600   -3.5739    0.7537 C   0  0  0  0  0  0  0  0  0  0  0  0
    2.9216   -4.1110    1.8397 C   0  0  0  0  0  0  0  0  0  0  0  0
    1.6978   -4.5543    1.2815 O   0  0  0  0  0  0  0  0  0  0  0  0
    1.0430   -3.5352    0.5483 C   0  0  0  0  0  0  0  0  0  0  0  0
    1.9572   -2.9871   -0.5522 C   0  0  0  0  0  0  0  0  0  0  0  0
    0.8150    1.1267   -0.4509 H   0  0  0  0  0  0  0  0  0  0  0  0
    0.9785    0.3214    1.1245 H   0  0  0  0  0  0  0  0  0  0  0  0
    0.5147   -0.6116   -0.3153 H   0  0  0  0  0  0  0  0  0  0  0  0
    2.8007   -0.2298   -1.3119 H   0  0  0  0  0  0  0  0  0  0  0  0
    2.9860    1.7443    1.0022 H   0  0  0  0  0  0  0  0  0  0  0  0
    3.4957    1.9466   -0.6858 H   0  0  0  0  0  0  0  0  0  0  0  0
    4.7598    3.3019    1.2632 H   0  0  0  0  0  0  0  0  0  0  0  0
    5.6257    3.2920   -0.2765 H   0  0  0  0  0  0  0  0  0  0  0  0
    7.8216    3.3404    1.0524 H   0  0  0  0  0  0  0  0  0  0  0  0
    6.8664    3.4842    2.5311 H   0  0  0  0  0  0  0  0  0  0  0  0
    7.4651    5.5851    0.6219 H   0  0  0  0  0  0  0  0  0  0  0  0
    4.3306    7.9970    2.9551 H   0  0  0  0  0  0  0  0  0  0  0  0
    4.8426   10.5260    2.2696 H   0  0  0  0  0  0  0  0  0  0  0  0
    6.9418   10.6684    0.6616 H   0  0  0  0  0  0  0  0  0  0  0  0
    5.3954   -1.0476    1.4411 H   0  0  0  0  0  0  0  0  0  0  0  0
    5.3400   -1.1473   -0.3328 H   0  0  0  0  0  0  0  0  0  0  0  0
    2.9724   -1.1317    1.5887 H   0  0  0  0  0  0  0  0  0  0  0  0
    4.8002   -3.2203    1.2021 H   0  0  0  0  0  0  0  0  0  0  0  0
    4.1175   -4.4082    0.0766 H   0  0  0  0  0  0  0  0  0  0  0  0
    2.7309   -3.3308    2.6070 H   0  0  0  0  0  0  0  0  0  0  0  0
    3.3712   -4.9768    2.3511 H   0  0  0  0  0  0  0  0  0  0  0  0
    0.7217   -2.7187    1.2296 H   0  0  0  0  0  0  0  0  0  0  0  0
    0.1357   -3.9870    0.1159 H   0  0  0  0  0  0  0  0  0  0  0  0
    1.4531   -2.2061   -1.1360 H   0  0  0  0  0  0  0  0  0  0  0  0
    2.1676   -3.8146   -1.2544 H   0  0  0  0  0  0  0  0  0  0  0  0
  1  2  1  0
  1 25  1  0
  1 26  1  0
  1 27  1  0
  2  3  1  0
  2 18  1  0
  2 28  1  6
  3  4  1  0
  3 29  1  0
  3 30  1  0
  4  5  1  0
  4 17  1  0
  5  6  2  0
  5  7  1  0
  7  8  1  0
  7 31  1  0
  7 32  1  0
  8  9  1  0
  8 33  1  0
  8 34  1  0
  9 10  1  0
  9 35  1  0
 10 11  2  0
 10 12  1  0
 12 13  2  0
 12 16  1  0
 13 14  1  0
 13 36  1  0
 14 15  2  0
 14 37  1  0
 15 16  1  0
 15 38  1  0
 17 18  1  0
 17 39  1  0
 17 40  1  0
 18 19  1  0
 18 41  1  1
 19 20  1  0
 19 24  1  0
 20 21  1  0
 20 42  1  0
 20 43  1  0
 21 22  1  0
 21 44  1  0
 21 45  1  0
 22 23  1  0
 23 24  1  0
 23 46  1  0
 23 47  1  0
 24 48  1  0
 24 49  1  0
M  END

