
     RDKit          3D

 47 48  0  0  0  0  0  0  0  0999 V2000
    2.0018    3.3935   -0.8940 C   0  0  0  0  0  0  0  0  0  0  0  0
    2.1934    3.0339    0.5813 C   0  0  0  0  0  0  0  0  0  0  0  0
    2.8047    1.6457    0.8334 C   0  0  0  0  0  0  0  0  0  0  0  0
    4.2133    1.4595    0.2651 C   0  0  1  0  0  0  0  0  0  0  0  0
    5.1383    2.4657    0.7776 N   0  0  0  0  0  0  0  0  0  0  0  0
    6.4751    1.8584    0.8381 C   0  0  2  0  0  0  0  0  0  0  0  0
    7.3922    2.2673   -0.3462 C   0  0  1  0  0  0  0  0  0  0  0  0
    7.4473    3.7930   -0.4819 C   0  0  0  0  0  0  0  0  0  0  0  0
    8.7995    1.6742   -0.2028 C   0  0  0  0  0  0  0  0  0  0  0  0
    6.1951    0.3472    0.8738 C   0  0  0  0  0  0  0  0  0  0  0  0
    7.0021   -0.5447    1.0714 O   0  0  0  0  0  0  0  0  0  0  0  0
    4.8587    0.1719    0.6003 N   0  0  0  0  0  0  0  0  0  0  0  0
    4.3420   -1.1740    0.3318 C   0  0  1  0  0  0  0  0  0  0  0  0
    3.3176   -1.6383    1.3780 C   0  0  0  0  0  0  0  0  0  0  0  0
    3.8426   -1.3320   -1.1144 C   0  0  1  0  0  0  0  0  0  0  0  0
    4.9032   -1.0421   -2.2048 C   0  0  0  0  0  0  0  0  0  0  0  0
    4.5977   -2.0841   -3.3111 C   0  0  0  0  0  0  0  0  0  0  0  0
    3.4499   -2.8063   -2.8886 O   0  0  0  0  0  0  0  0  0  0  0  0
    3.4169   -2.7661   -1.4805 C   0  0  0  0  0  0  0  0  0  0  0  0
    1.4760    4.3557   -0.9985 H   0  0  0  0  0  0  0  0  0  0  0  0
    1.4038    2.6311   -1.4218 H   0  0  0  0  0  0  0  0  0  0  0  0
    2.9647    3.4903   -1.4198 H   0  0  0  0  0  0  0  0  0  0  0  0
    1.2160    3.0660    1.0928 H   0  0  0  0  0  0  0  0  0  0  0  0
    2.8132    3.8074    1.0649 H   0  0  0  0  0  0  0  0  0  0  0  0
    2.1417    0.8816    0.3971 H   0  0  0  0  0  0  0  0  0  0  0  0
    2.8421    1.4443    1.9188 H   0  0  0  0  0  0  0  0  0  0  0  0
    4.1600    1.5454   -0.8379 H   0  0  0  0  0  0  0  0  0  0  0  0
    4.8471    2.7252    1.7185 H   0  0  0  0  0  0  0  0  0  0  0  0
    6.9827    2.1499    1.7731 H   0  0  0  0  0  0  0  0  0  0  0  0
    6.9360    1.8597   -1.2689 H   0  0  0  0  0  0  0  0  0  0  0  0
    7.9178    4.2468    0.4081 H   0  0  0  0  0  0  0  0  0  0  0  0
    6.4403    4.2205   -0.5850 H   0  0  0  0  0  0  0  0  0  0  0  0
    8.0480    4.0845   -1.3584 H   0  0  0  0  0  0  0  0  0  0  0  0
    9.3044    2.0890    0.6872 H   0  0  0  0  0  0  0  0  0  0  0  0
    9.4158    1.9289   -1.0800 H   0  0  0  0  0  0  0  0  0  0  0  0
    8.7764    0.5822   -0.0897 H   0  0  0  0  0  0  0  0  0  0  0  0
    5.2343   -1.8117    0.4465 H   0  0  0  0  0  0  0  0  0  0  0  0
    2.3447   -1.1349    1.2734 H   0  0  0  0  0  0  0  0  0  0  0  0
    3.6972   -1.4467    2.3928 H   0  0  0  0  0  0  0  0  0  0  0  0
    3.1426   -2.7217    1.2875 H   0  0  0  0  0  0  0  0  0  0  0  0
    2.9662   -0.6812   -1.2790 H   0  0  0  0  0  0  0  0  0  0  0  0
    5.9185   -1.1811   -1.8018 H   0  0  0  0  0  0  0  0  0  0  0  0
    4.8382   -0.0104   -2.5809 H   0  0  0  0  0  0  0  0  0  0  0  0
    5.4558   -2.7706   -3.4501 H   0  0  0  0  0  0  0  0  0  0  0  0
    4.3709   -1.6304   -4.2885 H   0  0  0  0  0  0  0  0  0  0  0  0
    4.1253   -3.5006   -1.0369 H   0  0  0  0  0  0  0  0  0  0  0  0
    2.4005   -3.0309   -1.1528 H   0  0  0  0  0  0  0  0  0  0  0  0
  1  2  1  0
  1 20  1  0
  1 21  1  0
  1 22  1  0
  2  3  1  0
  2 23  1  0
  2 24  1  0
  3  4  1  0
  3 25  1  0
  3 26  1  0
  4  5  1  0
  4 12  1  0
  4 27  1  6
  5  6  1  0
  5 28  1  0
  6  7  1  0
  6 10  1  0
  6 29  1  1
  7  8  1  0
  7  9  1  0
  7 30  1  6
  8 31  1  0
  8 32  1  0
  8 33  1  0
  9 34  1  0
  9 35  1  0
  9 36  1  0
 10 11  2  0
 10 12  1  0
 12 13  1  0
 13 14  1  0
 13 15  1  0
 13 37  1  6
 14 38  1  0
 14 39  1  0
 14 40  1  0
 15 16  1  0
 15 19  1  0
 15 41  1  6
 16 17  1  0
 16 42  1  0
 16 43  1  0
 17 18  1  0
 17 44  1  0
 17 45  1  0
 18 19  1  0
 19 46  1  0
 19 47  1  0
M  END

