
     RDKit          3D

 39 39  0  0  0  0  0  0  0  0999 V2000
    3.4415    0.4885    0.9900 C   0  0  0  0  0  0  0  0  0  0  0  0
    2.5268    0.0808   -0.1651 C   0  0  0  0  0  0  0  0  0  0  0  0
    2.7400   -1.3387   -0.7352 C   0  0  1  0  0  0  0  0  0  0  0  0
    2.4541   -2.4204    0.3200 C   0  0  0  0  0  0  0  0  0  0  0  0
    1.8134   -1.5306   -1.9458 C   0  0  0  0  0  0  0  0  0  0  0  0
    4.1352   -1.3662   -1.1052 O   0  0  0  0  0  0  0  0  0  0  0  0
    4.6658   -2.4335   -1.8740 C   0  0  1  0  0  0  0  0  0  0  0  0
    4.6439   -2.0996   -3.3486 C   0  0  0  0  0  0  0  0  0  0  0  0
    4.9230   -0.4442   -3.8341 S   0  0  0  0  0  0  0  0  0  0  0  0
    4.8221   -0.8620   -5.5083 C   0  0  0  0  0  0  0  0  0  0  0  0
    4.5802   -2.1996   -5.6771 C   0  0  0  0  0  0  0  0  0  0  0  0
    4.4772   -2.9242   -4.4421 C   0  0  0  0  0  0  0  0  0  0  0  0
    4.2446   -4.4105   -4.3750 C   0  0  0  0  0  0  0  0  0  0  0  0
    6.1084   -2.7164   -1.3600 C   0  0  1  0  0  0  0  0  0  0  0  0
    6.1779   -2.8290    0.1671 C   0  0  0  0  0  0  0  0  0  0  0  0
    6.6281   -3.8972   -2.0529 N   0  0  0  0  0  0  0  0  0  0  0  0
    3.2375    1.5280    1.2929 H   0  0  0  0  0  0  0  0  0  0  0  0
    4.4978    0.4237    0.6913 H   0  0  0  0  0  0  0  0  0  0  0  0
    3.2998   -0.1442    1.8808 H   0  0  0  0  0  0  0  0  0  0  0  0
    2.6670    0.7879   -0.9998 H   0  0  0  0  0  0  0  0  0  0  0  0
    1.4701    0.1658    0.1423 H   0  0  0  0  0  0  0  0  0  0  0  0
    1.4126   -2.3503    0.6715 H   0  0  0  0  0  0  0  0  0  0  0  0
    3.1202   -2.3181    1.1884 H   0  0  0  0  0  0  0  0  0  0  0  0
    2.5905   -3.4313   -0.0949 H   0  0  0  0  0  0  0  0  0  0  0  0
    0.7633   -1.4264   -1.6299 H   0  0  0  0  0  0  0  0  0  0  0  0
    1.9263   -2.5272   -2.3978 H   0  0  0  0  0  0  0  0  0  0  0  0
    2.0194   -0.7806   -2.7223 H   0  0  0  0  0  0  0  0  0  0  0  0
    4.0853   -3.3638   -1.7215 H   0  0  0  0  0  0  0  0  0  0  0  0
    4.9264   -0.0946   -6.2742 H   0  0  0  0  0  0  0  0  0  0  0  0
    4.4689   -2.6712   -6.6560 H   0  0  0  0  0  0  0  0  0  0  0  0
    3.9139   -4.8033   -5.3482 H   0  0  0  0  0  0  0  0  0  0  0  0
    3.4737   -4.6738   -3.6311 H   0  0  0  0  0  0  0  0  0  0  0  0
    5.1689   -4.9313   -4.0798 H   0  0  0  0  0  0  0  0  0  0  0  0
    6.7219   -1.8559   -1.6765 H   0  0  0  0  0  0  0  0  0  0  0  0
    5.5435   -3.6576    0.5287 H   0  0  0  0  0  0  0  0  0  0  0  0
    5.8460   -1.9073    0.6636 H   0  0  0  0  0  0  0  0  0  0  0  0
    7.2138   -3.0404    0.4796 H   0  0  0  0  0  0  0  0  0  0  0  0
    6.3140   -4.7471   -1.5808 H   0  0  0  0  0  0  0  0  0  0  0  0
    7.6463   -3.9138   -2.0187 H   0  0  0  0  0  0  0  0  0  0  0  0
  1  2  1  0
  1 17  1  0
  1 18  1  0
  1 19  1  0
  2  3  1  0
  2 20  1  0
  2 21  1  0
  3  4  1  0
  3  5  1  0
  3  6  1  6
  4 22  1  0
  4 23  1  0
  4 24  1  0
  5 25  1  0
  5 26  1  0
  5 27  1  0
  6  7  1  0
  7  8  1  0
  7 14  1  0
  7 28  1  6
  8  9  1  0
  8 12  2  0
  9 10  1  0
 10 11  2  0
 10 29  1  0
 11 12  1  0
 11 30  1  0
 12 13  1  0
 13 31  1  0
 13 32  1  0
 13 33  1  0
 14 15  1  0
 14 16  1  0
 14 34  1  6
 15 35  1  0
 15 36  1  0
 15 37  1  0
 16 38  1  0
 16 39  1  0
M  END

