
     RDKit          3D

 58 60  0  0  0  0  0  0  0  0999 V2000
    1.4167   -1.8968   -0.9461 C   0  0  0  0  0  0  0  0  0  0  0  0
    1.9588   -1.9196   -2.1659 C   0  0  0  0  0  0  0  0  0  0  0  0
    3.3177   -2.4995   -2.5166 C   0  0  2  0  0  0  0  0  0  0  0  0
    3.1700   -3.7055   -3.4638 C   0  0  0  0  0  0  0  0  0  0  0  0
    2.3977   -4.8875   -2.8787 C   0  0  0  0  0  0  0  0  0  0  0  0
    3.9966   -2.9595   -1.3331 O   0  0  0  0  0  0  0  0  0  0  0  0
    4.7774   -1.9371   -0.7511 C   0  0  1  0  0  0  0  0  0  0  0  0
    4.3369   -1.5768    0.1924 H   0  0  0  0  0  0  0  0  0  0  0  0
    6.0750   -2.4561   -0.3829 N   0  0  0  0  0  0  0  0  0  0  0  0
    6.9774   -3.1805   -1.1386 C   0  0  0  0  0  0  0  0  0  0  0  0
    8.0844   -3.4520   -0.5010 N   0  0  0  0  0  0  0  0  0  0  0  0
    7.9358   -2.8742    0.7497 C   0  0  0  0  0  0  0  0  0  0  0  0
    8.7458   -2.7851    1.9266 C   0  0  0  0  0  0  0  0  0  0  0  0
    9.9916   -3.3212    2.0572 N   0  0  0  0  0  0  0  0  0  0  0  0
   10.6592   -4.0565    0.9971 C   0  0  0  0  0  0  0  0  0  0  0  0
   10.7505   -3.1842    3.2860 C   0  0  0  0  0  0  0  0  0  0  0  0
    8.2253   -2.1187    2.9738 N   0  0  0  0  0  0  0  0  0  0  0  0
    7.0011   -1.5693    2.9015 C   0  0  0  0  0  0  0  0  0  0  0  0
    6.6259   -0.9200    4.0841 N   0  0  0  0  0  0  0  0  0  0  0  0
    5.4575   -0.2471    4.4104 C   0  0  0  0  0  0  0  0  0  0  0  0
    4.5019   -0.1174    3.6772 O   0  0  0  0  0  0  0  0  0  0  0  0
    5.4827    0.3744    5.8187 C   0  0  1  0  0  0  0  0  0  0  0  0
    5.6525    1.8972    5.6849 C   0  0  0  0  0  0  0  0  0  0  0  0
    4.1946    0.0123    6.5665 C   0  0  0  0  0  0  0  0  0  0  0  0
    6.1675   -1.5844    1.8707 N   0  0  0  0  0  0  0  0  0  0  0  0
    6.6824   -2.2460    0.8365 C   0  0  0  0  0  0  0  0  0  0  0  0
    4.8416   -0.7917   -1.8052 C   0  0  1  0  0  0  0  0  0  0  0  0
    4.2291    0.0598   -1.4679 H   0  0  0  0  0  0  0  0  0  0  0  0
    6.1284   -0.3282   -1.9848 F   0  0  0  0  0  0  0  0  0  0  0  0
    4.2877   -1.4226   -3.0804 C   0  0  2  0  0  0  0  0  0  0  0  0
    5.1317   -1.9723   -3.5328 H   0  0  0  0  0  0  0  0  0  0  0  0
    3.7544   -0.4224   -4.1010 C   0  0  0  0  0  0  0  0  0  0  0  0
    0.4246   -1.4702   -0.7757 H   0  0  0  0  0  0  0  0  0  0  0  0
    1.9414   -2.3128   -0.0821 H   0  0  0  0  0  0  0  0  0  0  0  0
    1.3930   -1.5186   -3.0145 H   0  0  0  0  0  0  0  0  0  0  0  0
    2.6850   -3.3540   -4.3911 H   0  0  0  0  0  0  0  0  0  0  0  0
    4.1858   -4.0301   -3.7459 H   0  0  0  0  0  0  0  0  0  0  0  0
    1.3607   -4.6149   -2.6298 H   0  0  0  0  0  0  0  0  0  0  0  0
    2.8800   -5.2476   -1.9579 H   0  0  0  0  0  0  0  0  0  0  0  0
    2.3656   -5.7213   -3.5975 H   0  0  0  0  0  0  0  0  0  0  0  0
    6.7434   -3.4965   -2.1541 H   0  0  0  0  0  0  0  0  0  0  0  0
   10.0251   -4.1193    0.1064 H   0  0  0  0  0  0  0  0  0  0  0  0
   10.9033   -5.0794    1.3376 H   0  0  0  0  0  0  0  0  0  0  0  0
   11.6097   -3.5602    0.7279 H   0  0  0  0  0  0  0  0  0  0  0  0
   10.1638   -2.6236    4.0198 H   0  0  0  0  0  0  0  0  0  0  0  0
   11.7008   -2.6528    3.0958 H   0  0  0  0  0  0  0  0  0  0  0  0
   10.9979   -4.1791    3.6988 H   0  0  0  0  0  0  0  0  0  0  0  0
    7.3477   -0.9704    4.7933 H   0  0  0  0  0  0  0  0  0  0  0  0
    6.3462   -0.0263    6.3795 H   0  0  0  0  0  0  0  0  0  0  0  0
    4.8209    2.3198    5.0998 H   0  0  0  0  0  0  0  0  0  0  0  0
    6.5933    2.1566    5.1733 H   0  0  0  0  0  0  0  0  0  0  0  0
    5.6596    2.3779    6.6762 H   0  0  0  0  0  0  0  0  0  0  0  0
    3.3201    0.3386    5.9838 H   0  0  0  0  0  0  0  0  0  0  0  0
    4.1644    0.5013    7.5531 H   0  0  0  0  0  0  0  0  0  0  0  0
    4.1091   -1.0752    6.7206 H   0  0  0  0  0  0  0  0  0  0  0  0
    4.5677    0.2444   -4.4267 H   0  0  0  0  0  0  0  0  0  0  0  0
    2.9552    0.2071   -3.6801 H   0  0  0  0  0  0  0  0  0  0  0  0
    3.3588   -0.9258   -4.9973 H   0  0  0  0  0  0  0  0  0  0  0  0
  1  2  2  0
  1 33  1  0
  1 34  1  0
  3  2  1  1
  2 35  1  0
  3  4  1  0
  3  6  1  0
  3 30  1  0
  4  5  1  0
  4 36  1  0
  4 37  1  0
  5 38  1  0
  5 39  1  0
  5 40  1  0
  6  7  1  0
  7  8  1  1
  7  9  1  0
  7 27  1  0
  9 10  1  0
  9 26  1  0
 10 11  2  0
 10 41  1  0
 11 12  1  0
 12 13  1  0
 12 26  2  0
 13 14  1  0
 13 17  2  0
 14 15  1  0
 14 16  1  0
 15 42  1  0
 15 43  1  0
 15 44  1  0
 16 45  1  0
 16 46  1  0
 16 47  1  0
 17 18  1  0
 18 19  1  0
 18 25  2  0
 19 20  1  0
 19 48  1  0
 20 21  2  0
 20 22  1  0
 22 23  1  0
 22 24  1  0
 22 49  1  1
 23 50  1  0
 23 51  1  0
 23 52  1  0
 24 53  1  0
 24 54  1  0
 24 55  1  0
 25 26  1  0
 27 28  1  1
 27 29  1  0
 27 30  1  0
 30 31  1  6
 30 32  1  0
 32 56  1  0
 32 57  1  0
 32 58  1  0
M  END

