
     RDKit          3D

 30 32  0  0  0  0  0  0  0  0999 V2000
    0.9138    0.1994   -0.8967 C   0  0  0  0  0  0  0  0  0  0  0  0
    2.1672   -0.0236   -1.5155 O   0  0  0  0  0  0  0  0  0  0  0  0
    3.0414    1.0035   -1.6567 C   0  0  0  0  0  0  0  0  0  0  0  0
    2.7231    2.3361   -1.3660 C   0  0  0  0  0  0  0  0  0  0  0  0
    3.6997    3.3248   -1.5281 C   0  0  0  0  0  0  0  0  0  0  0  0
    3.2851    4.9823   -1.1642 Cl  0  0  0  0  0  0  0  0  0  0  0  0
    4.9870    3.0137   -1.9646 C   0  0  0  0  0  0  0  0  0  0  0  0
    5.2887    1.6804   -2.2512 C   0  0  0  0  0  0  0  0  0  0  0  0
    4.3339    0.6642   -2.1245 C   0  0  0  0  0  0  0  0  0  0  0  0
    4.7315   -0.7428   -2.3296 C   0  0  0  0  0  0  0  0  0  0  0  0
    5.6578   -1.3383   -1.6056 N   0  0  0  0  0  0  0  0  0  0  0  0
    5.7972   -2.6288   -1.9939 N   0  0  0  0  0  0  0  0  0  0  0  0
    4.9461   -2.8345   -2.9795 C   0  0  0  0  0  0  0  0  0  0  0  0
    4.6630   -3.9930   -3.7460 C   0  0  0  0  0  0  0  0  0  0  0  0
    3.7237   -3.8504   -4.7330 C   0  0  0  0  0  0  0  0  0  0  0  0
    3.2757   -5.2116   -5.7259 Cl  0  0  0  0  0  0  0  0  0  0  0  0
    3.1059   -2.6790   -5.0245 N   0  0  0  0  0  0  0  0  0  0  0  0
    3.3468   -1.6061   -4.3303 C   0  0  0  0  0  0  0  0  0  0  0  0
    2.6967   -0.3130   -4.7105 C   0  0  0  0  0  0  0  0  0  0  0  0
    4.2327   -1.6546   -3.2597 N   0  0  0  0  0  0  0  0  0  0  0  0
    0.4248   -0.7808   -0.8271 H   0  0  0  0  0  0  0  0  0  0  0  0
    0.2773    0.8766   -1.4929 H   0  0  0  0  0  0  0  0  0  0  0  0
    1.0346    0.6168    0.1175 H   0  0  0  0  0  0  0  0  0  0  0  0
    1.7358    2.6199   -1.0069 H   0  0  0  0  0  0  0  0  0  0  0  0
    5.7374    3.7974   -2.0710 H   0  0  0  0  0  0  0  0  0  0  0  0
    6.2959    1.4109   -2.5751 H   0  0  0  0  0  0  0  0  0  0  0  0
    5.1850   -4.9256   -3.5400 H   0  0  0  0  0  0  0  0  0  0  0  0
    2.1648   -0.4683   -5.6563 H   0  0  0  0  0  0  0  0  0  0  0  0
    3.4391    0.4907   -4.8274 H   0  0  0  0  0  0  0  0  0  0  0  0
    1.9815    0.0034   -3.9382 H   0  0  0  0  0  0  0  0  0  0  0  0
  1  2  1  0
  1 21  1  0
  1 22  1  0
  1 23  1  0
  2  3  1  0
  3  4  2  0
  3  9  1  0
  4  5  1  0
  4 24  1  0
  5  6  1  0
  5  7  2  0
  7  8  1  0
  7 25  1  0
  8  9  2  0
  8 26  1  0
  9 10  1  0
 10 11  2  0
 10 20  1  0
 11 12  1  0
 12 13  2  0
 13 14  1  0
 13 20  1  0
 14 15  2  0
 14 27  1  0
 15 16  1  0
 15 17  1  0
 17 18  2  0
 18 19  1  0
 18 20  1  0
 19 28  1  0
 19 29  1  0
 19 30  1  0
M  END

