
     RDKit          3D

 88 87  0  0  0  0  0  0  0  0999 V2000
   20.1276   -3.1803    9.2804 C   0  0  0  0  0  0  0  0  0  0  0  0
   20.1704   -2.9627    7.7672 C   0  0  0  0  0  0  0  0  0  0  0  0
   19.0539   -3.6893    7.0106 C   0  0  0  0  0  0  0  0  0  0  0  0
   19.0895   -3.4766    5.4945 C   0  0  0  0  0  0  0  0  0  0  0  0
   17.9730   -4.2029    4.7385 C   0  0  0  0  0  0  0  0  0  0  0  0
   18.0090   -3.9898    3.2223 C   0  0  0  0  0  0  0  0  0  0  0  0
   16.8921   -4.7157    2.4665 C   0  0  0  0  0  0  0  0  0  0  0  0
   16.9284   -4.5023    0.9503 C   0  0  0  0  0  0  0  0  0  0  0  0
   15.8110   -5.2281    0.1953 C   0  0  0  0  0  0  0  0  0  0  0  0
   15.8492   -5.0139   -1.3206 C   0  0  0  0  0  0  0  0  0  0  0  0
   14.7248   -5.7410   -2.0662 C   0  0  0  0  0  0  0  0  0  0  0  0
   14.6862   -5.5057   -3.5773 C   0  0  0  0  0  0  0  0  0  0  0  0
   16.1369   -6.2793   -4.3909 S   0  0  0  0  0  0  0  0  0  0  0  0
   15.8696   -5.9210   -6.0911 C   0  0  0  0  0  0  0  0  0  0  0  0
   14.6862   -4.9444   -6.6862 S   0  0  0  0  0  0  0  0  0  0  0  0
   16.9143   -6.6300   -7.3348 S   0  0  0  0  0  0  0  0  0  0  0  0
   18.2345   -7.7611   -6.5952 C   0  0  1  0  0  0  0  0  0  0  0  0
   19.2159   -6.9561   -5.7128 C   0  0  0  0  0  0  0  0  0  0  0  0
   17.7135   -8.9929   -5.8132 C   0  0  0  0  0  0  0  0  0  0  0  0
   16.6107   -9.9283   -6.3990 C   0  0  1  0  0  0  0  0  0  0  0  0
   16.8431  -10.3153   -7.8757 C   0  0  0  0  0  0  0  0  0  0  0  0
   16.5905  -11.2119   -5.5285 C   0  0  0  0  0  0  0  0  0  0  0  0
   15.2665   -9.3211   -6.2725 C   0  0  0  0  0  0  0  0  0  0  0  0
   14.1814   -8.9359   -6.1406 N   0  0  0  0  0  0  0  0  0  0  0  0
   19.0357   -8.1723   -7.8467 C   0  0  0  0  0  0  0  0  0  0  0  0
   18.8955   -7.7254   -8.9550 O   0  0  0  0  0  0  0  0  0  0  0  0
   19.9867   -9.0793   -7.5383 O   0  0  0  0  0  0  0  0  0  0  0  0
   20.8503   -9.4845   -8.6099 C   0  0  0  0  0  0  0  0  0  0  0  0
   21.8910  -10.4166   -8.0045 C   0  0  0  0  0  0  0  0  0  0  0  0
   22.8465  -10.9484   -9.0588 C   0  0  1  0  0  0  0  0  0  0  0  0
   22.1714  -11.6885   -9.9792 F   0  0  0  0  0  0  0  0  0  0  0  0
   23.4387   -9.9193   -9.7157 F   0  0  0  0  0  0  0  0  0  0  0  0
   23.9699  -11.8407   -8.4525 C   0  0  1  0  0  0  0  0  0  0  0  0
   24.7888  -11.0418   -7.7350 F   0  0  0  0  0  0  0  0  0  0  0  0
   23.3992  -12.7321   -7.6146 F   0  0  0  0  0  0  0  0  0  0  0  0
   24.8136  -12.6370   -9.5010 C   0  0  1  0  0  0  0  0  0  0  0  0
   24.0794  -13.6819   -9.9248 F   0  0  0  0  0  0  0  0  0  0  0  0
   25.0944  -11.8417  -10.5461 F   0  0  0  0  0  0  0  0  0  0  0  0
   26.1648  -13.1716   -8.9188 C   0  0  1  0  0  0  0  0  0  0  0  0
   27.0318  -12.1449   -8.8467 F   0  0  0  0  0  0  0  0  0  0  0  0
   25.9550  -13.6568   -7.6816 F   0  0  0  0  0  0  0  0  0  0  0  0
   26.7987  -14.3069   -9.7840 C   0  0  1  0  0  0  0  0  0  0  0  0
   26.1237  -15.4457   -9.5604 F   0  0  0  0  0  0  0  0  0  0  0  0
   26.7064  -13.9843  -11.0872 F   0  0  0  0  0  0  0  0  0  0  0  0
   28.3023  -14.5759   -9.4705 C   0  0  1  0  0  0  0  0  0  0  0  0
   28.4863  -14.7107   -8.1568 F   0  0  0  0  0  0  0  0  0  0  0  0
   28.6704  -15.7033  -10.0750 F   0  0  0  0  0  0  0  0  0  0  0  0
   29.0616  -13.5812   -9.9192 F   0  0  0  0  0  0  0  0  0  0  0  0
   20.9435   -2.6440    9.7909 H   0  0  0  0  0  0  0  0  0  0  0  0
   20.2225   -4.2495    9.5347 H   0  0  0  0  0  0  0  0  0  0  0  0
   19.1760   -2.8244    9.7100 H   0  0  0  0  0  0  0  0  0  0  0  0
   21.1492   -3.2937    7.3744 H   0  0  0  0  0  0  0  0  0  0  0  0
   20.1118   -1.8808    7.5482 H   0  0  0  0  0  0  0  0  0  0  0  0
   18.0738   -3.3587    7.4028 H   0  0  0  0  0  0  0  0  0  0  0  0
   19.1116   -4.7724    7.2289 H   0  0  0  0  0  0  0  0  0  0  0  0
   20.0697   -3.8073    5.1029 H   0  0  0  0  0  0  0  0  0  0  0  0
   19.0320   -2.3937    5.2769 H   0  0  0  0  0  0  0  0  0  0  0  0
   16.9927   -3.8722    5.1297 H   0  0  0  0  0  0  0  0  0  0  0  0
   18.0300   -5.2860    4.9558 H   0  0  0  0  0  0  0  0  0  0  0  0
   18.9891   -4.3208    2.8307 H   0  0  0  0  0  0  0  0  0  0  0  0
   17.9520   -2.9069    3.0048 H   0  0  0  0  0  0  0  0  0  0  0  0
   15.9121   -4.3845    2.8577 H   0  0  0  0  0  0  0  0  0  0  0  0
   16.9487   -5.7987    2.6839 H   0  0  0  0  0  0  0  0  0  0  0  0
   17.9081   -4.8338    0.5584 H   0  0  0  0  0  0  0  0  0  0  0  0
   16.8716   -3.4195    0.7327 H   0  0  0  0  0  0  0  0  0  0  0  0
   14.8309   -4.8965    0.5861 H   0  0  0  0  0  0  0  0  0  0  0  0
   15.8673   -6.3111    0.4122 H   0  0  0  0  0  0  0  0  0  0  0  0
   16.8292   -5.3430   -1.7108 H   0  0  0  0  0  0  0  0  0  0  0  0
   15.7882   -3.9324   -1.5416 H   0  0  0  0  0  0  0  0  0  0  0  0
   13.7503   -5.4038   -1.6701 H   0  0  0  0  0  0  0  0  0  0  0  0
   14.7716   -6.8248   -1.8584 H   0  0  0  0  0  0  0  0  0  0  0  0
   14.6905   -4.4352   -3.8305 H   0  0  0  0  0  0  0  0  0  0  0  0
   13.7955   -5.9556   -4.0392 H   0  0  0  0  0  0  0  0  0  0  0  0
   18.7044   -6.5349   -4.8377 H   0  0  0  0  0  0  0  0  0  0  0  0
   19.6555   -6.1258   -6.2848 H   0  0  0  0  0  0  0  0  0  0  0  0
   20.0281   -7.6106   -5.3604 H   0  0  0  0  0  0  0  0  0  0  0  0
   17.3727   -8.6501   -4.8263 H   0  0  0  0  0  0  0  0  0  0  0  0
   18.5972   -9.6244   -5.6312 H   0  0  0  0  0  0  0  0  0  0  0  0
   17.8297  -10.7902   -7.9869 H   0  0  0  0  0  0  0  0  0  0  0  0
   16.7882   -9.4443   -8.5422 H   0  0  0  0  0  0  0  0  0  0  0  0
   16.0797  -11.0366   -8.2035 H   0  0  0  0  0  0  0  0  0  0  0  0
   17.5466  -11.7485   -5.6325 H   0  0  0  0  0  0  0  0  0  0  0  0
   15.7788  -11.8841   -5.8427 H   0  0  0  0  0  0  0  0  0  0  0  0
   16.4416  -10.9697   -4.4654 H   0  0  0  0  0  0  0  0  0  0  0  0
   21.3127   -8.5987   -9.0686 H   0  0  0  0  0  0  0  0  0  0  0  0
   20.2596   -9.9905   -9.3887 H   0  0  0  0  0  0  0  0  0  0  0  0
   21.4014  -11.2721   -7.5184 H   0  0  0  0  0  0  0  0  0  0  0  0
   22.4787   -9.8865   -7.2402 H   0  0  0  0  0  0  0  0  0  0  0  0
  1  2  1  0
  1 49  1  0
  1 50  1  0
  1 51  1  0
  2  3  1  0
  2 52  1  0
  2 53  1  0
  3  4  1  0
  3 54  1  0
  3 55  1  0
  4  5  1  0
  4 56  1  0
  4 57  1  0
  5  6  1  0
  5 58  1  0
  5 59  1  0
  6  7  1  0
  6 60  1  0
  6 61  1  0
  7  8  1  0
  7 62  1  0
  7 63  1  0
  8  9  1  0
  8 64  1  0
  8 65  1  0
  9 10  1  0
  9 66  1  0
  9 67  1  0
 10 11  1  0
 10 68  1  0
 10 69  1  0
 11 12  1  0
 11 70  1  0
 11 71  1  0
 12 13  1  0
 12 72  1  0
 12 73  1  0
 13 14  1  0
 14 15  2  0
 14 16  1  0
 17 16  1  6
 17 18  1  0
 17 19  1  0
 17 25  1  0
 18 74  1  0
 18 75  1  0
 18 76  1  0
 19 20  1  0
 19 77  1  0
 19 78  1  0
 20 21  1  0
 20 22  1  0
 20 23  1  6
 21 79  1  0
 21 80  1  0
 21 81  1  0
 22 82  1  0
 22 83  1  0
 22 84  1  0
 23 24  3  0
 25 26  2  0
 25 27  1  0
 27 28  1  0
 28 29  1  0
 28 85  1  0
 28 86  1  0
 29 30  1  0
 29 87  1  0
 29 88  1  0
 30 31  1  6
 30 32  1  0
 30 33  1  0
 33 34  1  1
 33 35  1  0
 33 36  1  0
 36 37  1  6
 36 38  1  0
 36 39  1  0
 39 40  1  1
 39 41  1  0
 39 42  1  0
 42 43  1  6
 42 44  1  0
 42 45  1  0
 45 46  1  1
 45 47  1  0
 45 48  1  0
M  END

