
     RDKit          3D

 64 66  0  0  0  0  0  0  0  0999 V2000
    7.0403   12.7845    3.8371 C   0  0  0  0  0  0  0  0  0  0  0  0
    6.7674   11.2798    3.8408 C   0  0  0  0  0  0  0  0  0  0  0  0
    7.8371   10.4645    4.5743 C   0  0  0  0  0  0  0  0  0  0  0  0
    7.5710    8.9564    4.5832 C   0  0  0  0  0  0  0  0  0  0  0  0
    8.6399    8.1424    5.3185 C   0  0  0  0  0  0  0  0  0  0  0  0
    8.3731    6.6342    5.3369 C   0  0  0  0  0  0  0  0  0  0  0  0
    9.4180    5.8311    6.1208 C   0  0  0  0  0  0  0  0  0  0  0  0
    9.1724    4.3175    6.1610 C   0  0  0  0  0  0  0  0  0  0  0  0
    9.4787    3.5470    4.8694 C   0  0  0  0  0  0  0  0  0  0  0  0
   10.8937    3.5481    4.4959 N   0  0  0  0  0  0  0  0  0  0  0  0
   11.5352    4.2115    3.4837 C   0  0  0  0  0  0  0  0  0  0  0  0
   10.8708    5.0892    2.6589 N   0  0  0  0  0  0  0  0  0  0  0  0
   11.4664    5.5446    1.5390 N   0  0  0  0  0  0  0  0  0  0  0  0
   10.8437    6.3946    0.7924 C   0  0  0  0  0  0  0  0  0  0  0  0
    9.4717    6.9296    1.1359 C   0  0  0  0  0  0  0  0  0  0  0  0
   11.5978    6.8827   -0.3929 C   0  0  0  0  0  0  0  0  0  0  0  0
   13.0020    6.9711   -0.3301 C   0  0  0  0  0  0  0  0  0  0  0  0
   13.7636    7.4140   -1.4097 C   0  0  0  0  0  0  0  0  0  0  0  0
   13.1255    7.7816   -2.5984 C   0  0  0  0  0  0  0  0  0  0  0  0
   11.7373    7.6908   -2.6951 C   0  0  0  0  0  0  0  0  0  0  0  0
   10.9727    7.2378   -1.6110 C   0  0  0  0  0  0  0  0  0  0  0  0
    9.6192    7.1056   -1.7177 O   0  0  0  0  0  0  0  0  0  0  0  0
   12.8290    3.9188    3.3896 N   0  0  0  0  0  0  0  0  0  0  0  0
   13.0386    3.0239    4.3805 C   0  0  0  0  0  0  0  0  0  0  0  0
   11.8831    2.7645    5.1020 C   0  0  0  0  0  0  0  0  0  0  0  0
   11.8441    1.8435    6.1978 C   0  0  0  0  0  0  0  0  0  0  0  0
   10.8960    1.5288    6.9057 O   0  0  0  0  0  0  0  0  0  0  0  0
   13.1260    1.2889    6.4011 N   0  0  0  0  0  0  0  0  0  0  0  0
   13.1980    0.6201    7.1631 H   0  0  0  0  0  0  0  0  0  0  0  0
   14.3254    1.5100    5.7217 C   0  0  0  0  0  0  0  0  0  0  0  0
   15.3529    0.9413    6.0354 O   0  0  0  0  0  0  0  0  0  0  0  0
   14.2449    2.4253    4.6689 N   0  0  0  0  0  0  0  0  0  0  0  0
   15.4307    2.7395    3.8814 C   0  0  0  0  0  0  0  0  0  0  0  0
    6.2522   13.3382    3.3021 H   0  0  0  0  0  0  0  0  0  0  0  0
    8.0009   13.0169    3.3474 H   0  0  0  0  0  0  0  0  0  0  0  0
    7.0899   13.1855    4.8634 H   0  0  0  0  0  0  0  0  0  0  0  0
    6.6855   10.9170    2.7997 H   0  0  0  0  0  0  0  0  0  0  0  0
    5.7825   11.0843    4.3031 H   0  0  0  0  0  0  0  0  0  0  0  0
    7.9196   10.8260    5.6163 H   0  0  0  0  0  0  0  0  0  0  0  0
    8.8234   10.6589    4.1129 H   0  0  0  0  0  0  0  0  0  0  0  0
    7.4878    8.5955    3.5406 H   0  0  0  0  0  0  0  0  0  0  0  0
    6.5847    8.7623    5.0443 H   0  0  0  0  0  0  0  0  0  0  0  0
    8.7224    8.5052    6.3596 H   0  0  0  0  0  0  0  0  0  0  0  0
    9.6283    8.3336    4.8601 H   0  0  0  0  0  0  0  0  0  0  0  0
    8.3059    6.2695    4.2933 H   0  0  0  0  0  0  0  0  0  0  0  0
    7.3742    6.4447    5.7711 H   0  0  0  0  0  0  0  0  0  0  0  0
    9.4385    6.2075    7.1581 H   0  0  0  0  0  0  0  0  0  0  0  0
   10.4274    6.0350    5.7184 H   0  0  0  0  0  0  0  0  0  0  0  0
    8.1160    4.1192    6.4153 H   0  0  0  0  0  0  0  0  0  0  0  0
    9.7646    3.8499    6.9624 H   0  0  0  0  0  0  0  0  0  0  0  0
    8.9033    3.9322    4.0128 H   0  0  0  0  0  0  0  0  0  0  0  0
    9.1830    2.4970    5.0073 H   0  0  0  0  0  0  0  0  0  0  0  0
    9.9249    5.3702    2.9050 H   0  0  0  0  0  0  0  0  0  0  0  0
    9.4645    7.3183    2.1701 H   0  0  0  0  0  0  0  0  0  0  0  0
    8.6998    6.1417    1.0675 H   0  0  0  0  0  0  0  0  0  0  0  0
    9.1660    7.7368    0.4648 H   0  0  0  0  0  0  0  0  0  0  0  0
   13.4824    6.6757    0.6041 H   0  0  0  0  0  0  0  0  0  0  0  0
   14.8505    7.4775   -1.3228 H   0  0  0  0  0  0  0  0  0  0  0  0
   13.7049    8.1372   -3.4541 H   0  0  0  0  0  0  0  0  0  0  0  0
   11.2298    7.9606   -3.6274 H   0  0  0  0  0  0  0  0  0  0  0  0
    9.3451    7.3597   -2.6087 H   0  0  0  0  0  0  0  0  0  0  0  0
   16.2564    2.1331    4.2691 H   0  0  0  0  0  0  0  0  0  0  0  0
   15.6744    3.8093    3.9656 H   0  0  0  0  0  0  0  0  0  0  0  0
   15.2544    2.5106    2.8200 H   0  0  0  0  0  0  0  0  0  0  0  0
  1  2  1  0
  1 34  1  0
  1 35  1  0
  1 36  1  0
  2  3  1  0
  2 37  1  0
  2 38  1  0
  3  4  1  0
  3 39  1  0
  3 40  1  0
  4  5  1  0
  4 41  1  0
  4 42  1  0
  5  6  1  0
  5 43  1  0
  5 44  1  0
  6  7  1  0
  6 45  1  0
  6 46  1  0
  7  8  1  0
  7 47  1  0
  7 48  1  0
  8  9  1  0
  8 49  1  0
  8 50  1  0
  9 10  1  0
  9 51  1  0
  9 52  1  0
 10 11  1  0
 10 25  1  0
 11 12  1  0
 11 23  2  0
 12 13  1  0
 12 53  1  0
 13 14  2  0
 14 15  1  0
 14 16  1  0
 15 54  1  0
 15 55  1  0
 15 56  1  0
 16 17  2  0
 16 21  1  0
 17 18  1  0
 17 57  1  0
 18 19  2  0
 18 58  1  0
 19 20  1  0
 19 59  1  0
 20 21  2  0
 20 60  1  0
 21 22  1  0
 22 61  1  0
 23 24  1  0
 24 25  2  0
 24 32  1  0
 25 26  1  0
 26 27  2  0
 26 28  1  0
 28 29  1  0
 28 30  1  0
 30 31  2  0
 30 32  1  0
 32 33  1  0
 33 62  1  0
 33 63  1  0
 33 64  1  0
M  END

