
     RDKit          3D

 50 54  0  0  0  0  0  0  0  0999 V2000
    0.4803    0.4602   -0.6255 C   0  0  0  0  0  0  0  0  0  0  0  0
    1.8296   -0.1063   -0.1784 C   0  0  0  0  0  0  0  0  0  0  0  0
    2.6046   -0.7110   -1.2562 N   0  0  0  0  0  0  0  0  0  0  0  0
    2.3577   -2.0033   -1.7112 C   0  0  0  0  0  0  0  0  0  0  0  0
    1.4752   -2.9696   -1.2053 C   0  0  0  0  0  0  0  0  0  0  0  0
    1.4263   -4.2085   -1.8451 C   0  0  0  0  0  0  0  0  0  0  0  0
    2.2294   -4.4887   -2.9672 C   0  0  0  0  0  0  0  0  0  0  0  0
    3.1009   -3.5247   -3.4713 C   0  0  0  0  0  0  0  0  0  0  0  0
    3.1679   -2.2720   -2.8445 C   0  0  0  0  0  0  0  0  0  0  0  0
    3.9350   -1.0704   -3.0909 C   0  0  0  0  0  0  0  0  0  0  0  0
    4.8731   -0.7473   -4.0782 C   0  0  0  0  0  0  0  0  0  0  0  0
    5.4494    0.5202   -4.0739 C   0  0  0  0  0  0  0  0  0  0  0  0
    5.1006    1.4447   -3.0794 C   0  0  0  0  0  0  0  0  0  0  0  0
    4.1678    1.1564   -2.0734 C   0  0  0  0  0  0  0  0  0  0  0  0
    3.8839    2.1605   -1.0873 N   0  0  0  0  0  0  0  0  0  0  0  0
    3.3802    3.4059   -1.5536 C   0  0  0  0  0  0  0  0  0  0  0  0
    2.3861    3.4250   -2.5517 C   0  0  0  0  0  0  0  0  0  0  0  0
    1.8903    4.6338   -3.0404 C   0  0  0  0  0  0  0  0  0  0  0  0
    2.3660    5.8522   -2.5451 C   0  0  0  0  0  0  0  0  0  0  0  0
    3.3599    5.8408   -1.5625 C   0  0  0  0  0  0  0  0  0  0  0  0
    3.8714    4.6358   -1.0758 C   0  0  0  0  0  0  0  0  0  0  0  0
    4.4380    2.0182    0.2098 C   0  0  0  0  0  0  0  0  0  0  0  0
    5.5503    1.1851    0.4348 C   0  0  0  0  0  0  0  0  0  0  0  0
    6.0577    1.0104    1.7249 C   0  0  0  0  0  0  0  0  0  0  0  0
    5.4803    1.6625    2.8167 C   0  0  0  0  0  0  0  0  0  0  0  0
    4.3723    2.4897    2.6008 C   0  0  0  0  0  0  0  0  0  0  0  0
    3.8486    2.6612    1.3200 C   0  0  0  0  0  0  0  0  0  0  0  0
    3.5606   -0.1234   -2.0855 C   0  0  0  0  0  0  0  0  0  0  0  0
   -0.0682    0.8558    0.2445 H   0  0  0  0  0  0  0  0  0  0  0  0
   -0.1453   -0.3116   -1.1003 H   0  0  0  0  0  0  0  0  0  0  0  0
    0.6127    1.2846   -1.3419 H   0  0  0  0  0  0  0  0  0  0  0  0
    1.6780   -0.8828    0.5884 H   0  0  0  0  0  0  0  0  0  0  0  0
    2.4334    0.6728    0.2952 H   0  0  0  0  0  0  0  0  0  0  0  0
    0.8412   -2.7705   -0.3398 H   0  0  0  0  0  0  0  0  0  0  0  0
    0.7471   -4.9763   -1.4657 H   0  0  0  0  0  0  0  0  0  0  0  0
    2.1656   -5.4692   -3.4451 H   0  0  0  0  0  0  0  0  0  0  0  0
    3.7235   -3.7421   -4.3430 H   0  0  0  0  0  0  0  0  0  0  0  0
    5.1419   -1.4811   -4.8420 H   0  0  0  0  0  0  0  0  0  0  0  0
    6.1819    0.7972   -4.8354 H   0  0  0  0  0  0  0  0  0  0  0  0
    5.5648    2.4333   -3.0703 H   0  0  0  0  0  0  0  0  0  0  0  0
    2.0125    2.4816   -2.9532 H   0  0  0  0  0  0  0  0  0  0  0  0
    1.1182    4.6204   -3.8142 H   0  0  0  0  0  0  0  0  0  0  0  0
    1.9721    6.7976   -2.9252 H   0  0  0  0  0  0  0  0  0  0  0  0
    3.7583    6.7827   -1.1758 H   0  0  0  0  0  0  0  0  0  0  0  0
    4.6618    4.6492   -0.3244 H   0  0  0  0  0  0  0  0  0  0  0  0
    6.0187    0.6728   -0.4061 H   0  0  0  0  0  0  0  0  0  0  0  0
    6.9230    0.3586    1.8715 H   0  0  0  0  0  0  0  0  0  0  0  0
    5.8836    1.5263    3.8227 H   0  0  0  0  0  0  0  0  0  0  0  0
    3.8981    3.0008    3.4431 H   0  0  0  0  0  0  0  0  0  0  0  0
    2.9728    3.2956    1.1737 H   0  0  0  0  0  0  0  0  0  0  0  0
  1  2  1  0
  1 29  1  0
  1 30  1  0
  1 31  1  0
  2  3  1  0
  2 32  1  0
  2 33  1  0
  3  4  1  0
  3 28  1  0
  4  5  2  0
  4  9  1  0
  5  6  1  0
  5 34  1  0
  6  7  2  0
  6 35  1  0
  7  8  1  0
  7 36  1  0
  8  9  2  0
  8 37  1  0
  9 10  1  0
 10 11  1  0
 10 28  2  0
 11 12  2  0
 11 38  1  0
 12 13  1  0
 12 39  1  0
 13 14  2  0
 13 40  1  0
 14 15  1  0
 14 28  1  0
 15 16  1  0
 15 22  1  0
 16 17  2  0
 16 21  1  0
 17 18  1  0
 17 41  1  0
 18 19  2  0
 18 42  1  0
 19 20  1  0
 19 43  1  0
 20 21  2  0
 20 44  1  0
 21 45  1  0
 22 23  2  0
 22 27  1  0
 23 24  1  0
 23 46  1  0
 24 25  2  0
 24 47  1  0
 25 26  1  0
 25 48  1  0
 26 27  2  0
 26 49  1  0
 27 50  1  0
M  END

