
     RDKit          3D

 32 35  0  0  0  0  0  0  0  0999 V2000
    1.1756   -0.0742    0.8318 C   0  0  0  0  0  0  0  0  0  0  0  0
    2.6099   -0.1051    0.3879 C   0  0  0  0  0  0  0  0  0  0  0  0
    3.3293   -1.2744    0.3873 C   0  0  0  0  0  0  0  0  0  0  0  0
    4.6815   -1.2449   -0.0392 C   0  0  0  0  0  0  0  0  0  0  0  0
    5.3037   -0.0626   -0.4576 C   0  0  0  0  0  0  0  0  0  0  0  0
    6.6701   -0.0998   -0.8742 C   0  0  0  0  0  0  0  0  0  0  0  0
    7.4043   -1.1872   -0.8939 N   0  0  0  0  0  0  0  0  0  0  0  0
    6.8104   -2.3293   -0.4924 C   0  0  0  0  0  0  0  0  0  0  0  0
    7.3010   -3.5583   -0.4100 N   0  0  0  0  0  0  0  0  0  0  0  0
    6.2569   -4.2815    0.0511 C   0  0  0  0  0  0  0  0  0  0  0  0
    5.1253   -3.6170    0.2750 N   0  0  0  0  0  0  0  0  0  0  0  0
    5.4714   -2.3617   -0.0714 N   0  0  0  0  0  0  0  0  0  0  0  0
    4.5539    1.1928   -0.4642 C   0  0  0  0  0  0  0  0  0  0  0  0
    4.9968    2.2715   -0.8074 O   0  0  0  0  0  0  0  0  0  0  0  0
    3.1954    1.0817   -0.0213 N   0  0  0  0  0  0  0  0  0  0  0  0
    2.4461    2.3152   -0.0239 C   0  0  0  0  0  0  0  0  0  0  0  0
    2.4677    3.1500    1.0971 C   0  0  0  0  0  0  0  0  0  0  0  0
    1.7534    4.3483    1.0837 C   0  0  0  0  0  0  0  0  0  0  0  0
    1.0293    4.7097   -0.0497 C   0  0  0  0  0  0  0  0  0  0  0  0
    0.3475    5.8523   -0.0566 F   0  0  0  0  0  0  0  0  0  0  0  0
    1.0128    3.8826   -1.1811 C   0  0  0  0  0  0  0  0  0  0  0  0
    0.1076    4.3613   -2.5831 Cl  0  0  0  0  0  0  0  0  0  0  0  0
    1.7299    2.6846   -1.1658 C   0  0  0  0  0  0  0  0  0  0  0  0
    0.8549   -1.0799    1.1312 H   0  0  0  0  0  0  0  0  0  0  0  0
    0.5135    0.2827    0.0278 H   0  0  0  0  0  0  0  0  0  0  0  0
    1.0357    0.6093    1.6838 H   0  0  0  0  0  0  0  0  0  0  0  0
    2.8831   -2.2138    0.7053 H   0  0  0  0  0  0  0  0  0  0  0  0
    7.1312    0.8400   -1.1962 H   0  0  0  0  0  0  0  0  0  0  0  0
    6.3158   -5.3545    0.2373 H   0  0  0  0  0  0  0  0  0  0  0  0
    3.0501    2.8659    1.9753 H   0  0  0  0  0  0  0  0  0  0  0  0
    1.7508    5.0216    1.9429 H   0  0  0  0  0  0  0  0  0  0  0  0
    1.7308    2.0484   -2.0518 H   0  0  0  0  0  0  0  0  0  0  0  0
  1  2  1  0
  1 24  1  0
  1 25  1  0
  1 26  1  0
  2  3  2  0
  2 15  1  0
  3  4  1  0
  3 27  1  0
  4  5  2  0
  4 12  1  0
  5  6  1  0
  5 13  1  0
  6  7  2  0
  6 28  1  0
  7  8  1  0
  8  9  2  0
  8 12  1  0
  9 10  1  0
 10 11  2  0
 10 29  1  0
 11 12  1  0
 13 14  2  0
 13 15  1  0
 15 16  1  0
 16 17  2  0
 16 23  1  0
 17 18  1  0
 17 30  1  0
 18 19  2  0
 18 31  1  0
 19 20  1  0
 19 21  1  0
 21 22  1  0
 21 23  2  0
 23 32  1  0
M  END

