
     RDKit          3D

 52 53  0  0  0  0  0  0  0  0999 V2000
    2.0706    1.7740   -1.4834 C   0  0  0  0  0  0  0  0  0  0  0  0
    3.5187    1.4741   -1.1321 C   0  0  0  0  0  0  0  0  0  0  0  0
    4.1237    0.5768   -2.0793 O   0  0  0  0  0  0  0  0  0  0  0  0
    3.9568   -0.7441   -1.8902 C   0  0  0  0  0  0  0  0  0  0  0  0
    3.3209   -1.1963   -0.9401 O   0  0  0  0  0  0  0  0  0  0  0  0
    4.6008   -1.5585   -2.9155 C   0  0  0  0  0  0  0  0  0  0  0  0
    5.3477   -1.0794   -4.0474 C   0  0  0  0  0  0  0  0  0  0  0  0
    5.8464   -2.0700   -4.8424 C   0  0  0  0  0  0  0  0  0  0  0  0
    6.6785   -1.9702   -6.1142 C   0  0  1  0  0  0  0  0  0  0  0  0
    6.9334   -0.4910   -6.4566 C   0  0  0  0  0  0  0  0  0  0  0  0
    8.0382   -2.6790   -5.9125 C   0  0  0  0  0  0  0  0  0  0  0  0
    5.9263   -2.6342   -7.2912 C   0  0  0  0  0  0  0  0  0  0  0  0
    5.3972   -3.6663   -4.2112 S   0  0  0  0  0  0  0  0  0  0  0  0
    4.5474   -2.9531   -2.8746 C   0  0  0  0  0  0  0  0  0  0  0  0
    3.9002   -3.6643   -1.8938 N   0  0  0  0  0  0  0  0  0  0  0  0
    3.8518   -5.0492   -1.8251 C   0  0  0  0  0  0  0  0  0  0  0  0
    4.3470   -5.7395   -2.7070 O   0  0  0  0  0  0  0  0  0  0  0  0
    3.2232   -5.5754   -0.7179 N   0  0  0  0  0  0  0  0  0  0  0  0
    3.0215   -7.0184   -0.6616 C   0  0  0  0  0  0  0  0  0  0  0  0
    3.6522   -7.6142    0.6003 C   0  0  0  0  0  0  0  0  0  0  0  0
    3.1375   -6.9124    1.8806 C   0  0  2  0  0  0  0  0  0  0  0  0
    1.6919   -7.3027    2.2125 C   0  0  0  0  0  0  0  0  0  0  0  0
    0.7703   -6.5343    2.2704 O   0  0  0  0  0  0  0  0  0  0  0  0
    1.4885   -8.6192    2.4548 O   0  0  0  0  0  0  0  0  0  0  0  0
    3.3003   -5.3901    1.7459 C   0  0  0  0  0  0  0  0  0  0  0  0
    2.7129   -4.8386    0.4374 C   0  0  0  0  0  0  0  0  0  0  0  0
    1.6646    2.5259   -0.7875 H   0  0  0  0  0  0  0  0  0  0  0  0
    1.4538    0.8668   -1.4048 H   0  0  0  0  0  0  0  0  0  0  0  0
    1.9878    2.1720   -2.5068 H   0  0  0  0  0  0  0  0  0  0  0  0
    3.5963    1.0384   -0.1253 H   0  0  0  0  0  0  0  0  0  0  0  0
    4.1361    2.3830   -1.1786 H   0  0  0  0  0  0  0  0  0  0  0  0
    5.4885   -0.0159   -4.2306 H   0  0  0  0  0  0  0  0  0  0  0  0
    7.4837    0.0211   -5.6520 H   0  0  0  0  0  0  0  0  0  0  0  0
    5.9912    0.0525   -6.6273 H   0  0  0  0  0  0  0  0  0  0  0  0
    7.5356   -0.4167   -7.3759 H   0  0  0  0  0  0  0  0  0  0  0  0
    8.6029   -2.2205   -5.0855 H   0  0  0  0  0  0  0  0  0  0  0  0
    8.6492   -2.6090   -6.8275 H   0  0  0  0  0  0  0  0  0  0  0  0
    7.9069   -3.7470   -5.6773 H   0  0  0  0  0  0  0  0  0  0  0  0
    4.9559   -2.1437   -7.4656 H   0  0  0  0  0  0  0  0  0  0  0  0
    5.7325   -3.7010   -7.0974 H   0  0  0  0  0  0  0  0  0  0  0  0
    6.5199   -2.5632   -8.2175 H   0  0  0  0  0  0  0  0  0  0  0  0
    3.4190   -3.0453   -1.2347 H   0  0  0  0  0  0  0  0  0  0  0  0
    3.4677   -7.4522   -1.5642 H   0  0  0  0  0  0  0  0  0  0  0  0
    1.9357   -7.2360   -0.6798 H   0  0  0  0  0  0  0  0  0  0  0  0
    4.7462   -7.4905    0.5476 H   0  0  0  0  0  0  0  0  0  0  0  0
    3.4590   -8.7003    0.6258 H   0  0  0  0  0  0  0  0  0  0  0  0
    3.7468   -7.2592    2.7360 H   0  0  0  0  0  0  0  0  0  0  0  0
    2.3200   -9.1110    2.3981 H   0  0  0  0  0  0  0  0  0  0  0  0
    4.3767   -5.1531    1.7803 H   0  0  0  0  0  0  0  0  0  0  0  0
    2.8187   -4.8831    2.5950 H   0  0  0  0  0  0  0  0  0  0  0  0
    2.9669   -3.7742    0.3666 H   0  0  0  0  0  0  0  0  0  0  0  0
    1.6126   -4.9132    0.4711 H   0  0  0  0  0  0  0  0  0  0  0  0
  1  2  1  0
  1 27  1  0
  1 28  1  0
  1 29  1  0
  2  3  1  0
  2 30  1  0
  2 31  1  0
  3  4  1  0
  4  5  2  0
  4  6  1  0
  6  7  1  0
  6 14  2  0
  7  8  2  0
  7 32  1  0
  8  9  1  0
  8 13  1  0
  9 10  1  6
  9 11  1  0
  9 12  1  0
 10 33  1  0
 10 34  1  0
 10 35  1  0
 11 36  1  0
 11 37  1  0
 11 38  1  0
 12 39  1  0
 12 40  1  0
 12 41  1  0
 13 14  1  0
 14 15  1  0
 15 16  1  0
 15 42  1  0
 16 17  2  0
 16 18  1  0
 18 19  1  0
 18 26  1  0
 19 20  1  0
 19 43  1  0
 19 44  1  0
 20 21  1  0
 20 45  1  0
 20 46  1  0
 21 22  1  0
 21 25  1  0
 21 47  1  1
 22 23  2  0
 22 24  1  0
 24 48  1  0
 25 26  1  0
 25 49  1  0
 25 50  1  0
 26 51  1  0
 26 52  1  0
M  END

