
     RDKit          3D

 32 33  0  0  0  0  0  0  0  0999 V2000
    1.3525   -1.9460    0.1124 C   0  0  0  0  0  0  0  0  0  0  0  0
    2.7709   -1.7720    0.4194 N   0  0  0  0  0  0  0  0  0  0  0  0
    3.1631   -1.9413    1.7956 C   0  0  0  0  0  0  0  0  0  0  0  0
    2.7536   -0.7961    2.7212 C   0  0  1  0  0  0  0  0  0  0  0  0
    3.2236    0.3829    2.2922 F   0  0  0  0  0  0  0  0  0  0  0  0
    1.4173   -0.6820    2.8343 F   0  0  0  0  0  0  0  0  0  0  0  0
    3.2434   -1.0123    3.9565 F   0  0  0  0  0  0  0  0  0  0  0  0
    3.5074   -1.0387   -0.5188 C   0  0  0  0  0  0  0  0  0  0  0  0
    2.8896   -0.4803   -1.4365 O   0  0  0  0  0  0  0  0  0  0  0  0
    4.9588   -0.9578   -0.4707 C   0  0  0  0  0  0  0  0  0  0  0  0
    6.1243   -1.9264    0.4662 S   0  0  0  0  0  0  0  0  0  0  0  0
    7.4325   -1.0709   -0.3482 C   0  0  0  0  0  0  0  0  0  0  0  0
    8.7287   -1.3664   -0.0559 N   0  0  0  0  0  0  0  0  0  0  0  0
    9.8223   -0.6117   -0.5967 C   0  0  1  0  0  0  0  0  0  0  0  0
   11.1239   -1.3352   -0.8197 C   0  0  0  0  0  0  0  0  0  0  0  0
   10.2900   -0.9015   -1.9973 C   0  0  0  0  0  0  0  0  0  0  0  0
    7.0632   -0.1911   -1.2357 N   0  0  0  0  0  0  0  0  0  0  0  0
    5.6973   -0.1325   -1.3415 C   0  0  0  0  0  0  0  0  0  0  0  0
    5.1570    0.7004   -2.2512 N   0  0  0  0  0  0  0  0  0  0  0  0
    0.9559   -2.7696    0.7249 H   0  0  0  0  0  0  0  0  0  0  0  0
    1.2386   -2.1934   -0.9502 H   0  0  0  0  0  0  0  0  0  0  0  0
    0.7551   -1.0403    0.3095 H   0  0  0  0  0  0  0  0  0  0  0  0
    4.2504   -2.0330    1.9043 H   0  0  0  0  0  0  0  0  0  0  0  0
    2.7197   -2.8614    2.2102 H   0  0  0  0  0  0  0  0  0  0  0  0
    8.9014   -1.9049    0.7850 H   0  0  0  0  0  0  0  0  0  0  0  0
    9.8709    0.4349   -0.2688 H   0  0  0  0  0  0  0  0  0  0  0  0
   11.1523   -2.4036   -0.5856 H   0  0  0  0  0  0  0  0  0  0  0  0
   12.0498   -0.7985   -0.5965 H   0  0  0  0  0  0  0  0  0  0  0  0
    9.7476   -1.6718   -2.5503 H   0  0  0  0  0  0  0  0  0  0  0  0
   10.6268   -0.0553   -2.6016 H   0  0  0  0  0  0  0  0  0  0  0  0
    5.7730    1.2158   -2.8633 H   0  0  0  0  0  0  0  0  0  0  0  0
    4.1507    0.6294   -2.3903 H   0  0  0  0  0  0  0  0  0  0  0  0
  1  2  1  0
  1 20  1  0
  1 21  1  0
  1 22  1  0
  2  3  1  0
  2  8  1  0
  3  4  1  0
  3 23  1  0
  3 24  1  0
  4  5  1  6
  4  6  1  0
  4  7  1  0
  8  9  2  0
  8 10  1  0
 10 11  1  0
 10 18  2  0
 11 12  1  0
 12 13  1  0
 12 17  2  0
 13 14  1  0
 13 25  1  0
 14 15  1  0
 14 16  1  0
 14 26  1  6
 15 16  1  0
 15 27  1  0
 15 28  1  0
 16 29  1  0
 16 30  1  0
 17 18  1  0
 18 19  1  0
 19 31  1  0
 19 32  1  0
M  END

