
     RDKit          3D

 16 16  0  0  0  0  0  0  0  0999 V2000
    1.1023   -0.0264   -0.4885 O   0  0  0  0  0  0  0  0  0  0  0  0
    2.1777    0.0850    0.0036 C   0  0  0  0  0  0  0  0  0  0  0  0
    3.1770    1.5385   -0.2698 Cl  0  0  0  0  0  0  0  0  0  0  0  0
    2.8444   -0.9370    0.8971 C   0  0  0  0  0  0  0  0  0  0  0  0
    3.7124   -0.4574    1.7923 N   0  0  0  0  0  0  0  0  0  0  0  0
    4.3004   -1.2570    2.6454 C   0  0  0  0  0  0  0  0  0  0  0  0
    5.6552   -0.3938    4.0512 I   0  0  0  0  0  0  0  0  0  0  0  0
    4.0821   -2.6418    2.6670 C   0  0  0  0  0  0  0  0  0  0  0  0
    3.1988   -3.1794    1.7339 C   0  0  0  0  0  0  0  0  0  0  0  0
    2.9800   -4.6829    1.7057 C   0  0  1  0  0  0  0  0  0  0  0  0
    3.6502   -5.2227    0.6574 F   0  0  0  0  0  0  0  0  0  0  0  0
    3.4650   -5.2462    2.8407 F   0  0  0  0  0  0  0  0  0  0  0  0
    2.5523   -2.3155    0.8253 C   0  0  0  0  0  0  0  0  0  0  0  0
    1.3641   -3.0536   -0.4585 Br  0  0  0  0  0  0  0  0  0  0  0  0
    4.5808   -3.2914    3.3854 H   0  0  0  0  0  0  0  0  0  0  0  0
    1.9140   -4.9466    1.6125 H   0  0  0  0  0  0  0  0  0  0  0  0
  1  2  2  0
  2  3  1  0
  2  4  1  0
  4  5  2  0
  4 13  1  0
  5  6  1  0
  6  7  1  0
  6  8  2  0
  8  9  1  0
  8 15  1  0
  9 10  1  0
  9 13  2  0
 10 11  1  0
 10 12  1  0
 10 16  1  6
 13 14  1  0
M  END

