
     RDKit          3D

 67 77  0  0  0  0  0  0  0  0999 V2000
   -1.0710   -2.0092   -0.8206 C   0  0  0  0  0  0  0  0  0  0  0  0
   -1.0412   -0.7997   -1.5279 C   0  0  0  0  0  0  0  0  0  0  0  0
   -0.3398    0.3032   -1.0236 C   0  0  0  0  0  0  0  0  0  0  0  0
    0.3272    0.1770    0.1913 C   0  0  0  0  0  0  0  0  0  0  0  0
    0.2998   -1.0370    0.9065 C   0  0  0  0  0  0  0  0  0  0  0  0
   -0.4011   -2.1370    0.4003 C   0  0  0  0  0  0  0  0  0  0  0  0
    1.0705   -0.8691    2.1477 C   0  0  0  0  0  0  0  0  0  0  0  0
    1.3328   -1.7615    3.1925 C   0  0  0  0  0  0  0  0  0  0  0  0
    2.0990   -1.3253    4.2781 C   0  0  0  0  0  0  0  0  0  0  0  0
    2.5968   -0.0162    4.3202 C   0  0  0  0  0  0  0  0  0  0  0  0
    2.3334    0.8804    3.2763 C   0  0  0  0  0  0  0  0  0  0  0  0
    1.5712    0.4488    2.1949 C   0  0  0  0  0  0  0  0  0  0  0  0
    1.1076    1.2450    0.9723 C   0  0  2  0  0  0  0  0  0  0  0  0
    0.1850    2.4239    1.3484 C   0  0  0  0  0  0  0  0  0  0  0  0
   -0.9693    2.4096    2.1214 C   0  0  0  0  0  0  0  0  0  0  0  0
   -1.6708    3.6091    2.3203 C   0  0  0  0  0  0  0  0  0  0  0  0
   -1.2180    4.8036    1.7466 C   0  0  0  0  0  0  0  0  0  0  0  0
   -0.0563    4.8267    0.9662 C   0  0  0  0  0  0  0  0  0  0  0  0
    0.6446    3.6318    0.7714 C   0  0  0  0  0  0  0  0  0  0  0  0
    1.8629    3.3081    0.0486 C   0  0  0  0  0  0  0  0  0  0  0  0
    2.9873    4.2181   -0.9128 S   0  0  0  0  0  0  0  0  0  0  0  0
    3.9214    2.7752   -1.1627 C   0  0  0  0  0  0  0  0  0  0  0  0
    3.3949    1.6552   -0.5313 C   0  0  0  0  0  0  0  0  0  0  0  0
    2.1899    1.9626    0.1626 C   0  0  0  0  0  0  0  0  0  0  0  0
    4.3227    0.4605   -0.7622 C   0  0  2  0  0  0  0  0  0  0  0  0
    3.6944   -0.7993   -1.3636 C   0  0  0  0  0  0  0  0  0  0  0  0
    2.9549   -0.9283   -2.5353 C   0  0  0  0  0  0  0  0  0  0  0  0
    2.5184   -2.2017   -2.9241 C   0  0  0  0  0  0  0  0  0  0  0  0
    2.8239   -3.3277   -2.1481 C   0  0  0  0  0  0  0  0  0  0  0  0
    3.5669   -3.2006   -0.9701 C   0  0  0  0  0  0  0  0  0  0  0  0
    4.0012   -1.9301   -0.5779 C   0  0  0  0  0  0  0  0  0  0  0  0
    4.7928   -1.4972    0.5834 C   0  0  0  0  0  0  0  0  0  0  0  0
    5.3487   -2.2252    1.6410 C   0  0  0  0  0  0  0  0  0  0  0  0
    6.0819   -1.5455    2.6188 C   0  0  0  0  0  0  0  0  0  0  0  0
    6.2574   -0.1572    2.5429 C   0  0  0  0  0  0  0  0  0  0  0  0
    5.7018    0.5743    1.4851 C   0  0  0  0  0  0  0  0  0  0  0  0
    4.9722   -0.1012    0.5115 C   0  0  0  0  0  0  0  0  0  0  0  0
    5.3915    1.0859   -1.6837 C   0  0  0  0  0  0  0  0  0  0  0  0
    6.4961    0.4787   -2.2680 C   0  0  0  0  0  0  0  0  0  0  0  0
    7.3574    1.2514   -3.0626 C   0  0  0  0  0  0  0  0  0  0  0  0
    7.1114    2.6153   -3.2627 C   0  0  0  0  0  0  0  0  0  0  0  0
    6.0011    3.2350   -2.6776 C   0  0  0  0  0  0  0  0  0  0  0  0
    5.1410    2.4638   -1.8887 C   0  0  0  0  0  0  0  0  0  0  0  0
   -1.6229   -2.8606   -1.2272 H   0  0  0  0  0  0  0  0  0  0  0  0
   -1.5706   -0.7157   -2.4804 H   0  0  0  0  0  0  0  0  0  0  0  0
   -0.3222    1.2477   -1.5733 H   0  0  0  0  0  0  0  0  0  0  0  0
   -0.4278   -3.0824    0.9481 H   0  0  0  0  0  0  0  0  0  0  0  0
    0.9460   -2.7834    3.1644 H   0  0  0  0  0  0  0  0  0  0  0  0
    2.3129   -2.0121    5.1011 H   0  0  0  0  0  0  0  0  0  0  0  0
    3.1970    0.3081    5.1739 H   0  0  0  0  0  0  0  0  0  0  0  0
    2.7196    1.9020    3.3131 H   0  0  0  0  0  0  0  0  0  0  0  0
   -1.3267    1.4788    2.5688 H   0  0  0  0  0  0  0  0  0  0  0  0
   -2.5786    3.6097    2.9287 H   0  0  0  0  0  0  0  0  0  0  0  0
   -1.7764    5.7288    1.9104 H   0  0  0  0  0  0  0  0  0  0  0  0
    0.2960    5.7607    0.5213 H   0  0  0  0  0  0  0  0  0  0  0  0
    2.7188   -0.0523   -3.1444 H   0  0  0  0  0  0  0  0  0  0  0  0
    1.9334   -2.3172   -3.8398 H   0  0  0  0  0  0  0  0  0  0  0  0
    2.4768   -4.3141   -2.4661 H   0  0  0  0  0  0  0  0  0  0  0  0
    3.8032   -4.0820   -0.3683 H   0  0  0  0  0  0  0  0  0  0  0  0
    5.2149   -3.3081    1.7047 H   0  0  0  0  0  0  0  0  0  0  0  0
    6.5221   -2.1021    3.4502 H   0  0  0  0  0  0  0  0  0  0  0  0
    6.8337    0.3593    3.3149 H   0  0  0  0  0  0  0  0  0  0  0  0
    5.8443    1.6562    1.4239 H   0  0  0  0  0  0  0  0  0  0  0  0
    6.6925   -0.5850   -2.1121 H   0  0  0  0  0  0  0  0  0  0  0  0
    8.2278    0.7832   -3.5288 H   0  0  0  0  0  0  0  0  0  0  0  0
    7.7924    3.2030   -3.8836 H   0  0  0  0  0  0  0  0  0  0  0  0
    5.8102    4.2992   -2.8371 H   0  0  0  0  0  0  0  0  0  0  0  0
  1  2  2  0
  1  6  1  0
  1 44  1  0
  2  3  1  0
  2 45  1  0
  3  4  2  0
  3 46  1  0
  4  5  1  0
 13  4  1  6
  5  6  2  0
  5  7  1  0
  6 47  1  0
  7  8  2  0
  7 12  1  0
  8  9  1  0
  8 48  1  0
  9 10  2  0
  9 49  1  0
 10 11  1  0
 10 50  1  0
 11 12  2  0
 11 51  1  0
 12 13  1  0
 13 14  1  0
 13 24  1  0
 14 15  2  0
 14 19  1  0
 15 16  1  0
 15 52  1  0
 16 17  2  0
 16 53  1  0
 17 18  1  0
 17 54  1  0
 18 19  2  0
 18 55  1  0
 19 20  1  0
 20 21  1  0
 20 24  2  0
 21 22  1  0
 22 23  2  0
 22 43  1  0
 23 24  1  0
 25 23  1  1
 25 26  1  0
 25 37  1  0
 25 38  1  0
 26 27  2  0
 26 31  1  0
 27 28  1  0
 27 56  1  0
 28 29  2  0
 28 57  1  0
 29 30  1  0
 29 58  1  0
 30 31  2  0
 30 59  1  0
 31 32  1  0
 32 33  2  0
 32 37  1  0
 33 34  1  0
 33 60  1  0
 34 35  2  0
 34 61  1  0
 35 36  1  0
 35 62  1  0
 36 37  2  0
 36 63  1  0
 38 39  1  0
 38 43  2  0
 39 40  2  0
 39 64  1  0
 40 41  1  0
 40 65  1  0
 41 42  2  0
 41 66  1  0
 42 43  1  0
 42 67  1  0
M  END

