
     RDKit          3D

 50 54  0  0  0  0  0  0  0  0999 V2000
    2.7267   -0.8777   -0.5344 O   0  0  0  0  0  0  0  0  0  0  0  0
    2.1869    0.1517   -0.1893 C   0  0  0  0  0  0  0  0  0  0  0  0
    0.9074    0.5197   -0.4775 N   0  0  0  0  0  0  0  0  0  0  0  0
   -0.0136   -0.3353   -1.2025 C   0  0  1  0  0  0  0  0  0  0  0  0
    0.5538   -1.2486   -1.4165 H   0  0  0  0  0  0  0  0  0  0  0  0
   -1.3116   -0.6610   -0.3757 C   0  0  2  0  0  0  0  0  0  0  0  0
   -1.1057   -0.8461    0.6871 H   0  0  0  0  0  0  0  0  0  0  0  0
   -2.0343   -1.7666   -1.1304 C   0  0  0  0  0  0  0  0  0  0  0  0
   -2.5350   -1.2257   -2.2516 C   0  0  0  0  0  0  0  0  0  0  0  0
   -2.1456    0.2474   -2.2572 C   0  0  1  0  0  0  0  0  0  0  0  0
   -2.7421    0.8926   -2.9198 H   0  0  0  0  0  0  0  0  0  0  0  0
   -2.1987    0.5502   -0.7424 C   0  0  0  0  0  0  0  0  0  0  0  0
   -0.5978    0.2894   -2.5293 C   0  0  1  0  0  0  0  0  0  0  0  0
   -0.3558   -0.3543   -3.3880 H   0  0  0  0  0  0  0  0  0  0  0  0
   -0.0648    1.6813   -2.8881 C   0  0  0  0  0  0  0  0  0  0  0  0
   -0.4963    2.1095   -4.1634 O   0  0  0  0  0  0  0  0  0  0  0  0
    2.7781    1.1233    0.5604 O   0  0  0  0  0  0  0  0  0  0  0  0
    4.1625    0.9735    0.8669 C   0  0  0  0  0  0  0  0  0  0  0  0
    5.0016    2.0506    0.1682 C   0  0  2  0  0  0  0  0  0  0  0  0
    4.6735    3.4830    0.5641 C   0  0  0  0  0  0  0  0  0  0  0  0
    4.6328    4.0609    1.8306 C   0  0  0  0  0  0  0  0  0  0  0  0
    4.3162    5.4214    1.9503 C   0  0  0  0  0  0  0  0  0  0  0  0
    4.0471    6.1915    0.8112 C   0  0  0  0  0  0  0  0  0  0  0  0
    4.0883    5.6166   -0.4635 C   0  0  0  0  0  0  0  0  0  0  0  0
    4.4011    4.2583   -0.5839 C   0  0  0  0  0  0  0  0  0  0  0  0
    4.5135    3.3947   -1.7691 C   0  0  0  0  0  0  0  0  0  0  0  0
    4.3337    3.6756   -3.1277 C   0  0  0  0  0  0  0  0  0  0  0  0
    4.4928    2.6431   -4.0580 C   0  0  0  0  0  0  0  0  0  0  0  0
    4.8252    1.3486   -3.6370 C   0  0  0  0  0  0  0  0  0  0  0  0
    5.0088    1.0649   -2.2763 C   0  0  0  0  0  0  0  0  0  0  0  0
    4.8559    2.0911   -1.3466 C   0  0  0  0  0  0  0  0  0  0  0  0
    0.5994    1.4086   -0.1018 H   0  0  0  0  0  0  0  0  0  0  0  0
   -2.0345   -2.8201   -0.8440 H   0  0  0  0  0  0  0  0  0  0  0  0
   -3.0302   -1.7445   -3.0750 H   0  0  0  0  0  0  0  0  0  0  0  0
   -3.2138    0.4824   -0.3243 H   0  0  0  0  0  0  0  0  0  0  0  0
   -1.7645    1.5263   -0.4671 H   0  0  0  0  0  0  0  0  0  0  0  0
   -0.3333    2.4222   -2.1067 H   0  0  0  0  0  0  0  0  0  0  0  0
    1.0345    1.6543   -2.9287 H   0  0  0  0  0  0  0  0  0  0  0  0
   -1.4561    2.2120   -4.1425 H   0  0  0  0  0  0  0  0  0  0  0  0
    4.4889   -0.0332    0.5694 H   0  0  0  0  0  0  0  0  0  0  0  0
    4.2644    1.0662    1.9602 H   0  0  0  0  0  0  0  0  0  0  0  0
    6.0549    1.8324    0.4328 H   0  0  0  0  0  0  0  0  0  0  0  0
    4.8449    3.4689    2.7257 H   0  0  0  0  0  0  0  0  0  0  0  0
    4.2806    5.8851    2.9394 H   0  0  0  0  0  0  0  0  0  0  0  0
    3.8033    7.2515    0.9200 H   0  0  0  0  0  0  0  0  0  0  0  0
    3.8783    6.2228   -1.3485 H   0  0  0  0  0  0  0  0  0  0  0  0
    4.0690    4.6822   -3.4615 H   0  0  0  0  0  0  0  0  0  0  0  0
    4.3506    2.8463   -5.1225 H   0  0  0  0  0  0  0  0  0  0  0  0
    4.9379    0.5509   -4.3754 H   0  0  0  0  0  0  0  0  0  0  0  0
    5.2485    0.0479   -1.9571 H   0  0  0  0  0  0  0  0  0  0  0  0
  1  2  2  0
  2  3  1  0
  2 17  1  0
  3  4  1  0
  3 32  1  0
  4  5  1  6
  4  6  1  0
  4 13  1  0
  6  7  1  1
  6  8  1  0
  6 12  1  0
  8  9  2  0
  8 33  1  0
  9 10  1  0
  9 34  1  0
 10 11  1  6
 10 12  1  0
 10 13  1  0
 12 35  1  0
 12 36  1  0
 13 14  1  6
 13 15  1  0
 15 16  1  0
 15 37  1  0
 15 38  1  0
 16 39  1  0
 17 18  1  0
 18 19  1  0
 18 40  1  0
 18 41  1  0
 19 20  1  0
 19 31  1  0
 19 42  1  6
 20 21  2  0
 20 25  1  0
 21 22  1  0
 21 43  1  0
 22 23  2  0
 22 44  1  0
 23 24  1  0
 23 45  1  0
 24 25  2  0
 24 46  1  0
 25 26  1  0
 26 27  2  0
 26 31  1  0
 27 28  1  0
 27 47  1  0
 28 29  2  0
 28 48  1  0
 29 30  1  0
 29 49  1  0
 30 31  2  0
 30 50  1  0
M  END

