
     RDKit          3D

 71 74  0  0  0  0  0  0  0  0999 V2000
    1.0795   -6.6766    3.5797 C   0  0  0  0  0  0  0  0  0  0  0  0
    2.1050   -6.0991    2.6119 C   0  0  1  0  0  0  0  0  0  0  0  0
    2.4072   -7.0393    1.4451 C   0  0  0  0  0  0  0  0  0  0  0  0
    1.5541   -4.8664    2.1418 O   0  0  0  0  0  0  0  0  0  0  0  0
    2.3320   -3.8748    1.6317 C   0  0  0  0  0  0  0  0  0  0  0  0
    1.6438   -2.7451    1.1535 C   0  0  0  0  0  0  0  0  0  0  0  0
    2.3635   -1.6746    0.6330 C   0  0  0  0  0  0  0  0  0  0  0  0
    3.7616   -1.6846    0.5676 C   0  0  0  0  0  0  0  0  0  0  0  0
    4.4486   -2.8120    1.0423 C   0  0  0  0  0  0  0  0  0  0  0  0
    5.8513   -2.9304    1.0212 N   0  0  0  0  0  0  0  0  0  0  0  0
    6.7898   -2.0227    0.5952 C   0  0  0  0  0  0  0  0  0  0  0  0
    6.5371   -0.9148    0.1529 O   0  0  0  0  0  0  0  0  0  0  0  0
    8.2553   -2.4780    0.7362 C   0  0  1  0  0  0  0  0  0  0  0  0
    8.8669   -1.9825    2.0659 C   0  0  0  0  0  0  0  0  0  0  0  0
    8.4049   -2.8350    3.2522 C   0  0  0  0  0  0  0  0  0  0  0  0
    8.6434   -4.3240    2.9911 C   0  0  0  0  0  0  0  0  0  0  0  0
    8.0176   -4.7454    1.7302 N   0  0  0  0  0  0  0  0  0  0  0  0
    7.9893   -6.1916    1.5304 C   0  0  0  0  0  0  0  0  0  0  0  0
    9.3344   -6.8546    1.3823 C   0  0  0  0  0  0  0  0  0  0  0  0
   10.0944   -7.3659    2.3015 N   0  0  0  0  0  0  0  0  0  0  0  0
   11.2084   -7.7731    1.5919 C   0  0  0  0  0  0  0  0  0  0  0  0
   12.3672   -8.4272    2.2139 C   0  0  0  0  0  0  0  0  0  0  0  0
   12.3816   -8.6725    3.5928 C   0  0  0  0  0  0  0  0  0  0  0  0
   13.4802   -9.2941    4.1918 C   0  0  0  0  0  0  0  0  0  0  0  0
   14.5989   -9.6917    3.4423 C   0  0  0  0  0  0  0  0  0  0  0  0
   15.8267  -10.3791    4.0690 C   0  0  1  0  0  0  0  0  0  0  0  0
   15.6749  -10.5712    5.5887 C   0  0  0  0  0  0  0  0  0  0  0  0
   16.0196  -11.7707    3.4222 C   0  0  0  0  0  0  0  0  0  0  0  0
   17.0832   -9.5142    3.8135 C   0  0  0  0  0  0  0  0  0  0  0  0
   14.5667   -9.4366    2.0555 C   0  0  0  0  0  0  0  0  0  0  0  0
   13.4792   -8.8189    1.4475 C   0  0  0  0  0  0  0  0  0  0  0  0
   11.1288   -7.5203    0.3036 N   0  0  0  0  0  0  0  0  0  0  0  0
    9.8901   -6.9114    0.1614 O   0  0  0  0  0  0  0  0  0  0  0  0
    8.5098   -3.9853    0.5735 C   0  0  0  0  0  0  0  0  0  0  0  0
    3.7305   -3.9062    1.5715 C   0  0  0  0  0  0  0  0  0  0  0  0
    1.4380   -7.6276    4.0029 H   0  0  0  0  0  0  0  0  0  0  0  0
    0.1263   -6.8628    3.0602 H   0  0  0  0  0  0  0  0  0  0  0  0
    0.8889   -5.9743    4.4048 H   0  0  0  0  0  0  0  0  0  0  0  0
    3.0354   -5.8893    3.1717 H   0  0  0  0  0  0  0  0  0  0  0  0
    1.4809   -7.2683    0.8949 H   0  0  0  0  0  0  0  0  0  0  0  0
    2.8356   -7.9858    1.8116 H   0  0  0  0  0  0  0  0  0  0  0  0
    3.1202   -6.5913    0.7371 H   0  0  0  0  0  0  0  0  0  0  0  0
    0.5539   -2.7374    1.2079 H   0  0  0  0  0  0  0  0  0  0  0  0
    1.8242   -0.7979    0.2643 H   0  0  0  0  0  0  0  0  0  0  0  0
    4.3210   -0.8460    0.1625 H   0  0  0  0  0  0  0  0  0  0  0  0
    6.2468   -3.7888    1.4142 H   0  0  0  0  0  0  0  0  0  0  0  0
    8.7632   -1.9579   -0.0898 H   0  0  0  0  0  0  0  0  0  0  0  0
    8.6165   -0.9210    2.2159 H   0  0  0  0  0  0  0  0  0  0  0  0
    9.9668   -2.0421    1.9814 H   0  0  0  0  0  0  0  0  0  0  0  0
    7.3333   -2.6637    3.4477 H   0  0  0  0  0  0  0  0  0  0  0  0
    8.9438   -2.5412    4.1678 H   0  0  0  0  0  0  0  0  0  0  0  0
    8.2201   -4.9322    3.8066 H   0  0  0  0  0  0  0  0  0  0  0  0
    9.7357   -4.5278    2.9809 H   0  0  0  0  0  0  0  0  0  0  0  0
    7.3950   -6.4120    0.6298 H   0  0  0  0  0  0  0  0  0  0  0  0
    7.4943   -6.6593    2.3945 H   0  0  0  0  0  0  0  0  0  0  0  0
   11.5218   -8.3719    4.1941 H   0  0  0  0  0  0  0  0  0  0  0  0
   13.4496   -9.4659    5.2677 H   0  0  0  0  0  0  0  0  0  0  0  0
   14.8096  -11.2046    5.8393 H   0  0  0  0  0  0  0  0  0  0  0  0
   15.5612   -9.6110    6.1159 H   0  0  0  0  0  0  0  0  0  0  0  0
   16.5727  -11.0647    5.9927 H   0  0  0  0  0  0  0  0  0  0  0  0
   15.1395  -12.4110    3.5918 H   0  0  0  0  0  0  0  0  0  0  0  0
   16.8977  -12.2767    3.8560 H   0  0  0  0  0  0  0  0  0  0  0  0
   16.1790  -11.7014    2.3354 H   0  0  0  0  0  0  0  0  0  0  0  0
   16.9750   -8.5160    4.2668 H   0  0  0  0  0  0  0  0  0  0  0  0
   17.2763   -9.3751    2.7390 H   0  0  0  0  0  0  0  0  0  0  0  0
   17.9739   -9.9929    4.2527 H   0  0  0  0  0  0  0  0  0  0  0  0
   15.4135   -9.7275    1.4299 H   0  0  0  0  0  0  0  0  0  0  0  0
   13.4807   -8.6337    0.3715 H   0  0  0  0  0  0  0  0  0  0  0  0
    8.0092   -4.3657   -0.3316 H   0  0  0  0  0  0  0  0  0  0  0  0
    9.5989   -4.1392    0.4208 H   0  0  0  0  0  0  0  0  0  0  0  0
    4.2871   -4.7726    1.9305 H   0  0  0  0  0  0  0  0  0  0  0  0
  1  2  1  0
  1 36  1  0
  1 37  1  0
  1 38  1  0
  2  3  1  0
  2  4  1  0
  2 39  1  1
  3 40  1  0
  3 41  1  0
  3 42  1  0
  4  5  1  0
  5  6  2  0
  5 35  1  0
  6  7  1  0
  6 43  1  0
  7  8  2  0
  7 44  1  0
  8  9  1  0
  8 45  1  0
  9 10  1  0
  9 35  2  0
 10 11  1  0
 10 46  1  0
 11 12  2  0
 11 13  1  0
 13 14  1  0
 13 34  1  0
 13 47  1  6
 14 15  1  0
 14 48  1  0
 14 49  1  0
 15 16  1  0
 15 50  1  0
 15 51  1  0
 16 17  1  0
 16 52  1  0
 16 53  1  0
 17 18  1  0
 17 34  1  0
 18 19  1  0
 18 54  1  0
 18 55  1  0
 19 20  2  0
 19 33  1  0
 20 21  1  0
 21 22  1  0
 21 32  2  0
 22 23  2  0
 22 31  1  0
 23 24  1  0
 23 56  1  0
 24 25  2  0
 24 57  1  0
 25 26  1  0
 25 30  1  0
 26 27  1  1
 26 28  1  0
 26 29  1  0
 27 58  1  0
 27 59  1  0
 27 60  1  0
 28 61  1  0
 28 62  1  0
 28 63  1  0
 29 64  1  0
 29 65  1  0
 29 66  1  0
 30 31  2  0
 30 67  1  0
 31 68  1  0
 32 33  1  0
 34 69  1  0
 34 70  1  0
 35 71  1  0
M  END

