
     RDKit          3D

 31 33  0  0  0  0  0  0  0  0999 V2000
    2.4797    0.7783   -0.3193 C   0  0  0  0  0  0  0  0  0  0  0  0
    2.4453   -0.6166   -0.3291 C   0  0  0  0  0  0  0  0  0  0  0  0
    1.2296   -1.3026   -0.1714 C   0  0  0  0  0  0  0  0  0  0  0  0
    1.2716   -2.8236   -0.1802 C   0  0  0  0  0  0  0  0  0  0  0  0
    1.7132   -3.4393    1.1427 C   0  0  1  0  0  0  0  0  0  0  0  0
    0.7283   -3.9011    2.1877 C   0  0  0  0  0  0  0  0  0  0  0  0
    1.5306   -4.9122    1.4040 C   0  0  0  0  0  0  0  0  0  0  0  0
    0.0296   -0.5800   -0.0060 C   0  0  0  0  0  0  0  0  0  0  0  0
    0.0700    0.8406   -0.0141 C   0  0  0  0  0  0  0  0  0  0  0  0
    1.3038    1.5042   -0.1634 C   0  0  0  0  0  0  0  0  0  0  0  0
   -1.0878    1.5894    0.1584 N   0  0  0  0  0  0  0  0  0  0  0  0
   -2.3966    0.9885    0.0139 C   0  0  0  0  0  0  0  0  0  0  0  0
   -2.4014   -0.3624    0.7225 C   0  0  0  0  0  0  0  0  0  0  0  0
   -1.3155   -1.2766    0.1442 C   0  0  0  0  0  0  0  0  0  0  0  0
    3.4295    1.3057   -0.4430 H   0  0  0  0  0  0  0  0  0  0  0  0
    3.3688   -1.1848   -0.4697 H   0  0  0  0  0  0  0  0  0  0  0  0
    1.9884   -3.1393   -0.9583 H   0  0  0  0  0  0  0  0  0  0  0  0
    0.3015   -3.2520   -0.4753 H   0  0  0  0  0  0  0  0  0  0  0  0
    2.6380   -3.0016    1.5356 H   0  0  0  0  0  0  0  0  0  0  0  0
   -0.3402   -3.8234    1.9661 H   0  0  0  0  0  0  0  0  0  0  0  0
    0.9735   -3.7410    3.2416 H   0  0  0  0  0  0  0  0  0  0  0  0
    1.0037   -5.5025    0.6471 H   0  0  0  0  0  0  0  0  0  0  0  0
    2.3301   -5.4574    1.9143 H   0  0  0  0  0  0  0  0  0  0  0  0
    1.3249    2.5982   -0.1582 H   0  0  0  0  0  0  0  0  0  0  0  0
   -1.0106    2.5685   -0.0870 H   0  0  0  0  0  0  0  0  0  0  0  0
   -2.6811    0.8463   -1.0521 H   0  0  0  0  0  0  0  0  0  0  0  0
   -3.1471    1.6631    0.4575 H   0  0  0  0  0  0  0  0  0  0  0  0
   -3.3917   -0.8364    0.6301 H   0  0  0  0  0  0  0  0  0  0  0  0
   -2.2170   -0.1943    1.7972 H   0  0  0  0  0  0  0  0  0  0  0  0
   -1.6480   -1.6547   -0.8416 H   0  0  0  0  0  0  0  0  0  0  0  0
   -1.2147   -2.1635    0.7857 H   0  0  0  0  0  0  0  0  0  0  0  0
  1  2  2  0
  1 10  1  0
  1 15  1  0
  2  3  1  0
  2 16  1  0
  3  4  1  0
  3  8  2  0
  4  5  1  0
  4 17  1  0
  4 18  1  0
  5  6  1  0
  5  7  1  0
  5 19  1  1
  6  7  1  0
  6 20  1  0
  6 21  1  0
  7 22  1  0
  7 23  1  0
  8  9  1  0
  8 14  1  0
  9 10  2  0
  9 11  1  0
 10 24  1  0
 11 12  1  0
 11 25  1  0
 12 13  1  0
 12 26  1  0
 12 27  1  0
 13 14  1  0
 13 28  1  0
 13 29  1  0
 14 30  1  0
 14 31  1  0
M  END

