
     RDKit          3D

 17 18  0  0  0  0  0  0  0  0999 V2000
    1.5511    0.1657    0.7560 N   0  0  0  0  0  0  0  0  0  0  0  0
    2.6583    0.0465    0.4218 C   0  0  0  0  0  0  0  0  0  0  0  0
    4.0130   -0.0862    0.0123 C   0  0  0  0  0  0  0  0  0  0  0  0
    4.7571   -1.2348   -0.1972 C   0  0  0  0  0  0  0  0  0  0  0  0
    6.0641   -0.8158   -0.5998 C   0  0  0  0  0  0  0  0  0  0  0  0
    7.2482   -1.5000   -0.9497 C   0  0  0  0  0  0  0  0  0  0  0  0
    8.3703   -0.7628   -1.3001 C   0  0  0  0  0  0  0  0  0  0  0  0
    8.3415    0.6526   -1.3109 C   0  0  0  0  0  0  0  0  0  0  0  0
    7.1930    1.3577   -0.9725 C   0  0  0  0  0  0  0  0  0  0  0  0
    6.0571    0.6122   -0.6175 C   0  0  0  0  0  0  0  0  0  0  0  0
    4.8031    1.0268   -0.2433 N   0  0  0  0  0  0  0  0  0  0  0  0
    4.4915    1.9857   -0.1616 H   0  0  0  0  0  0  0  0  0  0  0  0
    4.3929   -2.2517   -0.0722 H   0  0  0  0  0  0  0  0  0  0  0  0
    7.2766   -2.5924   -0.9433 H   0  0  0  0  0  0  0  0  0  0  0  0
    9.2941   -1.2782   -1.5732 H   0  0  0  0  0  0  0  0  0  0  0  0
    9.2430    1.2025   -1.5919 H   0  0  0  0  0  0  0  0  0  0  0  0
    7.1756    2.4500   -0.9825 H   0  0  0  0  0  0  0  0  0  0  0  0
  1  2  3  0
  2  3  1  0
  3  4  2  0
  3 11  1  0
  4  5  1  0
  4 13  1  0
  5  6  2  0
  5 10  1  0
  6  7  1  0
  6 14  1  0
  7  8  2  0
  7 15  1  0
  8  9  1  0
  8 16  1  0
  9 10  2  0
  9 17  1  0
 10 11  1  0
 11 12  1  0
M  END

