
     RDKit          3D

 57 59  0  0  0  0  0  0  0  0999 V2000
   -5.1175    6.5404    0.4845 C   0  0  0  0  0  0  0  0  0  0  0  0
   -4.3058    7.2173   -0.6217 C   0  0  0  0  0  0  0  0  0  0  0  0
   -2.9824    6.6234   -0.8547 N   0  0  0  0  0  0  0  0  0  0  0  0
   -2.8032    5.7770   -2.0381 C   0  0  0  0  0  0  0  0  0  0  0  0
   -3.2506    4.3266   -1.8527 C   0  0  0  0  0  0  0  0  0  0  0  0
   -2.0128    6.9503    0.0524 C   0  0  0  0  0  0  0  0  0  0  0  0
   -2.2317    7.7303    0.9784 O   0  0  0  0  0  0  0  0  0  0  0  0
   -0.6355    6.3684   -0.0332 C   0  0  0  0  0  0  0  0  0  0  0  0
    0.3881    6.7659    0.8154 C   0  0  0  0  0  0  0  0  0  0  0  0
    1.4396    5.9947    0.4633 N   0  0  0  0  0  0  0  0  0  0  0  0
    2.7978    5.9815    0.9983 C   0  0  0  0  0  0  0  0  0  0  0  0
    3.8166    6.8343    0.2225 C   0  0  2  0  0  0  0  0  0  0  0  0
    4.7638    6.7218    0.7823 H   0  0  0  0  0  0  0  0  0  0  0  0
    3.4674    8.3303    0.1872 C   0  0  0  0  0  0  0  0  0  0  0  0
    4.5278    9.1240   -0.5857 C   0  0  0  0  0  0  0  0  0  0  0  0
    4.7571    8.5216   -1.9749 C   0  0  0  0  0  0  0  0  0  0  0  0
    5.0794    7.0974   -1.8931 N   0  0  0  0  0  0  0  0  0  0  0  0
    6.3708    6.6993   -2.1800 C   0  0  0  0  0  0  0  0  0  0  0  0
    7.2599    7.5069   -2.4118 O   0  0  0  0  0  0  0  0  0  0  0  0
    6.6716    5.2218   -2.2495 C   0  0  0  0  0  0  0  0  0  0  0  0
    7.8726    4.7682   -1.6833 C   0  0  0  0  0  0  0  0  0  0  0  0
    8.2292    3.4247   -1.7963 C   0  0  0  0  0  0  0  0  0  0  0  0
    7.4116    2.5346   -2.4995 C   0  0  0  0  0  0  0  0  0  0  0  0
    6.2241    2.9720   -3.1061 C   0  0  0  0  0  0  0  0  0  0  0  0
    5.3683    2.0300   -3.9186 C   0  0  0  0  0  0  0  0  0  0  0  0
    5.8656    4.3215   -2.9621 C   0  0  0  0  0  0  0  0  0  0  0  0
    4.0773    6.2936   -1.2006 C   0  0  0  0  0  0  0  0  0  0  0  0
    1.0976    5.1572   -0.5393 N   0  0  0  0  0  0  0  0  0  0  0  0
   -0.1429    5.3806   -0.8367 N   0  0  0  0  0  0  0  0  0  0  0  0
   -6.0933    7.0410    0.5952 H   0  0  0  0  0  0  0  0  0  0  0  0
   -4.5871    6.6148    1.4445 H   0  0  0  0  0  0  0  0  0  0  0  0
   -5.3033    5.4776    0.2648 H   0  0  0  0  0  0  0  0  0  0  0  0
   -4.1613    8.2768   -0.3610 H   0  0  0  0  0  0  0  0  0  0  0  0
   -4.8510    7.1766   -1.5772 H   0  0  0  0  0  0  0  0  0  0  0  0
   -1.7472    5.7888   -2.3272 H   0  0  0  0  0  0  0  0  0  0  0  0
   -3.3726    6.2446   -2.8594 H   0  0  0  0  0  0  0  0  0  0  0  0
   -2.6582    3.8393   -1.0638 H   0  0  0  0  0  0  0  0  0  0  0  0
   -3.0952    3.7636   -2.7873 H   0  0  0  0  0  0  0  0  0  0  0  0
   -4.3173    4.2529   -1.5883 H   0  0  0  0  0  0  0  0  0  0  0  0
    0.4086    7.5058    1.6092 H   0  0  0  0  0  0  0  0  0  0  0  0
    3.1160    4.9288    1.0126 H   0  0  0  0  0  0  0  0  0  0  0  0
    2.7373    6.3304    2.0397 H   0  0  0  0  0  0  0  0  0  0  0  0
    3.3624    8.7215    1.2141 H   0  0  0  0  0  0  0  0  0  0  0  0
    2.4860    8.4653   -0.3028 H   0  0  0  0  0  0  0  0  0  0  0  0
    5.4829    9.1159   -0.0329 H   0  0  0  0  0  0  0  0  0  0  0  0
    4.2221   10.1786   -0.6843 H   0  0  0  0  0  0  0  0  0  0  0  0
    5.5852    9.0207   -2.4913 H   0  0  0  0  0  0  0  0  0  0  0  0
    3.8412    8.6343   -2.5855 H   0  0  0  0  0  0  0  0  0  0  0  0
    8.5183    5.4801   -1.1654 H   0  0  0  0  0  0  0  0  0  0  0  0
    9.1557    3.0664   -1.3402 H   0  0  0  0  0  0  0  0  0  0  0  0
    7.7041    1.4841   -2.5867 H   0  0  0  0  0  0  0  0  0  0  0  0
    5.5091    0.9844   -3.6058 H   0  0  0  0  0  0  0  0  0  0  0  0
    5.6249    2.0881   -4.9911 H   0  0  0  0  0  0  0  0  0  0  0  0
    4.2984    2.2732   -3.8278 H   0  0  0  0  0  0  0  0  0  0  0  0
    4.9467    4.6798   -3.4345 H   0  0  0  0  0  0  0  0  0  0  0  0
    4.4104    5.2516   -1.1427 H   0  0  0  0  0  0  0  0  0  0  0  0
    3.1363    6.2972   -1.7784 H   0  0  0  0  0  0  0  0  0  0  0  0
  1  2  1  0
  1 30  1  0
  1 31  1  0
  1 32  1  0
  2  3  1  0
  2 33  1  0
  2 34  1  0
  3  4  1  0
  3  6  1  0
  4  5  1  0
  4 35  1  0
  4 36  1  0
  5 37  1  0
  5 38  1  0
  5 39  1  0
  6  7  2  0
  6  8  1  0
  8  9  2  0
  8 29  1  0
  9 10  1  0
  9 40  1  0
 10 11  1  0
 10 28  1  0
 11 12  1  0
 11 41  1  0
 11 42  1  0
 12 13  1  1
 12 14  1  0
 12 27  1  0
 14 15  1  0
 14 43  1  0
 14 44  1  0
 15 16  1  0
 15 45  1  0
 15 46  1  0
 16 17  1  0
 16 47  1  0
 16 48  1  0
 17 18  1  0
 17 27  1  0
 18 19  2  0
 18 20  1  0
 20 21  2  0
 20 26  1  0
 21 22  1  0
 21 49  1  0
 22 23  2  0
 22 50  1  0
 23 24  1  0
 23 51  1  0
 24 25  1  0
 24 26  2  0
 25 52  1  0
 25 53  1  0
 25 54  1  0
 26 55  1  0
 27 56  1  0
 27 57  1  0
 28 29  2  0
M  END

