
     RDKit          3D

 56 60  0  0  0  0  0  0  0  0999 V2000
    1.6956   -1.4861   -0.2062 O   0  0  0  0  0  0  0  0  0  0  0  0
    1.6295   -0.3386   -0.6215 C   0  0  0  0  0  0  0  0  0  0  0  0
    0.8044    0.6156   -0.1346 N   0  0  0  0  0  0  0  0  0  0  0  0
   -0.1232    0.3631    0.9749 C   0  0  2  0  0  0  0  0  0  0  0  0
   -1.4378   -0.2699    0.4895 C   0  0  0  0  0  0  0  0  0  0  0  0
   -2.3322    0.7701   -0.1840 C   0  0  0  0  0  0  0  0  0  0  0  0
   -2.7251    1.8565    0.8202 C   0  0  0  0  0  0  0  0  0  0  0  0
   -1.5548    2.3811    1.6328 C   0  0  0  0  0  0  0  0  0  0  0  0
   -1.6820    3.5928    2.3353 C   0  0  0  0  0  0  0  0  0  0  0  0
   -0.6456    4.0892    3.1234 C   0  0  0  0  0  0  0  0  0  0  0  0
    0.5531    3.3734    3.2259 C   0  0  0  0  0  0  0  0  0  0  0  0
    0.6940    2.1727    2.5337 C   0  0  0  0  0  0  0  0  0  0  0  0
   -0.3463    1.6633    1.7373 C   0  0  0  0  0  0  0  0  0  0  0  0
    2.5453    0.0934   -1.7720 C   0  0  2  0  0  0  0  0  0  0  0  0
    4.0170   -0.1074   -1.4055 C   0  0  0  0  0  0  0  0  0  0  0  0
    4.8724    0.2983   -2.5177 N   0  0  0  0  0  0  0  0  0  0  0  0
    5.5990   -0.9448   -3.4487 S   0  0  1  0  0  0  0  0  0  0  0  0
    6.6634   -0.3234   -4.2326 O   0  0  0  0  0  0  0  0  0  0  0  0
    5.8618   -2.0261   -2.5011 O   0  0  0  0  0  0  0  0  0  0  0  0
    4.3522   -1.5239   -4.6048 C   0  0  0  0  0  0  0  0  0  0  0  0
    4.1940   -0.8712   -5.8327 C   0  0  0  0  0  0  0  0  0  0  0  0
    3.2092   -1.3087   -6.7187 C   0  0  0  0  0  0  0  0  0  0  0  0
    2.4019   -2.3975   -6.3685 C   0  0  0  0  0  0  0  0  0  0  0  0
    1.1729   -2.9444   -7.4773 Cl  0  0  0  0  0  0  0  0  0  0  0  0
    2.5712   -3.0599   -5.1470 C   0  0  0  0  0  0  0  0  0  0  0  0
    3.5549   -2.6213   -4.2597 C   0  0  0  0  0  0  0  0  0  0  0  0
    4.5502    1.5653   -3.0820 C   0  0  0  0  0  0  0  0  0  0  0  0
    5.4878    2.3430   -3.7870 C   0  0  0  0  0  0  0  0  0  0  0  0
    5.1432    3.5987   -4.2824 C   0  0  0  0  0  0  0  0  0  0  0  0
    3.8640    4.1196   -4.0525 C   0  0  0  0  0  0  0  0  0  0  0  0
    2.9330    3.3775   -3.3305 C   0  0  0  0  0  0  0  0  0  0  0  0
    3.2634    2.1047   -2.8489 C   0  0  0  0  0  0  0  0  0  0  0  0
    2.3030    1.4496   -2.1279 O   0  0  0  0  0  0  0  0  0  0  0  0
    0.8499    1.5370   -0.5565 H   0  0  0  0  0  0  0  0  0  0  0  0
    0.3876   -0.3623    1.6272 H   0  0  0  0  0  0  0  0  0  0  0  0
   -1.9612   -0.7005    1.3617 H   0  0  0  0  0  0  0  0  0  0  0  0
   -1.2003   -1.1086   -0.1820 H   0  0  0  0  0  0  0  0  0  0  0  0
   -3.2349    0.2986   -0.6040 H   0  0  0  0  0  0  0  0  0  0  0  0
   -1.7914    1.2197   -1.0362 H   0  0  0  0  0  0  0  0  0  0  0  0
   -3.4734    1.4412    1.5219 H   0  0  0  0  0  0  0  0  0  0  0  0
   -3.2284    2.6969    0.3139 H   0  0  0  0  0  0  0  0  0  0  0  0
   -2.6182    4.1538    2.2566 H   0  0  0  0  0  0  0  0  0  0  0  0
   -0.7702    5.0341    3.6587 H   0  0  0  0  0  0  0  0  0  0  0  0
    1.3714    3.7507    3.8442 H   0  0  0  0  0  0  0  0  0  0  0  0
    1.6285    1.6085    2.6077 H   0  0  0  0  0  0  0  0  0  0  0  0
    2.2981   -0.5573   -2.6304 H   0  0  0  0  0  0  0  0  0  0  0  0
    4.2045   -1.1537   -1.1433 H   0  0  0  0  0  0  0  0  0  0  0  0
    4.2664    0.5118   -0.5269 H   0  0  0  0  0  0  0  0  0  0  0  0
    4.8476   -0.0389   -6.0975 H   0  0  0  0  0  0  0  0  0  0  0  0
    3.0690   -0.8165   -7.6822 H   0  0  0  0  0  0  0  0  0  0  0  0
    1.9415   -3.9160   -4.9003 H   0  0  0  0  0  0  0  0  0  0  0  0
    3.7149   -3.1361   -3.3107 H   0  0  0  0  0  0  0  0  0  0  0  0
    6.4865    1.9370   -3.9373 H   0  0  0  0  0  0  0  0  0  0  0  0
    5.8850    4.1809   -4.8338 H   0  0  0  0  0  0  0  0  0  0  0  0
    3.5934    5.1090   -4.4286 H   0  0  0  0  0  0  0  0  0  0  0  0
    1.9302    3.7593   -3.1277 H   0  0  0  0  0  0  0  0  0  0  0  0
  1  2  2  0
  2  3  1  0
  2 14  1  0
  3  4  1  0
  3 34  1  0
  4  5  1  0
  4 13  1  0
  4 35  1  1
  5  6  1  0
  5 36  1  0
  5 37  1  0
  6  7  1  0
  6 38  1  0
  6 39  1  0
  7  8  1  0
  7 40  1  0
  7 41  1  0
  8  9  2  0
  8 13  1  0
  9 10  1  0
  9 42  1  0
 10 11  2  0
 10 43  1  0
 11 12  1  0
 11 44  1  0
 12 13  2  0
 12 45  1  0
 14 15  1  0
 14 33  1  0
 14 46  1  6
 15 16  1  0
 15 47  1  0
 15 48  1  0
 16 17  1  0
 16 27  1  0
 17 18  2  0
 17 19  2  0
 17 20  1  6
 20 21  2  0
 20 26  1  0
 21 22  1  0
 21 49  1  0
 22 23  2  0
 22 50  1  0
 23 24  1  0
 23 25  1  0
 25 26  2  0
 25 51  1  0
 26 52  1  0
 27 28  2  0
 27 32  1  0
 28 29  1  0
 28 53  1  0
 29 30  2  0
 29 54  1  0
 30 31  1  0
 30 55  1  0
 31 32  2  0
 31 56  1  0
 32 33  1  0
M  END

