
     RDKit          3D

 24 25  0  0  0  0  0  0  0  0999 V2000
    0.9537   -0.0531    0.0904 C   0  0  0  0  0  0  0  0  0  0  0  0
    2.4948   -0.0452    0.0947 C   0  0  2  0  0  0  0  0  0  0  0  0
    2.8188    0.4650   -0.8259 H   0  0  0  0  0  0  0  0  0  0  0  0
    3.0865   -1.4661    0.0783 C   0  0  0  0  0  0  0  0  0  0  0  0
    2.9255   -2.1567    1.4306 C   0  0  0  0  0  0  0  0  0  0  0  0
    3.4919   -1.3281    2.4725 N   0  0  0  0  0  0  0  0  0  0  0  0
    3.4959    0.0426    2.4288 C   0  0  0  0  0  0  0  0  0  0  0  0
    3.9785    0.7964    3.5270 C   0  0  0  0  0  0  0  0  0  0  0  0
    4.5242   -0.0602    4.9661 Cl  0  0  0  0  0  0  0  0  0  0  0  0
    4.0343    2.1846    3.4996 C   0  0  0  0  0  0  0  0  0  0  0  0
    3.6123    2.8762    2.3641 C   0  0  0  0  0  0  0  0  0  0  0  0
    3.1298    2.1429    1.2773 C   0  0  0  0  0  0  0  0  0  0  0  0
    2.6086    3.0498   -0.1397 Cl  0  0  0  0  0  0  0  0  0  0  0  0
    3.0513    0.7437    1.2711 C   0  0  0  0  0  0  0  0  0  0  0  0
    0.5725   -0.5939   -0.7917 H   0  0  0  0  0  0  0  0  0  0  0  0
    0.5594    0.9726    0.0555 H   0  0  0  0  0  0  0  0  0  0  0  0
    0.5444   -0.5367    0.9914 H   0  0  0  0  0  0  0  0  0  0  0  0
    4.1603   -1.4127   -0.1673 H   0  0  0  0  0  0  0  0  0  0  0  0
    2.6023   -2.0694   -0.7059 H   0  0  0  0  0  0  0  0  0  0  0  0
    3.4480   -3.1272    1.4280 H   0  0  0  0  0  0  0  0  0  0  0  0
    1.8551   -2.3761    1.6199 H   0  0  0  0  0  0  0  0  0  0  0  0
    3.7269   -1.7484    3.3627 H   0  0  0  0  0  0  0  0  0  0  0  0
    4.4133    2.7221    4.3702 H   0  0  0  0  0  0  0  0  0  0  0  0
    3.6520    3.9643    2.3191 H   0  0  0  0  0  0  0  0  0  0  0  0
  1  2  1  0
  1 15  1  0
  1 16  1  0
  1 17  1  0
  2  3  1  6
  2  4  1  0
  2 14  1  0
  4  5  1  0
  4 18  1  0
  4 19  1  0
  5  6  1  0
  5 20  1  0
  5 21  1  0
  6  7  1  0
  6 22  1  0
  7  8  1  0
  7 14  2  0
  8  9  1  0
  8 10  2  0
 10 11  1  0
 10 23  1  0
 11 12  2  0
 11 24  1  0
 12 13  1  0
 12 14  1  0
M  END

