
     RDKit          3D

 36 36  0  0  0  0  0  0  0  0999 V2000
    1.1726   -0.0547    0.8563 C   0  0  0  0  0  0  0  0  0  0  0  0
    2.5563   -0.1619    0.5112 O   0  0  0  0  0  0  0  0  0  0  0  0
    3.3101   -0.9351    1.3099 C   0  0  0  0  0  0  0  0  0  0  0  0
    2.8372   -1.5778    2.2434 O   0  0  0  0  0  0  0  0  0  0  0  0
    4.6312   -0.9243    0.9784 N   0  0  0  0  0  0  0  0  0  0  0  0
    5.1835    0.0216    0.0057 C   0  0  0  0  0  0  0  0  0  0  0  0
    5.3579   -0.4874   -1.4185 C   0  0  0  0  0  0  0  0  0  0  0  0
    6.5103   -0.1364   -2.1399 C   0  0  0  0  0  0  0  0  0  0  0  0
    6.6611   -0.5504   -3.4653 C   0  0  0  0  0  0  0  0  0  0  0  0
    5.6759   -1.3209   -4.0857 C   0  0  0  0  0  0  0  0  0  0  0  0
    4.5231   -1.6746   -3.3692 C   0  0  0  0  0  0  0  0  0  0  0  0
    3.5239   -2.4177   -3.9109 O   0  0  0  0  0  0  0  0  0  0  0  0
    4.3677   -1.2539   -2.0411 C   0  0  0  0  0  0  0  0  0  0  0  0
    5.5296   -1.8368    1.7220 C   0  0  1  0  0  0  0  0  0  0  0  0
    6.4432   -2.6328    0.7835 C   0  0  0  0  0  0  0  0  0  0  0  0
    6.3453   -1.1161    2.8056 C   0  0  0  0  0  0  0  0  0  0  0  0
    5.6414   -0.3889    3.9612 C   0  0  0  0  0  0  0  0  0  0  0  0
    6.2476    0.4206    4.6160 O   0  0  0  0  0  0  0  0  0  0  0  0
    4.3867   -0.7246    4.2770 O   0  0  0  0  0  0  0  0  0  0  0  0
    0.7311    0.6190    0.1120 H   0  0  0  0  0  0  0  0  0  0  0  0
    1.0536    0.3609    1.8676 H   0  0  0  0  0  0  0  0  0  0  0  0
    0.6843   -1.0390    0.8187 H   0  0  0  0  0  0  0  0  0  0  0  0
    6.1575    0.3668    0.3847 H   0  0  0  0  0  0  0  0  0  0  0  0
    4.5264    0.9027   -0.0088 H   0  0  0  0  0  0  0  0  0  0  0  0
    7.2926    0.4604   -1.6632 H   0  0  0  0  0  0  0  0  0  0  0  0
    7.5605   -0.2774   -4.0231 H   0  0  0  0  0  0  0  0  0  0  0  0
    5.7986   -1.6494   -5.1226 H   0  0  0  0  0  0  0  0  0  0  0  0
    3.7425   -2.6366   -4.8263 H   0  0  0  0  0  0  0  0  0  0  0  0
    3.4533   -1.5309   -1.5155 H   0  0  0  0  0  0  0  0  0  0  0  0
    4.8583   -2.5546    2.2116 H   0  0  0  0  0  0  0  0  0  0  0  0
    7.1818   -1.9927    0.2775 H   0  0  0  0  0  0  0  0  0  0  0  0
    5.8595   -3.1533    0.0112 H   0  0  0  0  0  0  0  0  0  0  0  0
    6.9981   -3.3855    1.3643 H   0  0  0  0  0  0  0  0  0  0  0  0
    7.0354   -0.3803    2.3638 H   0  0  0  0  0  0  0  0  0  0  0  0
    6.9968   -1.8621    3.2934 H   0  0  0  0  0  0  0  0  0  0  0  0
    3.9008   -1.2499    3.5996 H   0  0  0  0  0  0  0  0  0  0  0  0
  1  2  1  0
  1 20  1  0
  1 21  1  0
  1 22  1  0
  2  3  1  0
  3  4  2  0
  3  5  1  0
  5  6  1  0
  5 14  1  0
  6  7  1  0
  6 23  1  0
  6 24  1  0
  7  8  2  0
  7 13  1  0
  8  9  1  0
  8 25  1  0
  9 10  2  0
  9 26  1  0
 10 11  1  0
 10 27  1  0
 11 12  1  0
 11 13  2  0
 12 28  1  0
 13 29  1  0
 14 15  1  0
 14 16  1  0
 14 30  1  1
 15 31  1  0
 15 32  1  0
 15 33  1  0
 16 17  1  0
 16 34  1  0
 16 35  1  0
 17 18  2  0
 17 19  1  0
 19 36  1  0
M  END

