
     RDKit          3D

 25 26  0  0  0  0  0  0  0  0999 V2000
    2.4791    1.2607    0.5791 O   0  0  0  0  0  0  0  0  0  0  0  0
    2.5440    0.1300    0.1594 C   0  0  0  0  0  0  0  0  0  0  0  0
    3.0454   -0.2393   -1.1930 C   0  0  0  0  0  0  0  0  0  0  0  0
    3.4863    0.7678   -2.0647 C   0  0  0  0  0  0  0  0  0  0  0  0
    3.9581    0.3893   -3.3149 C   0  0  0  0  0  0  0  0  0  0  0  0
    4.3867    1.3262   -4.1678 F   0  0  0  0  0  0  0  0  0  0  0  0
    3.9958   -0.9443   -3.7229 C   0  0  0  0  0  0  0  0  0  0  0  0
    3.5521   -1.9362   -2.8406 C   0  0  0  0  0  0  0  0  0  0  0  0
    3.6778   -3.2302   -3.2671 O   0  0  0  0  0  0  0  0  0  0  0  0
    2.8079   -4.2203   -2.8744 C   0  0  0  0  0  0  0  0  0  0  0  0
    3.3577   -5.4692   -2.5655 C   0  0  0  0  0  0  0  0  0  0  0  0
    2.5080   -6.5279   -2.2358 C   0  0  0  0  0  0  0  0  0  0  0  0
    1.1217   -6.3544   -2.2030 C   0  0  0  0  0  0  0  0  0  0  0  0
    0.6065   -5.0979   -2.5172 C   0  0  0  0  0  0  0  0  0  0  0  0
   -0.7201   -4.9135   -2.5005 F   0  0  0  0  0  0  0  0  0  0  0  0
    1.4217   -4.0214   -2.8591 C   0  0  0  0  0  0  0  0  0  0  0  0
    3.0775   -1.5892   -1.5689 C   0  0  0  0  0  0  0  0  0  0  0  0
    2.2180   -0.7405    0.7862 H   0  0  0  0  0  0  0  0  0  0  0  0
    3.4575    1.8143   -1.7585 H   0  0  0  0  0  0  0  0  0  0  0  0
    4.3692   -1.2128   -4.7117 H   0  0  0  0  0  0  0  0  0  0  0  0
    4.4413   -5.5913   -2.5943 H   0  0  0  0  0  0  0  0  0  0  0  0
    2.9338   -7.5048   -1.9952 H   0  0  0  0  0  0  0  0  0  0  0  0
    0.4406   -7.1661   -1.9432 H   0  0  0  0  0  0  0  0  0  0  0  0
    0.9732   -3.0606   -3.1137 H   0  0  0  0  0  0  0  0  0  0  0  0
    2.7423   -2.3601   -0.8721 H   0  0  0  0  0  0  0  0  0  0  0  0
  1  2  2  0
  2  3  1  0
  2 18  1  0
  3  4  2  0
  3 17  1  0
  4  5  1  0
  4 19  1  0
  5  6  1  0
  5  7  2  0
  7  8  1  0
  7 20  1  0
  8  9  1  0
  8 17  2  0
  9 10  1  0
 10 11  2  0
 10 16  1  0
 11 12  1  0
 11 21  1  0
 12 13  2  0
 12 22  1  0
 13 14  1  0
 13 23  1  0
 14 15  1  0
 14 16  2  0
 16 24  1  0
 17 25  1  0
M  END

