
     RDKit          3D

 51 53  0  0  0  0  0  0  0  0999 V2000
    3.8662    0.6748   -2.9720 C   0  0  0  0  0  0  0  0  0  0  0  0
    4.9165    1.1809   -2.0130 C   0  0  0  0  0  0  0  0  0  0  0  0
    5.5685    0.3294   -1.1143 C   0  0  0  0  0  0  0  0  0  0  0  0
    6.5461    0.8014   -0.2357 C   0  0  0  0  0  0  0  0  0  0  0  0
    6.8978    2.1597   -0.2383 C   0  0  0  0  0  0  0  0  0  0  0  0
    7.8760    2.6912    0.6292 N   0  0  0  0  0  0  0  0  0  0  0  0
    8.6369    2.0510    1.5669 C   0  0  0  0  0  0  0  0  0  0  0  0
    8.5872    0.8658    1.8378 O   0  0  0  0  0  0  0  0  0  0  0  0
    9.5784    2.9519    2.3855 C   0  0  0  0  0  0  0  0  0  0  0  0
   10.0730    4.5667    1.6966 S   0  0  0  0  0  0  0  0  0  0  0  0
   11.1872    4.0308    0.4091 C   0  0  0  0  0  0  0  0  0  0  0  0
   11.3835    2.7551    0.2211 N   0  0  0  0  0  0  0  0  0  0  0  0
   12.2321    2.3283   -0.7539 C   0  0  0  0  0  0  0  0  0  0  0  0
   12.4287    0.9369   -0.9509 C   0  0  0  0  0  0  0  0  0  0  0  0
   13.2858    0.4889   -1.9340 C   0  0  0  0  0  0  0  0  0  0  0  0
   14.0000    1.3871   -2.7821 C   0  0  0  0  0  0  0  0  0  0  0  0
   14.9399    0.8608   -3.8575 C   0  0  1  0  0  0  0  0  0  0  0  0
   16.1171    0.0742   -3.2545 C   0  0  0  0  0  0  0  0  0  0  0  0
   14.1929    0.0292   -4.9151 C   0  0  0  0  0  0  0  0  0  0  0  0
   13.8120    2.7463   -2.5988 C   0  0  0  0  0  0  0  0  0  0  0  0
   12.9367    3.2456   -1.5971 C   0  0  0  0  0  0  0  0  0  0  0  0
   12.7110    4.6272   -1.3795 C   0  0  0  0  0  0  0  0  0  0  0  0
   11.8407    5.0442   -0.3855 C   0  0  0  0  0  0  0  0  0  0  0  0
   11.5995    6.4382   -0.1589 C   0  0  0  0  0  0  0  0  0  0  0  0
   11.4066    7.5706    0.0136 N   0  0  0  0  0  0  0  0  0  0  0  0
    6.2544    3.0495   -1.1354 C   0  0  0  0  0  0  0  0  0  0  0  0
    6.6039    4.5186   -1.1626 C   0  0  0  0  0  0  0  0  0  0  0  0
    5.2816    2.5364   -1.9982 C   0  0  0  0  0  0  0  0  0  0  0  0
    3.6258   -0.3823   -2.7846 H   0  0  0  0  0  0  0  0  0  0  0  0
    4.2023    0.7587   -4.0200 H   0  0  0  0  0  0  0  0  0  0  0  0
    2.9303    1.2523   -2.8893 H   0  0  0  0  0  0  0  0  0  0  0  0
    5.3104   -0.7334   -1.0926 H   0  0  0  0  0  0  0  0  0  0  0  0
    7.0444    0.1296    0.4591 H   0  0  0  0  0  0  0  0  0  0  0  0
    8.0699    3.6832    0.5321 H   0  0  0  0  0  0  0  0  0  0  0  0
   10.4722    2.3571    2.6085 H   0  0  0  0  0  0  0  0  0  0  0  0
    9.0808    3.1996    3.3373 H   0  0  0  0  0  0  0  0  0  0  0  0
   11.8807    0.2469   -0.3065 H   0  0  0  0  0  0  0  0  0  0  0  0
   13.4191   -0.5879   -2.0661 H   0  0  0  0  0  0  0  0  0  0  0  0
   15.3609    1.7433   -4.3693 H   0  0  0  0  0  0  0  0  0  0  0  0
   15.7732   -0.8367   -2.7374 H   0  0  0  0  0  0  0  0  0  0  0  0
   16.6756    0.6825   -2.5260 H   0  0  0  0  0  0  0  0  0  0  0  0
   16.8179   -0.2397   -4.0449 H   0  0  0  0  0  0  0  0  0  0  0  0
   13.7563   -0.8841   -4.4786 H   0  0  0  0  0  0  0  0  0  0  0  0
   14.8807   -0.2846   -5.7168 H   0  0  0  0  0  0  0  0  0  0  0  0
   13.3744    0.6051   -5.3744 H   0  0  0  0  0  0  0  0  0  0  0  0
   14.3431    3.4620   -3.2336 H   0  0  0  0  0  0  0  0  0  0  0  0
   13.2234    5.3686   -1.9975 H   0  0  0  0  0  0  0  0  0  0  0  0
    6.4115    5.0101   -0.1922 H   0  0  0  0  0  0  0  0  0  0  0  0
    6.0092    5.0500   -1.9186 H   0  0  0  0  0  0  0  0  0  0  0  0
    7.6677    4.6902   -1.4052 H   0  0  0  0  0  0  0  0  0  0  0  0
    4.7866    3.2276   -2.6882 H   0  0  0  0  0  0  0  0  0  0  0  0
  1  2  1  0
  1 29  1  0
  1 30  1  0
  1 31  1  0
  2  3  2  0
  2 28  1  0
  3  4  1  0
  3 32  1  0
  4  5  2  0
  4 33  1  0
  5  6  1  0
  5 26  1  0
  6  7  1  0
  6 34  1  0
  7  8  2  0
  7  9  1  0
  9 10  1  0
  9 35  1  0
  9 36  1  0
 10 11  1  0
 11 12  2  0
 11 23  1  0
 12 13  1  0
 13 14  2  0
 13 21  1  0
 14 15  1  0
 14 37  1  0
 15 16  2  0
 15 38  1  0
 16 17  1  0
 16 20  1  0
 17 18  1  0
 17 19  1  0
 17 39  1  6
 18 40  1  0
 18 41  1  0
 18 42  1  0
 19 43  1  0
 19 44  1  0
 19 45  1  0
 20 21  2  0
 20 46  1  0
 21 22  1  0
 22 23  2  0
 22 47  1  0
 23 24  1  0
 24 25  3  0
 26 27  1  0
 26 28  2  0
 27 48  1  0
 27 49  1  0
 27 50  1  0
 28 51  1  0
M  END

