
     RDKit          3D

 27 28  0  0  0  0  0  0  0  0999 V2000
    1.2558    0.0815    0.5995 O   0  0  0  0  0  0  0  0  0  0  0  0
    2.4402    0.0866    0.3754 C   0  0  0  0  0  0  0  0  0  0  0  0
    3.2737    1.3809    0.1314 C   0  0  2  0  0  0  0  0  0  0  0  0
    3.0522    2.3574    1.2936 C   0  0  0  0  0  0  0  0  0  0  0  0
    3.7161    1.7261    3.0399 Br  0  0  0  0  0  0  0  0  0  0  0  0
    2.6871    2.0129   -1.1445 C   0  0  0  0  0  0  0  0  0  0  0  0
    3.6410    3.6287   -1.7555 Br  0  0  0  0  0  0  0  0  0  0  0  0
    4.7244    0.8641   -0.0475 C   0  0  0  0  0  0  0  0  0  0  0  0
    4.7496   -0.5800    0.5014 C   0  0  0  0  0  0  0  0  0  0  0  0
    3.3383   -1.1434    0.2518 C   0  0  2  0  0  0  0  0  0  0  0  0
    3.1943   -1.7783   -1.1902 C   0  0  0  0  0  0  0  0  0  0  0  0
    3.1660   -3.2283   -1.0235 N   0  0  0  0  0  0  0  0  0  0  0  0
    3.0185   -3.4839    0.2024 C   0  0  0  0  0  0  0  0  0  0  0  0
    2.8832   -5.2634    0.8633 Br  0  0  0  0  0  0  0  0  0  0  0  0
    2.9084   -2.3168    1.1553 C   0  0  0  0  0  0  0  0  0  0  0  0
    1.9785    2.5279    1.4415 H   0  0  0  0  0  0  0  0  0  0  0  0
    3.5637    3.3091    1.1099 H   0  0  0  0  0  0  0  0  0  0  0  0
    1.6419    2.3103   -0.9946 H   0  0  0  0  0  0  0  0  0  0  0  0
    2.7414    1.3163   -1.9907 H   0  0  0  0  0  0  0  0  0  0  0  0
    5.4576    1.5072    0.4590 H   0  0  0  0  0  0  0  0  0  0  0  0
    4.9867    0.8737   -1.1170 H   0  0  0  0  0  0  0  0  0  0  0  0
    4.9483   -0.5639    1.5835 H   0  0  0  0  0  0  0  0  0  0  0  0
    5.5342   -1.1918    0.0301 H   0  0  0  0  0  0  0  0  0  0  0  0
    4.0257   -1.4911   -1.8541 H   0  0  0  0  0  0  0  0  0  0  0  0
    2.2573   -1.4741   -1.6898 H   0  0  0  0  0  0  0  0  0  0  0  0
    3.5332   -2.4359    2.0527 H   0  0  0  0  0  0  0  0  0  0  0  0
    1.8609   -2.2053    1.4860 H   0  0  0  0  0  0  0  0  0  0  0  0
  1  2  2  0
  2  3  1  0
 10  2  1  6
  3  4  1  1
  3  6  1  0
  3  8  1  0
  4  5  1  0
  4 16  1  0
  4 17  1  0
  6  7  1  0
  6 18  1  0
  6 19  1  0
  8  9  1  0
  8 20  1  0
  8 21  1  0
  9 10  1  0
  9 22  1  0
  9 23  1  0
 10 11  1  0
 10 15  1  0
 11 12  1  0
 11 24  1  0
 11 25  1  0
 12 13  2  0
 13 14  1  0
 13 15  1  0
 15 26  1  0
 15 27  1  0
M  END

