
     RDKit          3D

 35 36  0  0  0  0  0  0  0  0999 V2000
    0.4609    0.8685    1.2047 C   0  0  0  0  0  0  0  0  0  0  0  0
    1.7792    0.3623    0.9976 O   0  0  0  0  0  0  0  0  0  0  0  0
    2.7200    0.7883    1.8617 C   0  0  0  0  0  0  0  0  0  0  0  0
    2.4969    1.5531    2.7648 O   0  0  0  0  0  0  0  0  0  0  0  0
    4.0857    0.2107    1.5103 C   0  0  0  0  0  0  0  0  0  0  0  0
    4.8969   -0.1366    2.7247 C   0  0  0  0  0  0  0  0  0  0  0  0
    6.0109    0.5283    3.1576 C   0  0  0  0  0  0  0  0  0  0  0  0
    6.6216   -0.2111    4.6137 S   0  0  0  0  0  0  0  0  0  0  0  0
    5.2881   -1.3714    4.5082 C   0  0  0  0  0  0  0  0  0  0  0  0
    5.1709   -2.3316    5.4922 N   0  0  0  0  0  0  0  0  0  0  0  0
    4.3085   -3.3532    5.3561 N   0  0  0  0  0  0  0  0  0  0  0  0
    4.2372   -4.2743    6.2537 C   0  0  0  0  0  0  0  0  0  0  0  0
    4.9595   -4.4276    7.5348 C   0  0  0  0  0  0  0  0  0  0  0  0
    5.3331   -3.3539    8.3686 C   0  0  0  0  0  0  0  0  0  0  0  0
    5.9880   -3.5810    9.5816 C   0  0  0  0  0  0  0  0  0  0  0  0
    6.2982   -4.8781   10.0149 C   0  0  0  0  0  0  0  0  0  0  0  0
    7.0316   -5.1229   11.3098 C   0  0  0  0  0  0  0  0  0  0  0  0
    5.9045   -5.9504    9.1945 C   0  0  0  0  0  0  0  0  0  0  0  0
    5.2444   -5.7320    7.9887 C   0  0  0  0  0  0  0  0  0  0  0  0
    4.4985   -1.2068    3.4950 N   0  0  0  0  0  0  0  0  0  0  0  0
   -0.1645    0.4258    0.4195 H   0  0  0  0  0  0  0  0  0  0  0  0
    0.4453    1.9669    1.1319 H   0  0  0  0  0  0  0  0  0  0  0  0
    0.0850    0.5820    2.1986 H   0  0  0  0  0  0  0  0  0  0  0  0
    4.6102    0.9705    0.9083 H   0  0  0  0  0  0  0  0  0  0  0  0
    3.9425   -0.6768    0.8771 H   0  0  0  0  0  0  0  0  0  0  0  0
    6.4951    1.4026    2.7282 H   0  0  0  0  0  0  0  0  0  0  0  0
    5.8928   -2.3586    6.2122 H   0  0  0  0  0  0  0  0  0  0  0  0
    3.5443   -5.0852    5.9960 H   0  0  0  0  0  0  0  0  0  0  0  0
    5.0686   -2.3288    8.0996 H   0  0  0  0  0  0  0  0  0  0  0  0
    6.2534   -2.7268   10.2110 H   0  0  0  0  0  0  0  0  0  0  0  0
    7.0517   -4.2225   11.9413 H   0  0  0  0  0  0  0  0  0  0  0  0
    8.0781   -5.4206   11.1228 H   0  0  0  0  0  0  0  0  0  0  0  0
    6.5657   -5.9362   11.8890 H   0  0  0  0  0  0  0  0  0  0  0  0
    6.1154   -6.9758    9.5123 H   0  0  0  0  0  0  0  0  0  0  0  0
    4.9424   -6.5859    7.3757 H   0  0  0  0  0  0  0  0  0  0  0  0
  1  2  1  0
  1 21  1  0
  1 22  1  0
  1 23  1  0
  2  3  1  0
  3  4  2  0
  3  5  1  0
  5  6  1  0
  5 24  1  0
  5 25  1  0
  6  7  2  0
  6 20  1  0
  7  8  1  0
  7 26  1  0
  8  9  1  0
  9 10  1  0
  9 20  2  0
 10 11  1  0
 10 27  1  0
 11 12  2  0
 12 13  1  0
 12 28  1  0
 13 14  2  0
 13 19  1  0
 14 15  1  0
 14 29  1  0
 15 16  2  0
 15 30  1  0
 16 17  1  0
 16 18  1  0
 17 31  1  0
 17 32  1  0
 17 33  1  0
 18 19  2  0
 18 34  1  0
 19 35  1  0
M  END

