
     RDKit          3D

 51 54  0  0  0  0  0  0  0  0999 V2000
    2.9557   -3.0496    0.1738 C   0  0  0  0  0  0  0  0  0  0  0  0
    2.5154   -1.8797   -0.5119 O   0  0  0  0  0  0  0  0  0  0  0  0
    3.4513   -1.1315   -1.1318 C   0  0  0  0  0  0  0  0  0  0  0  0
    4.7022   -1.4575   -1.1208 N   0  0  0  0  0  0  0  0  0  0  0  0
    5.5779   -0.6413   -1.7889 C   0  0  0  0  0  0  0  0  0  0  0  0
    6.9607   -0.9342   -1.8095 C   0  0  0  0  0  0  0  0  0  0  0  0
    7.8422   -0.1155   -2.4917 C   0  0  0  0  0  0  0  0  0  0  0  0
    7.3528    1.0232   -3.1732 C   0  0  0  0  0  0  0  0  0  0  0  0
    8.4897    2.0416   -4.0290 Cl  0  0  0  0  0  0  0  0  0  0  0  0
    6.0072    1.3424   -3.1737 C   0  0  0  0  0  0  0  0  0  0  0  0
    5.0943    0.5129   -2.4776 C   0  0  0  0  0  0  0  0  0  0  0  0
    3.7647    0.8263   -2.4793 N   0  0  0  0  0  0  0  0  0  0  0  0
    2.9513    0.0540   -1.8193 C   0  0  0  0  0  0  0  0  0  0  0  0
    1.5847    0.2712   -1.7598 N   0  0  0  0  0  0  0  0  0  0  0  0
    0.9197    1.4975   -1.9781 C   0  0  0  0  0  0  0  0  0  0  0  0
    1.4883    2.5673   -1.9877 O   0  0  0  0  0  0  0  0  0  0  0  0
   -0.4473    1.3613   -2.1458 N   0  0  0  0  0  0  0  0  0  0  0  0
   -1.2767    2.5609   -2.1252 C   0  0  0  0  0  0  0  0  0  0  0  0
   -2.1851    2.6226   -3.3499 C   0  0  0  0  0  0  0  0  0  0  0  0
   -2.9626    1.3869   -3.4779 N   0  0  0  0  0  0  0  0  0  0  0  0
   -4.1042    1.4401   -4.3273 C   0  0  0  0  0  0  0  0  0  0  0  0
   -4.1154    0.7980   -5.5787 C   0  0  0  0  0  0  0  0  0  0  0  0
   -5.2435    0.8347   -6.4011 C   0  0  0  0  0  0  0  0  0  0  0  0
   -6.3826    1.5247   -5.9855 C   0  0  0  0  0  0  0  0  0  0  0  0
   -6.3826    2.1569   -4.7395 C   0  0  0  0  0  0  0  0  0  0  0  0
   -5.2684    2.1245   -3.8893 C   0  0  0  0  0  0  0  0  0  0  0  0
   -5.3384    2.7666   -2.5264 C   0  0  0  0  0  0  0  0  0  0  0  0
   -2.0871    0.2322   -3.5932 C   0  0  0  0  0  0  0  0  0  0  0  0
   -1.1813    0.1226   -2.3602 C   0  0  0  0  0  0  0  0  0  0  0  0
    2.0561   -3.5051    0.6063 H   0  0  0  0  0  0  0  0  0  0  0  0
    3.6740   -2.7907    0.9665 H   0  0  0  0  0  0  0  0  0  0  0  0
    3.4453   -3.7496   -0.5206 H   0  0  0  0  0  0  0  0  0  0  0  0
    7.3097   -1.8204   -1.2756 H   0  0  0  0  0  0  0  0  0  0  0  0
    8.9109   -0.3339   -2.5132 H   0  0  0  0  0  0  0  0  0  0  0  0
    5.6237    2.2205   -3.6934 H   0  0  0  0  0  0  0  0  0  0  0  0
    1.0778   -0.4661   -1.2840 H   0  0  0  0  0  0  0  0  0  0  0  0
   -0.6076    3.4293   -2.0920 H   0  0  0  0  0  0  0  0  0  0  0  0
   -1.9019    2.5582   -1.2118 H   0  0  0  0  0  0  0  0  0  0  0  0
   -1.5668    2.7911   -4.2583 H   0  0  0  0  0  0  0  0  0  0  0  0
   -2.8634    3.4807   -3.2562 H   0  0  0  0  0  0  0  0  0  0  0  0
   -3.2247    0.2702   -5.9233 H   0  0  0  0  0  0  0  0  0  0  0  0
   -5.2249    0.3285   -7.3698 H   0  0  0  0  0  0  0  0  0  0  0  0
   -7.2717    1.5622   -6.6196 H   0  0  0  0  0  0  0  0  0  0  0  0
   -7.2843    2.6755   -4.4003 H   0  0  0  0  0  0  0  0  0  0  0  0
   -6.3805    2.8437   -2.1825 H   0  0  0  0  0  0  0  0  0  0  0  0
   -4.9227    3.7898   -2.5213 H   0  0  0  0  0  0  0  0  0  0  0  0
   -4.7628    2.1829   -1.7921 H   0  0  0  0  0  0  0  0  0  0  0  0
   -1.4363    0.2830   -4.4943 H   0  0  0  0  0  0  0  0  0  0  0  0
   -2.6985   -0.6794   -3.6721 H   0  0  0  0  0  0  0  0  0  0  0  0
   -0.4814   -0.7074   -2.5201 H   0  0  0  0  0  0  0  0  0  0  0  0
   -1.8060   -0.1114   -1.4762 H   0  0  0  0  0  0  0  0  0  0  0  0
  1  2  1  0
  1 30  1  0
  1 31  1  0
  1 32  1  0
  2  3  1  0
  3  4  2  0
  3 13  1  0
  4  5  1  0
  5  6  2  0
  5 11  1  0
  6  7  1  0
  6 33  1  0
  7  8  2  0
  7 34  1  0
  8  9  1  0
  8 10  1  0
 10 11  2  0
 10 35  1  0
 11 12  1  0
 12 13  2  0
 13 14  1  0
 14 15  1  0
 14 36  1  0
 15 16  2  0
 15 17  1  0
 17 18  1  0
 17 29  1  0
 18 19  1  0
 18 37  1  0
 18 38  1  0
 19 20  1  0
 19 39  1  0
 19 40  1  0
 20 21  1  0
 20 28  1  0
 21 22  2  0
 21 26  1  0
 22 23  1  0
 22 41  1  0
 23 24  2  0
 23 42  1  0
 24 25  1  0
 24 43  1  0
 25 26  2  0
 25 44  1  0
 26 27  1  0
 27 45  1  0
 27 46  1  0
 27 47  1  0
 28 29  1  0
 28 48  1  0
 28 49  1  0
 29 50  1  0
 29 51  1  0
M  END

