
     RDKit          3D

 45 46  0  0  0  0  0  0  0  0999 V2000
    6.9377   -2.1987    0.0307 C   0  0  0  0  0  0  0  0  0  0  0  0
    6.3812   -1.1081   -0.6624 O   0  0  0  0  0  0  0  0  0  0  0  0
    4.9946   -0.9161   -0.4384 C   0  0  0  0  0  0  0  0  0  0  0  0
    4.5052    0.2945   -1.2253 C   0  0  0  0  0  0  0  0  0  0  0  0
    4.8207    0.2920   -2.7457 C   0  0  1  0  0  0  0  0  0  0  0  0
    6.2216    0.4522   -2.9121 O   0  0  0  0  0  0  0  0  0  0  0  0
    4.3591   -1.0034   -3.4567 C   0  0  0  0  0  0  0  0  0  0  0  0
    2.8388   -1.1227   -3.6090 C   0  0  0  0  0  0  0  0  0  0  0  0
    2.3026    0.0708   -4.2531 N   0  0  0  0  0  0  0  0  0  0  0  0
    1.5165   -0.0785   -5.3822 C   0  0  0  0  0  0  0  0  0  0  0  0
    1.1332   -1.1727   -5.7690 O   0  0  0  0  0  0  0  0  0  0  0  0
    1.2184    1.1080   -6.0434 N   0  0  0  0  0  0  0  0  0  0  0  0
    0.3687    1.2998   -7.1338 C   0  0  0  0  0  0  0  0  0  0  0  0
   -0.3771    0.2747   -7.7496 C   0  0  0  0  0  0  0  0  0  0  0  0
   -1.2140    0.5568   -8.8295 C   0  0  0  0  0  0  0  0  0  0  0  0
   -1.3336    1.8548   -9.3329 C   0  0  0  0  0  0  0  0  0  0  0  0
   -0.6014    2.8853   -8.7402 C   0  0  0  0  0  0  0  0  0  0  0  0
    0.2324    2.6063   -7.6594 C   0  0  0  0  0  0  0  0  0  0  0  0
    1.1414    3.9310   -6.9273 Cl  0  0  0  0  0  0  0  0  0  0  0  0
    2.6198    1.3035   -3.5435 C   0  0  0  0  0  0  0  0  0  0  0  0
    4.1413    1.5230   -3.4205 C   0  0  2  0  0  0  0  0  0  0  0  0
    4.2938    2.3829   -2.7444 H   0  0  0  0  0  0  0  0  0  0  0  0
    4.7626    1.8809   -4.7764 C   0  0  0  0  0  0  0  0  0  0  0  0
    8.0071   -2.2466   -0.2193 H   0  0  0  0  0  0  0  0  0  0  0  0
    6.4607   -3.1560   -0.2577 H   0  0  0  0  0  0  0  0  0  0  0  0
    6.8341   -2.0777    1.1266 H   0  0  0  0  0  0  0  0  0  0  0  0
    4.8063   -0.7573    0.6429 H   0  0  0  0  0  0  0  0  0  0  0  0
    4.4396   -1.8323   -0.7252 H   0  0  0  0  0  0  0  0  0  0  0  0
    4.9713    1.2025   -0.8086 H   0  0  0  0  0  0  0  0  0  0  0  0
    3.4223    0.3803   -1.0412 H   0  0  0  0  0  0  0  0  0  0  0  0
    6.6469   -0.1500   -2.2785 H   0  0  0  0  0  0  0  0  0  0  0  0
    4.7567   -1.8858   -2.9299 H   0  0  0  0  0  0  0  0  0  0  0  0
    4.8238   -1.0087   -4.4546 H   0  0  0  0  0  0  0  0  0  0  0  0
    2.3543   -1.2580   -2.6216 H   0  0  0  0  0  0  0  0  0  0  0  0
    2.5630   -1.9879   -4.2233 H   0  0  0  0  0  0  0  0  0  0  0  0
    1.7203    1.9426   -5.7686 H   0  0  0  0  0  0  0  0  0  0  0  0
   -0.2722   -0.7363   -7.3634 H   0  0  0  0  0  0  0  0  0  0  0  0
   -1.7792   -0.2601   -9.2853 H   0  0  0  0  0  0  0  0  0  0  0  0
   -1.9883    2.0693  -10.1803 H   0  0  0  0  0  0  0  0  0  0  0  0
   -0.6692    3.9109   -9.1068 H   0  0  0  0  0  0  0  0  0  0  0  0
    2.1595    1.2538   -2.5381 H   0  0  0  0  0  0  0  0  0  0  0  0
    2.1545    2.1718   -4.0278 H   0  0  0  0  0  0  0  0  0  0  0  0
    4.3228    2.8147   -5.1644 H   0  0  0  0  0  0  0  0  0  0  0  0
    4.5889    1.0949   -5.5278 H   0  0  0  0  0  0  0  0  0  0  0  0
    5.8466    2.0198   -4.6790 H   0  0  0  0  0  0  0  0  0  0  0  0
  1  2  1  0
  1 24  1  0
  1 25  1  0
  1 26  1  0
  2  3  1  0
  3  4  1  0
  3 27  1  0
  3 28  1  0
  4  5  1  0
  4 29  1  0
  4 30  1  0
  5  6  1  1
  5  7  1  0
  5 21  1  0
  6 31  1  0
  7  8  1  0
  7 32  1  0
  7 33  1  0
  8  9  1  0
  8 34  1  0
  8 35  1  0
  9 10  1  0
  9 20  1  0
 10 11  2  0
 10 12  1  0
 12 13  1  0
 12 36  1  0
 13 14  2  0
 13 18  1  0
 14 15  1  0
 14 37  1  0
 15 16  2  0
 15 38  1  0
 16 17  1  0
 16 39  1  0
 17 18  2  0
 17 40  1  0
 18 19  1  0
 20 21  1  0
 20 41  1  0
 20 42  1  0
 21 22  1  1
 21 23  1  0
 23 43  1  0
 23 44  1  0
 23 45  1  0
M  END

