
     RDKit          3D

 67 72  0  0  0  0  0  0  0  0999 V2000
    0.8801   -1.9095    0.0121 C   0  0  0  0  0  0  0  0  0  0  0  0
    2.2996   -1.6302    0.0965 N   0  0  0  0  0  0  0  0  0  0  0  0
    2.8222   -0.7616    1.0169 C   0  0  0  0  0  0  0  0  0  0  0  0
    2.1121   -0.1385    1.7964 O   0  0  0  0  0  0  0  0  0  0  0  0
    4.3093   -0.6314    0.9518 C   0  0  0  0  0  0  0  0  0  0  0  0
    5.2164   -0.5009    1.9947 C   0  0  0  0  0  0  0  0  0  0  0  0
    5.1405   -0.4434    3.4572 C   0  0  0  0  0  0  0  0  0  0  0  0
    3.9639   -0.0726    4.1412 C   0  0  0  0  0  0  0  0  0  0  0  0
    3.9384   -0.0303    5.5343 C   0  0  0  0  0  0  0  0  0  0  0  0
    5.0905   -0.3499    6.2492 C   0  0  0  0  0  0  0  0  0  0  0  0
    5.0657   -0.3070    7.5869 F   0  0  0  0  0  0  0  0  0  0  0  0
    6.2732   -0.7086    5.6035 C   0  0  0  0  0  0  0  0  0  0  0  0
    6.2942   -0.7516    4.2124 C   0  0  0  0  0  0  0  0  0  0  0  0
    6.4988   -0.4714    1.5032 O   0  0  0  0  0  0  0  0  0  0  0  0
    6.4382   -0.5596    0.1511 C   0  0  0  0  0  0  0  0  0  0  0  0
    7.5142   -0.5495   -0.7240 C   0  0  0  0  0  0  0  0  0  0  0  0
    7.2343   -0.6418   -2.0947 C   0  0  0  0  0  0  0  0  0  0  0  0
    8.3241   -0.6887   -3.0306 N   0  0  0  0  0  0  0  0  0  0  0  0
    9.1818   -1.8803   -2.9774 C   0  0  0  0  0  0  0  0  0  0  0  0
    9.2037    0.7510   -3.3218 S   0  0  1  0  0  0  0  0  0  0  0  0
    7.9175    1.9311   -3.7365 C   0  0  0  0  0  0  0  0  0  0  0  0
    9.8752    1.2239   -2.1057 O   0  0  0  0  0  0  0  0  0  0  0  0
   10.0054    0.4910   -4.5266 O   0  0  0  0  0  0  0  0  0  0  0  0
    5.8857   -0.7000   -2.5736 C   0  0  0  0  0  0  0  0  0  0  0  0
    5.5683   -0.6570   -4.0314 C   0  0  0  0  0  0  0  0  0  0  0  0
    4.5681    0.2149   -4.5072 C   0  0  0  0  0  0  0  0  0  0  0  0
    4.3159    0.3290   -5.8757 C   0  0  0  0  0  0  0  0  0  0  0  0
    5.0759   -0.3995   -6.7960 C   0  0  0  0  0  0  0  0  0  0  0  0
    6.0715   -1.2763   -6.3473 C   0  0  0  0  0  0  0  0  0  0  0  0
    6.9929   -1.9973   -7.3203 C   0  0  1  0  0  0  0  0  0  0  0  0
    8.4198   -1.3190   -7.3855 C   0  0  0  0  0  0  0  0  0  0  0  0
    9.2925   -2.4468   -7.0529 N   0  0  0  0  0  0  0  0  0  0  0  0
   10.6366   -2.4626   -6.8640 C   0  0  0  0  0  0  0  0  0  0  0  0
   11.2410   -3.6379   -6.4988 C   0  0  0  0  0  0  0  0  0  0  0  0
   10.5189   -4.7928   -6.3151 N   0  0  0  0  0  0  0  0  0  0  0  0
    9.2295   -4.7765   -6.4682 C   0  0  0  0  0  0  0  0  0  0  0  0
    8.4888   -3.5740   -6.8278 C   0  0  0  0  0  0  0  0  0  0  0  0
    7.2180   -3.4018   -6.9557 N   0  0  0  0  0  0  0  0  0  0  0  0
    6.2782   -1.4206   -4.9710 C   0  0  0  0  0  0  0  0  0  0  0  0
    4.8337   -0.7094   -1.6444 C   0  0  0  0  0  0  0  0  0  0  0  0
    5.0999   -0.6574   -0.2658 C   0  0  0  0  0  0  0  0  0  0  0  0
    0.5585   -1.9664   -1.0396 H   0  0  0  0  0  0  0  0  0  0  0  0
    0.3416   -1.0954    0.5135 H   0  0  0  0  0  0  0  0  0  0  0  0
    0.6129   -2.8572    0.5124 H   0  0  0  0  0  0  0  0  0  0  0  0
    2.9399   -2.2258   -0.4147 H   0  0  0  0  0  0  0  0  0  0  0  0
    3.0748    0.1881    3.5670 H   0  0  0  0  0  0  0  0  0  0  0  0
    3.0349    0.2586    6.0746 H   0  0  0  0  0  0  0  0  0  0  0  0
    7.1576   -0.9499    6.1960 H   0  0  0  0  0  0  0  0  0  0  0  0
    7.2142   -1.0318    3.6990 H   0  0  0  0  0  0  0  0  0  0  0  0
    8.5408   -0.4518   -0.3703 H   0  0  0  0  0  0  0  0  0  0  0  0
    8.5563   -2.7704   -3.1398 H   0  0  0  0  0  0  0  0  0  0  0  0
    9.7060   -1.9927   -2.0118 H   0  0  0  0  0  0  0  0  0  0  0  0
    9.9261   -1.8224   -3.7826 H   0  0  0  0  0  0  0  0  0  0  0  0
    7.2788    2.0991   -2.8614 H   0  0  0  0  0  0  0  0  0  0  0  0
    7.3424    1.5633   -4.5939 H   0  0  0  0  0  0  0  0  0  0  0  0
    8.4670    2.8483   -3.9884 H   0  0  0  0  0  0  0  0  0  0  0  0
    4.0047    0.8304   -3.8016 H   0  0  0  0  0  0  0  0  0  0  0  0
    3.5353    1.0082   -6.2281 H   0  0  0  0  0  0  0  0  0  0  0  0
    4.8952   -0.2838   -7.8686 H   0  0  0  0  0  0  0  0  0  0  0  0
    6.5245   -1.9593   -8.3191 H   0  0  0  0  0  0  0  0  0  0  0  0
    8.5545   -0.5137   -6.6469 H   0  0  0  0  0  0  0  0  0  0  0  0
    8.6579   -0.9260   -8.3865 H   0  0  0  0  0  0  0  0  0  0  0  0
   11.1769   -1.5247   -7.0077 H   0  0  0  0  0  0  0  0  0  0  0  0
   12.3207   -3.6890   -6.3467 H   0  0  0  0  0  0  0  0  0  0  0  0
    8.6553   -5.6972   -6.3144 H   0  0  0  0  0  0  0  0  0  0  0  0
    7.0165   -2.1454   -4.6356 H   0  0  0  0  0  0  0  0  0  0  0  0
    3.8058   -0.7566   -2.0060 H   0  0  0  0  0  0  0  0  0  0  0  0
  1  2  1  0
  1 42  1  0
  1 43  1  0
  1 44  1  0
  2  3  1  0
  2 45  1  0
  3  4  2  0
  3  5  1  0
  5  6  2  0
  5 41  1  0
  6  7  1  0
  6 14  1  0
  7  8  2  0
  7 13  1  0
  8  9  1  0
  8 46  1  0
  9 10  2  0
  9 47  1  0
 10 11  1  0
 10 12  1  0
 12 13  2  0
 12 48  1  0
 13 49  1  0
 14 15  1  0
 15 16  1  0
 15 41  2  0
 16 17  2  0
 16 50  1  0
 17 18  1  0
 17 24  1  0
 18 19  1  0
 20 18  1  1
 19 51  1  0
 19 52  1  0
 19 53  1  0
 20 21  1  0
 20 22  2  0
 20 23  2  0
 21 54  1  0
 21 55  1  0
 21 56  1  0
 24 25  1  0
 24 40  2  0
 25 26  2  0
 25 39  1  0
 26 27  1  0
 26 57  1  0
 27 28  2  0
 27 58  1  0
 28 29  1  0
 28 59  1  0
 29 30  1  0
 29 39  2  0
 30 31  1  0
 30 38  1  0
 30 60  1  6
 31 32  1  0
 31 61  1  0
 31 62  1  0
 32 33  1  0
 32 37  1  0
 33 34  2  0
 33 63  1  0
 34 35  1  0
 34 64  1  0
 35 36  2  0
 36 37  1  0
 36 65  1  0
 37 38  2  0
 39 66  1  0
 40 41  1  0
 40 67  1  0
M  END

