
     RDKit          3D

 38 43  0  0  0  0  0  0  0  0999 V2000
    3.3427   -3.3384    2.3415 F   0  0  0  0  0  0  0  0  0  0  0  0
    2.2576   -2.6079    2.8020 B   0  0  2  0  0  0  0  0  0  0  0  0
    1.1668   -3.4358    3.0231 F   0  0  0  0  0  0  0  0  0  0  0  0
    1.8932   -1.4963    1.8074 N   0  0  0  0  0  0  0  0  0  0  0  0
    1.9455   -0.1689    2.1125 C   0  0  0  0  0  0  0  0  0  0  0  0
    1.5367    0.6031    0.9222 C   0  0  0  0  0  0  0  0  0  0  0  0
    1.3886    1.9432    0.6038 C   0  0  0  0  0  0  0  0  0  0  0  0
    0.9543    2.2607   -0.7113 C   0  0  0  0  0  0  0  0  0  0  0  0
    0.6780    1.2862   -1.6700 C   0  0  0  0  0  0  0  0  0  0  0  0
    0.8235   -0.0968   -1.3626 C   0  0  0  0  0  0  0  0  0  0  0  0
    0.5960   -1.2438   -2.1853 C   0  0  0  0  0  0  0  0  0  0  0  0
    0.8055   -2.5131   -1.6652 C   0  0  0  0  0  0  0  0  0  0  0  0
    1.2452   -2.7569   -0.3270 C   0  0  0  0  0  0  0  0  0  0  0  0
    1.4687   -1.6564    0.4761 C   0  0  0  0  0  0  0  0  0  0  0  0
    1.2543   -0.3659   -0.0554 C   0  0  0  0  0  0  0  0  0  0  0  0
    2.3004    0.3261    3.2760 N   0  0  0  0  0  0  0  0  0  0  0  0
    2.6457   -0.5099    4.2789 C   0  0  0  0  0  0  0  0  0  0  0  0
    3.0164    0.1143    5.5163 C   0  0  0  0  0  0  0  0  0  0  0  0
    3.3824   -0.6341    6.5927 C   0  0  0  0  0  0  0  0  0  0  0  0
    3.4005   -2.0587    6.5005 C   0  0  0  0  0  0  0  0  0  0  0  0
    3.7759   -2.8715    7.5977 C   0  0  0  0  0  0  0  0  0  0  0  0
    3.7868   -4.2481    7.4862 C   0  0  0  0  0  0  0  0  0  0  0  0
    3.4178   -4.8427    6.2619 C   0  0  0  0  0  0  0  0  0  0  0  0
    3.0454   -4.0767    5.1702 C   0  0  0  0  0  0  0  0  0  0  0  0
    3.0276   -2.6623    5.2617 C   0  0  0  0  0  0  0  0  0  0  0  0
    2.6572   -1.8692    4.1735 N   0  0  0  0  0  0  0  0  0  0  0  0
    1.5961    2.7317    1.3304 H   0  0  0  0  0  0  0  0  0  0  0  0
    0.8320    3.3126   -0.9813 H   0  0  0  0  0  0  0  0  0  0  0  0
    0.3465    1.5902   -2.6668 H   0  0  0  0  0  0  0  0  0  0  0  0
    0.2589   -1.1228   -3.2177 H   0  0  0  0  0  0  0  0  0  0  0  0
    0.6266   -3.3796   -2.3072 H   0  0  0  0  0  0  0  0  0  0  0  0
    1.3932   -3.7760    0.0319 H   0  0  0  0  0  0  0  0  0  0  0  0
    2.9850    1.2032    5.5317 H   0  0  0  0  0  0  0  0  0  0  0  0
    3.6653   -0.1583    7.5354 H   0  0  0  0  0  0  0  0  0  0  0  0
    4.0569   -2.3838    8.5347 H   0  0  0  0  0  0  0  0  0  0  0  0
    4.0773   -4.8713    8.3349 H   0  0  0  0  0  0  0  0  0  0  0  0
    3.4234   -5.9312    6.1658 H   0  0  0  0  0  0  0  0  0  0  0  0
    2.7647   -4.5629    4.2406 H   0  0  0  0  0  0  0  0  0  0  0  0
  2  1  1  6
  2  3  1  0
  2  4  1  0
  2 26  1  0
  4  5  1  0
  4 14  1  0
  5  6  1  0
  5 16  2  0
  6  7  2  0
  6 15  1  0
  7  8  1  0
  7 27  1  0
  8  9  2  0
  8 28  1  0
  9 10  1  0
  9 29  1  0
 10 11  1  0
 10 15  2  0
 11 12  2  0
 11 30  1  0
 12 13  1  0
 12 31  1  0
 13 14  2  0
 13 32  1  0
 14 15  1  0
 16 17  1  0
 17 18  1  0
 17 26  2  0
 18 19  2  0
 18 33  1  0
 19 20  1  0
 19 34  1  0
 20 21  1  0
 20 25  2  0
 21 22  2  0
 21 35  1  0
 22 23  1  0
 22 36  1  0
 23 24  2  0
 23 37  1  0
 24 25  1  0
 24 38  1  0
 25 26  1  0
M  CHG  2   2  -1  26   1
M  END

