
     RDKit          3D

 32 31  0  0  0  0  0  0  0  0999 V2000
    3.7359   -1.8322    1.9105 C   0  0  0  0  0  0  0  0  0  0  0  0
    2.4696   -0.9708    1.8691 C   0  0  0  0  0  0  0  0  0  0  0  0
    2.8017    0.7721    1.5057 P   0  0  1  0  0  0  0  0  0  0  0  0
    3.9033    1.0977    0.5576 O   0  0  0  0  0  0  0  0  0  0  0  0
    1.3165    1.2718    1.0889 O   0  0  0  0  0  0  0  0  0  0  0  0
    1.0998    2.6273    0.7020 C   0  0  0  0  0  0  0  0  0  0  0  0
    2.9995    1.5213    2.9642 O   0  0  0  0  0  0  0  0  0  0  0  0
    4.1713    2.2354    3.2801 C   0  0  0  0  0  0  0  0  0  0  0  0
    4.4952    2.0306    4.6399 O   0  0  0  0  0  0  0  0  0  0  0  0
    5.1333    0.8872    4.9503 C   0  0  0  0  0  0  0  0  0  0  0  0
    5.4700    0.0397    4.1598 O   0  0  0  0  0  0  0  0  0  0  0  0
    5.3245    0.8662    6.2635 O   0  0  0  0  0  0  0  0  0  0  0  0
    6.0224   -0.2792    6.8258 C   0  0  1  0  0  0  0  0  0  0  0  0
    7.5263   -0.0781    6.6910 C   0  0  0  0  0  0  0  0  0  0  0  0
    5.5441   -0.3968    8.2637 C   0  0  0  0  0  0  0  0  0  0  0  0
    3.4712   -2.8844    2.0979 H   0  0  0  0  0  0  0  0  0  0  0  0
    4.4222   -1.4972    2.7007 H   0  0  0  0  0  0  0  0  0  0  0  0
    4.2736   -1.7758    0.9524 H   0  0  0  0  0  0  0  0  0  0  0  0
    1.9078   -1.0052    2.8164 H   0  0  0  0  0  0  0  0  0  0  0  0
    1.7805   -1.3050    1.0763 H   0  0  0  0  0  0  0  0  0  0  0  0
    1.0976    3.2882    1.5851 H   0  0  0  0  0  0  0  0  0  0  0  0
    0.1164    2.6758    0.2146 H   0  0  0  0  0  0  0  0  0  0  0  0
    1.8752    2.9632   -0.0051 H   0  0  0  0  0  0  0  0  0  0  0  0
    3.9799    3.3155    3.2034 H   0  0  0  0  0  0  0  0  0  0  0  0
    4.9978    1.9315    2.6218 H   0  0  0  0  0  0  0  0  0  0  0  0
    5.7187   -1.1644    6.2454 H   0  0  0  0  0  0  0  0  0  0  0  0
    7.8451    0.8364    7.2161 H   0  0  0  0  0  0  0  0  0  0  0  0
    7.8156   -0.0028    5.6328 H   0  0  0  0  0  0  0  0  0  0  0  0
    8.0625   -0.9343    7.1296 H   0  0  0  0  0  0  0  0  0  0  0  0
    5.8107    0.5038    8.8389 H   0  0  0  0  0  0  0  0  0  0  0  0
    6.0114   -1.2685    8.7471 H   0  0  0  0  0  0  0  0  0  0  0  0
    4.4516   -0.5211    8.3035 H   0  0  0  0  0  0  0  0  0  0  0  0
  1  2  1  0
  1 16  1  0
  1 17  1  0
  1 18  1  0
  2  3  1  0
  2 19  1  0
  2 20  1  0
  3  4  2  0
  3  5  1  6
  3  7  1  0
  5  6  1  0
  6 21  1  0
  6 22  1  0
  6 23  1  0
  7  8  1  0
  8  9  1  0
  8 24  1  0
  8 25  1  0
  9 10  1  0
 10 11  2  0
 10 12  1  0
 12 13  1  0
 13 14  1  0
 13 15  1  0
 13 26  1  6
 14 27  1  0
 14 28  1  0
 14 29  1  0
 15 30  1  0
 15 31  1  0
 15 32  1  0
M  END

