
     RDKit          3D

 64 65  0  0  0  0  0  0  0  0999 V2000
    9.1311   -2.1536   -1.0595 C   0  0  0  0  0  0  0  0  0  0  0  0
    8.1058   -1.2132   -0.7191 O   0  0  0  0  0  0  0  0  0  0  0  0
    8.2324    0.0176   -1.2302 C   0  0  0  0  0  0  0  0  0  0  0  0
    9.1401    0.3583   -1.9502 O   0  0  0  0  0  0  0  0  0  0  0  0
    7.0954    0.9319   -0.7862 C   0  0  1  0  0  0  0  0  0  0  0  0
    6.9956    1.0506    0.7625 C   0  0  0  0  0  0  0  0  0  0  0  0
    8.2308    1.6075    1.4317 C   0  0  0  0  0  0  0  0  0  0  0  0
    8.4113    2.9919    1.5844 C   0  0  0  0  0  0  0  0  0  0  0  0
    9.5717    3.4992    2.1739 C   0  0  0  0  0  0  0  0  0  0  0  0
   10.5775    2.6400    2.6258 C   0  0  0  0  0  0  0  0  0  0  0  0
   10.3943    1.2635    2.4793 C   0  0  0  0  0  0  0  0  0  0  0  0
   11.7471    0.0624    3.0955 Br  0  0  0  0  0  0  0  0  0  0  0  0
    9.2386    0.7440    1.8925 C   0  0  0  0  0  0  0  0  0  0  0  0
    7.2596    2.2016   -1.4575 N   0  0  0  0  0  0  0  0  0  0  0  0
    6.2016    3.0326   -1.6962 C   0  0  0  0  0  0  0  0  0  0  0  0
    5.0870    2.7869   -1.2478 O   0  0  0  0  0  0  0  0  0  0  0  0
    6.5191    4.2430   -2.5754 C   0  0  1  0  0  0  0  0  0  0  0  0
    6.2292    3.9203   -4.0643 C   0  0  0  0  0  0  0  0  0  0  0  0
    4.7282    3.8877   -4.3807 C   0  0  0  0  0  0  0  0  0  0  0  0
    4.0047    5.1887   -3.9826 C   0  0  2  0  0  0  0  0  0  0  0  0
    4.3645    6.3960   -4.8754 C   0  0  0  0  0  0  0  0  0  0  0  0
    4.1210    6.1969   -6.2903 N   0  0  0  0  0  0  0  0  0  0  0  0
    5.1238    6.0633   -7.2052 C   0  0  0  0  0  0  0  0  0  0  0  0
    6.3120    6.1113   -6.9432 O   0  0  0  0  0  0  0  0  0  0  0  0
    4.5927    5.8759   -8.4353 O   0  0  0  0  0  0  0  0  0  0  0  0
    5.4298    5.7137   -9.6244 C   0  0  1  0  0  0  0  0  0  0  0  0
    6.3008    4.4598   -9.4896 C   0  0  0  0  0  0  0  0  0  0  0  0
    4.4011    5.5390  -10.7438 C   0  0  0  0  0  0  0  0  0  0  0  0
    6.2696    6.9753   -9.8529 C   0  0  0  0  0  0  0  0  0  0  0  0
    4.2653    5.5024   -2.4957 C   0  0  0  0  0  0  0  0  0  0  0  0
    5.7599    5.5118   -2.1323 C   0  0  0  0  0  0  0  0  0  0  0  0
    8.8434   -3.1003   -0.5870 H   0  0  0  0  0  0  0  0  0  0  0  0
   10.1065   -1.8158   -0.6789 H   0  0  0  0  0  0  0  0  0  0  0  0
    9.2000   -2.2736   -2.1506 H   0  0  0  0  0  0  0  0  0  0  0  0
    6.1459    0.4767   -1.1181 H   0  0  0  0  0  0  0  0  0  0  0  0
    6.7650    0.0507    1.1588 H   0  0  0  0  0  0  0  0  0  0  0  0
    6.1253    1.6933    0.9591 H   0  0  0  0  0  0  0  0  0  0  0  0
    7.6294    3.6758    1.2466 H   0  0  0  0  0  0  0  0  0  0  0  0
    9.6975    4.5788    2.2897 H   0  0  0  0  0  0  0  0  0  0  0  0
   11.4846    3.0314    3.0888 H   0  0  0  0  0  0  0  0  0  0  0  0
    9.1161   -0.3364    1.7983 H   0  0  0  0  0  0  0  0  0  0  0  0
    8.1611    2.3640   -1.8959 H   0  0  0  0  0  0  0  0  0  0  0  0
    7.6007    4.4389   -2.4781 H   0  0  0  0  0  0  0  0  0  0  0  0
    6.6924    2.9554   -4.3321 H   0  0  0  0  0  0  0  0  0  0  0  0
    6.7233    4.6791   -4.6932 H   0  0  0  0  0  0  0  0  0  0  0  0
    4.2561    3.0528   -3.8375 H   0  0  0  0  0  0  0  0  0  0  0  0
    4.5822    3.6876   -5.4549 H   0  0  0  0  0  0  0  0  0  0  0  0
    2.9186    5.0174   -4.1034 H   0  0  0  0  0  0  0  0  0  0  0  0
    5.4272    6.6581   -4.7827 H   0  0  0  0  0  0  0  0  0  0  0  0
    3.7878    7.2723   -4.5288 H   0  0  0  0  0  0  0  0  0  0  0  0
    3.1717    6.1098   -6.6333 H   0  0  0  0  0  0  0  0  0  0  0  0
    5.6730    3.5780   -9.2855 H   0  0  0  0  0  0  0  0  0  0  0  0
    7.0288    4.5721   -8.6764 H   0  0  0  0  0  0  0  0  0  0  0  0
    6.8442    4.2806  -10.4306 H   0  0  0  0  0  0  0  0  0  0  0  0
    3.7701    4.6570  -10.5557 H   0  0  0  0  0  0  0  0  0  0  0  0
    4.9079    5.4059  -11.7116 H   0  0  0  0  0  0  0  0  0  0  0  0
    3.7476    6.4222  -10.8102 H   0  0  0  0  0  0  0  0  0  0  0  0
    6.9936    7.1179   -9.0408 H   0  0  0  0  0  0  0  0  0  0  0  0
    5.6194    7.8626   -9.9089 H   0  0  0  0  0  0  0  0  0  0  0  0
    6.8158    6.8921  -10.8056 H   0  0  0  0  0  0  0  0  0  0  0  0
    3.7644    4.7402   -1.8825 H   0  0  0  0  0  0  0  0  0  0  0  0
    3.8196    6.4778   -2.2310 H   0  0  0  0  0  0  0  0  0  0  0  0
    5.8725    5.6553   -1.0448 H   0  0  0  0  0  0  0  0  0  0  0  0
    6.2574    6.3761   -2.6054 H   0  0  0  0  0  0  0  0  0  0  0  0
  1  2  1  0
  1 32  1  0
  1 33  1  0
  1 34  1  0
  2  3  1  0
  3  4  2  0
  3  5  1  0
  5  6  1  0
  5 14  1  0
  5 35  1  6
  6  7  1  0
  6 36  1  0
  6 37  1  0
  7  8  2  0
  7 13  1  0
  8  9  1  0
  8 38  1  0
  9 10  2  0
  9 39  1  0
 10 11  1  0
 10 40  1  0
 11 12  1  0
 11 13  2  0
 13 41  1  0
 14 15  1  0
 14 42  1  0
 15 16  2  0
 15 17  1  0
 17 18  1  0
 17 31  1  0
 17 43  1  6
 18 19  1  0
 18 44  1  0
 18 45  1  0
 19 20  1  0
 19 46  1  0
 19 47  1  0
 20 21  1  0
 20 30  1  0
 20 48  1  1
 21 22  1  0
 21 49  1  0
 21 50  1  0
 22 23  1  0
 22 51  1  0
 23 24  2  0
 23 25  1  0
 26 25  1  1
 26 27  1  0
 26 28  1  0
 26 29  1  0
 27 52  1  0
 27 53  1  0
 27 54  1  0
 28 55  1  0
 28 56  1  0
 28 57  1  0
 29 58  1  0
 29 59  1  0
 29 60  1  0
 30 31  1  0
 30 61  1  0
 30 62  1  0
 31 63  1  0
 31 64  1  0
M  END

