
     RDKit          3D

 35 35  0  0  0  0  0  0  0  0999 V2000
    0.8064   -0.0607    0.7532 C   0  0  0  0  0  0  0  0  0  0  0  0
    2.2751   -0.0649    0.4249 C   0  0  0  0  0  0  0  0  0  0  0  0
    2.7760    0.2919   -0.8324 C   0  0  0  0  0  0  0  0  0  0  0  0
    4.1465    0.2669   -1.0793 C   0  0  0  0  0  0  0  0  0  0  0  0
    4.5668    0.6341   -2.3136 F   0  0  0  0  0  0  0  0  0  0  0  0
    5.0951   -0.1012   -0.1193 C   0  0  0  0  0  0  0  0  0  0  0  0
    6.5896   -0.1487   -0.4627 C   0  0  1  0  0  0  0  0  0  0  0  0
    7.4658    0.4884    0.6226 C   0  0  0  0  0  0  0  0  0  0  0  0
    7.0811   -1.4862   -0.8414 N   0  0  0  0  0  0  0  0  0  0  0  0
    7.0013   -2.5085    0.1884 C   0  0  0  0  0  0  0  0  0  0  0  0
    6.6200   -1.9843   -2.1316 C   0  0  0  0  0  0  0  0  0  0  0  0
    7.1242   -1.1723   -3.3247 C   0  0  0  0  0  0  0  0  0  0  0  0
    6.9689   -1.9219   -4.6423 C   0  0  0  0  0  0  0  0  0  0  0  0
    6.7125   -3.0904   -4.7403 O   0  0  0  0  0  0  0  0  0  0  0  0
    7.1686   -1.1730   -5.7532 O   0  0  0  0  0  0  0  0  0  0  0  0
    4.5883   -0.4519    1.1433 C   0  0  0  0  0  0  0  0  0  0  0  0
    3.2212   -0.4318    1.3907 C   0  0  0  0  0  0  0  0  0  0  0  0
    2.7803   -0.7753    2.6161 F   0  0  0  0  0  0  0  0  0  0  0  0
    0.2081    0.2636   -0.1098 H   0  0  0  0  0  0  0  0  0  0  0  0
    0.5893    0.6130    1.5982 H   0  0  0  0  0  0  0  0  0  0  0  0
    0.4634   -1.0641    1.0539 H   0  0  0  0  0  0  0  0  0  0  0  0
    2.1028    0.5964   -1.6366 H   0  0  0  0  0  0  0  0  0  0  0  0
    6.7143    0.4743   -1.3581 H   0  0  0  0  0  0  0  0  0  0  0  0
    7.3865   -0.0183    1.5960 H   0  0  0  0  0  0  0  0  0  0  0  0
    7.1782    1.5396    0.7768 H   0  0  0  0  0  0  0  0  0  0  0  0
    8.5201    0.4508    0.3102 H   0  0  0  0  0  0  0  0  0  0  0  0
    7.4314   -2.1457    1.1332 H   0  0  0  0  0  0  0  0  0  0  0  0
    7.5927   -3.3840   -0.1231 H   0  0  0  0  0  0  0  0  0  0  0  0
    5.9689   -2.8631    0.3983 H   0  0  0  0  0  0  0  0  0  0  0  0
    5.5129   -2.0723   -2.1917 H   0  0  0  0  0  0  0  0  0  0  0  0
    7.0007   -3.0091   -2.2511 H   0  0  0  0  0  0  0  0  0  0  0  0
    8.1984   -0.9507   -3.1854 H   0  0  0  0  0  0  0  0  0  0  0  0
    6.6030   -0.2051   -3.4090 H   0  0  0  0  0  0  0  0  0  0  0  0
    7.3485   -0.2535   -5.5108 H   0  0  0  0  0  0  0  0  0  0  0  0
    5.2525   -0.7374    1.9601 H   0  0  0  0  0  0  0  0  0  0  0  0
  1  2  1  0
  1 19  1  0
  1 20  1  0
  1 21  1  0
  2  3  2  0
  2 17  1  0
  3  4  1  0
  3 22  1  0
  4  5  1  0
  4  6  2  0
  6  7  1  0
  6 16  1  0
  7  8  1  0
  7  9  1  0
  7 23  1  6
  8 24  1  0
  8 25  1  0
  8 26  1  0
  9 10  1  0
  9 11  1  0
 10 27  1  0
 10 28  1  0
 10 29  1  0
 11 12  1  0
 11 30  1  0
 11 31  1  0
 12 13  1  0
 12 32  1  0
 12 33  1  0
 13 14  2  0
 13 15  1  0
 15 34  1  0
 16 17  2  0
 16 35  1  0
 17 18  1  0
M  END

