
     RDKit          3D

 36 36  0  0  0  0  0  0  0  0999 V2000
    2.7951    1.6636    2.8181 C   0  0  0  0  0  0  0  0  0  0  0  0
    3.1977    0.3240    2.2747 C   0  0  0  0  0  0  0  0  0  0  0  0
    2.3441   -0.6713    2.3340 N   0  0  0  0  0  0  0  0  0  0  0  0
    3.0129   -2.0546    1.6401 S   0  0  0  0  0  0  0  0  0  0  0  0
    4.5420   -1.3014    1.2631 C   0  0  0  0  0  0  0  0  0  0  0  0
    5.5756   -1.9593    0.6549 N   0  0  0  0  0  0  0  0  0  0  0  0
    5.4671   -3.3213    0.1139 C   0  0  1  0  0  0  0  0  0  0  0  0
    4.7838   -3.3405   -1.2602 C   0  0  0  0  0  0  0  0  0  0  0  0
    6.8545   -3.9756    0.0715 C   0  0  0  0  0  0  0  0  0  0  0  0
    7.5107   -4.1610    1.4434 C   0  0  0  0  0  0  0  0  0  0  0  0
    8.7267   -4.9592    1.4009 N   0  0  0  0  0  0  0  0  0  0  0  0
    9.8380   -4.2948    0.7457 C   0  0  0  0  0  0  0  0  0  0  0  0
    9.0995   -5.4639    2.7093 C   0  0  0  0  0  0  0  0  0  0  0  0
    4.4896    0.0294    1.6942 C   0  0  0  0  0  0  0  0  0  0  0  0
    5.5847    1.0159    1.5756 C   0  0  0  0  0  0  0  0  0  0  0  0
    5.4406    2.2104    1.5492 O   0  0  0  0  0  0  0  0  0  0  0  0
    6.8463    0.4870    1.4816 O   0  0  0  0  0  0  0  0  0  0  0  0
    1.7850    1.5951    3.2425 H   0  0  0  0  0  0  0  0  0  0  0  0
    2.8195    2.4245    2.0241 H   0  0  0  0  0  0  0  0  0  0  0  0
    3.4991    2.0044    3.5931 H   0  0  0  0  0  0  0  0  0  0  0  0
    6.2384   -1.3580    0.1690 H   0  0  0  0  0  0  0  0  0  0  0  0
    4.8433   -3.8859    0.8296 H   0  0  0  0  0  0  0  0  0  0  0  0
    5.3947   -2.8061   -2.0064 H   0  0  0  0  0  0  0  0  0  0  0  0
    3.7941   -2.8617   -1.2184 H   0  0  0  0  0  0  0  0  0  0  0  0
    4.6476   -4.3749   -1.6121 H   0  0  0  0  0  0  0  0  0  0  0  0
    7.5000   -3.3778   -0.5971 H   0  0  0  0  0  0  0  0  0  0  0  0
    6.7616   -4.9666   -0.4009 H   0  0  0  0  0  0  0  0  0  0  0  0
    6.7929   -4.6826    2.0989 H   0  0  0  0  0  0  0  0  0  0  0  0
    7.6866   -3.1656    1.9167 H   0  0  0  0  0  0  0  0  0  0  0  0
    9.5831   -4.0234   -0.2896 H   0  0  0  0  0  0  0  0  0  0  0  0
   10.7046   -4.9727    0.7003 H   0  0  0  0  0  0  0  0  0  0  0  0
   10.1639   -3.3654    1.2703 H   0  0  0  0  0  0  0  0  0  0  0  0
    8.2710   -6.0445    3.1450 H   0  0  0  0  0  0  0  0  0  0  0  0
    9.3682   -4.6603    3.4345 H   0  0  0  0  0  0  0  0  0  0  0  0
    9.9693   -6.1340    2.6204 H   0  0  0  0  0  0  0  0  0  0  0  0
    6.8485   -0.4219    1.8205 H   0  0  0  0  0  0  0  0  0  0  0  0
  1  2  1  0
  1 18  1  0
  1 19  1  0
  1 20  1  0
  2  3  2  0
  2 14  1  0
  3  4  1  0
  4  5  2  0
  5  6  1  0
  5 14  1  0
  6  7  1  0
  6 21  1  0
  7  8  1  0
  7  9  1  0
  7 22  1  1
  8 23  1  0
  8 24  1  0
  8 25  1  0
  9 10  1  0
  9 26  1  0
  9 27  1  0
 10 11  1  0
 10 28  1  0
 10 29  1  0
 11 12  1  0
 11 13  1  0
 12 30  1  0
 12 31  1  0
 12 32  1  0
 13 33  1  0
 13 34  1  0
 13 35  1  0
 14 15  2  0
 15 16  1  0
 15 17  1  0
 17 36  1  0
M  CHG  2   4   1  16  -1
M  END

