
     RDKit          3D

 32 33  0  0  0  0  0  0  0  0999 V2000
    1.1560    0.0937    0.6219 C   0  0  0  0  0  0  0  0  0  0  0  0
    2.5757    0.1048    0.3426 N   0  0  0  0  0  0  0  0  0  0  0  0
    3.2431    1.2390    0.0018 C   0  0  0  0  0  0  0  0  0  0  0  0
    2.6676    2.3195   -0.1514 O   0  0  0  0  0  0  0  0  0  0  0  0
    4.7264    1.1218   -0.1658 C   0  0  0  0  0  0  0  0  0  0  0  0
    5.4892   -0.0397   -0.1153 C   0  0  0  0  0  0  0  0  0  0  0  0
    5.0109   -1.3638   -0.0571 N   0  0  0  0  0  0  0  0  0  0  0  0
    5.8337   -2.2943    0.7327 C   0  0  0  0  0  0  0  0  0  0  0  0
    5.0858   -3.5812    1.0668 C   0  0  0  0  0  0  0  0  0  0  0  0
    4.6045   -4.5258   -0.4228 S   0  0  0  0  0  0  0  0  0  0  0  0
    3.7387   -3.1494   -1.2588 C   0  0  0  0  0  0  0  0  0  0  0  0
    4.5964   -1.8945   -1.3770 C   0  0  0  0  0  0  0  0  0  0  0  0
    7.2023    0.2783   -0.2476 S   0  0  0  0  0  0  0  0  0  0  0  0
    6.9128    2.0029   -0.3580 C   0  0  0  0  0  0  0  0  0  0  0  0
    7.9628    2.9380   -0.4372 C   0  0  0  0  0  0  0  0  0  0  0  0
    8.8073    3.7393   -0.5076 N   0  0  0  0  0  0  0  0  0  0  0  0
    5.5464    2.3098   -0.3246 C   0  0  0  0  0  0  0  0  0  0  0  0
    5.0333    3.5547   -0.4042 N   0  0  0  0  0  0  0  0  0  0  0  0
    0.6788   -0.7919    0.1726 H   0  0  0  0  0  0  0  0  0  0  0  0
    0.7095    0.9998    0.1926 H   0  0  0  0  0  0  0  0  0  0  0  0
    0.9453    0.0885    1.7066 H   0  0  0  0  0  0  0  0  0  0  0  0
    3.1469   -0.7181    0.5285 H   0  0  0  0  0  0  0  0  0  0  0  0
    6.1118   -1.7829    1.6671 H   0  0  0  0  0  0  0  0  0  0  0  0
    6.7708   -2.5509    0.1971 H   0  0  0  0  0  0  0  0  0  0  0  0
    4.1906   -3.3603    1.6720 H   0  0  0  0  0  0  0  0  0  0  0  0
    5.7353   -4.2460    1.6554 H   0  0  0  0  0  0  0  0  0  0  0  0
    2.7978   -2.9275   -0.7276 H   0  0  0  0  0  0  0  0  0  0  0  0
    3.4775   -3.5145   -2.2633 H   0  0  0  0  0  0  0  0  0  0  0  0
    4.0183   -1.1074   -1.8833 H   0  0  0  0  0  0  0  0  0  0  0  0
    5.4894   -2.1081   -1.9972 H   0  0  0  0  0  0  0  0  0  0  0  0
    5.6430    4.3567   -0.4859 H   0  0  0  0  0  0  0  0  0  0  0  0
    4.0185    3.6363   -0.3669 H   0  0  0  0  0  0  0  0  0  0  0  0
  1  2  1  0
  1 19  1  0
  1 20  1  0
  1 21  1  0
  2  3  1  0
  2 22  1  0
  3  4  2  0
  3  5  1  0
  5  6  2  0
  5 17  1  0
  6  7  1  0
  6 13  1  0
  7  8  1  0
  7 12  1  0
  8  9  1  0
  8 23  1  0
  8 24  1  0
  9 10  1  0
  9 25  1  0
  9 26  1  0
 10 11  1  0
 11 12  1  0
 11 27  1  0
 11 28  1  0
 12 29  1  0
 12 30  1  0
 13 14  1  0
 14 15  1  0
 14 17  2  0
 15 16  3  0
 17 18  1  0
 18 31  1  0
 18 32  1  0
M  END

