
     RDKit          3D

 51 54  0  0  0  0  0  0  0  0999 V2000
    0.7537   -0.1827   -0.1468 C   0  0  0  0  0  0  0  0  0  0  0  0
    2.2657    0.1000   -0.2276 C   0  0  1  0  0  0  0  0  0  0  0  0
    2.9830   -1.0918    0.4453 C   0  0  0  0  0  0  0  0  0  0  0  0
    2.6853    0.2141   -1.7265 C   0  0  0  0  0  0  0  0  0  0  0  0
    2.3896   -0.9304   -2.5735 N   0  0  0  0  0  0  0  0  0  0  0  0
    2.4321   -0.7368   -4.0353 C   0  0  0  0  0  0  0  0  0  0  0  0
    2.9378   -2.1994   -4.1887 C   0  0  2  0  0  0  0  0  0  0  0  0
    1.8593   -3.1981   -4.4477 C   0  0  0  0  0  0  0  0  0  0  0  0
    1.8863   -4.1404   -5.3578 N   0  0  0  0  0  0  0  0  0  0  0  0
    0.6817   -4.8117   -5.2256 C   0  0  0  0  0  0  0  0  0  0  0  0
    0.1736   -5.9077   -5.9395 C   0  0  0  0  0  0  0  0  0  0  0  0
   -1.0874   -6.3915   -5.5945 C   0  0  0  0  0  0  0  0  0  0  0  0
   -1.8414   -5.8026   -4.5569 C   0  0  0  0  0  0  0  0  0  0  0  0
   -1.3574   -4.7121   -3.8327 C   0  0  0  0  0  0  0  0  0  0  0  0
   -0.0915   -4.2309   -4.1831 C   0  0  0  0  0  0  0  0  0  0  0  0
    0.6942   -3.1999   -3.7067 N   0  0  0  0  0  0  0  0  0  0  0  0
    0.4975   -2.5395   -2.9613 H   0  0  0  0  0  0  0  0  0  0  0  0
    3.3345   -2.0601   -2.6912 C   0  0  0  0  0  0  0  0  0  0  0  0
    2.5949    1.3399    0.5050 N   0  0  0  0  0  0  0  0  0  0  0  0
    3.9763    1.7007    0.7960 C   0  0  0  0  0  0  0  0  0  0  0  0
    4.5376    2.8314   -0.0880 C   0  0  0  0  0  0  0  0  0  0  0  0
    3.6168    4.0570   -0.0604 C   0  0  0  0  0  0  0  0  0  0  0  0
    2.1730    3.6563   -0.3852 C   0  0  0  0  0  0  0  0  0  0  0  0
    1.7176    2.5017    0.5264 C   0  0  0  0  0  0  0  0  0  0  0  0
    0.5434   -1.1739   -0.5702 H   0  0  0  0  0  0  0  0  0  0  0  0
    0.1544    0.5422   -0.7172 H   0  0  0  0  0  0  0  0  0  0  0  0
    0.4134   -0.1712    0.9000 H   0  0  0  0  0  0  0  0  0  0  0  0
    2.6181   -2.0443    0.0359 H   0  0  0  0  0  0  0  0  0  0  0  0
    2.7814   -1.0833    1.5272 H   0  0  0  0  0  0  0  0  0  0  0  0
    4.0732   -1.0726    0.3001 H   0  0  0  0  0  0  0  0  0  0  0  0
    3.7687    0.4624   -1.7759 H   0  0  0  0  0  0  0  0  0  0  0  0
    2.1458    1.0752   -2.1540 H   0  0  0  0  0  0  0  0  0  0  0  0
    3.2058   -0.0080   -4.3531 H   0  0  0  0  0  0  0  0  0  0  0  0
    1.4728   -0.4682   -4.5096 H   0  0  0  0  0  0  0  0  0  0  0  0
    3.7495   -2.3735   -4.9041 H   0  0  0  0  0  0  0  0  0  0  0  0
    0.7620   -6.3588   -6.7413 H   0  0  0  0  0  0  0  0  0  0  0  0
   -1.5048   -7.2442   -6.1359 H   0  0  0  0  0  0  0  0  0  0  0  0
   -2.8265   -6.2095   -4.3149 H   0  0  0  0  0  0  0  0  0  0  0  0
   -1.9448   -4.2594   -3.0303 H   0  0  0  0  0  0  0  0  0  0  0  0
    4.3932   -1.7485   -2.5746 H   0  0  0  0  0  0  0  0  0  0  0  0
    3.1446   -2.9238   -2.0343 H   0  0  0  0  0  0  0  0  0  0  0  0
    4.6226    0.8165    0.7260 H   0  0  0  0  0  0  0  0  0  0  0  0
    4.0378    2.0390    1.8526 H   0  0  0  0  0  0  0  0  0  0  0  0
    4.6435    2.4721   -1.1266 H   0  0  0  0  0  0  0  0  0  0  0  0
    5.5505    3.1001    0.2598 H   0  0  0  0  0  0  0  0  0  0  0  0
    3.9772    4.8349   -0.7541 H   0  0  0  0  0  0  0  0  0  0  0  0
    3.6438    4.5051    0.9508 H   0  0  0  0  0  0  0  0  0  0  0  0
    2.0995    3.3473   -1.4434 H   0  0  0  0  0  0  0  0  0  0  0  0
    1.4936    4.5173   -0.2581 H   0  0  0  0  0  0  0  0  0  0  0  0
    0.6890    2.2106    0.2835 H   0  0  0  0  0  0  0  0  0  0  0  0
    1.6834    2.8928    1.5659 H   0  0  0  0  0  0  0  0  0  0  0  0
  2  1  1  6
  1 25  1  0
  1 26  1  0
  1 27  1  0
  2  3  1  0
  2  4  1  0
  2 19  1  0
  3 28  1  0
  3 29  1  0
  3 30  1  0
  4  5  1  0
  4 31  1  0
  4 32  1  0
  5  6  1  0
  5 18  1  0
  6  7  1  0
  6 33  1  0
  6 34  1  0
  7  8  1  0
  7 18  1  0
  7 35  1  6
  8  9  2  0
  8 16  1  0
  9 10  1  0
 10 11  2  0
 10 15  1  0
 11 12  1  0
 11 36  1  0
 12 13  2  0
 12 37  1  0
 13 14  1  0
 13 38  1  0
 14 15  2  0
 14 39  1  0
 15 16  1  0
 16 17  1  0
 18 40  1  0
 18 41  1  0
 19 20  1  0
 19 24  1  0
 20 21  1  0
 20 42  1  0
 20 43  1  0
 21 22  1  0
 21 44  1  0
 21 45  1  0
 22 23  1  0
 22 46  1  0
 22 47  1  0
 23 24  1  0
 23 48  1  0
 23 49  1  0
 24 50  1  0
 24 51  1  0
M  END

