
     RDKit          3D

 53 55  0  0  0  0  0  0  0  0999 V2000
    0.7709    5.9840  -13.0815 C   0  0  0  0  0  0  0  0  0  0  0  0
    0.7963    6.9303  -12.0375 O   0  0  0  0  0  0  0  0  0  0  0  0
    1.4687    6.6412  -10.8947 C   0  0  0  0  0  0  0  0  0  0  0  0
    2.1638    5.4451  -10.6584 C   0  0  0  0  0  0  0  0  0  0  0  0
    2.8236    5.2474   -9.4421 C   0  0  0  0  0  0  0  0  0  0  0  0
    2.8126    6.2336   -8.4399 C   0  0  0  0  0  0  0  0  0  0  0  0
    3.4870    6.0094   -7.1644 C   0  0  0  0  0  0  0  0  0  0  0  0
    3.3353    6.5216   -5.8979 C   0  0  0  0  0  0  0  0  0  0  0  0
    4.2618    5.8218   -5.0580 C   0  0  0  0  0  0  0  0  0  0  0  0
    4.9250    4.9334   -5.8614 C   0  0  0  0  0  0  0  0  0  0  0  0
    5.9941    3.9198   -5.6223 C   0  0  0  0  0  0  0  0  0  0  0  0
    5.6727    2.5080   -6.1636 C   0  0  0  0  0  0  0  0  0  0  0  0
    5.6263    2.3797   -7.6892 C   0  0  0  0  0  0  0  0  0  0  0  0
    4.6154    2.0521   -8.2895 O   0  0  0  0  0  0  0  0  0  0  0  0
    6.8142    2.6238   -8.3259 N   0  0  0  0  0  0  0  0  0  0  0  0
    6.9538    2.5773   -9.7689 C   0  0  0  0  0  0  0  0  0  0  0  0
    6.8785    3.9571  -10.4579 C   0  0  0  0  0  0  0  0  0  0  0  0
    7.9439    4.9271   -9.9990 C   0  0  0  0  0  0  0  0  0  0  0  0
    9.2372    4.9036  -10.5513 C   0  0  0  0  0  0  0  0  0  0  0  0
   10.2334    5.7702  -10.1055 C   0  0  0  0  0  0  0  0  0  0  0  0
    9.9521    6.6799   -9.0802 C   0  0  0  0  0  0  0  0  0  0  0  0
   10.9948    7.4928   -8.6794 O   0  0  0  0  0  0  0  0  0  0  0  0
   10.7227    8.7328   -8.1772 C   0  0  1  0  0  0  0  0  0  0  0  0
   10.3746    8.6593   -6.8651 F   0  0  0  0  0  0  0  0  0  0  0  0
   11.8514    9.4474   -8.2529 F   0  0  0  0  0  0  0  0  0  0  0  0
    8.6790    6.7176   -8.5018 C   0  0  0  0  0  0  0  0  0  0  0  0
    7.6878    5.8485   -8.9729 C   0  0  0  0  0  0  0  0  0  0  0  0
    4.4651    5.0539   -7.1389 O   0  0  0  0  0  0  0  0  0  0  0  0
    2.1100    7.4306   -8.6925 C   0  0  0  0  0  0  0  0  0  0  0  0
    1.4474    7.6319   -9.8955 C   0  0  0  0  0  0  0  0  0  0  0  0
    0.1784    6.4281  -13.8928 H   0  0  0  0  0  0  0  0  0  0  0  0
    0.2947    5.0372  -12.7684 H   0  0  0  0  0  0  0  0  0  0  0  0
    1.7849    5.7611  -13.4606 H   0  0  0  0  0  0  0  0  0  0  0  0
    2.1896    4.6529  -11.4069 H   0  0  0  0  0  0  0  0  0  0  0  0
    3.3341    4.2990   -9.2574 H   0  0  0  0  0  0  0  0  0  0  0  0
    2.6174    7.2793   -5.5928 H   0  0  0  0  0  0  0  0  0  0  0  0
    4.4091    5.9533   -3.9879 H   0  0  0  0  0  0  0  0  0  0  0  0
    6.1561    3.8603   -4.5352 H   0  0  0  0  0  0  0  0  0  0  0  0
    6.9515    4.2749   -6.0488 H   0  0  0  0  0  0  0  0  0  0  0  0
    4.6945    2.1716   -5.7944 H   0  0  0  0  0  0  0  0  0  0  0  0
    6.4354    1.8066   -5.7830 H   0  0  0  0  0  0  0  0  0  0  0  0
    7.6060    2.9417   -7.7801 H   0  0  0  0  0  0  0  0  0  0  0  0
    6.1409    1.9398  -10.1446 H   0  0  0  0  0  0  0  0  0  0  0  0
    7.9118    2.0895  -10.0171 H   0  0  0  0  0  0  0  0  0  0  0  0
    5.8802    4.3842  -10.2766 H   0  0  0  0  0  0  0  0  0  0  0  0
    6.9660    3.7924  -11.5453 H   0  0  0  0  0  0  0  0  0  0  0  0
    9.4675    4.2012  -11.3580 H   0  0  0  0  0  0  0  0  0  0  0  0
   11.2336    5.7632  -10.5428 H   0  0  0  0  0  0  0  0  0  0  0  0
    9.9080    9.2454   -8.7213 H   0  0  0  0  0  0  0  0  0  0  0  0
    8.4611    7.3995   -7.6791 H   0  0  0  0  0  0  0  0  0  0  0  0
    6.6913    5.8880   -8.5260 H   0  0  0  0  0  0  0  0  0  0  0  0
    2.0965    8.2201   -7.9371 H   0  0  0  0  0  0  0  0  0  0  0  0
    0.9063    8.5588  -10.0966 H   0  0  0  0  0  0  0  0  0  0  0  0
  1  2  1  0
  1 31  1  0
  1 32  1  0
  1 33  1  0
  2  3  1  0
  3  4  2  0
  3 30  1  0
  4  5  1  0
  4 34  1  0
  5  6  2  0
  5 35  1  0
  6  7  1  0
  6 29  1  0
  7  8  2  0
  7 28  1  0
  8  9  1  0
  8 36  1  0
  9 10  2  0
  9 37  1  0
 10 11  1  0
 10 28  1  0
 11 12  1  0
 11 38  1  0
 11 39  1  0
 12 13  1  0
 12 40  1  0
 12 41  1  0
 13 14  2  0
 13 15  1  0
 15 16  1  0
 15 42  1  0
 16 17  1  0
 16 43  1  0
 16 44  1  0
 17 18  1  0
 17 45  1  0
 17 46  1  0
 18 19  2  0
 18 27  1  0
 19 20  1  0
 19 47  1  0
 20 21  2  0
 20 48  1  0
 21 22  1  0
 21 26  1  0
 22 23  1  0
 23 24  1  0
 23 25  1  0
 23 49  1  6
 26 27  2  0
 26 50  1  0
 27 51  1  0
 29 30  2  0
 29 52  1  0
 30 53  1  0
M  END

