
     RDKit          3D

 37 39  0  0  0  0  0  0  0  0999 V2000
    3.0475   -0.6833    2.0154 C   0  0  0  0  0  0  0  0  0  0  0  0
    2.6086   -0.8367    0.5474 C   0  0  1  0  0  0  0  0  0  0  0  0
    1.0681   -0.7504    0.4671 C   0  0  0  0  0  0  0  0  0  0  0  0
    3.2493    0.2882   -0.2999 C   0  0  0  0  0  0  0  0  0  0  0  0
    3.0872   -2.1840    0.0404 C   0  0  0  0  0  0  0  0  0  0  0  0
    3.8265   -3.0041    0.7311 N   0  0  0  0  0  0  0  0  0  0  0  0
    4.0493   -4.0633   -0.0892 N   0  0  0  0  0  0  0  0  0  0  0  0
    4.6473   -4.8294    0.1951 H   0  0  0  0  0  0  0  0  0  0  0  0
    3.4792   -3.9634   -1.3225 C   0  0  0  0  0  0  0  0  0  0  0  0
    3.6363   -4.9936   -2.6125 S   0  0  0  0  0  0  0  0  0  0  0  0
    2.7904   -2.7426   -1.2067 N   0  0  0  0  0  0  0  0  0  0  0  0
    2.2490   -2.0164   -2.2514 N   0  0  0  0  0  0  0  0  0  0  0  0
    1.3812   -2.5626   -3.0305 C   0  0  0  0  0  0  0  0  0  0  0  0
    0.6013   -3.8072   -2.9450 C   0  0  0  0  0  0  0  0  0  0  0  0
    0.2277   -4.3425   -1.6809 C   0  0  0  0  0  0  0  0  0  0  0  0
   -0.5904   -5.4476   -1.6565 C   0  0  0  0  0  0  0  0  0  0  0  0
   -1.0568   -6.0474   -2.8318 C   0  0  0  0  0  0  0  0  0  0  0  0
   -0.7290   -5.5540   -4.0805 C   0  0  0  0  0  0  0  0  0  0  0  0
    0.1005   -4.4181   -4.1132 C   0  0  0  0  0  0  0  0  0  0  0  0
    0.5757   -3.7626   -5.8425 Br  0  0  0  0  0  0  0  0  0  0  0  0
   -1.8528   -7.1027   -2.5178 O   0  0  0  0  0  0  0  0  0  0  0  0
   -1.7774   -7.2554   -1.0985 C   0  0  0  0  0  0  0  0  0  0  0  0
   -1.0990   -6.1159   -0.5797 O   0  0  0  0  0  0  0  0  0  0  0  0
    2.7232    0.2993    2.3917 H   0  0  0  0  0  0  0  0  0  0  0  0
    4.1397   -0.7522    2.1173 H   0  0  0  0  0  0  0  0  0  0  0  0
    2.6058   -1.4638    2.6522 H   0  0  0  0  0  0  0  0  0  0  0  0
    0.7302    0.2133    0.8799 H   0  0  0  0  0  0  0  0  0  0  0  0
    0.5935   -1.5520    1.0560 H   0  0  0  0  0  0  0  0  0  0  0  0
    0.7067   -0.8151   -0.5688 H   0  0  0  0  0  0  0  0  0  0  0  0
    2.9010    1.2688    0.0623 H   0  0  0  0  0  0  0  0  0  0  0  0
    2.9838    0.1901   -1.3612 H   0  0  0  0  0  0  0  0  0  0  0  0
    4.3470    0.2640   -0.2126 H   0  0  0  0  0  0  0  0  0  0  0  0
    1.1295   -1.9186   -3.8822 H   0  0  0  0  0  0  0  0  0  0  0  0
    0.5664   -3.8842   -0.7537 H   0  0  0  0  0  0  0  0  0  0  0  0
   -1.0935   -6.0213   -4.9945 H   0  0  0  0  0  0  0  0  0  0  0  0
   -1.2096   -8.1741   -0.8567 H   0  0  0  0  0  0  0  0  0  0  0  0
   -2.7949   -7.3087   -0.6786 H   0  0  0  0  0  0  0  0  0  0  0  0
  2  1  1  1
  1 24  1  0
  1 25  1  0
  1 26  1  0
  2  3  1  0
  2  4  1  0
  2  5  1  0
  3 27  1  0
  3 28  1  0
  3 29  1  0
  4 30  1  0
  4 31  1  0
  4 32  1  0
  5  6  2  0
  5 11  1  0
  6  7  1  0
  7  8  1  0
  7  9  1  0
  9 10  2  0
  9 11  1  0
 11 12  1  0
 12 13  2  0
 13 14  1  0
 13 33  1  0
 14 15  2  0
 14 19  1  0
 15 16  1  0
 15 34  1  0
 16 17  2  0
 16 23  1  0
 17 18  1  0
 17 21  1  0
 18 19  2  0
 18 35  1  0
 19 20  1  0
 21 22  1  0
 22 23  1  0
 22 36  1  0
 22 37  1  0
M  END

