
     RDKit          3D

 45 46  0  0  0  0  0  0  0  0999 V2000
    1.3487   -2.6131   10.6009 C   0  0  0  0  0  0  0  0  0  0  0  0
    0.0929   -3.3337   10.0961 C   0  0  2  0  0  0  0  0  0  0  0  0
    0.1016   -4.3494   10.5177 H   0  0  0  0  0  0  0  0  0  0  0  0
    0.0779   -3.5078    8.5687 C   0  0  0  0  0  0  0  0  0  0  0  0
    1.0532   -4.5644    8.0950 C   0  0  0  0  0  0  0  0  0  0  0  0
    1.5727   -5.4064    8.7886 O   0  0  0  0  0  0  0  0  0  0  0  0
    1.2621   -4.4745    6.7677 O   0  0  0  0  0  0  0  0  0  0  0  0
    2.1305   -5.4486    6.1773 C   0  0  0  0  0  0  0  0  0  0  0  0
    2.2034   -5.1642    4.6844 C   0  0  2  0  0  0  0  0  0  0  0  0
    2.5661   -4.1217    4.5481 H   0  0  0  0  0  0  0  0  0  0  0  0
    0.8644   -5.3130    3.9545 C   0  0  0  0  0  0  0  0  0  0  0  0
    1.0575   -5.1577    2.4404 C   0  0  0  0  0  0  0  0  0  0  0  0
    2.1724   -6.0895    1.9486 C   0  0  0  0  0  0  0  0  0  0  0  0
    3.4318   -5.9003    2.7942 C   0  0  0  0  0  0  0  0  0  0  0  0
    3.1686   -6.0701    4.1752 O   0  0  0  0  0  0  0  0  0  0  0  0
   -1.1472   -2.7071   10.6019 N   0  0  0  0  0  0  0  0  0  0  0  0
   -1.9514   -3.5356   11.5076 C   0  0  0  0  0  0  0  0  0  0  0  0
   -3.0159   -2.7541   12.2689 C   0  0  0  0  0  0  0  0  0  0  0  0
   -3.7846   -1.8411   11.3184 C   0  0  0  0  0  0  0  0  0  0  0  0
   -2.8056   -0.8528   10.6889 C   0  0  0  0  0  0  0  0  0  0  0  0
   -1.5141   -1.4650   10.1463 C   0  0  0  0  0  0  0  0  0  0  0  0
   -0.8291   -0.8340    9.3510 O   0  0  0  0  0  0  0  0  0  0  0  0
    1.3944   -1.5909   10.2016 H   0  0  0  0  0  0  0  0  0  0  0  0
    2.2487   -3.1661   10.2928 H   0  0  0  0  0  0  0  0  0  0  0  0
    1.3463   -2.5620   11.7013 H   0  0  0  0  0  0  0  0  0  0  0  0
    0.2686   -2.5582    8.0516 H   0  0  0  0  0  0  0  0  0  0  0  0
   -0.9244   -3.8346    8.2387 H   0  0  0  0  0  0  0  0  0  0  0  0
    1.7457   -6.4639    6.3659 H   0  0  0  0  0  0  0  0  0  0  0  0
    3.1335   -5.3842    6.6261 H   0  0  0  0  0  0  0  0  0  0  0  0
    0.1487   -4.5733    4.3461 H   0  0  0  0  0  0  0  0  0  0  0  0
    0.4577   -6.3157    4.1785 H   0  0  0  0  0  0  0  0  0  0  0  0
    1.3287   -4.1102    2.2125 H   0  0  0  0  0  0  0  0  0  0  0  0
    0.1142   -5.3582    1.9065 H   0  0  0  0  0  0  0  0  0  0  0  0
    2.4061   -5.9064    0.8861 H   0  0  0  0  0  0  0  0  0  0  0  0
    1.8438   -7.1403    2.0327 H   0  0  0  0  0  0  0  0  0  0  0  0
    3.8573   -4.8896    2.6136 H   0  0  0  0  0  0  0  0  0  0  0  0
    4.2061   -6.6382    2.5335 H   0  0  0  0  0  0  0  0  0  0  0  0
   -1.2690   -4.0279   12.2207 H   0  0  0  0  0  0  0  0  0  0  0  0
   -2.4333   -4.3494   10.9290 H   0  0  0  0  0  0  0  0  0  0  0  0
   -2.5386   -2.1449   13.0569 H   0  0  0  0  0  0  0  0  0  0  0  0
   -3.6825   -3.4692   12.7775 H   0  0  0  0  0  0  0  0  0  0  0  0
   -4.5903   -1.3045   11.8448 H   0  0  0  0  0  0  0  0  0  0  0  0
   -4.2715   -2.4483   10.5340 H   0  0  0  0  0  0  0  0  0  0  0  0
   -2.4942   -0.0989   11.4341 H   0  0  0  0  0  0  0  0  0  0  0  0
   -3.2472   -0.2868    9.8554 H   0  0  0  0  0  0  0  0  0  0  0  0
  1  2  1  0
  1 23  1  0
  1 24  1  0
  1 25  1  0
  2  3  1  1
  2  4  1  0
  2 16  1  0
  4  5  1  0
  4 26  1  0
  4 27  1  0
  5  6  2  0
  5  7  1  0
  7  8  1  0
  8  9  1  0
  8 28  1  0
  8 29  1  0
  9 10  1  1
  9 11  1  0
  9 15  1  0
 11 12  1  0
 11 30  1  0
 11 31  1  0
 12 13  1  0
 12 32  1  0
 12 33  1  0
 13 14  1  0
 13 34  1  0
 13 35  1  0
 14 15  1  0
 14 36  1  0
 14 37  1  0
 16 17  1  0
 16 21  1  0
 17 18  1  0
 17 38  1  0
 17 39  1  0
 18 19  1  0
 18 40  1  0
 18 41  1  0
 19 20  1  0
 19 42  1  0
 19 43  1  0
 20 21  1  0
 20 44  1  0
 20 45  1  0
 21 22  2  0
M  END

