
     RDKit          3D

 47 48  0  0  0  0  0  0  0  0999 V2000
    2.6150   -1.0801    1.3862 C   0  0  0  0  0  0  0  0  0  0  0  0
    2.5453   -0.2258    0.2114 N   0  0  0  0  0  0  0  0  0  0  0  0
    2.8649    1.1670    0.5187 C   0  0  0  0  0  0  0  0  0  0  0  0
    2.3405    2.1718   -0.5102 C   0  0  0  0  0  0  0  0  0  0  0  0
    2.6088    3.6184   -0.0858 C   0  0  0  0  0  0  0  0  0  0  0  0
    2.2488    4.6062   -1.0980 N   0  0  0  0  0  0  0  0  0  0  0  0
    0.8148    4.7580   -1.2691 C   0  0  0  0  0  0  0  0  0  0  0  0
    2.9139    5.8862   -0.8929 C   0  0  0  0  0  0  0  0  0  0  0  0
    4.3803    5.8321   -1.1965 C   0  0  0  0  0  0  0  0  0  0  0  0
    5.1213    5.1682   -2.1367 C   0  0  0  0  0  0  0  0  0  0  0  0
    6.4822    5.5817   -1.9438 C   0  0  0  0  0  0  0  0  0  0  0  0
    6.4635    6.4663   -0.9042 C   0  0  0  0  0  0  0  0  0  0  0  0
    5.1948    6.6211   -0.4430 O   0  0  0  0  0  0  0  0  0  0  0  0
    3.3117   -0.7702   -0.9008 C   0  0  0  0  0  0  0  0  0  0  0  0
    2.6677   -1.9794   -1.5575 C   0  0  0  0  0  0  0  0  0  0  0  0
    3.4496   -3.0047   -2.1060 C   0  0  0  0  0  0  0  0  0  0  0  0
    2.8560   -4.0765   -2.7823 C   0  0  0  0  0  0  0  0  0  0  0  0
    1.4700   -4.1444   -2.9105 C   0  0  0  0  0  0  0  0  0  0  0  0
    0.6676   -3.1418   -2.3433 C   0  0  0  0  0  0  0  0  0  0  0  0
   -0.8234   -3.2634   -2.5067 C   0  0  0  0  0  0  0  0  0  0  0  0
   -1.3415   -4.0025   -3.3022 O   0  0  0  0  0  0  0  0  0  0  0  0
   -1.5840   -2.4929   -1.6958 O   0  0  0  0  0  0  0  0  0  0  0  0
    1.2744   -2.0642   -1.6824 C   0  0  0  0  0  0  0  0  0  0  0  0
    1.9294   -0.7125    2.1656 H   0  0  0  0  0  0  0  0  0  0  0  0
    3.6370   -1.1311    1.8263 H   0  0  0  0  0  0  0  0  0  0  0  0
    2.3140   -2.1068    1.1283 H   0  0  0  0  0  0  0  0  0  0  0  0
    3.9617    1.3111    0.6604 H   0  0  0  0  0  0  0  0  0  0  0  0
    2.4055    1.3976    1.4943 H   0  0  0  0  0  0  0  0  0  0  0  0
    1.2615    1.9902   -0.6437 H   0  0  0  0  0  0  0  0  0  0  0  0
    2.8119    2.0179   -1.4949 H   0  0  0  0  0  0  0  0  0  0  0  0
    3.6871    3.7262    0.1135 H   0  0  0  0  0  0  0  0  0  0  0  0
    2.0914    3.8284    0.8808 H   0  0  0  0  0  0  0  0  0  0  0  0
    0.3510    3.7936   -1.5212 H   0  0  0  0  0  0  0  0  0  0  0  0
    0.6045    5.4506   -2.0990 H   0  0  0  0  0  0  0  0  0  0  0  0
    0.3029    5.1506   -0.3598 H   0  0  0  0  0  0  0  0  0  0  0  0
    2.7881    6.2844    0.1400 H   0  0  0  0  0  0  0  0  0  0  0  0
    2.4328    6.6241   -1.5592 H   0  0  0  0  0  0  0  0  0  0  0  0
    4.7319    4.4710   -2.8745 H   0  0  0  0  0  0  0  0  0  0  0  0
    7.3573    5.2615   -2.5059 H   0  0  0  0  0  0  0  0  0  0  0  0
    7.2324    7.0408   -0.3944 H   0  0  0  0  0  0  0  0  0  0  0  0
    4.3522   -1.0311   -0.5994 H   0  0  0  0  0  0  0  0  0  0  0  0
    3.4111    0.0148   -1.6681 H   0  0  0  0  0  0  0  0  0  0  0  0
    4.5383   -2.9625   -2.0065 H   0  0  0  0  0  0  0  0  0  0  0  0
    3.4826   -4.8641   -3.2082 H   0  0  0  0  0  0  0  0  0  0  0  0
    0.9829   -4.9662   -3.4381 H   0  0  0  0  0  0  0  0  0  0  0  0
   -1.0294   -2.0412   -1.0444 H   0  0  0  0  0  0  0  0  0  0  0  0
    0.6902   -1.2458   -1.2511 H   0  0  0  0  0  0  0  0  0  0  0  0
  1  2  1  0
  1 24  1  0
  1 25  1  0
  1 26  1  0
  2  3  1  0
  2 14  1  0
  3  4  1  0
  3 27  1  0
  3 28  1  0
  4  5  1  0
  4 29  1  0
  4 30  1  0
  5  6  1  0
  5 31  1  0
  5 32  1  0
  6  7  1  0
  6  8  1  0
  7 33  1  0
  7 34  1  0
  7 35  1  0
  8  9  1  0
  8 36  1  0
  8 37  1  0
  9 10  2  0
  9 13  1  0
 10 11  1  0
 10 38  1  0
 11 12  2  0
 11 39  1  0
 12 13  1  0
 12 40  1  0
 14 15  1  0
 14 41  1  0
 14 42  1  0
 15 16  2  0
 15 23  1  0
 16 17  1  0
 16 43  1  0
 17 18  2  0
 17 44  1  0
 18 19  1  0
 18 45  1  0
 19 20  1  0
 19 23  2  0
 20 21  2  0
 20 22  1  0
 22 46  1  0
 23 47  1  0
M  END

