
     RDKit          3D

 35 36  0  0  0  0  0  0  0  0999 V2000
    4.3517   -0.6322   -1.3427 N   0  0  0  0  0  0  0  0  0  0  0  0
    3.1722   -0.2146   -0.5874 C   0  0  0  0  0  0  0  0  0  0  0  0
    3.0901   -0.9604    0.7612 C   0  0  1  0  0  0  0  0  0  0  0  0
    4.4035   -0.8925    1.4485 N   0  0  0  0  0  0  0  0  0  0  0  0
    4.9901    0.2829    2.4760 S   0  0  1  0  0  0  0  0  0  0  0  0
    4.0691    0.4318    3.6049 O   0  0  0  0  0  0  0  0  0  0  0  0
    6.3951   -0.0768    2.6652 O   0  0  0  0  0  0  0  0  0  0  0  0
    4.9865    1.8717    1.6074 C   0  0  0  0  0  0  0  0  0  0  0  0
    4.1207    2.8875    2.0158 C   0  0  0  0  0  0  0  0  0  0  0  0
    4.1387    4.1091    1.3422 C   0  0  0  0  0  0  0  0  0  0  0  0
    5.0143    4.3168    0.2695 C   0  0  0  0  0  0  0  0  0  0  0  0
    4.9906    5.8521   -0.5420 Cl  0  0  0  0  0  0  0  0  0  0  0  0
    5.8929    3.2884   -0.1244 C   0  0  0  0  0  0  0  0  0  0  0  0
    7.1037    3.5192   -1.5688 Br  0  0  0  0  0  0  0  0  0  0  0  0
    5.8847    2.0687    0.5554 C   0  0  0  0  0  0  0  0  0  0  0  0
    1.9162   -0.5026    1.6462 C   0  0  0  0  0  0  0  0  0  0  0  0
    1.6806   -1.6483    2.6546 C   0  0  0  0  0  0  0  0  0  0  0  0
    2.3070   -2.9149    2.0049 C   0  0  0  0  0  0  0  0  0  0  0  0
    2.7699   -2.4683    0.6058 C   0  0  0  0  0  0  0  0  0  0  0  0
    4.6020    0.0576   -2.0491 H   0  0  0  0  0  0  0  0  0  0  0  0
    4.1839   -1.5087   -1.8361 H   0  0  0  0  0  0  0  0  0  0  0  0
    2.2144   -0.3606   -1.1269 H   0  0  0  0  0  0  0  0  0  0  0  0
    3.2570    0.8653   -0.3897 H   0  0  0  0  0  0  0  0  0  0  0  0
    5.1476   -1.1402    0.7916 H   0  0  0  0  0  0  0  0  0  0  0  0
    3.4523    2.7203    2.8616 H   0  0  0  0  0  0  0  0  0  0  0  0
    3.4746    4.9208    1.6438 H   0  0  0  0  0  0  0  0  0  0  0  0
    6.5766    1.2782    0.2628 H   0  0  0  0  0  0  0  0  0  0  0  0
    1.0449   -0.3864    0.9800 H   0  0  0  0  0  0  0  0  0  0  0  0
    2.0853    0.4661    2.1326 H   0  0  0  0  0  0  0  0  0  0  0  0
    0.6081   -1.7744    2.8689 H   0  0  0  0  0  0  0  0  0  0  0  0
    2.1793   -1.4132    3.6045 H   0  0  0  0  0  0  0  0  0  0  0  0
    1.6046   -3.7607    1.9502 H   0  0  0  0  0  0  0  0  0  0  0  0
    3.1736   -3.2522    2.5919 H   0  0  0  0  0  0  0  0  0  0  0  0
    1.9511   -2.5708   -0.1280 H   0  0  0  0  0  0  0  0  0  0  0  0
    3.6279   -3.0467    0.2278 H   0  0  0  0  0  0  0  0  0  0  0  0
  1  2  1  0
  1 20  1  0
  1 21  1  0
  2  3  1  0
  2 22  1  0
  2 23  1  0
  3  4  1  1
  3 16  1  0
  3 19  1  0
  5  4  1  6
  4 24  1  0
  5  6  2  0
  5  7  2  0
  5  8  1  0
  8  9  2  0
  8 15  1  0
  9 10  1  0
  9 25  1  0
 10 11  2  0
 10 26  1  0
 11 12  1  0
 11 13  1  0
 13 14  1  0
 13 15  2  0
 15 27  1  0
 16 17  1  0
 16 28  1  0
 16 29  1  0
 17 18  1  0
 17 30  1  0
 17 31  1  0
 18 19  1  0
 18 32  1  0
 18 33  1  0
 19 34  1  0
 19 35  1  0
M  END

