
     RDKit          3D

 35 36  0  0  0  0  0  0  0  0999 V2000
    1.7922    0.2315    0.4383 C   0  0  0  0  0  0  0  0  0  0  0  0
    3.0828   -0.4232    0.9040 C   0  0  0  0  0  0  0  0  0  0  0  0
    3.4920   -1.4801    0.0223 O   0  0  0  0  0  0  0  0  0  0  0  0
    4.2409   -1.1448   -1.0584 C   0  0  0  0  0  0  0  0  0  0  0  0
    4.5837   -0.0073   -1.3058 O   0  0  0  0  0  0  0  0  0  0  0  0
    4.5685   -2.3240   -1.8580 C   0  0  0  0  0  0  0  0  0  0  0  0
    5.3540   -2.3550   -3.0812 C   0  0  0  0  0  0  0  0  0  0  0  0
    5.9829   -1.1776   -3.7583 C   0  0  0  0  0  0  0  0  0  0  0  0
    5.4105   -3.6625   -3.4961 C   0  0  0  0  0  0  0  0  0  0  0  0
    4.6948   -4.4442   -2.5857 N   0  0  0  0  0  0  0  0  0  0  0  0
    4.1873   -3.6311   -1.5957 C   0  0  0  0  0  0  0  0  0  0  0  0
    3.2682   -4.4922   -0.3903 S   0  0  0  0  0  0  0  0  0  0  0  0
    3.5791   -6.0913   -1.2735 C   0  0  0  0  0  0  0  0  0  0  0  0
    4.4189   -5.8049   -2.5019 C   0  0  0  0  0  0  0  0  0  0  0  0
    4.8526   -6.7174   -3.4043 C   0  0  0  0  0  0  0  0  0  0  0  0
    4.5385   -8.1558   -3.2810 C   0  0  0  0  0  0  0  0  0  0  0  0
    3.8683   -8.6203   -2.3606 O   0  0  0  0  0  0  0  0  0  0  0  0
    5.0552   -8.9410   -4.2795 N   0  0  0  0  0  0  0  0  0  0  0  0
    4.8563  -10.3720   -4.3332 C   0  0  0  0  0  0  0  0  0  0  0  0
    1.4627    0.9810    1.1761 H   0  0  0  0  0  0  0  0  0  0  0  0
    0.9914   -0.5157    0.3242 H   0  0  0  0  0  0  0  0  0  0  0  0
    1.9406    0.7418   -0.5249 H   0  0  0  0  0  0  0  0  0  0  0  0
    2.9529   -0.9081    1.8828 H   0  0  0  0  0  0  0  0  0  0  0  0
    3.8937    0.3169    0.9744 H   0  0  0  0  0  0  0  0  0  0  0  0
    6.6894   -0.6642   -3.0876 H   0  0  0  0  0  0  0  0  0  0  0  0
    5.2263   -0.4257   -4.0317 H   0  0  0  0  0  0  0  0  0  0  0  0
    6.5197   -1.4863   -4.6679 H   0  0  0  0  0  0  0  0  0  0  0  0
    5.8976   -4.1033   -4.3611 H   0  0  0  0  0  0  0  0  0  0  0  0
    2.6267   -6.5632   -1.5503 H   0  0  0  0  0  0  0  0  0  0  0  0
    4.0886   -6.7997   -0.6062 H   0  0  0  0  0  0  0  0  0  0  0  0
    5.4543   -6.3788   -4.2509 H   0  0  0  0  0  0  0  0  0  0  0  0
    5.5987   -8.4990   -5.0097 H   0  0  0  0  0  0  0  0  0  0  0  0
    4.2516  -10.6555   -3.4620 H   0  0  0  0  0  0  0  0  0  0  0  0
    5.8142  -10.9190   -4.2928 H   0  0  0  0  0  0  0  0  0  0  0  0
    4.3212  -10.6759   -5.2496 H   0  0  0  0  0  0  0  0  0  0  0  0
  1  2  1  0
  1 20  1  0
  1 21  1  0
  1 22  1  0
  2  3  1  0
  2 23  1  0
  2 24  1  0
  3  4  1  0
  4  5  2  0
  4  6  1  0
  6  7  1  0
  6 11  2  0
  7  8  1  0
  7  9  2  0
  8 25  1  0
  8 26  1  0
  8 27  1  0
  9 10  1  0
  9 28  1  0
 10 11  1  0
 10 14  1  0
 11 12  1  0
 12 13  1  0
 13 14  1  0
 13 29  1  0
 13 30  1  0
 14 15  2  0
 15 16  1  0
 15 31  1  0
 16 17  2  0
 16 18  1  0
 18 19  1  0
 18 32  1  0
 19 33  1  0
 19 34  1  0
 19 35  1  0
M  END

