
     RDKit          3D

 23 23  0  0  0  0  0  0  0  0999 V2000
    2.0278   -0.8455   -1.8596 C   0  0  0  0  0  0  0  0  0  0  0  0
    3.0110   -0.2154   -0.9158 C   0  0  0  0  0  0  0  0  0  0  0  0
    3.2491    1.0875   -0.7097 C   0  0  0  0  0  0  0  0  0  0  0  0
    2.5706    2.2645   -1.3785 C   0  0  1  0  0  0  0  0  0  0  0  0
    1.6455    3.0134   -0.4086 C   0  0  0  0  0  0  0  0  0  0  0  0
    3.5617    3.1668   -1.9808 N   0  0  0  0  0  0  0  0  0  0  0  0
    3.9232    3.1541   -3.3085 C   0  0  0  0  0  0  0  0  0  0  0  0
    4.9438    4.0669   -3.4970 C   0  0  0  0  0  0  0  0  0  0  0  0
    5.2196    4.6517   -2.2278 C   0  0  0  0  0  0  0  0  0  0  0  0
    4.3560    4.0739   -1.3151 C   0  0  0  0  0  0  0  0  0  0  0  0
    2.5398   -1.5379   -2.5501 H   0  0  0  0  0  0  0  0  0  0  0  0
    1.4723   -0.1151   -2.4654 H   0  0  0  0  0  0  0  0  0  0  0  0
    1.2890   -1.4517   -1.3063 H   0  0  0  0  0  0  0  0  0  0  0  0
    3.6030   -0.9257   -0.3249 H   0  0  0  0  0  0  0  0  0  0  0  0
    4.0117    1.3645    0.0280 H   0  0  0  0  0  0  0  0  0  0  0  0
    1.9579    1.9044   -2.2173 H   0  0  0  0  0  0  0  0  0  0  0  0
    2.1861    3.3524    0.4887 H   0  0  0  0  0  0  0  0  0  0  0  0
    0.8385    2.3448   -0.0735 H   0  0  0  0  0  0  0  0  0  0  0  0
    1.1981    3.8934   -0.8960 H   0  0  0  0  0  0  0  0  0  0  0  0
    3.4220    2.4938   -4.0137 H   0  0  0  0  0  0  0  0  0  0  0  0
    5.4302    4.2936   -4.4442 H   0  0  0  0  0  0  0  0  0  0  0  0
    5.9606    5.4176   -2.0050 H   0  0  0  0  0  0  0  0  0  0  0  0
    4.2465    4.2462   -0.2472 H   0  0  0  0  0  0  0  0  0  0  0  0
  1  2  1  0
  1 11  1  0
  1 12  1  0
  1 13  1  0
  2  3  2  0
  2 14  1  0
  3  4  1  0
  3 15  1  0
  4  5  1  0
  4  6  1  0
  4 16  1  6
  5 17  1  0
  5 18  1  0
  5 19  1  0
  6  7  1  0
  6 10  1  0
  7  8  2  0
  7 20  1  0
  8  9  1  0
  8 21  1  0
  9 10  2  0
  9 22  1  0
 10 23  1  0
M  END

