
     RDKit          3D

 34 34  0  0  0  0  0  0  0  0999 V2000
    6.1755    1.1664   -1.1826 C   0  0  0  0  0  0  0  0  0  0  0  0
    4.6921    1.5346   -1.1459 C   0  0  0  0  0  0  0  0  0  0  0  0
    4.2342    2.1716    0.1689 C   0  0  0  0  0  0  0  0  0  0  0  0
    4.3557    1.2582    1.2998 N   0  0  0  0  0  0  0  0  0  0  0  0
    4.8013    1.6330    2.5209 C   0  0  0  0  0  0  0  0  0  0  0  0
    5.2617    2.8212    2.8265 N   0  0  0  0  0  0  0  0  0  0  0  0
    5.6459    2.8420    4.1409 C   0  0  0  0  0  0  0  0  0  0  0  0
    6.2388    4.1070    4.7364 C   0  0  1  0  0  0  0  0  0  0  0  0
    7.4607    4.4343    4.0994 O   0  0  0  0  0  0  0  0  0  0  0  0
    8.5320    3.5685    4.3776 C   0  0  0  0  0  0  0  0  0  0  0  0
    5.2991    5.3200    4.6016 C   0  0  1  0  0  0  0  0  0  0  0  0
    3.9302    5.0435    5.2336 C   0  0  0  0  0  0  0  0  0  0  0  0
    5.9458    6.5762    5.1956 C   0  0  0  0  0  0  0  0  0  0  0  0
    5.5185    1.7680    4.8832 N   0  0  0  0  0  0  0  0  0  0  0  0
    4.8504    0.5478    3.9189 S   0  0  0  0  0  0  0  0  0  0  0  0
    6.4485    0.7073   -2.1456 H   0  0  0  0  0  0  0  0  0  0  0  0
    6.4314    0.4514   -0.3847 H   0  0  0  0  0  0  0  0  0  0  0  0
    6.8092    2.0573   -1.0422 H   0  0  0  0  0  0  0  0  0  0  0  0
    4.0745    0.6396   -1.3511 H   0  0  0  0  0  0  0  0  0  0  0  0
    4.4583    2.2452   -1.9573 H   0  0  0  0  0  0  0  0  0  0  0  0
    3.1879    2.5183    0.0719 H   0  0  0  0  0  0  0  0  0  0  0  0
    4.8426    3.0544    0.4111 H   0  0  0  0  0  0  0  0  0  0  0  0
    3.9382    0.3395    1.2106 H   0  0  0  0  0  0  0  0  0  0  0  0
    6.4149    3.8955    5.8102 H   0  0  0  0  0  0  0  0  0  0  0  0
    9.4167    3.9646    3.8574 H   0  0  0  0  0  0  0  0  0  0  0  0
    8.3484    2.5362    4.0232 H   0  0  0  0  0  0  0  0  0  0  0  0
    8.7511    3.5182    5.4630 H   0  0  0  0  0  0  0  0  0  0  0  0
    5.1613    5.4739    3.5172 H   0  0  0  0  0  0  0  0  0  0  0  0
    4.0239    4.8207    6.3103 H   0  0  0  0  0  0  0  0  0  0  0  0
    3.4173    4.1930    4.7591 H   0  0  0  0  0  0  0  0  0  0  0  0
    3.2757    5.9240    5.1331 H   0  0  0  0  0  0  0  0  0  0  0  0
    6.0963    6.4663    6.2839 H   0  0  0  0  0  0  0  0  0  0  0  0
    5.3036    7.4575    5.0361 H   0  0  0  0  0  0  0  0  0  0  0  0
    6.9241    6.7705    4.7354 H   0  0  0  0  0  0  0  0  0  0  0  0
  1  2  1  0
  1 16  1  0
  1 17  1  0
  1 18  1  0
  2  3  1  0
  2 19  1  0
  2 20  1  0
  3  4  1  0
  3 21  1  0
  3 22  1  0
  4  5  1  0
  4 23  1  0
  5  6  2  0
  5 15  1  0
  6  7  1  0
  7  8  1  0
  7 14  2  0
  8  9  1  0
  8 11  1  0
  8 24  1  1
  9 10  1  0
 10 25  1  0
 10 26  1  0
 10 27  1  0
 11 12  1  0
 11 13  1  0
 11 28  1  6
 12 29  1  0
 12 30  1  0
 12 31  1  0
 13 32  1  0
 13 33  1  0
 13 34  1  0
 14 15  1  0
M  END

