
     RDKit          3D

 45 48  0  0  0  0  0  0  0  0999 V2000
    5.1271    5.2265   -6.2646 C   0  0  0  0  0  0  0  0  0  0  0  0
    5.2892    4.1707   -5.2039 C   0  0  0  0  0  0  0  0  0  0  0  0
    4.5555    4.1734   -4.0113 C   0  0  0  0  0  0  0  0  0  0  0  0
    4.7409    3.1645   -3.0595 C   0  0  0  0  0  0  0  0  0  0  0  0
    3.8086    3.2123   -1.5254 S   0  0  1  0  0  0  0  0  0  0  0  0
    2.5906    3.9810   -1.7781 O   0  0  0  0  0  0  0  0  0  0  0  0
    3.7925    1.8596   -0.9715 O   0  0  0  0  0  0  0  0  0  0  0  0
    4.7330    4.0974   -0.4144 N   0  0  0  0  0  0  0  0  0  0  0  0
    5.0420    5.4774   -0.5588 C   0  0  0  0  0  0  0  0  0  0  0  0
    6.3863    5.8876   -0.6091 C   0  0  0  0  0  0  0  0  0  0  0  0
    6.7331    7.2450   -0.6884 C   0  0  0  0  0  0  0  0  0  0  0  0
    5.6729    8.1444   -0.7475 C   0  0  0  0  0  0  0  0  0  0  0  0
    4.3229    7.7716   -0.7029 C   0  0  0  0  0  0  0  0  0  0  0  0
    3.9951    6.4276   -0.5956 C   0  0  0  0  0  0  0  0  0  0  0  0
    3.4968    9.0408   -0.7449 C   0  0  2  0  0  0  0  0  0  0  0  0
    2.9939    9.1973    0.2276 H   0  0  0  0  0  0  0  0  0  0  0  0
    2.4483    9.1461   -1.8580 C   0  0  0  0  0  0  0  0  0  0  0  0
    4.5712   10.1536   -0.8589 C   0  0  0  0  0  0  0  0  0  0  0  0
    4.3870   11.3467   -0.9630 O   0  0  0  0  0  0  0  0  0  0  0  0
    5.8076    9.5298   -0.8310 N   0  0  0  0  0  0  0  0  0  0  0  0
    7.1162   10.1531   -0.9310 C   0  0  0  0  0  0  0  0  0  0  0  0
    8.1604    9.2712   -0.2285 C   0  0  0  0  0  0  0  0  0  0  0  0
    8.1376    7.8114   -0.7280 C   0  0  0  0  0  0  0  0  0  0  0  0
    5.6437    2.1183   -3.2721 C   0  0  0  0  0  0  0  0  0  0  0  0
    6.3828    2.0986   -4.4551 C   0  0  0  0  0  0  0  0  0  0  0  0
    6.1971    3.1173   -5.3867 C   0  0  0  0  0  0  0  0  0  0  0  0
    6.9119    3.0887   -6.5213 F   0  0  0  0  0  0  0  0  0  0  0  0
    4.3720    5.9683   -5.9701 H   0  0  0  0  0  0  0  0  0  0  0  0
    4.8196    4.7819   -7.2250 H   0  0  0  0  0  0  0  0  0  0  0  0
    6.0771    5.7539   -6.4499 H   0  0  0  0  0  0  0  0  0  0  0  0
    3.8178    4.9562   -3.8263 H   0  0  0  0  0  0  0  0  0  0  0  0
    5.4704    3.5089   -0.0336 H   0  0  0  0  0  0  0  0  0  0  0  0
    7.1760    5.1307   -0.5757 H   0  0  0  0  0  0  0  0  0  0  0  0
    2.9630    6.0818   -0.5366 H   0  0  0  0  0  0  0  0  0  0  0  0
    1.6494    8.4021   -1.7184 H   0  0  0  0  0  0  0  0  0  0  0  0
    2.9033    8.9782   -2.8469 H   0  0  0  0  0  0  0  0  0  0  0  0
    1.9997   10.1507   -1.8515 H   0  0  0  0  0  0  0  0  0  0  0  0
    7.0569   11.1556   -0.4818 H   0  0  0  0  0  0  0  0  0  0  0  0
    7.3858   10.2916   -1.9952 H   0  0  0  0  0  0  0  0  0  0  0  0
    7.9659    9.2859    0.8575 H   0  0  0  0  0  0  0  0  0  0  0  0
    9.1587    9.7098   -0.3812 H   0  0  0  0  0  0  0  0  0  0  0  0
    8.8201    7.1943   -0.1217 H   0  0  0  0  0  0  0  0  0  0  0  0
    8.5271    7.7707   -1.7626 H   0  0  0  0  0  0  0  0  0  0  0  0
    5.7452    1.3243   -2.5304 H   0  0  0  0  0  0  0  0  0  0  0  0
    7.0945    1.3004   -4.6743 H   0  0  0  0  0  0  0  0  0  0  0  0
  1  2  1  0
  1 28  1  0
  1 29  1  0
  1 30  1  0
  2  3  2  0
  2 26  1  0
  3  4  1  0
  3 31  1  0
  4  5  1  0
  4 24  2  0
  5  6  2  0
  5  7  2  0
  5  8  1  1
  8  9  1  0
  8 32  1  0
  9 10  2  0
  9 14  1  0
 10 11  1  0
 10 33  1  0
 11 12  2  0
 11 23  1  0
 12 13  1  0
 12 20  1  0
 13 14  2  0
 13 15  1  0
 14 34  1  0
 15 16  1  1
 15 17  1  0
 15 18  1  0
 17 35  1  0
 17 36  1  0
 17 37  1  0
 18 19  2  0
 18 20  1  0
 20 21  1  0
 21 22  1  0
 21 38  1  0
 21 39  1  0
 22 23  1  0
 22 40  1  0
 22 41  1  0
 23 42  1  0
 23 43  1  0
 24 25  1  0
 24 44  1  0
 25 26  2  0
 25 45  1  0
 26 27  1  0
M  END

