
     RDKit          3D

 37 37  0  0  0  0  0  0  0  0999 V2000
    5.9417   -2.0217    4.2239 C   0  0  0  0  0  0  0  0  0  0  0  0
    6.1862   -1.7529    2.8684 O   0  0  0  0  0  0  0  0  0  0  0  0
    5.0310   -1.4504    2.1200 C   0  0  0  0  0  0  0  0  0  0  0  0
    5.4470   -1.2601    0.6705 C   0  0  0  0  0  0  0  0  0  0  0  0
    6.0857   -2.4469    0.1439 N   0  0  0  0  0  0  0  0  0  0  0  0
    5.6645   -3.0880   -0.9780 C   0  0  0  0  0  0  0  0  0  0  0  0
    4.7445   -2.7001   -1.6808 O   0  0  0  0  0  0  0  0  0  0  0  0
    6.4154   -4.4030   -1.2960 C   0  0  1  0  0  0  0  0  0  0  0  0
    6.4196   -4.6766   -2.8031 C   0  0  0  0  0  0  0  0  0  0  0  0
    7.7350   -4.4187   -0.6792 N   0  0  0  0  0  0  0  0  0  0  0  0
    8.4405   -5.5900   -0.3824 C   0  0  0  0  0  0  0  0  0  0  0  0
    9.8338   -5.5070   -0.1666 C   0  0  0  0  0  0  0  0  0  0  0  0
   10.5617   -6.6394    0.1825 C   0  0  0  0  0  0  0  0  0  0  0  0
    9.9321   -7.8815    0.3248 C   0  0  0  0  0  0  0  0  0  0  0  0
    8.5525   -7.9907    0.1103 C   0  0  0  0  0  0  0  0  0  0  0  0
    7.8418   -9.3160    0.2541 C   0  0  0  0  0  0  0  0  0  0  0  0
    7.8215   -6.8454   -0.2461 C   0  0  0  0  0  0  0  0  0  0  0  0
    6.9057   -2.2486    4.7020 H   0  0  0  0  0  0  0  0  0  0  0  0
    5.2667   -2.8909    4.3595 H   0  0  0  0  0  0  0  0  0  0  0  0
    5.4866   -1.1536    4.7425 H   0  0  0  0  0  0  0  0  0  0  0  0
    4.5452   -0.5256    2.4965 H   0  0  0  0  0  0  0  0  0  0  0  0
    4.2887   -2.2720    2.1992 H   0  0  0  0  0  0  0  0  0  0  0  0
    6.1310   -0.3942    0.6092 H   0  0  0  0  0  0  0  0  0  0  0  0
    4.5715   -1.0463    0.0408 H   0  0  0  0  0  0  0  0  0  0  0  0
    6.8284   -2.8770    0.6866 H   0  0  0  0  0  0  0  0  0  0  0  0
    5.8107   -5.1800   -0.7985 H   0  0  0  0  0  0  0  0  0  0  0  0
    7.0202   -3.9193   -3.3333 H   0  0  0  0  0  0  0  0  0  0  0  0
    5.3966   -4.6279   -3.1995 H   0  0  0  0  0  0  0  0  0  0  0  0
    6.8469   -5.6685   -3.0132 H   0  0  0  0  0  0  0  0  0  0  0  0
    8.3380   -3.6749   -1.0199 H   0  0  0  0  0  0  0  0  0  0  0  0
   10.3366   -4.5407   -0.2706 H   0  0  0  0  0  0  0  0  0  0  0  0
   11.6396   -6.5541    0.3450 H   0  0  0  0  0  0  0  0  0  0  0  0
   10.5144   -8.7651    0.5976 H   0  0  0  0  0  0  0  0  0  0  0  0
    8.5462  -10.1303    0.4786 H   0  0  0  0  0  0  0  0  0  0  0  0
    7.2995   -9.5833   -0.6683 H   0  0  0  0  0  0  0  0  0  0  0  0
    7.0958   -9.2840    1.0664 H   0  0  0  0  0  0  0  0  0  0  0  0
    6.7482   -6.9480   -0.4179 H   0  0  0  0  0  0  0  0  0  0  0  0
  1  2  1  0
  1 18  1  0
  1 19  1  0
  1 20  1  0
  2  3  1  0
  3  4  1  0
  3 21  1  0
  3 22  1  0
  4  5  1  0
  4 23  1  0
  4 24  1  0
  5  6  1  0
  5 25  1  0
  6  7  2  0
  6  8  1  0
  8  9  1  0
  8 10  1  0
  8 26  1  1
  9 27  1  0
  9 28  1  0
  9 29  1  0
 10 11  1  0
 10 30  1  0
 11 12  2  0
 11 17  1  0
 12 13  1  0
 12 31  1  0
 13 14  2  0
 13 32  1  0
 14 15  1  0
 14 33  1  0
 15 16  1  0
 15 17  2  0
 16 34  1  0
 16 35  1  0
 16 36  1  0
 17 37  1  0
M  END

