
     RDKit          3D

 51 52  0  0  0  0  0  0  0  0999 V2000
    1.5322   -6.3537   -1.5713 C   0  0  0  0  0  0  0  0  0  0  0  0
    1.6231   -5.1692   -0.8164 O   0  0  0  0  0  0  0  0  0  0  0  0
    0.6803   -4.1939   -0.9704 C   0  0  0  0  0  0  0  0  0  0  0  0
   -0.3797   -4.2842   -1.8799 C   0  0  0  0  0  0  0  0  0  0  0  0
   -1.3129   -3.2394   -2.0092 C   0  0  0  0  0  0  0  0  0  0  0  0
   -2.4485   -3.3588   -2.9974 C   0  0  0  0  0  0  0  0  0  0  0  0
   -1.1571   -2.1082   -1.2044 C   0  0  0  0  0  0  0  0  0  0  0  0
   -0.0977   -2.0275   -0.2907 C   0  0  0  0  0  0  0  0  0  0  0  0
    0.8367   -3.0531   -0.1469 C   0  0  0  0  0  0  0  0  0  0  0  0
    2.0214   -2.9558    0.8249 C   0  0  1  0  0  0  0  0  0  0  0  0
    3.2703   -2.4343    0.0971 C   0  0  0  0  0  0  0  0  0  0  0  0
    1.7982   -2.1525    2.0183 N   0  0  0  0  0  0  0  0  0  0  0  0
    0.7927   -2.5910    2.9765 C   0  0  1  0  0  0  0  0  0  0  0  0
    1.2442   -3.8375    3.7426 C   0  0  0  0  0  0  0  0  0  0  0  0
    0.5388   -1.4317    3.9582 C   0  0  0  0  0  0  0  0  0  0  0  0
    0.1083   -0.2042    3.2920 N   0  0  0  0  0  0  0  0  0  0  0  0
   -1.3232   -0.1357    2.9877 C   0  0  0  0  0  0  0  0  0  0  0  0
   -2.1937    0.2588    4.1945 C   0  0  0  0  0  0  0  0  0  0  0  0
   -1.6959    1.5684    4.8218 C   0  0  0  0  0  0  0  0  0  0  0  0
   -0.1947    1.4864    5.1311 C   0  0  0  0  0  0  0  0  0  0  0  0
    0.5871    1.0458    3.8818 C   0  0  0  0  0  0  0  0  0  0  0  0
    2.3800   -6.9840   -1.2699 H   0  0  0  0  0  0  0  0  0  0  0  0
    1.6019   -6.1581   -2.6569 H   0  0  0  0  0  0  0  0  0  0  0  0
    0.5923   -6.8999   -1.3715 H   0  0  0  0  0  0  0  0  0  0  0  0
   -0.4932   -5.1700   -2.5068 H   0  0  0  0  0  0  0  0  0  0  0  0
   -3.0951   -4.2223   -2.7657 H   0  0  0  0  0  0  0  0  0  0  0  0
   -2.0747   -3.5053   -4.0250 H   0  0  0  0  0  0  0  0  0  0  0  0
   -3.0800   -2.4581   -2.9959 H   0  0  0  0  0  0  0  0  0  0  0  0
   -1.8679   -1.2814   -1.2847 H   0  0  0  0  0  0  0  0  0  0  0  0
   -0.0036   -1.1383    0.3382 H   0  0  0  0  0  0  0  0  0  0  0  0
    2.2466   -3.9828    1.1498 H   0  0  0  0  0  0  0  0  0  0  0  0
    3.1090   -1.4032   -0.2605 H   0  0  0  0  0  0  0  0  0  0  0  0
    3.5079   -3.0620   -0.7744 H   0  0  0  0  0  0  0  0  0  0  0  0
    4.1307   -2.4297    0.7837 H   0  0  0  0  0  0  0  0  0  0  0  0
    1.6067   -1.1781    1.7828 H   0  0  0  0  0  0  0  0  0  0  0  0
   -0.1733   -2.8375    2.4805 H   0  0  0  0  0  0  0  0  0  0  0  0
    2.2021   -3.6483    4.2542 H   0  0  0  0  0  0  0  0  0  0  0  0
    1.3846   -4.6982    3.0713 H   0  0  0  0  0  0  0  0  0  0  0  0
    0.4929   -4.1286    4.4949 H   0  0  0  0  0  0  0  0  0  0  0  0
    1.4911   -1.2237    4.4728 H   0  0  0  0  0  0  0  0  0  0  0  0
   -0.1742   -1.7778    4.7350 H   0  0  0  0  0  0  0  0  0  0  0  0
   -1.6485   -1.1014    2.5711 H   0  0  0  0  0  0  0  0  0  0  0  0
   -1.4670    0.6129    2.1857 H   0  0  0  0  0  0  0  0  0  0  0  0
   -2.1666   -0.5461    4.9509 H   0  0  0  0  0  0  0  0  0  0  0  0
   -3.2467    0.3508    3.8779 H   0  0  0  0  0  0  0  0  0  0  0  0
   -2.2716    1.8099    5.7311 H   0  0  0  0  0  0  0  0  0  0  0  0
   -1.8724    2.3993    4.1125 H   0  0  0  0  0  0  0  0  0  0  0  0
   -0.0213    0.7631    5.9486 H   0  0  0  0  0  0  0  0  0  0  0  0
    0.1856    2.4595    5.4872 H   0  0  0  0  0  0  0  0  0  0  0  0
    1.6609    0.9430    4.1053 H   0  0  0  0  0  0  0  0  0  0  0  0
    0.5002    1.8380    3.1135 H   0  0  0  0  0  0  0  0  0  0  0  0
  1  2  1  0
  1 22  1  0
  1 23  1  0
  1 24  1  0
  2  3  1  0
  3  4  2  0
  3  9  1  0
  4  5  1  0
  4 25  1  0
  5  6  1  0
  5  7  2  0
  6 26  1  0
  6 27  1  0
  6 28  1  0
  7  8  1  0
  7 29  1  0
  8  9  2  0
  8 30  1  0
  9 10  1  0
 10 11  1  0
 10 12  1  0
 10 31  1  1
 11 32  1  0
 11 33  1  0
 11 34  1  0
 12 13  1  0
 12 35  1  0
 13 14  1  0
 13 15  1  0
 13 36  1  6
 14 37  1  0
 14 38  1  0
 14 39  1  0
 15 16  1  0
 15 40  1  0
 15 41  1  0
 16 17  1  0
 16 21  1  0
 17 18  1  0
 17 42  1  0
 17 43  1  0
 18 19  1  0
 18 44  1  0
 18 45  1  0
 19 20  1  0
 19 46  1  0
 19 47  1  0
 20 21  1  0
 20 48  1  0
 20 49  1  0
 21 50  1  0
 21 51  1  0
M  END

