
     RDKit          3D

 41 42  0  0  0  0  0  0  0  0999 V2000
    1.5713   -0.4215    1.1190 C   0  0  0  0  0  0  0  0  0  0  0  0
    2.4342    0.0301    0.1058 O   0  0  0  0  0  0  0  0  0  0  0  0
    2.8842   -0.8473   -0.8337 C   0  0  0  0  0  0  0  0  0  0  0  0
    3.7227   -0.3213   -1.8249 C   0  0  0  0  0  0  0  0  0  0  0  0
    4.2430   -1.1539   -2.8135 C   0  0  0  0  0  0  0  0  0  0  0  0
    3.9335   -2.5194   -2.8387 C   0  0  0  0  0  0  0  0  0  0  0  0
    4.4833   -3.4321   -3.7699 N   0  0  0  0  0  0  0  0  0  0  0  0
    5.0478   -3.1634   -4.9954 C   0  0  0  0  0  0  0  0  0  0  0  0
    5.6072   -4.3867   -5.7096 C   0  0  0  0  0  0  0  0  0  0  0  0
    5.1183   -2.0496   -5.4826 O   0  0  0  0  0  0  0  0  0  0  0  0
    3.0450   -3.0496   -1.8674 C   0  0  0  0  0  0  0  0  0  0  0  0
    2.7378   -4.4086   -1.9319 N   0  0  0  0  0  0  0  0  0  0  0  0
    1.8400   -5.0389   -1.0008 C   0  0  0  0  0  0  0  0  0  0  0  0
    1.5606   -6.4359   -1.4819 C   0  0  0  0  0  0  0  0  0  0  0  0
    1.7812   -6.8461   -2.7090 N   0  0  0  0  0  0  0  0  0  0  0  0
    1.3543   -8.1512   -2.7632 C   0  0  0  0  0  0  0  0  0  0  0  0
    0.8646   -8.5397   -1.5427 C   0  0  0  0  0  0  0  0  0  0  0  0
    1.0043   -7.4341   -0.7145 N   0  0  0  0  0  0  0  0  0  0  0  0
    0.5932   -7.3595    0.6654 C   0  0  0  0  0  0  0  0  0  0  0  0
   -0.8724   -6.9726    0.8399 C   0  0  1  0  0  0  0  0  0  0  0  0
   -1.1318   -5.7707    0.3019 F   0  0  0  0  0  0  0  0  0  0  0  0
   -1.6895   -7.8644    0.2652 F   0  0  0  0  0  0  0  0  0  0  0  0
   -1.1697   -6.9153    2.1464 F   0  0  0  0  0  0  0  0  0  0  0  0
    2.5445   -2.2087   -0.8562 C   0  0  0  0  0  0  0  0  0  0  0  0
    1.3423    0.4485    1.7498 H   0  0  0  0  0  0  0  0  0  0  0  0
    2.0406   -1.2008    1.7484 H   0  0  0  0  0  0  0  0  0  0  0  0
    0.6243   -0.8217    0.7111 H   0  0  0  0  0  0  0  0  0  0  0  0
    3.9624    0.7428   -1.8003 H   0  0  0  0  0  0  0  0  0  0  0  0
    4.8941   -0.7531   -3.5878 H   0  0  0  0  0  0  0  0  0  0  0  0
    4.5419   -4.3898   -3.4395 H   0  0  0  0  0  0  0  0  0  0  0  0
    5.2927   -5.3445   -5.2690 H   0  0  0  0  0  0  0  0  0  0  0  0
    6.7078   -4.3342   -5.6997 H   0  0  0  0  0  0  0  0  0  0  0  0
    5.2901   -4.3479   -6.7615 H   0  0  0  0  0  0  0  0  0  0  0  0
    2.6306   -4.7969   -2.8682 H   0  0  0  0  0  0  0  0  0  0  0  0
    0.8756   -4.4964   -0.8916 H   0  0  0  0  0  0  0  0  0  0  0  0
    2.2889   -5.0604    0.0115 H   0  0  0  0  0  0  0  0  0  0  0  0
    1.4246   -8.7421   -3.6752 H   0  0  0  0  0  0  0  0  0  0  0  0
    0.4391   -9.4735   -1.1845 H   0  0  0  0  0  0  0  0  0  0  0  0
    1.2000   -6.6186    1.2045 H   0  0  0  0  0  0  0  0  0  0  0  0
    0.7408   -8.3331    1.1551 H   0  0  0  0  0  0  0  0  0  0  0  0
    1.8717   -2.6185   -0.1061 H   0  0  0  0  0  0  0  0  0  0  0  0
  1  2  1  0
  1 25  1  0
  1 26  1  0
  1 27  1  0
  2  3  1  0
  3  4  2  0
  3 24  1  0
  4  5  1  0
  4 28  1  0
  5  6  2  0
  5 29  1  0
  6  7  1  0
  6 11  1  0
  7  8  1  0
  7 30  1  0
  8  9  1  0
  8 10  2  0
  9 31  1  0
  9 32  1  0
  9 33  1  0
 11 12  1  0
 11 24  2  0
 12 13  1  0
 12 34  1  0
 13 14  1  0
 13 35  1  0
 13 36  1  0
 14 15  2  0
 14 18  1  0
 15 16  1  0
 16 17  2  0
 16 37  1  0
 17 18  1  0
 17 38  1  0
 18 19  1  0
 19 20  1  0
 19 39  1  0
 19 40  1  0
 20 21  1  6
 20 22  1  0
 20 23  1  0
 24 41  1  0
M  END

