
     RDKit          3D

 38 40  0  0  0  0  0  0  0  0999 V2000
    1.2509   -0.4125   -1.3710 C   0  0  0  0  0  0  0  0  0  0  0  0
    2.2151    0.5000   -1.2210 C   0  0  0  0  0  0  0  0  0  0  0  0
    3.3040    0.4399   -0.1820 C   0  0  0  0  0  0  0  0  0  0  0  0
    4.6372    0.4432   -0.7607 N   0  0  0  0  0  0  0  0  0  0  0  0
    5.4520    1.5594   -0.6775 C   0  0  0  0  0  0  0  0  0  0  0  0
    5.1440    2.5598   -0.0417 O   0  0  0  0  0  0  0  0  0  0  0  0
    6.6501    1.4660   -1.3472 N   0  0  0  0  0  0  0  0  0  0  0  0
    7.5899    2.5887   -1.3264 C   0  0  0  0  0  0  0  0  0  0  0  0
    8.6527    2.1692   -2.3448 C   0  0  0  0  0  0  0  0  0  0  0  0
    8.6823    0.6301   -2.2185 C   0  0  2  0  0  0  0  0  0  0  0  0
    9.3815   -0.1295   -3.3292 C   0  0  0  0  0  0  0  0  0  0  0  0
    8.9724   -0.0076   -4.6664 C   0  0  0  0  0  0  0  0  0  0  0  0
    9.6085   -0.7015   -5.7137 C   0  0  0  0  0  0  0  0  0  0  0  0
   10.6714   -1.5186   -5.3727 C   0  0  0  0  0  0  0  0  0  0  0  0
   11.0906   -1.6510   -4.0476 C   0  0  0  0  0  0  0  0  0  0  0  0
   10.4693   -0.9769   -3.0118 C   0  0  0  0  0  0  0  0  0  0  0  0
   12.1344   -2.5329   -3.9899 O   0  0  0  0  0  0  0  0  0  0  0  0
   12.4785   -2.8277   -5.3413 C   0  0  0  0  0  0  0  0  0  0  0  0
   11.4427   -2.3148   -6.1743 O   0  0  0  0  0  0  0  0  0  0  0  0
    7.1856    0.2914   -2.0239 C   0  0  0  0  0  0  0  0  0  0  0  0
    0.4785   -0.3129   -2.1387 H   0  0  0  0  0  0  0  0  0  0  0  0
    1.1911   -1.2925   -0.7206 H   0  0  0  0  0  0  0  0  0  0  0  0
    2.2515    1.3705   -1.8883 H   0  0  0  0  0  0  0  0  0  0  0  0
    3.1654   -0.4496    0.4580 H   0  0  0  0  0  0  0  0  0  0  0  0
    3.2603    1.3302    0.4645 H   0  0  0  0  0  0  0  0  0  0  0  0
    4.8454   -0.2742   -1.4436 H   0  0  0  0  0  0  0  0  0  0  0  0
    8.0194    2.7237   -0.3163 H   0  0  0  0  0  0  0  0  0  0  0  0
    7.0801    3.5293   -1.5825 H   0  0  0  0  0  0  0  0  0  0  0  0
    9.6352    2.6260   -2.1554 H   0  0  0  0  0  0  0  0  0  0  0  0
    8.3428    2.4573   -3.3628 H   0  0  0  0  0  0  0  0  0  0  0  0
    9.1932    0.3895   -1.2711 H   0  0  0  0  0  0  0  0  0  0  0  0
    8.1351    0.6484   -4.9168 H   0  0  0  0  0  0  0  0  0  0  0  0
    9.2806   -0.6021   -6.7496 H   0  0  0  0  0  0  0  0  0  0  0  0
   10.8124   -1.0990   -1.9827 H   0  0  0  0  0  0  0  0  0  0  0  0
   12.5585   -3.9189   -5.4753 H   0  0  0  0  0  0  0  0  0  0  0  0
   13.4397   -2.3383   -5.5964 H   0  0  0  0  0  0  0  0  0  0  0  0
    7.0560   -0.6243   -1.4212 H   0  0  0  0  0  0  0  0  0  0  0  0
    6.6958    0.1161   -3.0024 H   0  0  0  0  0  0  0  0  0  0  0  0
  1  2  2  0
  1 21  1  0
  1 22  1  0
  2  3  1  0
  2 23  1  0
  3  4  1  0
  3 24  1  0
  3 25  1  0
  4  5  1  0
  4 26  1  0
  5  6  2  0
  5  7  1  0
  7  8  1  0
  7 20  1  0
  8  9  1  0
  8 27  1  0
  8 28  1  0
  9 10  1  0
  9 29  1  0
  9 30  1  0
 10 11  1  0
 10 20  1  0
 10 31  1  1
 11 12  2  0
 11 16  1  0
 12 13  1  0
 12 32  1  0
 13 14  2  0
 13 33  1  0
 14 15  1  0
 14 19  1  0
 15 16  2  0
 15 17  1  0
 16 34  1  0
 17 18  1  0
 18 19  1  0
 18 35  1  0
 18 36  1  0
 20 37  1  0
 20 38  1  0
M  END

