
     RDKit          3D

 44 45  0  0  0  0  0  0  0  0999 V2000
    1.6312   -0.4596    0.8276 C   0  0  0  0  0  0  0  0  0  0  0  0
    3.0343   -0.2983    0.2217 C   0  0  1  0  0  0  0  0  0  0  0  0
    3.5141   -1.5655   -0.5168 C   0  0  0  0  0  0  0  0  0  0  0  0
    2.8130   -1.7698   -1.8673 C   0  0  0  0  0  0  0  0  0  0  0  0
    2.9457   -0.5320   -2.7629 C   0  0  0  0  0  0  0  0  0  0  0  0
    2.4432    0.7318   -2.0651 C   0  0  2  0  0  0  0  0  0  0  0  0
    2.6778    1.8241   -2.9437 O   0  0  0  0  0  0  0  0  0  0  0  0
    1.8972    2.9742   -2.7162 C   0  0  0  0  0  0  0  0  0  0  0  0
    2.3037    4.0235   -3.7411 C   0  0  0  0  0  0  0  0  0  0  0  0
    1.5823    5.3508   -3.5245 C   0  0  0  0  0  0  0  0  0  0  0  0
    1.1877    5.6983   -2.4248 O   0  0  0  0  0  0  0  0  0  0  0  0
    1.4517    6.1067   -4.6667 N   0  0  0  0  0  0  0  0  0  0  0  0
    0.9094    7.3997   -4.8260 C   0  0  0  0  0  0  0  0  0  0  0  0
    0.3760    8.1448   -3.7619 C   0  0  0  0  0  0  0  0  0  0  0  0
   -0.1387    9.4193   -4.0248 C   0  0  0  0  0  0  0  0  0  0  0  0
   -0.1200    9.9365   -5.3079 C   0  0  0  0  0  0  0  0  0  0  0  0
   -0.6312   11.1642   -5.5627 F   0  0  0  0  0  0  0  0  0  0  0  0
    0.4087    9.2168   -6.3962 C   0  0  0  0  0  0  0  0  0  0  0  0
    0.4512    9.7979   -7.6524 N   0  0  0  0  0  0  0  0  0  0  0  0
    0.9202    7.9391   -6.1259 C   0  0  0  0  0  0  0  0  0  0  0  0
    3.1464    0.9266   -0.7120 C   0  0  0  0  0  0  0  0  0  0  0  0
    1.6072   -1.2984    1.5424 H   0  0  0  0  0  0  0  0  0  0  0  0
    0.8581   -0.6564    0.0679 H   0  0  0  0  0  0  0  0  0  0  0  0
    1.3301    0.4502    1.3720 H   0  0  0  0  0  0  0  0  0  0  0  0
    3.7252   -0.1253    1.0657 H   0  0  0  0  0  0  0  0  0  0  0  0
    3.3749   -2.4520    0.1254 H   0  0  0  0  0  0  0  0  0  0  0  0
    4.6014   -1.4789   -0.6942 H   0  0  0  0  0  0  0  0  0  0  0  0
    1.7437   -1.9959   -1.7065 H   0  0  0  0  0  0  0  0  0  0  0  0
    3.2329   -2.6508   -2.3805 H   0  0  0  0  0  0  0  0  0  0  0  0
    2.3994   -0.6635   -3.7111 H   0  0  0  0  0  0  0  0  0  0  0  0
    4.0056   -0.3695   -3.0291 H   0  0  0  0  0  0  0  0  0  0  0  0
    1.3498    0.6357   -1.9006 H   0  0  0  0  0  0  0  0  0  0  0  0
    2.0411    3.3894   -1.7031 H   0  0  0  0  0  0  0  0  0  0  0  0
    0.8164    2.7413   -2.8144 H   0  0  0  0  0  0  0  0  0  0  0  0
    2.1407    3.6340   -4.7598 H   0  0  0  0  0  0  0  0  0  0  0  0
    3.3899    4.2014   -3.6454 H   0  0  0  0  0  0  0  0  0  0  0  0
    1.8163    5.6885   -5.5141 H   0  0  0  0  0  0  0  0  0  0  0  0
    0.3657    7.7272   -2.7593 H   0  0  0  0  0  0  0  0  0  0  0  0
   -0.5669   10.0249   -3.2231 H   0  0  0  0  0  0  0  0  0  0  0  0
   -0.1657   10.5911   -7.7839 H   0  0  0  0  0  0  0  0  0  0  0  0
    0.4827    9.1681   -8.4449 H   0  0  0  0  0  0  0  0  0  0  0  0
    1.3431    7.3589   -6.9520 H   0  0  0  0  0  0  0  0  0  0  0  0
    2.7540    1.8225   -0.2027 H   0  0  0  0  0  0  0  0  0  0  0  0
    4.2105    1.1269   -0.9287 H   0  0  0  0  0  0  0  0  0  0  0  0
  1  2  1  0
  1 22  1  0
  1 23  1  0
  1 24  1  0
  2  3  1  0
  2 21  1  0
  2 25  1  1
  3  4  1  0
  3 26  1  0
  3 27  1  0
  4  5  1  0
  4 28  1  0
  4 29  1  0
  5  6  1  0
  5 30  1  0
  5 31  1  0
  6  7  1  0
  6 21  1  0
  6 32  1  1
  7  8  1  0
  8  9  1  0
  8 33  1  0
  8 34  1  0
  9 10  1  0
  9 35  1  0
  9 36  1  0
 10 11  2  0
 10 12  1  0
 12 13  1  0
 12 37  1  0
 13 14  2  0
 13 20  1  0
 14 15  1  0
 14 38  1  0
 15 16  2  0
 15 39  1  0
 16 17  1  0
 16 18  1  0
 18 19  1  0
 18 20  2  0
 19 40  1  0
 19 41  1  0
 20 42  1  0
 21 43  1  0
 21 44  1  0
M  END

