
     RDKit          3D

 54 57  0  0  0  0  0  0  0  0999 V2000
    1.9509   -0.2918    0.8722 C   0  0  0  0  0  0  0  0  0  0  0  0
    3.2486   -0.6323    0.2087 C   0  0  0  0  0  0  0  0  0  0  0  0
    4.3371    0.1121    0.3763 N   0  0  0  0  0  0  0  0  0  0  0  0
    5.3079   -0.4853   -0.3451 N   0  0  0  0  0  0  0  0  0  0  0  0
    6.6308    0.1146   -0.3773 C   0  0  0  0  0  0  0  0  0  0  0  0
    6.8813    1.0304   -1.5654 C   0  0  0  0  0  0  0  0  0  0  0  0
    5.9240    1.9838   -1.9460 C   0  0  0  0  0  0  0  0  0  0  0  0
    6.1784    2.8330   -3.0248 C   0  0  0  0  0  0  0  0  0  0  0  0
    7.3841    2.7558   -3.7266 C   0  0  0  0  0  0  0  0  0  0  0  0
    8.3392    1.8095   -3.3444 C   0  0  0  0  0  0  0  0  0  0  0  0
    9.4755    1.7202   -4.1111 O   0  0  0  0  0  0  0  0  0  0  0  0
   10.7081    1.4613   -3.5612 C   0  0  0  0  0  0  0  0  0  0  0  0
   11.5789    0.6570   -4.3057 C   0  0  0  0  0  0  0  0  0  0  0  0
   12.8715    0.4166   -3.8348 C   0  0  0  0  0  0  0  0  0  0  0  0
   13.2980    0.9683   -2.6223 C   0  0  0  0  0  0  0  0  0  0  0  0
   12.4214    1.7721   -1.8864 C   0  0  0  0  0  0  0  0  0  0  0  0
   11.1279    2.0271   -2.3497 C   0  0  0  0  0  0  0  0  0  0  0  0
    8.0872    0.9425   -2.2717 C   0  0  0  0  0  0  0  0  0  0  0  0
    4.8703   -1.5974   -1.0094 C   0  0  0  0  0  0  0  0  0  0  0  0
    5.7289   -2.4383   -1.8953 C   0  0  0  0  0  0  0  0  0  0  0  0
    3.5298   -1.7270   -0.6548 C   0  0  0  0  0  0  0  0  0  0  0  0
    2.6251   -2.7353   -1.0333 N   0  0  0  0  0  0  0  0  0  0  0  0
    2.8641   -4.0780   -0.9833 C   0  0  0  0  0  0  0  0  0  0  0  0
    3.9194   -4.5984   -0.6636 O   0  0  0  0  0  0  0  0  0  0  0  0
    1.6625   -4.9389   -1.3915 C   0  0  1  0  0  0  0  0  0  0  0  0
    1.2855   -5.9823   -0.3231 C   0  0  0  0  0  0  0  0  0  0  0  0
   -0.2330   -6.0953   -0.5018 C   0  0  0  0  0  0  0  0  0  0  0  0
   -0.6090   -4.6561   -0.8546 C   0  0  0  0  0  0  0  0  0  0  0  0
    0.4860   -4.1567   -1.6248 O   0  0  0  0  0  0  0  0  0  0  0  0
    2.1013    0.5353    1.5797 H   0  0  0  0  0  0  0  0  0  0  0  0
    1.5430   -1.1550    1.4241 H   0  0  0  0  0  0  0  0  0  0  0  0
    1.1836    0.0215    0.1426 H   0  0  0  0  0  0  0  0  0  0  0  0
    7.3878   -0.6829   -0.3473 H   0  0  0  0  0  0  0  0  0  0  0  0
    6.7159    0.6836    0.5609 H   0  0  0  0  0  0  0  0  0  0  0  0
    4.9855    2.0514   -1.3917 H   0  0  0  0  0  0  0  0  0  0  0  0
    5.4307    3.5729   -3.3217 H   0  0  0  0  0  0  0  0  0  0  0  0
    7.6005    3.4117   -4.5720 H   0  0  0  0  0  0  0  0  0  0  0  0
   11.2260    0.2358   -5.2491 H   0  0  0  0  0  0  0  0  0  0  0  0
   13.5486   -0.2111   -4.4199 H   0  0  0  0  0  0  0  0  0  0  0  0
   14.3084    0.7757   -2.2542 H   0  0  0  0  0  0  0  0  0  0  0  0
   12.7480    2.2158   -0.9422 H   0  0  0  0  0  0  0  0  0  0  0  0
   10.4490    2.6650   -1.7808 H   0  0  0  0  0  0  0  0  0  0  0  0
    8.8353    0.1959   -1.9950 H   0  0  0  0  0  0  0  0  0  0  0  0
    6.5247   -1.8482   -2.3727 H   0  0  0  0  0  0  0  0  0  0  0  0
    5.1160   -2.8857   -2.6906 H   0  0  0  0  0  0  0  0  0  0  0  0
    6.1779   -3.2770   -1.3395 H   0  0  0  0  0  0  0  0  0  0  0  0
    1.6715   -2.4840   -1.2821 H   0  0  0  0  0  0  0  0  0  0  0  0
    1.9439   -5.4398   -2.3373 H   0  0  0  0  0  0  0  0  0  0  0  0
    1.5330   -5.6033    0.6816 H   0  0  0  0  0  0  0  0  0  0  0  0
    1.8263   -6.9281   -0.4594 H   0  0  0  0  0  0  0  0  0  0  0  0
   -0.7522   -6.4671    0.3942 H   0  0  0  0  0  0  0  0  0  0  0  0
   -0.4762   -6.7683   -1.3405 H   0  0  0  0  0  0  0  0  0  0  0  0
   -0.7425   -4.0449    0.0598 H   0  0  0  0  0  0  0  0  0  0  0  0
   -1.5266   -4.5706   -1.4578 H   0  0  0  0  0  0  0  0  0  0  0  0
  1  2  1  0
  1 30  1  0
  1 31  1  0
  1 32  1  0
  2  3  2  0
  2 21  1  0
  3  4  1  0
  4  5  1  0
  4 19  1  0
  5  6  1  0
  5 33  1  0
  5 34  1  0
  6  7  2  0
  6 18  1  0
  7  8  1  0
  7 35  1  0
  8  9  2  0
  8 36  1  0
  9 10  1  0
  9 37  1  0
 10 11  1  0
 10 18  2  0
 11 12  1  0
 12 13  2  0
 12 17  1  0
 13 14  1  0
 13 38  1  0
 14 15  2  0
 14 39  1  0
 15 16  1  0
 15 40  1  0
 16 17  2  0
 16 41  1  0
 17 42  1  0
 18 43  1  0
 19 20  1  0
 19 21  2  0
 20 44  1  0
 20 45  1  0
 20 46  1  0
 21 22  1  0
 22 23  1  0
 22 47  1  0
 23 24  2  0
 23 25  1  0
 25 26  1  0
 25 29  1  0
 25 48  1  6
 26 27  1  0
 26 49  1  0
 26 50  1  0
 27 28  1  0
 27 51  1  0
 27 52  1  0
 28 29  1  0
 28 53  1  0
 28 54  1  0
M  END

