
     RDKit          3D

 29 30  0  0  0  0  0  0  0  0999 V2000
    1.4817    0.5694   -0.4772 C   0  0  0  0  0  0  0  0  0  0  0  0
    2.9099    0.3649    0.0427 C   0  0  1  0  0  0  0  0  0  0  0  0
    3.5458    0.0381   -0.8083 H   0  0  0  0  0  0  0  0  0  0  0  0
    3.4283    1.5489    0.6142 O   0  0  0  0  0  0  0  0  0  0  0  0
    2.9923   -0.6917    1.1185 C   0  0  0  0  0  0  0  0  0  0  0  0
    3.3353   -0.5286    2.4257 C   0  0  0  0  0  0  0  0  0  0  0  0
    3.2900   -1.7505    3.1724 C   0  0  0  0  0  0  0  0  0  0  0  0
    3.6122   -1.7989    4.5849 N   0  0  0  0  0  0  0  0  0  0  0  0
    3.8836   -0.7334    5.1237 O   0  0  0  0  0  0  0  0  0  0  0  0
    3.5940   -2.8842    5.1458 O   0  0  0  0  0  0  0  0  0  0  0  0
    2.9062   -2.8420    2.4165 C   0  0  0  0  0  0  0  0  0  0  0  0
    2.8345   -4.1178    2.8240 O   0  0  0  0  0  0  0  0  0  0  0  0
    2.1402   -5.0544    2.0903 C   0  0  0  0  0  0  0  0  0  0  0  0
    2.8181   -6.1558    1.5672 C   0  0  0  0  0  0  0  0  0  0  0  0
    2.1224   -7.1571    0.8861 C   0  0  0  0  0  0  0  0  0  0  0  0
    0.7373   -7.0440    0.7310 C   0  0  0  0  0  0  0  0  0  0  0  0
   -0.2215   -8.3987   -0.1984 Br  0  0  0  0  0  0  0  0  0  0  0  0
    0.0395   -5.9508    1.2536 C   0  0  0  0  0  0  0  0  0  0  0  0
    0.7490   -4.9672    1.9350 C   0  0  0  0  0  0  0  0  0  0  0  0
    0.1011   -3.9234    2.4545 F   0  0  0  0  0  0  0  0  0  0  0  0
    2.6131   -2.3703    0.7564 S   0  0  0  0  0  0  0  0  0  0  0  0
    1.4696    1.3348   -1.2718 H   0  0  0  0  0  0  0  0  0  0  0  0
    0.8264    0.8995    0.3431 H   0  0  0  0  0  0  0  0  0  0  0  0
    1.0697   -0.3582   -0.9048 H   0  0  0  0  0  0  0  0  0  0  0  0
    3.3320    2.2628   -0.0285 H   0  0  0  0  0  0  0  0  0  0  0  0
    3.6146    0.4256    2.8648 H   0  0  0  0  0  0  0  0  0  0  0  0
    3.8983   -6.2181    1.7115 H   0  0  0  0  0  0  0  0  0  0  0  0
    2.6541   -8.0178    0.4792 H   0  0  0  0  0  0  0  0  0  0  0  0
   -1.0417   -5.8518    1.1524 H   0  0  0  0  0  0  0  0  0  0  0  0
  1  2  1  0
  1 22  1  0
  1 23  1  0
  1 24  1  0
  2  3  1  6
  2  4  1  0
  2  5  1  0
  4 25  1  0
  5  6  1  0
  5 21  2  0
  6  7  2  0
  6 26  1  0
  7  8  1  0
  7 11  1  0
  8  9  1  0
  8 10  1  0
 11 12  2  0
 11 21  1  0
 12 13  1  0
 13 14  2  0
 13 19  1  0
 14 15  1  0
 14 27  1  0
 15 16  2  0
 15 28  1  0
 16 17  1  0
 16 18  1  0
 18 19  2  0
 18 29  1  0
 19 20  1  0
M  CHG  4   9  -1  10  -1  12   1  21   1
M  END

