
     RDKit          3D

 94103  0  0  0  0  0  0  0  0999 V2000
    5.9608   16.9126   -2.7144 O   0  0  0  0  0  0  0  0  0  0  0  0
    6.2743   17.3619   -3.8040 N   0  0  0  0  0  0  0  0  0  0  0  0
    6.5109   18.5338   -4.0419 O   0  0  0  0  0  0  0  0  0  0  0  0
    6.3729   16.4065   -4.9294 C   0  0  0  0  0  0  0  0  0  0  0  0
    6.1267   15.0553   -4.6929 C   0  0  0  0  0  0  0  0  0  0  0  0
    6.2223   14.1605   -5.7561 C   0  0  0  0  0  0  0  0  0  0  0  0
    6.5460   14.6182   -7.0456 C   0  0  0  0  0  0  0  0  0  0  0  0
    6.6173   13.6982   -8.1330 N   0  0  0  0  0  0  0  0  0  0  0  0
    5.7302   12.7348   -8.2176 C   0  0  0  0  0  0  0  0  0  0  0  0
    5.8015   11.6752   -9.1631 C   0  0  0  0  0  0  0  0  0  0  0  0
    4.7698   10.6907   -9.2667 C   0  0  0  0  0  0  0  0  0  0  0  0
    4.9224    9.6069  -10.0899 C   0  0  0  0  0  0  0  0  0  0  0  0
    6.1276    9.4489  -10.8408 C   0  0  0  0  0  0  0  0  0  0  0  0
    6.3048    8.3178  -11.7088 C   0  0  0  0  0  0  0  0  0  0  0  0
    7.5069    8.1775  -12.4426 C   0  0  0  0  0  0  0  0  0  0  0  0
    8.5353    9.1660  -12.3449 C   0  0  0  0  0  0  0  0  0  0  0  0
    8.3751   10.2590  -11.5354 C   0  0  0  0  0  0  0  0  0  0  0  0
    7.1779   10.4072  -10.7700 C   0  0  0  0  0  0  0  0  0  0  0  0
    6.9935   11.5472   -9.9152 C   0  0  0  0  0  0  0  0  0  0  0  0
    7.9491   12.4316   -9.8199 O   0  0  0  0  0  0  0  0  0  0  0  0
    7.7587   13.8172   -9.2728 B   0  0  1  0  0  0  0  0  0  0  0  0
    7.2497   14.7338  -10.5399 C   0  0  0  0  0  0  0  0  0  0  0  0
    6.0061   15.3540  -10.6879 C   0  0  0  0  0  0  0  0  0  0  0  0
    5.0957   15.3287   -9.6940 F   0  0  0  0  0  0  0  0  0  0  0  0
    5.6157   16.0341  -11.8471 C   0  0  0  0  0  0  0  0  0  0  0  0
    4.4169   16.6070  -11.9249 F   0  0  0  0  0  0  0  0  0  0  0  0
    6.4934   16.1011  -12.9280 C   0  0  0  0  0  0  0  0  0  0  0  0
    6.1428   16.7388  -14.0382 F   0  0  0  0  0  0  0  0  0  0  0  0
    7.7467   15.4895  -12.8338 C   0  0  0  0  0  0  0  0  0  0  0  0
    8.5910   15.5464  -13.8602 F   0  0  0  0  0  0  0  0  0  0  0  0
    8.0909   14.8230  -11.6585 C   0  0  0  0  0  0  0  0  0  0  0  0
    9.3042   14.2527  -11.6227 F   0  0  0  0  0  0  0  0  0  0  0  0
    9.1636   14.2426   -8.5583 C   0  0  0  0  0  0  0  0  0  0  0  0
    9.8521   15.4441   -8.7521 C   0  0  0  0  0  0  0  0  0  0  0  0
    9.3333   16.4134   -9.5225 F   0  0  0  0  0  0  0  0  0  0  0  0
   11.0844   15.7273   -8.1561 C   0  0  0  0  0  0  0  0  0  0  0  0
   11.6969   16.8867   -8.3804 F   0  0  0  0  0  0  0  0  0  0  0  0
   11.6664   14.7849   -7.3069 C   0  0  0  0  0  0  0  0  0  0  0  0
   12.8344   15.0366   -6.7286 F   0  0  0  0  0  0  0  0  0  0  0  0
   11.0063   13.5790   -7.0619 C   0  0  0  0  0  0  0  0  0  0  0  0
   11.5431   12.6813   -6.2389 F   0  0  0  0  0  0  0  0  0  0  0  0
    9.7765   13.3407   -7.6784 C   0  0  0  0  0  0  0  0  0  0  0  0
    9.1678   12.1828   -7.3733 F   0  0  0  0  0  0  0  0  0  0  0  0
    7.7002    6.9678  -13.1646 C   0  0  0  0  0  0  0  0  0  0  0  0
    6.7644    6.0644  -13.3383 N   0  0  0  0  0  0  0  0  0  0  0  0
    7.1051    4.8126  -13.9305 C   0  0  0  0  0  0  0  0  0  0  0  0
    8.3142    4.1797  -13.5921 C   0  0  0  0  0  0  0  0  0  0  0  0
    8.6665    2.9687  -14.1833 C   0  0  0  0  0  0  0  0  0  0  0  0
    7.7918    2.3916  -15.1022 C   0  0  0  0  0  0  0  0  0  0  0  0
    8.1596    1.1046  -15.7326 N   0  0  0  0  0  0  0  0  0  0  0  0
    9.2336    0.6165  -15.4231 O   0  0  0  0  0  0  0  0  0  0  0  0
    7.3655    0.6196  -16.5202 O   0  0  0  0  0  0  0  0  0  0  0  0
    6.5745    2.9876  -15.4331 C   0  0  0  0  0  0  0  0  0  0  0  0
    6.2277    4.1986  -14.8408 C   0  0  0  0  0  0  0  0  0  0  0  0
    5.2501    6.4044  -12.8822 B   0  0  1  0  0  0  0  0  0  0  0  0
    4.4113    7.1458  -14.0868 C   0  0  0  0  0  0  0  0  0  0  0  0
    4.8797    7.4784  -15.3608 C   0  0  0  0  0  0  0  0  0  0  0  0
    6.1109    7.1073  -15.7659 F   0  0  0  0  0  0  0  0  0  0  0  0
    4.1296    8.2020  -16.2948 C   0  0  0  0  0  0  0  0  0  0  0  0
    4.6323    8.4846  -17.4944 F   0  0  0  0  0  0  0  0  0  0  0  0
    2.8484    8.6331  -15.9549 C   0  0  0  0  0  0  0  0  0  0  0  0
    2.1202    9.3231  -16.8243 F   0  0  0  0  0  0  0  0  0  0  0  0
    2.3364    8.3339  -14.6893 C   0  0  0  0  0  0  0  0  0  0  0  0
    1.1152    8.7419  -14.3547 F   0  0  0  0  0  0  0  0  0  0  0  0
    3.1212    7.6104  -13.7923 C   0  0  0  0  0  0  0  0  0  0  0  0
    2.5817    7.3527  -12.5919 F   0  0  0  0  0  0  0  0  0  0  0  0
    4.5916    5.0607  -12.2292 C   0  0  0  0  0  0  0  0  0  0  0  0
    5.1167    4.5642  -11.0287 C   0  0  0  0  0  0  0  0  0  0  0  0
    6.1949    5.1456  -10.4773 F   0  0  0  0  0  0  0  0  0  0  0  0
    4.5920    3.4596  -10.3551 C   0  0  0  0  0  0  0  0  0  0  0  0
    5.1299    3.0368   -9.2136 F   0  0  0  0  0  0  0  0  0  0  0  0
    3.4974    2.7875  -10.9029 C   0  0  0  0  0  0  0  0  0  0  0  0
    2.9837    1.7317  -10.2837 F   0  0  0  0  0  0  0  0  0  0  0  0
    2.9540    3.2277  -12.1107 C   0  0  0  0  0  0  0  0  0  0  0  0
    1.9233    2.5820  -12.6495 F   0  0  0  0  0  0  0  0  0  0  0  0
    3.5122    4.3394  -12.7485 C   0  0  0  0  0  0  0  0  0  0  0  0
    2.9654    4.6793  -13.9264 F   0  0  0  0  0  0  0  0  0  0  0  0
    5.3633    7.4159  -11.7779 O   0  0  0  0  0  0  0  0  0  0  0  0
    6.8149   15.9819   -7.2542 C   0  0  0  0  0  0  0  0  0  0  0  0
    6.7222   16.8798   -6.1946 C   0  0  0  0  0  0  0  0  0  0  0  0
    5.8828   14.7227   -3.6843 H   0  0  0  0  0  0  0  0  0  0  0  0
    6.0829   13.0937   -5.5725 H   0  0  0  0  0  0  0  0  0  0  0  0
    4.8991   12.7388   -7.5040 H   0  0  0  0  0  0  0  0  0  0  0  0
    3.8574   10.8175   -8.6784 H   0  0  0  0  0  0  0  0  0  0  0  0
    4.1409    8.8546  -10.1938 H   0  0  0  0  0  0  0  0  0  0  0  0
    9.4511    9.0349  -12.9268 H   0  0  0  0  0  0  0  0  0  0  0  0
    9.1411   11.0305  -11.4599 H   0  0  0  0  0  0  0  0  0  0  0  0
    8.6922    6.7657  -13.5828 H   0  0  0  0  0  0  0  0  0  0  0  0
    8.9663    4.6147  -12.8327 H   0  0  0  0  0  0  0  0  0  0  0  0
    9.5953    2.4573  -13.9323 H   0  0  0  0  0  0  0  0  0  0  0  0
    5.9172    2.4976  -16.1508 H   0  0  0  0  0  0  0  0  0  0  0  0
    5.2790    4.6660  -15.0986 H   0  0  0  0  0  0  0  0  0  0  0  0
    7.0861   16.3493   -8.2423 H   0  0  0  0  0  0  0  0  0  0  0  0
    6.9138   17.9434   -6.3331 H   0  0  0  0  0  0  0  0  0  0  0  0
  1  2  2  0
  2  3  1  0
  2  4  1  0
  4  5  2  0
  4 80  1  0
  5  6  1  0
  5 81  1  0
  6  7  2  0
  6 82  1  0
  7  8  1  0
  7 79  1  0
  8  9  1  0
  8 21  1  0
  9 10  2  0
  9 83  1  0
 10 11  1  0
 10 19  1  0
 11 12  2  0
 11 84  1  0
 12 13  1  0
 12 85  1  0
 13 14  1  0
 13 18  2  0
 14 15  1  0
 14 78  2  0
 15 16  1  0
 15 44  2  0
 16 17  2  0
 16 86  1  0
 17 18  1  0
 17 87  1  0
 18 19  1  0
 19 20  2  0
 20 21  1  0
 21 22  1  6
 21 33  1  0
 22 23  2  0
 22 31  1  0
 23 24  1  0
 23 25  1  0
 25 26  1  0
 25 27  2  0
 27 28  1  0
 27 29  1  0
 29 30  1  0
 29 31  2  0
 31 32  1  0
 33 34  2  0
 33 42  1  0
 34 35  1  0
 34 36  1  0
 36 37  1  0
 36 38  2  0
 38 39  1  0
 38 40  1  0
 40 41  1  0
 40 42  2  0
 42 43  1  0
 44 45  1  0
 44 88  1  0
 45 46  1  0
 45 55  1  0
 46 47  2  0
 46 54  1  0
 47 48  1  0
 47 89  1  0
 48 49  2  0
 48 90  1  0
 49 50  1  0
 49 53  1  0
 50 51  2  0
 50 52  1  0
 53 54  2  0
 53 91  1  0
 54 92  1  0
 55 56  1  6
 55 67  1  0
 55 78  1  0
 56 57  2  0
 56 65  1  0
 57 58  1  0
 57 59  1  0
 59 60  1  0
 59 61  2  0
 61 62  1  0
 61 63  1  0
 63 64  1  0
 63 65  2  0
 65 66  1  0
 67 68  2  0
 67 76  1  0
 68 69  1  0
 68 70  1  0
 70 71  1  0
 70 72  2  0
 72 73  1  0
 72 74  1  0
 74 75  1  0
 74 76  2  0
 76 77  1  0
 79 80  2  0
 79 93  1  0
 80 94  1  0
M  CHG  8   2   1   3  -1  20   1  21  -1  50   1  52  -1  55  -1  78   1
M  END

