
     RDKit          3D

 38 38  0  0  0  0  0  0  0  0999 V2000
    1.3286   -0.4795   -0.2930 C   0  0  0  0  0  0  0  0  0  0  0  0
    2.8060   -0.3442    0.1081 C   0  0  1  0  0  0  0  0  0  0  0  0
    3.2601    1.0249   -0.0444 N   0  0  0  0  0  0  0  0  0  0  0  0
    4.7073    1.2168   -0.0834 C   0  0  0  0  0  0  0  0  0  0  0  0
    5.2843    0.9952   -1.4941 C   0  0  0  0  0  0  0  0  0  0  0  0
    6.7756    1.2027   -1.5688 C   0  0  0  0  0  0  0  0  0  0  0  0
    7.7469    0.2815   -1.0461 C   0  0  0  0  0  0  0  0  0  0  0  0
    9.0404    0.7043   -1.2099 C   0  0  0  0  0  0  0  0  0  0  0  0
    9.1094    2.2391   -2.0050 S   0  0  0  0  0  0  0  0  0  0  0  0
    7.3833    2.3096   -2.1159 C   0  0  0  0  0  0  0  0  0  0  0  0
    2.9934   -0.8619    1.5472 C   0  0  0  0  0  0  0  0  0  0  0  0
    3.1255   -0.1308    2.5023 O   0  0  0  0  0  0  0  0  0  0  0  0
    2.9502   -2.2001    1.5898 O   0  0  0  0  0  0  0  0  0  0  0  0
    3.0343   -2.9648    2.8455 C   0  0  1  0  0  0  0  0  0  0  0  0
    1.8577   -2.6013    3.7566 C   0  0  0  0  0  0  0  0  0  0  0  0
    2.9284   -4.4146    2.3709 C   0  0  0  0  0  0  0  0  0  0  0  0
    4.3863   -2.7091    3.5193 C   0  0  0  0  0  0  0  0  0  0  0  0
    1.1982   -0.1371   -1.3295 H   0  0  0  0  0  0  0  0  0  0  0  0
    0.6949    0.1480    0.3549 H   0  0  0  0  0  0  0  0  0  0  0  0
    0.9857   -1.5211   -0.2080 H   0  0  0  0  0  0  0  0  0  0  0  0
    3.4006   -0.9993   -0.5488 H   0  0  0  0  0  0  0  0  0  0  0  0
    2.8682    1.5751    0.7187 H   0  0  0  0  0  0  0  0  0  0  0  0
    5.2485    0.5750    0.6441 H   0  0  0  0  0  0  0  0  0  0  0  0
    4.9202    2.2546    0.2182 H   0  0  0  0  0  0  0  0  0  0  0  0
    4.7670    1.6774   -2.1863 H   0  0  0  0  0  0  0  0  0  0  0  0
    5.0433   -0.0289   -1.8298 H   0  0  0  0  0  0  0  0  0  0  0  0
    7.4848   -0.6665   -0.5717 H   0  0  0  0  0  0  0  0  0  0  0  0
    9.9578    0.1979   -0.9127 H   0  0  0  0  0  0  0  0  0  0  0  0
    6.9011    3.1658   -2.5869 H   0  0  0  0  0  0  0  0  0  0  0  0
    0.9023   -2.7519    3.2300 H   0  0  0  0  0  0  0  0  0  0  0  0
    1.9194   -1.5572    4.0885 H   0  0  0  0  0  0  0  0  0  0  0  0
    1.8627   -3.2535    4.6439 H   0  0  0  0  0  0  0  0  0  0  0  0
    1.9746   -4.5835    1.8485 H   0  0  0  0  0  0  0  0  0  0  0  0
    2.9829   -5.1019    3.2288 H   0  0  0  0  0  0  0  0  0  0  0  0
    3.7480   -4.6560    1.6774 H   0  0  0  0  0  0  0  0  0  0  0  0
    4.4749   -1.6667    3.8504 H   0  0  0  0  0  0  0  0  0  0  0  0
    5.2103   -2.9326    2.8237 H   0  0  0  0  0  0  0  0  0  0  0  0
    4.4929   -3.3681    4.3953 H   0  0  0  0  0  0  0  0  0  0  0  0
  1  2  1  0
  1 18  1  0
  1 19  1  0
  1 20  1  0
  2  3  1  0
  2 11  1  0
  2 21  1  6
  3  4  1  0
  3 22  1  0
  4  5  1  0
  4 23  1  0
  4 24  1  0
  5  6  1  0
  5 25  1  0
  5 26  1  0
  6  7  1  0
  6 10  2  0
  7  8  2  0
  7 27  1  0
  8  9  1  0
  8 28  1  0
  9 10  1  0
 10 29  1  0
 11 12  2  0
 11 13  1  0
 14 13  1  6
 14 15  1  0
 14 16  1  0
 14 17  1  0
 15 30  1  0
 15 31  1  0
 15 32  1  0
 16 33  1  0
 16 34  1  0
 16 35  1  0
 17 36  1  0
 17 37  1  0
 17 38  1  0
M  END

