
     RDKit          3D

 68 72  0  0  0  0  0  0  0  0999 V2000
    1.3355   -1.1965    1.2671 N   0  0  0  0  0  0  0  0  0  0  0  0
    2.4257   -0.8788    1.0231 C   0  0  0  0  0  0  0  0  0  0  0  0
    3.7874   -0.5049    0.7462 C   0  0  0  0  0  0  0  0  0  0  0  0
    4.0603    0.7974    0.7799 N   0  0  0  0  0  0  0  0  0  0  0  0
    5.3200    1.2306    0.7163 C   0  0  0  0  0  0  0  0  0  0  0  0
    5.5620    2.5839    0.5983 N   0  0  0  0  0  0  0  0  0  0  0  0
    6.7067    3.0846   -0.1833 C   0  0  0  0  0  0  0  0  0  0  0  0
    6.8378    2.4519   -1.5602 C   0  0  0  0  0  0  0  0  0  0  0  0
    5.7375    2.3903   -2.4337 C   0  0  0  0  0  0  0  0  0  0  0  0
    5.8442    1.7947   -3.6900 C   0  0  0  0  0  0  0  0  0  0  0  0
    7.0720    1.2561   -4.0727 C   0  0  0  0  0  0  0  0  0  0  0  0
    7.1681    0.6415   -5.2640 F   0  0  0  0  0  0  0  0  0  0  0  0
    8.1876    1.3157   -3.2446 C   0  0  0  0  0  0  0  0  0  0  0  0
    8.0601    1.9134   -1.9863 C   0  0  0  0  0  0  0  0  0  0  0  0
    4.4889    3.5368    0.8911 C   0  0  0  0  0  0  0  0  0  0  0  0
    4.9388    4.6957    1.7631 C   0  0  0  0  0  0  0  0  0  0  0  0
    5.7235    4.4800    2.9081 C   0  0  0  0  0  0  0  0  0  0  0  0
    6.0956    5.5391    3.7366 C   0  0  0  0  0  0  0  0  0  0  0  0
    5.6736    6.8285    3.4144 C   0  0  0  0  0  0  0  0  0  0  0  0
    6.0286    7.8499    4.2064 F   0  0  0  0  0  0  0  0  0  0  0  0
    4.8976    7.0789    2.2864 C   0  0  0  0  0  0  0  0  0  0  0  0
    4.5389    6.0062    1.4648 C   0  0  0  0  0  0  0  0  0  0  0  0
    6.3456    0.2347    0.8254 C   0  0  0  0  0  0  0  0  0  0  0  0
    7.6994    0.5680    1.1814 C   0  0  0  0  0  0  0  0  0  0  0  0
    8.7827    0.8503    1.4910 N   0  0  0  0  0  0  0  0  0  0  0  0
    6.0742   -1.0604    0.6832 N   0  0  0  0  0  0  0  0  0  0  0  0
    4.8169   -1.4798    0.5336 C   0  0  0  0  0  0  0  0  0  0  0  0
    4.5806   -2.8059    0.2344 N   0  0  0  0  0  0  0  0  0  0  0  0
    3.4533   -3.1997   -0.6288 C   0  0  0  0  0  0  0  0  0  0  0  0
    3.3511   -2.3968   -1.9167 C   0  0  0  0  0  0  0  0  0  0  0  0
    4.4722   -2.2167   -2.7459 C   0  0  0  0  0  0  0  0  0  0  0  0
    4.3902   -1.4699   -3.9207 C   0  0  0  0  0  0  0  0  0  0  0  0
    3.1662   -0.8984   -4.2658 C   0  0  0  0  0  0  0  0  0  0  0  0
    3.0926   -0.1412   -5.3735 F   0  0  0  0  0  0  0  0  0  0  0  0
    2.0310   -1.0702   -3.4810 C   0  0  0  0  0  0  0  0  0  0  0  0
    2.1337   -1.8191   -2.3040 C   0  0  0  0  0  0  0  0  0  0  0  0
    5.6489   -3.7898    0.4231 C   0  0  0  0  0  0  0  0  0  0  0  0
    5.1843   -5.0506    1.1306 C   0  0  0  0  0  0  0  0  0  0  0  0
    5.6002   -6.3117    0.6797 C   0  0  0  0  0  0  0  0  0  0  0  0
    5.2285   -7.4806    1.3502 C   0  0  0  0  0  0  0  0  0  0  0  0
    4.4231   -7.3772    2.4807 C   0  0  0  0  0  0  0  0  0  0  0  0
    4.0554   -8.4916    3.1283 F   0  0  0  0  0  0  0  0  0  0  0  0
    3.9846   -6.1403    2.9519 C   0  0  0  0  0  0  0  0  0  0  0  0
    4.3701   -4.9838    2.2732 C   0  0  0  0  0  0  0  0  0  0  0  0
    7.6522    2.9719    0.3676 H   0  0  0  0  0  0  0  0  0  0  0  0
    6.5499    4.1692   -0.2825 H   0  0  0  0  0  0  0  0  0  0  0  0
    4.7720    2.7993   -2.1257 H   0  0  0  0  0  0  0  0  0  0  0  0
    4.9920    1.7230   -4.3684 H   0  0  0  0  0  0  0  0  0  0  0  0
    9.1317    0.8813   -3.5789 H   0  0  0  0  0  0  0  0  0  0  0  0
    8.9246    1.9402   -1.3182 H   0  0  0  0  0  0  0  0  0  0  0  0
    3.6842    2.9768    1.3863 H   0  0  0  0  0  0  0  0  0  0  0  0
    4.0514    3.9344   -0.0433 H   0  0  0  0  0  0  0  0  0  0  0  0
    6.0560    3.4680    3.1518 H   0  0  0  0  0  0  0  0  0  0  0  0
    6.7070    5.3823    4.6274 H   0  0  0  0  0  0  0  0  0  0  0  0
    4.5907    8.1020    2.0611 H   0  0  0  0  0  0  0  0  0  0  0  0
    3.9330    6.1975    0.5744 H   0  0  0  0  0  0  0  0  0  0  0  0
    2.4961   -3.1561   -0.0885 H   0  0  0  0  0  0  0  0  0  0  0  0
    3.6123   -4.2632   -0.8623 H   0  0  0  0  0  0  0  0  0  0  0  0
    5.4344   -2.6526   -2.4657 H   0  0  0  0  0  0  0  0  0  0  0  0
    5.2584   -1.3063   -4.5619 H   0  0  0  0  0  0  0  0  0  0  0  0
    1.0906   -0.6051   -3.7831 H   0  0  0  0  0  0  0  0  0  0  0  0
    1.2532   -1.9362   -1.6673 H   0  0  0  0  0  0  0  0  0  0  0  0
    6.4435   -3.2989    1.0010 H   0  0  0  0  0  0  0  0  0  0  0  0
    6.1041   -4.0649   -0.5462 H   0  0  0  0  0  0  0  0  0  0  0  0
    6.2291   -6.3870   -0.2121 H   0  0  0  0  0  0  0  0  0  0  0  0
    5.5477   -8.4660    1.0057 H   0  0  0  0  0  0  0  0  0  0  0  0
    3.3502   -6.0992    3.8395 H   0  0  0  0  0  0  0  0  0  0  0  0
    4.0249   -4.0117    2.6338 H   0  0  0  0  0  0  0  0  0  0  0  0
  1  2  3  0
  2  3  1  0
  3  4  2  0
  3 27  1  0
  4  5  1  0
  5  6  1  0
  5 23  2  0
  6  7  1  0
  6 15  1  0
  7  8  1  0
  7 45  1  0
  7 46  1  0
  8  9  2  0
  8 14  1  0
  9 10  1  0
  9 47  1  0
 10 11  2  0
 10 48  1  0
 11 12  1  0
 11 13  1  0
 13 14  2  0
 13 49  1  0
 14 50  1  0
 15 16  1  0
 15 51  1  0
 15 52  1  0
 16 17  2  0
 16 22  1  0
 17 18  1  0
 17 53  1  0
 18 19  2  0
 18 54  1  0
 19 20  1  0
 19 21  1  0
 21 22  2  0
 21 55  1  0
 22 56  1  0
 23 24  1  0
 23 26  1  0
 24 25  3  0
 26 27  2  0
 27 28  1  0
 28 29  1  0
 28 37  1  0
 29 30  1  0
 29 57  1  0
 29 58  1  0
 30 31  2  0
 30 36  1  0
 31 32  1  0
 31 59  1  0
 32 33  2  0
 32 60  1  0
 33 34  1  0
 33 35  1  0
 35 36  2  0
 35 61  1  0
 36 62  1  0
 37 38  1  0
 37 63  1  0
 37 64  1  0
 38 39  2  0
 38 44  1  0
 39 40  1  0
 39 65  1  0
 40 41  2  0
 40 66  1  0
 41 42  1  0
 41 43  1  0
 43 44  2  0
 43 67  1  0
 44 68  1  0
M  END

