
     RDKit          3D

 42 44  0  0  0  0  0  0  0  0999 V2000
    1.5438   -0.4324   -1.2287 C   0  0  0  0  0  0  0  0  0  0  0  0
    2.6886   -0.0517   -0.2791 C   0  0  2  0  0  0  0  0  0  0  0  0
    3.8877    0.4852   -1.0724 C   0  0  0  0  0  0  0  0  0  0  0  0
    3.1173   -1.2480    0.5888 C   0  0  0  0  0  0  0  0  0  0  0  0
    2.0111   -1.7833    1.4778 C   0  0  0  0  0  0  0  0  0  0  0  0
    1.6177   -2.9250    1.4075 O   0  0  0  0  0  0  0  0  0  0  0  0
    1.4241   -0.8198    2.5160 C   0  0  1  0  0  0  0  0  0  0  0  0
    1.7089   -1.3912    3.9234 C   0  0  0  0  0  0  0  0  0  0  0  0
    1.3148   -0.4307    5.0321 C   0  0  0  0  0  0  0  0  0  0  0  0
    0.9132   -0.9538    6.2830 C   0  0  0  0  0  0  0  0  0  0  0  0
    0.5702   -1.4468    7.3491 C   0  0  0  0  0  0  0  0  0  0  0  0
    0.1694   -2.0096    8.5928 C   0  0  0  0  0  0  0  0  0  0  0  0
    0.0774   -3.4123    8.7591 C   0  0  0  0  0  0  0  0  0  0  0  0
   -0.3117   -3.9573    9.9761 C   0  0  0  0  0  0  0  0  0  0  0  0
   -0.6410   -3.1293   11.0627 C   0  0  0  0  0  0  0  0  0  0  0  0
   -1.0471   -3.7894   12.3488 C   0  0  0  0  0  0  0  0  0  0  0  0
   -0.8301   -4.9475   12.5923 O   0  0  0  0  0  0  0  0  0  0  0  0
   -1.6912   -3.0122   13.2513 O   0  0  0  0  0  0  0  0  0  0  0  0
   -0.5380   -1.7361   10.9073 C   0  0  0  0  0  0  0  0  0  0  0  0
   -0.1399   -1.1806    9.6951 C   0  0  0  0  0  0  0  0  0  0  0  0
    1.4602    0.9079    4.8003 C   0  0  0  0  0  0  0  0  0  0  0  0
    1.8817    1.4121    3.5119 C   0  0  0  0  0  0  0  0  0  0  0  0
    1.8769    0.6220    2.4022 C   0  0  0  0  0  0  0  0  0  0  0  0
    2.1154    1.3615    0.8230 S   0  0  0  0  0  0  0  0  0  0  0  0
    1.8748   -1.2230   -1.9234 H   0  0  0  0  0  0  0  0  0  0  0  0
    1.2256    0.4357   -1.8256 H   0  0  0  0  0  0  0  0  0  0  0  0
    0.6636   -0.8059   -0.6848 H   0  0  0  0  0  0  0  0  0  0  0  0
    4.2418   -0.2818   -1.7814 H   0  0  0  0  0  0  0  0  0  0  0  0
    4.7201    0.7568   -0.4066 H   0  0  0  0  0  0  0  0  0  0  0  0
    3.6099    1.3781   -1.6545 H   0  0  0  0  0  0  0  0  0  0  0  0
    3.9599   -0.9432    1.2345 H   0  0  0  0  0  0  0  0  0  0  0  0
    3.4564   -2.0708   -0.0592 H   0  0  0  0  0  0  0  0  0  0  0  0
    0.3282   -0.8337    2.3454 H   0  0  0  0  0  0  0  0  0  0  0  0
    2.7948   -1.5924    4.0178 H   0  0  0  0  0  0  0  0  0  0  0  0
    1.2011   -2.3590    4.0246 H   0  0  0  0  0  0  0  0  0  0  0  0
    0.3204   -4.0639    7.9176 H   0  0  0  0  0  0  0  0  0  0  0  0
   -0.3720   -5.0385   10.1136 H   0  0  0  0  0  0  0  0  0  0  0  0
   -1.9179   -2.1568   12.8613 H   0  0  0  0  0  0  0  0  0  0  0  0
   -0.7375   -1.0619   11.7460 H   0  0  0  0  0  0  0  0  0  0  0  0
   -0.0557   -0.0976    9.5885 H   0  0  0  0  0  0  0  0  0  0  0  0
    1.2678    1.6230    5.6037 H   0  0  0  0  0  0  0  0  0  0  0  0
    2.1370    2.4714    3.4228 H   0  0  0  0  0  0  0  0  0  0  0  0
  2  1  1  6
  1 25  1  0
  1 26  1  0
  1 27  1  0
  2  3  1  0
  2  4  1  0
  2 24  1  0
  3 28  1  0
  3 29  1  0
  3 30  1  0
  4  5  1  0
  4 31  1  0
  4 32  1  0
  5  6  2  0
  5  7  1  0
  7  8  1  0
  7 23  1  0
  7 33  1  6
  8  9  1  0
  8 34  1  0
  8 35  1  0
  9 10  1  0
  9 21  2  0
 10 11  3  0
 11 12  1  0
 12 13  2  0
 12 20  1  0
 13 14  1  0
 13 36  1  0
 14 15  2  0
 14 37  1  0
 15 16  1  0
 15 19  1  0
 16 17  2  0
 16 18  1  0
 18 38  1  0
 19 20  2  0
 19 39  1  0
 20 40  1  0
 21 22  1  0
 21 41  1  0
 22 23  2  0
 22 42  1  0
 23 24  1  0
M  END

