
     RDKit          3D

 36 38  0  0  0  0  0  0  0  0999 V2000
    0.6450    2.3242   -1.9167 C   0  0  0  0  0  0  0  0  0  0  0  0
    2.0990    2.6254   -2.1381 C   0  0  0  0  0  0  0  0  0  0  0  0
    2.6333    2.9391   -3.3697 C   0  0  0  0  0  0  0  0  0  0  0  0
    4.0259    3.2104   -3.5064 C   0  0  0  0  0  0  0  0  0  0  0  0
    4.7264    3.6369   -5.2204 Br  0  0  0  0  0  0  0  0  0  0  0  0
    4.8715    3.1756   -2.4295 C   0  0  0  0  0  0  0  0  0  0  0  0
    4.3459    2.8632   -1.1949 N   0  0  0  0  0  0  0  0  0  0  0  0
    4.9425    2.7249    0.0543 C   0  0  0  0  0  0  0  0  0  0  0  0
    6.4058    2.9027    0.3455 C   0  0  0  0  0  0  0  0  0  0  0  0
    6.8765    4.2470    0.7145 N   0  0  0  0  0  0  0  0  0  0  0  0
    6.3612    4.8094    1.9817 C   0  0  0  0  0  0  0  0  0  0  0  0
    6.1590    6.3111    1.7061 C   0  0  0  0  0  0  0  0  0  0  0  0
    7.0157    6.5831    0.4627 C   0  0  0  0  0  0  0  0  0  0  0  0
    6.8686    5.2725   -0.3330 C   0  0  1  0  0  0  0  0  0  0  0  0
    5.9373    5.3030   -0.9286 H   0  0  0  0  0  0  0  0  0  0  0  0
    8.0360    5.0508   -1.3059 C   0  0  0  0  0  0  0  0  0  0  0  0
    8.0326    5.4167   -2.4515 O   0  0  0  0  0  0  0  0  0  0  0  0
    9.0735    4.4266   -0.7319 O   0  0  0  0  0  0  0  0  0  0  0  0
    3.8952    2.3631    0.8959 C   0  0  0  0  0  0  0  0  0  0  0  0
    2.7091    2.2809    0.2480 N   0  0  0  0  0  0  0  0  0  0  0  0
    2.9794    2.5790   -1.0178 C   0  0  0  0  0  0  0  0  0  0  0  0
    0.0749    2.3908   -2.8538 H   0  0  0  0  0  0  0  0  0  0  0  0
    0.2112    3.0226   -1.1831 H   0  0  0  0  0  0  0  0  0  0  0  0
    0.5189    1.3156   -1.4914 H   0  0  0  0  0  0  0  0  0  0  0  0
    1.9938    2.9827   -4.2528 H   0  0  0  0  0  0  0  0  0  0  0  0
    5.9354    3.3958   -2.5011 H   0  0  0  0  0  0  0  0  0  0  0  0
    7.0089    2.5572   -0.5116 H   0  0  0  0  0  0  0  0  0  0  0  0
    6.6607    2.2288    1.1786 H   0  0  0  0  0  0  0  0  0  0  0  0
    7.0854    4.6277    2.7957 H   0  0  0  0  0  0  0  0  0  0  0  0
    5.4113    4.3324    2.2763 H   0  0  0  0  0  0  0  0  0  0  0  0
    6.4346    6.9423    2.5638 H   0  0  0  0  0  0  0  0  0  0  0  0
    5.1000    6.5101    1.4769 H   0  0  0  0  0  0  0  0  0  0  0  0
    8.0725    6.7305    0.7408 H   0  0  0  0  0  0  0  0  0  0  0  0
    6.6951    7.4585   -0.1187 H   0  0  0  0  0  0  0  0  0  0  0  0
    8.7443    4.1817    0.1659 H   0  0  0  0  0  0  0  0  0  0  0  0
    3.9800    2.1432    1.9616 H   0  0  0  0  0  0  0  0  0  0  0  0
  1  2  1  0
  1 22  1  0
  1 23  1  0
  1 24  1  0
  2  3  2  0
  2 21  1  0
  3  4  1  0
  3 25  1  0
  4  5  1  0
  4  6  2  0
  6  7  1  0
  6 26  1  0
  7  8  1  0
  7 21  1  0
  8  9  1  0
  8 19  2  0
  9 10  1  0
  9 27  1  0
  9 28  1  0
 10 11  1  0
 10 14  1  0
 11 12  1  0
 11 29  1  0
 11 30  1  0
 12 13  1  0
 12 31  1  0
 12 32  1  0
 13 14  1  0
 13 33  1  0
 13 34  1  0
 14 15  1  6
 14 16  1  0
 16 17  2  0
 16 18  1  0
 18 35  1  0
 19 20  1  0
 19 36  1  0
 20 21  2  0
M  END

