
     RDKit          3D

 54 55  0  0  0  0  0  0  0  0999 V2000
    2.9584    2.7850    2.3262 C   0  0  0  0  0  0  0  0  0  0  0  0
    2.5932    1.9387    1.1064 C   0  0  0  0  0  0  0  0  0  0  0  0
    3.0586    0.4790    1.1982 C   0  0  2  0  0  0  0  0  0  0  0  0
    2.7427   -0.0642    0.2904 H   0  0  0  0  0  0  0  0  0  0  0  0
    2.5534   -0.1826    2.3568 O   0  0  0  0  0  0  0  0  0  0  0  0
    1.2977   -0.7274    2.3826 C   0  0  0  0  0  0  0  0  0  0  0  0
    0.4102   -0.7550    1.3029 C   0  0  0  0  0  0  0  0  0  0  0  0
   -0.8455   -1.3623    1.4463 C   0  0  0  0  0  0  0  0  0  0  0  0
   -1.2609   -1.9515    2.6470 C   0  0  0  0  0  0  0  0  0  0  0  0
   -2.6356   -2.6232    2.8286 C   0  0  1  0  0  0  0  0  0  0  0  0
   -3.4820   -2.5680    1.5441 C   0  0  0  0  0  0  0  0  0  0  0  0
   -2.4366   -4.1080    3.2120 C   0  0  0  0  0  0  0  0  0  0  0  0
   -3.4168   -1.9038    3.9527 C   0  0  0  0  0  0  0  0  0  0  0  0
   -0.3470   -1.9037    3.7197 C   0  0  0  0  0  0  0  0  0  0  0  0
    0.9031   -1.3070    3.5990 C   0  0  0  0  0  0  0  0  0  0  0  0
    4.6003    0.3922    1.1901 C   0  0  0  0  0  0  0  0  0  0  0  0
    5.2168    0.9437    0.2946 O   0  0  0  0  0  0  0  0  0  0  0  0
    5.1332   -0.3299    2.2173 N   0  0  0  0  0  0  0  0  0  0  0  0
    6.4829   -0.6249    2.5025 C   0  0  0  0  0  0  0  0  0  0  0  0
    7.5272   -0.1728    1.6791 C   0  0  0  0  0  0  0  0  0  0  0  0
    8.8417   -0.4951    2.0090 C   0  0  0  0  0  0  0  0  0  0  0  0
    9.1222   -1.2569    3.1423 C   0  0  0  0  0  0  0  0  0  0  0  0
    8.0910   -1.7162    3.9762 C   0  0  0  0  0  0  0  0  0  0  0  0
    8.4429   -2.5396    5.1958 C   0  0  0  0  0  0  0  0  0  0  0  0
    6.7522   -1.4004    3.6592 C   0  0  0  0  0  0  0  0  0  0  0  0
    5.6005   -1.8668    4.5219 C   0  0  0  0  0  0  0  0  0  0  0  0
    2.5718    3.8100    2.2163 H   0  0  0  0  0  0  0  0  0  0  0  0
    4.0504    2.8563    2.4548 H   0  0  0  0  0  0  0  0  0  0  0  0
    2.5337    2.3623    3.2497 H   0  0  0  0  0  0  0  0  0  0  0  0
    3.0527    2.3555    0.1968 H   0  0  0  0  0  0  0  0  0  0  0  0
    1.5020    1.9492    0.9513 H   0  0  0  0  0  0  0  0  0  0  0  0
    0.6708   -0.3083    0.3434 H   0  0  0  0  0  0  0  0  0  0  0  0
   -1.5048   -1.3605    0.5779 H   0  0  0  0  0  0  0  0  0  0  0  0
   -2.9928   -3.0898    0.7066 H   0  0  0  0  0  0  0  0  0  0  0  0
   -3.6862   -1.5322    1.2303 H   0  0  0  0  0  0  0  0  0  0  0  0
   -4.4533   -3.0581    1.7157 H   0  0  0  0  0  0  0  0  0  0  0  0
   -1.8879   -4.6489    2.4245 H   0  0  0  0  0  0  0  0  0  0  0  0
   -3.4108   -4.6051    3.3515 H   0  0  0  0  0  0  0  0  0  0  0  0
   -1.8705   -4.2181    4.1496 H   0  0  0  0  0  0  0  0  0  0  0  0
   -3.5799   -0.8432    3.7036 H   0  0  0  0  0  0  0  0  0  0  0  0
   -2.8828   -1.9429    4.9145 H   0  0  0  0  0  0  0  0  0  0  0  0
   -4.4027   -2.3748    4.1005 H   0  0  0  0  0  0  0  0  0  0  0  0
   -0.6143   -2.3443    4.6832 H   0  0  0  0  0  0  0  0  0  0  0  0
    1.5947   -1.2787    4.4439 H   0  0  0  0  0  0  0  0  0  0  0  0
    4.4342   -0.6962    2.8543 H   0  0  0  0  0  0  0  0  0  0  0  0
    7.2896    0.4207    0.7997 H   0  0  0  0  0  0  0  0  0  0  0  0
    9.6565   -0.1449    1.3700 H   0  0  0  0  0  0  0  0  0  0  0  0
   10.1580   -1.5033    3.3905 H   0  0  0  0  0  0  0  0  0  0  0  0
    9.5312   -2.6763    5.2704 H   0  0  0  0  0  0  0  0  0  0  0  0
    7.9863   -3.5432    5.1652 H   0  0  0  0  0  0  0  0  0  0  0  0
    8.1063   -2.0612    6.1310 H   0  0  0  0  0  0  0  0  0  0  0  0
    5.9371   -2.4563    5.3821 H   0  0  0  0  0  0  0  0  0  0  0  0
    4.8944   -2.5010    3.9563 H   0  0  0  0  0  0  0  0  0  0  0  0
    5.0199   -1.0167    4.9233 H   0  0  0  0  0  0  0  0  0  0  0  0
  1  2  1  0
  1 27  1  0
  1 28  1  0
  1 29  1  0
  2  3  1  0
  2 30  1  0
  2 31  1  0
  3  4  1  6
  3  5  1  0
  3 16  1  0
  5  6  1  0
  6  7  2  0
  6 15  1  0
  7  8  1  0
  7 32  1  0
  8  9  2  0
  8 33  1  0
  9 10  1  0
  9 14  1  0
 10 11  1  6
 10 12  1  0
 10 13  1  0
 11 34  1  0
 11 35  1  0
 11 36  1  0
 12 37  1  0
 12 38  1  0
 12 39  1  0
 13 40  1  0
 13 41  1  0
 13 42  1  0
 14 15  2  0
 14 43  1  0
 15 44  1  0
 16 17  2  0
 16 18  1  0
 18 19  1  0
 18 45  1  0
 19 20  2  0
 19 25  1  0
 20 21  1  0
 20 46  1  0
 21 22  2  0
 21 47  1  0
 22 23  1  0
 22 48  1  0
 23 24  1  0
 23 25  2  0
 24 49  1  0
 24 50  1  0
 24 51  1  0
 25 26  1  0
 26 52  1  0
 26 53  1  0
 26 54  1  0
M  END

