
     RDKit          3D

 74 79  0  0  0  0  0  0  0  0999 V2000
    3.8920   -0.1064   -0.8920 C   0  0  0  0  0  0  0  0  0  0  0  0
    2.6116    0.1519   -0.0789 C   0  0  1  0  0  0  0  0  0  0  0  0
    1.8619   -1.1591    0.2153 C   0  0  0  0  0  0  0  0  0  0  0  0
    2.8942    0.9440    1.1917 C   0  0  0  0  0  0  0  0  0  0  0  0
    2.3398    2.2141    1.3778 C   0  0  0  0  0  0  0  0  0  0  0  0
    2.5739    2.9698    2.5340 C   0  0  0  0  0  0  0  0  0  0  0  0
    1.9209    4.3433    2.6819 C   0  0  1  0  0  0  0  0  0  0  0  0
    2.6210    5.3922    1.7986 C   0  0  0  0  0  0  0  0  0  0  0  0
    0.4064    4.3092    2.4153 C   0  0  0  0  0  0  0  0  0  0  0  0
    3.4131    2.4250    3.5346 C   0  0  0  0  0  0  0  0  0  0  0  0
    3.6863    3.2038    4.7594 C   0  0  0  0  0  0  0  0  0  0  0  0
    3.3656    2.9446    5.9914 N   0  0  0  0  0  0  0  0  0  0  0  0
    3.8587    3.9718    6.7672 N   0  0  0  0  0  0  0  0  0  0  0  0
    4.4505    4.8022    5.9597 C   0  0  0  0  0  0  0  0  0  0  0  0
    5.1303    6.0517    6.2859 C   0  0  0  0  0  0  0  0  0  0  0  0
    5.1566    6.4932    7.6216 C   0  0  0  0  0  0  0  0  0  0  0  0
    5.7936    7.6835    7.9569 C   0  0  0  0  0  0  0  0  0  0  0  0
    6.4320    8.4522    6.9675 C   0  0  0  0  0  0  0  0  0  0  0  0
    7.0863    9.6600    7.3106 N   0  0  0  0  0  0  0  0  0  0  0  0
    8.0775    9.8055    8.2902 C   0  0  0  0  0  0  0  0  0  0  0  0
    8.6712    8.8380    9.1109 C   0  0  0  0  0  0  0  0  0  0  0  0
    9.6675    9.2552    9.9949 C   0  0  0  0  0  0  0  0  0  0  0  0
   10.0729   10.6012   10.0621 C   0  0  0  0  0  0  0  0  0  0  0  0
    9.4901   11.5583    9.2328 C   0  0  0  0  0  0  0  0  0  0  0  0
    8.4868   11.1654    8.3353 C   0  0  0  0  0  0  0  0  0  0  0  0
    7.7045   11.8724    7.3398 C   0  0  0  0  0  0  0  0  0  0  0  0
    7.6424   13.2131    6.9338 C   0  0  0  0  0  0  0  0  0  0  0  0
    6.7391   13.5806    5.9376 C   0  0  0  0  0  0  0  0  0  0  0  0
    5.8924   12.6214    5.3516 C   0  0  0  0  0  0  0  0  0  0  0  0
    5.9344   11.2806    5.7371 C   0  0  0  0  0  0  0  0  0  0  0  0
    6.8542   10.9126    6.7275 C   0  0  0  0  0  0  0  0  0  0  0  0
    6.4134    8.0083    5.6355 C   0  0  0  0  0  0  0  0  0  0  0  0
    5.7626    6.8237    5.2965 C   0  0  0  0  0  0  0  0  0  0  0  0
    4.3831    4.3784    4.6702 O   0  0  0  0  0  0  0  0  0  0  0  0
    3.9908    1.1384    3.3780 C   0  0  0  0  0  0  0  0  0  0  0  0
    4.8738    0.5145    4.4581 C   0  0  1  0  0  0  0  0  0  0  0  0
    4.0367   -0.3677    5.4042 C   0  0  0  0  0  0  0  0  0  0  0  0
    6.0755   -0.2591    3.8931 C   0  0  0  0  0  0  0  0  0  0  0  0
    3.7109    0.4267    2.2063 C   0  0  0  0  0  0  0  0  0  0  0  0
    3.6552   -0.6186   -1.8388 H   0  0  0  0  0  0  0  0  0  0  0  0
    4.5997   -0.7446   -0.3377 H   0  0  0  0  0  0  0  0  0  0  0  0
    4.4101    0.8348   -1.1341 H   0  0  0  0  0  0  0  0  0  0  0  0
    1.9480    0.7771   -0.7012 H   0  0  0  0  0  0  0  0  0  0  0  0
    2.4746   -1.8468    0.8210 H   0  0  0  0  0  0  0  0  0  0  0  0
    1.6071   -1.6804   -0.7219 H   0  0  0  0  0  0  0  0  0  0  0  0
    0.9270   -0.9716    0.7662 H   0  0  0  0  0  0  0  0  0  0  0  0
    1.6955    2.6235    0.5955 H   0  0  0  0  0  0  0  0  0  0  0  0
    2.0443    4.6640    3.7276 H   0  0  0  0  0  0  0  0  0  0  0  0
    2.5266    5.1387    0.7297 H   0  0  0  0  0  0  0  0  0  0  0  0
    3.6939    5.4586    2.0346 H   0  0  0  0  0  0  0  0  0  0  0  0
    2.1745    6.3889    1.9482 H   0  0  0  0  0  0  0  0  0  0  0  0
    0.1761    4.0741    1.3638 H   0  0  0  0  0  0  0  0  0  0  0  0
   -0.0404    5.2924    2.6346 H   0  0  0  0  0  0  0  0  0  0  0  0
   -0.0954    3.5596    3.0466 H   0  0  0  0  0  0  0  0  0  0  0  0
    4.6569    5.8945    8.3852 H   0  0  0  0  0  0  0  0  0  0  0  0
    5.7889    8.0351    8.9900 H   0  0  0  0  0  0  0  0  0  0  0  0
    8.3741    7.7895    9.0617 H   0  0  0  0  0  0  0  0  0  0  0  0
   10.1431    8.5170   10.6457 H   0  0  0  0  0  0  0  0  0  0  0  0
   10.8547   10.8946   10.7666 H   0  0  0  0  0  0  0  0  0  0  0  0
    9.8132   12.6014    9.2774 H   0  0  0  0  0  0  0  0  0  0  0  0
    8.2916   13.9606    7.3968 H   0  0  0  0  0  0  0  0  0  0  0  0
    6.6817   14.6219    5.6117 H   0  0  0  0  0  0  0  0  0  0  0  0
    5.1827   12.9302    4.5798 H   0  0  0  0  0  0  0  0  0  0  0  0
    5.2645   10.5492    5.2828 H   0  0  0  0  0  0  0  0  0  0  0  0
    6.9253    8.5910    4.8677 H   0  0  0  0  0  0  0  0  0  0  0  0
    5.7579    6.4843    4.2593 H   0  0  0  0  0  0  0  0  0  0  0  0
    5.2828    1.3355    5.0672 H   0  0  0  0  0  0  0  0  0  0  0  0
    3.5677   -1.2001    4.8533 H   0  0  0  0  0  0  0  0  0  0  0  0
    3.2455    0.2221    5.8885 H   0  0  0  0  0  0  0  0  0  0  0  0
    4.6735   -0.7994    6.1938 H   0  0  0  0  0  0  0  0  0  0  0  0
    5.7711   -1.1817    3.3729 H   0  0  0  0  0  0  0  0  0  0  0  0
    6.7461   -0.5614    4.7132 H   0  0  0  0  0  0  0  0  0  0  0  0
    6.6584    0.3513    3.1853 H   0  0  0  0  0  0  0  0  0  0  0  0
    4.1498   -0.5646    2.0784 H   0  0  0  0  0  0  0  0  0  0  0  0
  1  2  1  0
  1 40  1  0
  1 41  1  0
  1 42  1  0
  2  3  1  0
  2  4  1  0
  2 43  1  6
  3 44  1  0
  3 45  1  0
  3 46  1  0
  4  5  2  0
  4 39  1  0
  5  6  1  0
  5 47  1  0
  6  7  1  0
  6 10  2  0
  7  8  1  0
  7  9  1  0
  7 48  1  1
  8 49  1  0
  8 50  1  0
  8 51  1  0
  9 52  1  0
  9 53  1  0
  9 54  1  0
 10 11  1  0
 10 35  1  0
 11 12  2  0
 11 34  1  0
 12 13  1  0
 13 14  2  0
 14 15  1  0
 14 34  1  0
 15 16  2  0
 15 33  1  0
 16 17  1  0
 16 55  1  0
 17 18  2  0
 17 56  1  0
 18 19  1  0
 18 32  1  0
 19 20  1  0
 19 31  1  0
 20 21  2  0
 20 25  1  0
 21 22  1  0
 21 57  1  0
 22 23  2  0
 22 58  1  0
 23 24  1  0
 23 59  1  0
 24 25  2  0
 24 60  1  0
 25 26  1  0
 26 27  1  0
 26 31  2  0
 27 28  2  0
 27 61  1  0
 28 29  1  0
 28 62  1  0
 29 30  2  0
 29 63  1  0
 30 31  1  0
 30 64  1  0
 32 33  2  0
 32 65  1  0
 33 66  1  0
 35 36  1  0
 35 39  2  0
 36 37  1  0
 36 38  1  0
 36 67  1  1
 37 68  1  0
 37 69  1  0
 37 70  1  0
 38 71  1  0
 38 72  1  0
 38 73  1  0
 39 74  1  0
M  END

