
     RDKit          3D

 41 42  0  0  0  0  0  0  0  0999 V2000
    0.9264    0.1982   -0.6096 C   0  0  0  0  0  0  0  0  0  0  0  0
    2.4278    0.0921   -0.4963 C   0  0  0  0  0  0  0  0  0  0  0  0
    3.2614    0.2310   -1.6130 C   0  0  0  0  0  0  0  0  0  0  0  0
    4.6526    0.1287   -1.4948 C   0  0  0  0  0  0  0  0  0  0  0  0
    5.2613   -0.1149   -0.2573 C   0  0  0  0  0  0  0  0  0  0  0  0
    6.7801   -0.2438   -0.1348 C   0  0  1  0  0  0  0  0  0  0  0  0
    7.3848    0.8322    0.8017 C   0  0  0  0  0  0  0  0  0  0  0  0
    8.8609    1.1031    0.5912 C   0  0  0  0  0  0  0  0  0  0  0  0
    9.2737    2.3197    0.0217 C   0  0  0  0  0  0  0  0  0  0  0  0
   10.6261    2.6058   -0.2005 C   0  0  0  0  0  0  0  0  0  0  0  0
   11.0604    3.9241   -0.7967 C   0  0  0  0  0  0  0  0  0  0  0  0
   11.5786    1.6389    0.1586 C   0  0  0  0  0  0  0  0  0  0  0  0
   11.2032    0.4160    0.7280 C   0  0  0  0  0  0  0  0  0  0  0  0
   12.2361   -0.6149    1.1187 C   0  0  0  0  0  0  0  0  0  0  0  0
    9.8384    0.1618    0.9385 C   0  0  0  0  0  0  0  0  0  0  0  0
    7.2241   -1.5707    0.3032 N   0  0  0  0  0  0  0  0  0  0  0  0
    6.8672   -2.6577   -0.5226 N   0  0  0  0  0  0  0  0  0  0  0  0
    4.4236   -0.2605    0.8630 C   0  0  0  0  0  0  0  0  0  0  0  0
    3.0387   -0.1564    0.7463 C   0  0  0  0  0  0  0  0  0  0  0  0
    0.6126    0.4168   -1.6409 H   0  0  0  0  0  0  0  0  0  0  0  0
    0.5306    0.9973    0.0394 H   0  0  0  0  0  0  0  0  0  0  0  0
    0.4335   -0.7388   -0.2999 H   0  0  0  0  0  0  0  0  0  0  0  0
    2.8182    0.4217   -2.5948 H   0  0  0  0  0  0  0  0  0  0  0  0
    5.2772    0.2468   -2.3858 H   0  0  0  0  0  0  0  0  0  0  0  0
    7.2058   -0.0889   -1.1415 H   0  0  0  0  0  0  0  0  0  0  0  0
    7.2021    0.5225    1.8469 H   0  0  0  0  0  0  0  0  0  0  0  0
    6.8240    1.7680    0.6592 H   0  0  0  0  0  0  0  0  0  0  0  0
    8.5193    3.0642   -0.2523 H   0  0  0  0  0  0  0  0  0  0  0  0
   10.2014    4.5078   -1.1599 H   0  0  0  0  0  0  0  0  0  0  0  0
   11.7512    3.7758   -1.6430 H   0  0  0  0  0  0  0  0  0  0  0  0
   11.5929    4.5433   -0.0541 H   0  0  0  0  0  0  0  0  0  0  0  0
   12.6405    1.8464   -0.0099 H   0  0  0  0  0  0  0  0  0  0  0  0
   13.2487   -0.3133    0.8116 H   0  0  0  0  0  0  0  0  0  0  0  0
   12.0196   -1.5935    0.6591 H   0  0  0  0  0  0  0  0  0  0  0  0
   12.2506   -0.7722    2.2108 H   0  0  0  0  0  0  0  0  0  0  0  0
    9.5250   -0.7959    1.3591 H   0  0  0  0  0  0  0  0  0  0  0  0
    6.8886   -1.7643    1.2468 H   0  0  0  0  0  0  0  0  0  0  0  0
    7.5418   -2.7180   -1.2854 H   0  0  0  0  0  0  0  0  0  0  0  0
    5.9407   -2.5253   -0.9452 H   0  0  0  0  0  0  0  0  0  0  0  0
    4.8586   -0.4588    1.8474 H   0  0  0  0  0  0  0  0  0  0  0  0
    2.4147   -0.2704    1.6381 H   0  0  0  0  0  0  0  0  0  0  0  0
  1  2  1  0
  1 20  1  0
  1 21  1  0
  1 22  1  0
  2  3  2  0
  2 19  1  0
  3  4  1  0
  3 23  1  0
  4  5  2  0
  4 24  1  0
  5  6  1  0
  5 18  1  0
  6  7  1  0
  6 16  1  0
  6 25  1  6
  7  8  1  0
  7 26  1  0
  7 27  1  0
  8  9  2  0
  8 15  1  0
  9 10  1  0
  9 28  1  0
 10 11  1  0
 10 12  2  0
 11 29  1  0
 11 30  1  0
 11 31  1  0
 12 13  1  0
 12 32  1  0
 13 14  1  0
 13 15  2  0
 14 33  1  0
 14 34  1  0
 14 35  1  0
 15 36  1  0
 16 17  1  0
 16 37  1  0
 17 38  1  0
 17 39  1  0
 18 19  2  0
 18 40  1  0
 19 41  1  0
M  END

