
     RDKit          3D

 45 46  0  0  0  0  0  0  0  0999 V2000
    1.0092   -2.5473   -0.4656 C   0  0  0  0  0  0  0  0  0  0  0  0
    2.5336   -2.5244   -0.5757 C   0  0  0  0  0  0  0  0  0  0  0  0
    3.0177   -2.4779   -2.0297 C   0  0  0  0  0  0  0  0  0  0  0  0
    4.4674   -2.4597   -2.1681 N   0  0  0  0  0  0  0  0  0  0  0  0
    5.1743   -1.2965   -2.1873 C   0  0  0  0  0  0  0  0  0  0  0  0
    4.6290   -0.2061   -2.0946 O   0  0  0  0  0  0  0  0  0  0  0  0
    6.7224   -1.3859   -2.2718 C   0  0  1  0  0  0  0  0  0  0  0  0
    7.2435   -1.0924   -0.8500 C   0  0  0  0  0  0  0  0  0  0  0  0
    7.2884   -2.7323   -2.7768 C   0  0  0  0  0  0  0  0  0  0  0  0
    7.0293   -2.9837   -4.2677 C   0  0  0  0  0  0  0  0  0  0  0  0
    7.5137   -1.7989   -5.1058 C   0  0  0  0  0  0  0  0  0  0  0  0
    6.9285   -0.5515   -4.6221 N   0  0  0  0  0  0  0  0  0  0  0  0
    6.1358    0.1800   -5.4792 C   0  0  0  0  0  0  0  0  0  0  0  0
    5.8881   -0.1857   -6.6163 O   0  0  0  0  0  0  0  0  0  0  0  0
    5.6133    1.5120   -4.9871 C   0  0  0  0  0  0  0  0  0  0  0  0
    6.4980    2.5787   -4.7687 C   0  0  0  0  0  0  0  0  0  0  0  0
    6.0436    3.8544   -4.4320 C   0  0  0  0  0  0  0  0  0  0  0  0
    4.6715    4.0547   -4.3073 C   0  0  0  0  0  0  0  0  0  0  0  0
    4.2128    5.2695   -3.9791 F   0  0  0  0  0  0  0  0  0  0  0  0
    3.7568    3.0265   -4.5157 C   0  0  0  0  0  0  0  0  0  0  0  0
    4.2360    1.7616   -4.8637 C   0  0  0  0  0  0  0  0  0  0  0  0
    3.0689    0.4922   -5.1335 Cl  0  0  0  0  0  0  0  0  0  0  0  0
    7.1920   -0.2528   -3.2210 C   0  0  0  0  0  0  0  0  0  0  0  0
    0.6838   -2.5738    0.5860 H   0  0  0  0  0  0  0  0  0  0  0  0
    0.5797   -3.4306   -0.9682 H   0  0  0  0  0  0  0  0  0  0  0  0
    0.5618   -1.6529   -0.9298 H   0  0  0  0  0  0  0  0  0  0  0  0
    2.9618   -3.4133   -0.0778 H   0  0  0  0  0  0  0  0  0  0  0  0
    2.9373   -1.6434   -0.0495 H   0  0  0  0  0  0  0  0  0  0  0  0
    2.6345   -1.5707   -2.5207 H   0  0  0  0  0  0  0  0  0  0  0  0
    2.6312   -3.3472   -2.5883 H   0  0  0  0  0  0  0  0  0  0  0  0
    4.9617   -3.3410   -2.1985 H   0  0  0  0  0  0  0  0  0  0  0  0
    6.9257   -1.8779   -0.1458 H   0  0  0  0  0  0  0  0  0  0  0  0
    6.8540   -0.1307   -0.4846 H   0  0  0  0  0  0  0  0  0  0  0  0
    8.3448   -1.0531   -0.8380 H   0  0  0  0  0  0  0  0  0  0  0  0
    6.9249   -3.5712   -2.1567 H   0  0  0  0  0  0  0  0  0  0  0  0
    8.3802   -2.7119   -2.6074 H   0  0  0  0  0  0  0  0  0  0  0  0
    5.9530   -3.1333   -4.4535 H   0  0  0  0  0  0  0  0  0  0  0  0
    7.5451   -3.9022   -4.5937 H   0  0  0  0  0  0  0  0  0  0  0  0
    7.2366   -1.9079   -6.1609 H   0  0  0  0  0  0  0  0  0  0  0  0
    8.6168   -1.7229   -5.0421 H   0  0  0  0  0  0  0  0  0  0  0  0
    7.5719    2.4053   -4.8742 H   0  0  0  0  0  0  0  0  0  0  0  0
    6.7299    4.6868   -4.2685 H   0  0  0  0  0  0  0  0  0  0  0  0
    2.6885    3.2128   -4.4064 H   0  0  0  0  0  0  0  0  0  0  0  0
    6.6790    0.6704   -2.9345 H   0  0  0  0  0  0  0  0  0  0  0  0
    8.2804   -0.1091   -3.0796 H   0  0  0  0  0  0  0  0  0  0  0  0
  1  2  1  0
  1 24  1  0
  1 25  1  0
  1 26  1  0
  2  3  1  0
  2 27  1  0
  2 28  1  0
  3  4  1  0
  3 29  1  0
  3 30  1  0
  4  5  1  0
  4 31  1  0
  5  6  2  0
  7  5  1  1
  7  8  1  0
  7  9  1  0
  7 23  1  0
  8 32  1  0
  8 33  1  0
  8 34  1  0
  9 10  1  0
  9 35  1  0
  9 36  1  0
 10 11  1  0
 10 37  1  0
 10 38  1  0
 11 12  1  0
 11 39  1  0
 11 40  1  0
 12 13  1  0
 12 23  1  0
 13 14  2  0
 13 15  1  0
 15 16  2  0
 15 21  1  0
 16 17  1  0
 16 41  1  0
 17 18  2  0
 17 42  1  0
 18 19  1  0
 18 20  1  0
 20 21  2  0
 20 43  1  0
 21 22  1  0
 23 44  1  0
 23 45  1  0
M  END

