
     RDKit          3D

 52 55  0  0  0  0  0  0  0  0999 V2000
    2.0925   -0.0819    1.4016 O   0  0  0  0  0  0  0  0  0  0  0  0
    2.7955   -0.2027    0.4073 C   0  0  0  0  0  0  0  0  0  0  0  0
    2.7204   -1.4652   -0.4568 C   0  0  0  0  0  0  0  0  0  0  0  0
    1.7354   -2.4917    0.1044 C   0  0  0  0  0  0  0  0  0  0  0  0
    1.6539   -3.7987   -0.7093 C   0  0  1  0  0  0  0  0  0  0  0  0
    0.8764   -4.9030    0.0410 C   0  0  0  0  0  0  0  0  0  0  0  0
   -0.6363   -4.6775   -0.0069 C   0  0  0  0  0  0  0  0  0  0  0  0
   -1.1052   -4.5615   -1.3374 O   0  0  0  0  0  0  0  0  0  0  0  0
   -0.5064   -3.4848   -2.0304 C   0  0  0  0  0  0  0  0  0  0  0  0
    1.0154   -3.6332   -2.1078 C   0  0  0  0  0  0  0  0  0  0  0  0
    3.6796    0.7786    0.0227 N   0  0  0  0  0  0  0  0  0  0  0  0
    4.5528    0.7533   -1.1477 C   0  0  0  0  0  0  0  0  0  0  0  0
    4.3003    1.9689   -2.0530 C   0  0  0  0  0  0  0  0  0  0  0  0
    4.3621    3.3086   -1.2927 C   0  0  2  0  0  0  0  0  0  0  0  0
    5.7755    3.7315   -0.9803 C   0  0  0  0  0  0  0  0  0  0  0  0
    6.8477    2.9791   -1.0314 N   0  0  0  0  0  0  0  0  0  0  0  0
    7.9029    3.7945   -0.6569 C   0  0  0  0  0  0  0  0  0  0  0  0
    9.2718    3.5101   -0.5397 C   0  0  0  0  0  0  0  0  0  0  0  0
   10.1241    4.5375   -0.1391 C   0  0  0  0  0  0  0  0  0  0  0  0
    9.6344    5.8307    0.1425 C   0  0  0  0  0  0  0  0  0  0  0  0
    8.2771    6.1362    0.0330 C   0  0  0  0  0  0  0  0  0  0  0  0
    7.4274    5.1001   -0.3677 C   0  0  0  0  0  0  0  0  0  0  0  0
    6.0631    5.0239   -0.5823 N   0  0  0  0  0  0  0  0  0  0  0  0
    5.3975    5.7808   -0.4931 H   0  0  0  0  0  0  0  0  0  0  0  0
    3.4784    3.2324   -0.0197 C   0  0  0  0  0  0  0  0  0  0  0  0
    3.7909    1.9933    0.8242 C   0  0  0  0  0  0  0  0  0  0  0  0
    3.7275   -1.9120   -0.5363 H   0  0  0  0  0  0  0  0  0  0  0  0
    2.4423   -1.1753   -1.4848 H   0  0  0  0  0  0  0  0  0  0  0  0
    0.7476   -2.0158    0.2046 H   0  0  0  0  0  0  0  0  0  0  0  0
    2.0386   -2.7302    1.1366 H   0  0  0  0  0  0  0  0  0  0  0  0
    2.6900   -4.1569   -0.8502 H   0  0  0  0  0  0  0  0  0  0  0  0
    1.2110   -4.9695    1.0904 H   0  0  0  0  0  0  0  0  0  0  0  0
    1.0911   -5.8780   -0.4296 H   0  0  0  0  0  0  0  0  0  0  0  0
   -0.9135   -3.7733    0.5747 H   0  0  0  0  0  0  0  0  0  0  0  0
   -1.1721   -5.5295    0.4398 H   0  0  0  0  0  0  0  0  0  0  0  0
   -0.7782   -2.5224   -1.5467 H   0  0  0  0  0  0  0  0  0  0  0  0
   -0.9477   -3.4774   -3.0394 H   0  0  0  0  0  0  0  0  0  0  0  0
    1.4441   -2.7733   -2.6498 H   0  0  0  0  0  0  0  0  0  0  0  0
    1.2413   -4.5290   -2.7115 H   0  0  0  0  0  0  0  0  0  0  0  0
    4.3929   -0.1680   -1.7186 H   0  0  0  0  0  0  0  0  0  0  0  0
    5.6065    0.7660   -0.8227 H   0  0  0  0  0  0  0  0  0  0  0  0
    3.2964    1.8768   -2.5014 H   0  0  0  0  0  0  0  0  0  0  0  0
    5.0343    1.9667   -2.8728 H   0  0  0  0  0  0  0  0  0  0  0  0
    3.9396    4.0931   -1.9467 H   0  0  0  0  0  0  0  0  0  0  0  0
    9.6446    2.5077   -0.7598 H   0  0  0  0  0  0  0  0  0  0  0  0
   11.1947    4.3421   -0.0399 H   0  0  0  0  0  0  0  0  0  0  0  0
   10.3335    6.6108    0.4538 H   0  0  0  0  0  0  0  0  0  0  0  0
    7.9031    7.1390    0.2525 H   0  0  0  0  0  0  0  0  0  0  0  0
    2.4203    3.1969   -0.3290 H   0  0  0  0  0  0  0  0  0  0  0  0
    3.6024    4.1396    0.5952 H   0  0  0  0  0  0  0  0  0  0  0  0
    3.0912    1.8996    1.6634 H   0  0  0  0  0  0  0  0  0  0  0  0
    4.8150    2.0639    1.2357 H   0  0  0  0  0  0  0  0  0  0  0  0
  1  2  2  0
  2  3  1  0
  2 11  1  0
  3  4  1  0
  3 27  1  0
  3 28  1  0
  4  5  1  0
  4 29  1  0
  4 30  1  0
  5  6  1  0
  5 10  1  0
  5 31  1  6
  6  7  1  0
  6 32  1  0
  6 33  1  0
  7  8  1  0
  7 34  1  0
  7 35  1  0
  8  9  1  0
  9 10  1  0
  9 36  1  0
  9 37  1  0
 10 38  1  0
 10 39  1  0
 11 12  1  0
 11 26  1  0
 12 13  1  0
 12 40  1  0
 12 41  1  0
 13 14  1  0
 13 42  1  0
 13 43  1  0
 14 15  1  0
 14 25  1  0
 14 44  1  6
 15 16  2  0
 15 23  1  0
 16 17  1  0
 17 18  2  0
 17 22  1  0
 18 19  1  0
 18 45  1  0
 19 20  2  0
 19 46  1  0
 20 21  1  0
 20 47  1  0
 21 22  2  0
 21 48  1  0
 22 23  1  0
 23 24  1  0
 25 26  1  0
 25 49  1  0
 25 50  1  0
 26 51  1  0
 26 52  1  0
M  END

