
     RDKit          3D

 79 81  0  0  0  0  0  0  0  0999 V2000
   12.6809    8.7332    4.1978 C   0  0  0  0  0  0  0  0  0  0  0  0
   11.5677    8.0238    3.4269 C   0  0  0  0  0  0  0  0  0  0  0  0
   11.1681    6.6901    4.0681 C   0  0  0  0  0  0  0  0  0  0  0  0
   10.0974    6.0076    3.3603 N   0  0  0  0  0  0  0  0  0  0  0  0
   10.2950    4.8999    2.6133 C   0  0  0  0  0  0  0  0  0  0  0  0
   11.3615    4.3298    2.4530 O   0  0  0  0  0  0  0  0  0  0  0  0
    9.0378    4.3590    1.8878 C   0  0  1  0  0  0  0  0  0  0  0  0
    7.9211    5.0865    2.2623 F   0  0  0  0  0  0  0  0  0  0  0  0
    9.2140    4.5809    0.5630 F   0  0  0  0  0  0  0  0  0  0  0  0
    8.7782    2.8824    2.2215 C   0  0  1  0  0  0  0  0  0  0  0  0
    8.5191    2.8189    3.6090 O   0  0  0  0  0  0  0  0  0  0  0  0
    7.6676    2.2283    1.3597 C   0  0  1  0  0  0  0  0  0  0  0  0
    8.1506    2.0537    0.0028 N   0  0  0  0  0  0  0  0  0  0  0  0
    7.5146    2.5600   -1.0841 C   0  0  0  0  0  0  0  0  0  0  0  0
    6.4278    3.1209   -1.0495 O   0  0  0  0  0  0  0  0  0  0  0  0
    8.2626    2.3385   -2.4098 C   0  0  0  0  0  0  0  0  0  0  0  0
    7.9477    0.9923   -3.0252 C   0  0  0  0  0  0  0  0  0  0  0  0
    6.5676    0.7126   -3.2960 C   0  0  0  0  0  0  0  0  0  0  0  0
    6.1825   -0.4325   -3.9460 C   0  0  0  0  0  0  0  0  0  0  0  0
    4.7572   -0.7707   -4.1910 C   0  0  0  0  0  0  0  0  0  0  0  0
    3.8286   -0.5301   -3.1564 C   0  0  0  0  0  0  0  0  0  0  0  0
    2.4701   -0.8000   -3.3067 C   0  0  0  0  0  0  0  0  0  0  0  0
    1.9957   -1.3311   -4.5089 C   0  0  0  0  0  0  0  0  0  0  0  0
    2.8862   -1.5811   -5.5530 C   0  0  0  0  0  0  0  0  0  0  0  0
    4.2468   -1.3018   -5.3960 C   0  0  0  0  0  0  0  0  0  0  0  0
    5.2835   -1.6013   -6.7839 Cl  0  0  0  0  0  0  0  0  0  0  0  0
    7.1617   -1.3113   -4.3427 N   0  0  0  0  0  0  0  0  0  0  0  0
    6.9142   -2.1391   -4.8776 H   0  0  0  0  0  0  0  0  0  0  0  0
    8.5223   -1.1506   -4.1319 C   0  0  0  0  0  0  0  0  0  0  0  0
    9.3391   -1.9587   -4.5669 O   0  0  0  0  0  0  0  0  0  0  0  0
    8.8961    0.0553   -3.3816 C   0  0  0  0  0  0  0  0  0  0  0  0
   10.2901    0.1310   -3.2021 N   0  0  0  0  0  0  0  0  0  0  0  0
   10.9694    0.3481   -2.0331 C   0  0  0  0  0  0  0  0  0  0  0  0
   10.4972    0.7519   -0.9843 O   0  0  0  0  0  0  0  0  0  0  0  0
   12.2675    0.0478   -2.2023 O   0  0  0  0  0  0  0  0  0  0  0  0
   13.1597    0.2973   -1.0911 C   0  0  0  0  0  0  0  0  0  0  0  0
   13.6528    1.7235   -1.0598 C   0  0  0  0  0  0  0  0  0  0  0  0
   13.1761    2.6302   -0.1024 C   0  0  0  0  0  0  0  0  0  0  0  0
   13.6334    3.9513   -0.0832 C   0  0  0  0  0  0  0  0  0  0  0  0
   14.5665    4.3807   -1.0306 C   0  0  0  0  0  0  0  0  0  0  0  0
   15.0443    3.4855   -1.9951 C   0  0  0  0  0  0  0  0  0  0  0  0
   14.5915    2.1650   -2.0072 C   0  0  0  0  0  0  0  0  0  0  0  0
    7.1420    0.9058    1.9833 C   0  0  1  0  0  0  0  0  0  0  0  0
    5.9579    0.3621    1.1747 C   0  0  0  0  0  0  0  0  0  0  0  0
    8.2392   -0.1533    2.1518 C   0  0  0  0  0  0  0  0  0  0  0  0
   12.9531    9.6864    3.7189 H   0  0  0  0  0  0  0  0  0  0  0  0
   13.5913    8.1134    4.2478 H   0  0  0  0  0  0  0  0  0  0  0  0
   12.3756    8.9572    5.2338 H   0  0  0  0  0  0  0  0  0  0  0  0
   11.8847    7.8345    2.3872 H   0  0  0  0  0  0  0  0  0  0  0  0
   10.6789    8.6777    3.3644 H   0  0  0  0  0  0  0  0  0  0  0  0
   10.8566    6.8525    5.1152 H   0  0  0  0  0  0  0  0  0  0  0  0
   12.0250    6.0008    4.0829 H   0  0  0  0  0  0  0  0  0  0  0  0
    9.1610    6.3954    3.3814 H   0  0  0  0  0  0  0  0  0  0  0  0
    9.7303    2.3548    2.0637 H   0  0  0  0  0  0  0  0  0  0  0  0
    7.7045    3.3138    3.7794 H   0  0  0  0  0  0  0  0  0  0  0  0
    6.8183    2.9266    1.2874 H   0  0  0  0  0  0  0  0  0  0  0  0
    9.0426    1.5842   -0.1625 H   0  0  0  0  0  0  0  0  0  0  0  0
    9.3405    2.4740   -2.2730 H   0  0  0  0  0  0  0  0  0  0  0  0
    7.8928    3.1215   -3.0888 H   0  0  0  0  0  0  0  0  0  0  0  0
    5.8210    1.4452   -2.9912 H   0  0  0  0  0  0  0  0  0  0  0  0
    4.2002   -0.1370   -2.2084 H   0  0  0  0  0  0  0  0  0  0  0  0
    1.7842   -0.6031   -2.4799 H   0  0  0  0  0  0  0  0  0  0  0  0
    0.9338   -1.5525   -4.6391 H   0  0  0  0  0  0  0  0  0  0  0  0
    2.5363   -1.9854   -6.5041 H   0  0  0  0  0  0  0  0  0  0  0  0
   10.7870   -0.4637   -3.8671 H   0  0  0  0  0  0  0  0  0  0  0  0
   13.9886   -0.4036   -1.2607 H   0  0  0  0  0  0  0  0  0  0  0  0
   12.6477    0.0359   -0.1555 H   0  0  0  0  0  0  0  0  0  0  0  0
   12.4383    2.3137    0.6374 H   0  0  0  0  0  0  0  0  0  0  0  0
   13.2453    4.6300    0.6792 H   0  0  0  0  0  0  0  0  0  0  0  0
   14.9253    5.4135   -1.0191 H   0  0  0  0  0  0  0  0  0  0  0  0
   15.7761    3.8172   -2.7364 H   0  0  0  0  0  0  0  0  0  0  0  0
   14.9698    1.4662   -2.7592 H   0  0  0  0  0  0  0  0  0  0  0  0
    6.7742    1.1674    2.9895 H   0  0  0  0  0  0  0  0  0  0  0  0
    6.2791    0.0445    0.1695 H   0  0  0  0  0  0  0  0  0  0  0  0
    5.1710    1.1216    1.0461 H   0  0  0  0  0  0  0  0  0  0  0  0
    5.5156   -0.5131    1.6772 H   0  0  0  0  0  0  0  0  0  0  0  0
    8.7102   -0.4037    1.1867 H   0  0  0  0  0  0  0  0  0  0  0  0
    7.8162   -1.0840    2.5628 H   0  0  0  0  0  0  0  0  0  0  0  0
    9.0266    0.1812    2.8443 H   0  0  0  0  0  0  0  0  0  0  0  0
  1  2  1  0
  1 46  1  0
  1 47  1  0
  1 48  1  0
  2  3  1  0
  2 49  1  0
  2 50  1  0
  3  4  1  0
  3 51  1  0
  3 52  1  0
  4  5  1  0
  4 53  1  0
  5  6  2  0
  5  7  1  0
  7  8  1  1
  7  9  1  0
  7 10  1  0
 10 11  1  0
 10 12  1  0
 10 54  1  1
 11 55  1  0
 12 13  1  0
 12 43  1  0
 12 56  1  6
 13 14  1  0
 13 57  1  0
 14 15  2  0
 14 16  1  0
 16 17  1  0
 16 58  1  0
 16 59  1  0
 17 18  1  0
 17 31  2  0
 18 19  2  0
 18 60  1  0
 19 20  1  0
 19 27  1  0
 20 21  2  0
 20 25  1  0
 21 22  1  0
 21 61  1  0
 22 23  2  0
 22 62  1  0
 23 24  1  0
 23 63  1  0
 24 25  2  0
 24 64  1  0
 25 26  1  0
 27 28  1  0
 27 29  1  0
 29 30  2  0
 29 31  1  0
 31 32  1  0
 32 33  1  0
 32 65  1  0
 33 34  2  0
 33 35  1  0
 35 36  1  0
 36 37  1  0
 36 66  1  0
 36 67  1  0
 37 38  2  0
 37 42  1  0
 38 39  1  0
 38 68  1  0
 39 40  2  0
 39 69  1  0
 40 41  1  0
 40 70  1  0
 41 42  2  0
 41 71  1  0
 42 72  1  0
 43 44  1  0
 43 45  1  0
 43 73  1  1
 44 74  1  0
 44 75  1  0
 44 76  1  0
 45 77  1  0
 45 78  1  0
 45 79  1  0
M  END

