
     RDKit          3D

 69 70  0  0  0  0  0  0  0  0999 V2000
    3.3845    0.2674   -3.1159 C   0  0  0  0  0  0  0  0  0  0  0  0
    4.0732    0.2283   -2.1577 N   0  0  0  0  0  0  0  0  0  0  0  0
    4.8708    0.1156   -1.0563 C   0  0  0  0  0  0  0  0  0  0  0  0
    5.1070   -1.0393   -0.3331 C   0  0  0  0  0  0  0  0  0  0  0  0
    4.5763   -2.3783   -0.4687 C   0  0  0  0  0  0  0  0  0  0  0  0
    5.1640   -3.4743    0.2164 C   0  0  0  0  0  0  0  0  0  0  0  0
    4.6770   -4.7630    0.0950 C   0  0  0  0  0  0  0  0  0  0  0  0
    3.5506   -5.0653   -0.7224 C   0  0  0  0  0  0  0  0  0  0  0  0
    3.0653   -6.3440   -0.8496 N   0  0  0  0  0  0  0  0  0  0  0  0
    3.6432   -7.4523   -0.0857 C   0  0  0  0  0  0  0  0  0  0  0  0
    3.1935   -7.5384    1.3819 C   0  0  0  0  0  0  0  0  0  0  0  0
    1.6957   -7.7865    1.5866 C   0  0  0  0  0  0  0  0  0  0  0  0
    1.3028   -7.8954    3.0608 C   0  0  0  0  0  0  0  0  0  0  0  0
    1.9536   -6.6466   -1.7550 C   0  0  0  0  0  0  0  0  0  0  0  0
    2.3309   -6.7476   -3.2417 C   0  0  0  0  0  0  0  0  0  0  0  0
    3.3106   -7.8738   -3.5862 C   0  0  0  0  0  0  0  0  0  0  0  0
    3.6296   -7.9536   -5.0801 C   0  0  0  0  0  0  0  0  0  0  0  0
    2.9529   -3.9630   -1.3994 C   0  0  0  0  0  0  0  0  0  0  0  0
    3.4485   -2.6783   -1.2761 C   0  0  0  0  0  0  0  0  0  0  0  0
    6.1015   -0.6478    0.7228 C   0  0  0  0  0  0  0  0  0  0  0  0
    6.5988   -1.3161    1.6027 O   0  0  0  0  0  0  0  0  0  0  0  0
    6.4020    0.7106    0.5311 N   0  0  0  0  0  0  0  0  0  0  0  0
    7.2484    1.3905    1.4872 C   0  0  0  0  0  0  0  0  0  0  0  0
    6.4460    2.2200    2.4941 C   0  0  0  0  0  0  0  0  0  0  0  0
    5.2402    2.2526    2.5171 O   0  0  0  0  0  0  0  0  0  0  0  0
    7.2868    2.8555    3.3020 O   0  0  0  0  0  0  0  0  0  0  0  0
    6.8377    3.8016    4.3462 C   0  0  1  0  0  0  0  0  0  0  0  0
    6.0122    3.0497    5.3930 C   0  0  0  0  0  0  0  0  0  0  0  0
    8.1562    4.3004    4.9367 C   0  0  0  0  0  0  0  0  0  0  0  0
    6.0582    4.9480    3.6968 C   0  0  0  0  0  0  0  0  0  0  0  0
    5.6544    1.2325   -0.5115 C   0  0  0  0  0  0  0  0  0  0  0  0
    5.6681    2.5429   -0.9484 C   0  0  0  0  0  0  0  0  0  0  0  0
    6.4812    3.5681   -0.3682 C   0  0  0  0  0  0  0  0  0  0  0  0
    7.1236    4.4328    0.0693 N   0  0  0  0  0  0  0  0  0  0  0  0
    4.8747    2.9862   -1.9837 N   0  0  0  0  0  0  0  0  0  0  0  0
    4.2538    3.5092   -2.8413 C   0  0  0  0  0  0  0  0  0  0  0  0
    6.0228   -3.2972    0.8611 H   0  0  0  0  0  0  0  0  0  0  0  0
    5.1834   -5.5510    0.6492 H   0  0  0  0  0  0  0  0  0  0  0  0
    4.7427   -7.3977   -0.1343 H   0  0  0  0  0  0  0  0  0  0  0  0
    3.3699   -8.3831   -0.6037 H   0  0  0  0  0  0  0  0  0  0  0  0
    3.4853   -6.6156    1.9118 H   0  0  0  0  0  0  0  0  0  0  0  0
    3.7687   -8.3554    1.8547 H   0  0  0  0  0  0  0  0  0  0  0  0
    1.4017   -8.7119    1.0575 H   0  0  0  0  0  0  0  0  0  0  0  0
    1.1216   -6.9691    1.1164 H   0  0  0  0  0  0  0  0  0  0  0  0
    1.8315   -8.7262    3.5573 H   0  0  0  0  0  0  0  0  0  0  0  0
    0.2219   -8.0716    3.1779 H   0  0  0  0  0  0  0  0  0  0  0  0
    1.5508   -6.9718    3.6097 H   0  0  0  0  0  0  0  0  0  0  0  0
    1.1581   -5.8955   -1.6242 H   0  0  0  0  0  0  0  0  0  0  0  0
    1.5161   -7.6005   -1.4262 H   0  0  0  0  0  0  0  0  0  0  0  0
    2.7483   -5.7849   -3.5829 H   0  0  0  0  0  0  0  0  0  0  0  0
    1.3934   -6.8902   -3.8096 H   0  0  0  0  0  0  0  0  0  0  0  0
    2.8932   -8.8398   -3.2464 H   0  0  0  0  0  0  0  0  0  0  0  0
    4.2480   -7.7294   -3.0210 H   0  0  0  0  0  0  0  0  0  0  0  0
    2.7194   -8.1330   -5.6763 H   0  0  0  0  0  0  0  0  0  0  0  0
    4.3366   -8.7694   -5.2983 H   0  0  0  0  0  0  0  0  0  0  0  0
    4.0814   -7.0155   -5.4428 H   0  0  0  0  0  0  0  0  0  0  0  0
    2.0811   -4.1113   -2.0336 H   0  0  0  0  0  0  0  0  0  0  0  0
    2.9300   -1.8862   -1.8109 H   0  0  0  0  0  0  0  0  0  0  0  0
    7.9996    2.0240    0.9990 H   0  0  0  0  0  0  0  0  0  0  0  0
    7.7832    0.6047    2.0403 H   0  0  0  0  0  0  0  0  0  0  0  0
    6.5883    2.2085    5.8093 H   0  0  0  0  0  0  0  0  0  0  0  0
    5.0799    2.6631    4.9614 H   0  0  0  0  0  0  0  0  0  0  0  0
    5.7591    3.7314    6.2199 H   0  0  0  0  0  0  0  0  0  0  0  0
    8.7422    3.4618    5.3424 H   0  0  0  0  0  0  0  0  0  0  0  0
    7.9603    5.0152    5.7501 H   0  0  0  0  0  0  0  0  0  0  0  0
    8.7590    4.8041    4.1663 H   0  0  0  0  0  0  0  0  0  0  0  0
    5.0935    4.6039    3.3026 H   0  0  0  0  0  0  0  0  0  0  0  0
    6.6378    5.3861    2.8703 H   0  0  0  0  0  0  0  0  0  0  0  0
    5.8710    5.7328    4.4462 H   0  0  0  0  0  0  0  0  0  0  0  0
  1  2  2  0
  2  3  2  0
  3  4  1  0
  3 31  1  0
  4  5  2  0
  4 20  1  0
  5  6  1  0
  5 19  1  0
  6  7  2  0
  6 37  1  0
  7  8  1  0
  7 38  1  0
  8  9  2  0
  8 18  1  0
  9 10  1  0
  9 14  1  0
 10 11  1  0
 10 39  1  0
 10 40  1  0
 11 12  1  0
 11 41  1  0
 11 42  1  0
 12 13  1  0
 12 43  1  0
 12 44  1  0
 13 45  1  0
 13 46  1  0
 13 47  1  0
 14 15  1  0
 14 48  1  0
 14 49  1  0
 15 16  1  0
 15 50  1  0
 15 51  1  0
 16 17  1  0
 16 52  1  0
 16 53  1  0
 17 54  1  0
 17 55  1  0
 17 56  1  0
 18 19  2  0
 18 57  1  0
 19 58  1  0
 20 21  1  0
 20 22  2  0
 22 23  1  0
 22 31  1  0
 23 24  1  0
 23 59  1  0
 23 60  1  0
 24 25  1  0
 24 26  2  0
 27 26  1  6
 27 28  1  0
 27 29  1  0
 27 30  1  0
 28 61  1  0
 28 62  1  0
 28 63  1  0
 29 64  1  0
 29 65  1  0
 29 66  1  0
 30 67  1  0
 30 68  1  0
 30 69  1  0
 31 32  2  0
 32 33  1  0
 32 35  1  0
 33 34  3  0
 35 36  3  0
M  CHG  8   1  -2   2   1   9   1  21  -1  22   1  25  -1  26   1  35   1
M  CHG  1  36  -1
M  END

