
     RDKit          3D

 50 53  0  0  0  0  0  0  0  0999 V2000
   -0.1342    0.9756    0.5118 C   0  0  0  0  0  0  0  0  0  0  0  0
    1.2499    0.9030    0.9615 N   0  0  0  0  0  0  0  0  0  0  0  0
    2.2128    1.8931    0.9997 C   0  0  0  0  0  0  0  0  0  0  0  0
    2.0711    3.3043    0.5034 C   0  0  0  0  0  0  0  0  0  0  0  0
    2.3960    3.4779   -0.9054 N   0  0  0  0  0  0  0  0  0  0  0  0
    1.4501    3.5526   -1.8843 C   0  0  0  0  0  0  0  0  0  0  0  0
    0.1633    3.5696   -1.6773 N   0  0  0  0  0  0  0  0  0  0  0  0
   -0.5486    3.6839   -2.8612 C   0  0  0  0  0  0  0  0  0  0  0  0
   -2.0254    3.7337   -2.8182 C   0  0  0  0  0  0  0  0  0  0  0  0
   -2.6857    4.0379   -1.6134 C   0  0  0  0  0  0  0  0  0  0  0  0
   -4.0794    4.1052   -1.5597 C   0  0  0  0  0  0  0  0  0  0  0  0
   -4.8423    3.8683   -2.7067 C   0  0  0  0  0  0  0  0  0  0  0  0
   -4.1977    3.5600   -3.9097 C   0  0  0  0  0  0  0  0  0  0  0  0
   -2.8056    3.4906   -3.9647 C   0  0  0  0  0  0  0  0  0  0  0  0
    0.2250    3.7502   -3.9926 C   0  0  0  0  0  0  0  0  0  0  0  0
    1.9184    3.6723   -3.5842 S   0  0  0  0  0  0  0  0  0  0  0  0
    3.3289    1.4173    1.4973 N   0  0  0  0  0  0  0  0  0  0  0  0
    3.1214    0.1044    1.8097 N   0  0  0  0  0  0  0  0  0  0  0  0
    1.8787   -0.1935    1.4879 C   0  0  0  0  0  0  0  0  0  0  0  0
    1.0702   -1.7420    1.6877 S   0  0  0  0  0  0  0  0  0  0  0  0
    2.5222   -2.8345    1.9897 C   0  0  0  0  0  0  0  0  0  0  0  0
    2.9746   -2.9286    3.4562 C   0  0  0  0  0  0  0  0  0  0  0  0
    2.7181   -3.9251    4.1107 O   0  0  0  0  0  0  0  0  0  0  0  0
    3.6721   -1.8382    3.8879 N   0  0  0  0  0  0  0  0  0  0  0  0
    4.2049   -1.5879    5.1654 C   0  0  0  0  0  0  0  0  0  0  0  0
    4.1530   -2.5109    6.2263 C   0  0  0  0  0  0  0  0  0  0  0  0
    4.7152   -2.1736    7.4604 C   0  0  0  0  0  0  0  0  0  0  0  0
    5.3295   -0.9348    7.6631 C   0  0  0  0  0  0  0  0  0  0  0  0
    5.3788   -0.0186    6.6071 C   0  0  0  0  0  0  0  0  0  0  0  0
    4.8226   -0.3382    5.3695 C   0  0  0  0  0  0  0  0  0  0  0  0
   -0.2674    1.8540   -0.1345 H   0  0  0  0  0  0  0  0  0  0  0  0
   -0.8203    1.0378    1.3714 H   0  0  0  0  0  0  0  0  0  0  0  0
   -0.3743    0.0711   -0.0661 H   0  0  0  0  0  0  0  0  0  0  0  0
    2.7659    3.9115    1.1021 H   0  0  0  0  0  0  0  0  0  0  0  0
    1.0561    3.6911    0.6610 H   0  0  0  0  0  0  0  0  0  0  0  0
    3.3564    3.3104   -1.1792 H   0  0  0  0  0  0  0  0  0  0  0  0
   -2.0877    4.2316   -0.7217 H   0  0  0  0  0  0  0  0  0  0  0  0
   -4.5730    4.3481   -0.6150 H   0  0  0  0  0  0  0  0  0  0  0  0
   -5.9331    3.9197   -2.6642 H   0  0  0  0  0  0  0  0  0  0  0  0
   -4.7845    3.3637   -4.8107 H   0  0  0  0  0  0  0  0  0  0  0  0
   -2.3206    3.2254   -4.9068 H   0  0  0  0  0  0  0  0  0  0  0  0
   -0.0849    3.8668   -5.0278 H   0  0  0  0  0  0  0  0  0  0  0  0
    3.3325   -2.5088    1.3215 H   0  0  0  0  0  0  0  0  0  0  0  0
    2.1753   -3.8337    1.6987 H   0  0  0  0  0  0  0  0  0  0  0  0
    3.7580   -1.0721    3.2054 H   0  0  0  0  0  0  0  0  0  0  0  0
    3.6737   -3.4744    6.0694 H   0  0  0  0  0  0  0  0  0  0  0  0
    4.6693   -2.8990    8.2773 H   0  0  0  0  0  0  0  0  0  0  0  0
    5.7658   -0.6848    8.6332 H   0  0  0  0  0  0  0  0  0  0  0  0
    5.8543    0.9561    6.7459 H   0  0  0  0  0  0  0  0  0  0  0  0
    4.8595    0.3816    4.5470 H   0  0  0  0  0  0  0  0  0  0  0  0
  1  2  1  0
  1 31  1  0
  1 32  1  0
  1 33  1  0
  2  3  1  0
  2 19  1  0
  3  4  1  0
  3 17  2  0
  4  5  1  0
  4 34  1  0
  4 35  1  0
  5  6  1  0
  5 36  1  0
  6  7  2  0
  6 16  1  0
  7  8  1  0
  8  9  1  0
  8 15  2  0
  9 10  2  0
  9 14  1  0
 10 11  1  0
 10 37  1  0
 11 12  2  0
 11 38  1  0
 12 13  1  0
 12 39  1  0
 13 14  2  0
 13 40  1  0
 14 41  1  0
 15 16  1  0
 15 42  1  0
 17 18  1  0
 18 19  2  0
 19 20  1  0
 20 21  1  0
 21 22  1  0
 21 43  1  0
 21 44  1  0
 22 23  2  0
 22 24  1  0
 24 25  1  0
 24 45  1  0
 25 26  2  0
 25 30  1  0
 26 27  1  0
 26 46  1  0
 27 28  2  0
 27 47  1  0
 28 29  1  0
 28 48  1  0
 29 30  2  0
 29 49  1  0
 30 50  1  0
M  END

