
     RDKit          3D

 44 46  0  0  0  0  0  0  0  0999 V2000
    2.2788   -1.0994    0.6159 C   0  0  0  0  0  0  0  0  0  0  0  0
    3.7979   -1.0403    0.6234 C   0  0  0  0  0  0  0  0  0  0  0  0
    4.3208   -0.7135    1.9213 O   0  0  0  0  0  0  0  0  0  0  0  0
    4.3745    0.5859    2.2751 C   0  0  0  0  0  0  0  0  0  0  0  0
    4.0013    1.4747    1.5187 O   0  0  0  0  0  0  0  0  0  0  0  0
    4.9176    0.8103    3.6183 C   0  0  0  0  0  0  0  0  0  0  0  0
    5.0487    2.1121    4.1200 C   0  0  0  0  0  0  0  0  0  0  0  0
    4.6960    3.2742    3.4645 N   0  0  0  0  0  0  0  0  0  0  0  0
    4.7874    4.5322    4.0147 C   0  0  0  0  0  0  0  0  0  0  0  0
    5.2163    4.7247    5.1386 O   0  0  0  0  0  0  0  0  0  0  0  0
    4.2948    5.6734    3.1348 C   0  0  0  0  0  0  0  0  0  0  0  0
    5.6170    6.4842    2.1561 S   0  0  0  0  0  0  0  0  0  0  0  0
    5.6439    5.4873    0.6913 C   0  0  0  0  0  0  0  0  0  0  0  0
    4.8722    4.4020    0.6121 N   0  0  0  0  0  0  0  0  0  0  0  0
    4.9292    3.7012   -0.5249 C   0  0  0  0  0  0  0  0  0  0  0  0
    5.7537    4.0834   -1.5825 C   0  0  0  0  0  0  0  0  0  0  0  0
    6.5274    5.2324   -1.3809 C   0  0  0  0  0  0  0  0  0  0  0  0
    6.4793    5.9363   -0.2527 N   0  0  0  0  0  0  0  0  0  0  0  0
    5.7262    2.1251    5.7217 S   0  0  0  0  0  0  0  0  0  0  0  0
    5.8408    0.3782    5.7265 C   0  0  0  0  0  0  0  0  0  0  0  0
    5.3732   -0.1887    4.5705 C   0  0  0  0  0  0  0  0  0  0  0  0
    5.3771   -1.6905    4.3847 C   0  0  0  0  0  0  0  0  0  0  0  0
    5.6446   -2.4386    5.7000 C   0  0  0  0  0  0  0  0  0  0  0  0
    6.7724   -1.7966    6.5132 C   0  0  0  0  0  0  0  0  0  0  0  0
    6.4033   -0.3604    6.9108 C   0  0  0  0  0  0  0  0  0  0  0  0
    1.9223   -1.4275   -0.3739 H   0  0  0  0  0  0  0  0  0  0  0  0
    1.8480   -0.1096    0.8254 H   0  0  0  0  0  0  0  0  0  0  0  0
    1.9085   -1.8139    1.3674 H   0  0  0  0  0  0  0  0  0  0  0  0
    4.1669   -0.3066   -0.1084 H   0  0  0  0  0  0  0  0  0  0  0  0
    4.2343   -2.0227    0.3914 H   0  0  0  0  0  0  0  0  0  0  0  0
    4.3845    3.1592    2.4923 H   0  0  0  0  0  0  0  0  0  0  0  0
    3.9315    6.4598    3.8097 H   0  0  0  0  0  0  0  0  0  0  0  0
    3.4958    5.3649    2.4485 H   0  0  0  0  0  0  0  0  0  0  0  0
    4.3084    2.8006   -0.5625 H   0  0  0  0  0  0  0  0  0  0  0  0
    5.8017    3.5124   -2.5109 H   0  0  0  0  0  0  0  0  0  0  0  0
    7.2114    5.5956   -2.1574 H   0  0  0  0  0  0  0  0  0  0  0  0
    6.1392   -1.9595    3.6305 H   0  0  0  0  0  0  0  0  0  0  0  0
    4.4214   -2.0186    3.9521 H   0  0  0  0  0  0  0  0  0  0  0  0
    5.8778   -3.4935    5.4813 H   0  0  0  0  0  0  0  0  0  0  0  0
    4.7236   -2.4440    6.3109 H   0  0  0  0  0  0  0  0  0  0  0  0
    7.6983   -1.7836    5.9107 H   0  0  0  0  0  0  0  0  0  0  0  0
    6.9896   -2.3910    7.4156 H   0  0  0  0  0  0  0  0  0  0  0  0
    7.2843    0.1682    7.3134 H   0  0  0  0  0  0  0  0  0  0  0  0
    5.6621   -0.3801    7.7326 H   0  0  0  0  0  0  0  0  0  0  0  0
  1  2  1  0
  1 26  1  0
  1 27  1  0
  1 28  1  0
  2  3  1  0
  2 29  1  0
  2 30  1  0
  3  4  1  0
  4  5  2  0
  4  6  1  0
  6  7  2  0
  6 21  1  0
  7  8  1  0
  7 19  1  0
  8  9  1  0
  8 31  1  0
  9 10  2  0
  9 11  1  0
 11 12  1  0
 11 32  1  0
 11 33  1  0
 12 13  1  0
 13 14  2  0
 13 18  1  0
 14 15  1  0
 15 16  2  0
 15 34  1  0
 16 17  1  0
 16 35  1  0
 17 18  2  0
 17 36  1  0
 19 20  1  0
 20 21  2  0
 20 25  1  0
 21 22  1  0
 22 23  1  0
 22 37  1  0
 22 38  1  0
 23 24  1  0
 23 39  1  0
 23 40  1  0
 24 25  1  0
 24 41  1  0
 24 42  1  0
 25 43  1  0
 25 44  1  0
M  END

