
     RDKit          3D

 50 51  0  0  0  0  0  0  0  0999 V2000
    2.3263   -2.5812    3.7060 C   0  0  0  0  0  0  0  0  0  0  0  0
    2.4534   -3.9756    4.2600 C   0  0  0  0  0  0  0  0  0  0  0  0
    3.0017   -4.2319    5.5193 C   0  0  0  0  0  0  0  0  0  0  0  0
    3.1148   -5.5338    6.0250 C   0  0  0  0  0  0  0  0  0  0  0  0
    2.6695   -6.6055    5.2545 C   0  0  0  0  0  0  0  0  0  0  0  0
    2.1147   -6.3838    3.9875 C   0  0  0  0  0  0  0  0  0  0  0  0
    2.0066   -5.0775    3.4914 C   0  0  0  0  0  0  0  0  0  0  0  0
    1.4843   -4.7651    2.2738 O   0  0  0  0  0  0  0  0  0  0  0  0
    0.9969   -5.7886    1.4255 C   0  0  0  0  0  0  0  0  0  0  0  0
    0.4638   -5.1368    0.1589 C   0  0  0  0  0  0  0  0  0  0  0  0
   -0.0673   -6.1267   -0.8848 C   0  0  0  0  0  0  0  0  0  0  0  0
   -1.2133   -6.9250   -0.4459 N   0  0  0  0  0  0  0  0  0  0  0  0
   -1.0309   -8.2934   -0.0010 C   0  0  0  0  0  0  0  0  0  0  0  0
   -2.4607   -6.3332   -0.5369 C   0  0  0  0  0  0  0  0  0  0  0  0
   -2.6023   -5.1620   -0.8705 O   0  0  0  0  0  0  0  0  0  0  0  0
   -3.5374   -7.1328   -0.2004 N   0  0  0  0  0  0  0  0  0  0  0  0
   -4.8881   -6.6235   -0.3584 C   0  0  0  0  0  0  0  0  0  0  0  0
   -5.4340   -6.7418   -1.7864 C   0  0  0  0  0  0  0  0  0  0  0  0
   -6.8496   -6.1754   -1.9144 C   0  0  0  0  0  0  0  0  0  0  0  0
   -7.4123   -6.3557   -3.2428 N   0  0  0  0  0  0  0  0  0  0  0  0
   -7.5797   -5.4189   -4.2164 C   0  0  0  0  0  0  0  0  0  0  0  0
   -8.1005   -6.0772   -5.3186 C   0  0  0  0  0  0  0  0  0  0  0  0
   -8.2052   -7.4244   -4.8982 C   0  0  0  0  0  0  0  0  0  0  0  0
   -7.7847   -7.5806   -3.6450 N   0  0  0  0  0  0  0  0  0  0  0  0
    2.7083   -1.8357    4.4184 H   0  0  0  0  0  0  0  0  0  0  0  0
    1.2764   -2.3373    3.4743 H   0  0  0  0  0  0  0  0  0  0  0  0
    2.8813   -2.4750    2.7592 H   0  0  0  0  0  0  0  0  0  0  0  0
    3.3492   -3.3864    6.1203 H   0  0  0  0  0  0  0  0  0  0  0  0
    3.5479   -5.7031    7.0135 H   0  0  0  0  0  0  0  0  0  0  0  0
    2.7495   -7.6283    5.6323 H   0  0  0  0  0  0  0  0  0  0  0  0
    1.7709   -7.2334    3.3975 H   0  0  0  0  0  0  0  0  0  0  0  0
    0.1981   -6.3564    1.9385 H   0  0  0  0  0  0  0  0  0  0  0  0
    1.8109   -6.5024    1.1870 H   0  0  0  0  0  0  0  0  0  0  0  0
    1.2748   -4.5449   -0.2989 H   0  0  0  0  0  0  0  0  0  0  0  0
   -0.3406   -4.4321    0.4187 H   0  0  0  0  0  0  0  0  0  0  0  0
    0.7277   -6.8244   -1.1967 H   0  0  0  0  0  0  0  0  0  0  0  0
   -0.3700   -5.5543   -1.7732 H   0  0  0  0  0  0  0  0  0  0  0  0
    0.0373   -8.4875    0.1632 H   0  0  0  0  0  0  0  0  0  0  0  0
   -1.3868   -9.0400   -0.7394 H   0  0  0  0  0  0  0  0  0  0  0  0
   -1.5486   -8.4815    0.9552 H   0  0  0  0  0  0  0  0  0  0  0  0
   -3.4243   -8.1383   -0.1968 H   0  0  0  0  0  0  0  0  0  0  0  0
   -4.8714   -5.5664   -0.0546 H   0  0  0  0  0  0  0  0  0  0  0  0
   -5.5445   -7.1609    0.3476 H   0  0  0  0  0  0  0  0  0  0  0  0
   -5.4537   -7.7985   -2.1015 H   0  0  0  0  0  0  0  0  0  0  0  0
   -4.7586   -6.2028   -2.4701 H   0  0  0  0  0  0  0  0  0  0  0  0
   -6.8594   -5.0967   -1.6938 H   0  0  0  0  0  0  0  0  0  0  0  0
   -7.5274   -6.6667   -1.1972 H   0  0  0  0  0  0  0  0  0  0  0  0
   -7.3232   -4.3741   -4.0519 H   0  0  0  0  0  0  0  0  0  0  0  0
   -8.3698   -5.6462   -6.2800 H   0  0  0  0  0  0  0  0  0  0  0  0
   -8.5754   -8.2833   -5.4583 H   0  0  0  0  0  0  0  0  0  0  0  0
  1  2  1  0
  1 25  1  0
  1 26  1  0
  1 27  1  0
  2  3  2  0
  2  7  1  0
  3  4  1  0
  3 28  1  0
  4  5  2  0
  4 29  1  0
  5  6  1  0
  5 30  1  0
  6  7  2  0
  6 31  1  0
  7  8  1  0
  8  9  1  0
  9 10  1  0
  9 32  1  0
  9 33  1  0
 10 11  1  0
 10 34  1  0
 10 35  1  0
 11 12  1  0
 11 36  1  0
 11 37  1  0
 12 13  1  0
 12 14  1  0
 13 38  1  0
 13 39  1  0
 13 40  1  0
 14 15  2  0
 14 16  1  0
 16 17  1  0
 16 41  1  0
 17 18  1  0
 17 42  1  0
 17 43  1  0
 18 19  1  0
 18 44  1  0
 18 45  1  0
 19 20  1  0
 19 46  1  0
 19 47  1  0
 20 21  1  0
 20 24  1  0
 21 22  2  0
 21 48  1  0
 22 23  1  0
 22 49  1  0
 23 24  2  0
 23 50  1  0
M  END

