
     RDKit          3D

 46 48  0  0  0  0  0  0  0  0999 V2000
   -0.0377   -0.7573   -0.6613 C   0  0  0  0  0  0  0  0  0  0  0  0
    1.3312   -0.5119   -0.0066 C   0  0  1  0  0  0  0  0  0  0  0  0
    1.6565   -1.6599    0.9690 C   0  0  0  0  0  0  0  0  0  0  0  0
    1.1365   -2.7575    0.8297 O   0  0  0  0  0  0  0  0  0  0  0  0
    2.5637   -1.4231    1.9801 N   0  0  0  0  0  0  0  0  0  0  0  0
    3.3253   -0.2026    2.2179 C   0  0  0  0  0  0  0  0  0  0  0  0
    3.1895    0.2389    3.6780 C   0  0  0  0  0  0  0  0  0  0  0  0
    3.5245   -0.8569    4.5824 N   0  0  0  0  0  0  0  0  0  0  0  0
    4.4056   -0.6510    5.6023 C   0  0  0  0  0  0  0  0  0  0  0  0
    4.9716    0.4214    5.7871 O   0  0  0  0  0  0  0  0  0  0  0  0
    4.7154   -1.8026    6.5726 C   0  0  0  0  0  0  0  0  0  0  0  0
    5.6323   -1.3741    7.5231 O   0  0  0  0  0  0  0  0  0  0  0  0
    2.7924   -2.0952    4.3358 C   0  0  0  0  0  0  0  0  0  0  0  0
    2.9297   -2.5189    2.8708 C   0  0  0  0  0  0  0  0  0  0  0  0
    2.4369   -0.3711   -1.0492 C   0  0  0  0  0  0  0  0  0  0  0  0
    2.9166   -1.5231   -1.7396 C   0  0  0  0  0  0  0  0  0  0  0  0
    3.8849   -1.4121   -2.7128 C   0  0  0  0  0  0  0  0  0  0  0  0
    4.4364   -0.1477   -3.0636 C   0  0  0  0  0  0  0  0  0  0  0  0
    5.4373    0.0014   -4.0636 C   0  0  0  0  0  0  0  0  0  0  0  0
    5.9455    1.2456   -4.3746 C   0  0  0  0  0  0  0  0  0  0  0  0
    5.4743    2.3994   -3.6976 C   0  0  0  0  0  0  0  0  0  0  0  0
    4.5049    2.2878   -2.7225 C   0  0  0  0  0  0  0  0  0  0  0  0
    3.9602    1.0188   -2.3776 C   0  0  0  0  0  0  0  0  0  0  0  0
    2.9602    0.8667   -1.3762 C   0  0  0  0  0  0  0  0  0  0  0  0
   -0.8321   -0.8115    0.0988 H   0  0  0  0  0  0  0  0  0  0  0  0
   -0.0427   -1.7076   -1.2120 H   0  0  0  0  0  0  0  0  0  0  0  0
   -0.2725    0.0599   -1.3596 H   0  0  0  0  0  0  0  0  0  0  0  0
    1.2723    0.4347    0.5523 H   0  0  0  0  0  0  0  0  0  0  0  0
    2.9877    0.6015    1.5566 H   0  0  0  0  0  0  0  0  0  0  0  0
    4.3923   -0.3848    1.9890 H   0  0  0  0  0  0  0  0  0  0  0  0
    2.1489    0.5651    3.8662 H   0  0  0  0  0  0  0  0  0  0  0  0
    3.8615    1.0767    3.9023 H   0  0  0  0  0  0  0  0  0  0  0  0
    5.1045   -2.6674    5.9958 H   0  0  0  0  0  0  0  0  0  0  0  0
    3.7684   -2.1396    7.0432 H   0  0  0  0  0  0  0  0  0  0  0  0
    5.8135   -0.4430    7.2867 H   0  0  0  0  0  0  0  0  0  0  0  0
    1.7222   -1.9454    4.5734 H   0  0  0  0  0  0  0  0  0  0  0  0
    3.1669   -2.8968    4.9837 H   0  0  0  0  0  0  0  0  0  0  0  0
    2.2758   -3.3697    2.6445 H   0  0  0  0  0  0  0  0  0  0  0  0
    3.9768   -2.8196    2.6754 H   0  0  0  0  0  0  0  0  0  0  0  0
    2.5063   -2.5033   -1.4844 H   0  0  0  0  0  0  0  0  0  0  0  0
    4.2436   -2.3053   -3.2321 H   0  0  0  0  0  0  0  0  0  0  0  0
    5.7982   -0.8899   -4.5842 H   0  0  0  0  0  0  0  0  0  0  0  0
    6.7139    1.3471   -5.1452 H   0  0  0  0  0  0  0  0  0  0  0  0
    5.8837    3.3802   -3.9526 H   0  0  0  0  0  0  0  0  0  0  0  0
    4.1414    3.1776   -2.2008 H   0  0  0  0  0  0  0  0  0  0  0  0
    2.5999    1.7649   -0.8640 H   0  0  0  0  0  0  0  0  0  0  0  0
  1  2  1  0
  1 25  1  0
  1 26  1  0
  1 27  1  0
  2  3  1  0
  2 15  1  0
  2 28  1  1
  3  4  2  0
  3  5  1  0
  5  6  1  0
  5 14  1  0
  6  7  1  0
  6 29  1  0
  6 30  1  0
  7  8  1  0
  7 31  1  0
  7 32  1  0
  8  9  1  0
  8 13  1  0
  9 10  2  0
  9 11  1  0
 11 12  1  0
 11 33  1  0
 11 34  1  0
 12 35  1  0
 13 14  1  0
 13 36  1  0
 13 37  1  0
 14 38  1  0
 14 39  1  0
 15 16  2  0
 15 24  1  0
 16 17  1  0
 16 40  1  0
 17 18  2  0
 17 41  1  0
 18 19  1  0
 18 23  1  0
 19 20  2  0
 19 42  1  0
 20 21  1  0
 20 43  1  0
 21 22  2  0
 21 44  1  0
 22 23  1  0
 22 45  1  0
 23 24  2  0
 24 46  1  0
M  END

