
     RDKit          3D

 48 49  0  0  0  0  0  0  0  0999 V2000
    0.5453   -1.3425   -3.9523 C   0  0  0  0  0  0  0  0  0  0  0  0
    2.0510   -1.0990   -3.8399 C   0  0  0  0  0  0  0  0  0  0  0  0
    2.8342   -2.3237   -3.3573 C   0  0  0  0  0  0  0  0  0  0  0  0
    4.3433   -2.0874   -3.2425 C   0  0  0  0  0  0  0  0  0  0  0  0
    5.1170   -3.3165   -2.7580 C   0  0  0  0  0  0  0  0  0  0  0  0
    6.6133   -3.0695   -2.6511 C   0  0  0  0  0  0  0  0  0  0  0  0
    7.2290   -4.2651   -2.1942 O   0  0  0  0  0  0  0  0  0  0  0  0
    8.5658   -4.3038   -2.0143 C   0  0  0  0  0  0  0  0  0  0  0  0
    9.4513   -3.2456   -2.2448 C   0  0  0  0  0  0  0  0  0  0  0  0
   10.8406   -3.3965   -2.0431 C   0  0  0  0  0  0  0  0  0  0  0  0
   11.7408   -2.2357   -2.2756 C   0  0  0  0  0  0  0  0  0  0  0  0
   11.3881   -0.9752   -1.7657 C   0  0  0  0  0  0  0  0  0  0  0  0
   12.1977    0.1493   -1.9386 C   0  0  0  0  0  0  0  0  0  0  0  0
   11.8026    1.4845   -1.3657 C   0  0  0  0  0  0  0  0  0  0  0  0
   13.4092    0.0160   -2.6524 C   0  0  0  0  0  0  0  0  0  0  0  0
   14.2711    1.1381   -2.8530 C   0  0  0  0  0  0  0  0  0  0  0  0
   15.0034    2.0221   -3.0424 N   0  0  0  0  0  0  0  0  0  0  0  0
   13.8079   -1.2379   -3.1973 C   0  0  0  0  0  0  0  0  0  0  0  0
   14.9637   -1.3584   -3.8935 N   0  0  0  0  0  0  0  0  0  0  0  0
   12.9495   -2.3626   -3.0002 C   0  0  0  0  0  0  0  0  0  0  0  0
   13.3633   -3.5875   -3.6124 C   0  0  0  0  0  0  0  0  0  0  0  0
   13.7955   -4.5226   -4.1528 N   0  0  0  0  0  0  0  0  0  0  0  0
   11.3352   -4.6289   -1.5944 C   0  0  0  0  0  0  0  0  0  0  0  0
   10.4588   -5.6916   -1.3511 C   0  0  0  0  0  0  0  0  0  0  0  0
    9.0991   -5.5296   -1.5604 C   0  0  0  0  0  0  0  0  0  0  0  0
    8.2601   -6.5443   -1.3340 F   0  0  0  0  0  0  0  0  0  0  0  0
    0.0146   -0.4424   -4.3014 H   0  0  0  0  0  0  0  0  0  0  0  0
    0.1115   -1.6280   -2.9793 H   0  0  0  0  0  0  0  0  0  0  0  0
    0.3227   -2.1563   -4.6627 H   0  0  0  0  0  0  0  0  0  0  0  0
    2.2379   -0.2546   -3.1515 H   0  0  0  0  0  0  0  0  0  0  0  0
    2.4472   -0.7785   -4.8208 H   0  0  0  0  0  0  0  0  0  0  0  0
    2.6498   -3.1697   -4.0452 H   0  0  0  0  0  0  0  0  0  0  0  0
    2.4405   -2.6456   -2.3754 H   0  0  0  0  0  0  0  0  0  0  0  0
    4.5265   -1.2407   -2.5549 H   0  0  0  0  0  0  0  0  0  0  0  0
    4.7362   -1.7671   -4.2254 H   0  0  0  0  0  0  0  0  0  0  0  0
    4.9514   -4.1660   -3.4425 H   0  0  0  0  0  0  0  0  0  0  0  0
    4.7444   -3.6374   -1.7702 H   0  0  0  0  0  0  0  0  0  0  0  0
    6.8233   -2.2428   -1.9452 H   0  0  0  0  0  0  0  0  0  0  0  0
    7.0327   -2.7804   -3.6339 H   0  0  0  0  0  0  0  0  0  0  0  0
    9.0711   -2.2935   -2.6127 H   0  0  0  0  0  0  0  0  0  0  0  0
   10.4686   -0.8805   -1.1863 H   0  0  0  0  0  0  0  0  0  0  0  0
   10.8347    1.4264   -0.8494 H   0  0  0  0  0  0  0  0  0  0  0  0
   11.7298    2.2497   -2.1556 H   0  0  0  0  0  0  0  0  0  0  0  0
   12.5564    1.8471   -0.6479 H   0  0  0  0  0  0  0  0  0  0  0  0
   15.5589   -0.5547   -4.0463 H   0  0  0  0  0  0  0  0  0  0  0  0
   15.2366   -2.2494   -4.2887 H   0  0  0  0  0  0  0  0  0  0  0  0
   12.4012   -4.7643   -1.4097 H   0  0  0  0  0  0  0  0  0  0  0  0
   10.8209   -6.6575   -0.9935 H   0  0  0  0  0  0  0  0  0  0  0  0
  1  2  1  0
  1 27  1  0
  1 28  1  0
  1 29  1  0
  2  3  1  0
  2 30  1  0
  2 31  1  0
  3  4  1  0
  3 32  1  0
  3 33  1  0
  4  5  1  0
  4 34  1  0
  4 35  1  0
  5  6  1  0
  5 36  1  0
  5 37  1  0
  6  7  1  0
  6 38  1  0
  6 39  1  0
  7  8  1  0
  8  9  2  0
  8 25  1  0
  9 10  1  0
  9 40  1  0
 10 11  1  0
 10 23  2  0
 11 12  2  0
 11 20  1  0
 12 13  1  0
 12 41  1  0
 13 14  1  0
 13 15  2  0
 14 42  1  0
 14 43  1  0
 14 44  1  0
 15 16  1  0
 15 18  1  0
 16 17  3  0
 18 19  1  0
 18 20  2  0
 19 45  1  0
 19 46  1  0
 20 21  1  0
 21 22  3  0
 23 24  1  0
 23 47  1  0
 24 25  2  0
 24 48  1  0
 25 26  1  0
M  END

