
     RDKit          3D

 73 78  0  0  0  0  0  0  0  0999 V2000
    3.7095    8.3835    0.9964 C   0  0  0  0  0  0  0  0  0  0  0  0
    4.6724    8.5333    2.0227 O   0  0  0  0  0  0  0  0  0  0  0  0
    4.9961    7.4740    2.7963 C   0  0  0  0  0  0  0  0  0  0  0  0
    4.4953    6.1731    2.6268 C   0  0  0  0  0  0  0  0  0  0  0  0
    4.9074    5.1517    3.4919 C   0  0  0  0  0  0  0  0  0  0  0  0
    5.8154    5.3886    4.5278 C   0  0  0  0  0  0  0  0  0  0  0  0
    6.2291    4.2704    5.4688 C   0  0  1  0  0  0  0  0  0  0  0  0
    7.7468    4.1758    5.7597 C   0  0  0  0  0  0  0  0  0  0  0  0
    7.8344    4.6273    7.2066 C   0  0  0  0  0  0  0  0  0  0  0  0
    9.0710    4.8544    7.9304 C   0  0  0  0  0  0  0  0  0  0  0  0
    9.2416    5.2221    9.2542 C   0  0  0  0  0  0  0  0  0  0  0  0
   10.6069    5.3499    9.6232 C   0  0  0  0  0  0  0  0  0  0  0  0
   11.4674    5.0810    8.5837 C   0  0  0  0  0  0  0  0  0  0  0  0
   10.6188    4.6689    7.1397 S   0  0  0  0  0  0  0  0  0  0  0  0
    6.6769    4.7662    7.7659 N   0  0  0  0  0  0  0  0  0  0  0  0
    5.7008    4.4870    6.8486 N   0  0  0  0  0  0  0  0  0  0  0  0
    4.3743    4.3565    7.1641 C   0  0  0  0  0  0  0  0  0  0  0  0
    3.5750    3.9771    6.3180 O   0  0  0  0  0  0  0  0  0  0  0  0
    3.9666    4.7052    8.5894 C   0  0  0  0  0  0  0  0  0  0  0  0
    2.5079    5.8196    8.6259 S   0  0  0  0  0  0  0  0  0  0  0  0
    1.2155    4.6249    8.4971 C   0  0  0  0  0  0  0  0  0  0  0  0
    1.0712    3.5722    9.2631 N   0  0  0  0  0  0  0  0  0  0  0  0
   -0.0596    2.9193    8.8688 N   0  0  0  0  0  0  0  0  0  0  0  0
   -0.6097    3.6006    7.8920 C   0  0  0  0  0  0  0  0  0  0  0  0
   -1.8693    3.1862    7.1937 C   0  0  0  0  0  0  0  0  0  0  0  0
   -1.6720    2.8209    5.8020 N   0  0  0  0  0  0  0  0  0  0  0  0
   -2.3543    3.4306    4.7815 C   0  0  0  0  0  0  0  0  0  0  0  0
   -3.1286    4.3569    4.9785 O   0  0  0  0  0  0  0  0  0  0  0  0
   -2.0862    2.9087    3.3939 C   0  0  0  0  0  0  0  0  0  0  0  0
   -1.5488    1.6387    3.1273 C   0  0  0  0  0  0  0  0  0  0  0  0
   -1.3426    1.2198    1.8104 C   0  0  0  0  0  0  0  0  0  0  0  0
   -1.6725    2.0649    0.7468 C   0  0  0  0  0  0  0  0  0  0  0  0
   -2.2209    3.3262    1.0038 C   0  0  0  0  0  0  0  0  0  0  0  0
   -2.4337    3.7415    2.3183 C   0  0  0  0  0  0  0  0  0  0  0  0
    0.1657    4.7089    7.5979 N   0  0  0  0  0  0  0  0  0  0  0  0
    0.0087    5.6264    6.5131 C   0  0  0  0  0  0  0  0  0  0  0  0
   -1.1023    6.4772    6.4648 C   0  0  0  0  0  0  0  0  0  0  0  0
   -1.2630    7.3459    5.3860 C   0  0  0  0  0  0  0  0  0  0  0  0
   -0.2965    7.3518    4.3806 C   0  0  0  0  0  0  0  0  0  0  0  0
   -0.4656    8.2638    3.2311 N   0  0  0  0  0  0  0  0  0  0  0  0
   -1.4215    9.0203    3.2424 O   0  0  0  0  0  0  0  0  0  0  0  0
    0.3622    8.2035    2.3328 O   0  0  0  0  0  0  0  0  0  0  0  0
    0.8225    6.5177    4.4226 C   0  0  0  0  0  0  0  0  0  0  0  0
    0.9757    5.6467    5.4971 C   0  0  0  0  0  0  0  0  0  0  0  0
    6.3066    6.6987    4.6869 C   0  0  0  0  0  0  0  0  0  0  0  0
    5.9085    7.7246    3.8394 C   0  0  0  0  0  0  0  0  0  0  0  0
    3.6235    9.3637    0.5092 H   0  0  0  0  0  0  0  0  0  0  0  0
    2.7225    8.1007    1.3997 H   0  0  0  0  0  0  0  0  0  0  0  0
    4.0274    7.6393    0.2444 H   0  0  0  0  0  0  0  0  0  0  0  0
    3.7881    5.9449    1.8291 H   0  0  0  0  0  0  0  0  0  0  0  0
    4.4970    4.1475    3.3589 H   0  0  0  0  0  0  0  0  0  0  0  0
    5.8194    3.3230    5.0946 H   0  0  0  0  0  0  0  0  0  0  0  0
    8.3418    4.8074    5.0838 H   0  0  0  0  0  0  0  0  0  0  0  0
    8.1294    3.1458    5.6623 H   0  0  0  0  0  0  0  0  0  0  0  0
    8.3981    5.3892    9.9242 H   0  0  0  0  0  0  0  0  0  0  0  0
   10.9449    5.6309   10.6217 H   0  0  0  0  0  0  0  0  0  0  0  0
   12.5563    5.1028    8.5870 H   0  0  0  0  0  0  0  0  0  0  0  0
    4.7693    5.2149    9.1333 H   0  0  0  0  0  0  0  0  0  0  0  0
    3.6914    3.7913    9.1366 H   0  0  0  0  0  0  0  0  0  0  0  0
   -2.6265    3.9827    7.1955 H   0  0  0  0  0  0  0  0  0  0  0  0
   -2.2631    2.3370    7.7749 H   0  0  0  0  0  0  0  0  0  0  0  0
   -0.9810    2.1122    5.5907 H   0  0  0  0  0  0  0  0  0  0  0  0
   -1.3123    0.9487    3.9414 H   0  0  0  0  0  0  0  0  0  0  0  0
   -0.9310    0.2265    1.6153 H   0  0  0  0  0  0  0  0  0  0  0  0
   -1.5096    1.7368   -0.2831 H   0  0  0  0  0  0  0  0  0  0  0  0
   -2.4875    3.9867    0.1749 H   0  0  0  0  0  0  0  0  0  0  0  0
   -2.8751    4.7143    2.5417 H   0  0  0  0  0  0  0  0  0  0  0  0
   -1.8417    6.4587    7.2665 H   0  0  0  0  0  0  0  0  0  0  0  0
   -2.1218    8.0115    5.3126 H   0  0  0  0  0  0  0  0  0  0  0  0
    1.5592    6.5541    3.6217 H   0  0  0  0  0  0  0  0  0  0  0  0
    1.8399    4.9833    5.5641 H   0  0  0  0  0  0  0  0  0  0  0  0
    7.0082    6.9299    5.4935 H   0  0  0  0  0  0  0  0  0  0  0  0
    6.2866    8.7415    3.9615 H   0  0  0  0  0  0  0  0  0  0  0  0
  1  2  1  0
  1 47  1  0
  1 48  1  0
  1 49  1  0
  2  3  1  0
  3  4  2  0
  3 46  1  0
  4  5  1  0
  4 50  1  0
  5  6  2  0
  5 51  1  0
  6  7  1  0
  6 45  1  0
  7  8  1  0
  7 16  1  0
  7 52  1  6
  8  9  1  0
  8 53  1  0
  8 54  1  0
  9 10  2  0
  9 15  1  0
 10 11  1  0
 10 14  1  0
 11 12  2  0
 11 55  1  0
 12 13  1  0
 12 56  1  0
 13 14  2  0
 13 57  1  0
 15 16  2  0
 16 17  1  0
 17 18  2  0
 17 19  1  0
 19 20  1  0
 19 58  1  0
 19 59  1  0
 20 21  1  0
 21 22  2  0
 21 35  1  0
 22 23  1  0
 23 24  2  0
 24 25  1  0
 24 35  1  0
 25 26  1  0
 25 60  1  0
 25 61  1  0
 26 27  1  0
 26 62  1  0
 27 28  2  0
 27 29  1  0
 29 30  2  0
 29 34  1  0
 30 31  1  0
 30 63  1  0
 31 32  2  0
 31 64  1  0
 32 33  1  0
 32 65  1  0
 33 34  2  0
 33 66  1  0
 34 67  1  0
 35 36  1  0
 36 37  2  0
 36 44  1  0
 37 38  1  0
 37 68  1  0
 38 39  2  0
 38 69  1  0
 39 40  1  0
 39 43  1  0
 40 41  1  0
 40 42  1  0
 43 44  2  0
 43 70  1  0
 44 71  1  0
 45 46  2  0
 45 72  1  0
 46 73  1  0
M  CHG  4  14   1  16   1  41  -1  42  -1
M  END

