
     RDKit          3D

 58 60  0  0  0  0  0  0  0  0999 V2000
    5.1635   -0.2517    1.7552 C   0  0  0  0  0  0  0  0  0  0  0  0
    5.1046   -1.2161    0.7329 O   0  0  0  0  0  0  0  0  0  0  0  0
    4.8356   -2.5035    1.0567 C   0  0  0  0  0  0  0  0  0  0  0  0
    4.6082   -2.9753    2.3494 C   0  0  0  0  0  0  0  0  0  0  0  0
    4.3349   -4.3368    2.5825 C   0  0  0  0  0  0  0  0  0  0  0  0
    4.2908   -5.2238    1.5218 C   0  0  0  0  0  0  0  0  0  0  0  0
    4.5184   -4.7751    0.1983 C   0  0  0  0  0  0  0  0  0  0  0  0
    4.4683   -5.7277   -0.8988 C   0  0  0  0  0  0  0  0  0  0  0  0
    4.6640   -5.3625   -2.1193 N   0  0  0  0  0  0  0  0  0  0  0  0
    4.6121   -6.2814   -3.1073 N   0  0  0  0  0  0  0  0  0  0  0  0
    4.7833   -5.9090   -4.4201 C   0  0  0  0  0  0  0  0  0  0  0  0
    4.9819   -4.7724   -4.7892 O   0  0  0  0  0  0  0  0  0  0  0  0
    4.7446   -7.0697   -5.4220 C   0  0  0  0  0  0  0  0  0  0  0  0
    4.2401   -8.3471   -4.9243 N   0  0  0  0  0  0  0  0  0  0  0  0
    2.7894   -8.6331   -5.0570 C   0  0  0  0  0  0  0  0  0  0  0  0
    2.0318   -8.6684   -3.7433 C   0  0  0  0  0  0  0  0  0  0  0  0
    1.4068   -7.5185   -3.2363 C   0  0  0  0  0  0  0  0  0  0  0  0
    0.7219   -7.5426   -2.0186 C   0  0  0  0  0  0  0  0  0  0  0  0
    0.6558   -8.7374   -1.2961 C   0  0  0  0  0  0  0  0  0  0  0  0
   -0.1987   -8.7812    0.2281 Cl  0  0  0  0  0  0  0  0  0  0  0  0
    1.2607   -9.9001   -1.7841 C   0  0  0  0  0  0  0  0  0  0  0  0
    1.9434   -9.8588   -3.0020 C   0  0  0  0  0  0  0  0  0  0  0  0
    5.3099   -9.6799   -5.0435 S   0  0  1  0  0  0  0  0  0  0  0  0
    4.4756  -10.8733   -4.8699 O   0  0  0  0  0  0  0  0  0  0  0  0
    6.1620   -9.5189   -6.2249 O   0  0  0  0  0  0  0  0  0  0  0  0
    6.3614   -9.5022   -3.6013 C   0  0  0  0  0  0  0  0  0  0  0  0
    5.8605   -9.8264   -2.3342 C   0  0  0  0  0  0  0  0  0  0  0  0
    6.6903   -9.6899   -1.2235 C   0  0  0  0  0  0  0  0  0  0  0  0
    8.0185   -9.2394   -1.3531 C   0  0  0  0  0  0  0  0  0  0  0  0
    8.8922   -9.0749   -0.1357 C   0  0  0  0  0  0  0  0  0  0  0  0
    8.4957   -8.9416   -2.6381 C   0  0  0  0  0  0  0  0  0  0  0  0
    7.6790   -9.0730   -3.7648 C   0  0  0  0  0  0  0  0  0  0  0  0
    4.7924   -3.4048   -0.0465 C   0  0  0  0  0  0  0  0  0  0  0  0
    5.0142   -2.9075   -1.2622 O   0  0  0  0  0  0  0  0  0  0  0  0
    5.3895    0.7069    1.2689 H   0  0  0  0  0  0  0  0  0  0  0  0
    5.9592   -0.4757    2.4899 H   0  0  0  0  0  0  0  0  0  0  0  0
    4.2021   -0.1609    2.2941 H   0  0  0  0  0  0  0  0  0  0  0  0
    4.6396   -2.2864    3.1938 H   0  0  0  0  0  0  0  0  0  0  0  0
    4.1575   -4.6829    3.6030 H   0  0  0  0  0  0  0  0  0  0  0  0
    4.0761   -6.2824    1.6911 H   0  0  0  0  0  0  0  0  0  0  0  0
    4.2561   -6.7821   -0.6479 H   0  0  0  0  0  0  0  0  0  0  0  0
    4.4207   -7.2620   -2.8959 H   0  0  0  0  0  0  0  0  0  0  0  0
    5.7702   -7.1988   -5.8010 H   0  0  0  0  0  0  0  0  0  0  0  0
    4.1595   -6.7185   -6.2886 H   0  0  0  0  0  0  0  0  0  0  0  0
    2.6607   -9.5904   -5.5795 H   0  0  0  0  0  0  0  0  0  0  0  0
    2.3716   -7.8481   -5.7054 H   0  0  0  0  0  0  0  0  0  0  0  0
    1.4470   -6.5825   -3.8004 H   0  0  0  0  0  0  0  0  0  0  0  0
    0.2371   -6.6448   -1.6318 H   0  0  0  0  0  0  0  0  0  0  0  0
    1.1882  -10.8286   -1.2151 H   0  0  0  0  0  0  0  0  0  0  0  0
    2.4161  -10.7642   -3.3903 H   0  0  0  0  0  0  0  0  0  0  0  0
    4.8381  -10.1927   -2.2229 H   0  0  0  0  0  0  0  0  0  0  0  0
    6.3045   -9.9477   -0.2332 H   0  0  0  0  0  0  0  0  0  0  0  0
    8.8156   -9.9463    0.5336 H   0  0  0  0  0  0  0  0  0  0  0  0
    8.5862   -8.1902    0.4488 H   0  0  0  0  0  0  0  0  0  0  0  0
    9.9490   -8.9431   -0.4092 H   0  0  0  0  0  0  0  0  0  0  0  0
    9.5277   -8.6043   -2.7648 H   0  0  0  0  0  0  0  0  0  0  0  0
    8.0583   -8.8575   -4.7650 H   0  0  0  0  0  0  0  0  0  0  0  0
    4.9503   -3.6424   -1.9233 H   0  0  0  0  0  0  0  0  0  0  0  0
  1  2  1  0
  1 35  1  0
  1 36  1  0
  1 37  1  0
  2  3  1  0
  3  4  2  0
  3 33  1  0
  4  5  1  0
  4 38  1  0
  5  6  2  0
  5 39  1  0
  6  7  1  0
  6 40  1  0
  7  8  1  0
  7 33  2  0
  8  9  2  0
  8 41  1  0
  9 10  1  0
 10 11  1  0
 10 42  1  0
 11 12  2  0
 11 13  1  0
 13 14  1  0
 13 43  1  0
 13 44  1  0
 14 15  1  0
 23 14  1  1
 15 16  1  0
 15 45  1  0
 15 46  1  0
 16 17  2  0
 16 22  1  0
 17 18  1  0
 17 47  1  0
 18 19  2  0
 18 48  1  0
 19 20  1  0
 19 21  1  0
 21 22  2  0
 21 49  1  0
 22 50  1  0
 23 24  2  0
 23 25  2  0
 23 26  1  0
 26 27  2  0
 26 32  1  0
 27 28  1  0
 27 51  1  0
 28 29  2  0
 28 52  1  0
 29 30  1  0
 29 31  1  0
 30 53  1  0
 30 54  1  0
 30 55  1  0
 31 32  2  0
 31 56  1  0
 32 57  1  0
 33 34  1  0
 34 58  1  0
M  END

