
     RDKit          3D

 63 66  0  0  0  0  0  0  0  0999 V2000
   -0.7175   -1.8034    2.1669 C   0  0  0  0  0  0  0  0  0  0  0  0
    0.6753   -1.6724    1.9982 O   0  0  0  0  0  0  0  0  0  0  0  0
    1.4424   -2.7895    1.9195 C   0  0  0  0  0  0  0  0  0  0  0  0
    2.8256   -2.5824    1.7630 C   0  0  0  0  0  0  0  0  0  0  0  0
    3.6918   -3.6652    1.6740 C   0  0  0  0  0  0  0  0  0  0  0  0
    3.2206   -4.9912    1.7351 C   0  0  0  0  0  0  0  0  0  0  0  0
    4.1671   -6.1659    1.6253 C   0  0  0  0  0  0  0  0  0  0  0  0
    4.7933   -6.3411    0.2338 C   0  0  2  0  0  0  0  0  0  0  0  0
    5.4015   -5.4555   -0.0192 H   0  0  0  0  0  0  0  0  0  0  0  0
    3.7618   -6.4575   -0.7928 N   0  0  0  0  0  0  0  0  0  0  0  0
    3.9634   -6.0517   -2.0757 C   0  0  0  0  0  0  0  0  0  0  0  0
    5.0623   -5.7339   -2.5153 O   0  0  0  0  0  0  0  0  0  0  0  0
    2.8143   -6.0637   -2.7654 O   0  0  0  0  0  0  0  0  0  0  0  0
    2.7521   -5.7349   -4.1969 C   0  0  1  0  0  0  0  0  0  0  0  0
    3.6034   -6.7249   -4.9977 C   0  0  0  0  0  0  0  0  0  0  0  0
    1.2670   -5.9111   -4.5176 C   0  0  0  0  0  0  0  0  0  0  0  0
    3.1885   -4.2833   -4.4166 C   0  0  0  0  0  0  0  0  0  0  0  0
    5.7447   -7.5703    0.2267 C   0  0  0  0  0  0  0  0  0  0  0  0
    5.8064   -8.3504    1.1494 O   0  0  0  0  0  0  0  0  0  0  0  0
    6.4967   -7.6472   -0.9305 N   0  0  0  0  0  0  0  0  0  0  0  0
    7.4203   -8.6203   -1.2804 C   0  0  0  0  0  0  0  0  0  0  0  0
    7.7588   -9.6334   -0.5126 N   0  0  0  0  0  0  0  0  0  0  0  0
    8.8998  -10.5299   -1.3371 S   0  0  0  0  0  0  0  0  0  0  0  0
    8.8542   -9.4522   -2.7173 C   0  0  0  0  0  0  0  0  0  0  0  0
    9.6610   -9.6148   -3.9344 C   0  0  0  0  0  0  0  0  0  0  0  0
   10.5501  -10.7221   -4.0844 C   0  0  0  0  0  0  0  0  0  0  0  0
   11.3033  -10.8686   -5.2261 C   0  0  0  0  0  0  0  0  0  0  0  0
   11.2094   -9.9180   -6.2788 C   0  0  0  0  0  0  0  0  0  0  0  0
   11.9628  -10.0152   -7.4843 C   0  0  0  0  0  0  0  0  0  0  0  0
   11.8912   -9.1480   -8.4688 N   0  0  0  0  0  0  0  0  0  0  0  0
   11.0478   -8.0925   -8.3310 C   0  0  0  0  0  0  0  0  0  0  0  0
   10.2629   -7.8803   -7.2172 C   0  0  0  0  0  0  0  0  0  0  0  0
   10.3219   -8.8047   -6.1385 C   0  0  0  0  0  0  0  0  0  0  0  0
    9.5559   -8.6761   -4.9518 C   0  0  0  0  0  0  0  0  0  0  0  0
    8.0035   -8.4789   -2.5153 N   0  0  0  0  0  0  0  0  0  0  0  0
    1.8437   -5.1788    1.8958 C   0  0  0  0  0  0  0  0  0  0  0  0
    0.9528   -4.1005    1.9881 C   0  0  0  0  0  0  0  0  0  0  0  0
   -1.1261   -0.7846    2.2060 H   0  0  0  0  0  0  0  0  0  0  0  0
   -0.9716   -2.3261    3.1070 H   0  0  0  0  0  0  0  0  0  0  0  0
   -1.1861   -2.3436    1.3242 H   0  0  0  0  0  0  0  0  0  0  0  0
    3.1932   -1.5551    1.7195 H   0  0  0  0  0  0  0  0  0  0  0  0
    4.7636   -3.4764    1.5602 H   0  0  0  0  0  0  0  0  0  0  0  0
    3.6562   -7.1025    1.8976 H   0  0  0  0  0  0  0  0  0  0  0  0
    4.9951   -6.0682    2.3442 H   0  0  0  0  0  0  0  0  0  0  0  0
    2.8088   -6.6571   -0.5103 H   0  0  0  0  0  0  0  0  0  0  0  0
    3.2935   -7.7596   -4.7832 H   0  0  0  0  0  0  0  0  0  0  0  0
    4.6690   -6.6174   -4.7588 H   0  0  0  0  0  0  0  0  0  0  0  0
    3.4640   -6.5444   -6.0750 H   0  0  0  0  0  0  0  0  0  0  0  0
    0.9460   -6.9440   -4.3146 H   0  0  0  0  0  0  0  0  0  0  0  0
    1.0785   -5.6890   -5.5787 H   0  0  0  0  0  0  0  0  0  0  0  0
    0.6553   -5.2321   -3.9045 H   0  0  0  0  0  0  0  0  0  0  0  0
    4.2489   -4.1471   -4.1696 H   0  0  0  0  0  0  0  0  0  0  0  0
    2.5881   -3.6038   -3.7918 H   0  0  0  0  0  0  0  0  0  0  0  0
    3.0316   -4.0056   -5.4707 H   0  0  0  0  0  0  0  0  0  0  0  0
    6.3145   -6.9410   -1.6526 H   0  0  0  0  0  0  0  0  0  0  0  0
   10.6329  -11.4627   -3.2847 H   0  0  0  0  0  0  0  0  0  0  0  0
   11.9817  -11.7188   -5.3348 H   0  0  0  0  0  0  0  0  0  0  0  0
   12.6498  -10.8631   -7.6112 H   0  0  0  0  0  0  0  0  0  0  0  0
   11.0169   -7.3918   -9.1725 H   0  0  0  0  0  0  0  0  0  0  0  0
    9.6011   -7.0126   -7.1585 H   0  0  0  0  0  0  0  0  0  0  0  0
    8.8738   -7.8331   -4.8265 H   0  0  0  0  0  0  0  0  0  0  0  0
    1.4442   -6.1954    1.9661 H   0  0  0  0  0  0  0  0  0  0  0  0
   -0.1114   -4.2987    2.1176 H   0  0  0  0  0  0  0  0  0  0  0  0
  1  2  1  0
  1 38  1  0
  1 39  1  0
  1 40  1  0
  2  3  1  0
  3  4  2  0
  3 37  1  0
  4  5  1  0
  4 41  1  0
  5  6  2  0
  5 42  1  0
  6  7  1  0
  6 36  1  0
  7  8  1  0
  7 43  1  0
  7 44  1  0
  8  9  1  6
  8 10  1  0
  8 18  1  0
 10 11  1  0
 10 45  1  0
 11 12  2  0
 11 13  1  0
 14 13  1  1
 14 15  1  0
 14 16  1  0
 14 17  1  0
 15 46  1  0
 15 47  1  0
 15 48  1  0
 16 49  1  0
 16 50  1  0
 16 51  1  0
 17 52  1  0
 17 53  1  0
 17 54  1  0
 18 19  2  0
 18 20  1  0
 20 21  1  0
 20 55  1  0
 21 22  2  0
 21 35  1  0
 22 23  1  0
 23 24  1  0
 24 25  1  0
 24 35  2  0
 25 26  2  0
 25 34  1  0
 26 27  1  0
 26 56  1  0
 27 28  2  0
 27 57  1  0
 28 29  1  0
 28 33  1  0
 29 30  2  0
 29 58  1  0
 30 31  1  0
 31 32  2  0
 31 59  1  0
 32 33  1  0
 32 60  1  0
 33 34  2  0
 34 61  1  0
 36 37  2  0
 36 62  1  0
 37 63  1  0
M  END

