
     RDKit          3D

 47 49  0  0  0  0  0  0  0  0999 V2000
    2.7813    1.4919    0.6285 C   0  0  0  0  0  0  0  0  0  0  0  0
    2.5218    0.0924    0.1184 C   0  0  0  0  0  0  0  0  0  0  0  0
    1.6647   -0.2269   -0.7902 N   0  0  0  0  0  0  0  0  0  0  0  0
    0.8857    0.6926   -1.3771 N   0  0  0  0  0  0  0  0  0  0  0  0
   -0.0040    0.3077   -2.3672 C   0  0  0  0  0  0  0  0  0  0  0  0
   -0.1408   -0.8438   -2.7188 O   0  0  0  0  0  0  0  0  0  0  0  0
   -0.8834    1.4032   -2.9462 C   0  0  0  0  0  0  0  0  0  0  0  0
   -2.1199    0.9419   -3.4397 C   0  0  0  0  0  0  0  0  0  0  0  0
   -3.0539    1.7981   -4.0150 C   0  0  0  0  0  0  0  0  0  0  0  0
   -2.7633    3.1603   -4.1313 C   0  0  0  0  0  0  0  0  0  0  0  0
   -1.5400    3.6484   -3.6744 C   0  0  0  0  0  0  0  0  0  0  0  0
   -0.6133    2.7788   -3.0886 C   0  0  0  0  0  0  0  0  0  0  0  0
    0.9144    3.5159   -2.5965 Cl  0  0  0  0  0  0  0  0  0  0  0  0
    3.2961   -1.0379    0.7014 C   0  0  0  0  0  0  0  0  0  0  0  0
    4.1904   -0.8456    1.7718 C   0  0  0  0  0  0  0  0  0  0  0  0
    4.9050   -1.9148    2.3149 C   0  0  0  0  0  0  0  0  0  0  0  0
    4.7273   -3.1952    1.7872 C   0  0  0  0  0  0  0  0  0  0  0  0
    5.6250   -4.5772    2.5097 S   0  0  1  0  0  0  0  0  0  0  0  0
    5.7043   -5.6261    1.4922 O   0  0  0  0  0  0  0  0  0  0  0  0
    6.8002   -4.0269    3.1825 O   0  0  0  0  0  0  0  0  0  0  0  0
    4.6635   -5.1969    3.7325 N   0  0  0  0  0  0  0  0  0  0  0  0
    3.4382   -5.9359    3.4170 C   0  0  0  0  0  0  0  0  0  0  0  0
    2.9333   -6.6629    4.6154 C   0  0  0  0  0  0  0  0  0  0  0  0
    2.8206   -7.9853    4.9440 C   0  0  0  0  0  0  0  0  0  0  0  0
    2.2564   -8.0282    6.2632 C   0  0  0  0  0  0  0  0  0  0  0  0
    2.0757   -6.7285    6.6376 C   0  0  0  0  0  0  0  0  0  0  0  0
    2.4796   -5.8921    5.6461 O   0  0  0  0  0  0  0  0  0  0  0  0
    3.8565   -3.4112    0.7103 C   0  0  0  0  0  0  0  0  0  0  0  0
    3.1441   -2.3405    0.1800 C   0  0  0  0  0  0  0  0  0  0  0  0
    2.3062    2.2723    0.0195 H   0  0  0  0  0  0  0  0  0  0  0  0
    3.8606    1.7073    0.6347 H   0  0  0  0  0  0  0  0  0  0  0  0
    2.4204    1.6092    1.6642 H   0  0  0  0  0  0  0  0  0  0  0  0
    0.9617    1.6799   -1.1394 H   0  0  0  0  0  0  0  0  0  0  0  0
   -2.3142   -0.1288   -3.3581 H   0  0  0  0  0  0  0  0  0  0  0  0
   -4.0051    1.4025   -4.3776 H   0  0  0  0  0  0  0  0  0  0  0  0
   -3.4824    3.8470   -4.5845 H   0  0  0  0  0  0  0  0  0  0  0  0
   -1.2864    4.7049   -3.7733 H   0  0  0  0  0  0  0  0  0  0  0  0
    4.3440    0.1479    2.1955 H   0  0  0  0  0  0  0  0  0  0  0  0
    5.6131   -1.7587    3.1308 H   0  0  0  0  0  0  0  0  0  0  0  0
    4.6147   -4.5756    4.5382 H   0  0  0  0  0  0  0  0  0  0  0  0
    3.6814   -6.6667    2.6347 H   0  0  0  0  0  0  0  0  0  0  0  0
    2.6422   -5.2709    3.0252 H   0  0  0  0  0  0  0  0  0  0  0  0
    3.1099   -8.8280    4.3197 H   0  0  0  0  0  0  0  0  0  0  0  0
    2.0200   -8.9115    6.8527 H   0  0  0  0  0  0  0  0  0  0  0  0
    1.6860   -6.2557    7.5353 H   0  0  0  0  0  0  0  0  0  0  0  0
    3.7619   -4.4111    0.2831 H   0  0  0  0  0  0  0  0  0  0  0  0
    2.4597   -2.4871   -0.6566 H   0  0  0  0  0  0  0  0  0  0  0  0
  1  2  1  0
  1 30  1  0
  1 31  1  0
  1 32  1  0
  2  3  2  0
  2 14  1  0
  3  4  1  0
  4  5  1  0
  4 33  1  0
  5  6  2  0
  5  7  1  0
  7  8  2  0
  7 12  1  0
  8  9  1  0
  8 34  1  0
  9 10  2  0
  9 35  1  0
 10 11  1  0
 10 36  1  0
 11 12  2  0
 11 37  1  0
 12 13  1  0
 14 15  2  0
 14 29  1  0
 15 16  1  0
 15 38  1  0
 16 17  2  0
 16 39  1  0
 17 18  1  0
 17 28  1  0
 18 19  2  0
 18 20  2  0
 18 21  1  1
 21 22  1  0
 21 40  1  0
 22 23  1  0
 22 41  1  0
 22 42  1  0
 23 24  2  0
 23 27  1  0
 24 25  1  0
 24 43  1  0
 25 26  2  0
 25 44  1  0
 26 27  1  0
 26 45  1  0
 28 29  2  0
 28 46  1  0
 29 47  1  0
M  END

