
     RDKit          3D

 48 48  0  0  0  0  0  0  0  0999 V2000
   10.1294   -2.9250   -1.1195 C   0  0  0  0  0  0  0  0  0  0  0  0
    8.8779   -2.1900   -0.6371 C   0  0  0  0  0  0  0  0  0  0  0  0
    9.1856   -0.8499    0.0361 C   0  0  0  0  0  0  0  0  0  0  0  0
    7.9420   -0.1172    0.5161 C   0  0  0  0  0  0  0  0  0  0  0  0
    8.3231    1.0949    1.1253 O   0  0  0  0  0  0  0  0  0  0  0  0
    7.2545    1.8644    1.6181 C   0  0  0  0  0  0  0  0  0  0  0  0
    7.8050    3.1423    2.2349 C   0  0  0  0  0  0  0  0  0  0  0  0
    8.5767    3.9997    1.2258 C   0  0  0  0  0  0  0  0  0  0  0  0
    9.0808    5.2302    1.8023 N   0  0  0  0  0  0  0  0  0  0  0  0
   10.3855    5.5422    1.9034 C   0  0  0  0  0  0  0  0  0  0  0  0
   11.3340    4.8698    1.5178 O   0  0  0  0  0  0  0  0  0  0  0  0
   10.5979    6.9150    2.5894 C   0  0  0  0  0  0  0  0  0  0  0  0
    9.6515    7.5867    2.9764 O   0  0  0  0  0  0  0  0  0  0  0  0
   11.9192    7.2019    2.6704 N   0  0  0  0  0  0  0  0  0  0  0  0
   12.5720    8.3259    3.2104 C   0  0  0  0  0  0  0  0  0  0  0  0
   11.8541    9.3895    3.7843 C   0  0  0  0  0  0  0  0  0  0  0  0
   12.5171   10.5008    4.3183 C   0  0  0  0  0  0  0  0  0  0  0  0
   11.7407   11.6428    4.9297 C   0  0  0  0  0  0  0  0  0  0  0  0
   13.9186   10.5316    4.2695 C   0  0  0  0  0  0  0  0  0  0  0  0
   14.6294    9.4753    3.6994 C   0  0  0  0  0  0  0  0  0  0  0  0
   13.9856    8.3553    3.1597 C   0  0  0  0  0  0  0  0  0  0  0  0
   14.7740    7.2227    2.5478 C   0  0  0  0  0  0  0  0  0  0  0  0
    9.8754   -3.8839   -1.5987 H   0  0  0  0  0  0  0  0  0  0  0  0
   10.8141   -3.1412   -0.2826 H   0  0  0  0  0  0  0  0  0  0  0  0
   10.6889   -2.3225   -1.8544 H   0  0  0  0  0  0  0  0  0  0  0  0
    8.3218   -2.8354    0.0674 H   0  0  0  0  0  0  0  0  0  0  0  0
    8.1975   -2.0233   -1.4923 H   0  0  0  0  0  0  0  0  0  0  0  0
    9.7318   -0.1910   -0.6614 H   0  0  0  0  0  0  0  0  0  0  0  0
    9.8541   -1.0034    0.9014 H   0  0  0  0  0  0  0  0  0  0  0  0
    7.3771   -0.7485    1.2358 H   0  0  0  0  0  0  0  0  0  0  0  0
    7.2560    0.0783   -0.3365 H   0  0  0  0  0  0  0  0  0  0  0  0
    6.6785    1.2956    2.3780 H   0  0  0  0  0  0  0  0  0  0  0  0
    6.5427    2.1088    0.7988 H   0  0  0  0  0  0  0  0  0  0  0  0
    8.4705    2.8827    3.0749 H   0  0  0  0  0  0  0  0  0  0  0  0
    6.9618    3.7181    2.6561 H   0  0  0  0  0  0  0  0  0  0  0  0
    7.9266    4.2352    0.3628 H   0  0  0  0  0  0  0  0  0  0  0  0
    9.4410    3.4405    0.8439 H   0  0  0  0  0  0  0  0  0  0  0  0
    8.4460    5.9258    2.1892 H   0  0  0  0  0  0  0  0  0  0  0  0
   12.4893    6.4590    2.2662 H   0  0  0  0  0  0  0  0  0  0  0  0
   10.7672    9.3324    3.8063 H   0  0  0  0  0  0  0  0  0  0  0  0
   10.6593   11.4440    4.9261 H   0  0  0  0  0  0  0  0  0  0  0  0
   11.9123   12.5829    4.3784 H   0  0  0  0  0  0  0  0  0  0  0  0
   12.0486   11.8230    5.9733 H   0  0  0  0  0  0  0  0  0  0  0  0
   14.4601   11.3883    4.6807 H   0  0  0  0  0  0  0  0  0  0  0  0
   15.7221    9.5159    3.6700 H   0  0  0  0  0  0  0  0  0  0  0  0
   15.8531    7.4246    2.6004 H   0  0  0  0  0  0  0  0  0  0  0  0
   14.5221    7.0669    1.4838 H   0  0  0  0  0  0  0  0  0  0  0  0
   14.5953    6.2634    3.0652 H   0  0  0  0  0  0  0  0  0  0  0  0
  1  2  1  0
  1 23  1  0
  1 24  1  0
  1 25  1  0
  2  3  1  0
  2 26  1  0
  2 27  1  0
  3  4  1  0
  3 28  1  0
  3 29  1  0
  4  5  1  0
  4 30  1  0
  4 31  1  0
  5  6  1  0
  6  7  1  0
  6 32  1  0
  6 33  1  0
  7  8  1  0
  7 34  1  0
  7 35  1  0
  8  9  1  0
  8 36  1  0
  8 37  1  0
  9 10  1  0
  9 38  1  0
 10 11  2  0
 10 12  1  0
 12 13  2  0
 12 14  1  0
 14 15  1  0
 14 39  1  0
 15 16  2  0
 15 21  1  0
 16 17  1  0
 16 40  1  0
 17 18  1  0
 17 19  2  0
 18 41  1  0
 18 42  1  0
 18 43  1  0
 19 20  1  0
 19 44  1  0
 20 21  2  0
 20 45  1  0
 21 22  1  0
 22 46  1  0
 22 47  1  0
 22 48  1  0
M  END

