
     RDKit          3D

 41 43  0  0  0  0  0  0  0  0999 V2000
    1.0342   -0.2495   -1.0100 C   0  0  0  0  0  0  0  0  0  0  0  0
    2.3996    0.0656   -0.6361 N   0  0  0  0  0  0  0  0  0  0  0  0
    3.0701    1.2140   -0.8970 C   0  0  0  0  0  0  0  0  0  0  0  0
    4.3393    1.0434   -0.3387 C   0  0  0  0  0  0  0  0  0  0  0  0
    5.5689    1.7682   -0.2026 C   0  0  0  0  0  0  0  0  0  0  0  0
    5.7167    3.0201   -0.7200 N   0  0  0  0  0  0  0  0  0  0  0  0
    6.9449    3.7921   -0.6828 C   0  0  0  0  0  0  0  0  0  0  0  0
    6.7904    5.1444    0.0496 C   0  0  1  0  0  0  0  0  0  0  0  0
    6.3338    4.9999    1.5220 C   0  0  0  0  0  0  0  0  0  0  0  0
    7.2689    4.2473    2.4724 C   0  0  0  0  0  0  0  0  0  0  0  0
    6.7362    4.1812    3.7820 O   0  0  0  0  0  0  0  0  0  0  0  0
    8.0285    6.0211   -0.1033 C   0  0  0  0  0  0  0  0  0  0  0  0
    9.3343    5.5048   -0.0412 C   0  0  0  0  0  0  0  0  0  0  0  0
   10.4473    6.3434   -0.1608 C   0  0  0  0  0  0  0  0  0  0  0  0
   10.2791    7.7182   -0.3444 C   0  0  0  0  0  0  0  0  0  0  0  0
    8.9870    8.2476   -0.4103 C   0  0  0  0  0  0  0  0  0  0  0  0
    7.8785    7.4055   -0.2933 C   0  0  0  0  0  0  0  0  0  0  0  0
    6.5766    1.1961    0.4421 N   0  0  0  0  0  0  0  0  0  0  0  0
    6.4101   -0.0569    0.9454 C   0  0  0  0  0  0  0  0  0  0  0  0
    5.3530   -0.8315    0.8878 N   0  0  0  0  0  0  0  0  0  0  0  0
    4.3022   -0.2710    0.2367 C   0  0  0  0  0  0  0  0  0  0  0  0
    3.1073   -0.8494    0.0422 N   0  0  0  0  0  0  0  0  0  0  0  0
    0.5992    0.5995   -1.5535 H   0  0  0  0  0  0  0  0  0  0  0  0
    0.4396   -0.4542   -0.1077 H   0  0  0  0  0  0  0  0  0  0  0  0
    1.0206   -1.1439   -1.6499 H   0  0  0  0  0  0  0  0  0  0  0  0
    2.5994    2.0314   -1.4397 H   0  0  0  0  0  0  0  0  0  0  0  0
    4.9312    3.4061   -1.2276 H   0  0  0  0  0  0  0  0  0  0  0  0
    7.2934    3.9876   -1.7127 H   0  0  0  0  0  0  0  0  0  0  0  0
    7.6934    3.1490   -0.2041 H   0  0  0  0  0  0  0  0  0  0  0  0
    5.9721    5.6834   -0.4624 H   0  0  0  0  0  0  0  0  0  0  0  0
    5.3538    4.4947    1.5470 H   0  0  0  0  0  0  0  0  0  0  0  0
    6.1696    6.0164    1.9250 H   0  0  0  0  0  0  0  0  0  0  0  0
    8.2752    4.7108    2.4696 H   0  0  0  0  0  0  0  0  0  0  0  0
    7.3880    3.2039    2.1413 H   0  0  0  0  0  0  0  0  0  0  0  0
    6.6821    5.0818    4.1276 H   0  0  0  0  0  0  0  0  0  0  0  0
    9.4950    4.4342    0.1033 H   0  0  0  0  0  0  0  0  0  0  0  0
   11.4523    5.9164   -0.1101 H   0  0  0  0  0  0  0  0  0  0  0  0
   11.1493    8.3727   -0.4387 H   0  0  0  0  0  0  0  0  0  0  0  0
    8.8405    9.3208   -0.5591 H   0  0  0  0  0  0  0  0  0  0  0  0
    6.8716    7.8304   -0.3534 H   0  0  0  0  0  0  0  0  0  0  0  0
    7.2891   -0.4579    1.4659 H   0  0  0  0  0  0  0  0  0  0  0  0
  1  2  1  0
  1 23  1  0
  1 24  1  0
  1 25  1  0
  2  3  1  0
  2 22  1  0
  3  4  2  0
  3 26  1  0
  4  5  1  0
  4 21  1  0
  5  6  1  0
  5 18  2  0
  6  7  1  0
  6 27  1  0
  7  8  1  0
  7 28  1  0
  7 29  1  0
  8  9  1  0
  8 12  1  0
  8 30  1  6
  9 10  1  0
  9 31  1  0
  9 32  1  0
 10 11  1  0
 10 33  1  0
 10 34  1  0
 11 35  1  0
 12 13  2  0
 12 17  1  0
 13 14  1  0
 13 36  1  0
 14 15  2  0
 14 37  1  0
 15 16  1  0
 15 38  1  0
 16 17  2  0
 16 39  1  0
 17 40  1  0
 18 19  1  0
 19 20  2  0
 19 41  1  0
 20 21  1  0
 21 22  2  0
M  END

