
     RDKit          3D

 42 45  0  0  0  0  0  0  0  0999 V2000
    1.3081   -0.1077   -0.3082 C   0  0  0  0  0  0  0  0  0  0  0  0
    2.7161    0.0197    0.0452 N   0  0  0  0  0  0  0  0  0  0  0  0
    3.5872   -1.0509    0.2609 C   0  0  0  0  0  0  0  0  0  0  0  0
    3.1081   -2.4625    0.3476 C   0  0  0  0  0  0  0  0  0  0  0  0
    2.0147   -2.7144    0.8522 O   0  0  0  0  0  0  0  0  0  0  0  0
    3.9489   -3.4573   -0.0929 N   0  0  0  0  0  0  0  0  0  0  0  0
    3.6068   -4.8470    0.2204 C   0  0  0  0  0  0  0  0  0  0  0  0
    3.3661   -5.6737   -1.0462 C   0  0  0  0  0  0  0  0  0  0  0  0
    4.5618   -5.5725   -2.0001 C   0  0  0  0  0  0  0  0  0  0  0  0
    4.8969   -4.1049   -2.2855 C   0  0  0  0  0  0  0  0  0  0  0  0
    5.0922   -3.3001   -0.9916 C   0  0  0  0  0  0  0  0  0  0  0  0
    4.8392   -0.5435    0.5686 C   0  0  0  0  0  0  0  0  0  0  0  0
    4.7370    0.8637    0.5295 C   0  0  0  0  0  0  0  0  0  0  0  0
    5.7685    1.8603    0.7803 C   0  0  0  0  0  0  0  0  0  0  0  0
    6.9314    1.6429    1.0808 O   0  0  0  0  0  0  0  0  0  0  0  0
    5.2907    3.1636    0.6391 N   0  0  0  0  0  0  0  0  0  0  0  0
    5.9866    3.8840    0.8086 H   0  0  0  0  0  0  0  0  0  0  0  0
    4.0087    3.5542    0.2904 C   0  0  0  0  0  0  0  0  0  0  0  0
    3.7117    4.9254    0.1813 C   0  0  0  0  0  0  0  0  0  0  0  0
    2.4372    5.3506   -0.1727 C   0  0  0  0  0  0  0  0  0  0  0  0
    1.4319    4.4081   -0.4268 C   0  0  0  0  0  0  0  0  0  0  0  0
    1.7104    3.0493   -0.3208 C   0  0  0  0  0  0  0  0  0  0  0  0
    2.9930    2.5790    0.0407 C   0  0  0  0  0  0  0  0  0  0  0  0
    3.4145    1.1968    0.1910 C   0  0  0  0  0  0  0  0  0  0  0  0
    1.0280   -1.1631   -0.2592 H   0  0  0  0  0  0  0  0  0  0  0  0
    1.1206    0.2895   -1.3177 H   0  0  0  0  0  0  0  0  0  0  0  0
    0.6836    0.4348    0.4162 H   0  0  0  0  0  0  0  0  0  0  0  0
    2.7201   -4.8322    0.8643 H   0  0  0  0  0  0  0  0  0  0  0  0
    4.4464   -5.2869    0.7931 H   0  0  0  0  0  0  0  0  0  0  0  0
    2.4536   -5.3044   -1.5463 H   0  0  0  0  0  0  0  0  0  0  0  0
    3.1754   -6.7229   -0.7654 H   0  0  0  0  0  0  0  0  0  0  0  0
    4.3602   -6.1125   -2.9398 H   0  0  0  0  0  0  0  0  0  0  0  0
    5.4386   -6.0643   -1.5391 H   0  0  0  0  0  0  0  0  0  0  0  0
    4.0776   -3.6449   -2.8664 H   0  0  0  0  0  0  0  0  0  0  0  0
    5.8097   -4.0212   -2.8987 H   0  0  0  0  0  0  0  0  0  0  0  0
    5.2306   -2.2397   -1.2260 H   0  0  0  0  0  0  0  0  0  0  0  0
    6.0092   -3.6454   -0.4757 H   0  0  0  0  0  0  0  0  0  0  0  0
    5.7293   -1.1086    0.8313 H   0  0  0  0  0  0  0  0  0  0  0  0
    4.5022    5.6545    0.3787 H   0  0  0  0  0  0  0  0  0  0  0  0
    2.2257    6.4195   -0.2528 H   0  0  0  0  0  0  0  0  0  0  0  0
    0.4285    4.7344   -0.7084 H   0  0  0  0  0  0  0  0  0  0  0  0
    0.9119    2.3417   -0.5259 H   0  0  0  0  0  0  0  0  0  0  0  0
  1  2  1  0
  1 25  1  0
  1 26  1  0
  1 27  1  0
  2  3  1  0
  2 24  1  0
  3  4  1  0
  3 12  2  0
  4  5  2  0
  4  6  1  0
  6  7  1  0
  6 11  1  0
  7  8  1  0
  7 28  1  0
  7 29  1  0
  8  9  1  0
  8 30  1  0
  8 31  1  0
  9 10  1  0
  9 32  1  0
  9 33  1  0
 10 11  1  0
 10 34  1  0
 10 35  1  0
 11 36  1  0
 11 37  1  0
 12 13  1  0
 12 38  1  0
 13 14  1  0
 13 24  2  0
 14 15  2  0
 14 16  1  0
 16 17  1  0
 16 18  1  0
 18 19  1  0
 18 23  2  0
 19 20  2  0
 19 39  1  0
 20 21  1  0
 20 40  1  0
 21 22  2  0
 21 41  1  0
 22 23  1  0
 22 42  1  0
 23 24  1  0
M  END

