
     RDKit          3D

 48 51  0  0  0  0  0  0  0  0999 V2000
    2.5606    0.0697    1.6112 C   0  0  0  0  0  0  0  0  0  0  0  0
    2.8328    0.2036    0.2334 O   0  0  0  0  0  0  0  0  0  0  0  0
    3.0973   -0.9005   -0.5051 C   0  0  0  0  0  0  0  0  0  0  0  0
    3.3582   -0.6891   -1.8697 C   0  0  0  0  0  0  0  0  0  0  0  0
    3.6385   -1.7634   -2.7058 C   0  0  0  0  0  0  0  0  0  0  0  0
    3.6710   -3.0853   -2.2138 C   0  0  0  0  0  0  0  0  0  0  0  0
    3.9746   -4.2132   -3.0951 C   0  0  0  0  0  0  0  0  0  0  0  0
    4.0436   -5.4333   -2.6756 N   0  0  0  0  0  0  0  0  0  0  0  0
    4.3271   -6.2732   -3.7092 N   0  0  0  0  0  0  0  0  0  0  0  0
    4.6397   -7.6066   -3.4780 C   0  0  0  0  0  0  0  0  0  0  0  0
    4.9907   -8.4654   -4.5408 C   0  0  0  0  0  0  0  0  0  0  0  0
    5.3049   -9.8021   -4.2899 C   0  0  0  0  0  0  0  0  0  0  0  0
    5.2790  -10.3200   -2.9954 C   0  0  0  0  0  0  0  0  0  0  0  0
    4.9315   -9.4651   -1.9397 C   0  0  0  0  0  0  0  0  0  0  0  0
    4.9556   -9.9903   -0.5252 C   0  0  1  0  0  0  0  0  0  0  0  0
    4.5327  -11.2668   -0.4594 F   0  0  0  0  0  0  0  0  0  0  0  0
    6.2018   -9.9694   -0.0097 F   0  0  0  0  0  0  0  0  0  0  0  0
    4.1798   -9.2678    0.3023 F   0  0  0  0  0  0  0  0  0  0  0  0
    4.6144   -8.1276   -2.1664 C   0  0  0  0  0  0  0  0  0  0  0  0
    4.3844   -5.5856   -5.0129 C   0  0  1  0  0  0  0  0  0  0  0  0
    3.2833   -6.0161   -5.9734 C   0  0  0  0  0  0  0  0  0  0  0  0
    2.0104   -6.3762   -5.5079 C   0  0  0  0  0  0  0  0  0  0  0  0
    0.9891   -6.7120   -6.3984 C   0  0  0  0  0  0  0  0  0  0  0  0
    1.2403   -6.6882   -7.7737 C   0  0  0  0  0  0  0  0  0  0  0  0
   -0.0331   -7.1100   -8.8947 Cl  0  0  0  0  0  0  0  0  0  0  0  0
    2.5021   -6.3364   -8.2604 C   0  0  0  0  0  0  0  0  0  0  0  0
    3.5136   -6.0047   -7.3561 C   0  0  0  0  0  0  0  0  0  0  0  0
    4.2733   -4.0966   -4.5793 C   0  0  0  0  0  0  0  0  0  0  0  0
    3.4064   -3.2812   -0.8451 C   0  0  0  0  0  0  0  0  0  0  0  0
    3.1236   -2.2125    0.0026 C   0  0  0  0  0  0  0  0  0  0  0  0
    2.3790    1.0830    1.9935 H   0  0  0  0  0  0  0  0  0  0  0  0
    3.4135   -0.3712    2.1580 H   0  0  0  0  0  0  0  0  0  0  0  0
    1.6630   -0.5479    1.7948 H   0  0  0  0  0  0  0  0  0  0  0  0
    3.3334    0.3340   -2.2499 H   0  0  0  0  0  0  0  0  0  0  0  0
    3.8366   -1.5663   -3.7619 H   0  0  0  0  0  0  0  0  0  0  0  0
    5.0042   -8.0994   -5.5671 H   0  0  0  0  0  0  0  0  0  0  0  0
    5.5685  -10.4509   -5.1289 H   0  0  0  0  0  0  0  0  0  0  0  0
    5.5157  -11.3675   -2.8045 H   0  0  0  0  0  0  0  0  0  0  0  0
    4.3432   -7.4719   -1.3420 H   0  0  0  0  0  0  0  0  0  0  0  0
    5.3600   -5.7785   -5.4892 H   0  0  0  0  0  0  0  0  0  0  0  0
    1.8160   -6.4066   -4.4332 H   0  0  0  0  0  0  0  0  0  0  0  0
    0.0011   -6.9959   -6.0324 H   0  0  0  0  0  0  0  0  0  0  0  0
    2.6875   -6.3294   -9.3358 H   0  0  0  0  0  0  0  0  0  0  0  0
    4.5020   -5.7351   -7.7404 H   0  0  0  0  0  0  0  0  0  0  0  0
    3.4798   -3.5692   -5.1293 H   0  0  0  0  0  0  0  0  0  0  0  0
    5.2113   -3.5415   -4.7468 H   0  0  0  0  0  0  0  0  0  0  0  0
    3.4248   -4.2970   -0.4466 H   0  0  0  0  0  0  0  0  0  0  0  0
    2.9245   -2.4098    1.0561 H   0  0  0  0  0  0  0  0  0  0  0  0
  1  2  1  0
  1 31  1  0
  1 32  1  0
  1 33  1  0
  2  3  1  0
  3  4  2  0
  3 30  1  0
  4  5  1  0
  4 34  1  0
  5  6  2  0
  5 35  1  0
  6  7  1  0
  6 29  1  0
  7  8  2  0
  7 28  1  0
  8  9  1  0
  9 10  1  0
  9 20  1  0
 10 11  2  0
 10 19  1  0
 11 12  1  0
 11 36  1  0
 12 13  2  0
 12 37  1  0
 13 14  1  0
 13 38  1  0
 14 15  1  0
 14 19  2  0
 15 16  1  6
 15 17  1  0
 15 18  1  0
 19 39  1  0
 20 21  1  0
 20 28  1  0
 20 40  1  6
 21 22  2  0
 21 27  1  0
 22 23  1  0
 22 41  1  0
 23 24  2  0
 23 42  1  0
 24 25  1  0
 24 26  1  0
 26 27  2  0
 26 43  1  0
 27 44  1  0
 28 45  1  0
 28 46  1  0
 29 30  2  0
 29 47  1  0
 30 48  1  0
M  END

