
     RDKit          3D

 41 44  0  0  0  0  0  0  0  0999 V2000
    1.8762   -1.2583   -1.8375 C   0  0  0  0  0  0  0  0  0  0  0  0
    3.1145   -0.8897   -1.1846 N   0  0  0  0  0  0  0  0  0  0  0  0
    3.6353    0.3540   -1.0191 C   0  0  0  0  0  0  0  0  0  0  0  0
    4.8423    0.1998   -0.3443 C   0  0  0  0  0  0  0  0  0  0  0  0
    5.7829    1.2344    0.0712 C   0  0  0  0  0  0  0  0  0  0  0  0
    5.6831    2.6537   -0.1049 C   0  0  0  0  0  0  0  0  0  0  0  0
    6.8249    3.1339    0.4675 C   0  0  0  0  0  0  0  0  0  0  0  0
    7.4043    4.5099    0.6108 C   0  0  0  0  0  0  0  0  0  0  0  0
    6.3868    5.5332    0.6615 N   0  0  0  0  0  0  0  0  0  0  0  0
    5.5898    5.6131    1.8823 C   0  0  0  0  0  0  0  0  0  0  0  0
    4.8333    6.9219    1.6777 C   0  0  0  0  0  0  0  0  0  0  0  0
    5.9243    7.8567    1.1076 C   0  0  2  0  0  0  0  0  0  0  0  0
    6.7490    8.3374    2.1705 O   0  0  0  0  0  0  0  0  0  0  0  0
    5.3742    9.0038    0.2665 C   0  0  1  0  0  0  0  0  0  0  0  0
    5.0043   10.3312    0.8796 C   0  0  0  0  0  0  0  0  0  0  0  0
    6.2119   10.2222   -0.0177 C   0  0  0  0  0  0  0  0  0  0  0  0
    6.8183    6.8871    0.2943 C   0  0  0  0  0  0  0  0  0  0  0  0
    7.5495    2.1097    0.9492 O   0  0  0  0  0  0  0  0  0  0  0  0
    6.8991    0.9141    0.6989 N   0  0  0  0  0  0  0  0  0  0  0  0
    4.9451   -1.2062   -0.1541 C   0  0  0  0  0  0  0  0  0  0  0  0
    3.9011   -1.8465   -0.6636 N   0  0  0  0  0  0  0  0  0  0  0  0
    1.3554   -0.3492   -2.1663 H   0  0  0  0  0  0  0  0  0  0  0  0
    1.2313   -1.8136   -1.1402 H   0  0  0  0  0  0  0  0  0  0  0  0
    2.0789   -1.8958   -2.7117 H   0  0  0  0  0  0  0  0  0  0  0  0
    3.1240    1.2423   -1.3844 H   0  0  0  0  0  0  0  0  0  0  0  0
    4.8958    3.2316   -0.5791 H   0  0  0  0  0  0  0  0  0  0  0  0
    8.0501    4.7015   -0.2646 H   0  0  0  0  0  0  0  0  0  0  0  0
    8.0803    4.5137    1.4961 H   0  0  0  0  0  0  0  0  0  0  0  0
    6.2219    5.6732    2.7956 H   0  0  0  0  0  0  0  0  0  0  0  0
    4.9315    4.7362    1.9863 H   0  0  0  0  0  0  0  0  0  0  0  0
    4.3812    7.3273    2.5970 H   0  0  0  0  0  0  0  0  0  0  0  0
    4.0299    6.7806    0.9373 H   0  0  0  0  0  0  0  0  0  0  0  0
    6.1774    8.7498    2.8323 H   0  0  0  0  0  0  0  0  0  0  0  0
    4.7270    8.6597   -0.5479 H   0  0  0  0  0  0  0  0  0  0  0  0
    5.1876   10.4872    1.9474 H   0  0  0  0  0  0  0  0  0  0  0  0
    4.1115   10.8408    0.5069 H   0  0  0  0  0  0  0  0  0  0  0  0
    7.1901   10.2703    0.4676 H   0  0  0  0  0  0  0  0  0  0  0  0
    6.1667   10.6672   -1.0155 H   0  0  0  0  0  0  0  0  0  0  0  0
    7.8698    7.0943    0.5691 H   0  0  0  0  0  0  0  0  0  0  0  0
    6.7168    7.0474   -0.7933 H   0  0  0  0  0  0  0  0  0  0  0  0
    5.7490   -1.7510    0.3384 H   0  0  0  0  0  0  0  0  0  0  0  0
  1  2  1  0
  1 22  1  0
  1 23  1  0
  1 24  1  0
  2  3  1  0
  2 21  1  0
  3  4  2  0
  3 25  1  0
  4  5  1  0
  4 20  1  0
  5  6  1  0
  5 19  2  0
  6  7  2  0
  6 26  1  0
  7  8  1  0
  7 18  1  0
  8  9  1  0
  8 27  1  0
  8 28  1  0
  9 10  1  0
  9 17  1  0
 10 11  1  0
 10 29  1  0
 10 30  1  0
 11 12  1  0
 11 31  1  0
 11 32  1  0
 12 13  1  1
 12 14  1  0
 12 17  1  0
 13 33  1  0
 14 15  1  0
 14 16  1  0
 14 34  1  6
 15 16  1  0
 15 35  1  0
 15 36  1  0
 16 37  1  0
 16 38  1  0
 17 39  1  0
 17 40  1  0
 18 19  1  0
 20 21  2  0
 20 41  1  0
M  END

