
     RDKit          3D

 37 38  0  0  0  0  0  0  0  0999 V2000
    1.1208   -0.2253    0.2472 C   0  0  0  0  0  0  0  0  0  0  0  0
    2.5754   -0.2413    0.1364 N   0  0  0  0  0  0  0  0  0  0  0  0
    3.2861   -1.4167   -0.0598 C   0  0  0  0  0  0  0  0  0  0  0  0
    4.4789   -1.4434   -0.2968 O   0  0  0  0  0  0  0  0  0  0  0  0
    2.5007   -2.7287    0.0363 C   0  0  0  0  0  0  0  0  0  0  0  0
    3.6819   -4.1188   -0.1940 S   0  0  0  0  0  0  0  0  0  0  0  0
    2.5161   -5.4797   -0.0388 C   0  0  0  0  0  0  0  0  0  0  0  0
    1.7473   -5.9008   -1.1347 C   0  0  0  0  0  0  0  0  0  0  0  0
    0.8644   -6.9779   -1.0057 C   0  0  0  0  0  0  0  0  0  0  0  0
    0.7540   -7.6542    0.2091 C   0  0  0  0  0  0  0  0  0  0  0  0
    1.5428   -7.2689    1.3038 C   0  0  0  0  0  0  0  0  0  0  0  0
    1.3795   -8.0336    2.5904 C   0  0  0  0  0  0  0  0  0  0  0  0
    0.4192   -8.7165    2.8295 O   0  0  0  0  0  0  0  0  0  0  0  0
    2.3823   -7.9226    3.4903 O   0  0  0  0  0  0  0  0  0  0  0  0
    2.4119   -6.1744    1.1745 C   0  0  0  0  0  0  0  0  0  0  0  0
    3.2096    1.0234    0.0813 C   0  0  0  0  0  0  0  0  0  0  0  0
    2.5720    2.1947   -0.1288 C   0  0  0  0  0  0  0  0  0  0  0  0
    3.5293    3.3608   -0.1020 C   0  0  0  0  0  0  0  0  0  0  0  0
    4.7926    2.7547    0.5495 C   0  0  0  0  0  0  0  0  0  0  0  0
    4.7003    1.2354    0.2878 C   0  0  0  0  0  0  0  0  0  0  0  0
    0.7361   -1.2025    0.5540 H   0  0  0  0  0  0  0  0  0  0  0  0
    0.6415    0.0555   -0.7070 H   0  0  0  0  0  0  0  0  0  0  0  0
    0.8223    0.5114    1.0075 H   0  0  0  0  0  0  0  0  0  0  0  0
    1.7185   -2.7762   -0.7378 H   0  0  0  0  0  0  0  0  0  0  0  0
    2.0059   -2.8243    1.0158 H   0  0  0  0  0  0  0  0  0  0  0  0
    1.8494   -5.3798   -2.0898 H   0  0  0  0  0  0  0  0  0  0  0  0
    0.2643   -7.2938   -1.8627 H   0  0  0  0  0  0  0  0  0  0  0  0
    0.0659   -8.4923    0.3341 H   0  0  0  0  0  0  0  0  0  0  0  0
    3.1382   -7.4585    3.1040 H   0  0  0  0  0  0  0  0  0  0  0  0
    3.0084   -5.8176    2.0190 H   0  0  0  0  0  0  0  0  0  0  0  0
    1.5106    2.3132   -0.3486 H   0  0  0  0  0  0  0  0  0  0  0  0
    3.1385    4.2283    0.4566 H   0  0  0  0  0  0  0  0  0  0  0  0
    3.7298    3.7242   -1.1294 H   0  0  0  0  0  0  0  0  0  0  0  0
    4.7615    2.9395    1.6360 H   0  0  0  0  0  0  0  0  0  0  0  0
    5.7282    3.1936    0.1717 H   0  0  0  0  0  0  0  0  0  0  0  0
    5.1084    0.6279    1.1085 H   0  0  0  0  0  0  0  0  0  0  0  0
    5.2554    0.9284   -0.6128 H   0  0  0  0  0  0  0  0  0  0  0  0
  1  2  1  0
  1 21  1  0
  1 22  1  0
  1 23  1  0
  2  3  1  0
  2 16  1  0
  3  4  2  0
  3  5  1  0
  5  6  1  0
  5 24  1  0
  5 25  1  0
  6  7  1  0
  7  8  2  0
  7 15  1  0
  8  9  1  0
  8 26  1  0
  9 10  2  0
  9 27  1  0
 10 11  1  0
 10 28  1  0
 11 12  1  0
 11 15  2  0
 12 13  2  0
 12 14  1  0
 14 29  1  0
 15 30  1  0
 16 17  2  0
 16 20  1  0
 17 18  1  0
 17 31  1  0
 18 19  1  0
 18 32  1  0
 18 33  1  0
 19 20  1  0
 19 34  1  0
 19 35  1  0
 20 36  1  0
 20 37  1  0
M  END

