
     RDKit          3D

 59 61  0  0  0  0  0  0  0  0999 V2000
    9.4495   -6.6240   -1.4602 C   0  0  0  0  0  0  0  0  0  0  0  0
    8.6827   -5.9839   -0.2992 C   0  0  0  0  0  0  0  0  0  0  0  0
    8.5917   -4.4408   -0.3052 C   0  0  1  0  0  0  0  0  0  0  0  0
    9.9669   -3.7928   -0.1616 C   0  0  0  0  0  0  0  0  0  0  0  0
    7.8772   -3.8865   -1.5539 C   0  0  0  0  0  0  0  0  0  0  0  0
    6.4591   -4.2143   -1.5566 N   0  0  0  0  0  0  0  0  0  0  0  0
    5.9330   -4.9502   -2.6063 C   0  0  0  0  0  0  0  0  0  0  0  0
    6.6481   -5.4682   -3.4577 O   0  0  0  0  0  0  0  0  0  0  0  0
    4.5573   -5.0809   -2.6301 N   0  0  0  0  0  0  0  0  0  0  0  0
    3.8951   -5.7467   -3.7536 C   0  0  2  0  0  0  0  0  0  0  0  0
    4.5791   -6.5530   -4.0600 H   0  0  0  0  0  0  0  0  0  0  0  0
    3.7388   -4.7868   -4.9416 C   0  0  0  0  0  0  0  0  0  0  0  0
    2.5712   -6.3748   -3.2617 C   0  0  2  0  0  0  0  0  0  0  0  0
    1.9342   -5.5618   -2.8594 H   0  0  0  0  0  0  0  0  0  0  0  0
    2.8019   -7.4035   -2.1421 C   0  0  0  0  0  0  0  0  0  0  0  0
    1.4908   -8.0630   -1.7087 C   0  0  0  0  0  0  0  0  0  0  0  0
    0.7450   -8.6411   -2.9103 C   0  0  0  0  0  0  0  0  0  0  0  0
    0.5242   -7.6160   -3.9225 N   0  0  0  0  0  0  0  0  0  0  0  0
   -0.3276   -8.0676   -5.0037 C   0  0  1  0  0  0  0  0  0  0  0  0
   -1.7920   -8.4467   -4.6622 C   0  0  0  0  0  0  0  0  0  0  0  0
   -2.2354   -7.7485   -5.9724 C   0  0  0  0  0  0  0  0  0  0  0  0
   -0.8766   -7.0040   -5.9899 C   0  0  0  0  0  0  0  0  0  0  0  0
    1.7703   -7.0287   -4.4001 C   0  0  0  0  0  0  0  0  0  0  0  0
    5.7598   -3.7639   -0.3643 C   0  0  0  0  0  0  0  0  0  0  0  0
    6.4839   -4.2834    0.8835 C   0  0  0  0  0  0  0  0  0  0  0  0
    7.8628   -3.9940    0.8617 O   0  0  0  0  0  0  0  0  0  0  0  0
    9.5085   -7.7148   -1.3171 H   0  0  0  0  0  0  0  0  0  0  0  0
   10.4836   -6.2520   -1.5372 H   0  0  0  0  0  0  0  0  0  0  0  0
    8.9404   -6.4494   -2.4205 H   0  0  0  0  0  0  0  0  0  0  0  0
    9.1358   -6.2690    0.6658 H   0  0  0  0  0  0  0  0  0  0  0  0
    7.6636   -6.4022   -0.2949 H   0  0  0  0  0  0  0  0  0  0  0  0
   10.6007   -3.9929   -1.0379 H   0  0  0  0  0  0  0  0  0  0  0  0
   10.4751   -4.1762    0.7361 H   0  0  0  0  0  0  0  0  0  0  0  0
    9.8568   -2.7037   -0.0502 H   0  0  0  0  0  0  0  0  0  0  0  0
    8.3190   -4.2771   -2.4772 H   0  0  0  0  0  0  0  0  0  0  0  0
    7.9891   -2.7855   -1.5497 H   0  0  0  0  0  0  0  0  0  0  0  0
    4.0058   -4.3770   -2.1529 H   0  0  0  0  0  0  0  0  0  0  0  0
    3.3736   -5.3016   -5.8429 H   0  0  0  0  0  0  0  0  0  0  0  0
    4.7177   -4.3495   -5.1863 H   0  0  0  0  0  0  0  0  0  0  0  0
    3.0350   -3.9690   -4.7075 H   0  0  0  0  0  0  0  0  0  0  0  0
    3.3045   -6.9296   -1.2854 H   0  0  0  0  0  0  0  0  0  0  0  0
    3.4956   -8.1792   -2.5170 H   0  0  0  0  0  0  0  0  0  0  0  0
    0.8425   -7.3174   -1.2163 H   0  0  0  0  0  0  0  0  0  0  0  0
    1.6850   -8.8608   -0.9725 H   0  0  0  0  0  0  0  0  0  0  0  0
   -0.2305   -9.0428   -2.5939 H   0  0  0  0  0  0  0  0  0  0  0  0
    1.3243   -9.5017   -3.3257 H   0  0  0  0  0  0  0  0  0  0  0  0
    0.1484   -8.8977   -5.5779 H   0  0  0  0  0  0  0  0  0  0  0  0
   -2.1285   -7.8891   -3.7741 H   0  0  0  0  0  0  0  0  0  0  0  0
   -2.0360   -9.5123   -4.5336 H   0  0  0  0  0  0  0  0  0  0  0  0
   -3.1485   -7.1357   -5.9362 H   0  0  0  0  0  0  0  0  0  0  0  0
   -2.3286   -8.4587   -6.8087 H   0  0  0  0  0  0  0  0  0  0  0  0
   -0.9469   -6.0255   -5.4893 H   0  0  0  0  0  0  0  0  0  0  0  0
   -0.3658   -6.8792   -6.9570 H   0  0  0  0  0  0  0  0  0  0  0  0
    1.5190   -6.2795   -5.1642 H   0  0  0  0  0  0  0  0  0  0  0  0
    2.4155   -7.7920   -4.9021 H   0  0  0  0  0  0  0  0  0  0  0  0
    4.7265   -4.1353   -0.3490 H   0  0  0  0  0  0  0  0  0  0  0  0
    5.7283   -2.6566   -0.3393 H   0  0  0  0  0  0  0  0  0  0  0  0
    6.2983   -5.3709    0.9797 H   0  0  0  0  0  0  0  0  0  0  0  0
    6.0774   -3.7961    1.7844 H   0  0  0  0  0  0  0  0  0  0  0  0
  1  2  1  0
  1 27  1  0
  1 28  1  0
  1 29  1  0
  3  2  1  6
  2 30  1  0
  2 31  1  0
  3  4  1  0
  3  5  1  0
  3 26  1  0
  4 32  1  0
  4 33  1  0
  4 34  1  0
  5  6  1  0
  5 35  1  0
  5 36  1  0
  6  7  1  0
  6 24  1  0
  7  8  2  0
  7  9  1  0
  9 10  1  0
  9 37  1  0
 10 11  1  6
 10 12  1  0
 10 13  1  0
 12 38  1  0
 12 39  1  0
 12 40  1  0
 13 14  1  1
 13 15  1  0
 13 23  1  0
 15 16  1  0
 15 41  1  0
 15 42  1  0
 16 17  1  0
 16 43  1  0
 16 44  1  0
 17 18  1  0
 17 45  1  0
 17 46  1  0
 18 19  1  0
 18 23  1  0
 19 20  1  0
 19 22  1  0
 19 47  1  6
 20 21  1  0
 20 48  1  0
 20 49  1  0
 21 22  1  0
 21 50  1  0
 21 51  1  0
 22 52  1  0
 22 53  1  0
 23 54  1  0
 23 55  1  0
 24 25  1  0
 24 56  1  0
 24 57  1  0
 25 26  1  0
 25 58  1  0
 25 59  1  0
M  END

