
     RDKit          3D

 65 68  0  0  0  0  0  0  0  0999 V2000
    7.0764   10.0969    4.3701 C   0  0  0  0  0  0  0  0  0  0  0  0
    6.2923    8.8344    4.6340 C   0  0  0  0  0  0  0  0  0  0  0  0
    5.8059    8.0884    3.5475 C   0  0  0  0  0  0  0  0  0  0  0  0
    5.0894    6.8993    3.7421 C   0  0  0  0  0  0  0  0  0  0  0  0
    4.5920    6.1282    2.7380 O   0  0  0  0  0  0  0  0  0  0  0  0
    4.8075    6.4977    1.3891 C   0  0  0  0  0  0  0  0  0  0  0  0
    4.1481    5.4463    0.5052 C   0  0  0  0  0  0  0  0  0  0  0  0
    4.2452    5.7588   -0.9758 C   0  0  2  0  0  0  0  0  0  0  0  0
    3.8734    6.7603   -1.2259 H   0  0  0  0  0  0  0  0  0  0  0  0
    3.9477    4.6970   -2.0052 C   0  0  0  0  0  0  0  0  0  0  0  0
    5.3451    5.2569   -1.9001 C   0  0  2  0  0  0  0  0  0  0  0  0
    5.6067    5.9695   -2.6901 H   0  0  0  0  0  0  0  0  0  0  0  0
    6.5072    4.3788   -1.4475 C   0  0  1  0  0  0  0  0  0  0  0  0
    6.9246    3.3570   -2.5285 C   0  0  0  0  0  0  0  0  0  0  0  0
    7.6765    3.9988   -3.6996 C   0  0  0  0  0  0  0  0  0  0  0  0
    8.8137    4.7799   -3.2226 N   0  0  0  0  0  0  0  0  0  0  0  0
   10.0676    4.6383   -3.7473 C   0  0  0  0  0  0  0  0  0  0  0  0
   10.2527    3.6967   -4.6994 N   0  0  0  0  0  0  0  0  0  0  0  0
   11.4737    3.5536   -5.1928 C   0  0  0  0  0  0  0  0  0  0  0  0
   12.5474    4.3399   -4.7617 C   0  0  0  0  0  0  0  0  0  0  0  0
   14.1496    4.1476   -5.4180 Cl  0  0  0  0  0  0  0  0  0  0  0  0
   12.2616    5.2931   -3.7785 C   0  0  0  0  0  0  0  0  0  0  0  0
   11.0449    5.4458   -3.2779 N   0  0  0  0  0  0  0  0  0  0  0  0
    8.4959    5.8020   -2.2308 C   0  0  0  0  0  0  0  0  0  0  0  0
    7.7499    5.1978   -1.0346 C   0  0  0  0  0  0  0  0  0  0  0  0
    4.8497    6.4514    5.0489 C   0  0  0  0  0  0  0  0  0  0  0  0
    5.3279    7.1927    6.1240 C   0  0  0  0  0  0  0  0  0  0  0  0
    6.0518    8.3827    5.9482 C   0  0  0  0  0  0  0  0  0  0  0  0
    6.5351    9.1406    7.1629 C   0  0  0  0  0  0  0  0  0  0  0  0
    8.0431    8.9911    7.4412 C   0  0  0  0  0  0  0  0  0  0  0  0
    8.7877    8.4632    6.6306 O   0  0  0  0  0  0  0  0  0  0  0  0
    8.5126    9.4947    8.6355 N   0  0  0  0  0  0  0  0  0  0  0  0
    9.9194    9.3316    8.9606 C   0  0  0  0  0  0  0  0  0  0  0  0
    7.7084   10.1316    9.6592 C   0  0  0  0  0  0  0  0  0  0  0  0
    7.0969   10.3395    3.2976 H   0  0  0  0  0  0  0  0  0  0  0  0
    8.1144    9.9826    4.7193 H   0  0  0  0  0  0  0  0  0  0  0  0
    6.6461   10.9655    4.8978 H   0  0  0  0  0  0  0  0  0  0  0  0
    6.0025    8.4553    2.5396 H   0  0  0  0  0  0  0  0  0  0  0  0
    5.8910    6.5664    1.1785 H   0  0  0  0  0  0  0  0  0  0  0  0
    4.3713    7.4957    1.1885 H   0  0  0  0  0  0  0  0  0  0  0  0
    3.0846    5.3801    0.7937 H   0  0  0  0  0  0  0  0  0  0  0  0
    4.5866    4.4628    0.7369 H   0  0  0  0  0  0  0  0  0  0  0  0
    3.3306    4.9504   -2.8720 H   0  0  0  0  0  0  0  0  0  0  0  0
    3.7896    3.6799   -1.6300 H   0  0  0  0  0  0  0  0  0  0  0  0
    6.1713    3.8052   -0.5682 H   0  0  0  0  0  0  0  0  0  0  0  0
    6.0387    2.8263   -2.9139 H   0  0  0  0  0  0  0  0  0  0  0  0
    7.5817    2.5983   -2.0694 H   0  0  0  0  0  0  0  0  0  0  0  0
    6.9978    4.6604   -4.2735 H   0  0  0  0  0  0  0  0  0  0  0  0
    8.0513    3.2380   -4.3926 H   0  0  0  0  0  0  0  0  0  0  0  0
   11.6230    2.7889   -5.9643 H   0  0  0  0  0  0  0  0  0  0  0  0
   13.0537    5.9477   -3.3958 H   0  0  0  0  0  0  0  0  0  0  0  0
    7.8804    6.5898   -2.7087 H   0  0  0  0  0  0  0  0  0  0  0  0
    9.4323    6.2726   -1.9123 H   0  0  0  0  0  0  0  0  0  0  0  0
    7.4670    6.0084   -0.3438 H   0  0  0  0  0  0  0  0  0  0  0  0
    8.4468    4.5403   -0.4873 H   0  0  0  0  0  0  0  0  0  0  0  0
    4.2886    5.5264    5.1947 H   0  0  0  0  0  0  0  0  0  0  0  0
    5.1340    6.8338    7.1395 H   0  0  0  0  0  0  0  0  0  0  0  0
    5.9694    8.8002    8.0440 H   0  0  0  0  0  0  0  0  0  0  0  0
    6.3161   10.2189    7.0632 H   0  0  0  0  0  0  0  0  0  0  0  0
   10.4146    8.8234    8.1256 H   0  0  0  0  0  0  0  0  0  0  0  0
   10.0437    8.7297    9.8791 H   0  0  0  0  0  0  0  0  0  0  0  0
   10.3995   10.3122    9.1284 H   0  0  0  0  0  0  0  0  0  0  0  0
    6.7126   10.3974    9.2896 H   0  0  0  0  0  0  0  0  0  0  0  0
    8.1962   11.0629    9.9968 H   0  0  0  0  0  0  0  0  0  0  0  0
    7.5856    9.4828   10.5478 H   0  0  0  0  0  0  0  0  0  0  0  0
  1  2  1  0
  1 35  1  0
  1 36  1  0
  1 37  1  0
  2  3  2  0
  2 28  1  0
  3  4  1  0
  3 38  1  0
  4  5  1  0
  4 26  2  0
  5  6  1  0
  6  7  1  0
  6 39  1  0
  6 40  1  0
  7  8  1  0
  7 41  1  0
  7 42  1  0
  8  9  1  6
  8 10  1  0
  8 11  1  0
 10 11  1  0
 10 43  1  0
 10 44  1  0
 11 12  1  6
 11 13  1  0
 13 14  1  0
 13 25  1  0
 13 45  1  1
 14 15  1  0
 14 46  1  0
 14 47  1  0
 15 16  1  0
 15 48  1  0
 15 49  1  0
 16 17  1  0
 16 24  1  0
 17 18  2  0
 17 23  1  0
 18 19  1  0
 19 20  2  0
 19 50  1  0
 20 21  1  0
 20 22  1  0
 22 23  2  0
 22 51  1  0
 24 25  1  0
 24 52  1  0
 24 53  1  0
 25 54  1  0
 25 55  1  0
 26 27  1  0
 26 56  1  0
 27 28  2  0
 27 57  1  0
 28 29  1  0
 29 30  1  0
 29 58  1  0
 29 59  1  0
 30 31  2  0
 30 32  1  0
 32 33  1  0
 32 34  1  0
 33 60  1  0
 33 61  1  0
 33 62  1  0
 34 63  1  0
 34 64  1  0
 34 65  1  0
M  END

