
     RDKit          3D

111111  0  0  0  0  0  0  0  0999 V2000
   22.3471   17.1846   -0.2043 C   0  0  0  0  0  0  0  0  0  0  0  0
   22.0089   15.7355    0.1489 C   0  0  0  0  0  0  0  0  0  0  0  0
   20.5753   15.3342   -0.2125 C   0  0  0  0  0  0  0  0  0  0  0  0
   20.2286   13.8843    0.1378 C   0  0  0  0  0  0  0  0  0  0  0  0
   18.7951   13.4839   -0.2229 C   0  0  0  0  0  0  0  0  0  0  0  0
   18.4497   12.0331    0.1263 C   0  0  0  0  0  0  0  0  0  0  0  0
   17.0155   11.6338   -0.2330 C   0  0  0  0  0  0  0  0  0  0  0  0
   16.6719   10.1820    0.1135 C   0  0  0  0  0  0  0  0  0  0  0  0
   15.2362    9.7855   -0.2418 C   0  0  0  0  0  0  0  0  0  0  0  0
   14.8960    8.3296    0.0979 C   0  0  0  0  0  0  0  0  0  0  0  0
   13.4349    7.9770   -0.2288 C   0  0  0  0  0  0  0  0  0  0  0  0
   12.9764    6.5167   -0.0094 C   0  0  1  0  0  0  0  0  0  0  0  0
   13.4236    5.9313    1.3753 C   0  0  0  0  0  0  0  0  0  0  0  0
   12.9215    6.6869    2.6095 C   0  0  0  0  0  0  0  0  0  0  0  0
   13.3739    6.0285    3.9179 C   0  0  0  0  0  0  0  0  0  0  0  0
   12.8872    6.7607    5.1719 C   0  0  0  0  0  0  0  0  0  0  0  0
   13.3241    6.0993    6.4823 C   0  0  0  0  0  0  0  0  0  0  0  0
   12.8414    6.8332    7.7369 C   0  0  0  0  0  0  0  0  0  0  0  0
   13.2682    6.1651    9.0473 C   0  0  0  0  0  0  0  0  0  0  0  0
   12.7907    6.9094   10.3003 C   0  0  0  0  0  0  0  0  0  0  0  0
   13.1893    6.1553   11.5800 C   0  0  0  0  0  0  0  0  0  0  0  0
   12.8905    6.8287   12.9706 C   0  0  1  0  0  0  0  0  0  0  0  0
   11.5254    7.5562   12.7626 C   0  0  0  0  0  0  0  0  0  0  0  0
   11.4095    8.7481   12.6170 O   0  0  0  0  0  0  0  0  0  0  0  0
   10.5382    6.6651   12.6081 O   0  0  0  0  0  0  0  0  0  0  0  0
    9.1300    7.0601   12.4027 C   0  0  1  0  0  0  0  0  0  0  0  0
    8.9727    7.7318   11.0351 C   0  0  0  0  0  0  0  0  0  0  0  0
    8.3977    5.7176   12.4345 C   0  0  0  0  0  0  0  0  0  0  0  0
    8.6511    7.9656   13.5417 C   0  0  0  0  0  0  0  0  0  0  0  0
   12.6816    5.7484   13.9911 N   0  0  0  0  0  0  0  0  0  0  0  0
   13.3314    4.4985   14.0159 C   0  0  0  0  0  0  0  0  0  0  0  0
   14.1723    4.1098   13.2441 O   0  0  0  0  0  0  0  0  0  0  0  0
   12.8067    3.7054   15.2083 C   0  0  0  0  0  0  0  0  0  0  0  0
   11.7722    4.6061   15.8731 C   0  0  0  0  0  0  0  0  0  0  0  0
   11.8058    5.9000   15.0752 C   0  0  0  0  0  0  0  0  0  0  0  0
   11.1769    6.9002   15.3273 O   0  0  0  0  0  0  0  0  0  0  0  0
   14.0547    7.8079   13.4643 C   0  0  1  0  0  0  0  0  0  0  0  0
   14.4718    8.8050   12.3603 C   0  0  0  0  0  0  0  0  0  0  0  0
   13.6454    8.6253   14.7102 C   0  0  0  0  0  0  0  0  0  0  0  0
   15.3120    6.9945   13.8454 C   0  0  0  0  0  0  0  0  0  0  0  0
   11.4067    6.4805   -0.0218 C   0  0  0  0  0  0  0  0  0  0  0  0
   10.7473    7.4732    0.1464 O   0  0  0  0  0  0  0  0  0  0  0  0
   10.8569    5.2760   -0.1467 O   0  0  0  0  0  0  0  0  0  0  0  0
   13.4948    5.5298   -1.0743 C   0  0  0  0  0  0  0  0  0  0  0  0
   13.1071    4.3800   -1.1195 O   0  0  0  0  0  0  0  0  0  0  0  0
   14.3992    5.9488   -1.9609 O   0  0  0  0  0  0  0  0  0  0  0  0
   23.3840   17.4375    0.0691 H   0  0  0  0  0  0  0  0  0  0  0  0
   21.6829   17.8911    0.3215 H   0  0  0  0  0  0  0  0  0  0  0  0
   22.2336   17.3708   -1.2857 H   0  0  0  0  0  0  0  0  0  0  0  0
   22.1691   15.5723    1.2304 H   0  0  0  0  0  0  0  0  0  0  0  0
   22.7152   15.0565   -0.3630 H   0  0  0  0  0  0  0  0  0  0  0  0
   20.4136   15.4970   -1.2947 H   0  0  0  0  0  0  0  0  0  0  0  0
   19.8675   16.0128    0.2996 H   0  0  0  0  0  0  0  0  0  0  0  0
   20.3910   13.7217    1.2198 H   0  0  0  0  0  0  0  0  0  0  0  0
   20.9364   13.2061   -0.3747 H   0  0  0  0  0  0  0  0  0  0  0  0
   18.6319   13.6471   -1.3046 H   0  0  0  0  0  0  0  0  0  0  0  0
   18.0870   14.1608    0.2905 H   0  0  0  0  0  0  0  0  0  0  0  0
   18.6136   11.8692    1.2077 H   0  0  0  0  0  0  0  0  0  0  0  0
   19.1567   11.3558   -0.3883 H   0  0  0  0  0  0  0  0  0  0  0  0
   16.8503   11.7995   -1.3139 H   0  0  0  0  0  0  0  0  0  0  0  0
   16.3080   12.3087    0.2835 H   0  0  0  0  0  0  0  0  0  0  0  0
   16.8391   10.0147    1.1937 H   0  0  0  0  0  0  0  0  0  0  0  0
   17.3772    9.5061   -0.4055 H   0  0  0  0  0  0  0  0  0  0  0  0
   15.0631    9.9622   -1.3198 H   0  0  0  0  0  0  0  0  0  0  0  0
   14.5283   10.4513    0.2841 H   0  0  0  0  0  0  0  0  0  0  0  0
   15.0870    8.1591    1.1702 H   0  0  0  0  0  0  0  0  0  0  0  0
   15.6138    7.6653   -0.4218 H   0  0  0  0  0  0  0  0  0  0  0  0
   13.1992    8.2665   -1.2704 H   0  0  0  0  0  0  0  0  0  0  0  0
   12.7718    8.6132    0.3729 H   0  0  0  0  0  0  0  0  0  0  0  0
   14.5258    5.8846    1.3922 H   0  0  0  0  0  0  0  0  0  0  0  0
   13.0801    4.8866    1.4239 H   0  0  0  0  0  0  0  0  0  0  0  0
   11.8203    6.7462    2.5922 H   0  0  0  0  0  0  0  0  0  0  0  0
   13.2761    7.7319    2.5897 H   0  0  0  0  0  0  0  0  0  0  0  0
   14.4780    5.9655    3.9367 H   0  0  0  0  0  0  0  0  0  0  0  0
   13.0148    4.9832    3.9424 H   0  0  0  0  0  0  0  0  0  0  0  0
   11.7841    6.8300    5.1472 H   0  0  0  0  0  0  0  0  0  0  0  0
   13.2519    7.8045    5.1499 H   0  0  0  0  0  0  0  0  0  0  0  0
   14.4274    6.0254    6.5047 H   0  0  0  0  0  0  0  0  0  0  0  0
   12.9553    5.0569    6.5048 H   0  0  0  0  0  0  0  0  0  0  0  0
   11.7388    6.9139    7.7102 H   0  0  0  0  0  0  0  0  0  0  0  0
   13.2160    7.8735    7.7184 H   0  0  0  0  0  0  0  0  0  0  0  0
   14.3702    6.0773    9.0705 H   0  0  0  0  0  0  0  0  0  0  0  0
   12.8880    5.1269    9.0687 H   0  0  0  0  0  0  0  0  0  0  0  0
   11.6962    7.0150   10.2493 H   0  0  0  0  0  0  0  0  0  0  0  0
   13.1938    7.9313   10.2853 H   0  0  0  0  0  0  0  0  0  0  0  0
   14.2546    5.8994   11.5356 H   0  0  0  0  0  0  0  0  0  0  0  0
   12.6573    5.1948   11.5636 H   0  0  0  0  0  0  0  0  0  0  0  0
    9.2964    7.0581   10.2266 H   0  0  0  0  0  0  0  0  0  0  0  0
    9.5548    8.6606   10.9819 H   0  0  0  0  0  0  0  0  0  0  0  0
    7.9118    7.9744   10.8667 H   0  0  0  0  0  0  0  0  0  0  0  0
    8.7943    5.0396   11.6634 H   0  0  0  0  0  0  0  0  0  0  0  0
    7.3233    5.8665   12.2481 H   0  0  0  0  0  0  0  0  0  0  0  0
    8.5144    5.2343   13.4164 H   0  0  0  0  0  0  0  0  0  0  0  0
    9.1394    8.9472   13.5047 H   0  0  0  0  0  0  0  0  0  0  0  0
    8.8697    7.5090   14.5168 H   0  0  0  0  0  0  0  0  0  0  0  0
    7.5627    8.1093   13.4519 H   0  0  0  0  0  0  0  0  0  0  0  0
   13.6633    3.4585   15.8540 H   0  0  0  0  0  0  0  0  0  0  0  0
   12.4048    2.7505   14.8377 H   0  0  0  0  0  0  0  0  0  0  0  0
   11.9791    4.8377   16.9284 H   0  0  0  0  0  0  0  0  0  0  0  0
   10.7460    4.2090   15.8302 H   0  0  0  0  0  0  0  0  0  0  0  0
   13.6228    9.4041   12.0091 H   0  0  0  0  0  0  0  0  0  0  0  0
   14.9413    8.3015   11.5026 H   0  0  0  0  0  0  0  0  0  0  0  0
   15.2238    9.4943   12.7757 H   0  0  0  0  0  0  0  0  0  0  0  0
   12.7671    9.2534   14.5213 H   0  0  0  0  0  0  0  0  0  0  0  0
   14.4848    9.2817   14.9913 H   0  0  0  0  0  0  0  0  0  0  0  0
   13.4288    7.9870   15.5772 H   0  0  0  0  0  0  0  0  0  0  0  0
   15.6599    6.3331   13.0405 H   0  0  0  0  0  0  0  0  0  0  0  0
   15.1505    6.3768   14.7412 H   0  0  0  0  0  0  0  0  0  0  0  0
   16.1282    7.6947   14.0825 H   0  0  0  0  0  0  0  0  0  0  0  0
   11.5535    4.6254   -0.4094 H   0  0  0  0  0  0  0  0  0  0  0  0
   14.6126    6.8824   -1.8169 H   0  0  0  0  0  0  0  0  0  0  0  0
  1  2  1  0
  1 47  1  0
  1 48  1  0
  1 49  1  0
  2  3  1  0
  2 50  1  0
  2 51  1  0
  3  4  1  0
  3 52  1  0
  3 53  1  0
  4  5  1  0
  4 54  1  0
  4 55  1  0
  5  6  1  0
  5 56  1  0
  5 57  1  0
  6  7  1  0
  6 58  1  0
  6 59  1  0
  7  8  1  0
  7 60  1  0
  7 61  1  0
  8  9  1  0
  8 62  1  0
  8 63  1  0
  9 10  1  0
  9 64  1  0
  9 65  1  0
 10 11  1  0
 10 66  1  0
 10 67  1  0
 11 12  1  0
 11 68  1  0
 11 69  1  0
 12 13  1  0
 12 41  1  1
 12 44  1  0
 13 14  1  0
 13 70  1  0
 13 71  1  0
 14 15  1  0
 14 72  1  0
 14 73  1  0
 15 16  1  0
 15 74  1  0
 15 75  1  0
 16 17  1  0
 16 76  1  0
 16 77  1  0
 17 18  1  0
 17 78  1  0
 17 79  1  0
 18 19  1  0
 18 80  1  0
 18 81  1  0
 19 20  1  0
 19 82  1  0
 19 83  1  0
 20 21  1  0
 20 84  1  0
 20 85  1  0
 21 22  1  0
 21 86  1  0
 21 87  1  0
 22 23  1  6
 22 30  1  0
 22 37  1  0
 23 24  2  0
 23 25  1  0
 26 25  1  1
 26 27  1  0
 26 28  1  0
 26 29  1  0
 27 88  1  0
 27 89  1  0
 27 90  1  0
 28 91  1  0
 28 92  1  0
 28 93  1  0
 29 94  1  0
 29 95  1  0
 29 96  1  0
 30 31  1  0
 30 35  1  0
 31 32  2  0
 31 33  1  0
 33 34  1  0
 33 97  1  0
 33 98  1  0
 34 35  1  0
 34 99  1  0
 34100  1  0
 35 36  2  0
 37 38  1  6
 37 39  1  0
 37 40  1  0
 38101  1  0
 38102  1  0
 38103  1  0
 39104  1  0
 39105  1  0
 39106  1  0
 40107  1  0
 40108  1  0
 40109  1  0
 41 42  2  0
 41 43  1  0
 43110  1  0
 44 45  2  0
 44 46  1  0
 46111  1  0
M  END

