
     RDKit          3D

 39 39  0  0  0  0  0  0  0  0999 V2000
   -5.7901   -2.5101   -0.5537 C   0  0  0  0  0  0  0  0  0  0  0  0
   -5.7411   -4.0194   -0.7150 C   0  0  0  0  0  0  0  0  0  0  0  0
   -4.4854   -4.5618   -0.2496 O   0  0  0  0  0  0  0  0  0  0  0  0
   -3.4733   -4.5918   -1.1142 C   0  0  0  0  0  0  0  0  0  0  0  0
   -3.4965   -4.2147   -2.2588 O   0  0  0  0  0  0  0  0  0  0  0  0
   -2.2566   -5.1737   -0.4822 C   0  0  0  0  0  0  0  0  0  0  0  0
   -2.0686   -5.6274    0.7158 N   0  0  0  0  0  0  0  0  0  0  0  0
   -0.7632   -6.0570    0.7740 N   0  0  0  0  0  0  0  0  0  0  0  0
   -0.2431   -5.8253   -0.4044 C   0  0  0  0  0  0  0  0  0  0  0  0
    1.3677   -6.1217   -0.9938 S   0  0  0  0  0  0  0  0  0  0  0  0
    2.2012   -6.6012    0.5775 C   0  0  0  0  0  0  0  0  0  0  0  0
    2.0921   -8.0915    0.9410 C   0  0  0  0  0  0  0  0  0  0  0  0
    3.0288   -8.8443    0.7306 O   0  0  0  0  0  0  0  0  0  0  0  0
    0.9134   -8.4508    1.5085 N   0  0  0  0  0  0  0  0  0  0  0  0
    0.6102   -9.8159    1.9335 C   0  0  1  0  0  0  0  0  0  0  0  0
    0.3013   -9.8207    3.4362 C   0  0  0  0  0  0  0  0  0  0  0  0
   -0.5137  -10.4361    1.0603 C   0  0  1  0  0  0  0  0  0  0  0  0
   -0.1393  -10.4281   -0.4278 C   0  0  0  0  0  0  0  0  0  0  0  0
   -0.8731  -11.8596    1.5092 C   0  0  0  0  0  0  0  0  0  0  0  0
   -1.1312   -5.2688   -1.2484 O   0  0  0  0  0  0  0  0  0  0  0  0
   -6.7873   -2.1400   -0.8405 H   0  0  0  0  0  0  0  0  0  0  0  0
   -5.0467   -2.0200   -1.1998 H   0  0  0  0  0  0  0  0  0  0  0  0
   -5.6019   -2.2193    0.4912 H   0  0  0  0  0  0  0  0  0  0  0  0
   -5.8859   -4.3129   -1.7650 H   0  0  0  0  0  0  0  0  0  0  0  0
   -6.4982   -4.5158   -0.0924 H   0  0  0  0  0  0  0  0  0  0  0  0
    1.8262   -5.9421    1.3735 H   0  0  0  0  0  0  0  0  0  0  0  0
    3.2610   -6.3909    0.3868 H   0  0  0  0  0  0  0  0  0  0  0  0
    0.1933   -7.7329    1.6097 H   0  0  0  0  0  0  0  0  0  0  0  0
    1.5362  -10.3858    1.7566 H   0  0  0  0  0  0  0  0  0  0  0  0
   -0.6368   -9.2810    3.6530 H   0  0  0  0  0  0  0  0  0  0  0  0
    1.1133   -9.3269    3.9909 H   0  0  0  0  0  0  0  0  0  0  0  0
    0.2007  -10.8429    3.8282 H   0  0  0  0  0  0  0  0  0  0  0  0
   -1.4126   -9.8017    1.1916 H   0  0  0  0  0  0  0  0  0  0  0  0
    0.7553  -11.0460   -0.6125 H   0  0  0  0  0  0  0  0  0  0  0  0
    0.0795   -9.4139   -0.7924 H   0  0  0  0  0  0  0  0  0  0  0  0
   -0.9611  -10.8342   -1.0390 H   0  0  0  0  0  0  0  0  0  0  0  0
    0.0137  -12.5165    1.4840 H   0  0  0  0  0  0  0  0  0  0  0  0
   -1.6264  -12.2980    0.8354 H   0  0  0  0  0  0  0  0  0  0  0  0
   -1.2878  -11.8913    2.5275 H   0  0  0  0  0  0  0  0  0  0  0  0
  1  2  1  0
  1 21  1  0
  1 22  1  0
  1 23  1  0
  2  3  1  0
  2 24  1  0
  2 25  1  0
  3  4  1  0
  4  5  2  0
  4  6  1  0
  6  7  2  0
  6 20  1  0
  7  8  1  0
  8  9  2  0
  9 10  1  0
  9 20  1  0
 10 11  1  0
 11 12  1  0
 11 26  1  0
 11 27  1  0
 12 13  2  0
 12 14  1  0
 14 15  1  0
 14 28  1  0
 15 16  1  0
 15 17  1  0
 15 29  1  1
 16 30  1  0
 16 31  1  0
 16 32  1  0
 17 18  1  0
 17 19  1  0
 17 33  1  6
 18 34  1  0
 18 35  1  0
 18 36  1  0
 19 37  1  0
 19 38  1  0
 19 39  1  0
M  END

