
     RDKit          3D

 48 49  0  0  0  0  0  0  0  0999 V2000
    2.5134    3.1912   -1.8989 C   0  0  0  0  0  0  0  0  0  0  0  0
    1.8708    2.0007   -1.1812 C   0  0  0  0  0  0  0  0  0  0  0  0
    2.4859    1.5542    0.1790 C   0  0  1  0  0  0  0  0  0  0  0  0
    2.2936    2.6980    1.2011 C   0  0  0  0  0  0  0  0  0  0  0  0
    1.6544    0.3511    0.6702 C   0  0  0  0  0  0  0  0  0  0  0  0
    4.0271    1.2615    0.0259 C   0  0  1  0  0  0  0  0  0  0  0  0
    4.7725    0.8179    1.3139 C   0  0  0  0  0  0  0  0  0  0  0  0
    4.7760   -0.6941    1.5954 C   0  0  0  0  0  0  0  0  0  0  0  0
    5.2538   -1.5356    0.4036 C   0  0  2  0  0  0  0  0  0  0  0  0
    6.7013   -1.2932    0.2039 N   0  0  0  0  0  0  0  0  0  0  0  0
    7.6401   -2.4151   -0.6377 S   0  0  1  0  0  0  0  0  0  0  0  0
    8.9448   -2.3873    0.0302 O   0  0  0  0  0  0  0  0  0  0  0  0
    6.8881   -3.6621   -0.8179 O   0  0  0  0  0  0  0  0  0  0  0  0
    7.8580   -1.6913   -2.2683 C   0  0  0  0  0  0  0  0  0  0  0  0
    8.6131   -0.5213   -2.4028 C   0  0  0  0  0  0  0  0  0  0  0  0
    8.8209    0.0188   -3.6704 C   0  0  0  0  0  0  0  0  0  0  0  0
    8.2799   -0.6271   -4.7902 C   0  0  0  0  0  0  0  0  0  0  0  0
    8.5418    0.0491   -6.3769 Cl  0  0  0  0  0  0  0  0  0  0  0  0
    7.5395   -1.8052   -4.6568 C   0  0  0  0  0  0  0  0  0  0  0  0
    7.3296   -2.3423   -3.3841 C   0  0  0  0  0  0  0  0  0  0  0  0
    4.4436   -1.1687   -0.8479 C   0  0  0  0  0  0  0  0  0  0  0  0
    4.4590    0.3372   -1.1437 C   0  0  0  0  0  0  0  0  0  0  0  0
    1.9394    3.4448   -2.8047 H   0  0  0  0  0  0  0  0  0  0  0  0
    3.5464    2.9838   -2.2198 H   0  0  0  0  0  0  0  0  0  0  0  0
    2.5368    4.0938   -1.2679 H   0  0  0  0  0  0  0  0  0  0  0  0
    1.8505    1.1370   -1.8674 H   0  0  0  0  0  0  0  0  0  0  0  0
    0.8093    2.2387   -0.9910 H   0  0  0  0  0  0  0  0  0  0  0  0
    1.2380    3.0139    1.2316 H   0  0  0  0  0  0  0  0  0  0  0  0
    2.9005    3.5830    0.9535 H   0  0  0  0  0  0  0  0  0  0  0  0
    2.5653    2.3881    2.2216 H   0  0  0  0  0  0  0  0  0  0  0  0
    0.5913    0.6342    0.7442 H   0  0  0  0  0  0  0  0  0  0  0  0
    1.9651    0.0124    1.6697 H   0  0  0  0  0  0  0  0  0  0  0  0
    1.7122   -0.5064   -0.0166 H   0  0  0  0  0  0  0  0  0  0  0  0
    4.4472    2.2512   -0.2181 H   0  0  0  0  0  0  0  0  0  0  0  0
    4.3853    1.3501    2.1958 H   0  0  0  0  0  0  0  0  0  0  0  0
    5.8216    1.1443    1.2112 H   0  0  0  0  0  0  0  0  0  0  0  0
    3.7672   -1.0460    1.8574 H   0  0  0  0  0  0  0  0  0  0  0  0
    5.4059   -0.9076    2.4778 H   0  0  0  0  0  0  0  0  0  0  0  0
    5.0958   -2.6035    0.6302 H   0  0  0  0  0  0  0  0  0  0  0  0
    7.2129   -1.0950    1.0641 H   0  0  0  0  0  0  0  0  0  0  0  0
    9.0407   -0.0405   -1.5210 H   0  0  0  0  0  0  0  0  0  0  0  0
    9.4042    0.9317   -3.8000 H   0  0  0  0  0  0  0  0  0  0  0  0
    7.1360   -2.2973   -5.5431 H   0  0  0  0  0  0  0  0  0  0  0  0
    6.7648   -3.2663   -3.2497 H   0  0  0  0  0  0  0  0  0  0  0  0
    3.4160   -1.5347   -0.6950 H   0  0  0  0  0  0  0  0  0  0  0  0
    4.8305   -1.7251   -1.7163 H   0  0  0  0  0  0  0  0  0  0  0  0
    3.8635    0.5379   -2.0461 H   0  0  0  0  0  0  0  0  0  0  0  0
    5.4953    0.6097   -1.4051 H   0  0  0  0  0  0  0  0  0  0  0  0
  1  2  1  0
  1 23  1  0
  1 24  1  0
  1 25  1  0
  3  2  1  6
  2 26  1  0
  2 27  1  0
  3  4  1  0
  3  5  1  0
  3  6  1  0
  4 28  1  0
  4 29  1  0
  4 30  1  0
  5 31  1  0
  5 32  1  0
  5 33  1  0
  6  7  1  0
  6 22  1  0
  6 34  1  6
  7  8  1  0
  7 35  1  0
  7 36  1  0
  8  9  1  0
  8 37  1  0
  8 38  1  0
  9 10  1  0
  9 21  1  0
  9 39  1  1
 11 10  1  1
 10 40  1  0
 11 12  2  0
 11 13  2  0
 11 14  1  0
 14 15  2  0
 14 20  1  0
 15 16  1  0
 15 41  1  0
 16 17  2  0
 16 42  1  0
 17 18  1  0
 17 19  1  0
 19 20  2  0
 19 43  1  0
 20 44  1  0
 21 22  1  0
 21 45  1  0
 21 46  1  0
 22 47  1  0
 22 48  1  0
M  END

