
     RDKit          3D

 40 42  0  0  0  0  0  0  0  0999 V2000
    0.9895    0.2749    0.0761 C   0  0  0  0  0  0  0  0  0  0  0  0
    2.4227    0.4049   -0.1208 N   0  0  0  0  0  0  0  0  0  0  0  0
    2.8145    1.3067   -1.2090 C   0  0  0  0  0  0  0  0  0  0  0  0
    3.0619    0.4406   -2.4911 C   0  0  1  0  0  0  0  0  0  0  0  0
    4.3159    0.8322   -3.3487 C   0  0  1  0  0  0  0  0  0  0  0  0
    3.9774    1.6831   -3.9592 H   0  0  0  0  0  0  0  0  0  0  0  0
    5.5086    1.3809   -2.5674 C   0  0  0  0  0  0  0  0  0  0  0  0
    5.8111    2.7523   -2.6319 C   0  0  0  0  0  0  0  0  0  0  0  0
    6.8869    3.3002   -1.9284 C   0  0  0  0  0  0  0  0  0  0  0  0
    7.6960    2.4864   -1.1345 C   0  0  0  0  0  0  0  0  0  0  0  0
    7.4156    1.1180   -1.0645 C   0  0  0  0  0  0  0  0  0  0  0  0
    8.2942    0.1978   -0.2544 C   0  0  1  0  0  0  0  0  0  0  0  0
    8.9661    0.8544    0.7067 F   0  0  0  0  0  0  0  0  0  0  0  0
    7.5786   -0.7741    0.3450 F   0  0  0  0  0  0  0  0  0  0  0  0
    9.2125   -0.4193   -1.0248 F   0  0  0  0  0  0  0  0  0  0  0  0
    6.3408    0.5752   -1.7763 C   0  0  0  0  0  0  0  0  0  0  0  0
    4.7324   -0.3050   -4.3487 C   0  0  0  0  0  0  0  0  0  0  0  0
    4.0564   -1.6687   -4.1256 C   0  0  0  0  0  0  0  0  0  0  0  0
    3.9489   -2.0102   -2.6370 C   0  0  0  0  0  0  0  0  0  0  0  0
    2.9973   -1.0261   -1.9519 C   0  0  1  0  0  0  0  0  0  0  0  0
    1.9743   -1.3833   -2.1617 H   0  0  0  0  0  0  0  0  0  0  0  0
    3.1068   -0.8519   -0.4214 C   0  0  0  0  0  0  0  0  0  0  0  0
    0.5565    1.2577    0.3212 H   0  0  0  0  0  0  0  0  0  0  0  0
    0.7901   -0.3894    0.9320 H   0  0  0  0  0  0  0  0  0  0  0  0
    0.4259   -0.1276   -0.7972 H   0  0  0  0  0  0  0  0  0  0  0  0
    3.7412    1.8282   -0.9229 H   0  0  0  0  0  0  0  0  0  0  0  0
    2.0468    2.0799   -1.3628 H   0  0  0  0  0  0  0  0  0  0  0  0
    2.2101    0.5704   -3.1759 H   0  0  0  0  0  0  0  0  0  0  0  0
    5.1851    3.4065   -3.2457 H   0  0  0  0  0  0  0  0  0  0  0  0
    7.0933    4.3710   -1.9977 H   0  0  0  0  0  0  0  0  0  0  0  0
    8.5322    2.9054   -0.5728 H   0  0  0  0  0  0  0  0  0  0  0  0
    6.1531   -0.4952   -1.6970 H   0  0  0  0  0  0  0  0  0  0  0  0
    5.8236   -0.4427   -4.2871 H   0  0  0  0  0  0  0  0  0  0  0  0
    4.5378    0.0316   -5.3796 H   0  0  0  0  0  0  0  0  0  0  0  0
    4.6218   -2.4438   -4.6689 H   0  0  0  0  0  0  0  0  0  0  0  0
    3.0414   -1.6692   -4.5618 H   0  0  0  0  0  0  0  0  0  0  0  0
    4.9521   -1.9821   -2.1763 H   0  0  0  0  0  0  0  0  0  0  0  0
    3.5875   -3.0426   -2.4981 H   0  0  0  0  0  0  0  0  0  0  0  0
    4.1678   -0.7751   -0.1201 H   0  0  0  0  0  0  0  0  0  0  0  0
    2.6674   -1.6862    0.1469 H   0  0  0  0  0  0  0  0  0  0  0  0
  1  2  1  0
  1 23  1  0
  1 24  1  0
  1 25  1  0
  2  3  1  0
  2 22  1  0
  3  4  1  0
  3 26  1  0
  3 27  1  0
  4  5  1  0
  4 20  1  0
  4 28  1  6
  5  6  1  6
  5  7  1  0
  5 17  1  0
  7  8  2  0
  7 16  1  0
  8  9  1  0
  8 29  1  0
  9 10  2  0
  9 30  1  0
 10 11  1  0
 10 31  1  0
 11 12  1  0
 11 16  2  0
 12 13  1  1
 12 14  1  0
 12 15  1  0
 16 32  1  0
 17 18  1  0
 17 33  1  0
 17 34  1  0
 18 19  1  0
 18 35  1  0
 18 36  1  0
 19 20  1  0
 19 37  1  0
 19 38  1  0
 20 21  1  1
 20 22  1  0
 22 39  1  0
 22 40  1  0
M  END

