
     RDKit          3D

 24 24  0  0  0  0  0  0  0  0999 V2000
    2.0033    1.4269   -0.3090 C   0  0  0  0  0  0  0  0  0  0  0  0
    1.8944   -0.0148   -0.2717 N   0  0  0  0  0  0  0  0  0  0  0  0
    2.6341   -0.8805   -1.0083 C   0  0  0  0  0  0  0  0  0  0  0  0
    3.6409   -0.4008   -1.9283 C   0  0  0  0  0  0  0  0  0  0  0  0
    4.3853   -1.1835   -2.6525 N   0  0  0  0  0  0  0  0  0  0  0  0
    4.2318   -2.4987   -2.5641 N   0  0  0  0  0  0  0  0  0  0  0  0
    5.1199   -3.3018   -3.3978 C   0  0  0  0  0  0  0  0  0  0  0  0
    4.6600   -3.5157   -4.8489 C   0  0  0  0  0  0  0  0  0  0  0  0
    3.1731   -3.5330   -5.1200 C   0  0  0  0  0  0  0  0  0  0  0  0
    5.4924   -3.7097   -5.7032 O   0  0  0  0  0  0  0  0  0  0  0  0
    3.2795   -3.1676   -1.7431 C   0  0  0  0  0  0  0  0  0  0  0  0
    3.1942   -4.3866   -1.7723 O   0  0  0  0  0  0  0  0  0  0  0  0
    2.4886   -2.2610   -0.9429 C   0  0  0  0  0  0  0  0  0  0  0  0
    1.2040   -3.0460    0.2074 Br  0  0  0  0  0  0  0  0  0  0  0  0
    1.2760    1.8513    0.3959 H   0  0  0  0  0  0  0  0  0  0  0  0
    1.7799    1.8396   -1.3087 H   0  0  0  0  0  0  0  0  0  0  0  0
    3.0054    1.7800   -0.0080 H   0  0  0  0  0  0  0  0  0  0  0  0
    1.2111   -0.4357    0.3482 H   0  0  0  0  0  0  0  0  0  0  0  0
    3.8241    0.6685   -2.0501 H   0  0  0  0  0  0  0  0  0  0  0  0
    5.1874   -4.2977   -2.9337 H   0  0  0  0  0  0  0  0  0  0  0  0
    6.1117   -2.8335   -3.4181 H   0  0  0  0  0  0  0  0  0  0  0  0
    2.6759   -4.2392   -4.4351 H   0  0  0  0  0  0  0  0  0  0  0  0
    2.9952   -3.8153   -6.1656 H   0  0  0  0  0  0  0  0  0  0  0  0
    2.7392   -2.5375   -4.9288 H   0  0  0  0  0  0  0  0  0  0  0  0
  1  2  1  0
  1 15  1  0
  1 16  1  0
  1 17  1  0
  2  3  1  0
  2 18  1  0
  3  4  1  0
  3 13  2  0
  4  5  2  0
  4 19  1  0
  5  6  1  0
  6  7  1  0
  6 11  1  0
  7  8  1  0
  7 20  1  0
  7 21  1  0
  8  9  1  0
  8 10  2  0
  9 22  1  0
  9 23  1  0
  9 24  1  0
 11 12  2  0
 11 13  1  0
 13 14  1  0
M  END

