
     RDKit          3D

 50 51  0  0  0  0  0  0  0  0999 V2000
    2.3815   -0.3639    0.5588 C   0  0  0  0  0  0  0  0  0  0  0  0
    3.8793   -0.3218    0.2350 C   0  0  1  0  0  0  0  0  0  0  0  0
    4.1769   -0.0218   -1.2494 C   0  0  0  0  0  0  0  0  0  0  0  0
    3.8334    1.3494   -1.6229 N   0  0  0  0  0  0  0  0  0  0  0  0
    4.9336    2.1934   -2.0985 C   0  0  0  0  0  0  0  0  0  0  0  0
    5.2254    1.9914   -3.5963 C   0  0  0  0  0  0  0  0  0  0  0  0
    4.0396    2.1559   -4.4352 N   0  0  0  0  0  0  0  0  0  0  0  0
    3.6839    3.5297   -4.7366 C   0  0  0  0  0  0  0  0  0  0  0  0
    2.9410    1.3210   -3.9544 C   0  0  0  0  0  0  0  0  0  0  0  0
    2.6405    1.5194   -2.4568 C   0  0  0  0  0  0  0  0  0  0  0  0
    4.5666    0.6613    1.0632 N   0  0  0  0  0  0  0  0  0  0  0  0
    5.2752    0.3391    2.1750 C   0  0  0  0  0  0  0  0  0  0  0  0
    5.4600   -0.8022    2.5741 O   0  0  0  0  0  0  0  0  0  0  0  0
    5.8460    1.5529    2.9347 C   0  0  0  0  0  0  0  0  0  0  0  0
    4.8386    2.3286    3.6370 N   0  0  0  0  0  0  0  0  0  0  0  0
    4.1128    3.2940    2.9995 C   0  0  0  0  0  0  0  0  0  0  0  0
    4.1924    3.6333    1.8338 O   0  0  0  0  0  0  0  0  0  0  0  0
    3.2340    3.8294    3.9548 N   0  0  0  0  0  0  0  0  0  0  0  0
    3.3437    3.2228    5.1878 C   0  0  0  0  0  0  0  0  0  0  0  0
    2.7201    3.4840    6.1870 O   0  0  0  0  0  0  0  0  0  0  0  0
    4.4211    2.1247    5.0340 C   0  0  1  0  0  0  0  0  0  0  0  0
    3.7769    0.7452    5.2518 C   0  0  0  0  0  0  0  0  0  0  0  0
    5.5596    2.3780    6.0317 C   0  0  0  0  0  0  0  0  0  0  0  0
    1.8651   -1.1207   -0.0543 H   0  0  0  0  0  0  0  0  0  0  0  0
    1.9116    0.6146    0.3711 H   0  0  0  0  0  0  0  0  0  0  0  0
    2.2259   -0.6231    1.6174 H   0  0  0  0  0  0  0  0  0  0  0  0
    4.3221   -1.2978    0.4869 H   0  0  0  0  0  0  0  0  0  0  0  0
    3.6425   -0.7643   -1.8711 H   0  0  0  0  0  0  0  0  0  0  0  0
    5.2517   -0.2010   -1.4198 H   0  0  0  0  0  0  0  0  0  0  0  0
    5.8323    1.9917   -1.4943 H   0  0  0  0  0  0  0  0  0  0  0  0
    4.6642    3.2486   -1.9095 H   0  0  0  0  0  0  0  0  0  0  0  0
    5.6182    0.9683   -3.7516 H   0  0  0  0  0  0  0  0  0  0  0  0
    6.0094    2.6889   -3.9369 H   0  0  0  0  0  0  0  0  0  0  0  0
    4.5429    4.0385   -5.2044 H   0  0  0  0  0  0  0  0  0  0  0  0
    3.3688    4.1506   -3.8685 H   0  0  0  0  0  0  0  0  0  0  0  0
    2.8560    3.5448   -5.4646 H   0  0  0  0  0  0  0  0  0  0  0  0
    3.2123    0.2622   -4.1290 H   0  0  0  0  0  0  0  0  0  0  0  0
    2.0410    1.5221   -4.5601 H   0  0  0  0  0  0  0  0  0  0  0  0
    1.8565    0.8214   -2.1246 H   0  0  0  0  0  0  0  0  0  0  0  0
    2.2421    2.5370   -2.2897 H   0  0  0  0  0  0  0  0  0  0  0  0
    4.4069    1.6443    0.8379 H   0  0  0  0  0  0  0  0  0  0  0  0
    6.3617    2.2251    2.2311 H   0  0  0  0  0  0  0  0  0  0  0  0
    6.5771    1.1675    3.6561 H   0  0  0  0  0  0  0  0  0  0  0  0
    2.5854    4.5785    3.7380 H   0  0  0  0  0  0  0  0  0  0  0  0
    2.9255    0.5983    4.5696 H   0  0  0  0  0  0  0  0  0  0  0  0
    3.4113    0.6666    6.2859 H   0  0  0  0  0  0  0  0  0  0  0  0
    4.5059   -0.0560    5.0593 H   0  0  0  0  0  0  0  0  0  0  0  0
    6.0494    3.3442    5.8367 H   0  0  0  0  0  0  0  0  0  0  0  0
    6.3167    1.5808    5.9760 H   0  0  0  0  0  0  0  0  0  0  0  0
    5.1505    2.3941    7.0522 H   0  0  0  0  0  0  0  0  0  0  0  0
  1  2  1  0
  1 24  1  0
  1 25  1  0
  1 26  1  0
  2  3  1  0
  2 11  1  0
  2 27  1  1
  3  4  1  0
  3 28  1  0
  3 29  1  0
  4  5  1  0
  4 10  1  0
  5  6  1  0
  5 30  1  0
  5 31  1  0
  6  7  1  0
  6 32  1  0
  6 33  1  0
  7  8  1  0
  7  9  1  0
  8 34  1  0
  8 35  1  0
  8 36  1  0
  9 10  1  0
  9 37  1  0
  9 38  1  0
 10 39  1  0
 10 40  1  0
 11 12  1  0
 11 41  1  0
 12 13  2  0
 12 14  1  0
 14 15  1  0
 14 42  1  0
 14 43  1  0
 15 16  1  0
 15 21  1  0
 16 17  2  0
 16 18  1  0
 18 19  1  0
 18 44  1  0
 19 20  2  0
 19 21  1  0
 21 22  1  6
 21 23  1  0
 22 45  1  0
 22 46  1  0
 22 47  1  0
 23 48  1  0
 23 49  1  0
 23 50  1  0
M  END

