
     RDKit          3D

 33 34  0  0  0  0  0  0  0  0999 V2000
    4.6021    2.0439   -1.9272 C   0  0  0  0  0  0  0  0  0  0  0  0
    3.8816    1.2107   -2.8277 O   0  0  0  0  0  0  0  0  0  0  0  0
    3.6311   -0.0587   -2.4455 C   0  0  0  0  0  0  0  0  0  0  0  0
    4.0452   -0.5038   -1.2715 N   0  0  0  0  0  0  0  0  0  0  0  0
    3.7370   -1.7673   -0.9636 C   0  0  0  0  0  0  0  0  0  0  0  0
    3.0618   -2.6086   -1.7353 N   0  0  0  0  0  0  0  0  0  0  0  0
    2.6489   -2.1638   -2.9274 C   0  0  0  0  0  0  0  0  0  0  0  0
    1.7426   -3.2373   -4.0206 S   0  0  0  0  0  0  0  0  0  0  0  0
    1.4731   -4.7130   -2.9641 C   0  0  0  0  0  0  0  0  0  0  0  0
    2.6105   -5.7304   -2.9804 C   0  0  1  0  0  0  0  0  0  0  0  0
    2.3517   -6.9351   -2.0485 C   0  0  0  0  0  0  0  0  0  0  0  0
    3.2849   -8.0649   -2.5614 C   0  0  0  0  0  0  0  0  0  0  0  0
    3.8033   -7.5900   -3.9477 C   0  0  0  0  0  0  0  0  0  0  0  0
    2.9014   -6.4056   -4.3302 C   0  0  0  0  0  0  0  0  0  0  0  0
    2.8989   -0.8481   -3.3646 C   0  0  0  0  0  0  0  0  0  0  0  0
    2.5197   -0.3493   -4.5963 N   0  0  0  0  0  0  0  0  0  0  0  0
    4.6945    3.0182   -2.4246 H   0  0  0  0  0  0  0  0  0  0  0  0
    5.5997    1.6293   -1.7155 H   0  0  0  0  0  0  0  0  0  0  0  0
    4.0666    2.1534   -0.9713 H   0  0  0  0  0  0  0  0  0  0  0  0
    4.0728   -2.1387    0.0111 H   0  0  0  0  0  0  0  0  0  0  0  0
    0.5404   -5.1570   -3.3497 H   0  0  0  0  0  0  0  0  0  0  0  0
    1.2917   -4.3452   -1.9449 H   0  0  0  0  0  0  0  0  0  0  0  0
    3.5247   -5.2147   -2.6397 H   0  0  0  0  0  0  0  0  0  0  0  0
    1.2950   -7.2435   -2.1397 H   0  0  0  0  0  0  0  0  0  0  0  0
    2.5182   -6.6853   -0.9891 H   0  0  0  0  0  0  0  0  0  0  0  0
    2.7394   -9.0185   -2.6396 H   0  0  0  0  0  0  0  0  0  0  0  0
    4.1212   -8.2432   -1.8677 H   0  0  0  0  0  0  0  0  0  0  0  0
    3.7995   -8.3911   -4.7032 H   0  0  0  0  0  0  0  0  0  0  0  0
    4.8458   -7.2415   -3.8614 H   0  0  0  0  0  0  0  0  0  0  0  0
    1.9534   -6.7708   -4.7686 H   0  0  0  0  0  0  0  0  0  0  0  0
    3.3593   -5.7254   -5.0645 H   0  0  0  0  0  0  0  0  0  0  0  0
    1.6914   -0.7664   -5.0103 H   0  0  0  0  0  0  0  0  0  0  0  0
    2.5523    0.6619   -4.6676 H   0  0  0  0  0  0  0  0  0  0  0  0
  1  2  1  0
  1 17  1  0
  1 18  1  0
  1 19  1  0
  2  3  1  0
  3  4  2  0
  3 15  1  0
  4  5  1  0
  5  6  2  0
  5 20  1  0
  6  7  1  0
  7  8  1  0
  7 15  2  0
  8  9  1  0
  9 10  1  0
  9 21  1  0
  9 22  1  0
 10 11  1  0
 10 14  1  0
 10 23  1  1
 11 12  1  0
 11 24  1  0
 11 25  1  0
 12 13  1  0
 12 26  1  0
 12 27  1  0
 13 14  1  0
 13 28  1  0
 13 29  1  0
 14 30  1  0
 14 31  1  0
 15 16  1  0
 16 32  1  0
 16 33  1  0
M  END

