
     RDKit          3D

 47 49  0  0  0  0  0  0  0  0999 V2000
    2.1962    0.7349    1.0149 O   0  0  0  0  0  0  0  0  0  0  0  0
    3.2765    0.6841    0.4426 C   0  0  0  0  0  0  0  0  0  0  0  0
    3.6591   -0.5320   -0.3929 C   0  0  0  0  0  0  0  0  0  0  0  0
    4.7422   -0.2690   -1.4354 C   0  0  0  0  0  0  0  0  0  0  0  0
    5.9376    0.4504   -0.7855 C   0  0  2  0  0  0  0  0  0  0  0  0
    6.6791    0.6787   -1.5662 H   0  0  0  0  0  0  0  0  0  0  0  0
    6.6368   -0.4186    0.2659 C   0  0  0  0  0  0  0  0  0  0  0  0
    6.5749   -0.1981    1.4638 O   0  0  0  0  0  0  0  0  0  0  0  0
    7.3396   -1.5077   -0.2064 N   0  0  0  0  0  0  0  0  0  0  0  0
    8.2673   -2.2707    0.6171 C   0  0  0  0  0  0  0  0  0  0  0  0
    8.2706   -3.7304    0.1537 C   0  0  0  0  0  0  0  0  0  0  0  0
    8.4891   -3.8047   -1.3635 C   0  0  0  0  0  0  0  0  0  0  0  0
    7.5289   -2.8597   -2.0813 C   0  0  0  0  0  0  0  0  0  0  0  0
    7.6609   -1.5276   -1.5713 O   0  0  0  0  0  0  0  0  0  0  0  0
    5.4685    1.7720   -0.1723 C   0  0  0  0  0  0  0  0  0  0  0  0
    4.1992    1.6939    0.5489 N   0  0  0  0  0  0  0  0  0  0  0  0
    3.8375    2.8420    1.3737 C   0  0  0  0  0  0  0  0  0  0  0  0
    2.9826    3.8893    0.6289 C   0  0  0  0  0  0  0  0  0  0  0  0
    2.5809    5.0422    1.5201 C   0  0  0  0  0  0  0  0  0  0  0  0
    3.2955    6.2505    1.5192 C   0  0  0  0  0  0  0  0  0  0  0  0
    2.9404    7.2983    2.3743 C   0  0  0  0  0  0  0  0  0  0  0  0
    1.8616    7.1529    3.2508 C   0  0  0  0  0  0  0  0  0  0  0  0
    1.1414    5.9538    3.2641 C   0  0  0  0  0  0  0  0  0  0  0  0
    1.4988    4.9099    2.4072 C   0  0  0  0  0  0  0  0  0  0  0  0
    2.7288   -0.9035   -0.8467 H   0  0  0  0  0  0  0  0  0  0  0  0
    3.9851   -1.3097    0.3202 H   0  0  0  0  0  0  0  0  0  0  0  0
    4.3451    0.3763   -2.2383 H   0  0  0  0  0  0  0  0  0  0  0  0
    5.0625   -1.2040   -1.9171 H   0  0  0  0  0  0  0  0  0  0  0  0
    7.9342   -2.1577    1.6562 H   0  0  0  0  0  0  0  0  0  0  0  0
    9.2800   -1.8317    0.5302 H   0  0  0  0  0  0  0  0  0  0  0  0
    7.3016   -4.1904    0.4140 H   0  0  0  0  0  0  0  0  0  0  0  0
    9.0519   -4.2912    0.6910 H   0  0  0  0  0  0  0  0  0  0  0  0
    8.3483   -4.8324   -1.7369 H   0  0  0  0  0  0  0  0  0  0  0  0
    9.5238   -3.5080   -1.6082 H   0  0  0  0  0  0  0  0  0  0  0  0
    6.4807   -3.1950   -1.9680 H   0  0  0  0  0  0  0  0  0  0  0  0
    7.7587   -2.7714   -3.1533 H   0  0  0  0  0  0  0  0  0  0  0  0
    5.3857    2.5184   -0.9863 H   0  0  0  0  0  0  0  0  0  0  0  0
    6.2341    2.1408    0.5279 H   0  0  0  0  0  0  0  0  0  0  0  0
    4.7646    3.3045    1.7474 H   0  0  0  0  0  0  0  0  0  0  0  0
    3.2714    2.4712    2.2391 H   0  0  0  0  0  0  0  0  0  0  0  0
    2.0842    3.3760    0.2526 H   0  0  0  0  0  0  0  0  0  0  0  0
    3.5391    4.2674   -0.2451 H   0  0  0  0  0  0  0  0  0  0  0  0
    4.1390    6.3751    0.8330 H   0  0  0  0  0  0  0  0  0  0  0  0
    3.5075    8.2329    2.3535 H   0  0  0  0  0  0  0  0  0  0  0  0
    1.5808    7.9713    3.9189 H   0  0  0  0  0  0  0  0  0  0  0  0
    0.2937    5.8319    3.9438 H   0  0  0  0  0  0  0  0  0  0  0  0
    0.9297    3.9755    2.4198 H   0  0  0  0  0  0  0  0  0  0  0  0
  1  2  2  0
  2  3  1  0
  2 16  1  0
  3  4  1  0
  3 25  1  0
  3 26  1  0
  4  5  1  0
  4 27  1  0
  4 28  1  0
  5  6  1  6
  5  7  1  0
  5 15  1  0
  7  8  2  0
  7  9  1  0
  9 10  1  0
  9 14  1  0
 10 11  1  0
 10 29  1  0
 10 30  1  0
 11 12  1  0
 11 31  1  0
 11 32  1  0
 12 13  1  0
 12 33  1  0
 12 34  1  0
 13 14  1  0
 13 35  1  0
 13 36  1  0
 15 16  1  0
 15 37  1  0
 15 38  1  0
 16 17  1  0
 17 18  1  0
 17 39  1  0
 17 40  1  0
 18 19  1  0
 18 41  1  0
 18 42  1  0
 19 20  2  0
 19 24  1  0
 20 21  1  0
 20 43  1  0
 21 22  2  0
 21 44  1  0
 22 23  1  0
 22 45  1  0
 23 24  2  0
 23 46  1  0
 24 47  1  0
M  END

