
     RDKit          3D

 51 53  0  0  0  0  0  0  0  0999 V2000
    0.8502   -0.1645    0.1073 C   0  0  0  0  0  0  0  0  0  0  0  0
    2.3805   -0.1069    0.1531 C   0  0  1  0  0  0  0  0  0  0  0  0
    2.9318   -1.4624   -0.3351 C   0  0  0  0  0  0  0  0  0  0  0  0
    4.4512   -1.6316   -0.5005 C   0  0  0  0  0  0  0  0  0  0  0  0
    5.0528   -0.8874   -1.5945 N   0  0  0  0  0  0  0  0  0  0  0  0
    5.3239    0.5486   -1.4053 C   0  0  2  0  0  0  0  0  0  0  0  0
    5.1440    1.2198   -2.7716 C   0  0  0  0  0  0  0  0  0  0  0  0
    6.7497    0.6909   -0.8456 C   0  0  1  0  0  0  0  0  0  0  0  0
    7.9818    0.7960   -1.6988 C   0  0  0  0  0  0  0  0  0  0  0  0
    7.5435    1.9747   -0.8606 C   0  0  0  0  0  0  0  0  0  0  0  0
    4.3681    1.2209   -0.3762 C   0  0  0  0  0  0  0  0  0  0  0  0
    2.9427    1.0155   -0.6215 N   0  0  0  0  0  0  0  0  0  0  0  0
    2.1793    2.2674   -0.6642 C   0  0  0  0  0  0  0  0  0  0  0  0
    2.1391    3.1021    0.6006 C   0  0  0  0  0  0  0  0  0  0  0  0
    2.8320    4.3121    0.8652 C   0  0  0  0  0  0  0  0  0  0  0  0
    2.4644    4.6549    2.1559 C   0  0  0  0  0  0  0  0  0  0  0  0
    1.6134    3.6880    2.5900 N   0  0  0  0  0  0  0  0  0  0  0  0
    0.9440    3.6046    3.8939 C   0  0  1  0  0  0  0  0  0  0  0  0
   -0.5754    3.6960    3.7286 C   0  0  0  0  0  0  0  0  0  0  0  0
    1.3814    2.3453    4.6466 C   0  0  0  0  0  0  0  0  0  0  0  0
    1.4053    2.7450    1.6596 N   0  0  0  0  0  0  0  0  0  0  0  0
    0.5054   -1.0792    0.6139 H   0  0  0  0  0  0  0  0  0  0  0  0
    0.4886   -0.2055   -0.9339 H   0  0  0  0  0  0  0  0  0  0  0  0
    0.3904    0.6915    0.6177 H   0  0  0  0  0  0  0  0  0  0  0  0
    2.6719    0.0063    1.2229 H   0  0  0  0  0  0  0  0  0  0  0  0
    2.4620   -1.6920   -1.3103 H   0  0  0  0  0  0  0  0  0  0  0  0
    2.5727   -2.2351    0.3689 H   0  0  0  0  0  0  0  0  0  0  0  0
    4.6491   -2.7062   -0.6678 H   0  0  0  0  0  0  0  0  0  0  0  0
    4.9752   -1.3854    0.4386 H   0  0  0  0  0  0  0  0  0  0  0  0
    4.5023   -1.0288   -2.4378 H   0  0  0  0  0  0  0  0  0  0  0  0
    5.7084    0.6822   -3.5493 H   0  0  0  0  0  0  0  0  0  0  0  0
    5.4731    2.2697   -2.7680 H   0  0  0  0  0  0  0  0  0  0  0  0
    4.0762    1.1994   -3.0393 H   0  0  0  0  0  0  0  0  0  0  0  0
    6.8784    0.0906    0.0629 H   0  0  0  0  0  0  0  0  0  0  0  0
    7.8623    0.8713   -2.7828 H   0  0  0  0  0  0  0  0  0  0  0  0
    8.8710    0.2377   -1.3920 H   0  0  0  0  0  0  0  0  0  0  0  0
    7.1311    2.8422   -1.3847 H   0  0  0  0  0  0  0  0  0  0  0  0
    8.1268    2.2358    0.0276 H   0  0  0  0  0  0  0  0  0  0  0  0
    4.5942    2.2978   -0.3771 H   0  0  0  0  0  0  0  0  0  0  0  0
    4.6402    0.8779    0.6413 H   0  0  0  0  0  0  0  0  0  0  0  0
    1.1521    2.0501   -0.9860 H   0  0  0  0  0  0  0  0  0  0  0  0
    2.6173    2.8913   -1.4594 H   0  0  0  0  0  0  0  0  0  0  0  0
    3.4989    4.8583    0.2017 H   0  0  0  0  0  0  0  0  0  0  0  0
    2.7374    5.4986    2.7869 H   0  0  0  0  0  0  0  0  0  0  0  0
    1.2957    4.4904    4.4478 H   0  0  0  0  0  0  0  0  0  0  0  0
   -0.9483    2.8446    3.1403 H   0  0  0  0  0  0  0  0  0  0  0  0
   -0.8604    4.6242    3.2099 H   0  0  0  0  0  0  0  0  0  0  0  0
   -1.0678    3.6844    4.7135 H   0  0  0  0  0  0  0  0  0  0  0  0
    1.0808    1.4441    4.0923 H   0  0  0  0  0  0  0  0  0  0  0  0
    0.9153    2.3159    5.6438 H   0  0  0  0  0  0  0  0  0  0  0  0
    2.4745    2.3222    4.7745 H   0  0  0  0  0  0  0  0  0  0  0  0
  1  2  1  0
  1 22  1  0
  1 23  1  0
  1 24  1  0
  2  3  1  0
  2 12  1  0
  2 25  1  1
  3  4  1  0
  3 26  1  0
  3 27  1  0
  4  5  1  0
  4 28  1  0
  4 29  1  0
  5  6  1  0
  5 30  1  0
  6  7  1  6
  6  8  1  0
  6 11  1  0
  7 31  1  0
  7 32  1  0
  7 33  1  0
  8  9  1  0
  8 10  1  0
  8 34  1  1
  9 10  1  0
  9 35  1  0
  9 36  1  0
 10 37  1  0
 10 38  1  0
 11 12  1  0
 11 39  1  0
 11 40  1  0
 12 13  1  0
 13 14  1  0
 13 41  1  0
 13 42  1  0
 14 15  1  0
 14 21  2  0
 15 16  2  0
 15 43  1  0
 16 17  1  0
 16 44  1  0
 17 18  1  0
 17 21  1  0
 18 19  1  0
 18 20  1  0
 18 45  1  1
 19 46  1  0
 19 47  1  0
 19 48  1  0
 20 49  1  0
 20 50  1  0
 20 51  1  0
M  END

