
     RDKit          3D

 62 67  0  0  0  0  0  0  0  0999 V2000
    2.8823   -0.3616    2.9252 C   0  0  0  0  0  0  0  0  0  0  0  0
    3.2831   -0.1252    1.5448 N   0  0  0  0  0  0  0  0  0  0  0  0
    3.3151    1.2131    1.0842 C   0  0  0  0  0  0  0  0  0  0  0  0
    3.0091    2.1437    1.8187 O   0  0  0  0  0  0  0  0  0  0  0  0
    3.7495    1.3824   -0.2990 C   0  0  0  0  0  0  0  0  0  0  0  0
    4.0920    0.3377   -1.1246 C   0  0  0  0  0  0  0  0  0  0  0  0
    4.4953    0.5218   -2.5641 C   0  0  0  0  0  0  0  0  0  0  0  0
    4.3663   -0.4182   -3.3317 O   0  0  0  0  0  0  0  0  0  0  0  0
    5.0381    1.8283   -3.0603 C   0  0  0  0  0  0  0  0  0  0  0  0
    5.8373    2.6809   -2.2781 C   0  0  0  0  0  0  0  0  0  0  0  0
    6.3741    3.8464   -2.8314 C   0  0  0  0  0  0  0  0  0  0  0  0
    6.1105    4.1779   -4.1632 C   0  0  0  0  0  0  0  0  0  0  0  0
    5.3240    3.3294   -4.9519 C   0  0  0  0  0  0  0  0  0  0  0  0
    4.8041    2.1563   -4.4086 C   0  0  0  0  0  0  0  0  0  0  0  0
    3.9802   -0.9859   -0.6041 C   0  0  0  0  0  0  0  0  0  0  0  0
    4.2785   -2.5035   -1.4110 S   0  0  0  0  0  0  0  0  0  0  0  0
    3.9131   -3.4040    0.0461 C   0  0  0  0  0  0  0  0  0  0  0  0
    3.9825   -4.8679    0.0578 C   0  0  0  0  0  0  0  0  0  0  0  0
    4.1147   -5.5797    1.2686 C   0  0  0  0  0  0  0  0  0  0  0  0
    4.1798   -6.9679    1.2945 C   0  0  0  0  0  0  0  0  0  0  0  0
    4.1085   -7.7178    0.1025 C   0  0  0  0  0  0  0  0  0  0  0  0
    4.1713   -9.1270    0.1258 N   0  0  0  0  0  0  0  0  0  0  0  0
    3.5728   -9.8566    1.1907 C   0  0  0  0  0  0  0  0  0  0  0  0
    2.2836   -9.5297    1.6485 C   0  0  0  0  0  0  0  0  0  0  0  0
    1.7037  -10.2488    2.6950 C   0  0  0  0  0  0  0  0  0  0  0  0
    2.3876  -11.3139    3.2902 C   0  0  0  0  0  0  0  0  0  0  0  0
    3.6654  -11.6486    2.8307 C   0  0  0  0  0  0  0  0  0  0  0  0
    4.2594  -10.9243    1.7958 C   0  0  0  0  0  0  0  0  0  0  0  0
    4.8307   -9.8361   -0.9173 C   0  0  0  0  0  0  0  0  0  0  0  0
    6.0859   -9.4127   -1.3897 C   0  0  0  0  0  0  0  0  0  0  0  0
    6.7257  -10.1118   -2.4145 C   0  0  0  0  0  0  0  0  0  0  0  0
    6.1371  -11.2512   -2.9728 C   0  0  0  0  0  0  0  0  0  0  0  0
    4.8937  -11.6812   -2.4985 C   0  0  0  0  0  0  0  0  0  0  0  0
    4.2393  -10.9783   -1.4854 C   0  0  0  0  0  0  0  0  0  0  0  0
    3.9757   -7.0153   -1.1121 C   0  0  0  0  0  0  0  0  0  0  0  0
    3.9190   -5.6262   -1.1295 C   0  0  0  0  0  0  0  0  0  0  0  0
    3.5666   -2.5674    1.0921 C   0  0  0  0  0  0  0  0  0  0  0  0
    3.5968   -1.1906    0.7280 C   0  0  0  0  0  0  0  0  0  0  0  0
    2.6934    0.6165    3.3816 H   0  0  0  0  0  0  0  0  0  0  0  0
    3.6804   -0.8822    3.4779 H   0  0  0  0  0  0  0  0  0  0  0  0
    1.9649   -0.9704    2.9671 H   0  0  0  0  0  0  0  0  0  0  0  0
    3.7660    2.4158   -0.6411 H   0  0  0  0  0  0  0  0  0  0  0  0
    6.0652    2.4227   -1.2429 H   0  0  0  0  0  0  0  0  0  0  0  0
    7.0034    4.4964   -2.2185 H   0  0  0  0  0  0  0  0  0  0  0  0
    6.5239    5.0952   -4.5903 H   0  0  0  0  0  0  0  0  0  0  0  0
    5.1223    3.5828   -5.9957 H   0  0  0  0  0  0  0  0  0  0  0  0
    4.2080    1.4724   -5.0160 H   0  0  0  0  0  0  0  0  0  0  0  0
    4.2049   -5.0337    2.2101 H   0  0  0  0  0  0  0  0  0  0  0  0
    4.3020   -7.4839    2.2481 H   0  0  0  0  0  0  0  0  0  0  0  0
    1.7384   -8.7095    1.1775 H   0  0  0  0  0  0  0  0  0  0  0  0
    0.7006   -9.9818    3.0378 H   0  0  0  0  0  0  0  0  0  0  0  0
    1.9279  -11.8791    4.1043 H   0  0  0  0  0  0  0  0  0  0  0  0
    4.2135  -12.4755    3.2899 H   0  0  0  0  0  0  0  0  0  0  0  0
    5.2617  -11.1824    1.4487 H   0  0  0  0  0  0  0  0  0  0  0  0
    6.5573   -8.5326   -0.9481 H   0  0  0  0  0  0  0  0  0  0  0  0
    7.7009   -9.7688   -2.7699 H   0  0  0  0  0  0  0  0  0  0  0  0
    6.6437  -11.7997   -3.7704 H   0  0  0  0  0  0  0  0  0  0  0  0
    4.4195  -12.5669   -2.9293 H   0  0  0  0  0  0  0  0  0  0  0  0
    3.2633  -11.3114   -1.1273 H   0  0  0  0  0  0  0  0  0  0  0  0
    3.9047   -7.5686   -2.0497 H   0  0  0  0  0  0  0  0  0  0  0  0
    3.7902   -5.1188   -2.0890 H   0  0  0  0  0  0  0  0  0  0  0  0
    3.2679   -2.9329    2.0724 H   0  0  0  0  0  0  0  0  0  0  0  0
  1  2  1  0
  1 39  1  0
  1 40  1  0
  1 41  1  0
  2  3  1  0
  2 38  1  0
  3  4  2  0
  3  5  1  0
  5  6  2  0
  5 42  1  0
  6  7  1  0
  6 15  1  0
  7  8  2  0
  7  9  1  0
  9 10  2  0
  9 14  1  0
 10 11  1  0
 10 43  1  0
 11 12  2  0
 11 44  1  0
 12 13  1  0
 12 45  1  0
 13 14  2  0
 13 46  1  0
 14 47  1  0
 15 16  1  0
 15 38  2  0
 16 17  1  0
 17 18  1  0
 17 37  2  0
 18 19  2  0
 18 36  1  0
 19 20  1  0
 19 48  1  0
 20 21  2  0
 20 49  1  0
 21 22  1  0
 21 35  1  0
 22 23  1  0
 22 29  1  0
 23 24  2  0
 23 28  1  0
 24 25  1  0
 24 50  1  0
 25 26  2  0
 25 51  1  0
 26 27  1  0
 26 52  1  0
 27 28  2  0
 27 53  1  0
 28 54  1  0
 29 30  2  0
 29 34  1  0
 30 31  1  0
 30 55  1  0
 31 32  2  0
 31 56  1  0
 32 33  1  0
 32 57  1  0
 33 34  2  0
 33 58  1  0
 34 59  1  0
 35 36  2  0
 35 60  1  0
 36 61  1  0
 37 38  1  0
 37 62  1  0
M  END

