
     RDKit          3D

 46 48  0  0  0  0  0  0  0  0999 V2000
    1.5297    0.1771    0.5430 C   0  0  0  0  0  0  0  0  0  0  0  0
    2.9088   -0.0127   -0.1016 C   0  0  1  0  0  0  0  0  0  0  0  0
    3.1366   -1.4495   -0.6107 C   0  0  0  0  0  0  0  0  0  0  0  0
    2.3430   -1.7415   -1.9062 C   0  0  2  0  0  0  0  0  0  0  0  0
    2.6774   -3.1337   -2.4388 C   0  0  0  0  0  0  0  0  0  0  0  0
    3.3280   -3.3444   -3.4250 O   0  0  0  0  0  0  0  0  0  0  0  0
    2.2130   -4.1650   -1.6937 O   0  0  0  0  0  0  0  0  0  0  0  0
    2.6311   -0.6757   -2.9698 C   0  0  0  0  0  0  0  0  0  0  0  0
    2.3864    0.6649   -2.4375 N   0  0  0  0  0  0  0  0  0  0  0  0
    1.7995    1.5868   -3.2812 C   0  0  0  0  0  0  0  0  0  0  0  0
    1.5066    1.3167   -4.4372 O   0  0  0  0  0  0  0  0  0  0  0  0
    1.4818    2.9642   -2.7601 C   0  0  0  0  0  0  0  0  0  0  0  0
    1.6271    4.0494   -3.6501 C   0  0  0  0  0  0  0  0  0  0  0  0
    1.3063    5.3047   -3.3604 N   0  0  0  0  0  0  0  0  0  0  0  0
    0.7850    5.5632   -2.1553 C   0  0  0  0  0  0  0  0  0  0  0  0
    0.5642    4.5571   -1.1942 C   0  0  0  0  0  0  0  0  0  0  0  0
    0.9173    3.2449   -1.5156 C   0  0  0  0  0  0  0  0  0  0  0  0
   -0.0150    4.8793    0.1206 C   0  0  0  0  0  0  0  0  0  0  0  0
   -0.2067    4.0484    0.9912 O   0  0  0  0  0  0  0  0  0  0  0  0
   -0.3234    6.2330    0.2970 N   0  0  0  0  0  0  0  0  0  0  0  0
   -0.9089    6.6619    1.5691 C   0  0  0  0  0  0  0  0  0  0  0  0
   -0.1155    7.2510   -0.6465 C   0  0  0  0  0  0  0  0  0  0  0  0
   -0.4156    8.3995   -0.3944 O   0  0  0  0  0  0  0  0  0  0  0  0
    0.4482    6.8738   -1.8688 N   0  0  0  0  0  0  0  0  0  0  0  0
    0.6750    7.9103   -2.8789 C   0  0  0  0  0  0  0  0  0  0  0  0
    3.1825    0.9773   -1.2504 C   0  0  0  0  0  0  0  0  0  0  0  0
    1.3744   -0.5524    1.3541 H   0  0  0  0  0  0  0  0  0  0  0  0
    0.7116    0.0466   -0.1830 H   0  0  0  0  0  0  0  0  0  0  0  0
    1.4230    1.1810    0.9836 H   0  0  0  0  0  0  0  0  0  0  0  0
    3.6716    0.1871    0.6710 H   0  0  0  0  0  0  0  0  0  0  0  0
    2.8801   -2.1743    0.1805 H   0  0  0  0  0  0  0  0  0  0  0  0
    4.2094   -1.5935   -0.8274 H   0  0  0  0  0  0  0  0  0  0  0  0
    1.2619   -1.7221   -1.6755 H   0  0  0  0  0  0  0  0  0  0  0  0
    1.6823   -3.8401   -0.9526 H   0  0  0  0  0  0  0  0  0  0  0  0
    2.0073   -0.8131   -3.8595 H   0  0  0  0  0  0  0  0  0  0  0  0
    3.6820   -0.7727   -3.2990 H   0  0  0  0  0  0  0  0  0  0  0  0
    2.0253    3.8594   -4.6522 H   0  0  0  0  0  0  0  0  0  0  0  0
    0.7160    2.4716   -0.7745 H   0  0  0  0  0  0  0  0  0  0  0  0
   -1.0132    5.7739    2.2003 H   0  0  0  0  0  0  0  0  0  0  0  0
   -1.8883    7.1292    1.3957 H   0  0  0  0  0  0  0  0  0  0  0  0
   -0.2597    7.4048    2.0535 H   0  0  0  0  0  0  0  0  0  0  0  0
    0.3461    8.8634   -2.4544 H   0  0  0  0  0  0  0  0  0  0  0  0
    0.1083    7.6798   -3.7917 H   0  0  0  0  0  0  0  0  0  0  0  0
    1.7406    7.9538   -3.1432 H   0  0  0  0  0  0  0  0  0  0  0  0
    2.9978    2.0080   -0.9290 H   0  0  0  0  0  0  0  0  0  0  0  0
    4.2554    0.9154   -1.5209 H   0  0  0  0  0  0  0  0  0  0  0  0
  1  2  1  0
  1 27  1  0
  1 28  1  0
  1 29  1  0
  2  3  1  0
  2 26  1  0
  2 30  1  1
  3  4  1  0
  3 31  1  0
  3 32  1  0
  4  5  1  0
  4  8  1  0
  4 33  1  1
  5  6  2  0
  5  7  1  0
  7 34  1  0
  8  9  1  0
  8 35  1  0
  8 36  1  0
  9 10  1  0
  9 26  1  0
 10 11  2  0
 10 12  1  0
 12 13  2  0
 12 17  1  0
 13 14  1  0
 13 37  1  0
 14 15  2  0
 15 16  1  0
 15 24  1  0
 16 17  2  0
 16 18  1  0
 17 38  1  0
 18 19  2  0
 18 20  1  0
 20 21  1  0
 20 22  1  0
 21 39  1  0
 21 40  1  0
 21 41  1  0
 22 23  2  0
 22 24  1  0
 24 25  1  0
 25 42  1  0
 25 43  1  0
 25 44  1  0
 26 45  1  0
 26 46  1  0
M  END

