
     RDKit          3D

 78 87  0  0  0  0  0  0  0  0999 V2000
    1.1408    0.0637   -0.0318 O   0  0  0  0  0  0  0  0  0  0  0  0
    2.4719    0.1146   -0.0160 C   0  0  0  0  0  0  0  0  0  0  0  0
    3.1977    1.3415   -0.0235 C   0  0  0  0  0  0  0  0  0  0  0  0
    2.4478    2.5875   -0.0435 C   0  0  0  0  0  0  0  0  0  0  0  0
    1.1172    2.6559   -0.0627 N   0  0  0  0  0  0  0  0  0  0  0  0
    0.7922    3.9904   -0.0783 C   0  0  0  0  0  0  0  0  0  0  0  0
   -0.5041    4.6083   -0.0988 C   0  0  0  0  0  0  0  0  0  0  0  0
   -1.6971    3.8544   -0.1045 C   0  0  0  0  0  0  0  0  0  0  0  0
   -2.9310    4.4771   -0.1221 C   0  0  0  0  0  0  0  0  0  0  0  0
   -3.0277    5.8907   -0.1376 C   0  0  0  0  0  0  0  0  0  0  0  0
   -4.3546    6.5627   -0.1572 C   0  0  0  0  0  0  0  0  0  0  0  0
   -5.4406    6.0416    0.5725 C   0  0  0  0  0  0  0  0  0  0  0  0
   -6.6864    6.6721    0.5592 C   0  0  0  0  0  0  0  0  0  0  0  0
   -6.8782    7.8394   -0.1859 C   0  0  0  0  0  0  0  0  0  0  0  0
   -5.8113    8.3688   -0.9182 C   0  0  0  0  0  0  0  0  0  0  0  0
   -4.5659    7.7375   -0.9045 C   0  0  0  0  0  0  0  0  0  0  0  0
   -1.8456    6.6337   -0.1321 C   0  0  0  0  0  0  0  0  0  0  0  0
   -0.5648    6.0366   -0.1127 C   0  0  0  0  0  0  0  0  0  0  0  0
    0.6729    6.8345   -0.1023 C   0  0  0  0  0  0  0  0  0  0  0  0
    0.6607    8.2465   -0.1124 C   0  0  0  0  0  0  0  0  0  0  0  0
    1.8234    9.0206   -0.0982 C   0  0  0  0  0  0  0  0  0  0  0  0
    1.7569   10.5061   -0.1107 C   0  0  0  0  0  0  0  0  0  0  0  0
    2.6733   11.2786    0.6290 C   0  0  0  0  0  0  0  0  0  0  0  0
    2.6110   12.6735    0.6212 C   0  0  0  0  0  0  0  0  0  0  0  0
    1.6311   13.3315   -0.1279 C   0  0  0  0  0  0  0  0  0  0  0  0
    0.7148   12.5798   -0.8697 C   0  0  0  0  0  0  0  0  0  0  0  0
    0.7779   11.1851   -0.8618 C   0  0  0  0  0  0  0  0  0  0  0  0
    3.0711    8.3510   -0.0714 C   0  0  0  0  0  0  0  0  0  0  0  0
    3.1287    6.9700   -0.0627 C   0  0  0  0  0  0  0  0  0  0  0  0
    1.9514    6.1879   -0.0772 C   0  0  0  0  0  0  0  0  0  0  0  0
    1.9518    4.7596   -0.0680 C   0  0  0  0  0  0  0  0  0  0  0  0
    2.9919    3.8495   -0.0458 N   0  0  0  0  0  0  0  0  0  0  0  0
    3.9786    4.0664   -0.0282 H   0  0  0  0  0  0  0  0  0  0  0  0
    4.6152    1.3097   -0.0168 C   0  0  0  0  0  0  0  0  0  0  0  0
    5.3428    0.1288    0.0063 C   0  0  0  0  0  0  0  0  0  0  0  0
    4.6147   -1.0745    0.0255 C   0  0  0  0  0  0  0  0  0  0  0  0
    3.1990   -1.0915    0.0065 C   0  0  0  0  0  0  0  0  0  0  0  0
    2.7852   -2.4777   -0.0001 C   0  0  0  0  0  0  0  0  0  0  0  0
    1.5376   -3.1200   -0.0047 C   0  0  0  0  0  0  0  0  0  0  0  0
    1.4995   -4.5141    0.0094 C   0  0  0  0  0  0  0  0  0  0  0  0
    2.6878   -5.2678    0.0349 C   0  0  0  0  0  0  0  0  0  0  0  0
    3.9406   -4.6512    0.0396 C   0  0  0  0  0  0  0  0  0  0  0  0
    3.9766   -3.2524    0.0136 C   0  0  0  0  0  0  0  0  0  0  0  0
    5.0794   -2.3871    0.0299 N   0  0  0  0  0  0  0  0  0  0  0  0
    6.4446   -2.7836    0.0480 C   0  0  0  0  0  0  0  0  0  0  0  0
    6.9598   -3.5825   -0.9840 C   0  0  0  0  0  0  0  0  0  0  0  0
    8.2991   -3.9783   -0.9584 C   0  0  0  0  0  0  0  0  0  0  0  0
    9.1367   -3.5682    0.0836 C   0  0  0  0  0  0  0  0  0  0  0  0
    8.6255   -2.7654    1.1080 C   0  0  0  0  0  0  0  0  0  0  0  0
    7.2828   -2.3802    1.0985 C   0  0  0  0  0  0  0  0  0  0  0  0
    0.7941    1.0039   -0.0488 H   0  0  0  0  0  0  0  0  0  0  0  0
   -1.6271    2.7651   -0.1035 H   0  0  0  0  0  0  0  0  0  0  0  0
   -3.8406    3.8733   -0.1498 H   0  0  0  0  0  0  0  0  0  0  0  0
   -5.3000    5.1437    1.1788 H   0  0  0  0  0  0  0  0  0  0  0  0
   -7.5108    6.2523    1.1415 H   0  0  0  0  0  0  0  0  0  0  0  0
   -7.8535    8.3326   -0.1972 H   0  0  0  0  0  0  0  0  0  0  0  0
   -5.9517    9.2750   -1.5133 H   0  0  0  0  0  0  0  0  0  0  0  0
   -3.7497    8.1467   -1.5046 H   0  0  0  0  0  0  0  0  0  0  0  0
   -1.9295    7.7198   -0.1164 H   0  0  0  0  0  0  0  0  0  0  0  0
   -0.2954    8.7684   -0.1060 H   0  0  0  0  0  0  0  0  0  0  0  0
    3.4291   10.7791    1.2397 H   0  0  0  0  0  0  0  0  0  0  0  0
    3.3282   13.2499    1.2115 H   0  0  0  0  0  0  0  0  0  0  0  0
    1.5823   14.4233   -0.1345 H   0  0  0  0  0  0  0  0  0  0  0  0
   -0.0498   13.0829   -1.4675 H   0  0  0  0  0  0  0  0  0  0  0  0
    0.0730   10.6124   -1.4691 H   0  0  0  0  0  0  0  0  0  0  0  0
    3.9969    8.9298   -0.0840 H   0  0  0  0  0  0  0  0  0  0  0  0
    4.1053    6.4782   -0.0544 H   0  0  0  0  0  0  0  0  0  0  0  0
    5.1712    2.2511   -0.0344 H   0  0  0  0  0  0  0  0  0  0  0  0
    6.4325    0.1398    0.0025 H   0  0  0  0  0  0  0  0  0  0  0  0
    0.6238   -2.5245   -0.0158 H   0  0  0  0  0  0  0  0  0  0  0  0
    0.5361   -5.0297    0.0050 H   0  0  0  0  0  0  0  0  0  0  0  0
    2.6325   -6.3593    0.0538 H   0  0  0  0  0  0  0  0  0  0  0  0
    4.8571   -5.2428    0.0670 H   0  0  0  0  0  0  0  0  0  0  0  0
    6.3070   -3.8826   -1.8061 H   0  0  0  0  0  0  0  0  0  0  0  0
    8.6926   -4.6020   -1.7650 H   0  0  0  0  0  0  0  0  0  0  0  0
   10.1856   -3.8743    0.0975 H   0  0  0  0  0  0  0  0  0  0  0  0
    9.2724   -2.4463    1.9291 H   0  0  0  0  0  0  0  0  0  0  0  0
    6.8729   -1.7728    1.9078 H   0  0  0  0  0  0  0  0  0  0  0  0
  1  2  1  0
  1 51  1  0
  2  3  2  0
  2 37  1  0
  3  4  1  0
  3 34  1  0
  4  5  2  0
  4 32  1  0
  5  6  1  0
  6  7  2  0
  6 31  1  0
  7  8  1  0
  7 18  1  0
  8  9  2  0
  8 52  1  0
  9 10  1  0
  9 53  1  0
 10 11  1  0
 10 17  2  0
 11 12  2  0
 11 16  1  0
 12 13  1  0
 12 54  1  0
 13 14  2  0
 13 55  1  0
 14 15  1  0
 14 56  1  0
 15 16  2  0
 15 57  1  0
 16 58  1  0
 17 18  1  0
 17 59  1  0
 18 19  2  0
 19 20  1  0
 19 30  1  0
 20 21  2  0
 20 60  1  0
 21 22  1  0
 21 28  1  0
 22 23  2  0
 22 27  1  0
 23 24  1  0
 23 61  1  0
 24 25  2  0
 24 62  1  0
 25 26  1  0
 25 63  1  0
 26 27  2  0
 26 64  1  0
 27 65  1  0
 28 29  2  0
 28 66  1  0
 29 30  1  0
 29 67  1  0
 30 31  2  0
 31 32  1  0
 32 33  1  0
 34 35  2  0
 34 68  1  0
 35 36  1  0
 35 69  1  0
 36 37  2  0
 36 44  1  0
 37 38  1  0
 38 39  2  0
 38 43  1  0
 39 40  1  0
 39 70  1  0
 40 41  2  0
 40 71  1  0
 41 42  1  0
 41 72  1  0
 42 43  2  0
 42 73  1  0
 43 44  1  0
 44 45  1  0
 45 46  2  0
 45 50  1  0
 46 47  1  0
 46 74  1  0
 47 48  2  0
 47 75  1  0
 48 49  1  0
 48 76  1  0
 49 50  2  0
 49 77  1  0
 50 78  1  0
M  END

