
     RDKit          3D

 38 38  0  0  0  0  0  0  0  0999 V2000
    0.8465   -0.5149    0.0819 C   0  0  0  0  0  0  0  0  0  0  0  0
    2.3627   -0.3267    0.1425 C   0  0  0  0  0  0  0  0  0  0  0  0
    3.1787   -1.5532   -0.3043 C   0  0  1  0  0  0  0  0  0  0  0  0
    2.8756   -2.0414   -1.7474 C   0  0  0  0  0  0  0  0  0  0  0  0
    3.0706   -1.0021   -2.8537 C   0  0  0  0  0  0  0  0  0  0  0  0
    4.6782   -1.2595   -0.1647 C   0  0  0  0  0  0  0  0  0  0  0  0
    5.1600   -0.1794   -0.4626 O   0  0  0  0  0  0  0  0  0  0  0  0
    5.4223   -2.3301    0.2839 N   0  0  0  0  0  0  0  0  0  0  0  0
    6.8146   -2.4376    0.4665 C   0  0  0  0  0  0  0  0  0  0  0  0
    7.7168   -1.3946    0.1974 C   0  0  0  0  0  0  0  0  0  0  0  0
    9.0843   -1.5891    0.4090 C   0  0  0  0  0  0  0  0  0  0  0  0
    9.6008   -2.8030    0.8849 C   0  0  0  0  0  0  0  0  0  0  0  0
   11.0937   -3.0563    1.0910 C   0  0  1  0  0  0  0  0  0  0  0  0
   11.9255   -1.7975    1.3428 C   0  0  0  0  0  0  0  0  0  0  0  0
   11.3175   -4.0211    2.1117 O   0  0  0  0  0  0  0  0  0  0  0  0
    8.6860   -3.8361    1.1497 C   0  0  0  0  0  0  0  0  0  0  0  0
    7.3204   -3.6595    0.9468 C   0  0  0  0  0  0  0  0  0  0  0  0
    0.3286    0.3666    0.4917 H   0  0  0  0  0  0  0  0  0  0  0  0
    0.5210   -1.3907    0.6692 H   0  0  0  0  0  0  0  0  0  0  0  0
    0.4832   -0.6549   -0.9486 H   0  0  0  0  0  0  0  0  0  0  0  0
    2.6567   -0.0806    1.1773 H   0  0  0  0  0  0  0  0  0  0  0  0
    2.6705    0.5412   -0.4610 H   0  0  0  0  0  0  0  0  0  0  0  0
    2.9270   -2.3920    0.3715 H   0  0  0  0  0  0  0  0  0  0  0  0
    1.8398   -2.4204   -1.7717 H   0  0  0  0  0  0  0  0  0  0  0  0
    3.5150   -2.9181   -1.9529 H   0  0  0  0  0  0  0  0  0  0  0  0
    2.3665   -0.1612   -2.7528 H   0  0  0  0  0  0  0  0  0  0  0  0
    2.8991   -1.4574   -3.8421 H   0  0  0  0  0  0  0  0  0  0  0  0
    4.0871   -0.5814   -2.8416 H   0  0  0  0  0  0  0  0  0  0  0  0
    4.8978   -3.1655    0.5147 H   0  0  0  0  0  0  0  0  0  0  0  0
    7.3371   -0.4441   -0.1690 H   0  0  0  0  0  0  0  0  0  0  0  0
    9.7555   -0.7564    0.1891 H   0  0  0  0  0  0  0  0  0  0  0  0
   11.4829   -3.5434    0.1780 H   0  0  0  0  0  0  0  0  0  0  0  0
   11.5443   -1.2368    2.2132 H   0  0  0  0  0  0  0  0  0  0  0  0
   11.9255   -1.1180    0.4771 H   0  0  0  0  0  0  0  0  0  0  0  0
   12.9662   -2.0901    1.5455 H   0  0  0  0  0  0  0  0  0  0  0  0
   10.9431   -3.6687    2.9320 H   0  0  0  0  0  0  0  0  0  0  0  0
    9.0612   -4.7901    1.5248 H   0  0  0  0  0  0  0  0  0  0  0  0
    6.6321   -4.4831    1.1625 H   0  0  0  0  0  0  0  0  0  0  0  0
  1  2  1  0
  1 18  1  0
  1 19  1  0
  1 20  1  0
  2  3  1  0
  2 21  1  0
  2 22  1  0
  3  4  1  0
  3  6  1  0
  3 23  1  1
  4  5  1  0
  4 24  1  0
  4 25  1  0
  5 26  1  0
  5 27  1  0
  5 28  1  0
  6  7  2  0
  6  8  1  0
  8  9  1  0
  8 29  1  0
  9 10  2  0
  9 17  1  0
 10 11  1  0
 10 30  1  0
 11 12  2  0
 11 31  1  0
 12 13  1  0
 12 16  1  0
 13 14  1  0
 13 15  1  0
 13 32  1  6
 14 33  1  0
 14 34  1  0
 14 35  1  0
 15 36  1  0
 16 17  2  0
 16 37  1  0
 17 38  1  0
M  END

