
     RDKit          3D

 64 69  0  0  0  0  0  0  0  0999 V2000
    2.4246    0.6201    0.9073 C   0  0  0  0  0  0  0  0  0  0  0  0
    3.7565    0.0527    0.4777 C   0  0  0  0  0  0  0  0  0  0  0  0
    4.9127    0.8452    0.4841 C   0  0  0  0  0  0  0  0  0  0  0  0
    6.1514    0.3294    0.0763 C   0  0  0  0  0  0  0  0  0  0  0  0
    7.5879    1.3298    0.0602 Cl  0  0  0  0  0  0  0  0  0  0  0  0
    6.2292   -0.9965   -0.3315 C   0  0  0  0  0  0  0  0  0  0  0  0
    5.0839   -1.8065   -0.3271 C   0  0  0  0  0  0  0  0  0  0  0  0
    3.8572   -1.2919    0.0590 C   0  0  0  0  0  0  0  0  0  0  0  0
    5.4645   -3.2009   -0.8037 C   0  0  2  0  0  0  0  0  0  0  0  0
    4.6381   -3.6845   -1.8935 N   0  0  0  0  0  0  0  0  0  0  0  0
    4.5581   -5.1452   -1.9704 C   0  0  1  0  0  0  0  0  0  0  0  0
    3.5378   -5.4105   -2.2958 H   0  0  0  0  0  0  0  0  0  0  0  0
    5.5350   -5.8260   -2.9620 C   0  0  0  0  0  0  0  0  0  0  0  0
    5.3807   -5.3085   -4.3750 C   0  0  0  0  0  0  0  0  0  0  0  0
    6.2598   -4.3429   -4.8867 C   0  0  0  0  0  0  0  0  0  0  0  0
    6.0927   -3.8418   -6.1862 C   0  0  0  0  0  0  0  0  0  0  0  0
    5.0465   -4.2972   -6.9823 C   0  0  0  0  0  0  0  0  0  0  0  0
    4.7927   -3.8795   -8.2633 O   0  0  0  0  0  0  0  0  0  0  0  0
    4.1530   -5.2692   -6.4838 C   0  0  0  0  0  0  0  0  0  0  0  0
    3.1392   -5.7191   -7.2628 O   0  0  0  0  0  0  0  0  0  0  0  0
    4.3283   -5.7618   -5.1918 C   0  0  0  0  0  0  0  0  0  0  0  0
    4.7342   -5.5561   -0.4761 C   0  0  1  0  0  0  0  0  0  0  0  0
    3.7700   -5.9031   -0.0761 H   0  0  0  0  0  0  0  0  0  0  0  0
    5.7504   -6.6496   -0.1666 C   0  0  0  0  0  0  0  0  0  0  0  0
    5.7156   -7.7936   -0.5526 O   0  0  0  0  0  0  0  0  0  0  0  0
    6.7352   -6.1281    0.6910 N   0  0  0  0  0  0  0  0  0  0  0  0
    7.8575   -6.9963    1.1199 C   0  0  1  0  0  0  0  0  0  0  0  0
    9.2436   -6.5248    0.6207 C   0  0  0  0  0  0  0  0  0  0  0  0
   10.0005   -5.5710    1.5572 C   0  0  0  0  0  0  0  0  0  0  0  0
   10.0257   -6.0898    3.0007 C   0  0  0  0  0  0  0  0  0  0  0  0
    8.6067   -6.3430    3.5262 C   0  0  0  0  0  0  0  0  0  0  0  0
    7.8511   -7.3321    2.6280 C   0  0  0  0  0  0  0  0  0  0  0  0
    6.5240   -4.7876    0.9915 C   0  0  0  0  0  0  0  0  0  0  0  0
    7.2065   -4.0906    1.7083 O   0  0  0  0  0  0  0  0  0  0  0  0
    5.2595   -4.3246    0.2716 C   0  0  1  0  0  0  0  0  0  0  0  0
    4.5632   -3.9522    1.0351 H   0  0  0  0  0  0  0  0  0  0  0  0
    6.9909   -3.0059   -1.1442 C   0  0  0  0  0  0  0  0  0  0  0  0
    7.7417   -3.8309   -1.6254 O   0  0  0  0  0  0  0  0  0  0  0  0
    7.3237   -1.7165   -0.8128 N   0  0  0  0  0  0  0  0  0  0  0  0
    2.5040    1.6840    1.1740 H   0  0  0  0  0  0  0  0  0  0  0  0
    2.0245    0.0839    1.7842 H   0  0  0  0  0  0  0  0  0  0  0  0
    1.6734    0.5292    0.1051 H   0  0  0  0  0  0  0  0  0  0  0  0
    4.8628    1.8881    0.8032 H   0  0  0  0  0  0  0  0  0  0  0  0
    2.9676   -1.9269    0.0253 H   0  0  0  0  0  0  0  0  0  0  0  0
    4.7881   -3.2236   -2.7881 H   0  0  0  0  0  0  0  0  0  0  0  0
    6.5669   -5.6629   -2.6224 H   0  0  0  0  0  0  0  0  0  0  0  0
    5.3390   -6.9084   -2.9299 H   0  0  0  0  0  0  0  0  0  0  0  0
    7.0949   -3.9954   -4.2743 H   0  0  0  0  0  0  0  0  0  0  0  0
    6.7884   -3.0955   -6.5836 H   0  0  0  0  0  0  0  0  0  0  0  0
    5.4600   -3.2418   -8.5460 H   0  0  0  0  0  0  0  0  0  0  0  0
    3.2031   -5.2663   -8.1179 H   0  0  0  0  0  0  0  0  0  0  0  0
    3.6281   -6.5222   -4.8366 H   0  0  0  0  0  0  0  0  0  0  0  0
    7.6196   -7.9254    0.5850 H   0  0  0  0  0  0  0  0  0  0  0  0
    9.1370   -6.0828   -0.3824 H   0  0  0  0  0  0  0  0  0  0  0  0
    9.8477   -7.4414    0.4950 H   0  0  0  0  0  0  0  0  0  0  0  0
    9.5270   -4.5790    1.5398 H   0  0  0  0  0  0  0  0  0  0  0  0
   11.0296   -5.4456    1.1795 H   0  0  0  0  0  0  0  0  0  0  0  0
   10.5497   -5.3713    3.6529 H   0  0  0  0  0  0  0  0  0  0  0  0
   10.6069   -7.0311    3.0462 H   0  0  0  0  0  0  0  0  0  0  0  0
    8.0642   -5.3868    3.5749 H   0  0  0  0  0  0  0  0  0  0  0  0
    8.6450   -6.7474    4.5522 H   0  0  0  0  0  0  0  0  0  0  0  0
    6.8109   -7.4669    2.9677 H   0  0  0  0  0  0  0  0  0  0  0  0
    8.3307   -8.3230    2.7233 H   0  0  0  0  0  0  0  0  0  0  0  0
    8.2595   -1.3385   -0.9115 H   0  0  0  0  0  0  0  0  0  0  0  0
  1  2  1  0
  1 40  1  0
  1 41  1  0
  1 42  1  0
  2  3  2  0
  2  8  1  0
  3  4  1  0
  3 43  1  0
  4  5  1  0
  4  6  2  0
  6  7  1  0
  6 39  1  0
  7  8  2  0
  7  9  1  0
  8 44  1  0
  9 10  1  0
  9 35  1  0
  9 37  1  6
 10 11  1  0
 10 45  1  0
 11 12  1  6
 11 13  1  0
 11 22  1  0
 13 14  1  0
 13 46  1  0
 13 47  1  0
 14 15  2  0
 14 21  1  0
 15 16  1  0
 15 48  1  0
 16 17  2  0
 16 49  1  0
 17 18  1  0
 17 19  1  0
 18 50  1  0
 19 20  1  0
 19 21  2  0
 20 51  1  0
 21 52  1  0
 22 23  1  1
 22 24  1  0
 22 35  1  0
 24 25  2  0
 24 26  1  0
 26 27  1  0
 26 33  1  0
 27 28  1  0
 27 32  1  0
 27 53  1  6
 28 29  1  0
 28 54  1  0
 28 55  1  0
 29 30  1  0
 29 56  1  0
 29 57  1  0
 30 31  1  0
 30 58  1  0
 30 59  1  0
 31 32  1  0
 31 60  1  0
 31 61  1  0
 32 62  1  0
 32 63  1  0
 33 34  2  0
 33 35  1  0
 35 36  1  1
 37 38  2  0
 37 39  1  0
 39 64  1  0
M  END

