
     RDKit          3D

 53 54  0  0  0  0  0  0  0  0999 V2000
   13.7886    1.9932    5.3818 C   0  0  0  0  0  0  0  0  0  0  0  0
   14.0300    2.0585    3.5809 S   0  0  0  0  0  0  0  0  0  0  0  0
   12.4729    2.6732    3.0300 C   0  0  0  0  0  0  0  0  0  0  0  0
   12.3776    2.9404    1.5527 C   0  0  0  0  0  0  0  0  0  0  0  0
   11.5519    2.8625    3.9024 N   0  0  0  0  0  0  0  0  0  0  0  0
   10.3953    3.4032    3.2913 O   0  0  0  0  0  0  0  0  0  0  0  0
    9.2788    3.2510    4.0591 C   0  0  0  0  0  0  0  0  0  0  0  0
    9.1937    2.5813    5.0514 O   0  0  0  0  0  0  0  0  0  0  0  0
    8.2039    3.9689    3.5278 N   0  0  0  0  0  0  0  0  0  0  0  0
    6.9294    3.8449    4.2557 C   0  0  0  0  0  0  0  0  0  0  0  0
    8.3132    4.9744    2.1622 S   0  0  0  0  0  0  0  0  0  0  0  0
    8.7441    6.5343    2.7846 N   0  0  0  0  0  0  0  0  0  0  0  0
    7.6994    7.3795    3.2358 C   0  0  0  0  0  0  0  0  0  0  0  0
    6.5557    7.0222    3.3338 O   0  0  0  0  0  0  0  0  0  0  0  0
    8.1511    8.6767    3.5227 N   0  0  0  0  0  0  0  0  0  0  0  0
    7.4204    9.6891    4.1465 C   0  0  0  0  0  0  0  0  0  0  0  0
    6.2839    9.6038    4.5248 O   0  0  0  0  0  0  0  0  0  0  0  0
    8.2387   10.9621    4.3236 C   0  0  0  0  0  0  0  0  0  0  0  0
    8.1148   12.0343    3.4246 C   0  0  0  0  0  0  0  0  0  0  0  0
    7.1016   11.8610    2.0123 Cl  0  0  0  0  0  0  0  0  0  0  0  0
    8.7964   13.2376    3.6240 C   0  0  0  0  0  0  0  0  0  0  0  0
    9.6189   13.3799    4.7427 C   0  0  0  0  0  0  0  0  0  0  0  0
    9.7696   12.3322    5.6526 C   0  0  0  0  0  0  0  0  0  0  0  0
    9.0808   11.1369    5.4334 C   0  0  0  0  0  0  0  0  0  0  0  0
    9.2814    9.8273    6.5796 Cl  0  0  0  0  0  0  0  0  0  0  0  0
   10.1314    6.7959    3.0279 C   0  0  0  0  0  0  0  0  0  0  0  0
   10.6318    6.8074    4.3394 C   0  0  0  0  0  0  0  0  0  0  0  0
   11.9942    6.9979    4.5718 C   0  0  0  0  0  0  0  0  0  0  0  0
   12.8533    7.1633    3.4856 C   0  0  0  0  0  0  0  0  0  0  0  0
   14.2157    7.3666    3.7076 O   0  0  0  0  0  0  0  0  0  0  0  0
   15.0080    6.2741    3.8278 C   0  0  1  0  0  0  0  0  0  0  0  0
   14.6715    5.5193    4.8864 F   0  0  0  0  0  0  0  0  0  0  0  0
   14.9467    5.4864    2.7447 F   0  0  0  0  0  0  0  0  0  0  0  0
   16.2548    6.6905    3.9846 F   0  0  0  0  0  0  0  0  0  0  0  0
   12.3716    7.1752    2.1750 C   0  0  0  0  0  0  0  0  0  0  0  0
   11.0071    6.9956    1.9496 C   0  0  0  0  0  0  0  0  0  0  0  0
   14.7062    1.5501    5.7930 H   0  0  0  0  0  0  0  0  0  0  0  0
   12.9165    1.3751    5.6310 H   0  0  0  0  0  0  0  0  0  0  0  0
   13.6460    3.0071    5.7784 H   0  0  0  0  0  0  0  0  0  0  0  0
   13.1986    2.4544    1.0079 H   0  0  0  0  0  0  0  0  0  0  0  0
   12.4306    4.0256    1.3710 H   0  0  0  0  0  0  0  0  0  0  0  0
   11.4125    2.5858    1.1644 H   0  0  0  0  0  0  0  0  0  0  0  0
    6.5541    2.8114    4.2018 H   0  0  0  0  0  0  0  0  0  0  0  0
    6.2114    4.5385    3.8059 H   0  0  0  0  0  0  0  0  0  0  0  0
    7.0680    4.1023    5.3160 H   0  0  0  0  0  0  0  0  0  0  0  0
    9.1154    8.8977    3.2969 H   0  0  0  0  0  0  0  0  0  0  0  0
    8.6759   14.0482    2.9043 H   0  0  0  0  0  0  0  0  0  0  0  0
   10.1518   14.3194    4.9066 H   0  0  0  0  0  0  0  0  0  0  0  0
   10.4114   12.4313    6.5288 H   0  0  0  0  0  0  0  0  0  0  0  0
    9.9507    6.6591    5.1792 H   0  0  0  0  0  0  0  0  0  0  0  0
   12.3962    7.0034    5.5856 H   0  0  0  0  0  0  0  0  0  0  0  0
   13.0678    7.3245    1.3481 H   0  0  0  0  0  0  0  0  0  0  0  0
   10.6105    6.9916    0.9324 H   0  0  0  0  0  0  0  0  0  0  0  0
  1  2  1  0
  1 37  1  0
  1 38  1  0
  1 39  1  0
  2  3  1  0
  3  4  1  0
  3  5  2  0
  4 40  1  0
  4 41  1  0
  4 42  1  0
  5  6  1  0
  6  7  1  0
  7  8  2  0
  7  9  1  0
  9 10  1  0
  9 11  1  0
 10 43  1  0
 10 44  1  0
 10 45  1  0
 11 12  1  0
 12 13  1  0
 12 26  1  0
 13 14  2  0
 13 15  1  0
 15 16  1  0
 15 46  1  0
 16 17  2  0
 16 18  1  0
 18 19  2  0
 18 24  1  0
 19 20  1  0
 19 21  1  0
 21 22  2  0
 21 47  1  0
 22 23  1  0
 22 48  1  0
 23 24  2  0
 23 49  1  0
 24 25  1  0
 26 27  2  0
 26 36  1  0
 27 28  1  0
 27 50  1  0
 28 29  2  0
 28 51  1  0
 29 30  1  0
 29 35  1  0
 30 31  1  0
 31 32  1  1
 31 33  1  0
 31 34  1  0
 35 36  2  0
 35 52  1  0
 36 53  1  0
M  END

