
     RDKit          3D

 50 52  0  0  0  0  0  0  0  0999 V2000
   -1.8379    0.9833   -0.1656 C   0  0  0  0  0  0  0  0  0  0  0  0
   -1.5368   -0.5040   -0.1881 C   0  0  0  0  0  0  0  0  0  0  0  0
   -1.9761   -1.2157   -1.0700 O   0  0  0  0  0  0  0  0  0  0  0  0
   -0.6805   -1.0824    0.9073 C   0  0  0  0  0  0  0  0  0  0  0  0
   -0.1441   -0.3118    1.9530 C   0  0  0  0  0  0  0  0  0  0  0  0
    0.6399   -0.9283    2.9286 C   0  0  0  0  0  0  0  0  0  0  0  0
    0.9047   -2.2993    2.8892 C   0  0  0  0  0  0  0  0  0  0  0  0
    0.3716   -3.0787    1.8455 C   0  0  0  0  0  0  0  0  0  0  0  0
    0.5618   -4.4653    1.6894 N   0  0  0  0  0  0  0  0  0  0  0  0
    1.2389   -5.3787    2.4168 C   0  0  0  0  0  0  0  0  0  0  0  0
    2.1348   -5.1839    3.8130 S   0  0  0  0  0  0  0  0  0  0  0  0
    1.1640   -6.6890    1.9002 N   0  0  0  0  0  0  0  0  0  0  0  0
    0.5115   -7.1659    0.7817 C   0  0  0  0  0  0  0  0  0  0  0  0
   -0.1247   -6.4316    0.0293 O   0  0  0  0  0  0  0  0  0  0  0  0
    0.6217   -8.6320    0.5238 C   0  0  0  0  0  0  0  0  0  0  0  0
    1.2274   -9.5697    1.3813 C   0  0  0  0  0  0  0  0  0  0  0  0
    1.2975  -10.9138    1.0466 C   0  0  0  0  0  0  0  0  0  0  0  0
    0.7536  -11.4262   -0.1615 C   0  0  0  0  0  0  0  0  0  0  0  0
    0.8964  -12.7527   -0.4946 N   0  0  0  0  0  0  0  0  0  0  0  0
    1.2097  -13.7571    0.5182 C   0  0  0  0  0  0  0  0  0  0  0  0
    0.5859  -15.0977    0.1161 C   0  0  0  0  0  0  0  0  0  0  0  0
    0.9892  -15.5008   -1.1714 O   0  0  0  0  0  0  0  0  0  0  0  0
    0.6251  -14.5466   -2.1511 C   0  0  0  0  0  0  0  0  0  0  0  0
    1.2629  -13.1959   -1.8446 C   0  0  0  0  0  0  0  0  0  0  0  0
    0.0856  -10.4654   -0.9799 C   0  0  0  0  0  0  0  0  0  0  0  0
   -0.7280  -10.8535   -2.1483 N   0  0  0  0  0  0  0  0  0  0  0  0
   -1.3465  -11.9060   -2.0852 O   0  0  0  0  0  0  0  0  0  0  0  0
   -0.7698  -10.0775   -3.0885 O   0  0  0  0  0  0  0  0  0  0  0  0
    0.0511   -9.1128   -0.6597 C   0  0  0  0  0  0  0  0  0  0  0  0
   -0.4173   -2.4562    0.8648 C   0  0  0  0  0  0  0  0  0  0  0  0
   -2.4684    1.2284   -1.0294 H   0  0  0  0  0  0  0  0  0  0  0  0
   -0.9091    1.5748   -0.2100 H   0  0  0  0  0  0  0  0  0  0  0  0
   -2.3608    1.2662    0.7623 H   0  0  0  0  0  0  0  0  0  0  0  0
   -0.3329    0.7613    2.0111 H   0  0  0  0  0  0  0  0  0  0  0  0
    1.0595   -0.3337    3.7438 H   0  0  0  0  0  0  0  0  0  0  0  0
    1.5172   -2.7709    3.6543 H   0  0  0  0  0  0  0  0  0  0  0  0
    0.1010   -4.8759    0.8640 H   0  0  0  0  0  0  0  0  0  0  0  0
    1.7007   -7.3308    2.4724 H   0  0  0  0  0  0  0  0  0  0  0  0
    1.6791   -9.2676    2.3295 H   0  0  0  0  0  0  0  0  0  0  0  0
    1.8270  -11.5889    1.7174 H   0  0  0  0  0  0  0  0  0  0  0  0
    0.7907  -13.4510    1.4868 H   0  0  0  0  0  0  0  0  0  0  0  0
    2.3059  -13.8791    0.6365 H   0  0  0  0  0  0  0  0  0  0  0  0
   -0.5183  -15.0082    0.1676 H   0  0  0  0  0  0  0  0  0  0  0  0
    0.9050  -15.8822    0.8192 H   0  0  0  0  0  0  0  0  0  0  0  0
   -0.4739  -14.4294   -2.1985 H   0  0  0  0  0  0  0  0  0  0  0  0
    0.9843  -14.9249   -3.1197 H   0  0  0  0  0  0  0  0  0  0  0  0
    0.9809  -12.4580   -2.6018 H   0  0  0  0  0  0  0  0  0  0  0  0
    2.3657  -13.3053   -1.8887 H   0  0  0  0  0  0  0  0  0  0  0  0
   -0.4589   -8.4187   -1.3276 H   0  0  0  0  0  0  0  0  0  0  0  0
   -0.8471   -3.0313    0.0406 H   0  0  0  0  0  0  0  0  0  0  0  0
  1  2  1  0
  1 31  1  0
  1 32  1  0
  1 33  1  0
  2  3  2  0
  2  4  1  0
  4  5  2  0
  4 30  1  0
  5  6  1  0
  5 34  1  0
  6  7  2  0
  6 35  1  0
  7  8  1  0
  7 36  1  0
  8  9  1  0
  8 30  2  0
  9 10  1  0
  9 37  1  0
 10 11  2  0
 10 12  1  0
 12 13  1  0
 12 38  1  0
 13 14  2  0
 13 15  1  0
 15 16  2  0
 15 29  1  0
 16 17  1  0
 16 39  1  0
 17 18  2  0
 17 40  1  0
 18 19  1  0
 18 25  1  0
 19 20  1  0
 19 24  1  0
 20 21  1  0
 20 41  1  0
 20 42  1  0
 21 22  1  0
 21 43  1  0
 21 44  1  0
 22 23  1  0
 23 24  1  0
 23 45  1  0
 23 46  1  0
 24 47  1  0
 24 48  1  0
 25 26  1  0
 25 29  2  0
 26 27  2  0
 26 28  1  0
 29 49  1  0
 30 50  1  0
M  CHG  2  26   1  28  -1
M  END

