
     RDKit          3D

 28 29  0  0  0  0  0  0  0  0999 V2000
    1.5329   -2.0675   -2.8551 O   0  0  0  0  0  0  0  0  0  0  0  0
    2.0623   -1.4861   -1.9466 C   0  0  0  0  0  0  0  0  0  0  0  0
    2.0033   -1.9290   -0.6757 O   0  0  0  0  0  0  0  0  0  0  0  0
    2.8199   -0.2306   -2.1484 C   0  0  0  0  0  0  0  0  0  0  0  0
    3.1144    0.4864   -3.2748 C   0  0  0  0  0  0  0  0  0  0  0  0
    3.8810    1.6121   -2.8425 C   0  0  0  0  0  0  0  0  0  0  0  0
    4.5565    2.8754   -3.9189 S   0  0  1  0  0  0  0  0  0  0  0  0
    5.9285    3.1073   -3.4848 O   0  0  0  0  0  0  0  0  0  0  0  0
    4.2062    2.4420   -5.2686 O   0  0  0  0  0  0  0  0  0  0  0  0
    3.7476    4.2998   -3.6098 N   0  0  0  0  0  0  0  0  0  0  0  0
    2.3642    4.5473   -3.9411 C   0  0  1  0  0  0  0  0  0  0  0  0
    1.3499    3.9911   -2.9624 C   0  0  0  0  0  0  0  0  0  0  0  0
    1.7287    4.4119   -1.6651 O   0  0  0  0  0  0  0  0  0  0  0  0
    2.1018    5.8992   -4.5751 C   0  0  0  0  0  0  0  0  0  0  0  0
    2.0050    4.6486   -5.4007 C   0  0  0  0  0  0  0  0  0  0  0  0
    4.0019    1.4950   -1.4767 C   0  0  0  0  0  0  0  0  0  0  0  0
    4.8421    2.5503   -0.2025 Br  0  0  0  0  0  0  0  0  0  0  0  0
    3.3634    0.3907   -1.0448 O   0  0  0  0  0  0  0  0  0  0  0  0
    2.4996   -1.3410   -0.0848 H   0  0  0  0  0  0  0  0  0  0  0  0
    2.8330    0.2456   -4.2968 H   0  0  0  0  0  0  0  0  0  0  0  0
    4.0570    4.7124   -2.7299 H   0  0  0  0  0  0  0  0  0  0  0  0
    1.3274    2.8859   -3.0347 H   0  0  0  0  0  0  0  0  0  0  0  0
    0.3429    4.3561   -3.2430 H   0  0  0  0  0  0  0  0  0  0  0  0
    1.1350    4.0112   -1.0186 H   0  0  0  0  0  0  0  0  0  0  0  0
    2.9690    6.5460   -4.7270 H   0  0  0  0  0  0  0  0  0  0  0  0
    1.1831    6.4168   -4.2857 H   0  0  0  0  0  0  0  0  0  0  0  0
    2.7996    4.4267   -6.1137 H   0  0  0  0  0  0  0  0  0  0  0  0
    1.0151    4.2890   -5.6960 H   0  0  0  0  0  0  0  0  0  0  0  0
  1  2  2  0
  2  3  1  0
  2  4  1  0
  3 19  1  0
  4  5  2  0
  4 18  1  0
  5  6  1  0
  5 20  1  0
  6  7  1  0
  6 16  2  0
  7  8  2  0
  7  9  2  0
  7 10  1  1
 11 10  1  6
 10 21  1  0
 11 12  1  0
 11 14  1  0
 11 15  1  0
 12 13  1  0
 12 22  1  0
 12 23  1  0
 13 24  1  0
 14 15  1  0
 14 25  1  0
 14 26  1  0
 15 27  1  0
 15 28  1  0
 16 17  1  0
 16 18  1  0
M  END

