
     RDKit          3D

 51 52  0  0  0  0  0  0  0  0999 V2000
    0.7187   -0.1209    1.3535 C   0  0  0  0  0  0  0  0  0  0  0  0
    2.2423   -0.2490    1.3194 C   0  0  0  0  0  0  0  0  0  0  0  0
    3.0001    1.0893    1.1932 C   0  0  1  0  0  0  0  0  0  0  0  0
    2.8269    2.0246    2.4033 C   0  0  0  0  0  0  0  0  0  0  0  0
    3.4859    3.3935    2.2298 C   0  0  0  0  0  0  0  0  0  0  0  0
    4.4175    0.8373    0.8898 N   0  0  0  0  0  0  0  0  0  0  0  0
    4.9810    1.1123   -0.4255 C   0  0  0  0  0  0  0  0  0  0  0  0
    6.2835    0.2923   -0.4612 C   0  0  2  0  0  0  0  0  0  0  0  0
    6.0595   -1.0701   -1.1381 C   0  0  0  0  0  0  0  0  0  0  0  0
    4.9660   -1.4711   -1.5037 O   0  0  0  0  0  0  0  0  0  0  0  0
    7.1926   -1.8126   -1.3193 N   0  0  0  0  0  0  0  0  0  0  0  0
    7.1230   -3.1826   -1.7691 C   0  0  1  0  0  0  0  0  0  0  0  0
    6.6753   -3.4416   -3.2127 C   0  0  0  0  0  0  0  0  0  0  0  0
    7.5720   -4.5790   -3.6799 C   0  0  0  0  0  0  0  0  0  0  0  0
    7.4507   -5.2623   -4.6647 O   0  0  0  0  0  0  0  0  0  0  0  0
    8.6375   -4.6898   -2.7637 N   0  0  0  0  0  0  0  0  0  0  0  0
    9.7698   -5.6106   -2.9837 C   0  0  1  0  0  0  0  0  0  0  0  0
   11.0544   -4.8392   -3.3047 C   0  0  0  0  0  0  0  0  0  0  0  0
    9.9288   -6.5770   -1.8067 C   0  0  0  0  0  0  0  0  0  0  0  0
    8.5213   -3.8066   -1.7071 C   0  0  0  0  0  0  0  0  0  0  0  0
    9.3641   -3.5534   -0.8737 O   0  0  0  0  0  0  0  0  0  0  0  0
    6.6466    0.1401    1.0327 C   0  0  0  0  0  0  0  0  0  0  0  0
    5.3008    0.2578    1.7579 C   0  0  0  0  0  0  0  0  0  0  0  0
    5.0790   -0.0876    2.9043 O   0  0  0  0  0  0  0  0  0  0  0  0
    0.2459   -1.1157    1.3520 H   0  0  0  0  0  0  0  0  0  0  0  0
    0.3376    0.4254    0.4733 H   0  0  0  0  0  0  0  0  0  0  0  0
    0.3612    0.4062    2.2523 H   0  0  0  0  0  0  0  0  0  0  0  0
    2.5391   -0.8735    0.4598 H   0  0  0  0  0  0  0  0  0  0  0  0
    2.6048   -0.7688    2.2209 H   0  0  0  0  0  0  0  0  0  0  0  0
    2.6053    1.6162    0.3060 H   0  0  0  0  0  0  0  0  0  0  0  0
    3.2302    1.5196    3.2942 H   0  0  0  0  0  0  0  0  0  0  0  0
    1.7464    2.1619    2.5727 H   0  0  0  0  0  0  0  0  0  0  0  0
    4.5759    3.3041    2.0950 H   0  0  0  0  0  0  0  0  0  0  0  0
    3.3170    4.0288    3.1135 H   0  0  0  0  0  0  0  0  0  0  0  0
    3.0839    3.9312    1.3537 H   0  0  0  0  0  0  0  0  0  0  0  0
    5.1855    2.1919   -0.5562 H   0  0  0  0  0  0  0  0  0  0  0  0
    4.2928    0.7868   -1.2191 H   0  0  0  0  0  0  0  0  0  0  0  0
    7.0730    0.8176   -1.0218 H   0  0  0  0  0  0  0  0  0  0  0  0
    8.0576   -1.5479   -0.8547 H   0  0  0  0  0  0  0  0  0  0  0  0
    6.4785   -3.7724   -1.0881 H   0  0  0  0  0  0  0  0  0  0  0  0
    6.8786   -2.5648   -3.8494 H   0  0  0  0  0  0  0  0  0  0  0  0
    5.6138   -3.6936   -3.3230 H   0  0  0  0  0  0  0  0  0  0  0  0
    9.4654   -6.1798   -3.8750 H   0  0  0  0  0  0  0  0  0  0  0  0
   11.3742   -4.2287   -2.4476 H   0  0  0  0  0  0  0  0  0  0  0  0
   10.9112   -4.1795   -4.1747 H   0  0  0  0  0  0  0  0  0  0  0  0
   11.8616   -5.5473   -3.5481 H   0  0  0  0  0  0  0  0  0  0  0  0
   10.2077   -6.0430   -0.8864 H   0  0  0  0  0  0  0  0  0  0  0  0
   10.7192   -7.3090   -2.0335 H   0  0  0  0  0  0  0  0  0  0  0  0
    8.9962   -7.1329   -1.6233 H   0  0  0  0  0  0  0  0  0  0  0  0
    7.3015    0.9573    1.3787 H   0  0  0  0  0  0  0  0  0  0  0  0
    7.1361   -0.8067    1.3014 H   0  0  0  0  0  0  0  0  0  0  0  0
  1  2  1  0
  1 25  1  0
  1 26  1  0
  1 27  1  0
  2  3  1  0
  2 28  1  0
  2 29  1  0
  3  4  1  0
  3  6  1  0
  3 30  1  6
  4  5  1  0
  4 31  1  0
  4 32  1  0
  5 33  1  0
  5 34  1  0
  5 35  1  0
  6  7  1  0
  6 23  1  0
  7  8  1  0
  7 36  1  0
  7 37  1  0
  8  9  1  0
  8 22  1  0
  8 38  1  6
  9 10  2  0
  9 11  1  0
 11 12  1  0
 11 39  1  0
 12 13  1  0
 12 20  1  0
 12 40  1  1
 13 14  1  0
 13 41  1  0
 13 42  1  0
 14 15  2  0
 14 16  1  0
 16 17  1  0
 16 20  1  0
 17 18  1  0
 17 19  1  0
 17 43  1  6
 18 44  1  0
 18 45  1  0
 18 46  1  0
 19 47  1  0
 19 48  1  0
 19 49  1  0
 20 21  2  0
 22 23  1  0
 22 50  1  0
 22 51  1  0
 23 24  2  0
M  END

