
     RDKit          3D

 52 56  0  0  0  0  0  0  0  0999 V2000
    4.5697   -1.7985   -2.2320 C   0  0  0  0  0  0  0  0  0  0  0  0
    3.5559   -1.0565   -1.3410 C   0  0  1  0  0  0  0  0  0  0  0  0
    3.8950    0.4439   -1.2794 C   0  0  0  0  0  0  0  0  0  0  0  0
    2.1360   -1.2502   -1.8940 C   0  0  0  0  0  0  0  0  0  0  0  0
    3.5585   -1.6468    0.0182 N   0  0  0  0  0  0  0  0  0  0  0  0
    4.6340   -1.7173    0.8568 C   0  0  0  0  0  0  0  0  0  0  0  0
    5.7232   -1.2245    0.6067 O   0  0  0  0  0  0  0  0  0  0  0  0
    4.4362   -2.5722    2.0988 C   0  0  0  0  0  0  0  0  0  0  0  0
    3.8513   -3.8196    1.9211 C   0  0  0  0  0  0  0  0  0  0  0  0
    3.9087   -4.8191    2.9110 C   0  0  0  0  0  0  0  0  0  0  0  0
    4.6618   -4.5921    4.0424 C   0  0  0  0  0  0  0  0  0  0  0  0
    4.8345   -6.0274    5.2950 Br  0  0  0  0  0  0  0  0  0  0  0  0
    5.3165   -3.3444    4.2688 C   0  0  0  0  0  0  0  0  0  0  0  0
    6.2314   -3.1444    5.3437 C   0  0  0  0  0  0  0  0  0  0  0  0
    6.9423   -1.9801    5.4452 C   0  0  0  0  0  0  0  0  0  0  0  0
    6.6616   -0.8570    4.6107 C   0  0  0  0  0  0  0  0  0  0  0  0
    7.4430    0.3775    4.7034 C   0  0  0  0  0  0  0  0  0  0  0  0
    8.6590    0.4313    5.4257 C   0  0  0  0  0  0  0  0  0  0  0  0
    9.4511    1.5690    5.4292 C   0  0  0  0  0  0  0  0  0  0  0  0
    9.0505    2.6997    4.6989 C   0  0  0  0  0  0  0  0  0  0  0  0
    7.8566    2.6763    3.9946 C   0  0  0  0  0  0  0  0  0  0  0  0
    7.0227    1.5348    3.9902 C   0  0  0  0  0  0  0  0  0  0  0  0
    5.7145    1.5237    3.3362 C   0  0  0  0  0  0  0  0  0  0  0  0
    5.0921    2.7181    2.9067 C   0  0  0  0  0  0  0  0  0  0  0  0
    3.7962    2.7291    2.4141 C   0  0  0  0  0  0  0  0  0  0  0  0
    3.0659    1.5317    2.3633 C   0  0  0  0  0  0  0  0  0  0  0  0
    3.6647    0.3430    2.7509 C   0  0  0  0  0  0  0  0  0  0  0  0
    5.0063    0.2941    3.2017 C   0  0  0  0  0  0  0  0  0  0  0  0
    5.6051   -0.9517    3.6828 C   0  0  0  0  0  0  0  0  0  0  0  0
    5.0903   -2.2668    3.3423 C   0  0  0  0  0  0  0  0  0  0  0  0
    4.5596   -1.3789   -3.2503 H   0  0  0  0  0  0  0  0  0  0  0  0
    4.3194   -2.8695   -2.2990 H   0  0  0  0  0  0  0  0  0  0  0  0
    5.5844   -1.7015   -1.8231 H   0  0  0  0  0  0  0  0  0  0  0  0
    3.8788    0.8772   -2.2922 H   0  0  0  0  0  0  0  0  0  0  0  0
    4.8919    0.5945   -0.8450 H   0  0  0  0  0  0  0  0  0  0  0  0
    3.1636    0.9847   -0.6595 H   0  0  0  0  0  0  0  0  0  0  0  0
    2.0635   -0.8367   -2.9108 H   0  0  0  0  0  0  0  0  0  0  0  0
    1.3902   -0.7328   -1.2677 H   0  0  0  0  0  0  0  0  0  0  0  0
    1.8688   -2.3189   -1.9452 H   0  0  0  0  0  0  0  0  0  0  0  0
    2.6781   -2.0077    0.3641 H   0  0  0  0  0  0  0  0  0  0  0  0
    3.3933   -4.0673    0.9612 H   0  0  0  0  0  0  0  0  0  0  0  0
    3.4262   -5.7841    2.7504 H   0  0  0  0  0  0  0  0  0  0  0  0
    6.4013   -3.9561    6.0507 H   0  0  0  0  0  0  0  0  0  0  0  0
    7.6942   -1.8939    6.2292 H   0  0  0  0  0  0  0  0  0  0  0  0
    9.0079   -0.4475    5.9681 H   0  0  0  0  0  0  0  0  0  0  0  0
   10.3919    1.5763    5.9849 H   0  0  0  0  0  0  0  0  0  0  0  0
    9.6784    3.5939    4.6794 H   0  0  0  0  0  0  0  0  0  0  0  0
    7.5663    3.5591    3.4243 H   0  0  0  0  0  0  0  0  0  0  0  0
    5.6223    3.6659    3.0033 H   0  0  0  0  0  0  0  0  0  0  0  0
    3.3362    3.6716    2.1070 H   0  0  0  0  0  0  0  0  0  0  0  0
    2.0220    1.5356    2.0398 H   0  0  0  0  0  0  0  0  0  0  0  0
    3.0708   -0.5700    2.7541 H   0  0  0  0  0  0  0  0  0  0  0  0
  1  2  1  0
  1 31  1  0
  1 32  1  0
  1 33  1  0
  2  3  1  0
  2  4  1  0
  2  5  1  1
  3 34  1  0
  3 35  1  0
  3 36  1  0
  4 37  1  0
  4 38  1  0
  4 39  1  0
  5  6  1  0
  5 40  1  0
  6  7  2  0
  6  8  1  0
  8  9  2  0
  8 30  1  0
  9 10  1  0
  9 41  1  0
 10 11  2  0
 10 42  1  0
 11 12  1  0
 11 13  1  0
 13 14  1  0
 13 30  2  0
 14 15  2  0
 14 43  1  0
 15 16  1  0
 15 44  1  0
 16 17  1  0
 16 29  2  0
 17 18  2  0
 17 22  1  0
 18 19  1  0
 18 45  1  0
 19 20  2  0
 19 46  1  0
 20 21  1  0
 20 47  1  0
 21 22  2  0
 21 48  1  0
 22 23  1  0
 23 24  1  0
 23 28  2  0
 24 25  2  0
 24 49  1  0
 25 26  1  0
 25 50  1  0
 26 27  2  0
 26 51  1  0
 27 28  1  0
 27 52  1  0
 28 29  1  0
 29 30  1  0
M  END

