
     RDKit          3D

 37 38  0  0  0  0  0  0  0  0999 V2000
    1.3927   -5.7214   -1.8828 N   0  0  0  0  0  0  0  0  0  0  0  0
    2.5286   -5.5699   -2.0527 C   0  0  0  0  0  0  0  0  0  0  0  0
    3.9632   -5.3587   -2.2592 C   0  0  0  0  0  0  0  0  0  0  0  0
    4.4255   -3.9421   -1.8650 C   0  0  0  0  0  0  0  0  0  0  0  0
    5.9271   -3.7718   -2.0908 C   0  0  0  0  0  0  0  0  0  0  0  0
    6.4278   -2.0772   -1.6144 S   0  0  0  0  0  0  0  0  0  0  0  0
    8.1648   -2.1151   -1.9590 C   0  0  0  0  0  0  0  0  0  0  0  0
    8.9061   -0.9325   -1.7360 C   0  0  0  0  0  0  0  0  0  0  0  0
   10.2687   -0.9514   -1.9914 C   0  0  0  0  0  0  0  0  0  0  0  0
   10.8471   -2.1431   -2.4550 C   0  0  0  0  0  0  0  0  0  0  0  0
   12.6089   -2.2336   -2.7817 S   0  0  1  0  0  0  0  0  0  0  0  0
   12.8062   -3.3599   -3.6971 O   0  0  0  0  0  0  0  0  0  0  0  0
   13.0439   -0.8714   -3.1020 O   0  0  0  0  0  0  0  0  0  0  0  0
   13.3067   -2.6461   -1.3357 N   0  0  0  0  0  0  0  0  0  0  0  0
   13.6130   -4.0460   -0.9952 C   0  0  0  0  0  0  0  0  0  0  0  0
   14.3572   -3.9111    0.3423 C   0  0  0  0  0  0  0  0  0  0  0  0
   15.0334   -2.5350    0.2456 C   0  0  0  0  0  0  0  0  0  0  0  0
   13.9776   -1.6730   -0.4587 C   0  0  0  0  0  0  0  0  0  0  0  0
   10.0286   -3.2532   -2.6689 C   0  0  0  0  0  0  0  0  0  0  0  0
    8.7161   -3.2376   -2.4193 N   0  0  0  0  0  0  0  0  0  0  0  0
    4.1918   -5.5560   -3.3205 H   0  0  0  0  0  0  0  0  0  0  0  0
    4.5108   -6.1180   -1.6751 H   0  0  0  0  0  0  0  0  0  0  0  0
    4.1761   -3.7591   -0.8071 H   0  0  0  0  0  0  0  0  0  0  0  0
    3.8646   -3.1991   -2.4548 H   0  0  0  0  0  0  0  0  0  0  0  0
    6.2008   -3.9303   -3.1444 H   0  0  0  0  0  0  0  0  0  0  0  0
    6.5118   -4.4874   -1.4941 H   0  0  0  0  0  0  0  0  0  0  0  0
    8.4110   -0.0257   -1.3818 H   0  0  0  0  0  0  0  0  0  0  0  0
   10.8844   -0.0592   -1.8591 H   0  0  0  0  0  0  0  0  0  0  0  0
   14.2416   -4.5062   -1.7753 H   0  0  0  0  0  0  0  0  0  0  0  0
   12.6967   -4.6529   -0.9049 H   0  0  0  0  0  0  0  0  0  0  0  0
   15.0660   -4.7363    0.5067 H   0  0  0  0  0  0  0  0  0  0  0  0
   13.6370   -3.9195    1.1773 H   0  0  0  0  0  0  0  0  0  0  0  0
   15.9389   -2.5999   -0.3803 H   0  0  0  0  0  0  0  0  0  0  0  0
   15.3285   -2.1252    1.2231 H   0  0  0  0  0  0  0  0  0  0  0  0
   14.4050   -0.8505   -1.0474 H   0  0  0  0  0  0  0  0  0  0  0  0
   13.2666   -1.2393    0.2703 H   0  0  0  0  0  0  0  0  0  0  0  0
   10.4526   -4.1782   -3.0717 H   0  0  0  0  0  0  0  0  0  0  0  0
  1  2  3  0
  2  3  1  0
  3  4  1  0
  3 21  1  0
  3 22  1  0
  4  5  1  0
  4 23  1  0
  4 24  1  0
  5  6  1  0
  5 25  1  0
  5 26  1  0
  6  7  1  0
  7  8  2  0
  7 20  1  0
  8  9  1  0
  8 27  1  0
  9 10  2  0
  9 28  1  0
 11 10  1  1
 10 19  1  0
 11 12  2  0
 11 13  2  0
 11 14  1  0
 14 15  1  0
 14 18  1  0
 15 16  1  0
 15 29  1  0
 15 30  1  0
 16 17  1  0
 16 31  1  0
 16 32  1  0
 17 18  1  0
 17 33  1  0
 17 34  1  0
 18 35  1  0
 18 36  1  0
 19 20  2  0
 19 37  1  0
M  END

