
     RDKit          3D

 33 35  0  0  0  0  0  0  0  0999 V2000
    1.3324   -0.7285   -0.0184 N   0  0  0  0  0  0  0  0  0  0  0  0
    2.6326   -0.3373   -0.0508 C   0  0  0  0  0  0  0  0  0  0  0  0
    3.6088   -1.3174   -0.3080 C   0  0  0  0  0  0  0  0  0  0  0  0
    4.9669   -1.0228   -0.4474 C   0  0  0  0  0  0  0  0  0  0  0  0
    5.4108    0.2799   -0.3423 C   0  0  0  0  0  0  0  0  0  0  0  0
    4.4816    1.3139   -0.0802 C   0  0  0  0  0  0  0  0  0  0  0  0
    4.9494    2.6531   -0.0238 C   0  0  0  0  0  0  0  0  0  0  0  0
    4.0634    3.6778    0.1844 C   0  0  0  0  0  0  0  0  0  0  0  0
    2.7562    3.4457    0.3934 N   0  0  0  0  0  0  0  0  0  0  0  0
    2.2525    2.2176    0.3946 C   0  0  0  0  0  0  0  0  0  0  0  0
    0.7621    2.2539    0.7921 C   0  0  0  0  0  0  0  0  0  0  0  0
    0.0902    1.2763    1.1164 O   0  0  0  0  0  0  0  0  0  0  0  0
    0.2695    3.5204    0.7898 N   0  0  0  0  0  0  0  0  0  0  0  0
   -1.0084    3.9885    1.1201 C   0  0  0  0  0  0  0  0  0  0  0  0
   -2.0752    3.1561    1.5110 C   0  0  0  0  0  0  0  0  0  0  0  0
   -3.3144    3.7260    1.8126 C   0  0  0  0  0  0  0  0  0  0  0  0
   -3.5281    5.1046    1.7391 C   0  0  0  0  0  0  0  0  0  0  0  0
   -2.4578    5.9079    1.3516 C   0  0  0  0  0  0  0  0  0  0  0  0
   -2.6301    7.2364    1.2715 F   0  0  0  0  0  0  0  0  0  0  0  0
   -1.2108    5.3804    1.0421 C   0  0  0  0  0  0  0  0  0  0  0  0
    3.0630    1.0499    0.1093 C   0  0  0  0  0  0  0  0  0  0  0  0
    1.1551   -1.7241   -0.0433 H   0  0  0  0  0  0  0  0  0  0  0  0
    0.6490   -0.1237    0.4486 H   0  0  0  0  0  0  0  0  0  0  0  0
    3.2712   -2.3524   -0.4099 H   0  0  0  0  0  0  0  0  0  0  0  0
    5.6721   -1.8340   -0.6472 H   0  0  0  0  0  0  0  0  0  0  0  0
    6.4649    0.5343   -0.4666 H   0  0  0  0  0  0  0  0  0  0  0  0
    6.0137    2.8538   -0.1660 H   0  0  0  0  0  0  0  0  0  0  0  0
    4.3844    4.7242    0.2014 H   0  0  0  0  0  0  0  0  0  0  0  0
    1.0044    4.2027    0.5836 H   0  0  0  0  0  0  0  0  0  0  0  0
   -1.9198    2.0831    1.5765 H   0  0  0  0  0  0  0  0  0  0  0  0
   -4.1369    3.0732    2.1155 H   0  0  0  0  0  0  0  0  0  0  0  0
   -4.4916    5.5599    1.9731 H   0  0  0  0  0  0  0  0  0  0  0  0
   -0.4072    6.0557    0.7412 H   0  0  0  0  0  0  0  0  0  0  0  0
  1  2  1  0
  1 22  1  0
  1 23  1  0
  2  3  2  0
  2 21  1  0
  3  4  1  0
  3 24  1  0
  4  5  2  0
  4 25  1  0
  5  6  1  0
  5 26  1  0
  6  7  1  0
  6 21  2  0
  7  8  2  0
  7 27  1  0
  8  9  1  0
  8 28  1  0
  9 10  2  0
 10 11  1  0
 10 21  1  0
 11 12  2  0
 11 13  1  0
 13 14  1  0
 13 29  1  0
 14 15  2  0
 14 20  1  0
 15 16  1  0
 15 30  1  0
 16 17  2  0
 16 31  1  0
 17 18  1  0
 17 32  1  0
 18 19  1  0
 18 20  2  0
 20 33  1  0
M  END

