
     RDKit          3D

 41 43  0  0  0  0  0  0  0  0999 V2000
    2.5740   -6.0922   -0.7364 C   0  0  0  0  0  0  0  0  0  0  0  0
    1.9816   -5.2681    0.4174 C   0  0  0  0  0  0  0  0  0  0  0  0
    2.6614   -3.9298    0.5797 C   0  0  0  0  0  0  0  0  0  0  0  0
    3.6501   -3.8038    1.4151 N   0  0  0  0  0  0  0  0  0  0  0  0
    4.2950   -2.5846    1.5065 C   0  0  0  0  0  0  0  0  0  0  0  0
    5.3525   -2.5612    2.3840 N   0  0  0  0  0  0  0  0  0  0  0  0
    6.1273   -1.3562    2.6278 C   0  0  0  0  0  0  0  0  0  0  0  0
    5.7586   -0.6219    3.9240 C   0  0  0  0  0  0  0  0  0  0  0  0
    6.1036   -1.3829    5.2094 C   0  0  0  0  0  0  0  0  0  0  0  0
    5.1994   -2.4502    5.5804 N   0  0  0  0  0  0  0  0  0  0  0  0
    5.4501   -3.0178    6.8990 C   0  0  0  0  0  0  0  0  0  0  0  0
    4.6259   -4.3044    6.9148 C   0  0  0  0  0  0  0  0  0  0  0  0
    4.7984   -4.7996    5.4760 C   0  0  0  0  0  0  0  0  0  0  0  0
    4.7656   -3.5076    4.6370 C   0  0  2  0  0  0  0  0  0  0  0  0
    5.5669   -3.6501    3.3316 C   0  0  0  0  0  0  0  0  0  0  0  0
    3.8870   -1.4914    0.7454 C   0  0  0  0  0  0  0  0  0  0  0  0
    2.8029   -1.6021   -0.1882 C   0  0  0  0  0  0  0  0  0  0  0  0
    2.3375   -0.7425   -0.9203 O   0  0  0  0  0  0  0  0  0  0  0  0
    2.2346   -2.9105   -0.2058 N   0  0  0  0  0  0  0  0  0  0  0  0
    1.4513   -3.0315   -0.8421 H   0  0  0  0  0  0  0  0  0  0  0  0
    2.0705   -7.0681   -0.8142 H   0  0  0  0  0  0  0  0  0  0  0  0
    3.6475   -6.2715   -0.5723 H   0  0  0  0  0  0  0  0  0  0  0  0
    2.4615   -5.5761   -1.7033 H   0  0  0  0  0  0  0  0  0  0  0  0
    2.1019   -5.8093    1.3664 H   0  0  0  0  0  0  0  0  0  0  0  0
    0.9009   -5.1136    0.2562 H   0  0  0  0  0  0  0  0  0  0  0  0
    6.0311   -0.6830    1.7678 H   0  0  0  0  0  0  0  0  0  0  0  0
    7.1941   -1.6437    2.6751 H   0  0  0  0  0  0  0  0  0  0  0  0
    4.6871   -0.3601    3.9205 H   0  0  0  0  0  0  0  0  0  0  0  0
    6.3204    0.3279    3.9370 H   0  0  0  0  0  0  0  0  0  0  0  0
    6.0949   -0.6592    6.0436 H   0  0  0  0  0  0  0  0  0  0  0  0
    7.1664   -1.7271    5.1380 H   0  0  0  0  0  0  0  0  0  0  0  0
    5.1642   -2.3104    7.6990 H   0  0  0  0  0  0  0  0  0  0  0  0
    6.5294   -3.2549    7.0575 H   0  0  0  0  0  0  0  0  0  0  0  0
    3.5669   -4.0740    7.1176 H   0  0  0  0  0  0  0  0  0  0  0  0
    4.9674   -5.0249    7.6735 H   0  0  0  0  0  0  0  0  0  0  0  0
    4.0339   -5.5240    5.1562 H   0  0  0  0  0  0  0  0  0  0  0  0
    5.7833   -5.2891    5.3676 H   0  0  0  0  0  0  0  0  0  0  0  0
    3.7207   -3.3098    4.3276 H   0  0  0  0  0  0  0  0  0  0  0  0
    5.2626   -4.5869    2.8514 H   0  0  0  0  0  0  0  0  0  0  0  0
    6.6470   -3.7111    3.5466 H   0  0  0  0  0  0  0  0  0  0  0  0
    4.3433   -0.5077    0.8161 H   0  0  0  0  0  0  0  0  0  0  0  0
  1  2  1  0
  1 21  1  0
  1 22  1  0
  1 23  1  0
  2  3  1  0
  2 24  1  0
  2 25  1  0
  3  4  2  0
  3 19  1  0
  4  5  1  0
  5  6  1  0
  5 16  2  0
  6  7  1  0
  6 15  1  0
  7  8  1  0
  7 26  1  0
  7 27  1  0
  8  9  1  0
  8 28  1  0
  8 29  1  0
  9 10  1  0
  9 30  1  0
  9 31  1  0
 10 11  1  0
 10 14  1  0
 11 12  1  0
 11 32  1  0
 11 33  1  0
 12 13  1  0
 12 34  1  0
 12 35  1  0
 13 14  1  0
 13 36  1  0
 13 37  1  0
 14 15  1  0
 14 38  1  6
 15 39  1  0
 15 40  1  0
 16 17  1  0
 16 41  1  0
 17 18  2  0
 17 19  1  0
 19 20  1  0
M  END

