
     RDKit          3D

 37 39  0  0  0  0  0  0  0  0999 V2000
    0.8909    0.0289   -0.6701 O   0  0  0  0  0  0  0  0  0  0  0  0
    2.0876   -0.1630   -0.5421 C   0  0  0  0  0  0  0  0  0  0  0  0
    2.6683   -1.5738   -0.5070 C   0  0  0  0  0  0  0  0  0  0  0  0
    1.6157   -2.6017   -0.1273 C   0  0  0  0  0  0  0  0  0  0  0  0
    1.3732   -2.4632    1.2612 O   0  0  0  0  0  0  0  0  0  0  0  0
    0.4082   -3.2160    1.8540 C   0  0  0  0  0  0  0  0  0  0  0  0
    0.2236   -3.0105    3.2330 C   0  0  0  0  0  0  0  0  0  0  0  0
   -0.7348   -3.7358    3.9350 C   0  0  0  0  0  0  0  0  0  0  0  0
   -1.5139   -4.6733    3.2552 C   0  0  0  0  0  0  0  0  0  0  0  0
   -2.4398   -5.3750    3.9323 F   0  0  0  0  0  0  0  0  0  0  0  0
   -1.3480   -4.8921    1.8935 C   0  0  0  0  0  0  0  0  0  0  0  0
   -0.3835   -4.1626    1.1864 C   0  0  0  0  0  0  0  0  0  0  0  0
    2.9415    0.9170   -0.4079 N   0  0  0  0  0  0  0  0  0  0  0  0
    2.3388    2.2676   -0.3133 C   0  0  0  0  0  0  0  0  0  0  0  0
    3.4671    3.1661    0.2312 C   0  0  0  0  0  0  0  0  0  0  0  0
    4.6983    2.3411   -0.0356 C   0  0  0  0  0  0  0  0  0  0  0  0
    6.0369    2.6901    0.0378 C   0  0  0  0  0  0  0  0  0  0  0  0
    6.3656    3.9430    0.3799 F   0  0  0  0  0  0  0  0  0  0  0  0
    7.0528    1.7716   -0.2385 C   0  0  0  0  0  0  0  0  0  0  0  0
    6.6655    0.4835   -0.5945 C   0  0  0  0  0  0  0  0  0  0  0  0
    7.6171   -0.4149   -0.8800 F   0  0  0  0  0  0  0  0  0  0  0  0
    5.3324    0.0730   -0.6839 C   0  0  0  0  0  0  0  0  0  0  0  0
    4.3456    1.0213   -0.3850 C   0  0  0  0  0  0  0  0  0  0  0  0
    3.5041   -1.6389    0.2038 H   0  0  0  0  0  0  0  0  0  0  0  0
    3.0670   -1.8146   -1.5077 H   0  0  0  0  0  0  0  0  0  0  0  0
    1.9832   -3.6206   -0.3511 H   0  0  0  0  0  0  0  0  0  0  0  0
    0.6923   -2.4205   -0.7020 H   0  0  0  0  0  0  0  0  0  0  0  0
    0.8479   -2.2692    3.7355 H   0  0  0  0  0  0  0  0  0  0  0  0
   -0.8891   -3.5852    5.0053 H   0  0  0  0  0  0  0  0  0  0  0  0
   -1.9736   -5.6315    1.3895 H   0  0  0  0  0  0  0  0  0  0  0  0
   -0.2655   -4.3419    0.1180 H   0  0  0  0  0  0  0  0  0  0  0  0
    1.4480    2.2243    0.3253 H   0  0  0  0  0  0  0  0  0  0  0  0
    2.0049    2.5870   -1.3151 H   0  0  0  0  0  0  0  0  0  0  0  0
    3.3489    3.3553    1.3126 H   0  0  0  0  0  0  0  0  0  0  0  0
    3.4939    4.1474   -0.2648 H   0  0  0  0  0  0  0  0  0  0  0  0
    8.1040    2.0538   -0.1852 H   0  0  0  0  0  0  0  0  0  0  0  0
    5.1291   -0.9458   -0.9990 H   0  0  0  0  0  0  0  0  0  0  0  0
  1  2  2  0
  2  3  1  0
  2 13  1  0
  3  4  1  0
  3 24  1  0
  3 25  1  0
  4  5  1  0
  4 26  1  0
  4 27  1  0
  5  6  1  0
  6  7  2  0
  6 12  1  0
  7  8  1  0
  7 28  1  0
  8  9  2  0
  8 29  1  0
  9 10  1  0
  9 11  1  0
 11 12  2  0
 11 30  1  0
 12 31  1  0
 13 14  1  0
 13 23  1  0
 14 15  1  0
 14 32  1  0
 14 33  1  0
 15 16  1  0
 15 34  1  0
 15 35  1  0
 16 17  1  0
 16 23  2  0
 17 18  1  0
 17 19  2  0
 19 20  1  0
 19 36  1  0
 20 21  1  0
 20 22  2  0
 22 23  1  0
 22 37  1  0
M  END

