
     RDKit          3D

 44 46  0  0  0  0  0  0  0  0999 V2000
    0.7069    0.1276    0.1262 C   0  0  0  0  0  0  0  0  0  0  0  0
    2.2135    0.2343   -0.1466 C   0  0  0  0  0  0  0  0  0  0  0  0
    2.7572   -0.9553   -0.9045 C   0  0  0  0  0  0  0  0  0  0  0  0
    3.2834   -0.8172   -2.2115 C   0  0  0  0  0  0  0  0  0  0  0  0
    3.7594   -1.9195   -2.9310 C   0  0  0  0  0  0  0  0  0  0  0  0
    4.2789   -1.7676   -4.3419 C   0  0  0  0  0  0  0  0  0  0  0  0
    4.0518   -2.5888   -5.2049 O   0  0  0  0  0  0  0  0  0  0  0  0
    5.0122   -0.6125   -4.5350 N   0  0  0  0  0  0  0  0  0  0  0  0
    5.6024   -0.1607   -5.7138 C   0  0  0  0  0  0  0  0  0  0  0  0
    6.5342    0.7823   -5.6458 N   0  0  0  0  0  0  0  0  0  0  0  0
    6.8209    0.9714   -6.9533 N   0  0  0  0  0  0  0  0  0  0  0  0
    7.5186    1.6537   -7.2275 H   0  0  0  0  0  0  0  0  0  0  0  0
    6.0777    0.1518   -7.7344 C   0  0  0  0  0  0  0  0  0  0  0  0
    6.1691    0.0873   -9.2279 C   0  0  0  0  0  0  0  0  0  0  0  0
    4.7968    0.0336   -9.9073 C   0  0  0  0  0  0  0  0  0  0  0  0
    5.2855   -0.5774   -6.9637 N   0  0  0  0  0  0  0  0  0  0  0  0
    3.6772   -3.1726   -2.2871 C   0  0  0  0  0  0  0  0  0  0  0  0
    4.0166   -4.5676   -2.4989 C   0  0  0  0  0  0  0  0  0  0  0  0
    4.5789   -5.2764   -3.7119 C   0  0  1  0  0  0  0  0  0  0  0  0
    5.4612   -6.4691   -3.3178 C   0  0  0  0  0  0  0  0  0  0  0  0
    3.4335   -5.7036   -4.6495 C   0  0  0  0  0  0  0  0  0  0  0  0
    3.7169   -5.2634   -1.4312 N   0  0  0  0  0  0  0  0  0  0  0  0
    3.1762   -4.4105   -0.4730 O   0  0  0  0  0  0  0  0  0  0  0  0
    3.1514   -3.1658   -0.9783 C   0  0  0  0  0  0  0  0  0  0  0  0
    2.7001   -2.1384   -0.2850 N   0  0  0  0  0  0  0  0  0  0  0  0
    0.3575    0.9789    0.7310 H   0  0  0  0  0  0  0  0  0  0  0  0
    0.4842   -0.8010    0.6727 H   0  0  0  0  0  0  0  0  0  0  0  0
    0.1296    0.1167   -0.8123 H   0  0  0  0  0  0  0  0  0  0  0  0
    2.7502    0.2931    0.8158 H   0  0  0  0  0  0  0  0  0  0  0  0
    2.4391    1.1603   -0.6990 H   0  0  0  0  0  0  0  0  0  0  0  0
    3.2845    0.1734   -2.6703 H   0  0  0  0  0  0  0  0  0  0  0  0
    5.2850   -0.0840   -3.7137 H   0  0  0  0  0  0  0  0  0  0  0  0
    6.7472   -0.8146   -9.4976 H   0  0  0  0  0  0  0  0  0  0  0  0
    6.7551    0.9485   -9.5907 H   0  0  0  0  0  0  0  0  0  0  0  0
    4.2129   -0.8125   -9.5171 H   0  0  0  0  0  0  0  0  0  0  0  0
    4.9072   -0.0866  -10.9956 H   0  0  0  0  0  0  0  0  0  0  0  0
    4.2217    0.9536   -9.7188 H   0  0  0  0  0  0  0  0  0  0  0  0
    5.1906   -4.5447   -4.2594 H   0  0  0  0  0  0  0  0  0  0  0  0
    4.8821   -7.2283   -2.7714 H   0  0  0  0  0  0  0  0  0  0  0  0
    6.2962   -6.1593   -2.6703 H   0  0  0  0  0  0  0  0  0  0  0  0
    5.8823   -6.9387   -4.2206 H   0  0  0  0  0  0  0  0  0  0  0  0
    2.7705   -6.4259   -4.1464 H   0  0  0  0  0  0  0  0  0  0  0  0
    3.8439   -6.1819   -5.5531 H   0  0  0  0  0  0  0  0  0  0  0  0
    2.8439   -4.8336   -4.9689 H   0  0  0  0  0  0  0  0  0  0  0  0
  1  2  1  0
  1 26  1  0
  1 27  1  0
  1 28  1  0
  2  3  1  0
  2 29  1  0
  2 30  1  0
  3  4  2  0
  3 25  1  0
  4  5  1  0
  4 31  1  0
  5  6  1  0
  5 17  2  0
  6  7  2  0
  6  8  1  0
  8  9  1  0
  8 32  1  0
  9 10  2  0
  9 16  1  0
 10 11  1  0
 11 12  1  0
 11 13  1  0
 13 14  1  0
 13 16  2  0
 14 15  1  0
 14 33  1  0
 14 34  1  0
 15 35  1  0
 15 36  1  0
 15 37  1  0
 17 18  1  0
 17 24  1  0
 18 19  1  0
 18 22  2  0
 19 20  1  0
 19 21  1  0
 19 38  1  6
 20 39  1  0
 20 40  1  0
 20 41  1  0
 21 42  1  0
 21 43  1  0
 21 44  1  0
 22 23  1  0
 23 24  1  0
 24 25  2  0
M  END

