
     RDKit          3D

 67 70  0  0  0  0  0  0  0  0999 V2000
    3.7132    0.7725   -1.4259 C   0  0  0  0  0  0  0  0  0  0  0  0
    3.0429   -0.3425   -0.8869 O   0  0  0  0  0  0  0  0  0  0  0  0
    3.7030   -1.1629   -0.0280 C   0  0  0  0  0  0  0  0  0  0  0  0
    2.9703   -2.2520    0.4767 C   0  0  0  0  0  0  0  0  0  0  0  0
    3.5609   -3.1440    1.3647 C   0  0  0  0  0  0  0  0  0  0  0  0
    4.8963   -2.9873    1.7839 C   0  0  0  0  0  0  0  0  0  0  0  0
    5.5361   -3.9892    2.7177 C   0  0  0  0  0  0  0  0  0  0  0  0
    6.0115   -5.2635    1.9890 C   0  0  0  0  0  0  0  0  0  0  0  0
    6.5953   -6.2578    2.8723 N   0  0  0  0  0  0  0  0  0  0  0  0
    5.8359   -7.2000    3.5088 C   0  0  0  0  0  0  0  0  0  0  0  0
    4.6353   -7.3120    3.3167 O   0  0  0  0  0  0  0  0  0  0  0  0
    6.5932   -8.0890    4.4935 C   0  0  0  0  0  0  0  0  0  0  0  0
    5.9830   -9.4870    4.5840 C   0  0  0  0  0  0  0  0  0  0  0  0
    6.6044  -10.3391    5.6515 C   0  0  0  0  0  0  0  0  0  0  0  0
    7.6185  -10.0546    6.5495 C   0  0  0  0  0  0  0  0  0  0  0  0
    7.8816  -11.2319    7.2989 C   0  0  0  0  0  0  0  0  0  0  0  0
    7.0241  -12.2261    6.8536 C   0  0  0  0  0  0  0  0  0  0  0  0
    6.8995  -13.6045    7.3553 C   0  0  0  0  0  0  0  0  0  0  0  0
    5.6580  -14.2517    7.5244 C   0  0  0  0  0  0  0  0  0  0  0  0
    5.5787  -15.5433    8.0468 C   0  0  0  0  0  0  0  0  0  0  0  0
    6.7497  -16.1994    8.4180 C   0  0  0  0  0  0  0  0  0  0  0  0
    6.6771  -17.4422    8.9221 F   0  0  0  0  0  0  0  0  0  0  0  0
    7.9949  -15.5920    8.2754 C   0  0  0  0  0  0  0  0  0  0  0  0
    8.0617  -14.3053    7.7404 C   0  0  0  0  0  0  0  0  0  0  0  0
    6.2358  -11.6668    5.8434 N   0  0  0  0  0  0  0  0  0  0  0  0
    5.3215  -12.3737    5.0030 C   0  0  0  0  0  0  0  0  0  0  0  0
    3.9542  -12.0735    5.0203 C   0  0  0  0  0  0  0  0  0  0  0  0
    3.0525  -12.7513    4.1990 C   0  0  0  0  0  0  0  0  0  0  0  0
    3.5170  -13.7657    3.3415 C   0  0  0  0  0  0  0  0  0  0  0  0
    2.6772  -14.5019    2.4873 N   0  0  0  0  0  0  0  0  0  0  0  0
    1.3073  -14.4188    2.3312 C   0  0  0  0  0  0  0  0  0  0  0  0
    0.7391  -15.3535    1.2735 C   0  0  0  0  0  0  0  0  0  0  0  0
    0.5976  -13.6570    2.9588 O   0  0  0  0  0  0  0  0  0  0  0  0
    4.8916  -14.0687    3.3280 C   0  0  0  0  0  0  0  0  0  0  0  0
    5.7840  -13.3782    4.1428 C   0  0  0  0  0  0  0  0  0  0  0  0
    5.6111   -1.8991    1.2712 C   0  0  0  0  0  0  0  0  0  0  0  0
    5.0339   -0.9887    0.3765 C   0  0  0  0  0  0  0  0  0  0  0  0
    2.9957    1.2836   -2.0822 H   0  0  0  0  0  0  0  0  0  0  0  0
    4.5944    0.4759   -2.0240 H   0  0  0  0  0  0  0  0  0  0  0  0
    4.0415    1.4770   -0.6398 H   0  0  0  0  0  0  0  0  0  0  0  0
    1.9330   -2.3712    0.1568 H   0  0  0  0  0  0  0  0  0  0  0  0
    2.9718   -3.9819    1.7498 H   0  0  0  0  0  0  0  0  0  0  0  0
    4.8175   -4.2951    3.4953 H   0  0  0  0  0  0  0  0  0  0  0  0
    6.3944   -3.5280    3.2352 H   0  0  0  0  0  0  0  0  0  0  0  0
    6.7484   -5.0014    1.2126 H   0  0  0  0  0  0  0  0  0  0  0  0
    5.1541   -5.7355    1.4880 H   0  0  0  0  0  0  0  0  0  0  0  0
    7.5742   -6.1772    3.1188 H   0  0  0  0  0  0  0  0  0  0  0  0
    6.5345   -7.5958    5.4805 H   0  0  0  0  0  0  0  0  0  0  0  0
    7.6634   -8.1390    4.2325 H   0  0  0  0  0  0  0  0  0  0  0  0
    6.0732   -9.9881    3.6029 H   0  0  0  0  0  0  0  0  0  0  0  0
    4.8989   -9.3676    4.7402 H   0  0  0  0  0  0  0  0  0  0  0  0
    8.1184   -9.0949    6.6593 H   0  0  0  0  0  0  0  0  0  0  0  0
    8.5895  -11.3391    8.1185 H   0  0  0  0  0  0  0  0  0  0  0  0
    4.7348  -13.7349    7.2610 H   0  0  0  0  0  0  0  0  0  0  0  0
    4.6178  -16.0438    8.1821 H   0  0  0  0  0  0  0  0  0  0  0  0
    8.8946  -16.1352    8.5714 H   0  0  0  0  0  0  0  0  0  0  0  0
    9.0369  -13.8333    7.6036 H   0  0  0  0  0  0  0  0  0  0  0  0
    3.5848  -11.2994    5.6962 H   0  0  0  0  0  0  0  0  0  0  0  0
    1.9917  -12.5141    4.2173 H   0  0  0  0  0  0  0  0  0  0  0  0
    3.1510  -15.1863    1.9105 H   0  0  0  0  0  0  0  0  0  0  0  0
    1.4305  -16.1476    0.9547 H   0  0  0  0  0  0  0  0  0  0  0  0
    0.4544  -14.7577    0.3914 H   0  0  0  0  0  0  0  0  0  0  0  0
   -0.1800  -15.8075    1.6696 H   0  0  0  0  0  0  0  0  0  0  0  0
    5.2675  -14.8545    2.6658 H   0  0  0  0  0  0  0  0  0  0  0  0
    6.8482  -13.6196    4.1194 H   0  0  0  0  0  0  0  0  0  0  0  0
    6.6496   -1.7439    1.5801 H   0  0  0  0  0  0  0  0  0  0  0  0
    5.6291   -0.1522    0.0094 H   0  0  0  0  0  0  0  0  0  0  0  0
  1  2  1  0
  1 38  1  0
  1 39  1  0
  1 40  1  0
  2  3  1  0
  3  4  2  0
  3 37  1  0
  4  5  1  0
  4 41  1  0
  5  6  2  0
  5 42  1  0
  6  7  1  0
  6 36  1  0
  7  8  1  0
  7 43  1  0
  7 44  1  0
  8  9  1  0
  8 45  1  0
  8 46  1  0
  9 10  1  0
  9 47  1  0
 10 11  2  0
 10 12  1  0
 12 13  1  0
 12 48  1  0
 12 49  1  0
 13 14  1  0
 13 50  1  0
 13 51  1  0
 14 15  2  0
 14 25  1  0
 15 16  1  0
 15 52  1  0
 16 17  2  0
 16 53  1  0
 17 18  1  0
 17 25  1  0
 18 19  2  0
 18 24  1  0
 19 20  1  0
 19 54  1  0
 20 21  2  0
 20 55  1  0
 21 22  1  0
 21 23  1  0
 23 24  2  0
 23 56  1  0
 24 57  1  0
 25 26  1  0
 26 27  2  0
 26 35  1  0
 27 28  1  0
 27 58  1  0
 28 29  2  0
 28 59  1  0
 29 30  1  0
 29 34  1  0
 30 31  1  0
 30 60  1  0
 31 32  1  0
 31 33  2  0
 32 61  1  0
 32 62  1  0
 32 63  1  0
 34 35  2  0
 34 64  1  0
 35 65  1  0
 36 37  2  0
 36 66  1  0
 37 67  1  0
M  END

