
     RDKit          3D

 52 55  0  0  0  0  0  0  0  0999 V2000
    1.6447    0.5400    1.9731 C   0  0  0  0  0  0  0  0  0  0  0  0
    2.1409    0.4467    0.5260 C   0  0  1  0  0  0  0  0  0  0  0  0
    2.9122   -0.3355    0.4598 H   0  0  0  0  0  0  0  0  0  0  0  0
    1.0007    0.0972   -0.4468 C   0  0  0  0  0  0  0  0  0  0  0  0
    1.4553   -0.1378   -1.8974 C   0  0  0  0  0  0  0  0  0  0  0  0
    0.3176   -0.5097   -2.8232 C   0  0  0  0  0  0  0  0  0  0  0  0
   -0.4347    0.4799   -3.4770 C   0  0  0  0  0  0  0  0  0  0  0  0
   -1.5094    0.1411   -4.3039 C   0  0  0  0  0  0  0  0  0  0  0  0
   -1.8531   -1.2007   -4.4939 C   0  0  0  0  0  0  0  0  0  0  0  0
   -1.1125   -2.1977   -3.8520 C   0  0  0  0  0  0  0  0  0  0  0  0
   -0.0391   -1.8529   -3.0257 C   0  0  0  0  0  0  0  0  0  0  0  0
    2.8284    1.6752    0.1379 N   0  0  0  0  0  0  0  0  0  0  0  0
    4.1433    1.7207   -0.2430 C   0  0  0  0  0  0  0  0  0  0  0  0
    4.8300    0.7138   -0.3270 O   0  0  0  0  0  0  0  0  0  0  0  0
    4.7084    3.1265   -0.5402 C   0  0  2  0  0  0  0  0  0  0  0  0
    4.7738    3.9653    0.7670 C   0  0  0  0  0  0  0  0  0  0  0  0
    5.3847    5.3519    0.4830 C   0  0  1  0  0  0  0  0  0  0  0  0
    6.8097    5.1821   -0.0777 C   0  0  0  0  0  0  0  0  0  0  0  0
    6.7519    4.3691   -1.3853 C   0  0  2  0  0  0  0  0  0  0  0  0
    5.8839    5.1143   -2.4172 C   0  0  0  0  0  0  0  0  0  0  0  0
    4.4582    5.2830   -1.8586 C   0  0  2  0  0  0  0  0  0  0  0  0
    4.5121    6.0939   -0.5486 C   0  0  0  0  0  0  0  0  0  0  0  0
    3.8457    3.8961   -1.5766 C   0  0  0  0  0  0  0  0  0  0  0  0
    6.1411    2.9844   -1.1032 C   0  0  0  0  0  0  0  0  0  0  0  0
    1.1723   -0.4037    2.2884 H   0  0  0  0  0  0  0  0  0  0  0  0
    0.8930    1.3406    2.0869 H   0  0  0  0  0  0  0  0  0  0  0  0
    2.4780    0.7536    2.6597 H   0  0  0  0  0  0  0  0  0  0  0  0
    0.2386    0.8989   -0.4240 H   0  0  0  0  0  0  0  0  0  0  0  0
    0.4924   -0.8089   -0.0748 H   0  0  0  0  0  0  0  0  0  0  0  0
    2.2206   -0.9313   -1.9087 H   0  0  0  0  0  0  0  0  0  0  0  0
    1.9505    0.7737   -2.2692 H   0  0  0  0  0  0  0  0  0  0  0  0
   -0.1691    1.5329   -3.3409 H   0  0  0  0  0  0  0  0  0  0  0  0
   -2.0778    0.9284   -4.8064 H   0  0  0  0  0  0  0  0  0  0  0  0
   -2.6908   -1.4683   -5.1431 H   0  0  0  0  0  0  0  0  0  0  0  0
   -1.3686   -3.2504   -3.9987 H   0  0  0  0  0  0  0  0  0  0  0  0
    0.5386   -2.6409   -2.5330 H   0  0  0  0  0  0  0  0  0  0  0  0
    2.3100    2.5433    0.2018 H   0  0  0  0  0  0  0  0  0  0  0  0
    5.3772    3.4271    1.5177 H   0  0  0  0  0  0  0  0  0  0  0  0
    3.7646    4.0838    1.1985 H   0  0  0  0  0  0  0  0  0  0  0  0
    5.4201    5.9292    1.4228 H   0  0  0  0  0  0  0  0  0  0  0  0
    7.4493    4.6681    0.6604 H   0  0  0  0  0  0  0  0  0  0  0  0
    7.2645    6.1712   -0.2609 H   0  0  0  0  0  0  0  0  0  0  0  0
    7.7719    4.2386   -1.7849 H   0  0  0  0  0  0  0  0  0  0  0  0
    5.8557    4.5518   -3.3664 H   0  0  0  0  0  0  0  0  0  0  0  0
    6.3203    6.1024   -2.6444 H   0  0  0  0  0  0  0  0  0  0  0  0
    3.8291    5.8108   -2.5958 H   0  0  0  0  0  0  0  0  0  0  0  0
    3.4929    6.2420   -0.1495 H   0  0  0  0  0  0  0  0  0  0  0  0
    4.9255    7.0987   -0.7422 H   0  0  0  0  0  0  0  0  0  0  0  0
    3.7775    3.3108   -2.5096 H   0  0  0  0  0  0  0  0  0  0  0  0
    2.8124    4.0262   -1.2095 H   0  0  0  0  0  0  0  0  0  0  0  0
    6.7579    2.4219   -0.3861 H   0  0  0  0  0  0  0  0  0  0  0  0
    6.1142    2.3768   -2.0219 H   0  0  0  0  0  0  0  0  0  0  0  0
  1  2  1  0
  1 25  1  0
  1 26  1  0
  1 27  1  0
  2  3  1  1
  2  4  1  0
  2 12  1  0
  4  5  1  0
  4 28  1  0
  4 29  1  0
  5  6  1  0
  5 30  1  0
  5 31  1  0
  6  7  2  0
  6 11  1  0
  7  8  1  0
  7 32  1  0
  8  9  2  0
  8 33  1  0
  9 10  1  0
  9 34  1  0
 10 11  2  0
 10 35  1  0
 11 36  1  0
 12 13  1  0
 12 37  1  0
 13 14  2  0
 15 13  1  1
 15 16  1  0
 15 23  1  0
 15 24  1  0
 16 17  1  0
 16 38  1  0
 16 39  1  0
 17 18  1  0
 17 22  1  0
 17 40  1  1
 18 19  1  0
 18 41  1  0
 18 42  1  0
 19 20  1  0
 19 24  1  0
 19 43  1  6
 20 21  1  0
 20 44  1  0
 20 45  1  0
 21 22  1  0
 21 23  1  0
 21 46  1  6
 22 47  1  0
 22 48  1  0
 23 49  1  0
 23 50  1  0
 24 51  1  0
 24 52  1  0
M  END

