
     RDKit          3D

 32 33  0  0  0  0  0  0  0  0999 V2000
    1.0276   -0.1354   -0.1463 C   0  0  0  0  0  0  0  0  0  0  0  0
    2.5273    0.1009    0.0044 C   0  0  1  0  0  0  0  0  0  0  0  0
    2.9062    1.2229    0.9938 C   0  0  0  0  0  0  0  0  0  0  0  0
    4.3704    0.9379    1.4202 C   0  0  0  0  0  0  0  0  0  0  0  0
    4.7088   -0.4566    0.8412 C   0  0  0  0  0  0  0  0  0  0  0  0
    3.3370   -1.1141    0.5511 C   0  0  1  0  0  0  0  0  0  0  0  0
    2.6791   -1.4536    1.7643 O   0  0  0  0  0  0  0  0  0  0  0  0
    3.4556   -2.3231   -0.4039 C   0  0  0  0  0  0  0  0  0  0  0  0
    3.4204   -2.0860   -1.7906 C   0  0  0  0  0  0  0  0  0  0  0  0
    3.5465   -3.0995   -2.7404 C   0  0  0  0  0  0  0  0  0  0  0  0
    3.7208   -4.4172   -2.3262 C   0  0  0  0  0  0  0  0  0  0  0  0
    3.7801   -4.6887   -0.9618 C   0  0  0  0  0  0  0  0  0  0  0  0
    3.6605   -3.6715    0.0003 C   0  0  0  0  0  0  0  0  0  0  0  0
    3.7439   -4.1460    1.4416 C   0  0  1  0  0  0  0  0  0  0  0  0
    4.5373   -3.3490    2.2140 F   0  0  0  0  0  0  0  0  0  0  0  0
    2.5518   -4.2151    2.0485 F   0  0  0  0  0  0  0  0  0  0  0  0
    4.2871   -5.3735    1.5297 F   0  0  0  0  0  0  0  0  0  0  0  0
    0.5160    0.7915   -0.4526 H   0  0  0  0  0  0  0  0  0  0  0  0
    0.5962   -0.4695    0.8086 H   0  0  0  0  0  0  0  0  0  0  0  0
    0.8090   -0.9044   -0.9043 H   0  0  0  0  0  0  0  0  0  0  0  0
    2.9494    0.3792   -0.9745 H   0  0  0  0  0  0  0  0  0  0  0  0
    2.2383    1.1769    1.8665 H   0  0  0  0  0  0  0  0  0  0  0  0
    2.7806    2.2173    0.5376 H   0  0  0  0  0  0  0  0  0  0  0  0
    4.4672    0.9471    2.5162 H   0  0  0  0  0  0  0  0  0  0  0  0
    5.0695    1.6984    1.0393 H   0  0  0  0  0  0  0  0  0  0  0  0
    5.3220   -1.0808    1.5087 H   0  0  0  0  0  0  0  0  0  0  0  0
    5.2639   -0.3660   -0.1058 H   0  0  0  0  0  0  0  0  0  0  0  0
    3.3211   -1.8186    2.3839 H   0  0  0  0  0  0  0  0  0  0  0  0
    3.2842   -1.0670   -2.1499 H   0  0  0  0  0  0  0  0  0  0  0  0
    3.5037   -2.8515   -3.8040 H   0  0  0  0  0  0  0  0  0  0  0  0
    3.8156   -5.2285   -3.0514 H   0  0  0  0  0  0  0  0  0  0  0  0
    3.9315   -5.7149   -0.6285 H   0  0  0  0  0  0  0  0  0  0  0  0
  1  2  1  0
  1 18  1  0
  1 19  1  0
  1 20  1  0
  2  3  1  0
  2  6  1  0
  2 21  1  6
  3  4  1  0
  3 22  1  0
  3 23  1  0
  4  5  1  0
  4 24  1  0
  4 25  1  0
  5  6  1  0
  5 26  1  0
  5 27  1  0
  6  7  1  1
  6  8  1  0
  7 28  1  0
  8  9  2  0
  8 13  1  0
  9 10  1  0
  9 29  1  0
 10 11  2  0
 10 30  1  0
 11 12  1  0
 11 31  1  0
 12 13  2  0
 12 32  1  0
 13 14  1  0
 14 15  1  1
 14 16  1  0
 14 17  1  0
M  END

