
     RDKit          3D

 40 41  0  0  0  0  0  0  0  0999 V2000
    0.9352    0.0471    1.8263 C   0  0  0  0  0  0  0  0  0  0  0  0
    2.2348    0.0505    1.2968 O   0  0  0  0  0  0  0  0  0  0  0  0
    2.8426    1.3154    1.2822 C   0  0  0  0  0  0  0  0  0  0  0  0
    4.2390    1.1708    0.6793 C   0  0  1  0  0  0  0  0  0  0  0  0
    4.2099    0.6813   -0.7633 C   0  0  0  0  0  0  0  0  0  0  0  0
    4.8129    2.4749    0.7843 O   0  0  0  0  0  0  0  0  0  0  0  0
    6.1491    2.6856    0.7885 C   0  0  0  0  0  0  0  0  0  0  0  0
    7.1081    1.6385    0.7795 C   0  0  0  0  0  0  0  0  0  0  0  0
    8.4559    1.9251    0.8020 C   0  0  0  0  0  0  0  0  0  0  0  0
    8.9297    3.2627    0.8327 C   0  0  0  0  0  0  0  0  0  0  0  0
   10.3194    3.5683    0.8548 C   0  0  0  0  0  0  0  0  0  0  0  0
   10.7572    4.8748    0.8849 C   0  0  0  0  0  0  0  0  0  0  0  0
    9.8135    5.9325    0.8937 C   0  0  0  0  0  0  0  0  0  0  0  0
    8.4592    5.6690    0.8726 C   0  0  0  0  0  0  0  0  0  0  0  0
    7.9736    4.3317    0.8409 C   0  0  0  0  0  0  0  0  0  0  0  0
    6.5681    4.0264    0.8167 C   0  0  0  0  0  0  0  0  0  0  0  0
    5.5923    5.0684    0.8248 C   0  0  0  0  0  0  0  0  0  0  0  0
    4.7693    5.9650    0.8413 C   0  0  0  0  0  0  0  0  0  0  0  0
    3.7657    7.0281    0.8180 C   0  0  0  0  0  0  0  0  0  0  0  0
    3.3199    7.3577   -0.6110 C   0  0  0  0  0  0  0  0  0  0  0  0
    2.0739    8.6675   -0.6141 Cl  0  0  0  0  0  0  0  0  0  0  0  0
    0.5601   -0.9860    1.7904 H   0  0  0  0  0  0  0  0  0  0  0  0
    0.2484    0.6933    1.2430 H   0  0  0  0  0  0  0  0  0  0  0  0
    0.9161    0.3939    2.8793 H   0  0  0  0  0  0  0  0  0  0  0  0
    2.9345    1.7340    2.3048 H   0  0  0  0  0  0  0  0  0  0  0  0
    2.2552    2.0419    0.6823 H   0  0  0  0  0  0  0  0  0  0  0  0
    4.7944    0.4577    1.3132 H   0  0  0  0  0  0  0  0  0  0  0  0
    3.6777    1.4083   -1.3970 H   0  0  0  0  0  0  0  0  0  0  0  0
    3.6806   -0.2811   -0.8116 H   0  0  0  0  0  0  0  0  0  0  0  0
    5.2239    0.5488   -1.1688 H   0  0  0  0  0  0  0  0  0  0  0  0
    6.7834    0.5989    0.7557 H   0  0  0  0  0  0  0  0  0  0  0  0
    9.1816    1.1074    0.7945 H   0  0  0  0  0  0  0  0  0  0  0  0
   11.0364    2.7425    0.8480 H   0  0  0  0  0  0  0  0  0  0  0  0
   11.8267    5.0984    0.9022 H   0  0  0  0  0  0  0  0  0  0  0  0
   10.1634    6.9679    0.9178 H   0  0  0  0  0  0  0  0  0  0  0  0
    7.7376    6.4875    0.8799 H   0  0  0  0  0  0  0  0  0  0  0  0
    4.1624    7.9433    1.2900 H   0  0  0  0  0  0  0  0  0  0  0  0
    2.8822    6.7319    1.4093 H   0  0  0  0  0  0  0  0  0  0  0  0
    2.8727    6.4820   -1.0997 H   0  0  0  0  0  0  0  0  0  0  0  0
    4.1629    7.7094   -1.2203 H   0  0  0  0  0  0  0  0  0  0  0  0
  1  2  1  0
  1 22  1  0
  1 23  1  0
  1 24  1  0
  2  3  1  0
  3  4  1  0
  3 25  1  0
  3 26  1  0
  4  5  1  0
  4  6  1  0
  4 27  1  1
  5 28  1  0
  5 29  1  0
  5 30  1  0
  6  7  1  0
  7  8  2  0
  7 16  1  0
  8  9  1  0
  8 31  1  0
  9 10  2  0
  9 32  1  0
 10 11  1  0
 10 15  1  0
 11 12  2  0
 11 33  1  0
 12 13  1  0
 12 34  1  0
 13 14  2  0
 13 35  1  0
 14 15  1  0
 14 36  1  0
 15 16  2  0
 16 17  1  0
 17 18  3  0
 18 19  1  0
 19 20  1  0
 19 37  1  0
 19 38  1  0
 20 21  1  0
 20 39  1  0
 20 40  1  0
M  END

