
     RDKit          3D

 35 35  0  0  0  0  0  0  0  0999 V2000
    1.0925    1.2295   -6.2609 C   0  0  0  0  0  0  0  0  0  0  0  0
    2.5089    1.5444   -5.8333 C   0  0  0  0  0  0  0  0  0  0  0  0
    2.9532    2.6804   -5.7286 O   0  0  0  0  0  0  0  0  0  0  0  0
    3.2898    0.4633   -5.5625 N   0  0  0  0  0  0  0  0  0  0  0  0
    4.5918    0.6653   -5.1697 N   0  0  0  0  0  0  0  0  0  0  0  0
    5.3744   -0.4228   -4.9101 C   0  0  0  0  0  0  0  0  0  0  0  0
    4.9174   -1.5586   -5.0266 O   0  0  0  0  0  0  0  0  0  0  0  0
    6.7567   -0.0984   -4.4958 C   0  0  0  0  0  0  0  0  0  0  0  0
    7.6251   -1.0895   -4.2085 C   0  0  0  0  0  0  0  0  0  0  0  0
    9.0193   -0.9756   -3.7863 C   0  0  0  0  0  0  0  0  0  0  0  0
    9.6835    0.2548   -3.6027 C   0  0  0  0  0  0  0  0  0  0  0  0
   11.0109    0.3220   -3.1946 C   0  0  0  0  0  0  0  0  0  0  0  0
   11.7384   -0.8641   -2.9662 C   0  0  0  0  0  0  0  0  0  0  0  0
   13.0790   -0.8607   -2.5490 N   0  0  0  0  0  0  0  0  0  0  0  0
   14.2390    0.3516   -2.7490 S   0  0  1  0  0  0  0  0  0  0  0  0
   14.4870    0.4595   -4.5296 C   0  0  0  0  0  0  0  0  0  0  0  0
   13.6771    1.6264   -2.3124 O   0  0  0  0  0  0  0  0  0  0  0  0
   15.4433   -0.2131   -2.1489 O   0  0  0  0  0  0  0  0  0  0  0  0
   11.0923   -2.1010   -3.1441 C   0  0  0  0  0  0  0  0  0  0  0  0
    9.7594   -2.1490   -3.5386 C   0  0  0  0  0  0  0  0  0  0  0  0
    0.9208    1.6561   -7.2609 H   0  0  0  0  0  0  0  0  0  0  0  0
    0.3953    1.7279   -5.5706 H   0  0  0  0  0  0  0  0  0  0  0  0
    0.8723    0.1525   -6.2840 H   0  0  0  0  0  0  0  0  0  0  0  0
    3.0356   -0.5198   -5.6166 H   0  0  0  0  0  0  0  0  0  0  0  0
    4.8505    1.6467   -5.1124 H   0  0  0  0  0  0  0  0  0  0  0  0
    7.0365    0.9575   -4.4339 H   0  0  0  0  0  0  0  0  0  0  0  0
    7.2299   -2.1069   -4.3058 H   0  0  0  0  0  0  0  0  0  0  0  0
    9.1474    1.1918   -3.7685 H   0  0  0  0  0  0  0  0  0  0  0  0
   11.4865    1.2876   -3.0256 H   0  0  0  0  0  0  0  0  0  0  0  0
   13.5142   -1.7530   -2.3323 H   0  0  0  0  0  0  0  0  0  0  0  0
   13.5300    0.6953   -5.0136 H   0  0  0  0  0  0  0  0  0  0  0  0
   14.8970   -0.4938   -4.8863 H   0  0  0  0  0  0  0  0  0  0  0  0
   15.2059    1.2754   -4.6864 H   0  0  0  0  0  0  0  0  0  0  0  0
   11.6431   -3.0293   -2.9691 H   0  0  0  0  0  0  0  0  0  0  0  0
    9.2761   -3.1211   -3.6669 H   0  0  0  0  0  0  0  0  0  0  0  0
  1  2  1  0
  1 21  1  0
  1 22  1  0
  1 23  1  0
  2  3  2  0
  2  4  1  0
  4  5  1  0
  4 24  1  0
  5  6  1  0
  5 25  1  0
  6  7  2  0
  6  8  1  0
  8  9  2  0
  8 26  1  0
  9 10  1  0
  9 27  1  0
 10 11  2  0
 10 20  1  0
 11 12  1  0
 11 28  1  0
 12 13  2  0
 12 29  1  0
 13 14  1  0
 13 19  1  0
 15 14  1  6
 14 30  1  0
 15 16  1  0
 15 17  2  0
 15 18  2  0
 16 31  1  0
 16 32  1  0
 16 33  1  0
 19 20  2  0
 19 34  1  0
 20 35  1  0
M  END

