
     RDKit          3D

 35 36  0  0  0  0  0  0  0  0999 V2000
    1.4315   -1.1379   -1.2502 C   0  0  0  0  0  0  0  0  0  0  0  0
    1.9098   -0.2335   -0.1137 C   0  0  0  0  0  0  0  0  0  0  0  0
    2.7647    0.8563   -0.5783 N   0  0  0  0  0  0  0  0  0  0  0  0
    2.0783    1.9593   -1.2498 C   0  0  0  0  0  0  0  0  0  0  0  0
    1.4709    2.9724   -0.2611 C   0  0  0  0  0  0  0  0  0  0  0  0
    2.4417    3.4823    0.7116 N   0  0  0  0  0  0  0  0  0  0  0  0
    3.3169    4.5439    0.2263 C   0  0  0  0  0  0  0  0  0  0  0  0
    3.8307    5.3757    1.3621 C   0  0  0  0  0  0  0  0  0  0  0  0
    5.0228    5.8843    1.4564 N   0  0  0  0  0  0  0  0  0  0  0  0
    5.0113    6.6053    2.6241 N   0  0  0  0  0  0  0  0  0  0  0  0
    6.1771    7.3128    3.0877 C   0  0  0  0  0  0  0  0  0  0  0  0
    3.7978    6.5375    3.2945 C   0  0  0  0  0  0  0  0  0  0  0  0
    3.4758    7.0396    4.3530 O   0  0  0  0  0  0  0  0  0  0  0  0
    3.0458    5.7366    2.4307 N   0  0  0  0  0  0  0  0  0  0  0  0
    2.1099    5.3965    2.6130 H   0  0  0  0  0  0  0  0  0  0  0  0
    3.1389    2.3755    1.3820 C   0  0  0  0  0  0  0  0  0  0  0  0
    3.7376    1.3661    0.3854 C   0  0  0  0  0  0  0  0  0  0  0  0
    0.8412   -1.9788   -0.8518 H   0  0  0  0  0  0  0  0  0  0  0  0
    2.2909   -1.5420   -1.8074 H   0  0  0  0  0  0  0  0  0  0  0  0
    0.7897   -0.5997   -1.9662 H   0  0  0  0  0  0  0  0  0  0  0  0
    2.5071   -0.8393    0.5875 H   0  0  0  0  0  0  0  0  0  0  0  0
    1.0274    0.1139    0.4693 H   0  0  0  0  0  0  0  0  0  0  0  0
    1.2952    1.5609   -1.9138 H   0  0  0  0  0  0  0  0  0  0  0  0
    2.8052    2.4767   -1.9038 H   0  0  0  0  0  0  0  0  0  0  0  0
    0.6529    2.4888    0.3029 H   0  0  0  0  0  0  0  0  0  0  0  0
    1.0220    3.8217   -0.8029 H   0  0  0  0  0  0  0  0  0  0  0  0
    2.7170    5.1906   -0.4386 H   0  0  0  0  0  0  0  0  0  0  0  0
    4.1961    4.2185   -0.3644 H   0  0  0  0  0  0  0  0  0  0  0  0
    7.0201    6.6216    3.2489 H   0  0  0  0  0  0  0  0  0  0  0  0
    5.9106    7.7913    4.0397 H   0  0  0  0  0  0  0  0  0  0  0  0
    6.4840    8.0842    2.3633 H   0  0  0  0  0  0  0  0  0  0  0  0
    2.4130    1.8618    2.0378 H   0  0  0  0  0  0  0  0  0  0  0  0
    3.9248    2.7858    2.0371 H   0  0  0  0  0  0  0  0  0  0  0  0
    4.1921    0.5204    0.9267 H   0  0  0  0  0  0  0  0  0  0  0  0
    4.5565    1.8526   -0.1769 H   0  0  0  0  0  0  0  0  0  0  0  0
  1  2  1  0
  1 18  1  0
  1 19  1  0
  1 20  1  0
  2  3  1  0
  2 21  1  0
  2 22  1  0
  3  4  1  0
  3 17  1  0
  4  5  1  0
  4 23  1  0
  4 24  1  0
  5  6  1  0
  5 25  1  0
  5 26  1  0
  6  7  1  0
  6 16  1  0
  7  8  1  0
  7 27  1  0
  7 28  1  0
  8  9  2  0
  8 14  1  0
  9 10  1  0
 10 11  1  0
 10 12  1  0
 11 29  1  0
 11 30  1  0
 11 31  1  0
 12 13  2  0
 12 14  1  0
 14 15  1  0
 16 17  1  0
 16 32  1  0
 16 33  1  0
 17 34  1  0
 17 35  1  0
M  END

