
     RDKit          3D

 42 42  0  0  0  0  0  0  0  0999 V2000
    2.5007   -1.4711    2.7274 C   0  0  0  0  0  0  0  0  0  0  0  0
    2.4680   -2.0333    1.3883 N   0  0  0  0  0  0  0  0  0  0  0  0
    3.0652   -1.1956    0.3618 C   0  0  0  0  0  0  0  0  0  0  0  0
    4.5864   -1.2220    0.3731 C   0  0  0  0  0  0  0  0  0  0  0  0
    5.3172   -0.0882    0.0153 C   0  0  0  0  0  0  0  0  0  0  0  0
    6.7151   -0.1499   -0.0313 C   0  0  0  0  0  0  0  0  0  0  0  0
    7.6268    1.2683   -0.4922 Cl  0  0  0  0  0  0  0  0  0  0  0  0
    7.4110   -1.3183    0.2987 C   0  0  0  0  0  0  0  0  0  0  0  0
    8.7700   -1.3419    0.3221 O   0  0  0  0  0  0  0  0  0  0  0  0
    9.4223   -1.9769   -0.7731 C   0  0  0  0  0  0  0  0  0  0  0  0
   10.9154   -1.8514   -0.5308 C   0  0  0  0  0  0  0  0  0  0  0  0
   11.5815   -2.4721   -1.6012 O   0  0  0  0  0  0  0  0  0  0  0  0
   12.9833   -2.4277   -1.5163 C   0  0  0  0  0  0  0  0  0  0  0  0
   13.5528   -3.1275   -2.7385 C   0  0  0  0  0  0  0  0  0  0  0  0
   14.9534   -3.0872   -2.6522 O   0  0  0  0  0  0  0  0  0  0  0  0
   15.6074   -3.7000   -3.7292 C   0  0  0  0  0  0  0  0  0  0  0  0
    6.6597   -2.4640    0.6644 C   0  0  0  0  0  0  0  0  0  0  0  0
    7.3936   -3.5640    0.9684 O   0  0  0  0  0  0  0  0  0  0  0  0
    6.7291   -4.7421    1.3691 C   0  0  0  0  0  0  0  0  0  0  0  0
    5.2632   -2.4081    0.6999 C   0  0  0  0  0  0  0  0  0  0  0  0
    1.9964   -2.1511    3.4317 H   0  0  0  0  0  0  0  0  0  0  0  0
    2.0219   -0.4701    2.8120 H   0  0  0  0  0  0  0  0  0  0  0  0
    3.5441   -1.3619    3.0645 H   0  0  0  0  0  0  0  0  0  0  0  0
    1.5145   -2.2728    1.1279 H   0  0  0  0  0  0  0  0  0  0  0  0
    2.7322   -0.1349    0.4170 H   0  0  0  0  0  0  0  0  0  0  0  0
    2.7205   -1.5739   -0.6174 H   0  0  0  0  0  0  0  0  0  0  0  0
    4.8167    0.8491   -0.2348 H   0  0  0  0  0  0  0  0  0  0  0  0
    9.1525   -1.4825   -1.7234 H   0  0  0  0  0  0  0  0  0  0  0  0
    9.1386   -3.0406   -0.8371 H   0  0  0  0  0  0  0  0  0  0  0  0
   11.1719   -2.3277    0.4374 H   0  0  0  0  0  0  0  0  0  0  0  0
   11.1866   -0.7791   -0.4504 H   0  0  0  0  0  0  0  0  0  0  0  0
   13.3496   -2.9316   -0.5985 H   0  0  0  0  0  0  0  0  0  0  0  0
   13.3539   -1.3827   -1.4831 H   0  0  0  0  0  0  0  0  0  0  0  0
   13.1871   -2.6217   -3.6565 H   0  0  0  0  0  0  0  0  0  0  0  0
   13.1774   -4.1717   -2.7734 H   0  0  0  0  0  0  0  0  0  0  0  0
   16.6909   -3.6116   -3.5613 H   0  0  0  0  0  0  0  0  0  0  0  0
   15.3602   -3.2163   -4.6966 H   0  0  0  0  0  0  0  0  0  0  0  0
   15.3509   -4.7762   -3.8147 H   0  0  0  0  0  0  0  0  0  0  0  0
    7.5104   -5.4874    1.5699 H   0  0  0  0  0  0  0  0  0  0  0  0
    6.0600   -5.1264    0.5784 H   0  0  0  0  0  0  0  0  0  0  0  0
    6.1369   -4.5851    2.2880 H   0  0  0  0  0  0  0  0  0  0  0  0
    4.6648   -3.2693    0.9955 H   0  0  0  0  0  0  0  0  0  0  0  0
  1  2  1  0
  1 21  1  0
  1 22  1  0
  1 23  1  0
  2  3  1  0
  2 24  1  0
  3  4  1  0
  3 25  1  0
  3 26  1  0
  4  5  2  0
  4 20  1  0
  5  6  1  0
  5 27  1  0
  6  7  1  0
  6  8  2  0
  8  9  1  0
  8 17  1  0
  9 10  1  0
 10 11  1  0
 10 28  1  0
 10 29  1  0
 11 12  1  0
 11 30  1  0
 11 31  1  0
 12 13  1  0
 13 14  1  0
 13 32  1  0
 13 33  1  0
 14 15  1  0
 14 34  1  0
 14 35  1  0
 15 16  1  0
 16 36  1  0
 16 37  1  0
 16 38  1  0
 17 18  1  0
 17 20  2  0
 18 19  1  0
 19 39  1  0
 19 40  1  0
 19 41  1  0
 20 42  1  0
M  END

