
     RDKit          3D

 82 87  0  0  0  0  0  0  0  0999 V2000
    1.5779    0.6867   -0.5180 C   0  0  0  0  0  0  0  0  0  0  0  0
    2.5915    0.3834    0.5269 C   0  0  0  0  0  0  0  0  0  0  0  0
    3.8877    0.5995    0.1800 O   0  0  0  0  0  0  0  0  0  0  0  0
    4.6291    0.2834    1.2821 C   0  0  0  0  0  0  0  0  0  0  0  0
    6.1272    0.4251    1.1824 C   0  0  2  0  0  0  0  0  0  0  0  0
    6.6624   -0.4341    0.0246 C   0  0  0  0  0  0  0  0  0  0  0  0
    6.7743    0.0944    2.5325 C   0  0  0  0  0  0  0  0  0  0  0  0
    8.2714    0.4054    2.5094 C   0  0  0  0  0  0  0  0  0  0  0  0
    8.5642    1.7373    1.8522 C   0  0  0  0  0  0  0  0  0  0  0  0
    9.8149    2.3710    2.0074 C   0  0  0  0  0  0  0  0  0  0  0  0
   10.9164    1.7048    2.7957 C   0  0  0  0  0  0  0  0  0  0  0  0
   10.0212    3.6226    1.4058 C   0  0  0  0  0  0  0  0  0  0  0  0
   11.2525    4.2398    1.5521 O   0  0  0  0  0  0  0  0  0  0  0  0
   11.3777    5.1017    2.6696 C   0  0  0  0  0  0  0  0  0  0  0  0
   12.7601    5.7123    2.7199 C   0  0  0  0  0  0  0  0  0  0  0  0
   13.7294    5.4244    1.7512 C   0  0  0  0  0  0  0  0  0  0  0  0
   14.9995    6.0080    1.8269 C   0  0  0  0  0  0  0  0  0  0  0  0
   15.3144    6.8831    2.8685 C   0  0  0  0  0  0  0  0  0  0  0  0
   14.3496    7.1745    3.8399 C   0  0  0  0  0  0  0  0  0  0  0  0
   13.0832    6.5930    3.7649 C   0  0  0  0  0  0  0  0  0  0  0  0
    9.0309    4.2515    0.6197 C   0  0  0  0  0  0  0  0  0  0  0  0
    9.3274    5.5789   -0.0399 C   0  0  0  0  0  0  0  0  0  0  0  0
    7.7902    3.6112    0.4511 C   0  0  0  0  0  0  0  0  0  0  0  0
    6.6613    4.2042   -0.3552 C   0  0  0  0  0  0  0  0  0  0  0  0
    7.5800    2.3634    1.0736 C   0  0  0  0  0  0  0  0  0  0  0  0
    6.3366    1.8158    0.8733 O   0  0  0  0  0  0  0  0  0  0  0  0
    3.9156   -0.1055    2.2800 N   0  0  0  0  0  0  0  0  0  0  0  0
    2.5987   -0.0640    1.8328 C   0  0  0  0  0  0  0  0  0  0  0  0
    1.5006   -0.4210    2.7633 C   0  0  0  0  0  0  0  0  0  0  0  0
    1.6847   -0.5057    3.9581 O   0  0  0  0  0  0  0  0  0  0  0  0
    0.0924   -0.6645    2.2129 C   0  0  0  0  0  0  0  0  0  0  0  0
    0.1545   -1.4720    1.0558 O   0  0  0  0  0  0  0  0  0  0  0  0
   -0.9988   -1.8474    0.4362 C   0  0  0  0  0  0  0  0  0  0  0  0
   -0.8537   -2.6808   -0.6864 C   0  0  0  0  0  0  0  0  0  0  0  0
   -1.9754   -3.1043   -1.3907 C   0  0  0  0  0  0  0  0  0  0  0  0
   -3.2725   -2.7185   -1.0036 C   0  0  0  0  0  0  0  0  0  0  0  0
   -4.4840   -3.2116   -1.7621 C   0  0  0  0  0  0  0  0  0  0  0  0
   -4.9536   -4.6196   -1.3453 C   0  0  1  0  0  0  0  0  0  0  0  0
   -5.5926   -4.7253    0.3811 S   0  0  0  0  0  0  0  0  0  0  0  0
   -7.1706   -5.4045   -0.1531 C   0  0  0  0  0  0  0  0  0  0  0  0
   -8.0801   -5.7051    0.5684 O   0  0  0  0  0  0  0  0  0  0  0  0
   -7.1707   -5.5280   -1.5422 N   0  0  0  0  0  0  0  0  0  0  0  0
   -6.0655   -5.1307   -2.2690 C   0  0  0  0  0  0  0  0  0  0  0  0
   -5.9830   -5.1674   -3.4728 O   0  0  0  0  0  0  0  0  0  0  0  0
   -3.3986   -1.8900    0.1175 C   0  0  0  0  0  0  0  0  0  0  0  0
   -2.2813   -1.4523    0.8391 C   0  0  0  0  0  0  0  0  0  0  0  0
    1.9026    1.5606   -1.1024 H   0  0  0  0  0  0  0  0  0  0  0  0
    0.5955    0.8997   -0.0810 H   0  0  0  0  0  0  0  0  0  0  0  0
    1.4566   -0.1607   -1.2125 H   0  0  0  0  0  0  0  0  0  0  0  0
    6.4990   -1.5037    0.2284 H   0  0  0  0  0  0  0  0  0  0  0  0
    7.7390   -0.2653   -0.1183 H   0  0  0  0  0  0  0  0  0  0  0  0
    6.1467   -0.1687   -0.9090 H   0  0  0  0  0  0  0  0  0  0  0  0
    6.5859   -0.9581    2.7884 H   0  0  0  0  0  0  0  0  0  0  0  0
    6.2697    0.6978    3.3016 H   0  0  0  0  0  0  0  0  0  0  0  0
    8.8257   -0.4006    1.9934 H   0  0  0  0  0  0  0  0  0  0  0  0
    8.6530    0.4021    3.5427 H   0  0  0  0  0  0  0  0  0  0  0  0
   11.0631    0.6607    2.4749 H   0  0  0  0  0  0  0  0  0  0  0  0
   10.6886    1.6722    3.8758 H   0  0  0  0  0  0  0  0  0  0  0  0
   11.8682    2.2339    2.6639 H   0  0  0  0  0  0  0  0  0  0  0  0
   11.1809    4.5435    3.6062 H   0  0  0  0  0  0  0  0  0  0  0  0
   10.6158    5.9046    2.6194 H   0  0  0  0  0  0  0  0  0  0  0  0
   13.4787    4.7402    0.9397 H   0  0  0  0  0  0  0  0  0  0  0  0
   15.7471    5.7746    1.0639 H   0  0  0  0  0  0  0  0  0  0  0  0
   16.3068    7.3378    2.9260 H   0  0  0  0  0  0  0  0  0  0  0  0
   14.5859    7.8582    4.6596 H   0  0  0  0  0  0  0  0  0  0  0  0
   12.3343    6.8260    4.5288 H   0  0  0  0  0  0  0  0  0  0  0  0
   10.3840    5.8467    0.0799 H   0  0  0  0  0  0  0  0  0  0  0  0
    8.7148    6.3941    0.3817 H   0  0  0  0  0  0  0  0  0  0  0  0
    9.1136    5.5466   -1.1202 H   0  0  0  0  0  0  0  0  0  0  0  0
    6.9803    5.0682   -0.9509 H   0  0  0  0  0  0  0  0  0  0  0  0
    5.8382    4.5343    0.3026 H   0  0  0  0  0  0  0  0  0  0  0  0
    6.2253    3.4530   -1.0312 H   0  0  0  0  0  0  0  0  0  0  0  0
   -0.3849    0.3126    1.9914 H   0  0  0  0  0  0  0  0  0  0  0  0
   -0.4830   -1.1481    3.0193 H   0  0  0  0  0  0  0  0  0  0  0  0
    0.1520   -2.9829   -0.9856 H   0  0  0  0  0  0  0  0  0  0  0  0
   -1.8407   -3.7459   -2.2669 H   0  0  0  0  0  0  0  0  0  0  0  0
   -4.2622   -3.2707   -2.8401 H   0  0  0  0  0  0  0  0  0  0  0  0
   -5.3242   -2.5094   -1.6427 H   0  0  0  0  0  0  0  0  0  0  0  0
   -4.1108   -5.3236   -1.4374 H   0  0  0  0  0  0  0  0  0  0  0  0
   -7.9979   -5.8912   -2.0107 H   0  0  0  0  0  0  0  0  0  0  0  0
   -4.3925   -1.5728    0.4443 H   0  0  0  0  0  0  0  0  0  0  0  0
   -2.4273   -0.8095    1.7072 H   0  0  0  0  0  0  0  0  0  0  0  0
  1  2  1  0
  1 47  1  0
  1 48  1  0
  1 49  1  0
  2  3  1  0
  2 28  2  0
  3  4  1  0
  4  5  1  0
  4 27  2  0
  5  6  1  6
  5  7  1  0
  5 26  1  0
  6 50  1  0
  6 51  1  0
  6 52  1  0
  7  8  1  0
  7 53  1  0
  7 54  1  0
  8  9  1  0
  8 55  1  0
  8 56  1  0
  9 10  2  0
  9 25  1  0
 10 11  1  0
 10 12  1  0
 11 57  1  0
 11 58  1  0
 11 59  1  0
 12 13  1  0
 12 21  2  0
 13 14  1  0
 14 15  1  0
 14 60  1  0
 14 61  1  0
 15 16  2  0
 15 20  1  0
 16 17  1  0
 16 62  1  0
 17 18  2  0
 17 63  1  0
 18 19  1  0
 18 64  1  0
 19 20  2  0
 19 65  1  0
 20 66  1  0
 21 22  1  0
 21 23  1  0
 22 67  1  0
 22 68  1  0
 22 69  1  0
 23 24  1  0
 23 25  2  0
 24 70  1  0
 24 71  1  0
 24 72  1  0
 25 26  1  0
 27 28  1  0
 28 29  1  0
 29 30  2  0
 29 31  1  0
 31 32  1  0
 31 73  1  0
 31 74  1  0
 32 33  1  0
 33 34  2  0
 33 46  1  0
 34 35  1  0
 34 75  1  0
 35 36  2  0
 35 76  1  0
 36 37  1  0
 36 45  1  0
 37 38  1  0
 37 77  1  0
 37 78  1  0
 38 39  1  0
 38 43  1  0
 38 79  1  1
 39 40  2  0
 40 41  1  0
 40 42  1  0
 42 43  1  0
 42 80  1  0
 43 44  2  0
 45 46  2  0
 45 81  1  0
 46 82  1  0
M  CHG  2  39   1  41  -1
M  END

