
     RDKit          3D

 36 38  0  0  0  0  0  0  0  0999 V2000
    1.9239   -0.8936   -0.5091 O   0  0  0  0  0  0  0  0  0  0  0  0
    2.7441   -0.0444   -0.1934 C   0  0  0  0  0  0  0  0  0  0  0  0
    2.9548    1.1667   -1.0641 C   0  0  0  0  0  0  0  0  0  0  0  0
    4.2482    1.6396   -1.4073 C   0  0  0  0  0  0  0  0  0  0  0  0
    4.4316    2.6988   -2.2903 C   0  0  0  0  0  0  0  0  0  0  0  0
    3.2935    3.3102   -2.8400 C   0  0  0  0  0  0  0  0  0  0  0  0
    3.1865    4.3674   -3.7248 N   0  0  0  0  0  0  0  0  0  0  0  0
    1.9031    4.5151   -3.9187 C   0  0  0  0  0  0  0  0  0  0  0  0
    1.1324    3.6188   -3.2154 N   0  0  0  0  0  0  0  0  0  0  0  0
    0.1222    3.5548   -3.2276 H   0  0  0  0  0  0  0  0  0  0  0  0
    2.0037    2.8179   -2.5014 C   0  0  0  0  0  0  0  0  0  0  0  0
    1.8135    1.7431   -1.6324 C   0  0  0  0  0  0  0  0  0  0  0  0
    3.5261   -0.1833    0.9416 N   0  0  0  0  0  0  0  0  0  0  0  0
    3.4044   -1.4156    1.7168 C   0  0  0  0  0  0  0  0  0  0  0  0
    4.7684   -1.8215    2.2734 C   0  0  0  0  0  0  0  0  0  0  0  0
    5.3790   -0.7229    3.0255 N   0  0  0  0  0  0  0  0  0  0  0  0
    5.7347   -0.9377    4.3325 C   0  0  0  0  0  0  0  0  0  0  0  0
    5.5825   -1.9989    4.8998 O   0  0  0  0  0  0  0  0  0  0  0  0
    6.3639    0.2715    5.0737 C   0  0  1  0  0  0  0  0  0  0  0  0
    5.0533    1.4456    5.5121 Cl  0  0  0  0  0  0  0  0  0  0  0  0
    7.2591   -0.2599    6.5063 Cl  0  0  0  0  0  0  0  0  0  0  0  0
    5.4758    0.5220    2.2689 C   0  0  0  0  0  0  0  0  0  0  0  0
    4.1051    0.9152    1.7067 C   0  0  0  0  0  0  0  0  0  0  0  0
    5.1226    1.1321   -0.9941 H   0  0  0  0  0  0  0  0  0  0  0  0
    5.4286    3.0479   -2.5658 H   0  0  0  0  0  0  0  0  0  0  0  0
    1.4468    5.2645   -4.5681 H   0  0  0  0  0  0  0  0  0  0  0  0
    0.8272    1.3388   -1.3978 H   0  0  0  0  0  0  0  0  0  0  0  0
    2.9970   -2.1955    1.0619 H   0  0  0  0  0  0  0  0  0  0  0  0
    2.6893   -1.2738    2.5503 H   0  0  0  0  0  0  0  0  0  0  0  0
    5.4381   -2.0990    1.4388 H   0  0  0  0  0  0  0  0  0  0  0  0
    4.6775   -2.6802    2.9490 H   0  0  0  0  0  0  0  0  0  0  0  0
    7.0724    0.8248    4.4490 H   0  0  0  0  0  0  0  0  0  0  0  0
    6.1905    0.3858    1.4354 H   0  0  0  0  0  0  0  0  0  0  0  0
    5.8406    1.3392    2.8999 H   0  0  0  0  0  0  0  0  0  0  0  0
    4.1979    1.8112    1.0829 H   0  0  0  0  0  0  0  0  0  0  0  0
    3.4436    1.1644    2.5595 H   0  0  0  0  0  0  0  0  0  0  0  0
  1  2  2  0
  2  3  1  0
  2 13  1  0
  3  4  2  0
  3 12  1  0
  4  5  1  0
  4 24  1  0
  5  6  2  0
  5 25  1  0
  6  7  1  0
  6 11  1  0
  7  8  2  0
  8  9  1  0
  8 26  1  0
  9 10  1  0
  9 11  1  0
 11 12  2  0
 12 27  1  0
 13 14  1  0
 13 23  1  0
 14 15  1  0
 14 28  1  0
 14 29  1  0
 15 16  1  0
 15 30  1  0
 15 31  1  0
 16 17  1  0
 16 22  1  0
 17 18  2  0
 17 19  1  0
 19 20  1  0
 19 21  1  0
 19 32  1  6
 22 23  1  0
 22 33  1  0
 22 34  1  0
 23 35  1  0
 23 36  1  0
M  END

