
     RDKit          3D

 32 33  0  0  0  0  0  0  0  0999 V2000
    0.9288    0.0531   -0.1155 C   0  0  0  0  0  0  0  0  0  0  0  0
    2.4597    0.1257   -0.1204 C   0  0  1  0  0  0  0  0  0  0  0  0
    2.8979    1.5501    0.2828 C   0  0  0  0  0  0  0  0  0  0  0  0
    2.2410    2.2507    1.0072 O   0  0  0  0  0  0  0  0  0  0  0  0
    4.0553    1.9777   -0.2419 O   0  0  0  0  0  0  0  0  0  0  0  0
    3.0905   -0.9407    0.8134 C   0  0  1  0  0  0  0  0  0  0  0  0
    2.6976   -2.3779    0.4467 C   0  0  0  0  0  0  0  0  0  0  0  0
    4.5584   -0.8232    0.8535 N   0  0  0  0  0  0  0  0  0  0  0  0
    5.2710   -0.5173   -0.2541 N   0  0  0  0  0  0  0  0  0  0  0  0
    6.5532   -0.6549    0.0380 C   0  0  0  0  0  0  0  0  0  0  0  0
    6.7201   -1.0889    1.3860 C   0  0  0  0  0  0  0  0  0  0  0  0
    7.8113   -1.3925    2.2280 C   0  0  0  0  0  0  0  0  0  0  0  0
    7.5562   -1.7970    3.5269 C   0  0  0  0  0  0  0  0  0  0  0  0
    6.2196   -1.8965    3.9786 C   0  0  0  0  0  0  0  0  0  0  0  0
    5.9792   -2.3394    5.3719 N   0  0  0  0  0  0  0  0  0  0  0  0
    6.9554   -2.5790    6.0623 O   0  0  0  0  0  0  0  0  0  0  0  0
    4.8200   -2.4390    5.7403 O   0  0  0  0  0  0  0  0  0  0  0  0
    5.1150   -1.6055    3.1937 C   0  0  0  0  0  0  0  0  0  0  0  0
    5.3894   -1.1923    1.8801 C   0  0  0  0  0  0  0  0  0  0  0  0
    0.5127    0.8460   -0.7534 H   0  0  0  0  0  0  0  0  0  0  0  0
    0.5332    0.2133    0.8982 H   0  0  0  0  0  0  0  0  0  0  0  0
    0.5649   -0.9108   -0.4979 H   0  0  0  0  0  0  0  0  0  0  0  0
    2.8284   -0.0717   -1.1404 H   0  0  0  0  0  0  0  0  0  0  0  0
    4.5239    1.2272   -0.6624 H   0  0  0  0  0  0  0  0  0  0  0  0
    2.7527   -0.7208    1.8396 H   0  0  0  0  0  0  0  0  0  0  0  0
    2.9765   -2.6013   -0.5952 H   0  0  0  0  0  0  0  0  0  0  0  0
    1.6169   -2.5366    0.5628 H   0  0  0  0  0  0  0  0  0  0  0  0
    3.2127   -3.0960    1.1024 H   0  0  0  0  0  0  0  0  0  0  0  0
    7.3138   -0.4281   -0.7084 H   0  0  0  0  0  0  0  0  0  0  0  0
    8.8379   -1.3109    1.8647 H   0  0  0  0  0  0  0  0  0  0  0  0
    8.3582   -2.0449    4.2206 H   0  0  0  0  0  0  0  0  0  0  0  0
    4.1126   -1.7017    3.6077 H   0  0  0  0  0  0  0  0  0  0  0  0
  1  2  1  0
  1 20  1  0
  1 21  1  0
  1 22  1  0
  2  3  1  0
  2  6  1  0
  2 23  1  6
  3  4  2  0
  3  5  1  0
  5 24  1  0
  6  7  1  0
  6  8  1  0
  6 25  1  1
  7 26  1  0
  7 27  1  0
  7 28  1  0
  8  9  1  0
  8 19  1  0
  9 10  2  0
 10 11  1  0
 10 29  1  0
 11 12  1  0
 11 19  2  0
 12 13  2  0
 12 30  1  0
 13 14  1  0
 13 31  1  0
 14 15  1  0
 14 18  2  0
 15 16  2  0
 15 17  1  0
 18 19  1  0
 18 32  1  0
M  CHG  2  15   1  17  -1
M  END

