
     RDKit          3D

 32 32  0  0  0  0  0  0  0  0999 V2000
    3.5425   -1.2887   -1.5710 C   0  0  0  0  0  0  0  0  0  0  0  0
    2.7343   -1.7905   -0.3740 C   0  0  0  0  0  0  0  0  0  0  0  0
    2.8666   -0.9691    0.9391 C   0  0  1  0  0  0  0  0  0  0  0  0
    2.3390    0.4624    0.7451 C   0  0  0  0  0  0  0  0  0  0  0  0
    2.1165   -1.6912    1.9790 N   0  0  0  0  0  0  0  0  0  0  0  0
    4.3661   -0.9016    1.3527 C   0  0  0  0  0  0  0  0  0  0  0  0
    4.9382    0.1712    1.3362 O   0  0  0  0  0  0  0  0  0  0  0  0
    5.1546   -2.1466    1.6923 C   0  0  0  0  0  0  0  0  0  0  0  0
    6.5560   -2.0266    1.6763 C   0  0  0  0  0  0  0  0  0  0  0  0
    7.3615   -3.1303    1.9527 C   0  0  0  0  0  0  0  0  0  0  0  0
    6.7845   -4.3682    2.2451 C   0  0  0  0  0  0  0  0  0  0  0  0
    5.3936   -4.4789    2.2719 C   0  0  0  0  0  0  0  0  0  0  0  0
    4.9062   -5.7420    2.6073 O   0  0  0  0  0  0  0  0  0  0  0  0
    3.6919   -6.1677    2.2040 C   0  0  1  0  0  0  0  0  0  0  0  0
    2.6866   -5.5618    2.8589 F   0  0  0  0  0  0  0  0  0  0  0  0
    3.4865   -5.9699    0.8933 F   0  0  0  0  0  0  0  0  0  0  0  0
    3.6167   -7.4689    2.4534 F   0  0  0  0  0  0  0  0  0  0  0  0
    4.5687   -3.3849    2.0123 C   0  0  0  0  0  0  0  0  0  0  0  0
    3.3755   -1.9413   -2.4421 H   0  0  0  0  0  0  0  0  0  0  0  0
    4.6249   -1.2876   -1.3655 H   0  0  0  0  0  0  0  0  0  0  0  0
    3.2594   -0.2667   -1.8661 H   0  0  0  0  0  0  0  0  0  0  0  0
    3.0015   -2.8364   -0.1586 H   0  0  0  0  0  0  0  0  0  0  0  0
    1.6597   -1.7991   -0.6348 H   0  0  0  0  0  0  0  0  0  0  0  0
    1.2798    0.4234    0.4428 H   0  0  0  0  0  0  0  0  0  0  0  0
    2.9029    1.0227   -0.0125 H   0  0  0  0  0  0  0  0  0  0  0  0
    2.4139    1.0319    1.6840 H   0  0  0  0  0  0  0  0  0  0  0  0
    1.1539   -1.8359    1.6708 H   0  0  0  0  0  0  0  0  0  0  0  0
    2.0651   -1.1354    2.8338 H   0  0  0  0  0  0  0  0  0  0  0  0
    6.9905   -1.0540    1.4416 H   0  0  0  0  0  0  0  0  0  0  0  0
    8.4497   -3.0336    1.9341 H   0  0  0  0  0  0  0  0  0  0  0  0
    7.3919   -5.2502    2.4567 H   0  0  0  0  0  0  0  0  0  0  0  0
    3.4844   -3.4450    2.0883 H   0  0  0  0  0  0  0  0  0  0  0  0
  1  2  1  0
  1 19  1  0
  1 20  1  0
  1 21  1  0
  2  3  1  0
  2 22  1  0
  2 23  1  0
  3  4  1  0
  3  5  1  0
  3  6  1  1
  4 24  1  0
  4 25  1  0
  4 26  1  0
  5 27  1  0
  5 28  1  0
  6  7  2  0
  6  8  1  0
  8  9  2  0
  8 18  1  0
  9 10  1  0
  9 29  1  0
 10 11  2  0
 10 30  1  0
 11 12  1  0
 11 31  1  0
 12 13  1  0
 12 18  2  0
 13 14  1  0
 14 15  1  1
 14 16  1  0
 14 17  1  0
 18 32  1  0
M  END

