
     RDKit          3D

 50 52  0  0  0  0  0  0  0  0999 V2000
    1.0343   -1.8303   -0.1905 C   0  0  0  0  0  0  0  0  0  0  0  0
    1.7736   -0.6444   -0.3652 O   0  0  0  0  0  0  0  0  0  0  0  0
    2.5526   -0.5032   -1.4693 C   0  0  0  0  0  0  0  0  0  0  0  0
    2.6876   -1.4681   -2.4790 C   0  0  0  0  0  0  0  0  0  0  0  0
    3.5230   -1.2154   -3.5733 C   0  0  0  0  0  0  0  0  0  0  0  0
    4.2400   -0.0180   -3.6995 C   0  0  0  0  0  0  0  0  0  0  0  0
    5.1105    0.2541   -4.9062 C   0  0  0  0  0  0  0  0  0  0  0  0
    4.2922    0.4946   -6.1946 C   0  0  0  0  0  0  0  0  0  0  0  0
    5.0847    0.8710   -7.3434 N   0  0  0  0  0  0  0  0  0  0  0  0
    5.6726    0.0214   -8.2318 C   0  0  0  0  0  0  0  0  0  0  0  0
    6.3222    0.6143   -9.2511 N   0  0  0  0  0  0  0  0  0  0  0  0
    6.8767   -0.1904  -10.1623 C   0  0  0  0  0  0  0  0  0  0  0  0
    7.6083    0.4627  -11.3071 C   0  0  0  0  0  0  0  0  0  0  0  0
    6.7858   -1.5810  -10.0639 C   0  0  0  0  0  0  0  0  0  0  0  0
    6.1000   -2.1016   -8.9464 C   0  0  0  0  0  0  0  0  0  0  0  0
    6.0132   -3.4778   -8.8374 N   0  0  0  0  0  0  0  0  0  0  0  0
    5.5364   -4.3077   -7.8411 C   0  0  0  0  0  0  0  0  0  0  0  0
    5.1340   -3.8388   -6.5686 C   0  0  0  0  0  0  0  0  0  0  0  0
    4.7308   -4.7234   -5.5756 C   0  0  0  0  0  0  0  0  0  0  0  0
    4.7005   -6.1058   -5.8015 C   0  0  0  0  0  0  0  0  0  0  0  0
    5.0655   -6.5802   -7.0547 C   0  0  0  0  0  0  0  0  0  0  0  0
    5.4645   -5.7173   -8.0950 C   0  0  0  0  0  0  0  0  0  0  0  0
    5.8304   -6.2760   -9.4290 C   0  0  0  0  0  0  0  0  0  0  0  0
    6.4783   -5.6809  -10.2682 O   0  0  0  0  0  0  0  0  0  0  0  0
    5.4018   -7.5214   -9.7140 O   0  0  0  0  0  0  0  0  0  0  0  0
    5.5486   -1.3019   -8.0284 N   0  0  0  0  0  0  0  0  0  0  0  0
    4.0855    0.9365   -2.6779 C   0  0  0  0  0  0  0  0  0  0  0  0
    3.2622    0.7042   -1.5799 C   0  0  0  0  0  0  0  0  0  0  0  0
    0.4870   -1.7228    0.7558 H   0  0  0  0  0  0  0  0  0  0  0  0
    1.6882   -2.7192   -0.1246 H   0  0  0  0  0  0  0  0  0  0  0  0
    0.3061   -1.9876   -1.0072 H   0  0  0  0  0  0  0  0  0  0  0  0
    2.1515   -2.4160   -2.4259 H   0  0  0  0  0  0  0  0  0  0  0  0
    3.6120   -1.9812   -4.3493 H   0  0  0  0  0  0  0  0  0  0  0  0
    5.7995   -0.5879   -5.0866 H   0  0  0  0  0  0  0  0  0  0  0  0
    5.7400    1.1393   -4.7188 H   0  0  0  0  0  0  0  0  0  0  0  0
    3.5570    1.2950   -6.0111 H   0  0  0  0  0  0  0  0  0  0  0  0
    3.7227   -0.4135   -6.4442 H   0  0  0  0  0  0  0  0  0  0  0  0
    5.2464    1.8506   -7.5424 H   0  0  0  0  0  0  0  0  0  0  0  0
    7.5630    1.5543  -11.2022 H   0  0  0  0  0  0  0  0  0  0  0  0
    7.1627    0.1760  -12.2737 H   0  0  0  0  0  0  0  0  0  0  0  0
    8.6644    0.1476  -11.3304 H   0  0  0  0  0  0  0  0  0  0  0  0
    7.2368   -2.2391  -10.8084 H   0  0  0  0  0  0  0  0  0  0  0  0
    6.3958   -4.0031   -9.6286 H   0  0  0  0  0  0  0  0  0  0  0  0
    5.1615   -2.7674   -6.3915 H   0  0  0  0  0  0  0  0  0  0  0  0
    4.4491   -4.3259   -4.5968 H   0  0  0  0  0  0  0  0  0  0  0  0
    4.4085   -6.7986   -5.0100 H   0  0  0  0  0  0  0  0  0  0  0  0
    5.0765   -7.6625   -7.2154 H   0  0  0  0  0  0  0  0  0  0  0  0
    4.7774   -7.8251   -9.0408 H   0  0  0  0  0  0  0  0  0  0  0  0
    4.6300    1.8833   -2.7415 H   0  0  0  0  0  0  0  0  0  0  0  0
    3.1501    1.4461   -0.7865 H   0  0  0  0  0  0  0  0  0  0  0  0
  1  2  1  0
  1 29  1  0
  1 30  1  0
  1 31  1  0
  2  3  1  0
  3  4  2  0
  3 28  1  0
  4  5  1  0
  4 32  1  0
  5  6  2  0
  5 33  1  0
  6  7  1  0
  6 27  1  0
  7  8  1  0
  7 34  1  0
  7 35  1  0
  8  9  1  0
  8 36  1  0
  8 37  1  0
  9 10  1  0
  9 38  1  0
 10 11  2  0
 10 26  1  0
 11 12  1  0
 12 13  1  0
 12 14  2  0
 13 39  1  0
 13 40  1  0
 13 41  1  0
 14 15  1  0
 14 42  1  0
 15 16  1  0
 15 26  2  0
 16 17  1  0
 16 43  1  0
 17 18  2  0
 17 22  1  0
 18 19  1  0
 18 44  1  0
 19 20  2  0
 19 45  1  0
 20 21  1  0
 20 46  1  0
 21 22  2  0
 21 47  1  0
 22 23  1  0
 23 24  2  0
 23 25  1  0
 25 48  1  0
 27 28  2  0
 27 49  1  0
 28 50  1  0
M  END

