
     RDKit          3D

 31 33  0  0  0  0  0  0  0  0999 V2000
    1.1196   -0.0005   -0.5913 O   0  0  0  0  0  0  0  0  0  0  0  0
    2.3168   -0.0480   -0.3901 C   0  0  0  0  0  0  0  0  0  0  0  0
    3.4116   -0.3504   -1.3502 C   0  0  0  0  0  0  0  0  0  0  0  0
    4.5819   -0.3065   -0.6848 C   0  0  0  0  0  0  0  0  0  0  0  0
    5.8423   -0.5064   -1.0994 O   0  0  0  0  0  0  0  0  0  0  0  0
    4.3925    0.0319    0.7837 C   0  0  2  0  0  0  0  0  0  0  0  0
    5.1321    1.3431    1.1512 C   0  0  0  0  0  0  0  0  0  0  0  0
    5.0086    1.6736    2.6420 C   0  0  0  0  0  0  0  0  0  0  0  0
    5.5054    0.5250    3.5248 C   0  0  2  0  0  0  0  0  0  0  0  0
    4.7877   -0.7842    3.1786 C   0  0  0  0  0  0  0  0  0  0  0  0
    4.9021   -1.1190    1.6878 C   0  0  0  0  0  0  0  0  0  0  0  0
    5.3036    0.8118    4.9037 O   0  0  0  0  0  0  0  0  0  0  0  0
    6.5603    1.0724    5.5037 C   0  0  0  0  0  0  0  0  0  0  0  0
    7.5176    0.2755    4.6211 C   0  0  0  0  0  0  0  0  0  0  0  0
    6.9166    0.3915    3.3437 O   0  0  0  0  0  0  0  0  0  0  0  0
    2.9436    0.1773    0.8244 N   0  0  0  0  0  0  0  0  0  0  0  0
    3.2339   -0.5661   -2.4028 H   0  0  0  0  0  0  0  0  0  0  0  0
    5.8475   -0.7122   -2.0450 H   0  0  0  0  0  0  0  0  0  0  0  0
    4.7287    2.1640    0.5384 H   0  0  0  0  0  0  0  0  0  0  0  0
    6.1960    1.2237    0.8940 H   0  0  0  0  0  0  0  0  0  0  0  0
    3.9591    1.8765    2.9120 H   0  0  0  0  0  0  0  0  0  0  0  0
    5.5858    2.5789    2.8858 H   0  0  0  0  0  0  0  0  0  0  0  0
    3.7323   -0.6862    3.4833 H   0  0  0  0  0  0  0  0  0  0  0  0
    5.2167   -1.5932    3.7907 H   0  0  0  0  0  0  0  0  0  0  0  0
    4.3381   -2.0350    1.4527 H   0  0  0  0  0  0  0  0  0  0  0  0
    5.9593   -1.3040    1.4417 H   0  0  0  0  0  0  0  0  0  0  0  0
    6.5349    0.7360    6.5513 H   0  0  0  0  0  0  0  0  0  0  0  0
    6.8003    2.1532    5.4831 H   0  0  0  0  0  0  0  0  0  0  0  0
    7.5775   -0.7817    4.9457 H   0  0  0  0  0  0  0  0  0  0  0  0
    8.5361    0.6897    4.5758 H   0  0  0  0  0  0  0  0  0  0  0  0
    2.4071    0.3726    1.6594 H   0  0  0  0  0  0  0  0  0  0  0  0
  1  2  2  0
  2  3  1  0
  2 16  1  0
  3  4  2  0
  3 17  1  0
  4  5  1  0
  6  4  1  6
  5 18  1  0
  6  7  1  0
  6 11  1  0
  6 16  1  0
  7  8  1  0
  7 19  1  0
  7 20  1  0
  8  9  1  0
  8 21  1  0
  8 22  1  0
  9 10  1  0
  9 12  1  1
  9 15  1  0
 10 11  1  0
 10 23  1  0
 10 24  1  0
 11 25  1  0
 11 26  1  0
 12 13  1  0
 13 14  1  0
 13 27  1  0
 13 28  1  0
 14 15  1  0
 14 29  1  0
 14 30  1  0
 16 31  1  0
M  END

