
     RDKit          3D

 41 45  0  0  0  0  0  0  0  0999 V2000
    0.7039   -0.9054   -1.4416 Cl  0  0  0  0  0  0  0  0  0  0  0  0
    2.3694   -1.3588   -1.6979 C   0  0  0  0  0  0  0  0  0  0  0  0
    2.8368   -1.2700   -2.9244 N   0  0  0  0  0  0  0  0  0  0  0  0
    4.1167   -1.6124   -3.1539 C   0  0  0  0  0  0  0  0  0  0  0  0
    4.9921   -2.0441   -2.2553 N   0  0  0  0  0  0  0  0  0  0  0  0
    4.5059   -2.1293   -1.0188 C   0  0  0  0  0  0  0  0  0  0  0  0
    3.1702   -1.8001   -0.6272 C   0  0  0  0  0  0  0  0  0  0  0  0
    3.1024   -2.0438    0.7862 C   0  0  0  0  0  0  0  0  0  0  0  0
    1.4932   -1.8080    2.1136 I   0  0  0  0  0  0  0  0  0  0  0  0
    4.3460   -2.4912    1.1729 C   0  0  0  0  0  0  0  0  0  0  0  0
    5.2019   -2.5466    0.0876 N   0  0  0  0  0  0  0  0  0  0  0  0
    6.5941   -2.9615    0.0856 C   0  0  1  0  0  0  0  0  0  0  0  0
    7.5938   -2.2686    1.0487 C   0  0  0  0  0  0  0  0  0  0  0  0
    8.2365   -3.6588    1.3213 C   0  0  2  0  0  0  0  0  0  0  0  0
    9.5362   -3.9052    0.5496 C   0  0  0  0  0  0  0  0  0  0  0  0
    9.9501   -5.2892    0.5930 N   0  0  0  0  0  0  0  0  0  0  0  0
   10.4274   -5.8226    1.8860 C   0  0  0  0  0  0  0  0  0  0  0  0
   11.6175   -6.6968    1.4644 C   0  0  1  0  0  0  0  0  0  0  0  0
   11.1612   -7.1959    0.0870 C   0  0  0  0  0  0  0  0  0  0  0  0
   10.8379   -5.7991   -0.4605 C   0  0  2  0  0  0  0  0  0  0  0  0
   12.1978   -5.0678   -0.5179 C   0  0  0  0  0  0  0  0  0  0  0  0
   13.0529   -5.5856    1.0523 S   0  0  0  0  0  0  0  0  0  0  0  0
    6.9822   -4.3318    0.6993 C   0  0  0  0  0  0  0  0  0  0  0  0
    4.4643   -1.5232   -4.1889 H   0  0  0  0  0  0  0  0  0  0  0  0
    4.6816   -2.7791    2.1662 H   0  0  0  0  0  0  0  0  0  0  0  0
    6.9151   -2.8782   -0.9608 H   0  0  0  0  0  0  0  0  0  0  0  0
    7.0950   -1.8563    1.9384 H   0  0  0  0  0  0  0  0  0  0  0  0
    8.2361   -1.4851    0.6158 H   0  0  0  0  0  0  0  0  0  0  0  0
    8.3959   -3.8850    2.3870 H   0  0  0  0  0  0  0  0  0  0  0  0
   10.3115   -3.2087    0.9457 H   0  0  0  0  0  0  0  0  0  0  0  0
    9.3834   -3.6298   -0.5092 H   0  0  0  0  0  0  0  0  0  0  0  0
    9.6435   -6.4178    2.3957 H   0  0  0  0  0  0  0  0  0  0  0  0
   10.7477   -5.0247    2.5794 H   0  0  0  0  0  0  0  0  0  0  0  0
   11.9345   -7.4528    2.1943 H   0  0  0  0  0  0  0  0  0  0  0  0
   10.2571   -7.8222    0.1474 H   0  0  0  0  0  0  0  0  0  0  0  0
   11.9473   -7.7239   -0.4704 H   0  0  0  0  0  0  0  0  0  0  0  0
   10.3302   -5.7861   -1.4393 H   0  0  0  0  0  0  0  0  0  0  0  0
   12.0873   -3.9742   -0.5445 H   0  0  0  0  0  0  0  0  0  0  0  0
   12.7919   -5.3776   -1.3921 H   0  0  0  0  0  0  0  0  0  0  0  0
    6.2624   -4.6636    1.4626 H   0  0  0  0  0  0  0  0  0  0  0  0
    7.1628   -5.1629    0.0016 H   0  0  0  0  0  0  0  0  0  0  0  0
  1  2  1  0
  2  3  1  0
  2  7  2  0
  3  4  2  0
  4  5  1  0
  4 24  1  0
  5  6  2  0
  6  7  1  0
  6 11  1  0
  7  8  1  0
  8  9  1  0
  8 10  2  0
 10 11  1  0
 10 25  1  0
 11 12  1  0
 12 13  1  0
 12 23  1  0
 12 26  1  6
 13 14  1  0
 13 27  1  0
 13 28  1  0
 14 15  1  0
 14 23  1  0
 14 29  1  1
 15 16  1  0
 15 30  1  0
 15 31  1  0
 16 17  1  0
 16 20  1  0
 17 18  1  0
 17 32  1  0
 17 33  1  0
 18 19  1  0
 18 22  1  0
 18 34  1  1
 19 20  1  0
 19 35  1  0
 19 36  1  0
 20 21  1  0
 20 37  1  6
 21 22  1  0
 21 38  1  0
 21 39  1  0
 23 40  1  0
 23 41  1  0
M  END

