
     RDKit          3D

 52 55  0  0  0  0  0  0  0  0999 V2000
    1.1585   -0.3980    0.7426 O   0  0  0  0  0  0  0  0  0  0  0  0
    2.3258   -0.3882    0.3769 C   0  0  0  0  0  0  0  0  0  0  0  0
    2.7063   -0.3975   -0.9547 N   0  0  0  0  0  0  0  0  0  0  0  0
    1.8869   -0.4179   -2.0895 C   0  0  0  0  0  0  0  0  0  0  0  0
    0.4813   -0.4956   -2.0386 C   0  0  0  0  0  0  0  0  0  0  0  0
   -0.2655   -0.5023   -3.2170 C   0  0  0  0  0  0  0  0  0  0  0  0
    0.3533   -0.4266   -4.4676 C   0  0  0  0  0  0  0  0  0  0  0  0
    1.7456   -0.3519   -4.5285 C   0  0  0  0  0  0  0  0  0  0  0  0
    2.5213   -0.3595   -3.3621 C   0  0  0  0  0  0  0  0  0  0  0  0
    4.3083   -0.2311   -3.4877 S   0  0  0  0  0  0  0  0  0  0  0  0
    4.8246   -2.0053   -3.4906 C   0  0  1  0  0  0  0  0  0  0  0  0
    4.5198   -2.7909   -4.7708 C   0  0  0  0  0  0  0  0  0  0  0  0
    5.4170   -4.0303   -4.6179 C   0  0  0  0  0  0  0  0  0  0  0  0
    6.7134   -3.5050   -3.9425 C   0  0  0  0  0  0  0  0  0  0  0  0
    6.3546   -2.1171   -3.3406 C   0  0  0  0  0  0  0  0  0  0  0  0
    3.3725   -0.3530    1.2922 N   0  0  0  0  0  0  0  0  0  0  0  0
    3.0383   -0.2685    2.7103 C   0  0  0  0  0  0  0  0  0  0  0  0
    3.4476   -1.5435    3.4537 C   0  0  0  0  0  0  0  0  0  0  0  0
    4.9283   -1.8667    3.2206 C   0  0  0  0  0  0  0  0  0  0  0  0
    5.2576   -1.9051    1.7187 C   0  0  2  0  0  0  0  0  0  0  0  0
    6.7111   -2.1525    1.4169 C   0  0  0  0  0  0  0  0  0  0  0  0
    7.2655   -2.0652    0.2228 N   0  0  0  0  0  0  0  0  0  0  0  0
    8.5906   -2.3818    0.3875 C   0  0  0  0  0  0  0  0  0  0  0  0
    8.8520   -2.6692    1.7071 C   0  0  0  0  0  0  0  0  0  0  0  0
    7.6433   -2.5154    2.3522 N   0  0  0  0  0  0  0  0  0  0  0  0
    7.4768   -2.6478    3.3416 H   0  0  0  0  0  0  0  0  0  0  0  0
    4.7807   -0.6022    1.0298 C   0  0  0  0  0  0  0  0  0  0  0  0
    3.6821   -0.2324   -1.1931 H   0  0  0  0  0  0  0  0  0  0  0  0
   -0.0012   -0.5387   -1.0656 H   0  0  0  0  0  0  0  0  0  0  0  0
   -1.3552   -0.5609   -3.1491 H   0  0  0  0  0  0  0  0  0  0  0  0
   -0.2390   -0.4224   -5.3855 H   0  0  0  0  0  0  0  0  0  0  0  0
    2.2565   -0.2853   -5.4915 H   0  0  0  0  0  0  0  0  0  0  0  0
    4.3264   -2.4884   -2.6339 H   0  0  0  0  0  0  0  0  0  0  0  0
    4.8308   -2.1912   -5.6441 H   0  0  0  0  0  0  0  0  0  0  0  0
    3.4525   -3.0302   -4.8915 H   0  0  0  0  0  0  0  0  0  0  0  0
    5.6069   -4.5373   -5.5767 H   0  0  0  0  0  0  0  0  0  0  0  0
    4.9192   -4.7652   -3.9633 H   0  0  0  0  0  0  0  0  0  0  0  0
    7.5315   -3.4106   -4.6739 H   0  0  0  0  0  0  0  0  0  0  0  0
    7.0672   -4.2004   -3.1656 H   0  0  0  0  0  0  0  0  0  0  0  0
    6.8334   -1.3125   -3.9249 H   0  0  0  0  0  0  0  0  0  0  0  0
    6.6723   -2.0016   -2.2940 H   0  0  0  0  0  0  0  0  0  0  0  0
    1.9600   -0.0913    2.7901 H   0  0  0  0  0  0  0  0  0  0  0  0
    3.5671    0.6011    3.1472 H   0  0  0  0  0  0  0  0  0  0  0  0
    2.8217   -2.3795    3.0973 H   0  0  0  0  0  0  0  0  0  0  0  0
    3.2470   -1.4269    4.5316 H   0  0  0  0  0  0  0  0  0  0  0  0
    5.1820   -2.8304    3.6963 H   0  0  0  0  0  0  0  0  0  0  0  0
    5.5506   -1.0919    3.7075 H   0  0  0  0  0  0  0  0  0  0  0  0
    4.6744   -2.7283    1.2644 H   0  0  0  0  0  0  0  0  0  0  0  0
    9.2883   -2.3855   -0.4488 H   0  0  0  0  0  0  0  0  0  0  0  0
    9.7600   -2.9570    2.2305 H   0  0  0  0  0  0  0  0  0  0  0  0
    5.0015   -0.6753   -0.0403 H   0  0  0  0  0  0  0  0  0  0  0  0
    5.3823    0.2440    1.4138 H   0  0  0  0  0  0  0  0  0  0  0  0
  1  2  2  0
  2  3  1  0
  2 16  1  0
  3  4  1  0
  3 28  1  0
  4  5  2  0
  4  9  1  0
  5  6  1  0
  5 29  1  0
  6  7  2  0
  6 30  1  0
  7  8  1  0
  7 31  1  0
  8  9  2  0
  8 32  1  0
  9 10  1  0
 10 11  1  0
 11 12  1  0
 11 15  1  0
 11 33  1  1
 12 13  1  0
 12 34  1  0
 12 35  1  0
 13 14  1  0
 13 36  1  0
 13 37  1  0
 14 15  1  0
 14 38  1  0
 14 39  1  0
 15 40  1  0
 15 41  1  0
 16 17  1  0
 16 27  1  0
 17 18  1  0
 17 42  1  0
 17 43  1  0
 18 19  1  0
 18 44  1  0
 18 45  1  0
 19 20  1  0
 19 46  1  0
 19 47  1  0
 20 21  1  0
 20 27  1  0
 20 48  1  6
 21 22  2  0
 21 25  1  0
 22 23  1  0
 23 24  2  0
 23 49  1  0
 24 25  1  0
 24 50  1  0
 25 26  1  0
 27 51  1  0
 27 52  1  0
M  END

