
     RDKit          3D

 50 54  0  0  0  0  0  0  0  0999 V2000
    1.8448    0.3676   -1.8898 C   0  0  0  0  0  0  0  0  0  0  0  0
    2.8278    0.1782   -0.7848 C   0  0  0  0  0  0  0  0  0  0  0  0
    3.6092    1.0584   -0.0920 C   0  0  0  0  0  0  0  0  0  0  0  0
    3.7216    2.5447   -0.2194 C   0  0  0  0  0  0  0  0  0  0  0  0
    5.0495    2.9917   -0.6529 N   0  0  0  0  0  0  0  0  0  0  0  0
    5.4729    2.5671   -1.9855 C   0  0  0  0  0  0  0  0  0  0  0  0
    4.8715    3.4168   -3.1122 C   0  0  0  0  0  0  0  0  0  0  0  0
    5.1013    4.8402   -2.8553 N   0  0  0  0  0  0  0  0  0  0  0  0
    5.5089    5.6478   -3.8722 C   0  0  0  0  0  0  0  0  0  0  0  0
    5.8590    5.2239   -5.0722 N   0  0  0  0  0  0  0  0  0  0  0  0
    6.2002    6.3515   -5.7771 C   0  0  0  0  0  0  0  0  0  0  0  0
    6.6479    6.5048   -7.0981 C   0  0  0  0  0  0  0  0  0  0  0  0
    6.8398    4.9425   -8.1491 Br  0  0  0  0  0  0  0  0  0  0  0  0
    6.9301    7.7985   -7.5777 C   0  0  0  0  0  0  0  0  0  0  0  0
    7.5363    8.0132   -9.3656 Br  0  0  0  0  0  0  0  0  0  0  0  0
    6.7676    8.9391   -6.7466 C   0  0  0  0  0  0  0  0  0  0  0  0
    7.1452   10.6813   -7.3984 Br  0  0  0  0  0  0  0  0  0  0  0  0
    6.3207    8.7872   -5.4209 C   0  0  0  0  0  0  0  0  0  0  0  0
    6.0644   10.2343   -4.2123 Br  0  0  0  0  0  0  0  0  0  0  0  0
    6.0478    7.5034   -4.9667 C   0  0  0  0  0  0  0  0  0  0  0  0
    5.6037    7.0244   -3.7476 N   0  0  0  0  0  0  0  0  0  0  0  0
    5.3545    7.6050   -2.9581 H   0  0  0  0  0  0  0  0  0  0  0  0
    4.7252    5.3193   -1.5329 C   0  0  0  0  0  0  0  0  0  0  0  0
    5.3295    4.4035   -0.4496 C   0  0  0  0  0  0  0  0  0  0  0  0
    4.3628    0.3213    0.8357 N   0  0  0  0  0  0  0  0  0  0  0  0
    5.2046    0.8700    1.9046 C   0  0  0  0  0  0  0  0  0  0  0  0
    5.9644   -0.2422    2.5905 C   0  0  0  0  0  0  0  0  0  0  0  0
    5.6485   -1.5491    2.4157 C   0  0  0  0  0  0  0  0  0  0  0  0
    4.6181   -1.9987    1.5123 C   0  0  0  0  0  0  0  0  0  0  0  0
    4.0393   -1.0200    0.7397 C   0  0  0  0  0  0  0  0  0  0  0  0
    3.0985   -1.0910   -0.2654 N   0  0  0  0  0  0  0  0  0  0  0  0
    1.7712    1.4252   -2.1765 H   0  0  0  0  0  0  0  0  0  0  0  0
    0.8344    0.0309   -1.5971 H   0  0  0  0  0  0  0  0  0  0  0  0
    2.1301   -0.2045   -2.7904 H   0  0  0  0  0  0  0  0  0  0  0  0
    3.5381    3.0126    0.7635 H   0  0  0  0  0  0  0  0  0  0  0  0
    2.8940    2.8886   -0.8743 H   0  0  0  0  0  0  0  0  0  0  0  0
    5.2061    1.5097   -2.1315 H   0  0  0  0  0  0  0  0  0  0  0  0
    6.5735    2.6385   -2.0349 H   0  0  0  0  0  0  0  0  0  0  0  0
    3.7820    3.2339   -3.1979 H   0  0  0  0  0  0  0  0  0  0  0  0
    5.3241    3.1730   -4.0814 H   0  0  0  0  0  0  0  0  0  0  0  0
    3.6211    5.3535   -1.4374 H   0  0  0  0  0  0  0  0  0  0  0  0
    5.0937    6.3437   -1.3776 H   0  0  0  0  0  0  0  0  0  0  0  0
    4.9637    4.7146    0.5424 H   0  0  0  0  0  0  0  0  0  0  0  0
    6.4252    4.5442   -0.4574 H   0  0  0  0  0  0  0  0  0  0  0  0
    4.5638    1.4318    2.6270 H   0  0  0  0  0  0  0  0  0  0  0  0
    5.8823    1.6191    1.4572 H   0  0  0  0  0  0  0  0  0  0  0  0
    6.7646    0.0582    3.2707 H   0  0  0  0  0  0  0  0  0  0  0  0
    6.2137   -2.3056    2.9690 H   0  0  0  0  0  0  0  0  0  0  0  0
    4.3570   -3.0485    1.3919 H   0  0  0  0  0  0  0  0  0  0  0  0
    2.6722   -1.9540   -0.5717 H   0  0  0  0  0  0  0  0  0  0  0  0
  1  2  1  0
  1 32  1  0
  1 33  1  0
  1 34  1  0
  2  3  2  0
  2 31  1  0
  3  4  1  0
  3 25  1  0
  4  5  1  0
  4 35  1  0
  4 36  1  0
  5  6  1  0
  5 24  1  0
  6  7  1  0
  6 37  1  0
  6 38  1  0
  7  8  1  0
  7 39  1  0
  7 40  1  0
  8  9  1  0
  8 23  1  0
  9 10  2  0
  9 21  1  0
 10 11  1  0
 11 12  2  0
 11 20  1  0
 12 13  1  0
 12 14  1  0
 14 15  1  0
 14 16  2  0
 16 17  1  0
 16 18  1  0
 18 19  1  0
 18 20  2  0
 20 21  1  0
 21 22  1  0
 23 24  1  0
 23 41  1  0
 23 42  1  0
 24 43  1  0
 24 44  1  0
 25 26  1  0
 25 30  1  0
 26 27  1  0
 26 45  1  0
 26 46  1  0
 27 28  2  0
 27 47  1  0
 28 29  1  0
 28 48  1  0
 29 30  2  0
 29 49  1  0
 30 31  1  0
 31 50  1  0
M  END

