
     RDKit          3D

 50 52  0  0  0  0  0  0  0  0999 V2000
    7.8110   -4.0572    3.7093 C   0  0  0  0  0  0  0  0  0  0  0  0
    8.1618   -3.4299    2.3607 C   0  0  0  0  0  0  0  0  0  0  0  0
    7.9363   -1.9091    2.3344 C   0  0  0  0  0  0  0  0  0  0  0  0
    8.2282   -1.2982    1.0016 C   0  0  0  0  0  0  0  0  0  0  0  0
    9.1705   -0.4052    0.8246 N   0  0  0  0  0  0  0  0  0  0  0  0
    9.1060   -0.1307   -0.5416 O   0  0  0  0  0  0  0  0  0  0  0  0
    8.1334   -0.8947   -1.0460 C   0  0  0  0  0  0  0  0  0  0  0  0
    7.7919   -0.7755   -2.5166 C   0  0  1  0  0  0  0  0  0  0  0  0
    6.8907   -0.1391   -2.5562 H   0  0  0  0  0  0  0  0  0  0  0  0
    8.8901   -0.0795   -3.3307 C   0  0  0  0  0  0  0  0  0  0  0  0
    7.3742   -2.0553   -3.0654 N   0  0  0  0  0  0  0  0  0  0  0  0
    8.1236   -3.1998   -3.0071 C   0  0  0  0  0  0  0  0  0  0  0  0
    9.3904   -3.1037   -2.5837 N   0  0  0  0  0  0  0  0  0  0  0  0
   10.0805   -4.2469   -2.5606 C   0  0  0  0  0  0  0  0  0  0  0  0
    9.5591   -5.4768   -2.9444 C   0  0  0  0  0  0  0  0  0  0  0  0
    8.2125   -5.4566   -3.3674 C   0  0  0  0  0  0  0  0  0  0  0  0
    7.5277   -6.6107   -3.7638 N   0  0  0  0  0  0  0  0  0  0  0  0
    7.9695   -7.9244   -3.5626 C   0  0  0  0  0  0  0  0  0  0  0  0
    9.0730   -8.3104   -3.2936 O   0  0  0  0  0  0  0  0  0  0  0  0
    6.9075   -8.7515   -3.7248 O   0  0  0  0  0  0  0  0  0  0  0  0
    5.6993   -7.9859   -3.7930 C   0  0  0  0  0  0  0  0  0  0  0  0
    6.1533   -6.6044   -4.2899 C   0  0  2  0  0  0  0  0  0  0  0  0
    6.0639   -6.4801   -5.8345 C   0  0  1  0  0  0  0  0  0  0  0  0
    4.5972   -6.3018   -6.2519 C   0  0  0  0  0  0  0  0  0  0  0  0
    6.9314   -5.3632   -6.4243 C   0  0  0  0  0  0  0  0  0  0  0  0
    7.5057   -4.3281   -3.3955 N   0  0  0  0  0  0  0  0  0  0  0  0
    7.5471   -1.6286   -0.1493 N   0  0  0  0  0  0  0  0  0  0  0  0
    7.9833   -5.1450    3.7011 H   0  0  0  0  0  0  0  0  0  0  0  0
    6.7516   -3.8895    3.9667 H   0  0  0  0  0  0  0  0  0  0  0  0
    8.4198   -3.6297    4.5236 H   0  0  0  0  0  0  0  0  0  0  0  0
    7.5597   -3.8893    1.5592 H   0  0  0  0  0  0  0  0  0  0  0  0
    9.2163   -3.6395    2.1110 H   0  0  0  0  0  0  0  0  0  0  0  0
    8.5647   -1.4089    3.0873 H   0  0  0  0  0  0  0  0  0  0  0  0
    6.8838   -1.6926    2.5893 H   0  0  0  0  0  0  0  0  0  0  0  0
    9.1006    0.9179   -2.9185 H   0  0  0  0  0  0  0  0  0  0  0  0
    8.5538    0.0305   -4.3718 H   0  0  0  0  0  0  0  0  0  0  0  0
    9.8140   -0.6711   -3.3115 H   0  0  0  0  0  0  0  0  0  0  0  0
    6.3860   -2.2095   -3.2171 H   0  0  0  0  0  0  0  0  0  0  0  0
   11.1190   -4.1796   -2.2163 H   0  0  0  0  0  0  0  0  0  0  0  0
   10.1389   -6.3946   -2.9224 H   0  0  0  0  0  0  0  0  0  0  0  0
    5.2466   -7.9413   -2.7879 H   0  0  0  0  0  0  0  0  0  0  0  0
    5.0081   -8.4955   -4.4760 H   0  0  0  0  0  0  0  0  0  0  0  0
    5.5952   -5.7855   -3.8171 H   0  0  0  0  0  0  0  0  0  0  0  0
    6.4275   -7.4395   -6.2489 H   0  0  0  0  0  0  0  0  0  0  0  0
    4.2017   -5.3383   -5.8880 H   0  0  0  0  0  0  0  0  0  0  0  0
    3.9439   -7.0990   -5.8623 H   0  0  0  0  0  0  0  0  0  0  0  0
    4.5004   -6.3076   -7.3486 H   0  0  0  0  0  0  0  0  0  0  0  0
    6.6322   -4.3763   -6.0404 H   0  0  0  0  0  0  0  0  0  0  0  0
    6.8313   -5.3509   -7.5215 H   0  0  0  0  0  0  0  0  0  0  0  0
    7.9973   -5.5051   -6.1925 H   0  0  0  0  0  0  0  0  0  0  0  0
  1  2  1  0
  1 28  1  0
  1 29  1  0
  1 30  1  0
  2  3  1  0
  2 31  1  0
  2 32  1  0
  3  4  1  0
  3 33  1  0
  3 34  1  0
  4  5  2  0
  4 27  1  0
  5  6  1  0
  6  7  1  0
  7  8  1  0
  7 27  2  0
  8  9  1  1
  8 10  1  0
  8 11  1  0
 10 35  1  0
 10 36  1  0
 10 37  1  0
 11 12  1  0
 11 38  1  0
 12 13  2  0
 12 26  1  0
 13 14  1  0
 14 15  2  0
 14 39  1  0
 15 16  1  0
 15 40  1  0
 16 17  1  0
 16 26  2  0
 17 18  1  0
 17 22  1  0
 18 19  2  0
 18 20  1  0
 20 21  1  0
 21 22  1  0
 21 41  1  0
 21 42  1  0
 22 23  1  0
 22 43  1  1
 23 24  1  0
 23 25  1  0
 23 44  1  6
 24 45  1  0
 24 46  1  0
 24 47  1  0
 25 48  1  0
 25 49  1  0
 25 50  1  0
M  END

