
     RDKit          3D

 32 33  0  0  0  0  0  0  0  0999 V2000
    1.0575   -0.2892    0.2918 C   0  0  0  0  0  0  0  0  0  0  0  0
    2.5443   -0.1704    0.0892 C   0  0  0  0  0  0  0  0  0  0  0  0
    3.1862    1.0705    0.1715 C   0  0  0  0  0  0  0  0  0  0  0  0
    4.5601    1.1786   -0.0025 C   0  0  0  0  0  0  0  0  0  0  0  0
    5.1532    2.3839    0.1096 F   0  0  0  0  0  0  0  0  0  0  0  0
    5.3256    0.0410   -0.2576 C   0  0  0  0  0  0  0  0  0  0  0  0
    7.0903    0.1673   -0.5691 S   0  0  1  0  0  0  0  0  0  0  0  0
    7.6272   -1.1924   -0.5563 O   0  0  0  0  0  0  0  0  0  0  0  0
    7.3054    1.0727   -1.6908 O   0  0  0  0  0  0  0  0  0  0  0  0
    7.7261    0.9984    0.7640 N   0  0  0  0  0  0  0  0  0  0  0  0
    7.6403    0.5442    2.0992 C   0  0  0  0  0  0  0  0  0  0  0  0
    7.1924    1.4202    3.1017 C   0  0  0  0  0  0  0  0  0  0  0  0
    7.1554    1.0054    4.4307 C   0  0  0  0  0  0  0  0  0  0  0  0
    7.5338   -0.2938    4.7830 C   0  0  0  0  0  0  0  0  0  0  0  0
    7.4579   -0.7850    6.4511 Cl  0  0  0  0  0  0  0  0  0  0  0  0
    7.9679   -1.1754    3.7777 C   0  0  0  0  0  0  0  0  0  0  0  0
    8.4551   -2.8003    4.1668 Cl  0  0  0  0  0  0  0  0  0  0  0  0
    8.0343   -0.7564    2.4471 C   0  0  0  0  0  0  0  0  0  0  0  0
    4.7071   -1.2067   -0.3421 C   0  0  0  0  0  0  0  0  0  0  0  0
    3.3175   -1.3339   -0.1717 C   0  0  0  0  0  0  0  0  0  0  0  0
    2.7171   -2.5832   -0.2033 N   0  0  0  0  0  0  0  0  0  0  0  0
    0.6047    0.6810    0.5381 H   0  0  0  0  0  0  0  0  0  0  0  0
    0.8227   -0.9943    1.1080 H   0  0  0  0  0  0  0  0  0  0  0  0
    0.5514   -0.6672   -0.6157 H   0  0  0  0  0  0  0  0  0  0  0  0
    2.6147    1.9777    0.3805 H   0  0  0  0  0  0  0  0  0  0  0  0
    7.5747    1.9961    0.6290 H   0  0  0  0  0  0  0  0  0  0  0  0
    6.8689    2.4297    2.8371 H   0  0  0  0  0  0  0  0  0  0  0  0
    6.8156    1.6862    5.2129 H   0  0  0  0  0  0  0  0  0  0  0  0
    8.3919   -1.4415    1.6803 H   0  0  0  0  0  0  0  0  0  0  0  0
    5.3289   -2.0819   -0.5402 H   0  0  0  0  0  0  0  0  0  0  0  0
    3.2667   -3.3394   -0.5939 H   0  0  0  0  0  0  0  0  0  0  0  0
    1.7396   -2.6250   -0.4643 H   0  0  0  0  0  0  0  0  0  0  0  0
  1  2  1  0
  1 22  1  0
  1 23  1  0
  1 24  1  0
  2  3  2  0
  2 20  1  0
  3  4  1  0
  3 25  1  0
  4  5  1  0
  4  6  2  0
  6  7  1  0
  6 19  1  0
  7  8  2  0
  7  9  2  0
  7 10  1  1
 10 11  1  0
 10 26  1  0
 11 12  2  0
 11 18  1  0
 12 13  1  0
 12 27  1  0
 13 14  2  0
 13 28  1  0
 14 15  1  0
 14 16  1  0
 16 17  1  0
 16 18  2  0
 18 29  1  0
 19 20  2  0
 19 30  1  0
 20 21  1  0
 21 31  1  0
 21 32  1  0
M  END

