
     RDKit          3D

 48 50  0  0  0  0  0  0  0  0999 V2000
    7.6584   -1.9711    2.4388 C   0  0  0  0  0  0  0  0  0  0  0  0
    6.2326   -1.4914    2.4753 C   0  0  0  0  0  0  0  0  0  0  0  0
    5.8102   -0.3566    3.1845 C   0  0  0  0  0  0  0  0  0  0  0  0
    4.4672    0.0721    3.2016 C   0  0  0  0  0  0  0  0  0  0  0  0
    3.4685   -0.6124    2.5082 C   0  0  0  0  0  0  0  0  0  0  0  0
    3.8610   -1.7497    1.7911 C   0  0  0  0  0  0  0  0  0  0  0  0
    3.1375   -2.6466    1.0077 N   0  0  0  0  0  0  0  0  0  0  0  0
    4.0110   -3.5038    0.5892 C   0  0  0  0  0  0  0  0  0  0  0  0
    3.7903   -4.6919   -0.2891 C   0  0  2  0  0  0  0  0  0  0  0  0
    4.1412   -6.0204    0.4136 C   0  0  0  0  0  0  0  0  0  0  0  0
    3.9012   -7.2076   -0.5209 C   0  0  0  0  0  0  0  0  0  0  0  0
    4.6086   -7.0533   -1.7854 N   0  0  0  0  0  0  0  0  0  0  0  0
    5.4247   -8.0872   -2.2217 C   0  0  0  0  0  0  0  0  0  0  0  0
    5.7151   -9.0367   -1.5007 O   0  0  0  0  0  0  0  0  0  0  0  0
    5.9145   -7.9801   -3.5065 N   0  0  0  0  0  0  0  0  0  0  0  0
    6.7536   -9.0316   -4.0484 C   0  0  0  0  0  0  0  0  0  0  0  0
    5.9979  -10.2985   -4.4910 C   0  0  0  0  0  0  0  0  0  0  0  0
    4.7451  -10.0290   -5.3553 C   0  0  0  0  0  0  0  0  0  0  0  0
    5.0217   -9.0946   -6.5226 C   0  0  0  0  0  0  0  0  0  0  0  0
    5.0655   -7.8937   -6.4154 O   0  0  0  0  0  0  0  0  0  0  0  0
    5.2805   -9.6697   -7.7159 O   0  0  0  0  0  0  0  0  0  0  0  0
    4.3409   -5.8177   -2.5053 C   0  0  0  0  0  0  0  0  0  0  0  0
    4.5711   -4.5881   -1.6154 C   0  0  0  0  0  0  0  0  0  0  0  0
    5.2962   -3.2763    1.0216 O   0  0  0  0  0  0  0  0  0  0  0  0
    5.2062   -2.1493    1.7949 C   0  0  0  0  0  0  0  0  0  0  0  0
    8.3082   -1.3293    3.0507 H   0  0  0  0  0  0  0  0  0  0  0  0
    8.0533   -1.9756    1.4091 H   0  0  0  0  0  0  0  0  0  0  0  0
    7.7434   -3.0040    2.8151 H   0  0  0  0  0  0  0  0  0  0  0  0
    6.5555    0.2144    3.7452 H   0  0  0  0  0  0  0  0  0  0  0  0
    4.2080    0.9652    3.7757 H   0  0  0  0  0  0  0  0  0  0  0  0
    2.4271   -0.2862    2.5176 H   0  0  0  0  0  0  0  0  0  0  0  0
    2.7103   -4.6848   -0.5117 H   0  0  0  0  0  0  0  0  0  0  0  0
    3.5328   -6.1385    1.3251 H   0  0  0  0  0  0  0  0  0  0  0  0
    5.1993   -6.0028    0.7229 H   0  0  0  0  0  0  0  0  0  0  0  0
    2.8132   -7.3016   -0.7172 H   0  0  0  0  0  0  0  0  0  0  0  0
    4.2453   -8.1439   -0.0659 H   0  0  0  0  0  0  0  0  0  0  0  0
    5.4221   -7.4285   -4.2017 H   0  0  0  0  0  0  0  0  0  0  0  0
    7.4886   -9.3182   -3.2827 H   0  0  0  0  0  0  0  0  0  0  0  0
    7.3087   -8.6031   -4.8974 H   0  0  0  0  0  0  0  0  0  0  0  0
    5.6748  -10.8492   -3.5947 H   0  0  0  0  0  0  0  0  0  0  0  0
    6.7009  -10.9511   -5.0381 H   0  0  0  0  0  0  0  0  0  0  0  0
    3.9778   -9.5405   -4.7372 H   0  0  0  0  0  0  0  0  0  0  0  0
    4.3193  -10.9854   -5.7026 H   0  0  0  0  0  0  0  0  0  0  0  0
    5.1983  -10.6317   -7.6516 H   0  0  0  0  0  0  0  0  0  0  0  0
    3.2963   -5.8103   -2.8790 H   0  0  0  0  0  0  0  0  0  0  0  0
    4.9993   -5.7422   -3.3792 H   0  0  0  0  0  0  0  0  0  0  0  0
    4.2708   -3.6804   -2.1638 H   0  0  0  0  0  0  0  0  0  0  0  0
    5.6475   -4.4990   -1.3939 H   0  0  0  0  0  0  0  0  0  0  0  0
  1  2  1  0
  1 26  1  0
  1 27  1  0
  1 28  1  0
  2  3  2  0
  2 25  1  0
  3  4  1  0
  3 29  1  0
  4  5  2  0
  4 30  1  0
  5  6  1  0
  5 31  1  0
  6  7  1  0
  6 25  2  0
  7  8  2  0
  8  9  1  0
  8 24  1  0
  9 10  1  0
  9 23  1  0
  9 32  1  6
 10 11  1  0
 10 33  1  0
 10 34  1  0
 11 12  1  0
 11 35  1  0
 11 36  1  0
 12 13  1  0
 12 22  1  0
 13 14  2  0
 13 15  1  0
 15 16  1  0
 15 37  1  0
 16 17  1  0
 16 38  1  0
 16 39  1  0
 17 18  1  0
 17 40  1  0
 17 41  1  0
 18 19  1  0
 18 42  1  0
 18 43  1  0
 19 20  2  0
 19 21  1  0
 21 44  1  0
 22 23  1  0
 22 45  1  0
 22 46  1  0
 23 47  1  0
 23 48  1  0
 24 25  1  0
M  END

