
     RDKit          3D

 58 64  0  0  0  0  0  0  0  0999 V2000
    1.7315    0.1029   -0.1874 F   0  0  0  0  0  0  0  0  0  0  0  0
    3.1055    0.1272    0.0203 B   0  0  1  0  0  0  0  0  0  0  0  0
    3.8083    0.0306   -1.1739 F   0  0  0  0  0  0  0  0  0  0  0  0
    3.4459    1.4638    0.7841 N   0  0  0  0  0  0  0  0  0  0  0  0
    3.1026    2.7452    0.4758 C   0  0  0  0  0  0  0  0  0  0  0  0
    2.4316    3.2184   -0.7438 C   0  0  0  0  0  0  0  0  0  0  0  0
    2.6380    2.6482   -2.0164 C   0  0  0  0  0  0  0  0  0  0  0  0
    2.0048    3.1807   -3.1397 C   0  0  0  0  0  0  0  0  0  0  0  0
    1.1525    4.2826   -3.0236 C   0  0  0  0  0  0  0  0  0  0  0  0
    0.9365    4.8572   -1.7668 C   0  0  0  0  0  0  0  0  0  0  0  0
    1.5722    4.3352   -0.6419 C   0  0  0  0  0  0  0  0  0  0  0  0
    3.4974    3.5958    1.5436 C   0  0  0  0  0  0  0  0  0  0  0  0
    4.1018    2.8230    2.5303 C   0  0  0  0  0  0  0  0  0  0  0  0
    4.6759    3.3056    3.7972 C   0  0  0  0  0  0  0  0  0  0  0  0
    4.2535    4.5403    4.3352 C   0  0  0  0  0  0  0  0  0  0  0  0
    4.8280    5.0027    5.5166 C   0  0  0  0  0  0  0  0  0  0  0  0
    5.8062    4.2246    6.1387 C   0  0  0  0  0  0  0  0  0  0  0  0
    6.1542    3.0097    5.5382 C   0  0  0  0  0  0  0  0  0  0  0  0
    5.6133    2.5595    4.4085 N   0  0  0  0  0  0  0  0  0  0  0  0
    4.0382    1.4703    2.0470 C   0  0  0  0  0  0  0  0  0  0  0  0
    4.3887    0.3740    2.6949 N   0  0  0  0  0  0  0  0  0  0  0  0
    4.1924   -0.8183    2.1822 C   0  0  0  0  0  0  0  0  0  0  0  0
    4.6084   -2.0806    2.7473 C   0  0  0  0  0  0  0  0  0  0  0  0
    5.2833   -2.3398    4.0277 C   0  0  0  0  0  0  0  0  0  0  0  0
    5.7210   -1.3065    4.8805 C   0  0  0  0  0  0  0  0  0  0  0  0
    6.3516   -1.6530    6.0757 C   0  0  0  0  0  0  0  0  0  0  0  0
    6.5322   -3.0013    6.3875 C   0  0  0  0  0  0  0  0  0  0  0  0
    6.0691   -3.9548    5.4714 C   0  0  0  0  0  0  0  0  0  0  0  0
    5.4658   -3.6409    4.3302 N   0  0  0  0  0  0  0  0  0  0  0  0
    4.2485   -3.0412    1.8185 C   0  0  0  0  0  0  0  0  0  0  0  0
    3.6162   -2.3948    0.7162 C   0  0  0  0  0  0  0  0  0  0  0  0
    3.1219   -3.1065   -0.4695 C   0  0  0  0  0  0  0  0  0  0  0  0
    2.0163   -2.6794   -1.2341 C   0  0  0  0  0  0  0  0  0  0  0  0
    1.5809   -3.4302   -2.3259 C   0  0  0  0  0  0  0  0  0  0  0  0
    2.2345   -4.6125   -2.6854 C   0  0  0  0  0  0  0  0  0  0  0  0
    3.3332   -5.0482   -1.9370 C   0  0  0  0  0  0  0  0  0  0  0  0
    3.7673   -4.3090   -0.8390 C   0  0  0  0  0  0  0  0  0  0  0  0
    3.5718   -1.0542    0.9512 N   0  0  0  0  0  0  0  0  0  0  0  0
    3.3022    1.7932   -2.1235 H   0  0  0  0  0  0  0  0  0  0  0  0
    2.1831    2.7280   -4.1184 H   0  0  0  0  0  0  0  0  0  0  0  0
    0.6571    4.6919   -3.9079 H   0  0  0  0  0  0  0  0  0  0  0  0
    0.2648    5.7128   -1.6611 H   0  0  0  0  0  0  0  0  0  0  0  0
    1.3785    4.7789    0.3367 H   0  0  0  0  0  0  0  0  0  0  0  0
    3.4010    4.6783    1.5292 H   0  0  0  0  0  0  0  0  0  0  0  0
    3.4724    5.1178    3.8385 H   0  0  0  0  0  0  0  0  0  0  0  0
    4.5116    5.9556    5.9485 H   0  0  0  0  0  0  0  0  0  0  0  0
    6.2875    4.5442    7.0656 H   0  0  0  0  0  0  0  0  0  0  0  0
    6.9176    2.3704    5.9986 H   0  0  0  0  0  0  0  0  0  0  0  0
    5.5692   -0.2642    4.5950 H   0  0  0  0  0  0  0  0  0  0  0  0
    6.7003   -0.8721    6.7566 H   0  0  0  0  0  0  0  0  0  0  0  0
    7.0209   -3.3145    7.3129 H   0  0  0  0  0  0  0  0  0  0  0  0
    6.1966   -5.0245    5.6784 H   0  0  0  0  0  0  0  0  0  0  0  0
    4.3971   -4.1100    1.9362 H   0  0  0  0  0  0  0  0  0  0  0  0
    1.4916   -1.7663   -0.9622 H   0  0  0  0  0  0  0  0  0  0  0  0
    0.7176   -3.0858   -2.9008 H   0  0  0  0  0  0  0  0  0  0  0  0
    1.8899   -5.1931   -3.5450 H   0  0  0  0  0  0  0  0  0  0  0  0
    3.8569   -5.9670   -2.2120 H   0  0  0  0  0  0  0  0  0  0  0  0
    4.6359   -4.6514   -0.2740 H   0  0  0  0  0  0  0  0  0  0  0  0
  2  1  1  6
  2  3  1  0
  2  4  1  0
  2 38  1  0
  4  5  1  0
  4 20  1  0
  5  6  1  0
  5 12  2  0
  6  7  2  0
  6 11  1  0
  7  8  1  0
  7 39  1  0
  8  9  2  0
  8 40  1  0
  9 10  1  0
  9 41  1  0
 10 11  2  0
 10 42  1  0
 11 43  1  0
 12 13  1  0
 12 44  1  0
 13 14  1  0
 13 20  2  0
 14 15  2  0
 14 19  1  0
 15 16  1  0
 15 45  1  0
 16 17  2  0
 16 46  1  0
 17 18  1  0
 17 47  1  0
 18 19  2  0
 18 48  1  0
 20 21  1  0
 21 22  2  0
 22 23  1  0
 22 38  1  0
 23 24  1  0
 23 30  2  0
 24 25  2  0
 24 29  1  0
 25 26  1  0
 25 49  1  0
 26 27  2  0
 26 50  1  0
 27 28  1  0
 27 51  1  0
 28 29  2  0
 28 52  1  0
 30 31  1  0
 30 53  1  0
 31 32  1  0
 31 38  2  0
 32 33  2  0
 32 37  1  0
 33 34  1  0
 33 54  1  0
 34 35  2  0
 34 55  1  0
 35 36  1  0
 35 56  1  0
 36 37  2  0
 36 57  1  0
 37 58  1  0
M  CHG  2   2  -1  38   1
M  END

