
     RDKit          3D

 39 40  0  0  0  0  0  0  0  0999 V2000
    0.7415   -0.0854    0.5706 C   0  0  0  0  0  0  0  0  0  0  0  0
    2.2427    0.0430    0.7536 C   0  0  0  0  0  0  0  0  0  0  0  0
    2.7823    0.7080   -0.3700 O   0  0  0  0  0  0  0  0  0  0  0  0
    4.1756    0.9812   -0.3267 C   0  0  1  0  0  0  0  0  0  0  0  0
    5.0184   -0.2541   -0.6889 C   0  0  0  0  0  0  0  0  0  0  0  0
    4.7954   -0.6787   -2.1428 C   0  0  0  0  0  0  0  0  0  0  0  0
    5.0424    0.4405   -3.0564 N   0  0  0  0  0  0  0  0  0  0  0  0
    5.8412    0.2354   -4.1560 C   0  0  0  0  0  0  0  0  0  0  0  0
    6.3293   -0.8591   -4.4005 O   0  0  0  0  0  0  0  0  0  0  0  0
    6.1141    1.4308   -5.1147 C   0  0  1  0  0  0  0  0  0  0  0  0
    6.9777    2.5373   -4.4905 C   0  0  0  0  0  0  0  0  0  0  0  0
    8.3579    2.1024   -4.3828 N   0  0  0  0  0  0  0  0  0  0  0  0
    9.0041    1.2967   -5.2838 C   0  0  0  0  0  0  0  0  0  0  0  0
   10.2109    1.1378   -5.2608 O   0  0  0  0  0  0  0  0  0  0  0  0
    8.1192    0.5419   -6.2645 C   0  0  0  0  0  0  0  0  0  0  0  0
    6.7452    1.0397   -6.3604 N   0  0  0  0  0  0  0  0  0  0  0  0
    4.2261    1.6204   -2.7747 C   0  0  0  0  0  0  0  0  0  0  0  0
    4.4378    2.1045   -1.3350 C   0  0  0  0  0  0  0  0  0  0  0  0
    0.2883   -0.5904    1.4379 H   0  0  0  0  0  0  0  0  0  0  0  0
    0.5088   -0.6707   -0.3325 H   0  0  0  0  0  0  0  0  0  0  0  0
    0.2787    0.9078    0.4627 H   0  0  0  0  0  0  0  0  0  0  0  0
    2.6966   -0.9603    0.8804 H   0  0  0  0  0  0  0  0  0  0  0  0
    2.4733    0.6147    1.6770 H   0  0  0  0  0  0  0  0  0  0  0  0
    4.4476    1.3304    0.6898 H   0  0  0  0  0  0  0  0  0  0  0  0
    4.7793   -1.0950   -0.0181 H   0  0  0  0  0  0  0  0  0  0  0  0
    6.0840   -0.0162   -0.5306 H   0  0  0  0  0  0  0  0  0  0  0  0
    3.7536   -1.0261   -2.2686 H   0  0  0  0  0  0  0  0  0  0  0  0
    5.4623   -1.4976   -2.4357 H   0  0  0  0  0  0  0  0  0  0  0  0
    5.1425    1.8860   -5.3716 H   0  0  0  0  0  0  0  0  0  0  0  0
    6.6172    2.8055   -3.4869 H   0  0  0  0  0  0  0  0  0  0  0  0
    6.8854    3.4364   -5.1289 H   0  0  0  0  0  0  0  0  0  0  0  0
    8.9825    2.6151   -3.7673 H   0  0  0  0  0  0  0  0  0  0  0  0
    8.1787   -0.5157   -5.9500 H   0  0  0  0  0  0  0  0  0  0  0  0
    8.6103    0.6245   -7.2473 H   0  0  0  0  0  0  0  0  0  0  0  0
    6.1714    0.3527   -6.8432 H   0  0  0  0  0  0  0  0  0  0  0  0
    3.1596    1.3600   -2.9042 H   0  0  0  0  0  0  0  0  0  0  0  0
    4.4480    2.4254   -3.4834 H   0  0  0  0  0  0  0  0  0  0  0  0
    3.7595    2.9457   -1.1224 H   0  0  0  0  0  0  0  0  0  0  0  0
    5.4736    2.4628   -1.2107 H   0  0  0  0  0  0  0  0  0  0  0  0
  1  2  1  0
  1 19  1  0
  1 20  1  0
  1 21  1  0
  2  3  1  0
  2 22  1  0
  2 23  1  0
  3  4  1  0
  4  5  1  0
  4 18  1  0
  4 24  1  1
  5  6  1  0
  5 25  1  0
  5 26  1  0
  6  7  1  0
  6 27  1  0
  6 28  1  0
  7  8  1  0
  7 17  1  0
  8  9  2  0
  8 10  1  0
 10 11  1  0
 10 16  1  0
 10 29  1  6
 11 12  1  0
 11 30  1  0
 11 31  1  0
 12 13  1  0
 12 32  1  0
 13 14  2  0
 13 15  1  0
 15 16  1  0
 15 33  1  0
 15 34  1  0
 16 35  1  0
 17 18  1  0
 17 36  1  0
 17 37  1  0
 18 38  1  0
 18 39  1  0
M  END

