
     RDKit          3D

 31 33  0  0  0  0  0  0  0  0999 V2000
    1.0029   -0.1302    0.1040 C   0  0  0  0  0  0  0  0  0  0  0  0
    2.5083   -0.0115    0.1077 C   0  0  0  0  0  0  0  0  0  0  0  0
    3.2969   -1.1547    0.2515 C   0  0  0  0  0  0  0  0  0  0  0  0
    4.6933   -1.0381    0.2572 C   0  0  0  0  0  0  0  0  0  0  0  0
    5.6678   -2.0197    0.3626 N   0  0  0  0  0  0  0  0  0  0  0  0
    6.7993   -1.3861    0.2907 C   0  0  0  0  0  0  0  0  0  0  0  0
    6.6647   -0.0058    0.1465 N   0  0  0  0  0  0  0  0  0  0  0  0
    7.7116    0.9374    0.0945 C   0  0  0  0  0  0  0  0  0  0  0  0
    7.6617    2.1196    0.8502 C   0  0  0  0  0  0  0  0  0  0  0  0
    8.7015    3.0474    0.7701 C   0  0  0  0  0  0  0  0  0  0  0  0
    8.6017    4.6485    1.7989 Br  0  0  0  0  0  0  0  0  0  0  0  0
    9.8164    2.8150   -0.0401 C   0  0  0  0  0  0  0  0  0  0  0  0
    9.8797    1.6336   -0.7818 C   0  0  0  0  0  0  0  0  0  0  0  0
    8.8368    0.7163   -0.7179 C   0  0  0  0  0  0  0  0  0  0  0  0
    8.9099   -0.4064   -1.4452 F   0  0  0  0  0  0  0  0  0  0  0  0
    5.2879    0.2360    0.1232 C   0  0  0  0  0  0  0  0  0  0  0  0
    4.5180    1.3926   -0.0352 C   0  0  0  0  0  0  0  0  0  0  0  0
    3.1240    1.2696   -0.0412 C   0  0  0  0  0  0  0  0  0  0  0  0
    2.2693    2.5025   -0.2098 C   0  0  0  0  0  0  0  0  0  0  0  0
    0.6868   -1.1770    0.2171 H   0  0  0  0  0  0  0  0  0  0  0  0
    0.5629    0.2530   -0.8324 H   0  0  0  0  0  0  0  0  0  0  0  0
    0.5443    0.4481    0.9245 H   0  0  0  0  0  0  0  0  0  0  0  0
    2.8407   -2.1418    0.3544 H   0  0  0  0  0  0  0  0  0  0  0  0
    7.7887   -1.8406    0.3405 H   0  0  0  0  0  0  0  0  0  0  0  0
    6.8101    2.2980    1.5061 H   0  0  0  0  0  0  0  0  0  0  0  0
   10.6261    3.5437   -0.0914 H   0  0  0  0  0  0  0  0  0  0  0  0
   10.7314    1.4141   -1.4285 H   0  0  0  0  0  0  0  0  0  0  0  0
    4.9781    2.3746   -0.1613 H   0  0  0  0  0  0  0  0  0  0  0  0
    2.8854    3.4081   -0.3081 H   0  0  0  0  0  0  0  0  0  0  0  0
    1.5911    2.6502    0.6478 H   0  0  0  0  0  0  0  0  0  0  0  0
    1.6285    2.4350   -1.1056 H   0  0  0  0  0  0  0  0  0  0  0  0
  1  2  1  0
  1 20  1  0
  1 21  1  0
  1 22  1  0
  2  3  2  0
  2 18  1  0
  3  4  1  0
  3 23  1  0
  4  5  1  0
  4 16  2  0
  5  6  2  0
  6  7  1  0
  6 24  1  0
  7  8  1  0
  7 16  1  0
  8  9  2  0
  8 14  1  0
  9 10  1  0
  9 25  1  0
 10 11  1  0
 10 12  2  0
 12 13  1  0
 12 26  1  0
 13 14  2  0
 13 27  1  0
 14 15  1  0
 16 17  1  0
 17 18  2  0
 17 28  1  0
 18 19  1  0
 19 29  1  0
 19 30  1  0
 19 31  1  0
M  END

