
     RDKit          3D

 37 39  0  0  0  0  0  0  0  0999 V2000
    0.9289    0.7679   -0.6159 C   0  0  0  0  0  0  0  0  0  0  0  0
    2.4489    0.6587   -0.5656 C   0  0  0  0  0  0  0  0  0  0  0  0
    2.9828    1.0655    1.1558 S   0  0  0  0  0  0  0  0  0  0  0  0
    4.6790    0.6743    1.2377 C   0  0  0  0  0  0  0  0  0  0  0  0
    5.4273    0.4388    2.3622 C   0  0  0  0  0  0  0  0  0  0  0  0
    5.0383    0.4320    3.7757 C   0  0  0  0  0  0  0  0  0  0  0  0
    5.7335   -0.3630    4.7149 C   0  0  0  0  0  0  0  0  0  0  0  0
    5.3518   -0.3957    6.0537 C   0  0  0  0  0  0  0  0  0  0  0  0
    4.2696    0.3784    6.4850 C   0  0  0  0  0  0  0  0  0  0  0  0
    3.7895    0.3389    8.1634 Cl  0  0  0  0  0  0  0  0  0  0  0  0
    3.5745    1.1890    5.5839 C   0  0  0  0  0  0  0  0  0  0  0  0
    3.9594    1.2116    4.2444 C   0  0  0  0  0  0  0  0  0  0  0  0
    6.8359    0.1574    1.9172 C   0  0  0  0  0  0  0  0  0  0  0  0
    7.8025   -0.1228    2.5837 O   0  0  0  0  0  0  0  0  0  0  0  0
    6.8524    0.2765    0.5119 N   0  0  0  0  0  0  0  0  0  0  0  0
    7.9903    0.0322   -0.3015 C   0  0  0  0  0  0  0  0  0  0  0  0
    9.0280    0.9673   -0.3463 C   0  0  0  0  0  0  0  0  0  0  0  0
   10.1541    0.7307   -1.1343 C   0  0  0  0  0  0  0  0  0  0  0  0
   10.2461   -0.4371   -1.8905 C   0  0  0  0  0  0  0  0  0  0  0  0
    9.2157   -1.3820   -1.8511 C   0  0  0  0  0  0  0  0  0  0  0  0
    9.3637   -2.8340   -2.7976 Cl  0  0  0  0  0  0  0  0  0  0  0  0
    8.0840   -1.1594   -1.0481 C   0  0  0  0  0  0  0  0  0  0  0  0
    6.8186   -2.3433   -0.9498 Cl  0  0  0  0  0  0  0  0  0  0  0  0
    5.5822    0.6083    0.0279 C   0  0  0  0  0  0  0  0  0  0  0  0
    5.3091    0.8080   -1.1298 O   0  0  0  0  0  0  0  0  0  0  0  0
    0.5789    0.5411   -1.6353 H   0  0  0  0  0  0  0  0  0  0  0  0
    0.5867    1.7841   -0.3632 H   0  0  0  0  0  0  0  0  0  0  0  0
    0.4443    0.0613    0.0759 H   0  0  0  0  0  0  0  0  0  0  0  0
    2.9375    1.3494   -1.2622 H   0  0  0  0  0  0  0  0  0  0  0  0
    2.7915   -0.3582   -0.8024 H   0  0  0  0  0  0  0  0  0  0  0  0
    6.5847   -0.9589    4.3890 H   0  0  0  0  0  0  0  0  0  0  0  0
    5.8905   -1.0207    6.7677 H   0  0  0  0  0  0  0  0  0  0  0  0
    2.7425    1.8024    5.9332 H   0  0  0  0  0  0  0  0  0  0  0  0
    3.4253    1.8746    3.5630 H   0  0  0  0  0  0  0  0  0  0  0  0
    8.9380    1.8795    0.2452 H   0  0  0  0  0  0  0  0  0  0  0  0
   10.9641    1.4624   -1.1657 H   0  0  0  0  0  0  0  0  0  0  0  0
   11.1161   -0.6345   -2.5186 H   0  0  0  0  0  0  0  0  0  0  0  0
  1  2  1  0
  1 26  1  0
  1 27  1  0
  1 28  1  0
  2  3  1  0
  2 29  1  0
  2 30  1  0
  3  4  2  0
  4  5  1  0
  4 24  1  0
  5  6  1  0
  5 13  2  0
  6  7  2  0
  6 12  1  0
  7  8  1  0
  7 31  1  0
  8  9  2  0
  8 32  1  0
  9 10  1  0
  9 11  1  0
 11 12  2  0
 11 33  1  0
 12 34  1  0
 13 14  1  0
 13 15  1  0
 15 16  1  0
 15 24  1  0
 16 17  2  0
 16 22  1  0
 17 18  1  0
 17 35  1  0
 18 19  2  0
 18 36  1  0
 19 20  1  0
 19 37  1  0
 20 21  1  0
 20 22  2  0
 22 23  1  0
 24 25  2  0
M  CHG  2   3   1  14  -1
M  END

