
     RDKit          3D

 41 43  0  0  0  0  0  0  0  0999 V2000
    1.3229    0.9094   -0.7224 N   0  0  0  0  0  0  0  0  0  0  0  0
    2.5679    0.4334   -0.3623 C   0  0  0  0  0  0  0  0  0  0  0  0
    3.0934   -0.6844   -0.7287 N   0  0  0  0  0  0  0  0  0  0  0  0
    2.4550   -1.5978   -1.5701 C   0  0  0  0  0  0  0  0  0  0  0  0
    2.4454   -2.9593   -1.2119 C   0  0  0  0  0  0  0  0  0  0  0  0
    1.8549   -3.9251   -2.0267 C   0  0  0  0  0  0  0  0  0  0  0  0
    1.2709   -3.5635   -3.2501 C   0  0  0  0  0  0  0  0  0  0  0  0
    0.6905   -4.4303   -4.1221 O   0  0  0  0  0  0  0  0  0  0  0  0
    0.4563   -5.7881   -3.7806 C   0  0  1  0  0  0  0  0  0  0  0  0
   -0.7352   -6.0155   -2.8387 C   0  0  0  0  0  0  0  0  0  0  0  0
   -1.0633   -7.5015   -3.0489 C   0  0  0  0  0  0  0  0  0  0  0  0
   -0.7394   -7.7870   -4.5447 C   0  0  0  0  0  0  0  0  0  0  0  0
    0.0609   -6.5597   -5.0466 C   0  0  0  0  0  0  0  0  0  0  0  0
    1.2965   -2.2093   -3.6519 C   0  0  0  0  0  0  0  0  0  0  0  0
    0.6704   -1.8033   -4.9486 C   0  0  0  0  0  0  0  0  0  0  0  0
   -1.1414   -1.5577   -4.7866 Cl  0  0  0  0  0  0  0  0  0  0  0  0
    1.8789   -1.2542   -2.8113 C   0  0  0  0  0  0  0  0  0  0  0  0
    3.3651    1.3105    0.5219 C   0  0  0  0  0  0  0  0  0  0  0  0
    4.4975    0.9602    1.2254 C   0  0  0  0  0  0  0  0  0  0  0  0
    5.0357    2.0343    1.9878 C   0  0  0  0  0  0  0  0  0  0  0  0
    4.3119    3.1952    1.8555 C   0  0  0  0  0  0  0  0  0  0  0  0
    2.9708    2.9924    0.7861 S   0  0  0  0  0  0  0  0  0  0  0  0
    0.6997    0.2636   -1.1965 H   0  0  0  0  0  0  0  0  0  0  0  0
    0.8656    1.5587   -0.0925 H   0  0  0  0  0  0  0  0  0  0  0  0
    2.9114   -3.2491   -0.2676 H   0  0  0  0  0  0  0  0  0  0  0  0
    1.8581   -4.9651   -1.7000 H   0  0  0  0  0  0  0  0  0  0  0  0
    1.3744   -6.2265   -3.3458 H   0  0  0  0  0  0  0  0  0  0  0  0
   -1.5602   -5.3697   -3.1853 H   0  0  0  0  0  0  0  0  0  0  0  0
   -0.5296   -5.7556   -1.7896 H   0  0  0  0  0  0  0  0  0  0  0  0
   -2.1036   -7.7430   -2.7832 H   0  0  0  0  0  0  0  0  0  0  0  0
   -0.4222   -8.1197   -2.3986 H   0  0  0  0  0  0  0  0  0  0  0  0
   -1.6575   -7.9213   -5.1368 H   0  0  0  0  0  0  0  0  0  0  0  0
   -0.1639   -8.7194   -4.6510 H   0  0  0  0  0  0  0  0  0  0  0  0
   -0.5751   -5.8906   -5.6479 H   0  0  0  0  0  0  0  0  0  0  0  0
    0.9317   -6.8241   -5.6649 H   0  0  0  0  0  0  0  0  0  0  0  0
    0.7905   -2.5713   -5.7201 H   0  0  0  0  0  0  0  0  0  0  0  0
    1.0679   -0.8462   -5.3072 H   0  0  0  0  0  0  0  0  0  0  0  0
    1.9037   -0.2134   -3.1445 H   0  0  0  0  0  0  0  0  0  0  0  0
    4.9057   -0.0490    1.1774 H   0  0  0  0  0  0  0  0  0  0  0  0
    5.9268    1.9533    2.6124 H   0  0  0  0  0  0  0  0  0  0  0  0
    4.4990    4.1646    2.3155 H   0  0  0  0  0  0  0  0  0  0  0  0
  1  2  1  0
  1 23  1  0
  1 24  1  0
  2  3  2  0
  2 18  1  0
  3  4  1  0
  4  5  2  0
  4 17  1  0
  5  6  1  0
  5 25  1  0
  6  7  2  0
  6 26  1  0
  7  8  1  0
  7 14  1  0
  8  9  1  0
  9 10  1  0
  9 13  1  0
  9 27  1  1
 10 11  1  0
 10 28  1  0
 10 29  1  0
 11 12  1  0
 11 30  1  0
 11 31  1  0
 12 13  1  0
 12 32  1  0
 12 33  1  0
 13 34  1  0
 13 35  1  0
 14 15  1  0
 14 17  2  0
 15 16  1  0
 15 36  1  0
 15 37  1  0
 17 38  1  0
 18 19  2  0
 18 22  1  0
 19 20  1  0
 19 39  1  0
 20 21  2  0
 20 40  1  0
 21 22  1  0
 21 41  1  0
M  END

