
     RDKit          3D

 97 97  0  0  0  0  0  0  0  0999 V2000
    8.6062   -3.8030    1.9135 C   0  0  0  0  0  0  0  0  0  0  0  0
    9.0490   -4.5450    0.6516 C   0  0  0  0  0  0  0  0  0  0  0  0
    9.3604   -3.6188   -0.5282 C   0  0  0  0  0  0  0  0  0  0  0  0
    9.8045   -4.3540   -1.7960 C   0  0  0  0  0  0  0  0  0  0  0  0
   10.1168   -3.4277   -2.9751 C   0  0  0  0  0  0  0  0  0  0  0  0
   10.5607   -4.1639   -4.2427 C   0  0  0  0  0  0  0  0  0  0  0  0
   10.8755   -3.2379   -5.4213 C   0  0  0  0  0  0  0  0  0  0  0  0
   11.3195   -3.9749   -6.6882 C   0  0  0  0  0  0  0  0  0  0  0  0
   11.6423   -3.0478   -7.8636 C   0  0  0  0  0  0  0  0  0  0  0  0
   12.0874   -3.7951   -9.1243 C   0  0  0  0  0  0  0  0  0  0  0  0
   12.4141   -2.8832  -10.3086 C   0  0  0  0  0  0  0  0  0  0  0  0
   13.6956   -2.0725  -10.1063 C   0  0  0  0  0  0  0  0  0  0  0  0
   14.6002   -2.4473   -9.3782 O   0  0  0  0  0  0  0  0  0  0  0  0
   13.7632   -0.9088  -10.8258 N   0  0  0  0  0  0  0  0  0  0  0  0
   14.9334   -0.0532  -10.8279 C   0  0  0  0  0  0  0  0  0  0  0  0
   15.7964   -0.2253  -12.0865 C   0  0  0  0  0  0  0  0  0  0  0  0
   16.9306    0.6736  -12.0931 N   0  0  0  0  0  0  0  0  0  0  0  0
   17.5587    0.9988  -13.3178 C   0  0  0  0  0  0  0  0  0  0  0  0
   18.8700    1.2199  -13.1168 C   0  0  0  0  0  0  0  0  0  0  0  0
   19.1763    1.0580  -11.7450 N   0  0  0  0  0  0  0  0  0  0  0  0
   20.4793    0.5845  -11.3251 C   0  0  0  0  0  0  0  0  0  0  0  0
   21.5866    1.6178  -11.5762 C   0  0  0  0  0  0  0  0  0  0  0  0
   22.8949    1.1548  -11.1506 N   0  0  0  0  0  0  0  0  0  0  0  0
   23.3226    1.2761   -9.8558 C   0  0  0  0  0  0  0  0  0  0  0  0
   22.6503    1.8258   -8.9983 O   0  0  0  0  0  0  0  0  0  0  0  0
   24.6882    0.6607   -9.5566 C   0  0  0  0  0  0  0  0  0  0  0  0
   25.4737    1.4545   -8.5109 C   0  0  0  0  0  0  0  0  0  0  0  0
   26.7653    0.7667   -8.0624 C   0  0  0  0  0  0  0  0  0  0  0  0
   27.5523    1.5661   -7.0198 C   0  0  0  0  0  0  0  0  0  0  0  0
   28.8391    0.8805   -6.5512 C   0  0  0  0  0  0  0  0  0  0  0  0
   29.6253    1.6835   -5.5107 C   0  0  0  0  0  0  0  0  0  0  0  0
   30.9113    0.9987   -5.0383 C   0  0  0  0  0  0  0  0  0  0  0  0
   31.6970    1.8034   -3.9987 C   0  0  0  0  0  0  0  0  0  0  0  0
   32.9825    1.1196   -3.5242 C   0  0  0  0  0  0  0  0  0  0  0  0
   33.7683    1.9251   -2.4848 C   0  0  0  0  0  0  0  0  0  0  0  0
   35.0503    1.2354   -2.0158 C   0  0  0  0  0  0  0  0  0  0  0  0
   18.0266    0.3575  -11.1727 C   0  0  0  0  0  0  0  0  0  0  0  0
    8.3912   -4.4994    2.7399 H   0  0  0  0  0  0  0  0  0  0  0  0
    7.6932   -3.2113    1.7313 H   0  0  0  0  0  0  0  0  0  0  0  0
    9.3854   -3.1042    2.2620 H   0  0  0  0  0  0  0  0  0  0  0  0
    8.2639   -5.2631    0.3513 H   0  0  0  0  0  0  0  0  0  0  0  0
    9.9416   -5.1567    0.8775 H   0  0  0  0  0  0  0  0  0  0  0  0
   10.1463   -2.9000   -0.2287 H   0  0  0  0  0  0  0  0  0  0  0  0
    8.4677   -3.0060   -0.7551 H   0  0  0  0  0  0  0  0  0  0  0  0
    9.0184   -5.0724   -2.0950 H   0  0  0  0  0  0  0  0  0  0  0  0
   10.6966   -4.9669   -1.5682 H   0  0  0  0  0  0  0  0  0  0  0  0
   10.9034   -2.7099   -2.6765 H   0  0  0  0  0  0  0  0  0  0  0  0
    9.2250   -2.8143   -3.2031 H   0  0  0  0  0  0  0  0  0  0  0  0
    9.7737   -4.8812   -4.5422 H   0  0  0  0  0  0  0  0  0  0  0  0
   11.4518   -4.7779   -4.0143 H   0  0  0  0  0  0  0  0  0  0  0  0
   11.6635   -2.5219   -5.1225 H   0  0  0  0  0  0  0  0  0  0  0  0
    9.9847   -2.6228   -5.6495 H   0  0  0  0  0  0  0  0  0  0  0  0
   10.5303   -4.6893   -6.9900 H   0  0  0  0  0  0  0  0  0  0  0  0
   12.2087   -4.5907   -6.4592 H   0  0  0  0  0  0  0  0  0  0  0  0
   12.4384   -2.3452   -7.5616 H   0  0  0  0  0  0  0  0  0  0  0  0
   10.7537   -2.4302   -8.0957 H   0  0  0  0  0  0  0  0  0  0  0  0
   11.2994   -4.5055   -9.4295 H   0  0  0  0  0  0  0  0  0  0  0  0
   12.9854   -4.3917   -8.8955 H   0  0  0  0  0  0  0  0  0  0  0  0
   11.5693   -2.2079  -10.5326 H   0  0  0  0  0  0  0  0  0  0  0  0
   12.5693   -3.4938  -11.2167 H   0  0  0  0  0  0  0  0  0  0  0  0
   12.9811   -0.6633  -11.4208 H   0  0  0  0  0  0  0  0  0  0  0  0
   15.5132   -0.3173   -9.9321 H   0  0  0  0  0  0  0  0  0  0  0  0
   14.6327    1.0041  -10.7389 H   0  0  0  0  0  0  0  0  0  0  0  0
   15.1839   -0.0079  -12.9778 H   0  0  0  0  0  0  0  0  0  0  0  0
   16.1125   -1.2905  -12.1623 H   0  0  0  0  0  0  0  0  0  0  0  0
   16.9703    1.1536  -14.2207 H   0  0  0  0  0  0  0  0  0  0  0  0
   19.6036    1.6047  -13.8220 H   0  0  0  0  0  0  0  0  0  0  0  0
   20.7481   -0.3835  -11.8078 H   0  0  0  0  0  0  0  0  0  0  0  0
   20.4416    0.4017  -10.2398 H   0  0  0  0  0  0  0  0  0  0  0  0
   21.3458    2.5331  -11.0169 H   0  0  0  0  0  0  0  0  0  0  0  0
   21.6433    1.8800  -12.6446 H   0  0  0  0  0  0  0  0  0  0  0  0
   23.4711    0.6436  -11.8074 H   0  0  0  0  0  0  0  0  0  0  0  0
   25.2741    0.5421  -10.4848 H   0  0  0  0  0  0  0  0  0  0  0  0
   24.4999   -0.3612   -9.1775 H   0  0  0  0  0  0  0  0  0  0  0  0
   24.8120    1.6279   -7.6469 H   0  0  0  0  0  0  0  0  0  0  0  0
   25.7074    2.4557   -8.9154 H   0  0  0  0  0  0  0  0  0  0  0  0
   27.4115    0.5781   -8.9406 H   0  0  0  0  0  0  0  0  0  0  0  0
   26.5234   -0.2313   -7.6507 H   0  0  0  0  0  0  0  0  0  0  0  0
   26.9023    1.7606   -6.1468 H   0  0  0  0  0  0  0  0  0  0  0  0
   27.7990    2.5612   -7.4345 H   0  0  0  0  0  0  0  0  0  0  0  0
   29.4873    0.6833   -7.4256 H   0  0  0  0  0  0  0  0  0  0  0  0
   28.5917   -0.1134   -6.1337 H   0  0  0  0  0  0  0  0  0  0  0  0
   28.9762    1.8822   -4.6376 H   0  0  0  0  0  0  0  0  0  0  0  0
   29.8737    2.6770   -5.9288 H   0  0  0  0  0  0  0  0  0  0  0  0
   31.5602    0.7991   -5.9115 H   0  0  0  0  0  0  0  0  0  0  0  0
   30.6627    0.0058   -4.6191 H   0  0  0  0  0  0  0  0  0  0  0  0
   31.0474    2.0037   -3.1262 H   0  0  0  0  0  0  0  0  0  0  0  0
   31.9458    2.7961   -4.4185 H   0  0  0  0  0  0  0  0  0  0  0  0
   33.6328    0.9188   -4.3964 H   0  0  0  0  0  0  0  0  0  0  0  0
   32.7342    0.1270   -3.1035 H   0  0  0  0  0  0  0  0  0  0  0  0
   33.1175    2.1255   -1.6141 H   0  0  0  0  0  0  0  0  0  0  0  0
   34.0158    2.9166   -2.9062 H   0  0  0  0  0  0  0  0  0  0  0  0
   34.8336    0.2572   -1.5542 H   0  0  0  0  0  0  0  0  0  0  0  0
   35.5885    1.8424   -1.2701 H   0  0  0  0  0  0  0  0  0  0  0  0
   35.7398    1.0550   -2.8577 H   0  0  0  0  0  0  0  0  0  0  0  0
   17.8247    0.6830  -10.1377 H   0  0  0  0  0  0  0  0  0  0  0  0
   18.2028   -0.7561  -11.1515 H   0  0  0  0  0  0  0  0  0  0  0  0
  1  2  1  0
  1 38  1  0
  1 39  1  0
  1 40  1  0
  2  3  1  0
  2 41  1  0
  2 42  1  0
  3  4  1  0
  3 43  1  0
  3 44  1  0
  4  5  1  0
  4 45  1  0
  4 46  1  0
  5  6  1  0
  5 47  1  0
  5 48  1  0
  6  7  1  0
  6 49  1  0
  6 50  1  0
  7  8  1  0
  7 51  1  0
  7 52  1  0
  8  9  1  0
  8 53  1  0
  8 54  1  0
  9 10  1  0
  9 55  1  0
  9 56  1  0
 10 11  1  0
 10 57  1  0
 10 58  1  0
 11 12  1  0
 11 59  1  0
 11 60  1  0
 12 13  2  0
 12 14  1  0
 14 15  1  0
 14 61  1  0
 15 16  1  0
 15 62  1  0
 15 63  1  0
 16 17  1  0
 16 64  1  0
 16 65  1  0
 17 18  1  0
 17 37  1  0
 18 19  2  0
 18 66  1  0
 19 20  1  0
 19 67  1  0
 20 21  1  0
 20 37  1  0
 21 22  1  0
 21 68  1  0
 21 69  1  0
 22 23  1  0
 22 70  1  0
 22 71  1  0
 23 24  1  0
 23 72  1  0
 24 25  2  0
 24 26  1  0
 26 27  1  0
 26 73  1  0
 26 74  1  0
 27 28  1  0
 27 75  1  0
 27 76  1  0
 28 29  1  0
 28 77  1  0
 28 78  1  0
 29 30  1  0
 29 79  1  0
 29 80  1  0
 30 31  1  0
 30 81  1  0
 30 82  1  0
 31 32  1  0
 31 83  1  0
 31 84  1  0
 32 33  1  0
 32 85  1  0
 32 86  1  0
 33 34  1  0
 33 87  1  0
 33 88  1  0
 34 35  1  0
 34 89  1  0
 34 90  1  0
 35 36  1  0
 35 91  1  0
 35 92  1  0
 36 93  1  0
 36 94  1  0
 36 95  1  0
 37 96  1  0
 37 97  1  0
M  END

