
     RDKit          3D

 39 39  0  0  0  0  0  0  0  0999 V2000
    1.8444    1.0842    5.4448 C   0  0  0  0  0  0  0  0  0  0  0  0
    0.9726   -0.0855    4.9917 C   0  0  1  0  0  0  0  0  0  0  0  0
   -0.3826    0.0522    5.3718 O   0  0  0  0  0  0  0  0  0  0  0  0
    1.0541   -0.3667    3.4783 C   0  0  1  0  0  0  0  0  0  0  0  0
    0.3241   -1.6010    3.1948 N   0  0  0  0  0  0  0  0  0  0  0  0
    0.5138   -2.3157    2.0641 C   0  0  0  0  0  0  0  0  0  0  0  0
    1.2636   -1.9119    1.1649 O   0  0  0  0  0  0  0  0  0  0  0  0
   -0.2050   -3.6455    1.9621 C   0  0  0  0  0  0  0  0  0  0  0  0
   -0.7662   -3.8792    0.5525 C   0  0  0  0  0  0  0  0  0  0  0  0
   -1.3070   -5.2153    0.3740 N   0  0  0  0  0  0  0  0  0  0  0  0
   -2.4993   -5.5768    0.9408 C   0  0  0  0  0  0  0  0  0  0  0  0
   -3.1250   -4.8082    1.6589 O   0  0  0  0  0  0  0  0  0  0  0  0
   -3.0019   -6.9622    0.6309 C   0  0  0  0  0  0  0  0  0  0  0  0
   -2.1748   -8.0072    0.1873 C   0  0  0  0  0  0  0  0  0  0  0  0
   -2.7096   -9.2721   -0.0703 C   0  0  0  0  0  0  0  0  0  0  0  0
   -4.0757   -9.5051    0.1139 C   0  0  0  0  0  0  0  0  0  0  0  0
   -4.9035   -8.4725    0.5686 C   0  0  0  0  0  0  0  0  0  0  0  0
   -4.3684   -7.2117    0.8330 C   0  0  0  0  0  0  0  0  0  0  0  0
    0.4821    0.7891    2.6213 C   0  0  0  0  0  0  0  0  0  0  0  0
   -0.1371    1.7146    3.0978 O   0  0  0  0  0  0  0  0  0  0  0  0
    0.7053    0.6803    1.3197 O   0  0  0  0  0  0  0  0  0  0  0  0
    1.7490    1.2027    6.5343 H   0  0  0  0  0  0  0  0  0  0  0  0
    1.5319    2.0231    4.9655 H   0  0  0  0  0  0  0  0  0  0  0  0
    2.9061    0.9049    5.2089 H   0  0  0  0  0  0  0  0  0  0  0  0
    1.3300   -1.0016    5.4939 H   0  0  0  0  0  0  0  0  0  0  0  0
   -0.7055    0.8419    4.9019 H   0  0  0  0  0  0  0  0  0  0  0  0
    2.1033   -0.5218    3.1742 H   0  0  0  0  0  0  0  0  0  0  0  0
   -0.4170   -1.8381    3.8497 H   0  0  0  0  0  0  0  0  0  0  0  0
   -1.0127   -3.7224    2.7040 H   0  0  0  0  0  0  0  0  0  0  0  0
    0.5349   -4.4318    2.1940 H   0  0  0  0  0  0  0  0  0  0  0  0
    0.0341   -3.7223   -0.1832 H   0  0  0  0  0  0  0  0  0  0  0  0
   -1.5562   -3.1350    0.3549 H   0  0  0  0  0  0  0  0  0  0  0  0
   -0.9028   -5.8058   -0.3405 H   0  0  0  0  0  0  0  0  0  0  0  0
   -1.0991   -7.8527    0.0690 H   0  0  0  0  0  0  0  0  0  0  0  0
   -2.0555  -10.0800   -0.4076 H   0  0  0  0  0  0  0  0  0  0  0  0
   -4.4939  -10.4942   -0.0897 H   0  0  0  0  0  0  0  0  0  0  0  0
   -5.9705   -8.6537    0.7207 H   0  0  0  0  0  0  0  0  0  0  0  0
   -4.9920   -6.3951    1.2017 H   0  0  0  0  0  0  0  0  0  0  0  0
    1.1051   -0.2082    1.1139 H   0  0  0  0  0  0  0  0  0  0  0  0
  1  2  1  0
  1 22  1  0
  1 23  1  0
  1 24  1  0
  2  3  1  0
  2  4  1  0
  2 25  1  1
  3 26  1  0
  4  5  1  0
  4 19  1  0
  4 27  1  6
  5  6  1  0
  5 28  1  0
  6  7  2  0
  6  8  1  0
  8  9  1  0
  8 29  1  0
  8 30  1  0
  9 10  1  0
  9 31  1  0
  9 32  1  0
 10 11  1  0
 10 33  1  0
 11 12  2  0
 11 13  1  0
 13 14  2  0
 13 18  1  0
 14 15  1  0
 14 34  1  0
 15 16  2  0
 15 35  1  0
 16 17  1  0
 16 36  1  0
 17 18  2  0
 17 37  1  0
 18 38  1  0
 19 20  2  0
 19 21  1  0
 21 39  1  0
M  END

