
     RDKit          3D

 38 40  0  0  0  0  0  0  0  0999 V2000
    1.0097    0.2794   -0.0748 C   0  0  0  0  0  0  0  0  0  0  0  0
    2.4120   -0.1769   -0.2889 C   0  0  0  0  0  0  0  0  0  0  0  0
    3.2537    0.7341   -0.8016 O   0  0  0  0  0  0  0  0  0  0  0  0
    4.5250    0.2076   -0.9172 N   0  0  0  0  0  0  0  0  0  0  0  0
    4.4536   -1.0156   -0.4516 C   0  0  0  0  0  0  0  0  0  0  0  0
    5.6486   -1.8889   -0.4354 C   0  0  0  0  0  0  0  0  0  0  0  0
    5.6053   -3.1247   -1.0979 C   0  0  0  0  0  0  0  0  0  0  0  0
    4.4660   -3.4649   -1.7230 F   0  0  0  0  0  0  0  0  0  0  0  0
    6.6791   -4.0036   -1.1462 C   0  0  0  0  0  0  0  0  0  0  0  0
    7.8615   -3.6426   -0.4974 C   0  0  0  0  0  0  0  0  0  0  0  0
    7.9531   -2.4287    0.1840 C   0  0  0  0  0  0  0  0  0  0  0  0
    6.8550   -1.5624    0.2149 C   0  0  0  0  0  0  0  0  0  0  0  0
    7.0092   -0.0769    1.1141 Cl  0  0  0  0  0  0  0  0  0  0  0  0
    3.1079   -1.3385   -0.0452 C   0  0  0  0  0  0  0  0  0  0  0  0
    2.6872   -2.6196    0.5839 C   0  0  0  0  0  0  0  0  0  0  0  0
    3.4421   -3.2623    1.2901 O   0  0  0  0  0  0  0  0  0  0  0  0
    1.3878   -3.0004    0.2956 N   0  0  0  0  0  0  0  0  0  0  0  0
    0.6780   -4.1075    0.7704 C   0  0  0  0  0  0  0  0  0  0  0  0
    1.2275   -5.0646    1.6450 C   0  0  0  0  0  0  0  0  0  0  0  0
    0.4580   -6.1418    2.0825 C   0  0  0  0  0  0  0  0  0  0  0  0
    1.0502   -7.1659    3.0220 C   0  0  1  0  0  0  0  0  0  0  0  0
    2.3264   -6.9009    3.3323 F   0  0  0  0  0  0  0  0  0  0  0  0
    0.3570   -7.2267    4.1753 F   0  0  0  0  0  0  0  0  0  0  0  0
    1.0118   -8.4001    2.4837 F   0  0  0  0  0  0  0  0  0  0  0  0
   -0.8688   -6.3017    1.6647 C   0  0  0  0  0  0  0  0  0  0  0  0
   -1.4267   -5.3641    0.7996 C   0  0  0  0  0  0  0  0  0  0  0  0
   -0.6629   -4.2823    0.3622 C   0  0  0  0  0  0  0  0  0  0  0  0
   -1.3980   -3.1090   -0.7196 Cl  0  0  0  0  0  0  0  0  0  0  0  0
    1.0050    1.2313    0.4784 H   0  0  0  0  0  0  0  0  0  0  0  0
    0.4298   -0.4592    0.4918 H   0  0  0  0  0  0  0  0  0  0  0  0
    0.5053    0.4577   -1.0387 H   0  0  0  0  0  0  0  0  0  0  0  0
    6.5729   -4.9464   -1.6847 H   0  0  0  0  0  0  0  0  0  0  0  0
    8.7207   -4.3168   -0.5188 H   0  0  0  0  0  0  0  0  0  0  0  0
    8.8689   -2.1428    0.7023 H   0  0  0  0  0  0  0  0  0  0  0  0
    0.8970   -2.4583   -0.4072 H   0  0  0  0  0  0  0  0  0  0  0  0
    2.2592   -4.9454    1.9649 H   0  0  0  0  0  0  0  0  0  0  0  0
   -1.4631   -7.1495    2.0101 H   0  0  0  0  0  0  0  0  0  0  0  0
   -2.4580   -5.4600    0.4573 H   0  0  0  0  0  0  0  0  0  0  0  0
  1  2  1  0
  1 29  1  0
  1 30  1  0
  1 31  1  0
  2  3  1  0
  2 14  2  0
  3  4  1  0
  4  5  2  0
  5  6  1  0
  5 14  1  0
  6  7  2  0
  6 12  1  0
  7  8  1  0
  7  9  1  0
  9 10  2  0
  9 32  1  0
 10 11  1  0
 10 33  1  0
 11 12  2  0
 11 34  1  0
 12 13  1  0
 14 15  1  0
 15 16  2  0
 15 17  1  0
 17 18  1  0
 17 35  1  0
 18 19  2  0
 18 27  1  0
 19 20  1  0
 19 36  1  0
 20 21  1  0
 20 25  2  0
 21 22  1  1
 21 23  1  0
 21 24  1  0
 25 26  1  0
 25 37  1  0
 26 27  2  0
 26 38  1  0
 27 28  1  0
M  END

