
     RDKit          3D

 37 39  0  0  0  0  0  0  0  0999 V2000
    0.8713    1.5868    0.1570 C   0  0  0  0  0  0  0  0  0  0  0  0
    2.3275    1.2844   -0.1006 C   0  0  0  0  0  0  0  0  0  0  0  0
    3.3402    2.1590    0.3214 C   0  0  0  0  0  0  0  0  0  0  0  0
    4.6844    1.8889    0.0610 C   0  0  0  0  0  0  0  0  0  0  0  0
    5.0783    0.7338   -0.6419 C   0  0  0  0  0  0  0  0  0  0  0  0
    6.5091    0.4960   -0.9370 C   0  0  0  0  0  0  0  0  0  0  0  0
    7.4099    1.5103   -1.2403 C   0  0  0  0  0  0  0  0  0  0  0  0
    8.6515    0.9620   -1.4162 N   0  0  0  0  0  0  0  0  0  0  0  0
    9.4878    1.4785   -1.6543 H   0  0  0  0  0  0  0  0  0  0  0  0
    8.5862   -0.3915   -1.2238 C   0  0  0  0  0  0  0  0  0  0  0  0
    7.2747   -0.7328   -0.9344 C   0  0  0  0  0  0  0  0  0  0  0  0
    6.8415   -2.1480   -0.6232 C   0  0  1  0  0  0  0  0  0  0  0  0
    5.9933   -2.2174    0.5111 O   0  0  0  0  0  0  0  0  0  0  0  0
    6.1589   -2.8963   -1.7695 C   0  0  0  0  0  0  0  0  0  0  0  0
    6.5845   -2.7373   -3.0959 C   0  0  0  0  0  0  0  0  0  0  0  0
    6.0059   -3.4712   -4.1336 C   0  0  0  0  0  0  0  0  0  0  0  0
    4.9850   -4.3798   -3.8434 C   0  0  0  0  0  0  0  0  0  0  0  0
    4.2509   -5.3030   -5.1388 Cl  0  0  0  0  0  0  0  0  0  0  0  0
    4.5438   -4.5551   -2.5297 C   0  0  0  0  0  0  0  0  0  0  0  0
    5.1336   -3.8153   -1.5017 C   0  0  0  0  0  0  0  0  0  0  0  0
    4.0618   -0.1443   -1.0594 C   0  0  0  0  0  0  0  0  0  0  0  0
    2.7202    0.1271   -0.7913 C   0  0  0  0  0  0  0  0  0  0  0  0
    0.7384    2.2008    1.0612 H   0  0  0  0  0  0  0  0  0  0  0  0
    0.2818    0.6651    0.2807 H   0  0  0  0  0  0  0  0  0  0  0  0
    0.4246    2.1464   -0.6844 H   0  0  0  0  0  0  0  0  0  0  0  0
    3.0741    3.0636    0.8768 H   0  0  0  0  0  0  0  0  0  0  0  0
    5.4485    2.5774    0.4311 H   0  0  0  0  0  0  0  0  0  0  0  0
    7.2375    2.5768   -1.3659 H   0  0  0  0  0  0  0  0  0  0  0  0
    9.4720   -1.0206   -1.2901 H   0  0  0  0  0  0  0  0  0  0  0  0
    7.7767   -2.7138   -0.4181 H   0  0  0  0  0  0  0  0  0  0  0  0
    6.3246   -1.5897    1.1656 H   0  0  0  0  0  0  0  0  0  0  0  0
    7.3756   -2.0203   -3.3272 H   0  0  0  0  0  0  0  0  0  0  0  0
    6.3381   -3.3385   -5.1647 H   0  0  0  0  0  0  0  0  0  0  0  0
    3.7434   -5.2659   -2.3163 H   0  0  0  0  0  0  0  0  0  0  0  0
    4.7905   -3.9410   -0.4745 H   0  0  0  0  0  0  0  0  0  0  0  0
    4.3216   -1.0487   -1.6086 H   0  0  0  0  0  0  0  0  0  0  0  0
    1.9579   -0.5802   -1.1316 H   0  0  0  0  0  0  0  0  0  0  0  0
  1  2  1  0
  1 23  1  0
  1 24  1  0
  1 25  1  0
  2  3  2  0
  2 22  1  0
  3  4  1  0
  3 26  1  0
  4  5  2  0
  4 27  1  0
  5  6  1  0
  5 21  1  0
  6  7  2  0
  6 11  1  0
  7  8  1  0
  7 28  1  0
  8  9  1  0
  8 10  1  0
 10 11  2  0
 10 29  1  0
 11 12  1  0
 12 13  1  0
 12 14  1  0
 12 30  1  1
 13 31  1  0
 14 15  2  0
 14 20  1  0
 15 16  1  0
 15 32  1  0
 16 17  2  0
 16 33  1  0
 17 18  1  0
 17 19  1  0
 19 20  2  0
 19 34  1  0
 20 35  1  0
 21 22  2  0
 21 36  1  0
 22 37  1  0
M  END

