
     RDKit          3D

 23 25  0  0  0  0  0  0  0  0999 V2000
    1.0928   -0.0426    0.0950 N   0  0  0  0  0  0  0  0  0  0  0  0
    2.2537   -0.0290    0.0908 C   0  0  0  0  0  0  0  0  0  0  0  0
    3.6912    0.0001    0.0856 C   0  0  0  0  0  0  0  0  0  0  0  0
    4.3662    1.2614    0.0836 C   0  0  0  0  0  0  0  0  0  0  0  0
    5.7401    1.3088    0.0787 C   0  0  0  0  0  0  0  0  0  0  0  0
    6.5003    0.1064    0.0755 C   0  0  0  0  0  0  0  0  0  0  0  0
    7.8530    0.1638    0.0706 N   0  0  0  0  0  0  0  0  0  0  0  0
    8.5155   -0.9661    0.0678 C   0  0  0  0  0  0  0  0  0  0  0  0
   10.0167   -0.9349    0.0624 C   0  0  0  0  0  0  0  0  0  0  0  0
   10.6880    0.0669    0.0603 O   0  0  0  0  0  0  0  0  0  0  0  0
   10.5897   -2.2100    0.0599 N   0  0  0  0  0  0  0  0  0  0  0  0
   11.6070   -2.2423    0.0562 H   0  0  0  0  0  0  0  0  0  0  0  0
    9.9645   -3.4571    0.0618 C   0  0  0  0  0  0  0  0  0  0  0  0
   10.5742   -4.4994    0.0594 O   0  0  0  0  0  0  0  0  0  0  0  0
    8.5772   -3.3919    0.0667 N   0  0  0  0  0  0  0  0  0  0  0  0
    8.0810   -4.2793    0.0683 H   0  0  0  0  0  0  0  0  0  0  0  0
    7.8319   -2.2330    0.0698 C   0  0  0  0  0  0  0  0  0  0  0  0
    6.5218   -2.3248    0.0745 N   0  0  0  0  0  0  0  0  0  0  0  0
    5.8240   -1.1626    0.0775 C   0  0  0  0  0  0  0  0  0  0  0  0
    4.4061   -1.1901    0.0826 C   0  0  0  0  0  0  0  0  0  0  0  0
    3.7759    2.1791    0.0861 H   0  0  0  0  0  0  0  0  0  0  0  0
    6.2840    2.2551    0.0771 H   0  0  0  0  0  0  0  0  0  0  0  0
    3.9031   -2.1578    0.0840 H   0  0  0  0  0  0  0  0  0  0  0  0
  1  2  3  0
  2  3  1  0
  3  4  2  0
  3 20  1  0
  4  5  1  0
  4 21  1  0
  5  6  2  0
  5 22  1  0
  6  7  1  0
  6 19  1  0
  7  8  2  0
  8  9  1  0
  8 17  1  0
  9 10  2  0
  9 11  1  0
 11 12  1  0
 11 13  1  0
 13 14  2  0
 13 15  1  0
 15 16  1  0
 15 17  1  0
 17 18  2  0
 18 19  1  0
 19 20  2  0
 20 23  1  0
M  END

