
     RDKit          3D

 37 38  0  0  0  0  0  0  0  0999 V2000
    0.7290   -0.6327   -2.9035 C   0  0  0  0  0  0  0  0  0  0  0  0
    2.2505   -0.4939   -3.0340 C   0  0  1  0  0  0  0  0  0  0  0  0
    2.6069    0.7375   -3.8866 C   0  0  0  0  0  0  0  0  0  0  0  0
    2.9409   -0.4156   -1.6550 C   0  0  1  0  0  0  0  0  0  0  0  0
    2.6431   -2.0906   -0.6007 Br  0  0  0  0  0  0  0  0  0  0  0  0
    4.4379   -0.0795   -1.7323 C   0  0  0  0  0  0  0  0  0  0  0  0
    4.7886    1.0769   -1.5824 O   0  0  0  0  0  0  0  0  0  0  0  0
    5.2649   -1.1206   -2.0556 N   0  0  0  0  0  0  0  0  0  0  0  0
    6.6576   -1.1115   -2.2728 C   0  0  0  0  0  0  0  0  0  0  0  0
    7.4294    0.0619   -2.2783 C   0  0  0  0  0  0  0  0  0  0  0  0
    8.8002   -0.0287   -2.5370 C   0  0  0  0  0  0  0  0  0  0  0  0
    9.4186   -1.2535   -2.7749 C   0  0  0  0  0  0  0  0  0  0  0  0
    8.6565   -2.4372   -2.7533 C   0  0  0  0  0  0  0  0  0  0  0  0
    9.3439   -3.7088   -3.0324 C   0  0  0  0  0  0  0  0  0  0  0  0
   10.4129   -3.8072   -3.8013 N   0  0  0  0  0  0  0  0  0  0  0  0
   10.8091   -5.1104   -3.8225 N   0  0  0  0  0  0  0  0  0  0  0  0
    9.9799   -5.7804   -3.0648 C   0  0  0  0  0  0  0  0  0  0  0  0
    9.0255   -4.9555   -2.5292 N   0  0  0  0  0  0  0  0  0  0  0  0
    8.0011   -5.3498   -1.5787 C   0  0  0  0  0  0  0  0  0  0  0  0
    7.2776   -2.3512   -2.5112 C   0  0  0  0  0  0  0  0  0  0  0  0
    0.2674   -0.7104   -3.9000 H   0  0  0  0  0  0  0  0  0  0  0  0
    0.2975    0.2505   -2.4030 H   0  0  0  0  0  0  0  0  0  0  0  0
    0.4452   -1.5240   -2.3265 H   0  0  0  0  0  0  0  0  0  0  0  0
    2.6417   -1.3906   -3.5476 H   0  0  0  0  0  0  0  0  0  0  0  0
    2.3073    1.6711   -3.3839 H   0  0  0  0  0  0  0  0  0  0  0  0
    2.0750    0.6844   -4.8492 H   0  0  0  0  0  0  0  0  0  0  0  0
    3.6828    0.8073   -4.1006 H   0  0  0  0  0  0  0  0  0  0  0  0
    2.4900    0.3724   -1.0397 H   0  0  0  0  0  0  0  0  0  0  0  0
    4.8286   -2.0376   -2.0482 H   0  0  0  0  0  0  0  0  0  0  0  0
    6.9515    1.0189   -2.0837 H   0  0  0  0  0  0  0  0  0  0  0  0
    9.3968    0.8870   -2.5479 H   0  0  0  0  0  0  0  0  0  0  0  0
   10.4870   -1.3205   -2.9827 H   0  0  0  0  0  0  0  0  0  0  0  0
   10.0206   -6.8500   -2.8603 H   0  0  0  0  0  0  0  0  0  0  0  0
    8.3082   -6.2856   -1.0918 H   0  0  0  0  0  0  0  0  0  0  0  0
    7.0291   -5.5171   -2.0697 H   0  0  0  0  0  0  0  0  0  0  0  0
    7.8811   -4.5783   -0.8061 H   0  0  0  0  0  0  0  0  0  0  0  0
    6.6552   -3.2476   -2.5421 H   0  0  0  0  0  0  0  0  0  0  0  0
  1  2  1  0
  1 21  1  0
  1 22  1  0
  1 23  1  0
  2  3  1  0
  2  4  1  0
  2 24  1  6
  3 25  1  0
  3 26  1  0
  3 27  1  0
  4  5  1  0
  4  6  1  0
  4 28  1  1
  6  7  2  0
  6  8  1  0
  8  9  1  0
  8 29  1  0
  9 10  2  0
  9 20  1  0
 10 11  1  0
 10 30  1  0
 11 12  2  0
 11 31  1  0
 12 13  1  0
 12 32  1  0
 13 14  1  0
 13 20  2  0
 14 15  2  0
 14 18  1  0
 15 16  1  0
 16 17  2  0
 17 18  1  0
 17 33  1  0
 18 19  1  0
 19 34  1  0
 19 35  1  0
 19 36  1  0
 20 37  1  0
M  END

