
     RDKit          3D

 52 56  0  0  0  0  0  0  0  0999 V2000
    4.8624    3.9158   -3.3327 C   0  0  0  0  0  0  0  0  0  0  0  0
    5.3113    3.3318   -1.9957 C   0  0  0  0  0  0  0  0  0  0  0  0
    4.2928    2.4956   -1.3608 N   0  0  0  0  0  0  0  0  0  0  0  0
    3.3707    2.9036   -0.4339 C   0  0  0  0  0  0  0  0  0  0  0  0
    2.5836    1.9184   -0.0809 N   0  0  0  0  0  0  0  0  0  0  0  0
    2.9746    0.8198   -0.7851 N   0  0  0  0  0  0  0  0  0  0  0  0
    3.9951    1.1652   -1.5518 C   0  0  0  0  0  0  0  0  0  0  0  0
    4.6749    0.2271   -2.4340 C   0  0  0  0  0  0  0  0  0  0  0  0
    5.6238    0.5913   -3.3053 N   0  0  0  0  0  0  0  0  0  0  0  0
    5.9964   -0.5364   -3.9322 N   0  0  0  0  0  0  0  0  0  0  0  0
    7.0091   -0.4976   -4.9657 C   0  0  0  0  0  0  0  0  0  0  0  0
    5.2984   -1.6206   -3.4856 C   0  0  0  0  0  0  0  0  0  0  0  0
    4.4330   -1.1731   -2.5033 C   0  0  0  0  0  0  0  0  0  0  0  0
    3.5117   -2.0836   -1.7444 C   0  0  0  0  0  0  0  0  0  0  0  0
    3.8781   -3.4762   -2.0408 N   0  0  0  0  0  0  0  0  0  0  0  0
    3.8774   -4.3796   -1.0118 C   0  0  0  0  0  0  0  0  0  0  0  0
    3.4562   -4.0961    0.1056 O   0  0  0  0  0  0  0  0  0  0  0  0
    4.4063   -5.7652   -1.2131 C   0  0  0  0  0  0  0  0  0  0  0  0
    5.2472   -6.4678   -2.0754 C   0  0  0  0  0  0  0  0  0  0  0  0
    5.3588   -7.7685   -1.5116 C   0  0  0  0  0  0  0  0  0  0  0  0
    6.1242   -8.9284   -2.0057 C   0  0  0  0  0  0  0  0  0  0  0  0
    6.8571   -8.8652   -3.2038 C   0  0  0  0  0  0  0  0  0  0  0  0
    7.5798   -9.9699   -3.6598 C   0  0  0  0  0  0  0  0  0  0  0  0
    7.5826  -11.1603   -2.9272 C   0  0  0  0  0  0  0  0  0  0  0  0
    6.8554  -11.2350   -1.7340 C   0  0  0  0  0  0  0  0  0  0  0  0
    6.1339  -10.1326   -1.2767 C   0  0  0  0  0  0  0  0  0  0  0  0
    4.6380   -7.8473   -0.3829 N   0  0  0  0  0  0  0  0  0  0  0  0
    4.0903   -6.6525   -0.2296 N   0  0  0  0  0  0  0  0  0  0  0  0
    3.5316   -6.4116    0.5845 H   0  0  0  0  0  0  0  0  0  0  0  0
    4.1373   -3.7672   -3.4445 C   0  0  0  0  0  0  0  0  0  0  0  0
    5.3986   -3.0392   -3.9504 C   0  0  0  0  0  0  0  0  0  0  0  0
    5.6541    4.5629   -3.7425 H   0  0  0  0  0  0  0  0  0  0  0  0
    3.9486    4.5202   -3.2203 H   0  0  0  0  0  0  0  0  0  0  0  0
    4.6702    3.1109   -4.0568 H   0  0  0  0  0  0  0  0  0  0  0  0
    5.5551    4.1334   -1.2812 H   0  0  0  0  0  0  0  0  0  0  0  0
    6.2101    2.7171   -2.1346 H   0  0  0  0  0  0  0  0  0  0  0  0
    3.3278    3.9230   -0.0519 H   0  0  0  0  0  0  0  0  0  0  0  0
    7.3986    0.5262   -5.0088 H   0  0  0  0  0  0  0  0  0  0  0  0
    6.5883   -0.7629   -5.9495 H   0  0  0  0  0  0  0  0  0  0  0  0
    7.8349   -1.1889   -4.7349 H   0  0  0  0  0  0  0  0  0  0  0  0
    2.4551   -1.8908   -2.0088 H   0  0  0  0  0  0  0  0  0  0  0  0
    3.5757   -1.9263   -0.6611 H   0  0  0  0  0  0  0  0  0  0  0  0
    5.7469   -6.0998   -2.9650 H   0  0  0  0  0  0  0  0  0  0  0  0
    6.8640   -7.9448   -3.7921 H   0  0  0  0  0  0  0  0  0  0  0  0
    8.1430   -9.9000   -4.5941 H   0  0  0  0  0  0  0  0  0  0  0  0
    8.1477  -12.0251   -3.2840 H   0  0  0  0  0  0  0  0  0  0  0  0
    6.8510  -12.1617   -1.1540 H   0  0  0  0  0  0  0  0  0  0  0  0
    5.5657  -10.1855   -0.3467 H   0  0  0  0  0  0  0  0  0  0  0  0
    3.2697   -3.4157   -4.0326 H   0  0  0  0  0  0  0  0  0  0  0  0
    4.2052   -4.8476   -3.5984 H   0  0  0  0  0  0  0  0  0  0  0  0
    5.4535   -3.1081   -5.0505 H   0  0  0  0  0  0  0  0  0  0  0  0
    6.3072   -3.5263   -3.5515 H   0  0  0  0  0  0  0  0  0  0  0  0
  1  2  1  0
  1 32  1  0
  1 33  1  0
  1 34  1  0
  2  3  1  0
  2 35  1  0
  2 36  1  0
  3  4  1  0
  3  7  1  0
  4  5  2  0
  4 37  1  0
  5  6  1  0
  6  7  2  0
  7  8  1  0
  8  9  2  0
  8 13  1  0
  9 10  1  0
 10 11  1  0
 10 12  1  0
 11 38  1  0
 11 39  1  0
 11 40  1  0
 12 13  2  0
 12 31  1  0
 13 14  1  0
 14 15  1  0
 14 41  1  0
 14 42  1  0
 15 16  1  0
 15 30  1  0
 16 17  2  0
 16 18  1  0
 18 19  2  0
 18 28  1  0
 19 20  1  0
 19 43  1  0
 20 21  1  0
 20 27  2  0
 21 22  2  0
 21 26  1  0
 22 23  1  0
 22 44  1  0
 23 24  2  0
 23 45  1  0
 24 25  1  0
 24 46  1  0
 25 26  2  0
 25 47  1  0
 26 48  1  0
 27 28  1  0
 28 29  1  0
 30 31  1  0
 30 49  1  0
 30 50  1  0
 31 51  1  0
 31 52  1  0
M  END

