
     RDKit          3D

 47 49  0  0  0  0  0  0  0  0999 V2000
    3.4232   -2.8961   -3.9738 C   0  0  0  0  0  0  0  0  0  0  0  0
    3.5471   -3.5287   -2.6263 C   0  0  0  0  0  0  0  0  0  0  0  0
    4.1039   -4.7865   -2.4618 N   0  0  0  0  0  0  0  0  0  0  0  0
    4.0573   -5.0319   -1.1860 C   0  0  0  0  0  0  0  0  0  0  0  0
    4.5109   -6.2264   -0.4750 C   0  0  0  0  0  0  0  0  0  0  0  0
    5.0724   -7.2885   -1.2084 C   0  0  0  0  0  0  0  0  0  0  0  0
    5.5101   -8.4382   -0.5528 C   0  0  0  0  0  0  0  0  0  0  0  0
    5.3950   -8.5452    0.8385 C   0  0  0  0  0  0  0  0  0  0  0  0
    4.8393   -7.4920    1.5722 C   0  0  0  0  0  0  0  0  0  0  0  0
    4.3989   -6.3371    0.9230 C   0  0  0  0  0  0  0  0  0  0  0  0
    3.5053   -4.0125   -0.4712 O   0  0  0  0  0  0  0  0  0  0  0  0
    3.1784   -3.0482   -1.3970 C   0  0  0  0  0  0  0  0  0  0  0  0
    2.5262   -1.8055   -0.9060 C   0  0  0  0  0  0  0  0  0  0  0  0
    1.0411   -1.9150   -0.4970 C   0  0  0  0  0  0  0  0  0  0  0  0
    0.2532   -1.0226   -0.7618 O   0  0  0  0  0  0  0  0  0  0  0  0
    0.7073   -3.0359    0.1946 N   0  0  0  0  0  0  0  0  0  0  0  0
   -0.6327   -3.3029    0.6728 C   0  0  0  0  0  0  0  0  0  0  0  0
   -0.9550   -4.7947    0.5495 C   0  0  0  0  0  0  0  0  0  0  0  0
    0.0527   -5.6215    1.2143 N   0  0  0  0  0  0  0  0  0  0  0  0
   -0.0819   -5.7215    2.6714 C   0  0  0  0  0  0  0  0  0  0  0  0
   -1.0965   -6.7890    3.0948 C   0  0  0  0  0  0  0  0  0  0  0  0
   -0.7822   -8.0440    2.5219 O   0  0  0  0  0  0  0  0  0  0  0  0
   -0.7384   -7.9859    1.1073 C   0  0  0  0  0  0  0  0  0  0  0  0
    0.2858   -6.9492    0.6392 C   0  0  0  0  0  0  0  0  0  0  0  0
    4.4090   -2.8270   -4.4614 H   0  0  0  0  0  0  0  0  0  0  0  0
    2.9932   -1.8865   -3.9116 H   0  0  0  0  0  0  0  0  0  0  0  0
    2.7799   -3.5032   -4.6314 H   0  0  0  0  0  0  0  0  0  0  0  0
    5.1557   -7.1898   -2.2922 H   0  0  0  0  0  0  0  0  0  0  0  0
    5.9451   -9.2580   -1.1300 H   0  0  0  0  0  0  0  0  0  0  0  0
    5.7390   -9.4478    1.3498 H   0  0  0  0  0  0  0  0  0  0  0  0
    4.7497   -7.5697    2.6586 H   0  0  0  0  0  0  0  0  0  0  0  0
    3.9680   -5.5143    1.4960 H   0  0  0  0  0  0  0  0  0  0  0  0
    2.5647   -1.0319   -1.6830 H   0  0  0  0  0  0  0  0  0  0  0  0
    3.0794   -1.4141   -0.0332 H   0  0  0  0  0  0  0  0  0  0  0  0
    1.4006   -3.7514    0.3963 H   0  0  0  0  0  0  0  0  0  0  0  0
   -1.3378   -2.7028    0.0792 H   0  0  0  0  0  0  0  0  0  0  0  0
   -0.7479   -2.9699    1.7224 H   0  0  0  0  0  0  0  0  0  0  0  0
   -0.9542   -5.0605   -0.5196 H   0  0  0  0  0  0  0  0  0  0  0  0
   -1.9890   -4.9642    0.9165 H   0  0  0  0  0  0  0  0  0  0  0  0
   -0.3575   -4.7411    3.0915 H   0  0  0  0  0  0  0  0  0  0  0  0
    0.9029   -5.9907    3.0934 H   0  0  0  0  0  0  0  0  0  0  0  0
   -2.1239   -6.4829    2.8034 H   0  0  0  0  0  0  0  0  0  0  0  0
   -1.0876   -6.9228    4.1881 H   0  0  0  0  0  0  0  0  0  0  0  0
   -1.7452   -7.7457    0.7028 H   0  0  0  0  0  0  0  0  0  0  0  0
   -0.4665   -8.9929    0.7534 H   0  0  0  0  0  0  0  0  0  0  0  0
    0.2936   -6.8778   -0.4603 H   0  0  0  0  0  0  0  0  0  0  0  0
    1.2897   -7.2871    0.9523 H   0  0  0  0  0  0  0  0  0  0  0  0
  1  2  1  0
  1 25  1  0
  1 26  1  0
  1 27  1  0
  2  3  1  0
  2 12  2  0
  3  4  2  0
  4  5  1  0
  4 11  1  0
  5  6  2  0
  5 10  1  0
  6  7  1  0
  6 28  1  0
  7  8  2  0
  7 29  1  0
  8  9  1  0
  8 30  1  0
  9 10  2  0
  9 31  1  0
 10 32  1  0
 11 12  1  0
 12 13  1  0
 13 14  1  0
 13 33  1  0
 13 34  1  0
 14 15  2  0
 14 16  1  0
 16 17  1  0
 16 35  1  0
 17 18  1  0
 17 36  1  0
 17 37  1  0
 18 19  1  0
 18 38  1  0
 18 39  1  0
 19 20  1  0
 19 24  1  0
 20 21  1  0
 20 40  1  0
 20 41  1  0
 21 22  1  0
 21 42  1  0
 21 43  1  0
 22 23  1  0
 23 24  1  0
 23 44  1  0
 23 45  1  0
 24 46  1  0
 24 47  1  0
M  END

