
     RDKit          3D

 74 76  0  0  0  0  0  0  0  0999 V2000
    8.4186    3.4228    3.2117 C   0  0  0  0  0  0  0  0  0  0  0  0
    8.3114    2.2222    2.2683 C   0  0  0  0  0  0  0  0  0  0  0  0
    6.9617    2.0522    1.5959 C   0  0  0  0  0  0  0  0  0  0  0  0
    6.8020    1.7860    0.4296 O   0  0  0  0  0  0  0  0  0  0  0  0
    5.9452    2.2027    2.4711 O   0  0  0  0  0  0  0  0  0  0  0  0
    4.5956    2.0166    1.9741 C   0  0  2  0  0  0  0  0  0  0  0  0
    4.6090    1.1843    1.2572 H   0  0  0  0  0  0  0  0  0  0  0  0
    4.0577    3.3161    1.3740 C   0  0  0  0  0  0  0  0  0  0  0  0
    3.7681    4.1918    2.6026 C   0  0  0  0  0  0  0  0  0  0  0  0
    3.3100    3.1909    3.7198 C   0  0  1  0  0  0  0  0  0  0  0  0
    3.8464    3.4117    4.6552 H   0  0  0  0  0  0  0  0  0  0  0  0
    1.8063    3.3163    3.9578 C   0  0  0  0  0  0  0  0  0  0  0  0
    0.9849    2.8422    3.1797 O   0  0  0  0  0  0  0  0  0  0  0  0
    1.4452    4.0408    5.0549 N   0  0  0  0  0  0  0  0  0  0  0  0
    0.0572    4.2817    5.4356 C   0  0  1  0  0  0  0  0  0  0  0  0
   -0.5407    4.0688    4.5429 H   0  0  0  0  0  0  0  0  0  0  0  0
   -0.2716    3.3324    6.6095 C   0  0  0  0  0  0  0  0  0  0  0  0
    0.1877    3.6004    7.7143 O   0  0  0  0  0  0  0  0  0  0  0  0
   -1.0339    2.2178    6.3811 N   0  0  0  0  0  0  0  0  0  0  0  0
   -1.5415    1.7477    5.0952 C   0  0  0  0  0  0  0  0  0  0  0  0
   -1.2021    0.2648    4.8619 C   0  0  0  0  0  0  0  0  0  0  0  0
   -1.3636   -0.7289    6.0487 C   0  0  2  0  0  0  0  0  0  0  0  0
   -0.5223   -1.8526    5.7825 O   0  0  0  0  0  0  0  0  0  0  0  0
   -2.8101   -1.2432    6.2120 C   0  0  0  0  0  0  0  0  0  0  0  0
   -3.0204   -2.5802    6.5985 C   0  0  0  0  0  0  0  0  0  0  0  0
   -4.3012   -3.1094    6.7606 C   0  0  0  0  0  0  0  0  0  0  0  0
   -5.4146   -2.2972    6.5339 C   0  0  0  0  0  0  0  0  0  0  0  0
   -7.0256   -2.9478    6.7321 Cl  0  0  0  0  0  0  0  0  0  0  0  0
   -5.2434   -0.9688    6.1428 C   0  0  0  0  0  0  0  0  0  0  0  0
   -3.9522   -0.4568    5.9847 C   0  0  0  0  0  0  0  0  0  0  0  0
   -0.7885   -0.0718    7.3697 C   0  0  2  0  0  0  0  0  0  0  0  0
    0.7508    0.0113    7.2959 C   0  0  0  0  0  0  0  0  0  0  0  0
   -1.1659   -0.8677    8.6302 C   0  0  0  0  0  0  0  0  0  0  0  0
   -1.3711    1.3522    7.5082 C   0  0  0  0  0  0  0  0  0  0  0  0
   -0.1835    5.7525    5.8482 C   0  0  1  0  0  0  0  0  0  0  0  0
    0.2413    6.7222    4.7400 C   0  0  0  0  0  0  0  0  0  0  0  0
   -1.6501    5.9733    6.2404 C   0  0  0  0  0  0  0  0  0  0  0  0
    3.6913    1.7837    3.1831 C   0  0  0  0  0  0  0  0  0  0  0  0
    9.4255    3.4771    3.6537 H   0  0  0  0  0  0  0  0  0  0  0  0
    7.6881    3.3491    4.0302 H   0  0  0  0  0  0  0  0  0  0  0  0
    8.2363    4.3697    2.6785 H   0  0  0  0  0  0  0  0  0  0  0  0
    8.5060    1.2900    2.8290 H   0  0  0  0  0  0  0  0  0  0  0  0
    9.0569    2.2698    1.4616 H   0  0  0  0  0  0  0  0  0  0  0  0
    3.1203    3.0833    0.8430 H   0  0  0  0  0  0  0  0  0  0  0  0
    4.7506    3.7685    0.6501 H   0  0  0  0  0  0  0  0  0  0  0  0
    3.0185    4.9709    2.3989 H   0  0  0  0  0  0  0  0  0  0  0  0
    4.6878    4.7002    2.9289 H   0  0  0  0  0  0  0  0  0  0  0  0
    2.1548    4.2897    5.7358 H   0  0  0  0  0  0  0  0  0  0  0  0
   -1.0806    2.3080    4.2748 H   0  0  0  0  0  0  0  0  0  0  0  0
   -2.6304    1.9256    5.0471 H   0  0  0  0  0  0  0  0  0  0  0  0
   -0.1450    0.2086    4.5647 H   0  0  0  0  0  0  0  0  0  0  0  0
   -1.7888   -0.0970    4.0007 H   0  0  0  0  0  0  0  0  0  0  0  0
   -0.8302   -2.2683    4.9650 H   0  0  0  0  0  0  0  0  0  0  0  0
   -2.1554   -3.2205    6.7730 H   0  0  0  0  0  0  0  0  0  0  0  0
   -4.4390   -4.1494    7.0617 H   0  0  0  0  0  0  0  0  0  0  0  0
   -6.1154   -0.3393    5.9575 H   0  0  0  0  0  0  0  0  0  0  0  0
   -3.8595    0.5806    5.6689 H   0  0  0  0  0  0  0  0  0  0  0  0
    1.1928   -0.9926    7.2628 H   0  0  0  0  0  0  0  0  0  0  0  0
    1.1327    0.5405    8.1826 H   0  0  0  0  0  0  0  0  0  0  0  0
    1.1006    0.5614    6.4110 H   0  0  0  0  0  0  0  0  0  0  0  0
   -0.8305   -1.9123    8.5533 H   0  0  0  0  0  0  0  0  0  0  0  0
   -2.2499   -0.8689    8.8176 H   0  0  0  0  0  0  0  0  0  0  0  0
   -0.6738   -0.4229    9.5099 H   0  0  0  0  0  0  0  0  0  0  0  0
   -0.9790    1.8268    8.4155 H   0  0  0  0  0  0  0  0  0  0  0  0
   -2.4709    1.3008    7.6022 H   0  0  0  0  0  0  0  0  0  0  0  0
    0.4341    5.9334    6.7451 H   0  0  0  0  0  0  0  0  0  0  0  0
   -0.3644    6.5775    3.8290 H   0  0  0  0  0  0  0  0  0  0  0  0
    1.2976    6.5913    4.4619 H   0  0  0  0  0  0  0  0  0  0  0  0
    0.1064    7.7655    5.0669 H   0  0  0  0  0  0  0  0  0  0  0  0
   -2.3265    5.7559    5.3955 H   0  0  0  0  0  0  0  0  0  0  0  0
   -1.8174    7.0214    6.5343 H   0  0  0  0  0  0  0  0  0  0  0  0
   -1.9458    5.3424    7.0920 H   0  0  0  0  0  0  0  0  0  0  0  0
    2.7786    1.2756    2.8389 H   0  0  0  0  0  0  0  0  0  0  0  0
    4.1787    1.1518    3.9392 H   0  0  0  0  0  0  0  0  0  0  0  0
  1  2  1  0
  1 39  1  0
  1 40  1  0
  1 41  1  0
  2  3  1  0
  2 42  1  0
  2 43  1  0
  3  4  2  0
  3  5  1  0
  5  6  1  0
  6  7  1  6
  6  8  1  0
  6 38  1  0
  8  9  1  0
  8 44  1  0
  8 45  1  0
  9 10  1  0
  9 46  1  0
  9 47  1  0
 10 11  1  1
 10 12  1  0
 10 38  1  0
 12 13  2  0
 12 14  1  0
 14 15  1  0
 14 48  1  0
 15 16  1  6
 15 17  1  0
 15 35  1  0
 17 18  2  0
 17 19  1  0
 19 20  1  0
 19 34  1  0
 20 21  1  0
 20 49  1  0
 20 50  1  0
 21 22  1  0
 21 51  1  0
 21 52  1  0
 22 23  1  6
 22 24  1  0
 22 31  1  0
 23 53  1  0
 24 25  2  0
 24 30  1  0
 25 26  1  0
 25 54  1  0
 26 27  2  0
 26 55  1  0
 27 28  1  0
 27 29  1  0
 29 30  2  0
 29 56  1  0
 30 57  1  0
 31 32  1  6
 31 33  1  0
 31 34  1  0
 32 58  1  0
 32 59  1  0
 32 60  1  0
 33 61  1  0
 33 62  1  0
 33 63  1  0
 34 64  1  0
 34 65  1  0
 35 36  1  0
 35 37  1  0
 35 66  1  1
 36 67  1  0
 36 68  1  0
 36 69  1  0
 37 70  1  0
 37 71  1  0
 37 72  1  0
 38 73  1  0
 38 74  1  0
M  END

