
     RDKit          3D

 34 35  0  0  0  0  0  0  0  0999 V2000
    0.9646    0.2788   -0.0795 C   0  0  0  0  0  0  0  0  0  0  0  0
    2.4790    0.0853    0.0470 C   0  0  1  0  0  0  0  0  0  0  0  0
    3.1199    0.0272   -1.3524 C   0  0  0  0  0  0  0  0  0  0  0  0
    3.1561    1.1686    0.9125 C   0  0  0  0  0  0  0  0  0  0  0  0
    4.4431    0.5169    1.4287 C   0  0  0  0  0  0  0  0  0  0  0  0
    4.1686   -0.9324    1.3844 N   0  0  0  0  0  0  0  0  0  0  0  0
    4.9325   -1.7839    2.1703 C   0  0  0  0  0  0  0  0  0  0  0  0
    5.8890   -1.1687    2.8869 N   0  0  0  0  0  0  0  0  0  0  0  0
    6.6859   -1.8486    3.7065 C   0  0  0  0  0  0  0  0  0  0  0  0
    6.5647   -3.2204    3.8675 C   0  0  0  0  0  0  0  0  0  0  0  0
    7.3657   -3.8870    4.7164 F   0  0  0  0  0  0  0  0  0  0  0  0
    5.6152   -3.9001    3.1100 C   0  0  0  0  0  0  0  0  0  0  0  0
    4.7805   -3.2132    2.2261 C   0  0  0  0  0  0  0  0  0  0  0  0
    3.8883   -4.0339    1.3080 C   0  0  0  0  0  0  0  0  0  0  0  0
    4.2887   -4.0574   -0.1020 N   0  0  0  0  0  0  0  0  0  0  0  0
    2.8315   -1.1889    0.8472 C   0  0  0  0  0  0  0  0  0  0  0  0
    0.7325    1.2108   -0.6202 H   0  0  0  0  0  0  0  0  0  0  0  0
    0.4808    0.3341    0.9092 H   0  0  0  0  0  0  0  0  0  0  0  0
    0.5001   -0.5514   -0.6372 H   0  0  0  0  0  0  0  0  0  0  0  0
    2.9510    0.9693   -1.8986 H   0  0  0  0  0  0  0  0  0  0  0  0
    2.6866   -0.7902   -1.9516 H   0  0  0  0  0  0  0  0  0  0  0  0
    4.2074   -0.1378   -1.2965 H   0  0  0  0  0  0  0  0  0  0  0  0
    2.4978    1.4225    1.7601 H   0  0  0  0  0  0  0  0  0  0  0  0
    3.3480    2.0995    0.3566 H   0  0  0  0  0  0  0  0  0  0  0  0
    4.6991    0.8320    2.4497 H   0  0  0  0  0  0  0  0  0  0  0  0
    5.3229    0.7572    0.8055 H   0  0  0  0  0  0  0  0  0  0  0  0
    7.4508   -1.2927    4.2616 H   0  0  0  0  0  0  0  0  0  0  0  0
    5.5433   -4.9874    3.2017 H   0  0  0  0  0  0  0  0  0  0  0  0
    2.8407   -3.7063    1.3720 H   0  0  0  0  0  0  0  0  0  0  0  0
    3.8865   -5.0738    1.6704 H   0  0  0  0  0  0  0  0  0  0  0  0
    4.4633   -3.1068   -0.4310 H   0  0  0  0  0  0  0  0  0  0  0  0
    5.1862   -4.5359   -0.1915 H   0  0  0  0  0  0  0  0  0  0  0  0
    2.0937   -1.3517    1.6590 H   0  0  0  0  0  0  0  0  0  0  0  0
    2.7930   -2.0688    0.1905 H   0  0  0  0  0  0  0  0  0  0  0  0
  2  1  1  6
  1 17  1  0
  1 18  1  0
  1 19  1  0
  2  3  1  0
  2  4  1  0
  2 16  1  0
  3 20  1  0
  3 21  1  0
  3 22  1  0
  4  5  1  0
  4 23  1  0
  4 24  1  0
  5  6  1  0
  5 25  1  0
  5 26  1  0
  6  7  1  0
  6 16  1  0
  7  8  2  0
  7 13  1  0
  8  9  1  0
  9 10  2  0
  9 27  1  0
 10 11  1  0
 10 12  1  0
 12 13  2  0
 12 28  1  0
 13 14  1  0
 14 15  1  0
 14 29  1  0
 14 30  1  0
 15 31  1  0
 15 32  1  0
 16 33  1  0
 16 34  1  0
M  END

