
     RDKit          3D

 43 43  0  0  0  0  0  0  0  0999 V2000
    0.9329   -0.4278    2.0158 C   0  0  0  0  0  0  0  0  0  0  0  0
    2.2568   -0.5452    1.4157 N   0  0  0  0  0  0  0  0  0  0  0  0
    2.4835   -1.6894    0.5517 C   0  0  0  0  0  0  0  0  0  0  0  0
    1.6379   -1.6823   -0.7466 C   0  0  0  0  0  0  0  0  0  0  0  0
    1.9389   -0.5450   -1.6183 C   0  0  0  0  0  0  0  0  0  0  0  0
    2.2043    0.3654   -2.2840 N   0  0  0  0  0  0  0  0  0  0  0  0
    3.0515    0.5881    1.4465 C   0  0  0  0  0  0  0  0  0  0  0  0
    2.6327    1.6475    1.8811 O   0  0  0  0  0  0  0  0  0  0  0  0
    4.4845    0.4891    0.9838 C   0  0  0  0  0  0  0  0  0  0  0  0
    4.9930    1.5194    0.1801 C   0  0  0  0  0  0  0  0  0  0  0  0
    6.3376    1.5370   -0.1825 C   0  0  0  0  0  0  0  0  0  0  0  0
    7.2055    0.5393    0.2757 C   0  0  0  0  0  0  0  0  0  0  0  0
    8.8790    0.6282   -0.1995 Cl  0  0  0  0  0  0  0  0  0  0  0  0
    6.7101   -0.4926    1.0892 C   0  0  0  0  0  0  0  0  0  0  0  0
    7.7568   -1.7863    1.8066 S   0  0  1  0  0  0  0  0  0  0  0  0
    8.8305   -1.1272    2.5462 O   0  0  0  0  0  0  0  0  0  0  0  0
    6.8335   -2.7177    2.4692 O   0  0  0  0  0  0  0  0  0  0  0  0
    8.4718   -2.5324    0.5008 N   0  0  0  0  0  0  0  0  0  0  0  0
    8.1063   -3.8482   -0.0905 C   0  0  1  0  0  0  0  0  0  0  0  0
    6.6239   -3.8505   -0.4954 C   0  0  0  0  0  0  0  0  0  0  0  0
    8.9817   -3.9729   -1.3487 C   0  0  0  0  0  0  0  0  0  0  0  0
    8.4101   -5.0028    0.8822 C   0  0  0  0  0  0  0  0  0  0  0  0
    5.3570   -0.5050    1.4425 C   0  0  0  0  0  0  0  0  0  0  0  0
    0.5916   -1.4225    2.3419 H   0  0  0  0  0  0  0  0  0  0  0  0
    0.1873   -0.0043    1.3191 H   0  0  0  0  0  0  0  0  0  0  0  0
    0.9870    0.2442    2.8805 H   0  0  0  0  0  0  0  0  0  0  0  0
    2.2416   -2.6144    1.1024 H   0  0  0  0  0  0  0  0  0  0  0  0
    3.5432   -1.7433    0.2796 H   0  0  0  0  0  0  0  0  0  0  0  0
    0.5609   -1.6720   -0.5133 H   0  0  0  0  0  0  0  0  0  0  0  0
    1.8302   -2.6142   -1.3040 H   0  0  0  0  0  0  0  0  0  0  0  0
    4.3229    2.3104   -0.1610 H   0  0  0  0  0  0  0  0  0  0  0  0
    6.7332    2.3308   -0.8180 H   0  0  0  0  0  0  0  0  0  0  0  0
    9.4637   -2.3049    0.4987 H   0  0  0  0  0  0  0  0  0  0  0  0
    6.4085   -3.0233   -1.1896 H   0  0  0  0  0  0  0  0  0  0  0  0
    5.9730   -3.7571    0.3848 H   0  0  0  0  0  0  0  0  0  0  0  0
    6.3809   -4.7975   -1.0014 H   0  0  0  0  0  0  0  0  0  0  0  0
    8.7842   -3.1470   -2.0487 H   0  0  0  0  0  0  0  0  0  0  0  0
    8.7773   -4.9254   -1.8611 H   0  0  0  0  0  0  0  0  0  0  0  0
   10.0535   -3.9582   -1.0894 H   0  0  0  0  0  0  0  0  0  0  0  0
    7.8166   -4.9018    1.8010 H   0  0  0  0  0  0  0  0  0  0  0  0
    9.4770   -5.0055    1.1583 H   0  0  0  0  0  0  0  0  0  0  0  0
    8.1786   -5.9741    0.4162 H   0  0  0  0  0  0  0  0  0  0  0  0
    5.0104   -1.3019    2.1024 H   0  0  0  0  0  0  0  0  0  0  0  0
  1  2  1  0
  1 24  1  0
  1 25  1  0
  1 26  1  0
  2  3  1  0
  2  7  1  0
  3  4  1  0
  3 27  1  0
  3 28  1  0
  4  5  1  0
  4 29  1  0
  4 30  1  0
  5  6  3  0
  7  8  2  0
  7  9  1  0
  9 10  2  0
  9 23  1  0
 10 11  1  0
 10 31  1  0
 11 12  2  0
 11 32  1  0
 12 13  1  0
 12 14  1  0
 14 15  1  0
 14 23  2  0
 15 16  2  0
 15 17  2  0
 15 18  1  6
 19 18  1  1
 18 33  1  0
 19 20  1  0
 19 21  1  0
 19 22  1  0
 20 34  1  0
 20 35  1  0
 20 36  1  0
 21 37  1  0
 21 38  1  0
 21 39  1  0
 22 40  1  0
 22 41  1  0
 22 42  1  0
 23 43  1  0
M  END

