
     RDKit          3D

 57 60  0  0  0  0  0  0  0  0999 V2000
    4.4894    2.7025   -1.4671 C   0  0  0  0  0  0  0  0  0  0  0  0
    3.6869    1.4357   -1.6426 C   0  0  0  0  0  0  0  0  0  0  0  0
    2.3989    1.4477   -2.1938 C   0  0  0  0  0  0  0  0  0  0  0  0
    1.6882    0.2591   -2.3699 C   0  0  0  0  0  0  0  0  0  0  0  0
    2.2121   -0.9894   -2.0050 C   0  0  0  0  0  0  0  0  0  0  0  0
    1.4388   -2.2529   -2.2737 C   0  0  0  0  0  0  0  0  0  0  0  0
    3.4969   -0.9960   -1.4169 C   0  0  0  0  0  0  0  0  0  0  0  0
    4.1385   -2.2062   -1.0281 N   0  0  0  0  0  0  0  0  0  0  0  0
    3.6422   -3.1091   -0.1273 C   0  0  0  0  0  0  0  0  0  0  0  0
    2.5475   -3.0420    0.3990 O   0  0  0  0  0  0  0  0  0  0  0  0
    4.6268   -4.2690    0.1635 C   0  0  1  0  0  0  0  0  0  0  0  0
    5.5697   -3.9173    1.7460 S   0  0  0  0  0  0  0  0  0  0  0  0
    6.8073   -2.8462    1.1287 C   0  0  0  0  0  0  0  0  0  0  0  0
    6.9557   -2.3883   -0.1064 N   0  0  0  0  0  0  0  0  0  0  0  0
    8.0572   -1.6016   -0.0929 N   0  0  0  0  0  0  0  0  0  0  0  0
    8.5842   -1.5576    1.0709 N   0  0  0  0  0  0  0  0  0  0  0  0
    7.8148   -2.3370    1.8825 N   0  0  0  0  0  0  0  0  0  0  0  0
    8.1202   -2.5436    3.2682 C   0  0  0  0  0  0  0  0  0  0  0  0
    8.5865   -3.8079    3.6482 C   0  0  0  0  0  0  0  0  0  0  0  0
    8.8937   -4.0462    4.9841 C   0  0  0  0  0  0  0  0  0  0  0  0
    8.7432   -3.0186    5.9179 C   0  0  0  0  0  0  0  0  0  0  0  0
    8.2816   -1.7492    5.5452 C   0  0  0  0  0  0  0  0  0  0  0  0
    8.1327   -0.6624    6.5807 C   0  0  0  0  0  0  0  0  0  0  0  0
    7.9526   -1.4947    4.1911 C   0  0  0  0  0  0  0  0  0  0  0  0
    7.4405   -0.1378    3.7811 C   0  0  0  0  0  0  0  0  0  0  0  0
    3.9699   -5.6217    0.3120 C   0  0  0  0  0  0  0  0  0  0  0  0
    4.4194   -6.6904   -0.4799 C   0  0  0  0  0  0  0  0  0  0  0  0
    3.8416   -7.9571   -0.3641 C   0  0  0  0  0  0  0  0  0  0  0  0
    2.8095   -8.1724    0.5531 C   0  0  0  0  0  0  0  0  0  0  0  0
    2.3586   -7.1146    1.3490 C   0  0  0  0  0  0  0  0  0  0  0  0
    2.9312   -5.8461    1.2324 C   0  0  0  0  0  0  0  0  0  0  0  0
    4.2148    0.1976   -1.2558 C   0  0  0  0  0  0  0  0  0  0  0  0
    3.8977    3.5932   -1.7254 H   0  0  0  0  0  0  0  0  0  0  0  0
    5.3879    2.7000   -2.1076 H   0  0  0  0  0  0  0  0  0  0  0  0
    4.8380    2.8190   -0.4276 H   0  0  0  0  0  0  0  0  0  0  0  0
    1.9495    2.3961   -2.5015 H   0  0  0  0  0  0  0  0  0  0  0  0
    0.6941    0.2946   -2.8248 H   0  0  0  0  0  0  0  0  0  0  0  0
    0.6229   -2.0676   -2.9876 H   0  0  0  0  0  0  0  0  0  0  0  0
    1.0153   -2.6630   -1.3440 H   0  0  0  0  0  0  0  0  0  0  0  0
    2.0922   -3.0359   -2.6922 H   0  0  0  0  0  0  0  0  0  0  0  0
    5.1559   -2.2292   -1.1427 H   0  0  0  0  0  0  0  0  0  0  0  0
    5.3950   -4.3172   -0.6178 H   0  0  0  0  0  0  0  0  0  0  0  0
    8.7058   -4.5871    2.8934 H   0  0  0  0  0  0  0  0  0  0  0  0
    9.2577   -5.0274    5.2967 H   0  0  0  0  0  0  0  0  0  0  0  0
    8.9913   -3.2039    6.9664 H   0  0  0  0  0  0  0  0  0  0  0  0
    8.4436   -1.0145    7.5744 H   0  0  0  0  0  0  0  0  0  0  0  0
    7.0887   -0.3148    6.6582 H   0  0  0  0  0  0  0  0  0  0  0  0
    8.7405    0.2231    6.3304 H   0  0  0  0  0  0  0  0  0  0  0  0
    6.5588    0.1462    4.3780 H   0  0  0  0  0  0  0  0  0  0  0  0
    7.1645   -0.0924    2.7216 H   0  0  0  0  0  0  0  0  0  0  0  0
    8.2045    0.6385    3.9531 H   0  0  0  0  0  0  0  0  0  0  0  0
    5.2292   -6.5281   -1.1970 H   0  0  0  0  0  0  0  0  0  0  0  0
    4.2003   -8.7767   -0.9918 H   0  0  0  0  0  0  0  0  0  0  0  0
    2.3565   -9.1627    0.6472 H   0  0  0  0  0  0  0  0  0  0  0  0
    1.5495   -7.2763    2.0659 H   0  0  0  0  0  0  0  0  0  0  0  0
    2.5605   -5.0175    1.8357 H   0  0  0  0  0  0  0  0  0  0  0  0
    5.2146    0.1498   -0.8144 H   0  0  0  0  0  0  0  0  0  0  0  0
  1  2  1  0
  1 33  1  0
  1 34  1  0
  1 35  1  0
  2  3  2  0
  2 32  1  0
  3  4  1  0
  3 36  1  0
  4  5  2  0
  4 37  1  0
  5  6  1  0
  5  7  1  0
  6 38  1  0
  6 39  1  0
  6 40  1  0
  7  8  1  0
  7 32  2  0
  8  9  1  0
  8 41  1  0
  9 10  2  0
  9 11  1  0
 11 12  1  0
 11 26  1  0
 11 42  1  6
 12 13  1  0
 13 14  2  0
 13 17  1  0
 14 15  1  0
 15 16  2  0
 16 17  1  0
 17 18  1  0
 18 19  2  0
 18 24  1  0
 19 20  1  0
 19 43  1  0
 20 21  2  0
 20 44  1  0
 21 22  1  0
 21 45  1  0
 22 23  1  0
 22 24  2  0
 23 46  1  0
 23 47  1  0
 23 48  1  0
 24 25  1  0
 25 49  1  0
 25 50  1  0
 25 51  1  0
 26 27  2  0
 26 31  1  0
 27 28  1  0
 27 52  1  0
 28 29  2  0
 28 53  1  0
 29 30  1  0
 29 54  1  0
 30 31  2  0
 30 55  1  0
 31 56  1  0
 32 57  1  0
M  END

