
     RDKit          3D

 29 29  0  0  0  0  0  0  0  0999 V2000
    4.9489   -2.7441    0.9591 N   0  0  0  0  0  0  0  0  0  0  0  0
    4.5470   -1.3825    0.6117 C   0  0  0  0  0  0  0  0  0  0  0  0
    4.9939   -1.0305   -0.8069 C   0  0  0  0  0  0  0  0  0  0  0  0
    4.5815    0.3847   -1.2366 C   0  0  1  0  0  0  0  0  0  0  0  0
    5.1300    1.3772   -0.3885 O   0  0  0  0  0  0  0  0  0  0  0  0
    4.9244    0.7087   -2.6985 C   0  0  0  0  0  0  0  0  0  0  0  0
    6.3662    0.7611   -2.8767 N   0  0  0  0  0  0  0  0  0  0  0  0
    6.9784    1.4147   -3.9428 C   0  0  0  0  0  0  0  0  0  0  0  0
    6.3815    2.4175   -4.7283 C   0  0  0  0  0  0  0  0  0  0  0  0
    7.0993    3.0544   -5.7469 C   0  0  0  0  0  0  0  0  0  0  0  0
    8.4230    2.7069   -6.0200 C   0  0  0  0  0  0  0  0  0  0  0  0
    9.0350    1.7018   -5.2596 C   0  0  0  0  0  0  0  0  0  0  0  0
    8.3148    1.0835   -4.2520 C   0  0  0  0  0  0  0  0  0  0  0  0
    8.8912    0.1031   -3.5166 F   0  0  0  0  0  0  0  0  0  0  0  0
    4.5836   -2.9950    1.8781 H   0  0  0  0  0  0  0  0  0  0  0  0
    5.9658   -2.7964    1.0435 H   0  0  0  0  0  0  0  0  0  0  0  0
    4.9223   -0.5967    1.2979 H   0  0  0  0  0  0  0  0  0  0  0  0
    3.4443   -1.3305    0.6579 H   0  0  0  0  0  0  0  0  0  0  0  0
    4.5796   -1.7760   -1.5074 H   0  0  0  0  0  0  0  0  0  0  0  0
    6.0963   -1.1231   -0.8609 H   0  0  0  0  0  0  0  0  0  0  0  0
    3.4842    0.4640   -1.1349 H   0  0  0  0  0  0  0  0  0  0  0  0
    6.0272    1.5424   -0.7206 H   0  0  0  0  0  0  0  0  0  0  0  0
    4.5082    1.7021   -2.9165 H   0  0  0  0  0  0  0  0  0  0  0  0
    4.4342   -0.0141   -3.3823 H   0  0  0  0  0  0  0  0  0  0  0  0
    6.8481   -0.0980   -2.6296 H   0  0  0  0  0  0  0  0  0  0  0  0
    5.3468    2.7072   -4.5428 H   0  0  0  0  0  0  0  0  0  0  0  0
    6.6060    3.8318   -6.3355 H   0  0  0  0  0  0  0  0  0  0  0  0
    8.9786    3.2044   -6.8175 H   0  0  0  0  0  0  0  0  0  0  0  0
   10.0653    1.3864   -5.4371 H   0  0  0  0  0  0  0  0  0  0  0  0
  1  2  1  0
  1 15  1  0
  1 16  1  0
  2  3  1  0
  2 17  1  0
  2 18  1  0
  3  4  1  0
  3 19  1  0
  3 20  1  0
  4  5  1  0
  4  6  1  0
  4 21  1  6
  5 22  1  0
  6  7  1  0
  6 23  1  0
  6 24  1  0
  7  8  1  0
  7 25  1  0
  8  9  2  0
  8 13  1  0
  9 10  1  0
  9 26  1  0
 10 11  2  0
 10 27  1  0
 11 12  1  0
 11 28  1  0
 12 13  2  0
 12 29  1  0
 13 14  1  0
M  END

