
     RDKit          3D

 40 42  0  0  0  0  0  0  0  0999 V2000
    1.6268   -1.1369    0.5398 C   0  0  0  0  0  0  0  0  0  0  0  0
    1.5736    0.2707   -0.0126 C   0  0  2  0  0  0  0  0  0  0  0  0
    0.5366    0.6214   -0.1340 H   0  0  0  0  0  0  0  0  0  0  0  0
    2.1773    0.2381   -1.3357 O   0  0  0  0  0  0  0  0  0  0  0  0
    1.7451    1.0920   -2.2614 C   0  0  0  0  0  0  0  0  0  0  0  0
    0.9736    2.0023   -2.0541 O   0  0  0  0  0  0  0  0  0  0  0  0
    2.3836    0.8858   -3.6266 C   0  0  0  0  0  0  0  0  0  0  0  0
    3.0128   -0.7694   -4.0391 S   0  0  0  0  0  0  0  0  0  0  0  0
    1.5044   -1.6893   -4.0522 C   0  0  0  0  0  0  0  0  0  0  0  0
    0.3696   -1.0881   -3.7174 N   0  0  0  0  0  0  0  0  0  0  0  0
   -0.7673   -1.8056   -3.7353 C   0  0  0  0  0  0  0  0  0  0  0  0
   -0.8894   -3.0868   -4.0552 N   0  0  0  0  0  0  0  0  0  0  0  0
    0.2529   -3.6875   -4.3872 C   0  0  0  0  0  0  0  0  0  0  0  0
    0.3754   -5.3736   -4.8514 S   0  0  0  0  0  0  0  0  0  0  0  0
    2.0999   -5.2090   -5.0727 C   0  0  0  0  0  0  0  0  0  0  0  0
    2.5719   -3.9549   -4.8147 C   0  0  0  0  0  0  0  0  0  0  0  0
    1.5224   -3.0595   -4.4160 C   0  0  0  0  0  0  0  0  0  0  0  0
    2.3376    1.2760    0.8846 C   0  0  0  0  0  0  0  0  0  0  0  0
    3.0292    0.9019    1.8167 O   0  0  0  0  0  0  0  0  0  0  0  0
    2.1610    2.5797    0.5392 N   0  0  0  0  0  0  0  0  0  0  0  0
    2.7763    3.6695    1.2847 C   0  0  0  0  0  0  0  0  0  0  0  0
    1.7990    4.4951    2.0563 C   0  0  0  0  0  0  0  0  0  0  0  0
    1.5024    4.6074    3.3872 C   0  0  0  0  0  0  0  0  0  0  0  0
    0.4317    5.5585    3.4856 C   0  0  0  0  0  0  0  0  0  0  0  0
    0.1572    5.9478    2.2065 C   0  0  0  0  0  0  0  0  0  0  0  0
    0.9799    5.3121    1.3335 O   0  0  0  0  0  0  0  0  0  0  0  0
    2.6692   -1.4639    0.6553 H   0  0  0  0  0  0  0  0  0  0  0  0
    1.0947   -1.8265   -0.1310 H   0  0  0  0  0  0  0  0  0  0  0  0
    1.1547   -1.1651    1.5322 H   0  0  0  0  0  0  0  0  0  0  0  0
    3.2687    1.5401   -3.6899 H   0  0  0  0  0  0  0  0  0  0  0  0
    1.6569    1.2202   -4.3774 H   0  0  0  0  0  0  0  0  0  0  0  0
   -1.6813   -1.2702   -3.4547 H   0  0  0  0  0  0  0  0  0  0  0  0
    2.6789   -6.0759   -5.3899 H   0  0  0  0  0  0  0  0  0  0  0  0
    3.6222   -3.6751   -4.9019 H   0  0  0  0  0  0  0  0  0  0  0  0
    1.5396    2.7923   -0.2394 H   0  0  0  0  0  0  0  0  0  0  0  0
    3.3363    4.3177    0.5880 H   0  0  0  0  0  0  0  0  0  0  0  0
    3.4917    3.2155    1.9823 H   0  0  0  0  0  0  0  0  0  0  0  0
    1.9894    4.0705    4.1986 H   0  0  0  0  0  0  0  0  0  0  0  0
   -0.0653    5.9048    4.3895 H   0  0  0  0  0  0  0  0  0  0  0  0
   -0.5588    6.6414    1.7731 H   0  0  0  0  0  0  0  0  0  0  0  0
  1  2  1  0
  1 27  1  0
  1 28  1  0
  1 29  1  0
  2  3  1  6
  2  4  1  0
  2 18  1  0
  4  5  1  0
  5  6  2  0
  5  7  1  0
  7  8  1  0
  7 30  1  0
  7 31  1  0
  8  9  1  0
  9 10  2  0
  9 17  1  0
 10 11  1  0
 11 12  2  0
 11 32  1  0
 12 13  1  0
 13 14  1  0
 13 17  2  0
 14 15  1  0
 15 16  2  0
 15 33  1  0
 16 17  1  0
 16 34  1  0
 18 19  2  0
 18 20  1  0
 20 21  1  0
 20 35  1  0
 21 22  1  0
 21 36  1  0
 21 37  1  0
 22 23  2  0
 22 26  1  0
 23 24  1  0
 23 38  1  0
 24 25  2  0
 24 39  1  0
 25 26  1  0
 25 40  1  0
M  END

