
     RDKit          3D

 42 43  0  0  0  0  0  0  0  0999 V2000
    1.0940   -0.6513    0.1539 C   0  0  0  0  0  0  0  0  0  0  0  0
    2.5508   -1.0777   -0.0372 C   0  0  0  0  0  0  0  0  0  0  0  0
    3.1835   -0.5048   -1.3105 C   0  0  0  0  0  0  0  0  0  0  0  0
    4.6710   -0.8619   -1.5086 C   0  0  1  0  0  0  0  0  0  0  0  0
    4.9022   -2.3528   -1.8554 C   0  0  0  0  0  0  0  0  0  0  0  0
    4.5081   -2.7136   -3.2153 N   0  0  0  0  0  0  0  0  0  0  0  0
    5.0938   -1.8463   -4.2516 C   0  0  2  0  0  0  0  0  0  0  0  0
    6.5337   -2.2768   -4.5597 C   0  0  0  0  0  0  0  0  0  0  0  0
    4.9339   -0.3464   -3.8962 C   0  0  0  0  0  0  0  0  0  0  0  0
    5.2911    0.0081   -2.5216 N   0  0  0  0  0  0  0  0  0  0  0  0
    6.6711    0.4028   -2.2835 C   0  0  0  0  0  0  0  0  0  0  0  0
    7.0650    1.6962   -2.9821 C   0  0  0  0  0  0  0  0  0  0  0  0
    6.1872    2.7936   -3.0095 C   0  0  0  0  0  0  0  0  0  0  0  0
    6.5865    3.9902   -3.6044 C   0  0  0  0  0  0  0  0  0  0  0  0
    7.8557    4.1165   -4.1791 C   0  0  0  0  0  0  0  0  0  0  0  0
    8.7328    3.0249   -4.1581 C   0  0  0  0  0  0  0  0  0  0  0  0
    9.9782    3.0725   -4.7027 O   0  0  0  0  0  0  0  0  0  0  0  0
    8.3305    1.8194   -3.5631 C   0  0  0  0  0  0  0  0  0  0  0  0
    0.6666   -1.0714    1.0784 H   0  0  0  0  0  0  0  0  0  0  0  0
    0.4641   -0.9880   -0.6867 H   0  0  0  0  0  0  0  0  0  0  0  0
    1.0027    0.4462    0.2125 H   0  0  0  0  0  0  0  0  0  0  0  0
    2.6056   -2.1807   -0.0481 H   0  0  0  0  0  0  0  0  0  0  0  0
    3.1449   -0.7579    0.8385 H   0  0  0  0  0  0  0  0  0  0  0  0
    3.1090    0.5956   -1.2937 H   0  0  0  0  0  0  0  0  0  0  0  0
    2.5922   -0.8329   -2.1848 H   0  0  0  0  0  0  0  0  0  0  0  0
    5.1814   -0.6515   -0.5527 H   0  0  0  0  0  0  0  0  0  0  0  0
    4.3686   -3.0108   -1.1502 H   0  0  0  0  0  0  0  0  0  0  0  0
    5.9746   -2.5809   -1.7287 H   0  0  0  0  0  0  0  0  0  0  0  0
    3.4927   -2.7048   -3.2957 H   0  0  0  0  0  0  0  0  0  0  0  0
    4.5058   -2.0191   -5.1707 H   0  0  0  0  0  0  0  0  0  0  0  0
    7.1906   -2.2048   -3.6798 H   0  0  0  0  0  0  0  0  0  0  0  0
    6.9719   -1.6492   -5.3520 H   0  0  0  0  0  0  0  0  0  0  0  0
    6.5455   -3.3255   -4.8938 H   0  0  0  0  0  0  0  0  0  0  0  0
    3.8737   -0.0766   -4.0585 H   0  0  0  0  0  0  0  0  0  0  0  0
    5.5163    0.2844   -4.5858 H   0  0  0  0  0  0  0  0  0  0  0  0
    7.4235   -0.3721   -2.5421 H   0  0  0  0  0  0  0  0  0  0  0  0
    6.7753    0.5638   -1.1956 H   0  0  0  0  0  0  0  0  0  0  0  0
    5.1936    2.6894   -2.5698 H   0  0  0  0  0  0  0  0  0  0  0  0
    5.9036    4.8440   -3.6248 H   0  0  0  0  0  0  0  0  0  0  0  0
    8.1634    5.0575   -4.6467 H   0  0  0  0  0  0  0  0  0  0  0  0
   10.1287    3.9486   -5.0810 H   0  0  0  0  0  0  0  0  0  0  0  0
    9.0318    0.9811   -3.5664 H   0  0  0  0  0  0  0  0  0  0  0  0
  1  2  1  0
  1 19  1  0
  1 20  1  0
  1 21  1  0
  2  3  1  0
  2 22  1  0
  2 23  1  0
  3  4  1  0
  3 24  1  0
  3 25  1  0
  4  5  1  0
  4 10  1  0
  4 26  1  1
  5  6  1  0
  5 27  1  0
  5 28  1  0
  6  7  1  0
  6 29  1  0
  7  8  1  0
  7  9  1  0
  7 30  1  6
  8 31  1  0
  8 32  1  0
  8 33  1  0
  9 10  1  0
  9 34  1  0
  9 35  1  0
 10 11  1  0
 11 12  1  0
 11 36  1  0
 11 37  1  0
 12 13  2  0
 12 18  1  0
 13 14  1  0
 13 38  1  0
 14 15  2  0
 14 39  1  0
 15 16  1  0
 15 40  1  0
 16 17  1  0
 16 18  2  0
 17 41  1  0
 18 42  1  0
M  END

