
     RDKit          3D

 42 44  0  0  0  0  0  0  0  0999 V2000
    7.4556   -5.5761   -4.4402 C   0  0  0  0  0  0  0  0  0  0  0  0
    7.8710   -4.2273   -3.9428 C   0  0  0  0  0  0  0  0  0  0  0  0
    7.9728   -4.0091   -2.6635 N   0  0  0  0  0  0  0  0  0  0  0  0
    8.3459   -2.7927   -2.1802 N   0  0  0  0  0  0  0  0  0  0  0  0
    8.6177   -1.8137   -3.0032 C   0  0  0  0  0  0  0  0  0  0  0  0
    9.0922   -0.2080   -2.4498 S   0  0  0  0  0  0  0  0  0  0  0  0
    8.9425   -0.4070   -0.6289 C   0  0  0  0  0  0  0  0  0  0  0  0
   10.1919   -0.9863    0.0496 C   0  0  0  0  0  0  0  0  0  0  0  0
   11.0262   -0.2551    0.5577 O   0  0  0  0  0  0  0  0  0  0  0  0
   10.2464   -2.3437    0.0406 N   0  0  0  0  0  0  0  0  0  0  0  0
   11.3884   -3.0920    0.5588 C   0  0  1  0  0  0  0  0  0  0  0  0
   12.0252   -2.3361    1.0387 H   0  0  0  0  0  0  0  0  0  0  0  0
   10.9360   -4.1028    1.6224 C   0  0  0  0  0  0  0  0  0  0  0  0
   12.1959   -3.7449   -0.5621 C   0  0  0  0  0  0  0  0  0  0  0  0
   11.6096   -4.6893   -1.4184 C   0  0  0  0  0  0  0  0  0  0  0  0
   12.3347   -5.3101   -2.4541 C   0  0  0  0  0  0  0  0  0  0  0  0
   13.6651   -4.9547   -2.5914 C   0  0  0  0  0  0  0  0  0  0  0  0
   14.2595   -4.0171   -1.7452 C   0  0  0  0  0  0  0  0  0  0  0  0
   13.5547   -3.3947   -0.7300 C   0  0  0  0  0  0  0  0  0  0  0  0
   15.5628   -3.8327   -2.1209 O   0  0  0  0  0  0  0  0  0  0  0  0
   15.8293   -4.8176   -3.1143 C   0  0  0  0  0  0  0  0  0  0  0  0
   14.5823   -5.3781   -3.5155 O   0  0  0  0  0  0  0  0  0  0  0  0
    8.5507   -1.9700   -4.3664 N   0  0  0  0  0  0  0  0  0  0  0  0
    8.8661   -0.8825   -5.1866 N   0  0  0  0  0  0  0  0  0  0  0  0
    8.1609   -3.1900   -4.9484 C   0  0  0  0  0  0  0  0  0  0  0  0
    8.0893   -3.3097   -6.1568 O   0  0  0  0  0  0  0  0  0  0  0  0
    7.2765   -6.2447   -3.5888 H   0  0  0  0  0  0  0  0  0  0  0  0
    8.2315   -6.0050   -5.0953 H   0  0  0  0  0  0  0  0  0  0  0  0
    6.5415   -5.4990   -5.0514 H   0  0  0  0  0  0  0  0  0  0  0  0
    8.0366   -0.9914   -0.4181 H   0  0  0  0  0  0  0  0  0  0  0  0
    8.8219    0.6226   -0.2679 H   0  0  0  0  0  0  0  0  0  0  0  0
    9.5282   -2.8240   -0.5059 H   0  0  0  0  0  0  0  0  0  0  0  0
   10.4154   -3.5868    2.4441 H   0  0  0  0  0  0  0  0  0  0  0  0
   11.8018   -4.6409    2.0382 H   0  0  0  0  0  0  0  0  0  0  0  0
   10.2480   -4.8520    1.1979 H   0  0  0  0  0  0  0  0  0  0  0  0
   10.5571   -4.9573   -1.2932 H   0  0  0  0  0  0  0  0  0  0  0  0
   11.8732   -6.0414   -3.1195 H   0  0  0  0  0  0  0  0  0  0  0  0
   14.0339   -2.6536   -0.0877 H   0  0  0  0  0  0  0  0  0  0  0  0
   16.4757   -5.6117   -2.6890 H   0  0  0  0  0  0  0  0  0  0  0  0
   16.3226   -4.3483   -3.9812 H   0  0  0  0  0  0  0  0  0  0  0  0
    9.6918   -1.1314   -5.7382 H   0  0  0  0  0  0  0  0  0  0  0  0
    8.1043   -0.7734   -5.8607 H   0  0  0  0  0  0  0  0  0  0  0  0
  1  2  1  0
  1 27  1  0
  1 28  1  0
  1 29  1  0
  2  3  1  0
  2 25  2  0
  3  4  2  0
  4  5  1  0
  5  6  2  0
  5 23  1  0
  6  7  1  0
  7  8  1  0
  7 30  1  0
  7 31  1  0
  8  9  2  0
  8 10  1  0
 10 11  1  0
 10 32  1  0
 11 12  1  1
 11 13  1  0
 11 14  1  0
 13 33  1  0
 13 34  1  0
 13 35  1  0
 14 15  2  0
 14 19  1  0
 15 16  1  0
 15 36  1  0
 16 17  2  0
 16 37  1  0
 17 18  1  0
 17 22  1  0
 18 19  2  0
 18 20  1  0
 19 38  1  0
 20 21  1  0
 21 22  1  0
 21 39  1  0
 21 40  1  0
 23 24  1  0
 23 25  1  0
 24 41  1  0
 24 42  1  0
 25 26  1  0
M  CHG  2   6   1  26  -1
M  END

