
     RDKit          3D

 52 55  0  0  0  0  0  0  0  0999 V2000
    1.0968    0.1184   -0.3207 C   0  0  0  0  0  0  0  0  0  0  0  0
    2.6001   -0.0078   -0.0376 C   0  0  1  0  0  0  0  0  0  0  0  0
    3.1102    1.2827    0.4220 N   0  0  0  0  0  0  0  0  0  0  0  0
    4.0983    1.9770   -0.2176 C   0  0  0  0  0  0  0  0  0  0  0  0
    4.6672    1.5612   -1.2167 O   0  0  0  0  0  0  0  0  0  0  0  0
    4.4608    3.3238    0.4016 C   0  0  0  0  0  0  0  0  0  0  0  0
    4.5170    4.4447   -0.6650 C   0  0  1  0  0  0  0  0  0  0  0  0
    3.1137    4.8303   -1.1493 C   0  0  0  0  0  0  0  0  0  0  0  0
    2.3887    5.5084   -0.1374 O   0  0  0  0  0  0  0  0  0  0  0  0
    3.0355    6.7076    0.2489 C   0  0  0  0  0  0  0  0  0  0  0  0
    4.4398    6.4276    0.7782 C   0  0  0  0  0  0  0  0  0  0  0  0
    5.1776    5.6744   -0.2284 N   0  0  0  0  0  0  0  0  0  0  0  0
    3.0081   -1.1775    0.9139 C   0  0  2  0  0  0  0  0  0  0  0  0
    2.5699   -2.5381    0.3130 C   0  0  0  0  0  0  0  0  0  0  0  0
    3.0155   -3.7082    1.2125 C   0  0  1  0  0  0  0  0  0  0  0  0
    4.5490   -3.7047    1.3488 C   0  0  0  0  0  0  0  0  0  0  0  0
    4.9994   -2.3703    1.9711 C   0  0  2  0  0  0  0  0  0  0  0  0
    4.3631   -2.2107    3.3652 C   0  0  0  0  0  0  0  0  0  0  0  0
    2.8285   -2.2163    3.2306 C   0  0  2  0  0  0  0  0  0  0  0  0
    2.3748   -3.5497    2.6053 C   0  0  0  0  0  0  0  0  0  0  0  0
    2.3831   -1.0484    2.3258 C   0  0  0  0  0  0  0  0  0  0  0  0
    4.5510   -1.2048    1.0699 C   0  0  0  0  0  0  0  0  0  0  0  0
    0.9238    0.9206   -1.0539 H   0  0  0  0  0  0  0  0  0  0  0  0
    0.5244    0.3683    0.5879 H   0  0  0  0  0  0  0  0  0  0  0  0
    0.6778   -0.8091   -0.7358 H   0  0  0  0  0  0  0  0  0  0  0  0
    3.1200   -0.1829   -0.9920 H   0  0  0  0  0  0  0  0  0  0  0  0
    2.6517    1.7255    1.2094 H   0  0  0  0  0  0  0  0  0  0  0  0
    5.4660    3.2086    0.8431 H   0  0  0  0  0  0  0  0  0  0  0  0
    3.7683    3.5940    1.2134 H   0  0  0  0  0  0  0  0  0  0  0  0
    5.0744    4.0375   -1.5238 H   0  0  0  0  0  0  0  0  0  0  0  0
    2.5274    3.9398   -1.4213 H   0  0  0  0  0  0  0  0  0  0  0  0
    3.2090    5.4724   -2.0470 H   0  0  0  0  0  0  0  0  0  0  0  0
    2.4088    7.1781    1.0222 H   0  0  0  0  0  0  0  0  0  0  0  0
    3.1033    7.3974   -0.6173 H   0  0  0  0  0  0  0  0  0  0  0  0
    4.3529    5.9080    1.7585 H   0  0  0  0  0  0  0  0  0  0  0  0
    4.9565    7.3839    0.9664 H   0  0  0  0  0  0  0  0  0  0  0  0
    6.1358    5.4961    0.0641 H   0  0  0  0  0  0  0  0  0  0  0  0
    3.0011   -2.6500   -0.6978 H   0  0  0  0  0  0  0  0  0  0  0  0
    1.4742   -2.5721    0.1970 H   0  0  0  0  0  0  0  0  0  0  0  0
    2.6844   -4.6580    0.7587 H   0  0  0  0  0  0  0  0  0  0  0  0
    5.0190   -3.8395    0.3592 H   0  0  0  0  0  0  0  0  0  0  0  0
    4.8777   -4.5513    1.9765 H   0  0  0  0  0  0  0  0  0  0  0  0
    6.0990   -2.3552    2.0615 H   0  0  0  0  0  0  0  0  0  0  0  0
    4.7004   -1.2681    3.8309 H   0  0  0  0  0  0  0  0  0  0  0  0
    4.6886   -3.0290    4.0309 H   0  0  0  0  0  0  0  0  0  0  0  0
    2.3675   -2.0985    4.2264 H   0  0  0  0  0  0  0  0  0  0  0  0
    1.2740   -3.5762    2.5230 H   0  0  0  0  0  0  0  0  0  0  0  0
    2.6654   -4.3925    3.2563 H   0  0  0  0  0  0  0  0  0  0  0  0
    2.6866   -0.0911    2.7859 H   0  0  0  0  0  0  0  0  0  0  0  0
    1.2819   -1.0375    2.2584 H   0  0  0  0  0  0  0  0  0  0  0  0
    5.0213   -1.2839    0.0753 H   0  0  0  0  0  0  0  0  0  0  0  0
    4.8943   -0.2511    1.5019 H   0  0  0  0  0  0  0  0  0  0  0  0
  1  2  1  0
  1 23  1  0
  1 24  1  0
  1 25  1  0
  2  3  1  0
  2 13  1  0
  2 26  1  6
  3  4  1  0
  3 27  1  0
  4  5  2  0
  4  6  1  0
  6  7  1  0
  6 28  1  0
  6 29  1  0
  7  8  1  0
  7 12  1  0
  7 30  1  6
  8  9  1  0
  8 31  1  0
  8 32  1  0
  9 10  1  0
 10 11  1  0
 10 33  1  0
 10 34  1  0
 11 12  1  0
 11 35  1  0
 11 36  1  0
 12 37  1  0
 13 14  1  6
 13 21  1  0
 13 22  1  0
 14 15  1  0
 14 38  1  0
 14 39  1  0
 15 16  1  0
 15 20  1  0
 15 40  1  6
 16 17  1  0
 16 41  1  0
 16 42  1  0
 17 18  1  0
 17 22  1  0
 17 43  1  1
 18 19  1  0
 18 44  1  0
 18 45  1  0
 19 20  1  0
 19 21  1  0
 19 46  1  1
 20 47  1  0
 20 48  1  0
 21 49  1  0
 21 50  1  0
 22 51  1  0
 22 52  1  0
M  END

