
     RDKit          3D

 23 23  0  0  0  0  0  0  0  0999 V2000
    3.3003    1.7050    2.8032 C   0  0  0  0  0  0  0  0  0  0  0  0
    3.5127    1.1567    1.7447 C   0  0  0  0  0  0  0  0  0  0  0  0
    3.7408    0.4997    0.4550 C   0  0  0  0  0  0  0  0  0  0  0  0
    4.2179    1.4212   -0.5653 N   0  0  0  0  0  0  0  0  0  0  0  0
    5.2715    1.1094   -1.3791 C   0  0  0  0  0  0  0  0  0  0  0  0
    5.8447    0.0332   -1.3352 O   0  0  0  0  0  0  0  0  0  0  0  0
    5.6900    2.1766   -2.3601 C   0  0  0  0  0  0  0  0  0  0  0  0
    5.4232    3.5461   -2.1981 C   0  0  0  0  0  0  0  0  0  0  0  0
    5.8654    4.4756   -3.1379 C   0  0  0  0  0  0  0  0  0  0  0  0
    6.5943    4.0524   -4.2492 C   0  0  0  0  0  0  0  0  0  0  0  0
    6.9772    4.9588   -5.1347 F   0  0  0  0  0  0  0  0  0  0  0  0
    6.8803    2.6860   -4.4109 C   0  0  0  0  0  0  0  0  0  0  0  0
    7.6685    2.1907   -5.5561 N   0  0  0  0  0  0  0  0  0  0  0  0
    8.4281    2.9736   -6.0971 O   0  0  0  0  0  0  0  0  0  0  0  0
    7.5117    1.0222   -5.8683 O   0  0  0  0  0  0  0  0  0  0  0  0
    6.4289    1.7608   -3.4723 C   0  0  0  0  0  0  0  0  0  0  0  0
    3.1209    2.1835    3.7479 H   0  0  0  0  0  0  0  0  0  0  0  0
    2.8094   -0.0003    0.1287 H   0  0  0  0  0  0  0  0  0  0  0  0
    4.5039   -0.2897    0.5434 H   0  0  0  0  0  0  0  0  0  0  0  0
    3.6980    2.2770   -0.7107 H   0  0  0  0  0  0  0  0  0  0  0  0
    4.8861    3.9097   -1.3190 H   0  0  0  0  0  0  0  0  0  0  0  0
    5.6629    5.5427   -3.0286 H   0  0  0  0  0  0  0  0  0  0  0  0
    6.6594    0.7039   -3.6064 H   0  0  0  0  0  0  0  0  0  0  0  0
  1  2  3  0
  1 17  1  0
  2  3  1  0
  3  4  1  0
  3 18  1  0
  3 19  1  0
  4  5  1  0
  4 20  1  0
  5  6  2  0
  5  7  1  0
  7  8  2  0
  7 16  1  0
  8  9  1  0
  8 21  1  0
  9 10  2  0
  9 22  1  0
 10 11  1  0
 10 12  1  0
 12 13  1  0
 12 16  2  0
 13 14  2  0
 13 15  1  0
 16 23  1  0
M  CHG  2  13   1  15  -1
M  END

