
     RDKit          3D

 52 53  0  0  0  0  0  0  0  0999 V2000
    1.7907   -0.1396    2.4660 C   0  0  0  0  0  0  0  0  0  0  0  0
    2.8546   -0.1483    1.3928 C   0  0  0  0  0  0  0  0  0  0  0  0
    3.1551    0.9942    0.6443 C   0  0  0  0  0  0  0  0  0  0  0  0
    4.1407    0.9526   -0.3447 C   0  0  0  0  0  0  0  0  0  0  0  0
    4.8624   -0.2151   -0.6243 C   0  0  0  0  0  0  0  0  0  0  0  0
    5.9082   -0.1973   -1.7188 C   0  0  0  0  0  0  0  0  0  0  0  0
    4.5698   -1.3840    0.1227 C   0  0  0  0  0  0  0  0  0  0  0  0
    5.3498   -2.6744   -0.1005 C   0  0  1  0  0  0  0  0  0  0  0  0
    6.6234   -2.7086    0.8064 C   0  0  0  0  0  0  0  0  0  0  0  0
    6.4271   -2.7492    2.2455 N   0  0  0  0  0  0  0  0  0  0  0  0
    4.4821   -3.9411    0.0437 C   0  0  0  0  0  0  0  0  0  0  0  0
    5.1054   -5.1837   -0.5808 C   0  0  0  0  0  0  0  0  0  0  0  0
    4.2471   -6.2795   -0.3111 O   0  0  0  0  0  0  0  0  0  0  0  0
    4.5387   -7.5142   -0.8162 C   0  0  0  0  0  0  0  0  0  0  0  0
    5.6717   -7.8012   -1.5841 C   0  0  0  0  0  0  0  0  0  0  0  0
    5.9159   -9.0956   -2.0772 C   0  0  0  0  0  0  0  0  0  0  0  0
    7.1618   -9.3532   -2.8959 C   0  0  0  0  0  0  0  0  0  0  0  0
    4.9974  -10.1225   -1.7903 C   0  0  0  0  0  0  0  0  0  0  0  0
    5.1925  -11.5439   -2.2714 C   0  0  0  0  0  0  0  0  0  0  0  0
    3.8682   -9.8090   -1.0138 C   0  0  0  0  0  0  0  0  0  0  0  0
    3.6100   -8.5325   -0.5138 C   0  0  0  0  0  0  0  0  0  0  0  0
    2.3921   -8.2214    0.3174 C   0  0  0  0  0  0  0  0  0  0  0  0
    3.5749   -1.3203    1.1106 C   0  0  0  0  0  0  0  0  0  0  0  0
    1.2943    0.8401    2.5339 H   0  0  0  0  0  0  0  0  0  0  0  0
    2.2155   -0.3687    3.4582 H   0  0  0  0  0  0  0  0  0  0  0  0
    1.0140   -0.8969    2.2663 H   0  0  0  0  0  0  0  0  0  0  0  0
    2.6131    1.9261    0.8303 H   0  0  0  0  0  0  0  0  0  0  0  0
    4.3573    1.8576   -0.9201 H   0  0  0  0  0  0  0  0  0  0  0  0
    6.0294    0.8185   -2.1232 H   0  0  0  0  0  0  0  0  0  0  0  0
    5.6293   -0.8540   -2.5616 H   0  0  0  0  0  0  0  0  0  0  0  0
    6.8962   -0.5318   -1.3650 H   0  0  0  0  0  0  0  0  0  0  0  0
    5.7210   -2.6627   -1.1393 H   0  0  0  0  0  0  0  0  0  0  0  0
    7.2310   -1.8179    0.5740 H   0  0  0  0  0  0  0  0  0  0  0  0
    7.2431   -3.5754    0.5194 H   0  0  0  0  0  0  0  0  0  0  0  0
    5.8584   -1.9611    2.5564 H   0  0  0  0  0  0  0  0  0  0  0  0
    5.9388   -3.5970    2.5338 H   0  0  0  0  0  0  0  0  0  0  0  0
    3.5016   -3.7737   -0.4299 H   0  0  0  0  0  0  0  0  0  0  0  0
    4.2741   -4.1639    1.1037 H   0  0  0  0  0  0  0  0  0  0  0  0
    6.1108   -5.3855   -0.1660 H   0  0  0  0  0  0  0  0  0  0  0  0
    5.2200   -5.0486   -1.6728 H   0  0  0  0  0  0  0  0  0  0  0  0
    6.3950   -7.0166   -1.8104 H   0  0  0  0  0  0  0  0  0  0  0  0
    7.7506   -8.4325   -3.0231 H   0  0  0  0  0  0  0  0  0  0  0  0
    6.9208   -9.7342   -3.9028 H   0  0  0  0  0  0  0  0  0  0  0  0
    7.8169  -10.1027   -2.4200 H   0  0  0  0  0  0  0  0  0  0  0  0
    5.8052  -11.6022   -3.1828 H   0  0  0  0  0  0  0  0  0  0  0  0
    4.2254  -12.0240   -2.4901 H   0  0  0  0  0  0  0  0  0  0  0  0
    5.6943  -12.1622   -1.5057 H   0  0  0  0  0  0  0  0  0  0  0  0
    3.1502  -10.6046   -0.7892 H   0  0  0  0  0  0  0  0  0  0  0  0
    1.7623   -9.1144    0.4446 H   0  0  0  0  0  0  0  0  0  0  0  0
    1.7824   -7.4279   -0.1455 H   0  0  0  0  0  0  0  0  0  0  0  0
    2.6730   -7.8514    1.3179 H   0  0  0  0  0  0  0  0  0  0  0  0
    3.3361   -2.2205    1.6827 H   0  0  0  0  0  0  0  0  0  0  0  0
  1  2  1  0
  1 24  1  0
  1 25  1  0
  1 26  1  0
  2  3  2  0
  2 23  1  0
  3  4  1  0
  3 27  1  0
  4  5  2  0
  4 28  1  0
  5  6  1  0
  5  7  1  0
  6 29  1  0
  6 30  1  0
  6 31  1  0
  7  8  1  0
  7 23  2  0
  8  9  1  0
  8 11  1  0
  8 32  1  6
  9 10  1  0
  9 33  1  0
  9 34  1  0
 10 35  1  0
 10 36  1  0
 11 12  1  0
 11 37  1  0
 11 38  1  0
 12 13  1  0
 12 39  1  0
 12 40  1  0
 13 14  1  0
 14 15  2  0
 14 21  1  0
 15 16  1  0
 15 41  1  0
 16 17  1  0
 16 18  2  0
 17 42  1  0
 17 43  1  0
 17 44  1  0
 18 19  1  0
 18 20  1  0
 19 45  1  0
 19 46  1  0
 19 47  1  0
 20 21  2  0
 20 48  1  0
 21 22  1  0
 22 49  1  0
 22 50  1  0
 22 51  1  0
 23 52  1  0
M  END

