
     RDKit          3D

 49 51  0  0  0  0  0  0  0  0999 V2000
    1.7813    2.7088    0.4147 C   0  0  0  0  0  0  0  0  0  0  0  0
    3.3027    2.7053    0.4465 C   0  0  0  0  0  0  0  0  0  0  0  0
    3.9419    3.7404    0.4283 O   0  0  0  0  0  0  0  0  0  0  0  0
    3.8694    1.4484    0.4841 N   0  0  0  0  0  0  0  0  0  0  0  0
    5.2301    1.0910    0.5022 C   0  0  0  0  0  0  0  0  0  0  0  0
    6.2741    2.0315    0.4869 C   0  0  0  0  0  0  0  0  0  0  0  0
    7.5923    1.5754    0.5072 C   0  0  0  0  0  0  0  0  0  0  0  0
    7.8826    0.2147    0.5417 C   0  0  0  0  0  0  0  0  0  0  0  0
    9.5598   -0.3122    0.5662 Cl  0  0  0  0  0  0  0  0  0  0  0  0
    6.8445   -0.7449    0.5574 C   0  0  0  0  0  0  0  0  0  0  0  0
    7.1799   -2.1019    0.5925 N   0  0  0  0  0  0  0  0  0  0  0  0
    6.3443   -3.1933    0.6014 C   0  0  0  0  0  0  0  0  0  0  0  0
    5.1192   -3.1435    0.5858 O   0  0  0  0  0  0  0  0  0  0  0  0
    7.0565   -4.4870    0.6388 C   0  0  0  0  0  0  0  0  0  0  0  0
    8.4335   -4.4634    0.5889 O   0  0  0  0  0  0  0  0  0  0  0  0
    8.8490   -5.7574    0.6363 C   0  0  0  0  0  0  0  0  0  0  0  0
   10.1712   -6.1974    0.6077 C   0  0  0  0  0  0  0  0  0  0  0  0
   10.3661   -7.5771    0.6636 C   0  0  0  0  0  0  0  0  0  0  0  0
    9.2762   -8.4711    0.7467 C   0  0  0  0  0  0  0  0  0  0  0  0
    7.9623   -8.0134    0.7781 C   0  0  0  0  0  0  0  0  0  0  0  0
    7.7382   -6.6236    0.7163 C   0  0  0  0  0  0  0  0  0  0  0  0
    6.5708   -5.7683    0.7211 C   0  0  0  0  0  0  0  0  0  0  0  0
    5.1300   -6.1857    0.7506 C   0  0  0  0  0  0  0  0  0  0  0  0
    5.0119   -7.4212    1.4191 O   0  0  0  0  0  0  0  0  0  0  0  0
    3.6805   -7.8500    1.6901 C   0  0  1  0  0  0  0  0  0  0  0  0
    2.9861   -8.3874    0.4367 C   0  0  0  0  0  0  0  0  0  0  0  0
    3.7734   -8.8939    2.7960 C   0  0  0  0  0  0  0  0  0  0  0  0
    5.5204   -0.2828    0.5377 C   0  0  0  0  0  0  0  0  0  0  0  0
    1.4188    3.3839    1.2036 H   0  0  0  0  0  0  0  0  0  0  0  0
    1.3214    1.7183    0.5455 H   0  0  0  0  0  0  0  0  0  0  0  0
    1.4520    3.1309   -0.5477 H   0  0  0  0  0  0  0  0  0  0  0  0
    3.2268    0.6658    0.4975 H   0  0  0  0  0  0  0  0  0  0  0  0
    6.0460    3.0936    0.4601 H   0  0  0  0  0  0  0  0  0  0  0  0
    8.4165    2.2907    0.4960 H   0  0  0  0  0  0  0  0  0  0  0  0
    8.1774   -2.3002    0.6047 H   0  0  0  0  0  0  0  0  0  0  0  0
   11.0020   -5.4928    0.5450 H   0  0  0  0  0  0  0  0  0  0  0  0
   11.3841   -7.9740    0.6443 H   0  0  0  0  0  0  0  0  0  0  0  0
    9.4731   -9.5449    0.7913 H   0  0  0  0  0  0  0  0  0  0  0  0
    7.1167   -8.6961    0.8535 H   0  0  0  0  0  0  0  0  0  0  0  0
    4.7589   -6.2526   -0.2938 H   0  0  0  0  0  0  0  0  0  0  0  0
    4.5268   -5.3995    1.2387 H   0  0  0  0  0  0  0  0  0  0  0  0
    3.1052   -6.9790    2.0680 H   0  0  0  0  0  0  0  0  0  0  0  0
    3.5417   -9.2484    0.0307 H   0  0  0  0  0  0  0  0  0  0  0  0
    2.9120   -7.6233   -0.3524 H   0  0  0  0  0  0  0  0  0  0  0  0
    1.9619   -8.7171    0.6734 H   0  0  0  0  0  0  0  0  0  0  0  0
    4.3432   -9.7715    2.4499 H   0  0  0  0  0  0  0  0  0  0  0  0
    2.7708   -9.2316    3.1008 H   0  0  0  0  0  0  0  0  0  0  0  0
    4.2875   -8.4766    3.6746 H   0  0  0  0  0  0  0  0  0  0  0  0
    4.7228   -1.0237    0.5505 H   0  0  0  0  0  0  0  0  0  0  0  0
  1  2  1  0
  1 29  1  0
  1 30  1  0
  1 31  1  0
  2  3  2  0
  2  4  1  0
  4  5  1  0
  4 32  1  0
  5  6  2  0
  5 28  1  0
  6  7  1  0
  6 33  1  0
  7  8  2  0
  7 34  1  0
  8  9  1  0
  8 10  1  0
 10 11  1  0
 10 28  2  0
 11 12  1  0
 11 35  1  0
 12 13  2  0
 12 14  1  0
 14 15  1  0
 14 22  2  0
 15 16  1  0
 16 17  2  0
 16 21  1  0
 17 18  1  0
 17 36  1  0
 18 19  2  0
 18 37  1  0
 19 20  1  0
 19 38  1  0
 20 21  2  0
 20 39  1  0
 21 22  1  0
 22 23  1  0
 23 24  1  0
 23 40  1  0
 23 41  1  0
 24 25  1  0
 25 26  1  0
 25 27  1  0
 25 42  1  1
 26 43  1  0
 26 44  1  0
 26 45  1  0
 27 46  1  0
 27 47  1  0
 27 48  1  0
 28 49  1  0
M  END

