
     RDKit          3D

 34 35  0  0  0  0  0  0  0  0999 V2000
    0.7185   -0.1800    0.1447 C   0  0  0  0  0  0  0  0  0  0  0  0
    2.1631   -0.2371    0.0242 N   0  0  0  0  0  0  0  0  0  0  0  0
    2.6911   -1.4727   -0.5506 C   0  0  0  0  0  0  0  0  0  0  0  0
    2.6123   -1.5016   -2.0878 C   0  0  0  0  0  0  0  0  0  0  0  0
    3.2317   -0.3267   -2.7041 N   0  0  0  0  0  0  0  0  0  0  0  0
    4.6741   -0.3576   -2.8738 C   0  0  0  0  0  0  0  0  0  0  0  0
    5.0781    0.4846   -4.0864 C   0  0  0  0  0  0  0  0  0  0  0  0
    5.8025    1.4505   -3.9526 O   0  0  0  0  0  0  0  0  0  0  0  0
    4.5106    0.1625   -5.4481 C   0  0  0  0  0  0  0  0  0  0  0  0
    4.6056    1.1701   -6.4250 C   0  0  0  0  0  0  0  0  0  0  0  0
    4.1164    0.9586   -7.7058 C   0  0  0  0  0  0  0  0  0  0  0  0
    4.2073    1.9378   -8.6167 F   0  0  0  0  0  0  0  0  0  0  0  0
    3.5308   -0.2541   -8.0711 C   0  0  0  0  0  0  0  0  0  0  0  0
    3.4453   -1.2712   -7.1208 C   0  0  0  0  0  0  0  0  0  0  0  0
    3.9310   -1.0572   -5.8322 C   0  0  0  0  0  0  0  0  0  0  0  0
    3.8522   -2.0840   -4.9691 F   0  0  0  0  0  0  0  0  0  0  0  0
    2.7057    0.9182   -2.1331 C   0  0  0  0  0  0  0  0  0  0  0  0
    2.7830    0.9333   -0.5941 C   0  0  0  0  0  0  0  0  0  0  0  0
    0.3628   -1.0449    0.7286 H   0  0  0  0  0  0  0  0  0  0  0  0
    0.1513   -0.1756   -0.8129 H   0  0  0  0  0  0  0  0  0  0  0  0
    0.4307    0.7302    0.6962 H   0  0  0  0  0  0  0  0  0  0  0  0
    2.1508   -2.3328   -0.1200 H   0  0  0  0  0  0  0  0  0  0  0  0
    3.7489   -1.5735   -0.2411 H   0  0  0  0  0  0  0  0  0  0  0  0
    1.5527   -1.5308   -2.4022 H   0  0  0  0  0  0  0  0  0  0  0  0
    3.0828   -2.4112   -2.4914 H   0  0  0  0  0  0  0  0  0  0  0  0
    4.9909   -1.3970   -3.0446 H   0  0  0  0  0  0  0  0  0  0  0  0
    5.2596    0.0388   -2.0215 H   0  0  0  0  0  0  0  0  0  0  0  0
    5.0713    2.1192   -6.1555 H   0  0  0  0  0  0  0  0  0  0  0  0
    3.1561   -0.3898   -9.0874 H   0  0  0  0  0  0  0  0  0  0  0  0
    3.0073   -2.2411   -7.3633 H   0  0  0  0  0  0  0  0  0  0  0  0
    1.6543    1.0276   -2.4554 H   0  0  0  0  0  0  0  0  0  0  0  0
    3.2547    1.7764   -2.5532 H   0  0  0  0  0  0  0  0  0  0  0  0
    2.3122    1.8473   -0.1950 H   0  0  0  0  0  0  0  0  0  0  0  0
    3.8443    0.9640   -0.2849 H   0  0  0  0  0  0  0  0  0  0  0  0
  1  2  1  0
  1 19  1  0
  1 20  1  0
  1 21  1  0
  2  3  1  0
  2 18  1  0
  3  4  1  0
  3 22  1  0
  3 23  1  0
  4  5  1  0
  4 24  1  0
  4 25  1  0
  5  6  1  0
  5 17  1  0
  6  7  1  0
  6 26  1  0
  6 27  1  0
  7  8  2  0
  7  9  1  0
  9 10  2  0
  9 15  1  0
 10 11  1  0
 10 28  1  0
 11 12  1  0
 11 13  2  0
 13 14  1  0
 13 29  1  0
 14 15  2  0
 14 30  1  0
 15 16  1  0
 17 18  1  0
 17 31  1  0
 17 32  1  0
 18 33  1  0
 18 34  1  0
M  END

