
     RDKit          3D

 59 61  0  0  0  0  0  0  0  0999 V2000
    0.3982    1.9286    1.4475 C   0  0  0  0  0  0  0  0  0  0  0  0
    1.7352    2.6795    1.4004 C   0  0  1  0  0  0  0  0  0  0  0  0
    1.6079    4.0584    2.0642 C   0  0  0  0  0  0  0  0  0  0  0  0
    2.8512    1.8197    2.0207 C   0  0  0  0  0  0  0  0  0  0  0  0
    4.2537    2.3917    1.8731 C   0  0  0  0  0  0  0  0  0  0  0  0
    5.1689    1.4340    2.3901 O   0  0  0  0  0  0  0  0  0  0  0  0
    6.4949    1.6950    2.3926 C   0  0  0  0  0  0  0  0  0  0  0  0
    7.0786    2.8711    1.8894 C   0  0  0  0  0  0  0  0  0  0  0  0
    8.4626    3.0346    1.9445 C   0  0  0  0  0  0  0  0  0  0  0  0
    9.2978    2.0436    2.4783 C   0  0  0  0  0  0  0  0  0  0  0  0
   10.7720    2.3265    2.4997 C   0  0  0  0  0  0  0  0  0  0  0  0
   11.2263    3.4482    2.4116 O   0  0  0  0  0  0  0  0  0  0  0  0
   11.5745    1.1944    2.6062 N   0  0  0  0  0  0  0  0  0  0  0  0
   12.9134    1.2924    2.6877 N   0  0  0  0  0  0  0  0  0  0  0  0
   13.6048    0.2125    2.6988 C   0  0  0  0  0  0  0  0  0  0  0  0
   15.0656    0.2185    2.7930 C   0  0  0  0  0  0  0  0  0  0  0  0
   15.7963    1.4173    2.8731 C   0  0  0  0  0  0  0  0  0  0  0  0
   17.1870    1.4113    2.9629 C   0  0  0  0  0  0  0  0  0  0  0  0
   17.8847    0.1892    2.9733 C   0  0  0  0  0  0  0  0  0  0  0  0
   19.2337    0.0758    3.0585 O   0  0  0  0  0  0  0  0  0  0  0  0
   20.0350    1.2405    3.1249 C   0  0  0  0  0  0  0  0  0  0  0  0
   21.4964    0.8582    3.1741 C   0  0  0  0  0  0  0  0  0  0  0  0
   21.9566   -0.3446    2.6209 C   0  0  0  0  0  0  0  0  0  0  0  0
   23.3198   -0.6536    2.6373 C   0  0  0  0  0  0  0  0  0  0  0  0
   24.2392    0.2358    3.2010 C   0  0  0  0  0  0  0  0  0  0  0  0
   23.7865    1.4369    3.7554 C   0  0  0  0  0  0  0  0  0  0  0  0
   22.4233    1.7423    3.7454 C   0  0  0  0  0  0  0  0  0  0  0  0
   17.1655   -1.0161    2.8944 C   0  0  0  0  0  0  0  0  0  0  0  0
   15.7788   -0.9965    2.8059 C   0  0  0  0  0  0  0  0  0  0  0  0
    8.6990    0.8769    2.9928 C   0  0  0  0  0  0  0  0  0  0  0  0
    7.3211    0.7017    2.9514 C   0  0  0  0  0  0  0  0  0  0  0  0
   -0.4042    2.5108    0.9667 H   0  0  0  0  0  0  0  0  0  0  0  0
    0.0910    1.7356    2.4897 H   0  0  0  0  0  0  0  0  0  0  0  0
    0.4627    0.9557    0.9341 H   0  0  0  0  0  0  0  0  0  0  0  0
    1.9900    2.8399    0.3349 H   0  0  0  0  0  0  0  0  0  0  0  0
    1.3879    3.9580    3.1412 H   0  0  0  0  0  0  0  0  0  0  0  0
    0.7880    4.6387    1.6113 H   0  0  0  0  0  0  0  0  0  0  0  0
    2.5250    4.6603    1.9657 H   0  0  0  0  0  0  0  0  0  0  0  0
    2.8487    0.8215    1.5511 H   0  0  0  0  0  0  0  0  0  0  0  0
    2.6460    1.6572    3.0939 H   0  0  0  0  0  0  0  0  0  0  0  0
    4.3632    3.3436    2.4229 H   0  0  0  0  0  0  0  0  0  0  0  0
    4.4797    2.5938    0.8085 H   0  0  0  0  0  0  0  0  0  0  0  0
    6.4648    3.6615    1.4577 H   0  0  0  0  0  0  0  0  0  0  0  0
    8.9266    3.9494    1.5702 H   0  0  0  0  0  0  0  0  0  0  0  0
   11.1469    0.2716    2.5141 H   0  0  0  0  0  0  0  0  0  0  0  0
   13.1162   -0.7806    2.6370 H   0  0  0  0  0  0  0  0  0  0  0  0
   15.2501    2.3627    2.8638 H   0  0  0  0  0  0  0  0  0  0  0  0
   17.7178    2.3612    3.0252 H   0  0  0  0  0  0  0  0  0  0  0  0
   19.7715    1.8402    4.0159 H   0  0  0  0  0  0  0  0  0  0  0  0
   19.8424    1.8768    2.2380 H   0  0  0  0  0  0  0  0  0  0  0  0
   21.2376   -1.0410    2.1867 H   0  0  0  0  0  0  0  0  0  0  0  0
   23.6654   -1.5972    2.2067 H   0  0  0  0  0  0  0  0  0  0  0  0
   25.3046   -0.0079    3.2129 H   0  0  0  0  0  0  0  0  0  0  0  0
   24.4963    2.1358    4.2055 H   0  0  0  0  0  0  0  0  0  0  0  0
   22.0757    2.6794    4.1913 H   0  0  0  0  0  0  0  0  0  0  0  0
   17.7213   -1.9556    2.9064 H   0  0  0  0  0  0  0  0  0  0  0  0
   15.2334   -1.9430    2.7452 H   0  0  0  0  0  0  0  0  0  0  0  0
    9.3051    0.1008    3.4675 H   0  0  0  0  0  0  0  0  0  0  0  0
    6.8499   -0.1950    3.3582 H   0  0  0  0  0  0  0  0  0  0  0  0
  1  2  1  0
  1 32  1  0
  1 33  1  0
  1 34  1  0
  2  3  1  0
  2  4  1  0
  2 35  1  6
  3 36  1  0
  3 37  1  0
  3 38  1  0
  4  5  1  0
  4 39  1  0
  4 40  1  0
  5  6  1  0
  5 41  1  0
  5 42  1  0
  6  7  1  0
  7  8  2  0
  7 31  1  0
  8  9  1  0
  8 43  1  0
  9 10  2  0
  9 44  1  0
 10 11  1  0
 10 30  1  0
 11 12  2  0
 11 13  1  0
 13 14  1  0
 13 45  1  0
 14 15  2  0
 15 16  1  0
 15 46  1  0
 16 17  2  0
 16 29  1  0
 17 18  1  0
 17 47  1  0
 18 19  2  0
 18 48  1  0
 19 20  1  0
 19 28  1  0
 20 21  1  0
 21 22  1  0
 21 49  1  0
 21 50  1  0
 22 23  2  0
 22 27  1  0
 23 24  1  0
 23 51  1  0
 24 25  2  0
 24 52  1  0
 25 26  1  0
 25 53  1  0
 26 27  2  0
 26 54  1  0
 27 55  1  0
 28 29  2  0
 28 56  1  0
 29 57  1  0
 30 31  2  0
 30 58  1  0
 31 59  1  0
M  END

