
     RDKit          3D

 37 38  0  0  0  0  0  0  0  0999 V2000
    2.3788   -0.5035   -2.7844 C   0  0  0  0  0  0  0  0  0  0  0  0
    2.4846    0.8362   -2.2353 N   0  0  0  0  0  0  0  0  0  0  0  0
    1.2271    1.5528   -2.3314 C   0  0  0  0  0  0  0  0  0  0  0  0
    3.0519    0.8701   -0.8930 C   0  0  0  0  0  0  0  0  0  0  0  0
    4.5722    0.6677   -0.8738 C   0  0  1  0  0  0  0  0  0  0  0  0
    5.3592    1.7396   -1.6343 C   0  0  0  0  0  0  0  0  0  0  0  0
    6.7551    1.6380   -1.0130 C   0  0  0  0  0  0  0  0  0  0  0  0
    6.4674    1.3743    0.4733 C   0  0  0  0  0  0  0  0  0  0  0  0
    5.1100    0.7699    0.4927 N   0  0  0  0  0  0  0  0  0  0  0  0
    4.8527   -0.2407    1.4476 C   0  0  0  0  0  0  0  0  0  0  0  0
    4.6415   -1.5819    1.1091 C   0  0  0  0  0  0  0  0  0  0  0  0
    4.4019   -2.5609    2.0801 C   0  0  0  0  0  0  0  0  0  0  0  0
    4.1427   -4.2135    1.5771 Cl  0  0  0  0  0  0  0  0  0  0  0  0
    4.3877   -2.1948    3.4313 C   0  0  0  0  0  0  0  0  0  0  0  0
    4.1028   -3.3703    4.6879 Cl  0  0  0  0  0  0  0  0  0  0  0  0
    4.5858   -0.8580    3.7895 C   0  0  0  0  0  0  0  0  0  0  0  0
    4.7987    0.1328    2.8215 C   0  0  0  0  0  0  0  0  0  0  0  0
    4.9822    1.4652    3.1654 N   0  0  0  0  0  0  0  0  0  0  0  0
    2.0366   -0.4559   -3.8305 H   0  0  0  0  0  0  0  0  0  0  0  0
    1.6643   -1.1501   -2.2231 H   0  0  0  0  0  0  0  0  0  0  0  0
    3.3562   -1.0085   -2.7824 H   0  0  0  0  0  0  0  0  0  0  0  0
    0.8854    1.5743   -3.3789 H   0  0  0  0  0  0  0  0  0  0  0  0
    1.3539    2.5948   -1.9980 H   0  0  0  0  0  0  0  0  0  0  0  0
    0.4099    1.0987   -1.7230 H   0  0  0  0  0  0  0  0  0  0  0  0
    2.5664    0.1280   -0.2190 H   0  0  0  0  0  0  0  0  0  0  0  0
    2.8541    1.8619   -0.4552 H   0  0  0  0  0  0  0  0  0  0  0  0
    4.8163   -0.3167   -1.3246 H   0  0  0  0  0  0  0  0  0  0  0  0
    4.9159    2.7312   -1.4376 H   0  0  0  0  0  0  0  0  0  0  0  0
    5.3380    1.5786   -2.7206 H   0  0  0  0  0  0  0  0  0  0  0  0
    7.3731    2.5349   -1.1708 H   0  0  0  0  0  0  0  0  0  0  0  0
    7.2971    0.7836   -1.4511 H   0  0  0  0  0  0  0  0  0  0  0  0
    6.4971    2.3075    1.0628 H   0  0  0  0  0  0  0  0  0  0  0  0
    7.2073    0.6932    0.9262 H   0  0  0  0  0  0  0  0  0  0  0  0
    4.6674   -1.8941    0.0656 H   0  0  0  0  0  0  0  0  0  0  0  0
    4.5438   -0.5877    4.8465 H   0  0  0  0  0  0  0  0  0  0  0  0
    4.6480    1.7301    4.0854 H   0  0  0  0  0  0  0  0  0  0  0  0
    4.6889    2.1070    2.4328 H   0  0  0  0  0  0  0  0  0  0  0  0
  1  2  1  0
  1 19  1  0
  1 20  1  0
  1 21  1  0
  2  3  1  0
  2  4  1  0
  3 22  1  0
  3 23  1  0
  3 24  1  0
  4  5  1  0
  4 25  1  0
  4 26  1  0
  5  6  1  0
  5  9  1  0
  5 27  1  6
  6  7  1  0
  6 28  1  0
  6 29  1  0
  7  8  1  0
  7 30  1  0
  7 31  1  0
  8  9  1  0
  8 32  1  0
  8 33  1  0
  9 10  1  0
 10 11  2  0
 10 17  1  0
 11 12  1  0
 11 34  1  0
 12 13  1  0
 12 14  2  0
 14 15  1  0
 14 16  1  0
 16 17  2  0
 16 35  1  0
 17 18  1  0
 18 36  1  0
 18 37  1  0
M  END

