
     RDKit          3D

 33 34  0  0  0  0  0  0  0  0999 V2000
    0.8703   -0.2208    0.0339 C   0  0  0  0  0  0  0  0  0  0  0  0
    2.3738   -0.1081    0.0730 C   0  0  0  0  0  0  0  0  0  0  0  0
    2.9937    1.1666    0.0967 C   0  0  0  0  0  0  0  0  0  0  0  0
    4.3709    1.3088    0.1321 C   0  0  0  0  0  0  0  0  0  0  0  0
    5.2036    0.1688    0.1436 C   0  0  0  0  0  0  0  0  0  0  0  0
    6.5773    0.3259    0.1761 N   0  0  0  0  0  0  0  0  0  0  0  0
    7.2977   -0.7386    0.1744 C   0  0  0  0  0  0  0  0  0  0  0  0
    6.8143   -2.0337    0.1454 N   0  0  0  0  0  0  0  0  0  0  0  0
    7.7453   -3.1658    0.1049 C   0  0  0  0  0  0  0  0  0  0  0  0
    8.0275   -3.7862    1.4859 C   0  0  0  0  0  0  0  0  0  0  0  0
    9.1076   -3.6525    2.0302 O   0  0  0  0  0  0  0  0  0  0  0  0
    6.9735   -4.4706    2.0166 N   0  0  0  0  0  0  0  0  0  0  0  0
    7.0636   -5.1357    3.2883 C   0  0  0  0  0  0  0  0  0  0  0  0
    7.0376   -6.6500    3.1485 C   0  0  1  0  0  0  0  0  0  0  0  0
    5.9026   -7.0623    2.5515 F   0  0  0  0  0  0  0  0  0  0  0  0
    8.0639   -7.1051    2.4181 F   0  0  0  0  0  0  0  0  0  0  0  0
    7.0963   -7.2319    4.3571 F   0  0  0  0  0  0  0  0  0  0  0  0
    5.4375   -2.3054    0.1468 C   0  0  0  0  0  0  0  0  0  0  0  0
    5.0303   -3.4645    0.1724 O   0  0  0  0  0  0  0  0  0  0  0  0
    4.5940   -1.1094    0.1217 C   0  0  0  0  0  0  0  0  0  0  0  0
    3.1916   -1.2339    0.0882 C   0  0  0  0  0  0  0  0  0  0  0  0
    0.4569    0.2712   -0.8625 H   0  0  0  0  0  0  0  0  0  0  0  0
    0.4107    0.2695    0.9085 H   0  0  0  0  0  0  0  0  0  0  0  0
    0.5435   -1.2704    0.0242 H   0  0  0  0  0  0  0  0  0  0  0  0
    2.3644    2.0616    0.0872 H   0  0  0  0  0  0  0  0  0  0  0  0
    4.8458    2.2915    0.1508 H   0  0  0  0  0  0  0  0  0  0  0  0
    8.3911   -0.6603    0.1948 H   0  0  0  0  0  0  0  0  0  0  0  0
    8.7073   -2.8166   -0.2868 H   0  0  0  0  0  0  0  0  0  0  0  0
    7.3230   -3.9243   -0.5698 H   0  0  0  0  0  0  0  0  0  0  0  0
    6.1041   -4.4962    1.4796 H   0  0  0  0  0  0  0  0  0  0  0  0
    6.2323   -4.8540    3.9551 H   0  0  0  0  0  0  0  0  0  0  0  0
    8.0130   -4.8501    3.7621 H   0  0  0  0  0  0  0  0  0  0  0  0
    2.7670   -2.2401    0.0743 H   0  0  0  0  0  0  0  0  0  0  0  0
  1  2  1  0
  1 22  1  0
  1 23  1  0
  1 24  1  0
  2  3  2  0
  2 21  1  0
  3  4  1  0
  3 25  1  0
  4  5  2  0
  4 26  1  0
  5  6  1  0
  5 20  1  0
  6  7  2  0
  7  8  1  0
  7 27  1  0
  8  9  1  0
  8 18  1  0
  9 10  1  0
  9 28  1  0
  9 29  1  0
 10 11  2  0
 10 12  1  0
 12 13  1  0
 12 30  1  0
 13 14  1  0
 13 31  1  0
 13 32  1  0
 14 15  1  6
 14 16  1  0
 14 17  1  0
 18 19  2  0
 18 20  1  0
 20 21  2  0
 21 33  1  0
M  END

