
     RDKit          3D

 37 39  0  0  0  0  0  0  0  0999 V2000
    1.1149   -0.3019    0.0229 C   0  0  0  0  0  0  0  0  0  0  0  0
    2.6082   -0.2229   -0.2750 C   0  0  0  0  0  0  0  0  0  0  0  0
    3.1379    1.2055   -0.3180 C   0  0  0  0  0  0  0  0  0  0  0  0
    2.3983    2.1520   -0.1268 O   0  0  0  0  0  0  0  0  0  0  0  0
    4.5987    1.4279   -0.6022 C   0  0  0  0  0  0  0  0  0  0  0  0
    5.0739    2.7500   -0.6382 C   0  0  0  0  0  0  0  0  0  0  0  0
    6.4171    3.0110   -0.8970 C   0  0  0  0  0  0  0  0  0  0  0  0
    7.3370    1.9789   -1.1291 C   0  0  0  0  0  0  0  0  0  0  0  0
    8.7858    2.2729   -1.4090 C   0  0  0  0  0  0  0  0  0  0  0  0
    6.8633    0.6393   -1.0943 C   0  0  0  0  0  0  0  0  0  0  0  0
    7.7471   -0.4568   -1.3224 C   0  0  0  0  0  0  0  0  0  0  0  0
    8.4829   -1.4121   -1.5144 C   0  0  0  0  0  0  0  0  0  0  0  0
    9.3332   -2.5107   -1.7366 C   0  0  0  0  0  0  0  0  0  0  0  0
   10.7072   -2.5983   -2.0155 C   0  0  0  0  0  0  0  0  0  0  0  0
   11.1238   -3.8729   -2.1596 N   0  0  0  0  0  0  0  0  0  0  0  0
   10.0423   -4.6260   -1.9789 C   0  0  0  0  0  0  0  0  0  0  0  0
    9.8475   -6.0228   -2.0062 C   0  0  0  0  0  0  0  0  0  0  0  0
    8.5769   -6.5007   -1.7743 C   0  0  0  0  0  0  0  0  0  0  0  0
    7.5246   -5.5735   -1.5195 C   0  0  0  0  0  0  0  0  0  0  0  0
    7.6707   -4.2701   -1.4869 N   0  0  0  0  0  0  0  0  0  0  0  0
    8.9126   -3.8304   -1.7148 N   0  0  0  0  0  0  0  0  0  0  0  0
    5.5020    0.3835   -0.8313 C   0  0  0  0  0  0  0  0  0  0  0  0
    0.7760   -1.3489    0.0437 H   0  0  0  0  0  0  0  0  0  0  0  0
    0.5311    0.2379   -0.7375 H   0  0  0  0  0  0  0  0  0  0  0  0
    0.8807    0.1590    0.9940 H   0  0  0  0  0  0  0  0  0  0  0  0
    2.8450   -0.7063   -1.2399 H   0  0  0  0  0  0  0  0  0  0  0  0
    3.1917   -0.7835    0.4774 H   0  0  0  0  0  0  0  0  0  0  0  0
    4.3632    3.5587   -0.4584 H   0  0  0  0  0  0  0  0  0  0  0  0
    6.7695    4.0459   -0.9209 H   0  0  0  0  0  0  0  0  0  0  0  0
    8.9863    3.3535   -1.3886 H   0  0  0  0  0  0  0  0  0  0  0  0
    9.0866    1.8837   -2.3960 H   0  0  0  0  0  0  0  0  0  0  0  0
    9.4411    1.7843   -0.6691 H   0  0  0  0  0  0  0  0  0  0  0  0
   11.3880   -1.7526   -2.1116 H   0  0  0  0  0  0  0  0  0  0  0  0
   10.7023   -6.6699   -2.2081 H   0  0  0  0  0  0  0  0  0  0  0  0
    8.3609   -7.5703   -1.7818 H   0  0  0  0  0  0  0  0  0  0  0  0
    6.5061   -5.9260   -1.3323 H   0  0  0  0  0  0  0  0  0  0  0  0
    5.1751   -0.6567   -0.8123 H   0  0  0  0  0  0  0  0  0  0  0  0
  1  2  1  0
  1 23  1  0
  1 24  1  0
  1 25  1  0
  2  3  1  0
  2 26  1  0
  2 27  1  0
  3  4  2  0
  3  5  1  0
  5  6  2  0
  5 22  1  0
  6  7  1  0
  6 28  1  0
  7  8  2  0
  7 29  1  0
  8  9  1  0
  8 10  1  0
  9 30  1  0
  9 31  1  0
  9 32  1  0
 10 11  1  0
 10 22  2  0
 11 12  3  0
 12 13  1  0
 13 14  2  0
 13 21  1  0
 14 15  1  0
 14 33  1  0
 15 16  2  0
 16 17  1  0
 16 21  1  0
 17 18  2  0
 17 34  1  0
 18 19  1  0
 18 35  1  0
 19 20  2  0
 19 36  1  0
 20 21  1  0
 22 37  1  0
M  END

