
     RDKit          3D

 52 55  0  0  0  0  0  0  0  0999 V2000
    8.9220    7.9172    0.1939 C   0  0  0  0  0  0  0  0  0  0  0  0
    8.6131    6.8208    1.2093 C   0  0  2  0  0  0  0  0  0  0  0  0
    8.7296    7.2095    2.2372 H   0  0  0  0  0  0  0  0  0  0  0  0
    9.4438    5.6735    1.0325 O   0  0  0  0  0  0  0  0  0  0  0  0
   10.6746    5.5679    1.6189 C   0  0  0  0  0  0  0  0  0  0  0  0
   11.3099    6.5963    2.3284 C   0  0  0  0  0  0  0  0  0  0  0  0
   12.5724    6.3764    2.8933 C   0  0  0  0  0  0  0  0  0  0  0  0
   13.1973    5.1385    2.7474 C   0  0  0  0  0  0  0  0  0  0  0  0
   14.9207    4.8493    3.5181 Br  0  0  0  0  0  0  0  0  0  0  0  0
   12.5693    4.1074    2.0393 C   0  0  0  0  0  0  0  0  0  0  0  0
   11.3132    4.3248    1.4796 C   0  0  0  0  0  0  0  0  0  0  0  0
    7.1312    6.3945    1.1055 C   0  0  0  0  0  0  0  0  0  0  0  0
    6.2475    7.2192    1.1482 O   0  0  0  0  0  0  0  0  0  0  0  0
    6.9605    5.0360    0.9651 N   0  0  0  0  0  0  0  0  0  0  0  0
    5.7344    4.4688    0.9507 N   0  0  0  0  0  0  0  0  0  0  0  0
    5.6418    3.1933    0.8235 C   0  0  0  0  0  0  0  0  0  0  0  0
    6.7426    2.2096    0.6499 C   0  0  0  0  0  0  0  0  0  0  0  0
    6.7790    1.0548    1.4524 C   0  0  0  0  0  0  0  0  0  0  0  0
    7.8374    0.1510    1.3614 C   0  0  0  0  0  0  0  0  0  0  0  0
    8.8626    0.3828    0.4420 C   0  0  0  0  0  0  0  0  0  0  0  0
    9.8911   -0.5452    0.3838 O   0  0  0  0  0  0  0  0  0  0  0  0
   11.1961   -0.1400    0.5072 C   0  0  0  0  0  0  0  0  0  0  0  0
   11.5312    1.0071    0.6505 O   0  0  0  0  0  0  0  0  0  0  0  0
   12.0905   -1.3061    0.4466 C   0  0  0  0  0  0  0  0  0  0  0  0
   11.4317   -2.9250    0.2303 S   0  0  0  0  0  0  0  0  0  0  0  0
   13.0319   -3.6218    0.2753 C   0  0  0  0  0  0  0  0  0  0  0  0
   13.3632   -4.9807    0.1579 C   0  0  0  0  0  0  0  0  0  0  0  0
   14.7046   -5.3416    0.2201 C   0  0  0  0  0  0  0  0  0  0  0  0
   15.7140   -4.3701    0.3966 C   0  0  0  0  0  0  0  0  0  0  0  0
   15.3915   -3.0260    0.5127 C   0  0  0  0  0  0  0  0  0  0  0  0
   14.0372   -2.6368    0.4524 C   0  0  0  0  0  0  0  0  0  0  0  0
   13.4658   -1.3188    0.5468 C   0  0  0  0  0  0  0  0  0  0  0  0
   14.4677    0.0701    0.7635 Cl  0  0  0  0  0  0  0  0  0  0  0  0
    8.8182    1.4850   -0.4149 C   0  0  0  0  0  0  0  0  0  0  0  0
    7.7646    2.3915   -0.3028 C   0  0  0  0  0  0  0  0  0  0  0  0
    8.8359    7.5183   -0.8285 H   0  0  0  0  0  0  0  0  0  0  0  0
    9.9392    8.3120    0.3287 H   0  0  0  0  0  0  0  0  0  0  0  0
    8.1975    8.7343    0.3148 H   0  0  0  0  0  0  0  0  0  0  0  0
   10.8449    7.5750    2.4482 H   0  0  0  0  0  0  0  0  0  0  0  0
   13.0653    7.1793    3.4442 H   0  0  0  0  0  0  0  0  0  0  0  0
   13.0443    3.1324    1.9209 H   0  0  0  0  0  0  0  0  0  0  0  0
   10.8197    3.5175    0.9367 H   0  0  0  0  0  0  0  0  0  0  0  0
    7.8102    4.4701    0.9609 H   0  0  0  0  0  0  0  0  0  0  0  0
    4.6195    2.7995    0.8921 H   0  0  0  0  0  0  0  0  0  0  0  0
    5.9814    0.8779    2.1786 H   0  0  0  0  0  0  0  0  0  0  0  0
    7.8872   -0.7309    2.0028 H   0  0  0  0  0  0  0  0  0  0  0  0
   12.5859   -5.7357    0.0214 H   0  0  0  0  0  0  0  0  0  0  0  0
   14.9811   -6.3950    0.1309 H   0  0  0  0  0  0  0  0  0  0  0  0
   16.7596   -4.6832    0.4420 H   0  0  0  0  0  0  0  0  0  0  0  0
   16.1632   -2.2661    0.6495 H   0  0  0  0  0  0  0  0  0  0  0  0
    9.6049    1.6395   -1.1535 H   0  0  0  0  0  0  0  0  0  0  0  0
    7.7360    3.2518   -0.9752 H   0  0  0  0  0  0  0  0  0  0  0  0
  1  2  1  0
  1 36  1  0
  1 37  1  0
  1 38  1  0
  2  3  1  1
  2  4  1  0
  2 12  1  0
  4  5  1  0
  5  6  2  0
  5 11  1  0
  6  7  1  0
  6 39  1  0
  7  8  2  0
  7 40  1  0
  8  9  1  0
  8 10  1  0
 10 11  2  0
 10 41  1  0
 11 42  1  0
 12 13  2  0
 12 14  1  0
 14 15  1  0
 14 43  1  0
 15 16  2  0
 16 17  1  0
 16 44  1  0
 17 18  2  0
 17 35  1  0
 18 19  1  0
 18 45  1  0
 19 20  2  0
 19 46  1  0
 20 21  1  0
 20 34  1  0
 21 22  1  0
 22 23  2  0
 22 24  1  0
 24 25  1  0
 24 32  2  0
 25 26  1  0
 26 27  2  0
 26 31  1  0
 27 28  1  0
 27 47  1  0
 28 29  2  0
 28 48  1  0
 29 30  1  0
 29 49  1  0
 30 31  2  0
 30 50  1  0
 31 32  1  0
 32 33  1  0
 34 35  2  0
 34 51  1  0
 35 52  1  0
M  END

