
     RDKit          3D

 48 52  0  0  0  0  0  0  0  0999 V2000
    4.6114    1.6434    2.3229 C   0  0  0  0  0  0  0  0  0  0  0  0
    4.3343    0.8316    1.0828 C   0  0  0  0  0  0  0  0  0  0  0  0
    3.4370    1.2688    0.0959 C   0  0  0  0  0  0  0  0  0  0  0  0
    3.2281    0.4679   -1.0280 C   0  0  0  0  0  0  0  0  0  0  0  0
    3.9122   -0.7421   -1.1332 C   0  0  0  0  0  0  0  0  0  0  0  0
    4.7907   -1.1098   -0.0987 C   0  0  0  0  0  0  0  0  0  0  0  0
    5.5540   -2.4004   -0.1712 C   0  0  0  0  0  0  0  0  0  0  0  0
    6.9379   -2.3844   -0.4611 C   0  0  0  0  0  0  0  0  0  0  0  0
    7.6513   -1.1588   -0.6791 C   0  0  0  0  0  0  0  0  0  0  0  0
    8.9937   -1.1524   -0.9605 C   0  0  0  0  0  0  0  0  0  0  0  0
    9.7160   -2.3766   -1.0421 C   0  0  0  0  0  0  0  0  0  0  0  0
    9.0741   -3.5726   -0.8453 C   0  0  0  0  0  0  0  0  0  0  0  0
    7.6705   -3.6296   -0.5529 C   0  0  0  0  0  0  0  0  0  0  0  0
    7.0010   -4.8581   -0.3486 C   0  0  0  0  0  0  0  0  0  0  0  0
    7.7663   -6.1475   -0.4245 C   0  0  0  0  0  0  0  0  0  0  0  0
    8.0844   -6.8580    0.7464 C   0  0  0  0  0  0  0  0  0  0  0  0
    8.8013   -8.0478    0.6298 C   0  0  0  0  0  0  0  0  0  0  0  0
    9.1760   -8.4913   -0.6395 C   0  0  0  0  0  0  0  0  0  0  0  0
    8.8224   -7.7215   -1.7586 C   0  0  0  0  0  0  0  0  0  0  0  0
    9.1919   -8.1371   -3.1602 C   0  0  0  0  0  0  0  0  0  0  0  0
    8.1355   -6.5757   -1.6381 N   0  0  0  0  0  0  0  0  0  0  0  0
    5.6172   -4.8748   -0.0620 C   0  0  0  0  0  0  0  0  0  0  0  0
    4.8944   -6.1016    0.1229 C   0  0  0  0  0  0  0  0  0  0  0  0
    3.5546   -6.1094    0.4167 C   0  0  0  0  0  0  0  0  0  0  0  0
    2.8434   -4.8831    0.5509 C   0  0  0  0  0  0  0  0  0  0  0  0
    3.4886   -3.6870    0.3651 C   0  0  0  0  0  0  0  0  0  0  0  0
    4.8854   -3.6282    0.0378 C   0  0  0  0  0  0  0  0  0  0  0  0
    4.9915   -0.3325    0.9729 N   0  0  0  0  0  0  0  0  0  0  0  0
    4.0410    2.5832    2.3388 H   0  0  0  0  0  0  0  0  0  0  0  0
    5.6856    1.8786    2.3912 H   0  0  0  0  0  0  0  0  0  0  0  0
    4.3586    1.0598    3.2226 H   0  0  0  0  0  0  0  0  0  0  0  0
    2.9155    2.2221    0.2090 H   0  0  0  0  0  0  0  0  0  0  0  0
    2.5395    0.7860   -1.8155 H   0  0  0  0  0  0  0  0  0  0  0  0
    3.7781   -1.3968   -1.9965 H   0  0  0  0  0  0  0  0  0  0  0  0
    7.1093   -0.2162   -0.6077 H   0  0  0  0  0  0  0  0  0  0  0  0
    9.5139   -0.2045   -1.1207 H   0  0  0  0  0  0  0  0  0  0  0  0
   10.7860   -2.3609   -1.2652 H   0  0  0  0  0  0  0  0  0  0  0  0
    9.6327   -4.5052   -0.9205 H   0  0  0  0  0  0  0  0  0  0  0  0
    7.7734   -6.4758    1.7207 H   0  0  0  0  0  0  0  0  0  0  0  0
    9.0682   -8.6240    1.5199 H   0  0  0  0  0  0  0  0  0  0  0  0
    9.7376   -9.4200   -0.7650 H   0  0  0  0  0  0  0  0  0  0  0  0
    9.7714   -9.0713   -3.1761 H   0  0  0  0  0  0  0  0  0  0  0  0
    9.7805   -7.3445   -3.6490 H   0  0  0  0  0  0  0  0  0  0  0  0
    8.2826   -8.2743   -3.7674 H   0  0  0  0  0  0  0  0  0  0  0  0
    5.4291   -7.0464    0.0198 H   0  0  0  0  0  0  0  0  0  0  0  0
    3.0294   -7.0587    0.5498 H   0  0  0  0  0  0  0  0  0  0  0  0
    1.7798   -4.8974    0.8021 H   0  0  0  0  0  0  0  0  0  0  0  0
    2.9351   -2.7537    0.4735 H   0  0  0  0  0  0  0  0  0  0  0  0
  1  2  1  0
  1 29  1  0
  1 30  1  0
  1 31  1  0
  2  3  2  0
  2 28  1  0
  3  4  1  0
  3 32  1  0
  4  5  2  0
  4 33  1  0
  5  6  1  0
  5 34  1  0
  6  7  1  0
  6 28  2  0
  7  8  1  0
  7 27  2  0
  8  9  2  0
  8 13  1  0
  9 10  1  0
  9 35  1  0
 10 11  2  0
 10 36  1  0
 11 12  1  0
 11 37  1  0
 12 13  2  0
 12 38  1  0
 13 14  1  0
 14 15  1  0
 14 22  2  0
 15 16  2  0
 15 21  1  0
 16 17  1  0
 16 39  1  0
 17 18  2  0
 17 40  1  0
 18 19  1  0
 18 41  1  0
 19 20  1  0
 19 21  2  0
 20 42  1  0
 20 43  1  0
 20 44  1  0
 22 23  1  0
 22 27  1  0
 23 24  2  0
 23 45  1  0
 24 25  1  0
 24 46  1  0
 25 26  2  0
 25 47  1  0
 26 27  1  0
 26 48  1  0
M  END

