
     RDKit          3D

 50 52  0  0  0  0  0  0  0  0999 V2000
    7.1728    4.0591    7.4639 C   0  0  0  0  0  0  0  0  0  0  0  0
    7.1046    2.5438    7.3152 C   0  0  0  0  0  0  0  0  0  0  0  0
    6.2996    2.1059    6.0875 C   0  0  0  0  0  0  0  0  0  0  0  0
    5.8592    2.9012    5.2792 O   0  0  0  0  0  0  0  0  0  0  0  0
    6.1401    0.7392    5.9958 N   0  0  0  0  0  0  0  0  0  0  0  0
    5.4844   -0.0226    5.0075 C   0  0  0  0  0  0  0  0  0  0  0  0
    4.8451    0.5453    3.8918 C   0  0  0  0  0  0  0  0  0  0  0  0
    4.2256   -0.3052    2.9742 C   0  0  0  0  0  0  0  0  0  0  0  0
    4.2141   -1.6932    3.1194 C   0  0  0  0  0  0  0  0  0  0  0  0
    4.8551   -2.2617    4.2357 C   0  0  0  0  0  0  0  0  0  0  0  0
    4.9131   -3.6433    4.4811 N   0  0  0  0  0  0  0  0  0  0  0  0
    4.3732   -4.6894    3.7504 C   0  0  0  0  0  0  0  0  0  0  0  0
    3.6933   -4.5150    2.7471 O   0  0  0  0  0  0  0  0  0  0  0  0
    4.6901   -6.0305    4.3006 C   0  0  0  0  0  0  0  0  0  0  0  0
    5.6898   -6.3777    5.2730 C   0  0  0  0  0  0  0  0  0  0  0  0
    5.6313   -7.7349    5.4873 C   0  0  0  0  0  0  0  0  0  0  0  0
    6.4561   -8.6138    6.3706 C   0  0  0  0  0  0  0  0  0  0  0  0
    4.6172   -8.2347    4.6718 N   0  0  0  0  0  0  0  0  0  0  0  0
    4.2312   -9.6098    4.6012 C   0  0  0  0  0  0  0  0  0  0  0  0
    3.2974  -10.1266    5.5096 C   0  0  0  0  0  0  0  0  0  0  0  0
    2.9211  -11.4695    5.4481 C   0  0  0  0  0  0  0  0  0  0  0  0
    3.4869  -12.2835    4.4683 C   0  0  0  0  0  0  0  0  0  0  0  0
    3.1289  -13.5712    4.4047 F   0  0  0  0  0  0  0  0  0  0  0  0
    4.4157  -11.7913    3.5529 C   0  0  0  0  0  0  0  0  0  0  0  0
    4.7871  -10.4475    3.6247 C   0  0  0  0  0  0  0  0  0  0  0  0
    4.0410   -7.2110    3.9411 C   0  0  0  0  0  0  0  0  0  0  0  0
    2.9171   -7.4579    2.9881 C   0  0  0  0  0  0  0  0  0  0  0  0
    5.4836   -1.4171    5.1668 C   0  0  0  0  0  0  0  0  0  0  0  0
    7.7768    4.3382    8.3408 H   0  0  0  0  0  0  0  0  0  0  0  0
    6.1674    4.4897    7.5827 H   0  0  0  0  0  0  0  0  0  0  0  0
    7.6178    4.5201    6.5703 H   0  0  0  0  0  0  0  0  0  0  0  0
    6.6592    2.0796    8.2139 H   0  0  0  0  0  0  0  0  0  0  0  0
    8.1199    2.1149    7.2270 H   0  0  0  0  0  0  0  0  0  0  0  0
    6.5575    0.1973    6.7435 H   0  0  0  0  0  0  0  0  0  0  0  0
    4.8429    1.6243    3.7638 H   0  0  0  0  0  0  0  0  0  0  0  0
    3.7270    0.1347    2.1062 H   0  0  0  0  0  0  0  0  0  0  0  0
    3.7219   -2.3399    2.3987 H   0  0  0  0  0  0  0  0  0  0  0  0
    5.3810   -3.9059    5.3389 H   0  0  0  0  0  0  0  0  0  0  0  0
    6.4173   -5.7174    5.7436 H   0  0  0  0  0  0  0  0  0  0  0  0
    7.1995   -8.0063    6.9055 H   0  0  0  0  0  0  0  0  0  0  0  0
    6.9993   -9.3866    5.8004 H   0  0  0  0  0  0  0  0  0  0  0  0
    5.8469   -9.1413    7.1240 H   0  0  0  0  0  0  0  0  0  0  0  0
    2.8645   -9.4678    6.2652 H   0  0  0  0  0  0  0  0  0  0  0  0
    2.1954  -11.8933    6.1447 H   0  0  0  0  0  0  0  0  0  0  0  0
    4.8348  -12.4616    2.8002 H   0  0  0  0  0  0  0  0  0  0  0  0
    5.5138  -10.0388    2.9195 H   0  0  0  0  0  0  0  0  0  0  0  0
    2.0521   -7.9224    3.4909 H   0  0  0  0  0  0  0  0  0  0  0  0
    3.2195   -8.1387    2.1745 H   0  0  0  0  0  0  0  0  0  0  0  0
    2.6125   -6.5048    2.5420 H   0  0  0  0  0  0  0  0  0  0  0  0
    5.9849   -1.8579    6.0356 H   0  0  0  0  0  0  0  0  0  0  0  0
  1  2  1  0
  1 29  1  0
  1 30  1  0
  1 31  1  0
  2  3  1  0
  2 32  1  0
  2 33  1  0
  3  4  2  0
  3  5  1  0
  5  6  1  0
  5 34  1  0
  6  7  2  0
  6 28  1  0
  7  8  1  0
  7 35  1  0
  8  9  2  0
  8 36  1  0
  9 10  1  0
  9 37  1  0
 10 11  1  0
 10 28  2  0
 11 12  1  0
 11 38  1  0
 12 13  2  0
 12 14  1  0
 14 15  1  0
 14 26  2  0
 15 16  2  0
 15 39  1  0
 16 17  1  0
 16 18  1  0
 17 40  1  0
 17 41  1  0
 17 42  1  0
 18 19  1  0
 18 26  1  0
 19 20  2  0
 19 25  1  0
 20 21  1  0
 20 43  1  0
 21 22  2  0
 21 44  1  0
 22 23  1  0
 22 24  1  0
 24 25  2  0
 24 45  1  0
 25 46  1  0
 26 27  1  0
 27 47  1  0
 27 48  1  0
 27 49  1  0
 28 50  1  0
M  END

