
     RDKit          3D

 73 76  0  0  0  0  0  0  0  0999 V2000
    3.7381   -2.7327    0.3807 C   0  0  0  0  0  0  0  0  0  0  0  0
    3.6935   -1.2885    0.4192 N   0  0  0  0  0  0  0  0  0  0  0  0
    3.9894   -0.4805   -0.6265 C   0  0  0  0  0  0  0  0  0  0  0  0
    4.2858   -1.0477   -1.8101 N   0  0  0  0  0  0  0  0  0  0  0  0
    4.5967   -0.2256   -2.8072 C   0  0  0  0  0  0  0  0  0  0  0  0
    4.6288    1.1700   -2.6701 C   0  0  0  0  0  0  0  0  0  0  0  0
    4.8509    2.1820   -3.7503 C   0  0  0  0  0  0  0  0  0  0  0  0
    4.0575    3.1303   -3.8390 O   0  0  0  0  0  0  0  0  0  0  0  0
    5.9176    2.0867   -4.5933 N   0  0  0  0  0  0  0  0  0  0  0  0
    6.8360    0.9640   -4.7581 C   0  0  0  0  0  0  0  0  0  0  0  0
    6.5977    0.3063   -6.1244 C   0  0  0  0  0  0  0  0  0  0  0  0
    6.6625    1.3384   -7.2647 C   0  0  0  0  0  0  0  0  0  0  0  0
    5.8313    2.6235   -7.0401 C   0  0  1  0  0  0  0  0  0  0  0  0
    6.2787    3.3927   -7.6885 H   0  0  0  0  0  0  0  0  0  0  0  0
    4.2841    2.6336   -7.4600 C   0  0  1  0  0  0  0  0  0  0  0  0
    3.5688    3.5353   -6.6267 O   0  0  0  0  0  0  0  0  0  0  0  0
    4.1877    3.3048   -8.8494 C   0  0  0  0  0  0  0  0  0  0  0  0
    2.7588    3.6188   -9.3232 C   0  0  0  0  0  0  0  0  0  0  0  0
    2.3223    5.0608   -9.0372 C   0  0  0  0  0  0  0  0  0  0  0  0
    0.9471    5.3449   -9.4378 N   0  0  0  0  0  0  0  0  0  0  0  0
    0.5995    5.4011  -10.7646 C   0  0  0  0  0  0  0  0  0  0  0  0
    1.3799    5.3150  -11.6824 O   0  0  0  0  0  0  0  0  0  0  0  0
   -0.7289    5.5880  -11.0011 O   0  0  0  0  0  0  0  0  0  0  0  0
    3.6135    1.2104   -7.4032 C   0  0  0  0  0  0  0  0  0  0  0  0
    2.9464    0.9120   -6.1999 C   0  0  0  0  0  0  0  0  0  0  0  0
    2.3822   -0.3332   -5.9318 C   0  0  0  0  0  0  0  0  0  0  0  0
    2.4585   -1.3454   -6.8814 C   0  0  0  0  0  0  0  0  0  0  0  0
    3.0642   -1.0588   -8.1043 C   0  0  0  0  0  0  0  0  0  0  0  0
    3.0715   -2.3555   -9.2911 Cl  0  0  0  0  0  0  0  0  0  0  0  0
    3.6297    0.2019   -8.4197 C   0  0  0  0  0  0  0  0  0  0  0  0
    4.0789    0.3705   -9.8500 C   0  0  0  0  0  0  0  0  0  0  0  0
    5.3477   -0.0226  -10.3069 C   0  0  0  0  0  0  0  0  0  0  0  0
    5.6834    0.1120  -11.6553 C   0  0  0  0  0  0  0  0  0  0  0  0
    4.7575    0.6228  -12.5688 C   0  0  0  0  0  0  0  0  0  0  0  0
    3.4658    0.9756  -12.1525 C   0  0  0  0  0  0  0  0  0  0  0  0
    2.4417    1.5218  -13.1181 C   0  0  0  0  0  0  0  0  0  0  0  0
    3.1451    0.8219  -10.7945 C   0  0  0  0  0  0  0  0  0  0  0  0
    6.1198    3.1204   -5.6110 C   0  0  0  0  0  0  0  0  0  0  0  0
    4.2350    1.6445   -1.3994 C   0  0  0  0  0  0  0  0  0  0  0  0
    3.9374    0.8517   -0.3871 N   0  0  0  0  0  0  0  0  0  0  0  0
    3.1179   -3.1365    1.1938 H   0  0  0  0  0  0  0  0  0  0  0  0
    4.7642   -3.1288    0.4944 H   0  0  0  0  0  0  0  0  0  0  0  0
    3.3487   -3.0952   -0.5807 H   0  0  0  0  0  0  0  0  0  0  0  0
    3.5200   -0.8076    1.2934 H   0  0  0  0  0  0  0  0  0  0  0  0
    4.7911   -0.7037   -3.7734 H   0  0  0  0  0  0  0  0  0  0  0  0
    6.7292    0.2526   -3.9326 H   0  0  0  0  0  0  0  0  0  0  0  0
    7.8675    1.3596   -4.7073 H   0  0  0  0  0  0  0  0  0  0  0  0
    5.6171   -0.1951   -6.1140 H   0  0  0  0  0  0  0  0  0  0  0  0
    7.3563   -0.4770   -6.2903 H   0  0  0  0  0  0  0  0  0  0  0  0
    6.3976    0.8696   -8.2179 H   0  0  0  0  0  0  0  0  0  0  0  0
    7.7156    1.6553   -7.3740 H   0  0  0  0  0  0  0  0  0  0  0  0
    3.7069    3.3879   -5.6702 H   0  0  0  0  0  0  0  0  0  0  0  0
    4.7223    2.6996   -9.5909 H   0  0  0  0  0  0  0  0  0  0  0  0
    4.7482    4.2510   -8.7687 H   0  0  0  0  0  0  0  0  0  0  0  0
    2.0391    2.9310   -8.8494 H   0  0  0  0  0  0  0  0  0  0  0  0
    2.6870    3.4632  -10.4078 H   0  0  0  0  0  0  0  0  0  0  0  0
    2.9795    5.7589   -9.5798 H   0  0  0  0  0  0  0  0  0  0  0  0
    2.4145    5.2763   -7.9642 H   0  0  0  0  0  0  0  0  0  0  0  0
    0.2256    5.1399   -8.7556 H   0  0  0  0  0  0  0  0  0  0  0  0
   -1.1986    5.8210  -10.1885 H   0  0  0  0  0  0  0  0  0  0  0  0
    2.8496    1.6840   -5.4410 H   0  0  0  0  0  0  0  0  0  0  0  0
    1.8806   -0.5111   -4.9774 H   0  0  0  0  0  0  0  0  0  0  0  0
    2.0368   -2.3357   -6.7051 H   0  0  0  0  0  0  0  0  0  0  0  0
    6.0667   -0.4649   -9.6157 H   0  0  0  0  0  0  0  0  0  0  0  0
    6.6754   -0.1930  -11.9991 H   0  0  0  0  0  0  0  0  0  0  0  0
    5.0345    0.7327  -13.6210 H   0  0  0  0  0  0  0  0  0  0  0  0
    2.8062    1.4882  -14.1554 H   0  0  0  0  0  0  0  0  0  0  0  0
    2.1887    2.5704  -12.8841 H   0  0  0  0  0  0  0  0  0  0  0  0
    1.5022    0.9468  -13.0704 H   0  0  0  0  0  0  0  0  0  0  0  0
    2.1350    1.0657  -10.4600 H   0  0  0  0  0  0  0  0  0  0  0  0
    5.5331    4.0049   -5.3501 H   0  0  0  0  0  0  0  0  0  0  0  0
    7.1851    3.4079   -5.5681 H   0  0  0  0  0  0  0  0  0  0  0  0
    4.1675    2.7250   -1.2281 H   0  0  0  0  0  0  0  0  0  0  0  0
  1  2  1  0
  1 41  1  0
  1 42  1  0
  1 43  1  0
  2  3  1  0
  2 44  1  0
  3  4  2  0
  3 40  1  0
  4  5  1  0
  5  6  2  0
  5 45  1  0
  6  7  1  0
  6 39  1  0
  7  8  2  0
  7  9  1  0
  9 10  1  0
  9 38  1  0
 10 11  1  0
 10 46  1  0
 10 47  1  0
 11 12  1  0
 11 48  1  0
 11 49  1  0
 12 13  1  0
 12 50  1  0
 12 51  1  0
 13 14  1  6
 13 15  1  0
 13 38  1  0
 15 16  1  1
 15 17  1  0
 15 24  1  0
 16 52  1  0
 17 18  1  0
 17 53  1  0
 17 54  1  0
 18 19  1  0
 18 55  1  0
 18 56  1  0
 19 20  1  0
 19 57  1  0
 19 58  1  0
 20 21  1  0
 20 59  1  0
 21 22  2  0
 21 23  1  0
 23 60  1  0
 24 25  2  0
 24 30  1  0
 25 26  1  0
 25 61  1  0
 26 27  2  0
 26 62  1  0
 27 28  1  0
 27 63  1  0
 28 29  1  0
 28 30  2  0
 30 31  1  0
 31 32  2  0
 31 37  1  0
 32 33  1  0
 32 64  1  0
 33 34  2  0
 33 65  1  0
 34 35  1  0
 34 66  1  0
 35 36  1  0
 35 37  2  0
 36 67  1  0
 36 68  1  0
 36 69  1  0
 37 70  1  0
 38 71  1  0
 38 72  1  0
 39 40  2  0
 39 73  1  0
M  END

