
     RDKit          3D

 85 86  0  0  0  0  0  0  0  0999 V2000
    1.3221    1.3628   -5.0816 C   0  0  0  0  0  0  0  0  0  0  0  0
    1.9527    1.4498   -3.6894 C   0  0  0  0  0  0  0  0  0  0  0  0
    2.9792    0.3507   -3.3733 C   0  0  0  0  0  0  0  0  0  0  0  0
    4.2148    0.2944   -4.2880 C   0  0  0  0  0  0  0  0  0  0  0  0
    5.0586    1.5782   -4.3776 C   0  0  0  0  0  0  0  0  0  0  0  0
    5.7213    2.0831   -3.0789 C   0  0  1  0  0  0  0  0  0  0  0  0
    6.8615    1.1636   -2.5774 C   0  0  0  0  0  0  0  0  0  0  0  0
    6.3888   -0.1161   -1.8903 C   0  0  0  0  0  0  0  0  0  0  0  0
    5.4348   -0.1198   -1.1304 O   0  0  0  0  0  0  0  0  0  0  0  0
    7.1729   -1.2186   -2.1695 N   0  0  0  0  0  0  0  0  0  0  0  0
    7.0994   -2.5419   -1.6797 C   0  0  0  0  0  0  0  0  0  0  0  0
    6.1730   -2.8470   -0.6664 C   0  0  0  0  0  0  0  0  0  0  0  0
    6.0441   -4.1419   -0.1618 C   0  0  0  0  0  0  0  0  0  0  0  0
    5.0700   -4.4431    0.9625 C   0  0  1  0  0  0  0  0  0  0  0  0
    5.6596   -4.2082    2.3486 C   0  0  0  0  0  0  0  0  0  0  0  0
    3.9050   -3.5790    0.8714 O   0  0  0  0  0  0  0  0  0  0  0  0
    2.9092   -3.9282    0.0615 C   0  0  0  0  0  0  0  0  0  0  0  0
    2.9047   -4.9592   -0.5874 O   0  0  0  0  0  0  0  0  0  0  0  0
    1.7950   -2.9035    0.0612 C   0  0  0  0  0  0  0  0  0  0  0  0
    0.8474   -2.9799   -1.1472 C   0  0  0  0  0  0  0  0  0  0  0  0
   -0.1896   -4.1098   -1.1273 C   0  0  0  0  0  0  0  0  0  0  0  0
   -1.3744   -3.8942   -1.1555 O   0  0  0  0  0  0  0  0  0  0  0  0
    0.2950   -5.3562   -1.0942 O   0  0  0  0  0  0  0  0  0  0  0  0
    6.8638   -5.1476   -0.6739 C   0  0  0  0  0  0  0  0  0  0  0  0
    7.7966   -4.8427   -1.6655 C   0  0  0  0  0  0  0  0  0  0  0  0
    7.9562   -3.5564   -2.2065 C   0  0  0  0  0  0  0  0  0  0  0  0
    9.0153   -3.3094   -3.3158 C   0  0  1  0  0  0  0  0  0  0  0  0
    9.7778   -4.6024   -3.6786 C   0  0  0  0  0  0  0  0  0  0  0  0
    8.3437   -2.8305   -4.6295 C   0  0  0  0  0  0  0  0  0  0  0  0
   10.0943   -2.3031   -2.8359 C   0  0  0  0  0  0  0  0  0  0  0  0
    6.2392    3.5163   -3.1996 C   0  0  0  0  0  0  0  0  0  0  0  0
    6.5791    4.1086   -4.4290 C   0  0  0  0  0  0  0  0  0  0  0  0
    7.0636    5.4139   -4.4837 C   0  0  0  0  0  0  0  0  0  0  0  0
    7.2347    6.1625   -3.3155 C   0  0  0  0  0  0  0  0  0  0  0  0
    6.9203    5.5914   -2.0764 C   0  0  0  0  0  0  0  0  0  0  0  0
    7.0778    6.2189   -0.8798 O   0  0  0  0  0  0  0  0  0  0  0  0
    7.6025    7.5268   -0.8525 C   0  0  0  0  0  0  0  0  0  0  0  0
    6.4175    4.2684   -2.0231 C   0  0  0  0  0  0  0  0  0  0  0  0
    6.1765    3.6619   -0.8205 O   0  0  0  0  0  0  0  0  0  0  0  0
    5.1159    4.1606   -0.0159 C   0  0  0  0  0  0  0  0  0  0  0  0
    0.5464    2.1335   -5.2177 H   0  0  0  0  0  0  0  0  0  0  0  0
    0.8453    0.3810   -5.2435 H   0  0  0  0  0  0  0  0  0  0  0  0
    2.0647    1.5036   -5.8840 H   0  0  0  0  0  0  0  0  0  0  0  0
    1.1521    1.3980   -2.9306 H   0  0  0  0  0  0  0  0  0  0  0  0
    2.4143    2.4448   -3.5567 H   0  0  0  0  0  0  0  0  0  0  0  0
    2.4724   -0.6305   -3.4309 H   0  0  0  0  0  0  0  0  0  0  0  0
    3.3108    0.4517   -2.3274 H   0  0  0  0  0  0  0  0  0  0  0  0
    3.8968    0.0412   -5.3146 H   0  0  0  0  0  0  0  0  0  0  0  0
    4.8443   -0.5542   -3.9706 H   0  0  0  0  0  0  0  0  0  0  0  0
    4.4240    2.3880   -4.7739 H   0  0  0  0  0  0  0  0  0  0  0  0
    5.8403    1.4177   -5.1418 H   0  0  0  0  0  0  0  0  0  0  0  0
    4.9735    2.0831   -2.2722 H   0  0  0  0  0  0  0  0  0  0  0  0
    7.4208    1.7070   -1.7982 H   0  0  0  0  0  0  0  0  0  0  0  0
    7.5706    0.9524   -3.3964 H   0  0  0  0  0  0  0  0  0  0  0  0
    7.9055   -1.0427   -2.8389 H   0  0  0  0  0  0  0  0  0  0  0  0
    5.5407   -2.0457   -0.2943 H   0  0  0  0  0  0  0  0  0  0  0  0
    4.7241   -5.4825    0.8621 H   0  0  0  0  0  0  0  0  0  0  0  0
    5.9727   -3.1594    2.4629 H   0  0  0  0  0  0  0  0  0  0  0  0
    6.5415   -4.8496    2.4923 H   0  0  0  0  0  0  0  0  0  0  0  0
    4.9201   -4.4450    3.1290 H   0  0  0  0  0  0  0  0  0  0  0  0
    2.2669   -1.9104    0.1112 H   0  0  0  0  0  0  0  0  0  0  0  0
    1.2406   -3.0158    1.0103 H   0  0  0  0  0  0  0  0  0  0  0  0
    1.4431   -3.0621   -2.0728 H   0  0  0  0  0  0  0  0  0  0  0  0
    0.2720   -2.0475   -1.2079 H   0  0  0  0  0  0  0  0  0  0  0  0
    1.2795   -5.3466   -1.0511 H   0  0  0  0  0  0  0  0  0  0  0  0
    6.7772   -6.1756   -0.3117 H   0  0  0  0  0  0  0  0  0  0  0  0
    8.4154   -5.6573   -2.0363 H   0  0  0  0  0  0  0  0  0  0  0  0
    9.1079   -5.3831   -4.0690 H   0  0  0  0  0  0  0  0  0  0  0  0
   10.3276   -5.0155   -2.8195 H   0  0  0  0  0  0  0  0  0  0  0  0
   10.5158   -4.3792   -4.4645 H   0  0  0  0  0  0  0  0  0  0  0  0
    7.6303   -3.5875   -4.9906 H   0  0  0  0  0  0  0  0  0  0  0  0
    9.1054   -2.6836   -5.4123 H   0  0  0  0  0  0  0  0  0  0  0  0
    7.7853   -1.8883   -4.5374 H   0  0  0  0  0  0  0  0  0  0  0  0
   10.6111   -2.6939   -1.9456 H   0  0  0  0  0  0  0  0  0  0  0  0
    9.7073   -1.3103   -2.5633 H   0  0  0  0  0  0  0  0  0  0  0  0
   10.8485   -2.1507   -3.6248 H   0  0  0  0  0  0  0  0  0  0  0  0
    6.4572    3.5488   -5.3568 H   0  0  0  0  0  0  0  0  0  0  0  0
    7.3162    5.8615   -5.4482 H   0  0  0  0  0  0  0  0  0  0  0  0
    7.6209    7.1800   -3.3764 H   0  0  0  0  0  0  0  0  0  0  0  0
    7.6516    7.8221    0.2043 H   0  0  0  0  0  0  0  0  0  0  0  0
    6.9576    8.2425   -1.3941 H   0  0  0  0  0  0  0  0  0  0  0  0
    8.6191    7.5699   -1.2832 H   0  0  0  0  0  0  0  0  0  0  0  0
    5.3339    5.1705    0.3636 H   0  0  0  0  0  0  0  0  0  0  0  0
    5.0117    3.4647    0.8282 H   0  0  0  0  0  0  0  0  0  0  0  0
    4.1654    4.1804   -0.5790 H   0  0  0  0  0  0  0  0  0  0  0  0
  1  2  1  0
  1 41  1  0
  1 42  1  0
  1 43  1  0
  2  3  1  0
  2 44  1  0
  2 45  1  0
  3  4  1  0
  3 46  1  0
  3 47  1  0
  4  5  1  0
  4 48  1  0
  4 49  1  0
  5  6  1  0
  5 50  1  0
  5 51  1  0
  6  7  1  0
  6 31  1  0
  6 52  1  1
  7  8  1  0
  7 53  1  0
  7 54  1  0
  8  9  2  0
  8 10  1  0
 10 11  1  0
 10 55  1  0
 11 12  2  0
 11 26  1  0
 12 13  1  0
 12 56  1  0
 13 14  1  0
 13 24  2  0
 14 15  1  0
 14 16  1  0
 14 57  1  1
 15 58  1  0
 15 59  1  0
 15 60  1  0
 16 17  1  0
 17 18  2  0
 17 19  1  0
 19 20  1  0
 19 61  1  0
 19 62  1  0
 20 21  1  0
 20 63  1  0
 20 64  1  0
 21 22  2  0
 21 23  1  0
 23 65  1  0
 24 25  1  0
 24 66  1  0
 25 26  2  0
 25 67  1  0
 26 27  1  0
 27 28  1  6
 27 29  1  0
 27 30  1  0
 28 68  1  0
 28 69  1  0
 28 70  1  0
 29 71  1  0
 29 72  1  0
 29 73  1  0
 30 74  1  0
 30 75  1  0
 30 76  1  0
 31 32  2  0
 31 38  1  0
 32 33  1  0
 32 77  1  0
 33 34  2  0
 33 78  1  0
 34 35  1  0
 34 79  1  0
 35 36  1  0
 35 38  2  0
 36 37  1  0
 37 80  1  0
 37 81  1  0
 37 82  1  0
 38 39  1  0
 39 40  1  0
 40 83  1  0
 40 84  1  0
 40 85  1  0
M  END

