
     RDKit          3D

 33 34  0  0  0  0  0  0  0  0999 V2000
    0.9149    0.1185   -0.1178 C   0  0  0  0  0  0  0  0  0  0  0  0
    2.3541   -0.0504   -0.0082 N   0  0  0  0  0  0  0  0  0  0  0  0
    2.9761    0.0301    1.3044 C   0  0  0  0  0  0  0  0  0  0  0  0
    3.3620   -1.2993    1.9450 C   0  0  0  0  0  0  0  0  0  0  0  0
    4.2796   -1.3128    3.0064 C   0  0  0  0  0  0  0  0  0  0  0  0
    4.6102   -2.5120    3.6403 C   0  0  0  0  0  0  0  0  0  0  0  0
    4.0364   -3.7175    3.2266 C   0  0  0  0  0  0  0  0  0  0  0  0
    3.1276   -3.6992    2.1664 C   0  0  0  0  0  0  0  0  0  0  0  0
    2.4004   -5.1947    1.6252 Cl  0  0  0  0  0  0  0  0  0  0  0  0
    2.7878   -2.5042    1.5248 C   0  0  0  0  0  0  0  0  0  0  0  0
    3.1201   -0.1906   -1.1436 C   0  0  0  0  0  0  0  0  0  0  0  0
    2.5485   -0.1273   -2.4408 C   0  0  0  0  0  0  0  0  0  0  0  0
    3.3330   -0.2575   -3.5781 C   0  0  0  0  0  0  0  0  0  0  0  0
    4.7261   -0.4635   -3.5138 C   0  0  0  0  0  0  0  0  0  0  0  0
    5.4467   -0.5689   -4.7475 C   0  0  0  0  0  0  0  0  0  0  0  0
    5.8960   -0.6235   -5.8173 N   0  0  0  0  0  0  0  0  0  0  0  0
    5.2822   -0.5288   -2.2192 C   0  0  0  0  0  0  0  0  0  0  0  0
    6.7375   -0.7531   -2.0266 N   0  0  0  0  0  0  0  0  0  0  0  0
    7.3931   -1.0540   -3.0064 O   0  0  0  0  0  0  0  0  0  0  0  0
    7.1830   -0.6244   -0.8975 O   0  0  0  0  0  0  0  0  0  0  0  0
    4.5183   -0.4011   -1.0692 C   0  0  0  0  0  0  0  0  0  0  0  0
    0.4739    0.1233    0.8866 H   0  0  0  0  0  0  0  0  0  0  0  0
    0.4482   -0.7078   -0.6808 H   0  0  0  0  0  0  0  0  0  0  0  0
    0.6401    1.0666   -0.6167 H   0  0  0  0  0  0  0  0  0  0  0  0
    2.2694    0.5498    1.9714 H   0  0  0  0  0  0  0  0  0  0  0  0
    3.8650    0.6818    1.2590 H   0  0  0  0  0  0  0  0  0  0  0  0
    4.7437   -0.3791    3.3369 H   0  0  0  0  0  0  0  0  0  0  0  0
    5.3296   -2.5134    4.4628 H   0  0  0  0  0  0  0  0  0  0  0  0
    4.2917   -4.6611    3.7109 H   0  0  0  0  0  0  0  0  0  0  0  0
    2.0826   -2.5238    0.6931 H   0  0  0  0  0  0  0  0  0  0  0  0
    1.4793    0.0338   -2.5679 H   0  0  0  0  0  0  0  0  0  0  0  0
    2.8640   -0.1944   -4.5616 H   0  0  0  0  0  0  0  0  0  0  0  0
    5.0412   -0.4864   -0.1208 H   0  0  0  0  0  0  0  0  0  0  0  0
  1  2  1  0
  1 22  1  0
  1 23  1  0
  1 24  1  0
  2  3  1  0
  2 11  1  0
  3  4  1  0
  3 25  1  0
  3 26  1  0
  4  5  2  0
  4 10  1  0
  5  6  1  0
  5 27  1  0
  6  7  2  0
  6 28  1  0
  7  8  1  0
  7 29  1  0
  8  9  1  0
  8 10  2  0
 10 30  1  0
 11 12  2  0
 11 21  1  0
 12 13  1  0
 12 31  1  0
 13 14  2  0
 13 32  1  0
 14 15  1  0
 14 17  1  0
 15 16  3  0
 17 18  1  0
 17 21  2  0
 18 19  2  0
 18 20  1  0
 21 33  1  0
M  CHG  2  18   1  20  -1
M  END

