
     RDKit          3D

 51 50  0  0  0  0  0  0  0  0999 V2000
    2.7338   -1.6588   -2.8608 C   0  0  0  0  0  0  0  0  0  0  0  0
    2.2911   -0.2483   -2.4450 C   0  0  1  0  0  0  0  0  0  0  0  0
    0.7594   -0.1597   -2.3574 C   0  0  0  0  0  0  0  0  0  0  0  0
    2.9699    0.2704   -1.1432 C   0  0  1  0  0  0  0  0  0  0  0  0
    2.6878   -0.6066    0.0882 C   0  0  0  0  0  0  0  0  0  0  0  0
    4.4992    0.4872   -1.2500 C   0  0  0  0  0  0  0  0  0  0  0  0
    5.0178    1.3348   -2.4406 C   0  0  1  0  0  0  0  0  0  0  0  0
    4.3680    2.7266   -2.5135 C   0  0  0  0  0  0  0  0  0  0  0  0
    4.0496    3.3220   -4.2570 S   0  0  0  0  0  0  0  0  0  0  0  0
    5.6565    4.1556   -4.5598 C   0  0  0  0  0  0  0  0  0  0  0  0
    4.0171    2.0850   -5.1456 O   0  0  0  0  0  0  0  0  0  0  0  0
    6.5060    1.3322   -2.6011 N   0  0  0  0  0  0  0  0  0  0  0  0
    7.4840    1.7867   -1.5228 C   0  0  1  0  0  0  0  0  0  0  0  0
    7.8814    0.6393   -0.5663 C   0  0  0  0  0  0  0  0  0  0  0  0
    8.7396    2.3906   -2.1910 C   0  0  0  0  0  0  0  0  0  0  0  0
    6.8764    2.9202   -0.6718 C   0  0  0  0  0  0  0  0  0  0  0  0
    7.0099    0.0418   -3.6408 S   0  0  1  0  0  0  0  0  0  0  0  0
    6.8654    0.7207   -5.2952 C   0  0  0  0  0  0  0  0  0  0  0  0
    8.4307   -0.2470   -3.4119 O   0  0  0  0  0  0  0  0  0  0  0  0
    6.0493   -1.0662   -3.5457 O   0  0  0  0  0  0  0  0  0  0  0  0
    2.2584   -1.9378   -3.8151 H   0  0  0  0  0  0  0  0  0  0  0  0
    2.4327   -2.4145   -2.1162 H   0  0  0  0  0  0  0  0  0  0  0  0
    3.8214   -1.7275   -3.0069 H   0  0  0  0  0  0  0  0  0  0  0  0
    2.5892    0.4357   -3.2594 H   0  0  0  0  0  0  0  0  0  0  0  0
    0.3450   -0.8708   -1.6240 H   0  0  0  0  0  0  0  0  0  0  0  0
    0.3023   -0.3957   -3.3317 H   0  0  0  0  0  0  0  0  0  0  0  0
    0.4236    0.8509   -2.0691 H   0  0  0  0  0  0  0  0  0  0  0  0
    2.5051    1.2526   -0.9321 H   0  0  0  0  0  0  0  0  0  0  0  0
    1.6098   -0.7571    0.2494 H   0  0  0  0  0  0  0  0  0  0  0  0
    3.0936   -0.1399    1.0007 H   0  0  0  0  0  0  0  0  0  0  0  0
    3.1561   -1.5992   -0.0061 H   0  0  0  0  0  0  0  0  0  0  0  0
    4.9955   -0.4908   -1.3342 H   0  0  0  0  0  0  0  0  0  0  0  0
    4.8331    0.9257   -0.2963 H   0  0  0  0  0  0  0  0  0  0  0  0
    4.6496    0.8279   -3.3444 H   0  0  0  0  0  0  0  0  0  0  0  0
    4.8993    3.5314   -1.9984 H   0  0  0  0  0  0  0  0  0  0  0  0
    3.3562    2.6741   -2.0900 H   0  0  0  0  0  0  0  0  0  0  0  0
    5.6864    5.0866   -3.9742 H   0  0  0  0  0  0  0  0  0  0  0  0
    5.6769    4.3880   -5.6335 H   0  0  0  0  0  0  0  0  0  0  0  0
    6.4847    3.4913   -4.2857 H   0  0  0  0  0  0  0  0  0  0  0  0
    8.3285   -0.1986   -1.1137 H   0  0  0  0  0  0  0  0  0  0  0  0
    7.0133    0.2703   -0.0019 H   0  0  0  0  0  0  0  0  0  0  0  0
    8.6230    1.0051    0.1619 H   0  0  0  0  0  0  0  0  0  0  0  0
    9.3038    1.6458   -2.7606 H   0  0  0  0  0  0  0  0  0  0  0  0
    9.4013    2.8055   -1.4146 H   0  0  0  0  0  0  0  0  0  0  0  0
    8.4564    3.2165   -2.8633 H   0  0  0  0  0  0  0  0  0  0  0  0
    5.9423    2.6414   -0.1681 H   0  0  0  0  0  0  0  0  0  0  0  0
    6.7117    3.8370   -1.2564 H   0  0  0  0  0  0  0  0  0  0  0  0
    7.6044    3.1699    0.1142 H   0  0  0  0  0  0  0  0  0  0  0  0
    7.6269    1.5024   -5.4125 H   0  0  0  0  0  0  0  0  0  0  0  0
    5.8461    1.1087   -5.4493 H   0  0  0  0  0  0  0  0  0  0  0  0
    7.0767   -0.1258   -5.9633 H   0  0  0  0  0  0  0  0  0  0  0  0
  1  2  1  0
  1 21  1  0
  1 22  1  0
  1 23  1  0
  2  3  1  0
  2  4  1  0
  2 24  1  6
  3 25  1  0
  3 26  1  0
  3 27  1  0
  4  5  1  0
  4  6  1  0
  4 28  1  1
  5 29  1  0
  5 30  1  0
  5 31  1  0
  6  7  1  0
  6 32  1  0
  6 33  1  0
  7  8  1  0
  7 12  1  0
  7 34  1  6
  8  9  1  0
  8 35  1  0
  8 36  1  0
  9 10  1  0
  9 11  1  6
 10 37  1  0
 10 38  1  0
 10 39  1  0
 13 12  1  6
 17 12  1  1
 13 14  1  0
 13 15  1  0
 13 16  1  0
 14 40  1  0
 14 41  1  0
 14 42  1  0
 15 43  1  0
 15 44  1  0
 15 45  1  0
 16 46  1  0
 16 47  1  0
 16 48  1  0
 17 18  1  0
 17 19  2  0
 17 20  2  0
 18 49  1  0
 18 50  1  0
 18 51  1  0
M  CHG  2   9   1  11  -1
M  END

