
     RDKit          3D

 39 38  0  0  0  0  0  0  0  0999 V2000
    1.6555   -1.0006    1.3653 C   0  0  0  0  0  0  0  0  0  0  0  0
    2.1987   -0.2007    0.4334 C   0  0  0  0  0  0  0  0  0  0  0  0
    2.0735    1.3098    0.4577 C   0  0  0  0  0  0  0  0  0  0  0  0
    1.3450    1.9293    1.6476 C   0  0  0  0  0  0  0  0  0  0  0  0
    3.0081   -0.7632   -0.7155 C   0  0  0  0  0  0  0  0  0  0  0  0
    4.5460   -0.7020   -0.4763 C   0  0  1  0  0  0  0  0  0  0  0  0
    4.9750   -1.4685    0.6879 N   0  0  0  0  0  0  0  0  0  0  0  0
    5.3216   -1.1107   -1.7579 C   0  0  1  0  0  0  0  0  0  0  0  0
    4.8645   -0.2370   -2.7911 O   0  0  0  0  0  0  0  0  0  0  0  0
    4.2739   -0.8358   -3.9167 C   0  0  0  0  0  0  0  0  0  0  0  0
    6.8905   -1.0560   -1.6863 C   0  0  1  0  0  0  0  0  0  0  0  0
    7.4571   -2.2419   -0.8797 C   0  0  0  0  0  0  0  0  0  0  0  0
    7.4536   -1.1575   -3.1195 C   0  0  0  0  0  0  0  0  0  0  0  0
    7.3600    0.2718   -1.0649 C   0  0  0  0  0  0  0  0  0  0  0  0
    1.0850   -0.6131    2.2124 H   0  0  0  0  0  0  0  0  0  0  0  0
    1.7475   -2.0887    1.2969 H   0  0  0  0  0  0  0  0  0  0  0  0
    1.5745    1.6160   -0.4815 H   0  0  0  0  0  0  0  0  0  0  0  0
    3.0877    1.7443    0.3806 H   0  0  0  0  0  0  0  0  0  0  0  0
    0.3037    1.5757    1.7160 H   0  0  0  0  0  0  0  0  0  0  0  0
    1.3171    3.0263    1.5559 H   0  0  0  0  0  0  0  0  0  0  0  0
    1.8430    1.6872    2.6003 H   0  0  0  0  0  0  0  0  0  0  0  0
    2.7774   -0.1986   -1.6313 H   0  0  0  0  0  0  0  0  0  0  0  0
    2.7268   -1.8165   -0.8905 H   0  0  0  0  0  0  0  0  0  0  0  0
    4.8069    0.3529   -0.2880 H   0  0  0  0  0  0  0  0  0  0  0  0
    4.7584   -2.4592    0.5553 H   0  0  0  0  0  0  0  0  0  0  0  0
    4.4342   -1.1776    1.5032 H   0  0  0  0  0  0  0  0  0  0  0  0
    5.0411   -2.1541   -2.0113 H   0  0  0  0  0  0  0  0  0  0  0  0
    3.9823   -0.0266   -4.6038 H   0  0  0  0  0  0  0  0  0  0  0  0
    3.3644   -1.4124   -3.6569 H   0  0  0  0  0  0  0  0  0  0  0  0
    4.9666   -1.5105   -4.4530 H   0  0  0  0  0  0  0  0  0  0  0  0
    7.1245   -3.2057   -1.3037 H   0  0  0  0  0  0  0  0  0  0  0  0
    7.1463   -2.1988    0.1708 H   0  0  0  0  0  0  0  0  0  0  0  0
    8.5589   -2.2313   -0.9234 H   0  0  0  0  0  0  0  0  0  0  0  0
    7.1417   -2.0937   -3.6126 H   0  0  0  0  0  0  0  0  0  0  0  0
    8.5550   -1.1585   -3.0879 H   0  0  0  0  0  0  0  0  0  0  0  0
    7.1320   -0.3130   -3.7448 H   0  0  0  0  0  0  0  0  0  0  0  0
    7.0892    0.3361   -0.0005 H   0  0  0  0  0  0  0  0  0  0  0  0
    6.9191    1.1310   -1.5951 H   0  0  0  0  0  0  0  0  0  0  0  0
    8.4565    0.3605   -1.1349 H   0  0  0  0  0  0  0  0  0  0  0  0
  1  2  2  0
  1 15  1  0
  1 16  1  0
  2  3  1  0
  2  5  1  0
  3  4  1  0
  3 17  1  0
  3 18  1  0
  4 19  1  0
  4 20  1  0
  4 21  1  0
  5  6  1  0
  5 22  1  0
  5 23  1  0
  6  7  1  0
  6  8  1  0
  6 24  1  1
  7 25  1  0
  7 26  1  0
  8  9  1  0
  8 11  1  0
  8 27  1  6
  9 10  1  0
 10 28  1  0
 10 29  1  0
 10 30  1  0
 11 12  1  1
 11 13  1  0
 11 14  1  0
 12 31  1  0
 12 32  1  0
 12 33  1  0
 13 34  1  0
 13 35  1  0
 13 36  1  0
 14 37  1  0
 14 38  1  0
 14 39  1  0
M  END

