
     RDKit          3D

 47 48  0  0  0  0  0  0  0  0999 V2000
    2.2314   -0.8651   -3.0885 C   0  0  0  0  0  0  0  0  0  0  0  0
    2.0107   -1.5156   -1.8542 O   0  0  0  0  0  0  0  0  0  0  0  0
    3.0612   -1.9069   -1.1084 C   0  0  0  0  0  0  0  0  0  0  0  0
    4.4062   -1.7814   -1.4922 C   0  0  0  0  0  0  0  0  0  0  0  0
    5.4036   -2.2336   -0.6267 C   0  0  0  0  0  0  0  0  0  0  0  0
    5.1091   -2.8035    0.6132 C   0  0  0  0  0  0  0  0  0  0  0  0
    3.7666   -2.9262    1.0065 C   0  0  0  0  0  0  0  0  0  0  0  0
    3.3555   -3.4552    2.1763 O   0  0  0  0  0  0  0  0  0  0  0  0
    4.3124   -3.9103    3.1093 C   0  0  0  0  0  0  0  0  0  0  0  0
    2.7451   -2.4728    0.1456 C   0  0  0  0  0  0  0  0  0  0  0  0
    1.3915   -2.5944    0.5354 N   0  0  0  0  0  0  0  0  0  0  0  0
    0.6302   -4.1336    0.1848 Cl  0  0  0  0  0  0  0  0  0  0  0  0
    0.6897   -1.5445    1.0888 C   0  0  0  0  0  0  0  0  0  0  0  0
    1.2475   -0.4901    1.3198 O   0  0  0  0  0  0  0  0  0  0  0  0
   -0.8023   -1.7730    1.4118 C   0  0  1  0  0  0  0  0  0  0  0  0
   -0.8849   -2.3707    2.7437 N   0  0  0  0  0  0  0  0  0  0  0  0
   -1.5551   -3.4188    2.7722 N   0  0  0  0  0  0  0  0  0  0  0  0
   -1.6517   -4.0472    4.0409 C   0  0  0  0  0  0  0  0  0  0  0  0
   -0.8478   -3.6911    5.1384 C   0  0  0  0  0  0  0  0  0  0  0  0
   -0.9765   -4.3686    6.3441 C   0  0  0  0  0  0  0  0  0  0  0  0
   -1.9088   -5.4056    6.4680 C   0  0  0  0  0  0  0  0  0  0  0  0
   -2.7286   -5.7935    5.3990 C   0  0  0  0  0  0  0  0  0  0  0  0
   -3.7272   -6.9110    5.5481 C   0  0  0  0  0  0  0  0  0  0  0  0
   -2.5808   -5.0985    4.1821 C   0  0  0  0  0  0  0  0  0  0  0  0
   -3.5866   -5.5465    2.8272 Cl  0  0  0  0  0  0  0  0  0  0  0  0
   -1.5165   -0.3917    1.3660 C   0  0  0  0  0  0  0  0  0  0  0  0
   -1.4445    0.4760    2.5937 C   0  0  0  0  0  0  0  0  0  0  0  0
   -2.0857   -0.0758    0.3502 O   0  0  0  0  0  0  0  0  0  0  0  0
    1.2395   -0.6188   -3.4888 H   0  0  0  0  0  0  0  0  0  0  0  0
    2.7574   -1.5189   -3.8065 H   0  0  0  0  0  0  0  0  0  0  0  0
    2.8089    0.0667   -2.9584 H   0  0  0  0  0  0  0  0  0  0  0  0
    4.6766   -1.3412   -2.4509 H   0  0  0  0  0  0  0  0  0  0  0  0
    6.4497   -2.1371   -0.9291 H   0  0  0  0  0  0  0  0  0  0  0  0
    5.9168   -3.1424    1.2604 H   0  0  0  0  0  0  0  0  0  0  0  0
    3.7479   -4.2859    3.9728 H   0  0  0  0  0  0  0  0  0  0  0  0
    4.9784   -3.0947    3.4416 H   0  0  0  0  0  0  0  0  0  0  0  0
    4.9268   -4.7309    2.6982 H   0  0  0  0  0  0  0  0  0  0  0  0
   -1.2867   -2.4090    0.6575 H   0  0  0  0  0  0  0  0  0  0  0  0
   -0.1288   -2.8823    5.0026 H   0  0  0  0  0  0  0  0  0  0  0  0
   -0.3494   -4.0961    7.1965 H   0  0  0  0  0  0  0  0  0  0  0  0
   -2.0047   -5.9355    7.4195 H   0  0  0  0  0  0  0  0  0  0  0  0
   -3.6940   -7.3347    6.5618 H   0  0  0  0  0  0  0  0  0  0  0  0
   -3.5319   -7.7192    4.8249 H   0  0  0  0  0  0  0  0  0  0  0  0
   -4.7523   -6.5583    5.3505 H   0  0  0  0  0  0  0  0  0  0  0  0
   -1.8260   -0.0702    3.4705 H   0  0  0  0  0  0  0  0  0  0  0  0
   -2.0167    1.3983    2.4288 H   0  0  0  0  0  0  0  0  0  0  0  0
   -0.3858    0.7052    2.7921 H   0  0  0  0  0  0  0  0  0  0  0  0
  1  2  1  0
  1 29  1  0
  1 30  1  0
  1 31  1  0
  2  3  1  0
  3  4  2  0
  3 10  1  0
  4  5  1  0
  4 32  1  0
  5  6  2  0
  5 33  1  0
  6  7  1  0
  6 34  1  0
  7  8  1  0
  7 10  2  0
  8  9  1  0
  9 35  1  0
  9 36  1  0
  9 37  1  0
 10 11  1  0
 11 12  1  0
 11 13  1  0
 13 14  2  0
 13 15  1  0
 15 16  1  0
 15 26  1  0
 15 38  1  6
 16 17  2  0
 17 18  1  0
 18 19  2  0
 18 24  1  0
 19 20  1  0
 19 39  1  0
 20 21  2  0
 20 40  1  0
 21 22  1  0
 21 41  1  0
 22 23  1  0
 22 24  2  0
 23 42  1  0
 23 43  1  0
 23 44  1  0
 24 25  1  0
 26 27  1  0
 26 28  2  0
 27 45  1  0
 27 46  1  0
 27 47  1  0
M  END

