
     RDKit          3D

 43 44  0  0  0  0  0  0  0  0999 V2000
    5.5028   -1.2185   -0.9990 C   0  0  0  0  0  0  0  0  0  0  0  0
    4.1546   -0.5063   -0.8763 C   0  0  1  0  0  0  0  0  0  0  0  0
    4.2640    0.8893   -1.0470 O   0  0  0  0  0  0  0  0  0  0  0  0
    3.1178   -1.1301   -1.8669 C   0  0  0  0  0  0  0  0  0  0  0  0
    3.1399   -2.3136   -2.1072 O   0  0  0  0  0  0  0  0  0  0  0  0
    2.1360   -0.1749   -2.5334 C   0  0  0  0  0  0  0  0  0  0  0  0
    2.7644    0.5020   -3.7442 C   0  0  0  0  0  0  0  0  0  0  0  0
    2.8872    1.8967   -3.8194 C   0  0  0  0  0  0  0  0  0  0  0  0
    3.4567    2.4870   -4.9478 C   0  0  0  0  0  0  0  0  0  0  0  0
    3.9048    1.6857   -5.9950 C   0  0  0  0  0  0  0  0  0  0  0  0
    4.4458    2.3120   -7.0558 F   0  0  0  0  0  0  0  0  0  0  0  0
    3.8112    0.2858   -5.9623 C   0  0  0  0  0  0  0  0  0  0  0  0
    4.3018   -0.6297   -7.1081 C   0  0  1  0  0  0  0  0  0  0  0  0
    5.7771   -0.3207   -7.4503 C   0  0  0  0  0  0  0  0  0  0  0  0
    4.2181   -2.0147   -6.6687 N   0  0  0  0  0  0  0  0  0  0  0  0
    3.7395   -2.9471   -7.3958 C   0  0  0  0  0  0  0  0  0  0  0  0
    3.5663   -4.2187   -6.9360 N   0  0  0  0  0  0  0  0  0  0  0  0
    3.2925   -2.8505   -8.6811 O   0  0  0  0  0  0  0  0  0  0  0  0
    3.5275   -1.6126   -9.3258 C   0  0  0  0  0  0  0  0  0  0  0  0
    3.3961   -0.4469   -8.3547 C   0  0  2  0  0  0  0  0  0  0  0  0
    3.6732    0.6911   -9.0488 F   0  0  0  0  0  0  0  0  0  0  0  0
    2.0904   -0.3694   -7.9623 F   0  0  0  0  0  0  0  0  0  0  0  0
    3.2343   -0.2737   -4.8147 C   0  0  0  0  0  0  0  0  0  0  0  0
    3.5975   -0.6684    0.5561 C   0  0  1  0  0  0  0  0  0  0  0  0
    4.3991   -0.0947    1.4596 F   0  0  0  0  0  0  0  0  0  0  0  0
    2.3825   -0.1039    0.6706 F   0  0  0  0  0  0  0  0  0  0  0  0
    3.4737   -1.9630    0.8796 F   0  0  0  0  0  0  0  0  0  0  0  0
    5.9163   -1.0498   -2.0055 H   0  0  0  0  0  0  0  0  0  0  0  0
    5.3821   -2.3001   -0.8600 H   0  0  0  0  0  0  0  0  0  0  0  0
    6.2043   -0.8193   -0.2533 H   0  0  0  0  0  0  0  0  0  0  0  0
    4.6734    1.0669   -1.9046 H   0  0  0  0  0  0  0  0  0  0  0  0
    1.8057    0.5810   -1.8096 H   0  0  0  0  0  0  0  0  0  0  0  0
    1.2730   -0.7827   -2.8449 H   0  0  0  0  0  0  0  0  0  0  0  0
    2.5340    2.5246   -2.9977 H   0  0  0  0  0  0  0  0  0  0  0  0
    3.5593    3.5701   -5.0397 H   0  0  0  0  0  0  0  0  0  0  0  0
    6.3879   -0.5447   -6.5644 H   0  0  0  0  0  0  0  0  0  0  0  0
    5.9229    0.7261   -7.7395 H   0  0  0  0  0  0  0  0  0  0  0  0
    6.1289   -0.9707   -8.2657 H   0  0  0  0  0  0  0  0  0  0  0  0
    3.9599   -4.4369   -6.0307 H   0  0  0  0  0  0  0  0  0  0  0  0
    3.4407   -4.9649   -7.6067 H   0  0  0  0  0  0  0  0  0  0  0  0
    2.7697   -1.5009  -10.1134 H   0  0  0  0  0  0  0  0  0  0  0  0
    4.5290   -1.5968   -9.7860 H   0  0  0  0  0  0  0  0  0  0  0  0
    3.1642   -1.3610   -4.7724 H   0  0  0  0  0  0  0  0  0  0  0  0
  1  2  1  0
  1 28  1  0
  1 29  1  0
  1 30  1  0
  2  3  1  6
  2  4  1  0
  2 24  1  0
  3 31  1  0
  4  5  2  0
  4  6  1  0
  6  7  1  0
  6 32  1  0
  6 33  1  0
  7  8  2  0
  7 23  1  0
  8  9  1  0
  8 34  1  0
  9 10  2  0
  9 35  1  0
 10 11  1  0
 10 12  1  0
 12 13  1  0
 12 23  2  0
 13 14  1  6
 13 15  1  0
 13 20  1  0
 14 36  1  0
 14 37  1  0
 14 38  1  0
 15 16  2  0
 16 17  1  0
 16 18  1  0
 17 39  1  0
 17 40  1  0
 18 19  1  0
 19 20  1  0
 19 41  1  0
 19 42  1  0
 20 21  1  6
 20 22  1  0
 23 43  1  0
 24 25  1  1
 24 26  1  0
 24 27  1  0
M  END

