
     RDKit          3D

 72 75  0  0  0  0  0  0  0  0999 V2000
    7.5202    3.5117    2.5659 C   0  0  0  0  0  0  0  0  0  0  0  0
    7.2798    2.5921    1.3947 C   0  0  0  0  0  0  0  0  0  0  0  0
    8.1577    2.5606    0.3006 C   0  0  0  0  0  0  0  0  0  0  0  0
    7.9294    1.7149   -0.7881 C   0  0  0  0  0  0  0  0  0  0  0  0
    6.8078    0.8860   -0.7735 C   0  0  0  0  0  0  0  0  0  0  0  0
    6.4995   -0.2020   -2.1573 S   0  0  1  0  0  0  0  0  0  0  0  0
    5.0667   -0.4977   -2.2360 O   0  0  0  0  0  0  0  0  0  0  0  0
    7.2503    0.3019   -3.3041 O   0  0  0  0  0  0  0  0  0  0  0  0
    7.1458   -1.6893   -1.6122 N   0  0  0  0  0  0  0  0  0  0  0  0
    8.4917   -1.8370   -1.6541 N   0  0  0  0  0  0  0  0  0  0  0  0
    8.9787   -3.0231   -1.6684 C   0  0  0  0  0  0  0  0  0  0  0  0
   10.4170   -3.2990   -1.6701 C   0  0  0  0  0  0  0  0  0  0  0  0
   11.3689   -2.2436   -1.6820 C   0  0  0  0  0  0  0  0  0  0  0  0
   12.7332   -2.4976   -1.6854 C   0  0  0  0  0  0  0  0  0  0  0  0
   13.1589   -3.8380   -1.6761 C   0  0  0  0  0  0  0  0  0  0  0  0
   12.2286   -4.9144   -1.6714 C   0  0  0  0  0  0  0  0  0  0  0  0
   10.8540   -4.6307   -1.6671 C   0  0  0  0  0  0  0  0  0  0  0  0
   12.9918   -6.1367   -1.6896 C   0  0  0  0  0  0  0  0  0  0  0  0
   12.4083   -7.5170   -1.7079 C   0  0  0  0  0  0  0  0  0  0  0  0
   14.3254   -5.7694   -1.7035 C   0  0  0  0  0  0  0  0  0  0  0  0
   15.5392   -6.6403   -1.7729 C   0  0  0  0  0  0  0  0  0  0  0  0
   14.4292   -4.3736   -1.6884 N   0  0  0  0  0  0  0  0  0  0  0  0
   15.6485   -3.5810   -1.6683 C   0  0  0  0  0  0  0  0  0  0  0  0
   16.0080   -2.9730   -0.2976 C   0  0  1  0  0  0  0  0  0  0  0  0
   16.3946   -4.0263    0.7435 C   0  0  0  0  0  0  0  0  0  0  0  0
   17.1310   -1.9289   -0.4707 C   0  0  0  0  0  0  0  0  0  0  0  0
   16.7370   -0.7960   -1.3023 N   0  0  0  0  0  0  0  0  0  0  0  0
   16.0063    0.2657   -0.6010 C   0  0  0  0  0  0  0  0  0  0  0  0
   16.9444    1.2440    0.1327 C   0  0  0  0  0  0  0  0  0  0  0  0
   17.9802    1.8057   -0.7315 N   0  0  0  0  0  0  0  0  0  0  0  0
   17.5563    2.9166   -1.5630 C   0  0  0  0  0  0  0  0  0  0  0  0
   18.7059    0.7469   -1.4301 C   0  0  0  0  0  0  0  0  0  0  0  0
   17.7726   -0.2291   -2.1699 C   0  0  0  0  0  0  0  0  0  0  0  0
    5.9094    0.8969    0.2985 C   0  0  0  0  0  0  0  0  0  0  0  0
    6.1528    1.7488    1.3731 C   0  0  0  0  0  0  0  0  0  0  0  0
    8.4722    4.0535    2.4686 H   0  0  0  0  0  0  0  0  0  0  0  0
    7.5429    2.9510    3.5148 H   0  0  0  0  0  0  0  0  0  0  0  0
    6.7142    4.2596    2.6544 H   0  0  0  0  0  0  0  0  0  0  0  0
    9.0356    3.2122    0.2963 H   0  0  0  0  0  0  0  0  0  0  0  0
    8.6035    1.6963   -1.6455 H   0  0  0  0  0  0  0  0  0  0  0  0
    6.5313   -2.4659   -1.8885 H   0  0  0  0  0  0  0  0  0  0  0  0
    8.3097   -3.9050   -1.6772 H   0  0  0  0  0  0  0  0  0  0  0  0
   10.9992   -1.2170   -1.6930 H   0  0  0  0  0  0  0  0  0  0  0  0
   13.4494   -1.6738   -1.7023 H   0  0  0  0  0  0  0  0  0  0  0  0
   10.1221   -5.4440   -1.6651 H   0  0  0  0  0  0  0  0  0  0  0  0
   11.7697   -7.6983   -0.8256 H   0  0  0  0  0  0  0  0  0  0  0  0
   13.1834   -8.2972   -1.7145 H   0  0  0  0  0  0  0  0  0  0  0  0
   11.7738   -7.6784   -2.5971 H   0  0  0  0  0  0  0  0  0  0  0  0
   15.2452   -7.6979   -1.7853 H   0  0  0  0  0  0  0  0  0  0  0  0
   16.2144   -6.4942   -0.9140 H   0  0  0  0  0  0  0  0  0  0  0  0
   16.1291   -6.4532   -2.6874 H   0  0  0  0  0  0  0  0  0  0  0  0
   15.5438   -2.7550   -2.3883 H   0  0  0  0  0  0  0  0  0  0  0  0
   16.4786   -4.2111   -2.0229 H   0  0  0  0  0  0  0  0  0  0  0  0
   15.1114   -2.4450    0.0713 H   0  0  0  0  0  0  0  0  0  0  0  0
   17.3142   -4.5621    0.4497 H   0  0  0  0  0  0  0  0  0  0  0  0
   15.5956   -4.7713    0.8779 H   0  0  0  0  0  0  0  0  0  0  0  0
   16.5830   -3.5630    1.7254 H   0  0  0  0  0  0  0  0  0  0  0  0
   17.9950   -2.4238   -0.9479 H   0  0  0  0  0  0  0  0  0  0  0  0
   17.4824   -1.6268    0.5384 H   0  0  0  0  0  0  0  0  0  0  0  0
   15.2917   -0.1853    0.1064 H   0  0  0  0  0  0  0  0  0  0  0  0
   15.4016    0.8185   -1.3428 H   0  0  0  0  0  0  0  0  0  0  0  0
   17.4432    0.7138    0.9656 H   0  0  0  0  0  0  0  0  0  0  0  0
   16.3640    2.0655    0.5852 H   0  0  0  0  0  0  0  0  0  0  0  0
   17.1294    3.7101   -0.9278 H   0  0  0  0  0  0  0  0  0  0  0  0
   16.7988    2.6780   -2.3425 H   0  0  0  0  0  0  0  0  0  0  0  0
   18.4308    3.3443   -2.0805 H   0  0  0  0  0  0  0  0  0  0  0  0
   19.3001    0.1846   -0.6847 H   0  0  0  0  0  0  0  0  0  0  0  0
   19.4248    1.2023   -2.1320 H   0  0  0  0  0  0  0  0  0  0  0  0
   18.3505   -1.0486   -2.6279 H   0  0  0  0  0  0  0  0  0  0  0  0
   17.2704    0.3025   -2.9992 H   0  0  0  0  0  0  0  0  0  0  0  0
    5.0296    0.2514    0.2752 H   0  0  0  0  0  0  0  0  0  0  0  0
    5.4524    1.7650    2.2130 H   0  0  0  0  0  0  0  0  0  0  0  0
  1  2  1  0
  1 36  1  0
  1 37  1  0
  1 38  1  0
  2  3  2  0
  2 35  1  0
  3  4  1  0
  3 39  1  0
  4  5  2  0
  4 40  1  0
  5  6  1  0
  5 34  1  0
  6  7  2  0
  6  8  2  0
  6  9  1  1
  9 10  1  0
  9 41  1  0
 10 11  2  0
 11 12  1  0
 11 42  1  0
 12 13  2  0
 12 17  1  0
 13 14  1  0
 13 43  1  0
 14 15  2  0
 14 44  1  0
 15 16  1  0
 15 22  1  0
 16 17  2  0
 16 18  1  0
 17 45  1  0
 18 19  1  0
 18 20  2  0
 19 46  1  0
 19 47  1  0
 19 48  1  0
 20 21  1  0
 20 22  1  0
 21 49  1  0
 21 50  1  0
 21 51  1  0
 22 23  1  0
 23 24  1  0
 23 52  1  0
 23 53  1  0
 24 25  1  0
 24 26  1  0
 24 54  1  1
 25 55  1  0
 25 56  1  0
 25 57  1  0
 26 27  1  0
 26 58  1  0
 26 59  1  0
 27 28  1  0
 27 33  1  0
 28 29  1  0
 28 60  1  0
 28 61  1  0
 29 30  1  0
 29 62  1  0
 29 63  1  0
 30 31  1  0
 30 32  1  0
 31 64  1  0
 31 65  1  0
 31 66  1  0
 32 33  1  0
 32 67  1  0
 32 68  1  0
 33 69  1  0
 33 70  1  0
 34 35  2  0
 34 71  1  0
 35 72  1  0
M  END

