
     RDKit          3D

 34 34  0  0  0  0  0  0  0  0999 V2000
    0.8926    0.4315    0.5561 C   0  0  0  0  0  0  0  0  0  0  0  0
    2.1016   -0.0668    1.0796 O   0  0  0  0  0  0  0  0  0  0  0  0
    3.0640    0.8082    1.4742 C   0  0  0  0  0  0  0  0  0  0  0  0
    2.9421    2.2017    1.4054 C   0  0  0  0  0  0  0  0  0  0  0  0
    4.0163    2.9956    1.8385 C   0  0  0  0  0  0  0  0  0  0  0  0
    5.1620    2.4051    2.3302 C   0  0  0  0  0  0  0  0  0  0  0  0
    6.2053    3.1661    2.7432 F   0  0  0  0  0  0  0  0  0  0  0  0
    5.3103    1.0020    2.4176 C   0  0  0  0  0  0  0  0  0  0  0  0
    6.4852    0.5018    2.9700 N   0  0  0  0  0  0  0  0  0  0  0  0
    6.8977   -0.8782    2.8344 C   0  0  0  0  0  0  0  0  0  0  0  0
    7.9534   -1.3051    3.8646 C   0  0  0  0  0  0  0  0  0  0  0  0
    8.6887   -2.2518    3.6426 O   0  0  0  0  0  0  0  0  0  0  0  0
    7.9594   -0.5745    5.0128 N   0  0  0  0  0  0  0  0  0  0  0  0
    8.8351   -0.8598    6.1452 C   0  0  1  0  0  0  0  0  0  0  0  0
    9.5800    0.4065    6.5780 C   0  0  0  0  0  0  0  0  0  0  0  0
    8.0549   -1.4996    7.3002 C   0  0  0  0  0  0  0  0  0  0  0  0
    4.2421    0.2173    1.9684 C   0  0  0  0  0  0  0  0  0  0  0  0
    0.2758   -0.4420    0.3049 H   0  0  0  0  0  0  0  0  0  0  0  0
    1.0549    1.0291   -0.3595 H   0  0  0  0  0  0  0  0  0  0  0  0
    0.3493    1.0523    1.2917 H   0  0  0  0  0  0  0  0  0  0  0  0
    2.0429    2.6806    1.0212 H   0  0  0  0  0  0  0  0  0  0  0  0
    3.9644    4.0855    1.7943 H   0  0  0  0  0  0  0  0  0  0  0  0
    7.2459    1.1740    2.9400 H   0  0  0  0  0  0  0  0  0  0  0  0
    7.3058   -1.1336    1.8386 H   0  0  0  0  0  0  0  0  0  0  0  0
    6.0289   -1.5364    2.9956 H   0  0  0  0  0  0  0  0  0  0  0  0
    7.2595    0.1579    5.0956 H   0  0  0  0  0  0  0  0  0  0  0  0
    9.5597   -1.5947    5.7624 H   0  0  0  0  0  0  0  0  0  0  0  0
    8.8770    1.1820    6.9291 H   0  0  0  0  0  0  0  0  0  0  0  0
   10.1629    0.8261    5.7438 H   0  0  0  0  0  0  0  0  0  0  0  0
   10.2727    0.1885    7.4060 H   0  0  0  0  0  0  0  0  0  0  0  0
    7.2823   -0.8126    7.6868 H   0  0  0  0  0  0  0  0  0  0  0  0
    8.7278   -1.7515    8.1354 H   0  0  0  0  0  0  0  0  0  0  0  0
    7.5577   -2.4245    6.9706 H   0  0  0  0  0  0  0  0  0  0  0  0
    4.2880   -0.8710    1.9848 H   0  0  0  0  0  0  0  0  0  0  0  0
  1  2  1  0
  1 18  1  0
  1 19  1  0
  1 20  1  0
  2  3  1  0
  3  4  2  0
  3 17  1  0
  4  5  1  0
  4 21  1  0
  5  6  2  0
  5 22  1  0
  6  7  1  0
  6  8  1  0
  8  9  1  0
  8 17  2  0
  9 10  1  0
  9 23  1  0
 10 11  1  0
 10 24  1  0
 10 25  1  0
 11 12  2  0
 11 13  1  0
 13 14  1  0
 13 26  1  0
 14 15  1  0
 14 16  1  0
 14 27  1  6
 15 28  1  0
 15 29  1  0
 15 30  1  0
 16 31  1  0
 16 32  1  0
 16 33  1  0
 17 34  1  0
M  END

