
     RDKit          3D

 30 31  0  0  0  0  0  0  0  0999 V2000
    1.0043   -0.3425   -0.0587 C   0  0  0  0  0  0  0  0  0  0  0  0
    2.5025   -0.0969   -0.0313 C   0  0  0  0  0  0  0  0  0  0  0  0
    3.2904   -1.2914   -0.0278 C   0  0  0  0  0  0  0  0  0  0  0  0
    4.5937   -1.3587   -0.0270 N   0  0  0  0  0  0  0  0  0  0  0  0
    5.2785   -0.1862   -0.0745 C   0  0  0  0  0  0  0  0  0  0  0  0
    6.6984   -0.2749   -0.1211 C   0  0  0  0  0  0  0  0  0  0  0  0
    7.4787    0.8545   -0.2087 C   0  0  0  0  0  0  0  0  0  0  0  0
    6.8517    2.1210   -0.2595 C   0  0  0  0  0  0  0  0  0  0  0  0
    5.4771    2.2346   -0.2010 C   0  0  0  0  0  0  0  0  0  0  0  0
    4.6218    1.0933   -0.0901 C   0  0  0  0  0  0  0  0  0  0  0  0
    3.1726    1.1321   -0.0168 C   0  0  0  0  0  0  0  0  0  0  0  0
    2.4274    2.4973    0.0733 C   0  0  1  0  0  0  0  0  0  0  0  0
    2.8958    3.3235    1.2916 C   0  0  0  0  0  0  0  0  0  0  0  0
    2.5313    3.2711   -1.2522 C   0  0  0  0  0  0  0  0  0  0  0  0
    1.0194    2.3337    0.2350 O   0  0  0  0  0  0  0  0  0  0  0  0
    0.8178   -1.4002   -0.2995 H   0  0  0  0  0  0  0  0  0  0  0  0
    0.4831    0.2825   -0.7914 H   0  0  0  0  0  0  0  0  0  0  0  0
    0.5272   -0.1560    0.9179 H   0  0  0  0  0  0  0  0  0  0  0  0
    2.7544   -2.2504   -0.0187 H   0  0  0  0  0  0  0  0  0  0  0  0
    7.1265   -1.2788   -0.0947 H   0  0  0  0  0  0  0  0  0  0  0  0
    8.5681    0.7782   -0.2495 H   0  0  0  0  0  0  0  0  0  0  0  0
    7.4594    3.0250   -0.3505 H   0  0  0  0  0  0  0  0  0  0  0  0
    5.0563    3.2339   -0.2604 H   0  0  0  0  0  0  0  0  0  0  0  0
    3.9528    3.6092    1.2763 H   0  0  0  0  0  0  0  0  0  0  0  0
    2.7325    2.7443    2.2166 H   0  0  0  0  0  0  0  0  0  0  0  0
    2.2848    4.2373    1.3457 H   0  0  0  0  0  0  0  0  0  0  0  0
    3.5641    3.4767   -1.5563 H   0  0  0  0  0  0  0  0  0  0  0  0
    1.9878    4.2232   -1.1560 H   0  0  0  0  0  0  0  0  0  0  0  0
    2.0514    2.6849   -2.0498 H   0  0  0  0  0  0  0  0  0  0  0  0
    0.8480    2.0283    1.1349 H   0  0  0  0  0  0  0  0  0  0  0  0
  1  2  1  0
  1 16  1  0
  1 17  1  0
  1 18  1  0
  2  3  2  0
  2 11  1  0
  3  4  1  0
  3 19  1  0
  4  5  2  0
  5  6  1  0
  5 10  1  0
  6  7  2  0
  6 20  1  0
  7  8  1  0
  7 21  1  0
  8  9  2  0
  8 22  1  0
  9 10  1  0
  9 23  1  0
 10 11  2  0
 11 12  1  0
 12 13  1  0
 12 14  1  0
 12 15  1  1
 13 24  1  0
 13 25  1  0
 13 26  1  0
 14 27  1  0
 14 28  1  0
 14 29  1  0
 15 30  1  0
M  END

