
     RDKit          3D

246262  0  0  0  0  0  0  0  0999 V2000
   12.2367   -2.7507  -18.3895 C   0  0  0  0  0  0  0  0  0  0  0  0
   12.3701   -4.0250  -17.5545 C   0  0  0  0  0  0  0  0  0  0  0  0
   12.2569   -3.7853  -16.0456 C   0  0  0  0  0  0  0  0  0  0  0  0
   12.3887   -5.0566  -15.2020 C   0  0  0  0  0  0  0  0  0  0  0  0
   12.2749   -4.8167  -13.6936 C   0  0  0  0  0  0  0  0  0  0  0  0
   12.4053   -6.0888  -12.8506 C   0  0  0  0  0  0  0  0  0  0  0  0
   12.2897   -5.8492  -11.3424 C   0  0  0  0  0  0  0  0  0  0  0  0
   12.4183   -7.1220  -10.5002 C   0  0  0  0  0  0  0  0  0  0  0  0
   12.2981   -6.8788   -8.9919 C   0  0  0  0  0  0  0  0  0  0  0  0
   12.4267   -8.1631   -8.1686 C   0  0  0  0  0  0  0  0  0  0  0  0
   12.3065   -8.0146   -6.6246 C   0  0  2  0  0  0  0  0  0  0  0  0
   12.4665   -9.4248   -5.9863 C   0  0  0  0  0  0  0  0  0  0  0  0
   12.3119   -9.5078   -4.4653 C   0  0  0  0  0  0  0  0  0  0  0  0
   12.5324  -10.9229   -3.9202 C   0  0  0  0  0  0  0  0  0  0  0  0
   12.3631  -11.0312   -2.4019 C   0  0  0  0  0  0  0  0  0  0  0  0
   12.5808  -12.4439   -1.8521 C   0  0  0  0  0  0  0  0  0  0  0  0
   12.4108  -12.5529   -0.3339 C   0  0  0  0  0  0  0  0  0  0  0  0
   12.6272  -13.9658    0.2162 C   0  0  0  0  0  0  0  0  0  0  0  0
   12.4568  -14.0752    1.7342 C   0  0  0  0  0  0  0  0  0  0  0  0
   12.6732  -15.4883    2.2848 C   0  0  0  0  0  0  0  0  0  0  0  0
   12.5008  -15.5886    3.8012 C   0  0  0  0  0  0  0  0  0  0  0  0
   10.9913   -7.3516   -6.2149 C   0  0  0  0  0  0  0  0  0  0  0  0
    9.6922   -7.7936   -6.4348 C   0  0  0  0  0  0  0  0  0  0  0  0
    8.6227   -7.0323   -5.9457 C   0  0  0  0  0  0  0  0  0  0  0  0
    7.2689   -7.4976   -6.1443 N   0  0  0  0  0  0  0  0  0  0  0  0
    6.4813   -6.8284   -7.1039 C   0  0  0  0  0  0  0  0  0  0  0  0
    6.9282   -5.8981   -7.7438 O   0  0  0  0  0  0  0  0  0  0  0  0
    5.0898   -7.3238   -7.2833 C   0  0  0  0  0  0  0  0  0  0  0  0
    4.2670   -6.7037   -8.2117 C   0  0  0  0  0  0  0  0  0  0  0  0
    2.9514   -7.1464   -8.4031 C   0  0  0  0  0  0  0  0  0  0  0  0
    2.4180   -8.2162   -7.6772 C   0  0  0  0  0  0  0  0  0  0  0  0
    1.0367   -8.6876   -7.8714 C   0  0  0  0  0  0  0  0  0  0  0  0
    0.1687   -8.0965   -8.7951 C   0  0  0  0  0  0  0  0  0  0  0  0
   -1.1445   -8.5512   -8.9740 C   0  0  0  0  0  0  0  0  0  0  0  0
   -1.6278   -9.6162   -8.2287 C   0  0  0  0  0  0  0  0  0  0  0  0
   -0.7854  -10.2477   -7.2783 C   0  0  0  0  0  0  0  0  0  0  0  0
   -1.2825  -11.3347   -6.5146 C   0  0  0  0  0  0  0  0  0  0  0  0
   -0.4603  -11.9530   -5.5846 C   0  0  0  0  0  0  0  0  0  0  0  0
    0.8562  -11.5122   -5.3955 C   0  0  0  0  0  0  0  0  0  0  0  0
    1.3906  -10.4447   -6.1242 C   0  0  0  0  0  0  0  0  0  0  0  0
    2.7727   -9.9749   -5.9317 C   0  0  0  0  0  0  0  0  0  0  0  0
    3.6420  -10.5678   -5.0104 C   0  0  0  0  0  0  0  0  0  0  0  0
    4.9560  -10.1147   -4.8337 C   0  0  0  0  0  0  0  0  0  0  0  0
    5.4388   -9.0486   -5.5780 C   0  0  0  0  0  0  0  0  0  0  0  0
    4.5942   -8.4142   -6.5242 C   0  0  0  0  0  0  0  0  0  0  0  0
    3.2504   -8.8722   -6.7126 C   0  0  0  0  0  0  0  0  0  0  0  0
    6.8389   -8.5921   -5.3661 C   0  0  0  0  0  0  0  0  0  0  0  0
    7.5824   -9.1253   -4.5667 O   0  0  0  0  0  0  0  0  0  0  0  0
    0.5585   -9.7896   -7.0898 C   0  0  0  0  0  0  0  0  0  0  0  0
   -2.6756  -11.8268   -6.6914 C   0  0  0  0  0  0  0  0  0  0  0  0
   -3.1297  -12.7481   -6.0431 O   0  0  0  0  0  0  0  0  0  0  0  0
   -3.4560  -11.1659   -7.6608 N   0  0  0  0  0  0  0  0  0  0  0  0
   -4.8093  -11.6351   -7.8569 C   0  0  0  0  0  0  0  0  0  0  0  0
   -5.0771  -12.5722   -8.8603 C   0  0  0  0  0  0  0  0  0  0  0  0
   -6.3786  -13.0390   -9.0578 C   0  0  0  0  0  0  0  0  0  0  0  0
   -7.4054  -12.5590   -8.2378 C   0  0  0  0  0  0  0  0  0  0  0  0
   -7.1298  -11.6122   -7.2269 C   0  0  0  0  0  0  0  0  0  0  0  0
   -5.8339  -11.1476   -7.0359 C   0  0  0  0  0  0  0  0  0  0  0  0
   -8.3998  -11.2387   -6.4624 C   0  0  1  0  0  0  0  0  0  0  0  0
   -8.2921  -11.5932   -4.9512 C   0  0  0  0  0  0  0  0  0  0  0  0
   -7.9314  -13.0423   -4.6132 C   0  0  0  0  0  0  0  0  0  0  0  0
   -7.8725  -13.3058   -3.1047 C   0  0  0  0  0  0  0  0  0  0  0  0
   -7.5019  -14.7477   -2.7452 C   0  0  0  0  0  0  0  0  0  0  0  0
   -7.4396  -15.0154   -1.2386 C   0  0  0  0  0  0  0  0  0  0  0  0
   -7.0704  -16.4575   -0.8785 C   0  0  0  0  0  0  0  0  0  0  0  0
   -7.0072  -16.7253    0.6282 C   0  0  0  0  0  0  0  0  0  0  0  0
   -6.6384  -18.1672    0.9889 C   0  0  0  0  0  0  0  0  0  0  0  0
   -6.5751  -18.4353    2.4958 C   0  0  0  0  0  0  0  0  0  0  0  0
   -6.2063  -19.8774    2.8471 C   0  0  0  0  0  0  0  0  0  0  0  0
   -8.7240   -9.7218   -6.5849 C   0  0  0  0  0  0  0  0  0  0  0  0
   -8.8565   -9.1632   -8.0042 C   0  0  0  0  0  0  0  0  0  0  0  0
   -9.1787   -7.6652   -8.0284 C   0  0  0  0  0  0  0  0  0  0  0  0
   -9.3154   -7.0871   -9.4401 C   0  0  0  0  0  0  0  0  0  0  0  0
   -9.6340   -5.5893   -9.4692 C   0  0  0  0  0  0  0  0  0  0  0  0
   -9.7731   -5.0113  -10.8807 C   0  0  0  0  0  0  0  0  0  0  0  0
  -10.0902   -3.5132  -10.9104 C   0  0  0  0  0  0  0  0  0  0  0  0
  -10.2305   -2.9350  -12.3215 C   0  0  0  0  0  0  0  0  0  0  0  0
  -10.5472   -1.4365  -12.3517 C   0  0  0  0  0  0  0  0  0  0  0  0
  -10.6861   -0.8674  -13.7644 C   0  0  0  0  0  0  0  0  0  0  0  0
   -9.4383  -12.1059   -7.1774 C   0  0  0  0  0  0  0  0  0  0  0  0
  -10.8036  -12.1946   -6.9333 C   0  0  0  0  0  0  0  0  0  0  0  0
  -11.5982  -13.0633   -7.7115 C   0  0  0  0  0  0  0  0  0  0  0  0
  -12.9918  -13.1711   -7.4677 N   0  0  0  0  0  0  0  0  0  0  0  0
  -13.4782  -13.2037   -6.1336 C   0  0  0  0  0  0  0  0  0  0  0  0
  -14.6179  -12.4639   -5.7679 C   0  0  0  0  0  0  0  0  0  0  0  0
  -15.0965  -12.5052   -4.4573 C   0  0  0  0  0  0  0  0  0  0  0  0
  -14.4428  -13.2680   -3.4842 C   0  0  0  0  0  0  0  0  0  0  0  0
  -13.3052  -13.9993   -3.8412 C   0  0  0  0  0  0  0  0  0  0  0  0
  -12.8293  -13.9771   -5.1532 C   0  0  0  0  0  0  0  0  0  0  0  0
  -13.9031  -13.2434   -8.5544 C   0  0  0  0  0  0  0  0  0  0  0  0
  -14.9910  -14.1355   -8.5184 C   0  0  0  0  0  0  0  0  0  0  0  0
  -15.8899  -14.1974   -9.5843 C   0  0  0  0  0  0  0  0  0  0  0  0
  -15.7154  -13.3875  -10.7110 C   0  0  0  0  0  0  0  0  0  0  0  0
  -14.6310  -12.5051  -10.7551 C   0  0  0  0  0  0  0  0  0  0  0  0
  -13.7365  -12.4244   -9.6867 C   0  0  0  0  0  0  0  0  0  0  0  0
  -10.9914  -13.8238   -8.7328 C   0  0  0  0  0  0  0  0  0  0  0  0
   -9.6237  -13.7207   -8.9875 C   0  0  0  0  0  0  0  0  0  0  0  0
   -8.8404  -12.8632   -8.2073 C   0  0  0  0  0  0  0  0  0  0  0  0
   -3.0268  -10.0754   -8.4433 C   0  0  0  0  0  0  0  0  0  0  0  0
   -3.7709   -9.5493   -9.2461 O   0  0  0  0  0  0  0  0  0  0  0  0
    8.8498   -5.8358   -5.2567 C   0  0  0  0  0  0  0  0  0  0  0  0
   10.1536   -5.3829   -5.0435 C   0  0  0  0  0  0  0  0  0  0  0  0
   11.2257   -6.1457   -5.5187 C   0  0  0  0  0  0  0  0  0  0  0  0
   12.6752   -5.9372   -5.4302 C   0  0  0  0  0  0  0  0  0  0  0  0
   13.4313   -4.9096   -4.8557 C   0  0  0  0  0  0  0  0  0  0  0  0
   14.8241   -4.9693   -4.9095 C   0  0  0  0  0  0  0  0  0  0  0  0
   15.4797   -6.0418   -5.5491 C   0  0  0  0  0  0  0  0  0  0  0  0
   16.8970   -6.0872   -5.6035 N   0  0  0  0  0  0  0  0  0  0  0  0
   17.6387   -4.9074   -5.8756 C   0  0  0  0  0  0  0  0  0  0  0  0
   18.8213   -4.6250   -5.1666 C   0  0  0  0  0  0  0  0  0  0  0  0
   19.5523   -3.4687   -5.4434 C   0  0  0  0  0  0  0  0  0  0  0  0
   19.1138   -2.5645   -6.4161 C   0  0  0  0  0  0  0  0  0  0  0  0
   17.9348   -2.8366   -7.1176 C   0  0  0  0  0  0  0  0  0  0  0  0
   17.2061   -3.9986   -6.8593 C   0  0  0  0  0  0  0  0  0  0  0  0
   17.5753   -7.3164   -5.3884 C   0  0  0  0  0  0  0  0  0  0  0  0
   18.6611   -7.6886   -6.2024 C   0  0  0  0  0  0  0  0  0  0  0  0
   19.3285   -8.8946   -5.9821 C   0  0  0  0  0  0  0  0  0  0  0  0
   18.9193   -9.7588   -4.9614 C   0  0  0  0  0  0  0  0  0  0  0  0
   17.8359   -9.3966   -4.1543 C   0  0  0  0  0  0  0  0  0  0  0  0
   17.1733   -8.1849   -4.3566 C   0  0  0  0  0  0  0  0  0  0  0  0
   14.7109   -7.0708   -6.1335 C   0  0  0  0  0  0  0  0  0  0  0  0
   13.3239   -7.0183   -6.0645 C   0  0  0  0  0  0  0  0  0  0  0  0
   12.3228   -2.9606  -19.4678 H   0  0  0  0  0  0  0  0  0  0  0  0
   13.0191   -2.0175  -18.1302 H   0  0  0  0  0  0  0  0  0  0  0  0
   11.2618   -2.2622  -18.2227 H   0  0  0  0  0  0  0  0  0  0  0  0
   13.3395   -4.5094  -17.7728 H   0  0  0  0  0  0  0  0  0  0  0  0
   11.5972   -4.7519  -17.8648 H   0  0  0  0  0  0  0  0  0  0  0  0
   11.2871   -3.3004  -15.8260 H   0  0  0  0  0  0  0  0  0  0  0  0
   13.0303   -3.0583  -15.7338 H   0  0  0  0  0  0  0  0  0  0  0  0
   13.3584   -5.5411  -15.4220 H   0  0  0  0  0  0  0  0  0  0  0  0
   11.6154   -5.7831  -15.5147 H   0  0  0  0  0  0  0  0  0  0  0  0
   11.3056   -4.3318  -13.4734 H   0  0  0  0  0  0  0  0  0  0  0  0
   13.0486   -4.0910  -13.3803 H   0  0  0  0  0  0  0  0  0  0  0  0
   13.3750   -6.5738  -13.0701 H   0  0  0  0  0  0  0  0  0  0  0  0
   11.6318   -6.8145  -13.1646 H   0  0  0  0  0  0  0  0  0  0  0  0
   11.3207   -5.3642  -11.1226 H   0  0  0  0  0  0  0  0  0  0  0  0
   13.0636   -5.1245  -11.0276 H   0  0  0  0  0  0  0  0  0  0  0  0
   13.3884   -7.6070  -10.7185 H   0  0  0  0  0  0  0  0  0  0  0  0
   11.6451   -7.8468  -10.8173 H   0  0  0  0  0  0  0  0  0  0  0  0
   11.3284   -6.3966   -8.7787 H   0  0  0  0  0  0  0  0  0  0  0  0
   13.0727   -6.1577   -8.6780 H   0  0  0  0  0  0  0  0  0  0  0  0
   13.3974   -8.6426   -8.3890 H   0  0  0  0  0  0  0  0  0  0  0  0
   11.6578   -8.8843   -8.4997 H   0  0  0  0  0  0  0  0  0  0  0  0
   13.4583   -9.8159   -6.2762 H   0  0  0  0  0  0  0  0  0  0  0  0
   11.7301  -10.0982   -6.4609 H   0  0  0  0  0  0  0  0  0  0  0  0
   11.3043   -9.1626   -4.1768 H   0  0  0  0  0  0  0  0  0  0  0  0
   13.0244   -8.8172   -3.9810 H   0  0  0  0  0  0  0  0  0  0  0  0
   13.5440  -11.2721   -4.2005 H   0  0  0  0  0  0  0  0  0  0  0  0
   11.8286  -11.6189   -4.4139 H   0  0  0  0  0  0  0  0  0  0  0  0
   11.3514  -10.6825   -2.1238 H   0  0  0  0  0  0  0  0  0  0  0  0
   13.0650  -10.3346   -1.9063 H   0  0  0  0  0  0  0  0  0  0  0  0
   13.5926  -12.7931   -2.1315 H   0  0  0  0  0  0  0  0  0  0  0  0
   11.8786  -13.1399   -2.3481 H   0  0  0  0  0  0  0  0  0  0  0  0
   11.3991  -12.2038   -0.0550 H   0  0  0  0  0  0  0  0  0  0  0  0
   13.1128  -11.8569    0.1624 H   0  0  0  0  0  0  0  0  0  0  0  0
   13.6392  -14.3147   -0.0629 H   0  0  0  0  0  0  0  0  0  0  0  0
   11.9253  -14.6616   -0.2804 H   0  0  0  0  0  0  0  0  0  0  0  0
   11.4448  -13.7267    2.0139 H   0  0  0  0  0  0  0  0  0  0  0  0
   13.1588  -13.3796    2.2315 H   0  0  0  0  0  0  0  0  0  0  0  0
   13.6846  -15.8355    2.0048 H   0  0  0  0  0  0  0  0  0  0  0  0
   11.9715  -16.1825    1.7871 H   0  0  0  0  0  0  0  0  0  0  0  0
   13.2145  -14.9345    4.3300 H   0  0  0  0  0  0  0  0  0  0  0  0
   12.6633  -16.6171    4.1614 H   0  0  0  0  0  0  0  0  0  0  0  0
   11.4866  -15.2844    4.1105 H   0  0  0  0  0  0  0  0  0  0  0  0
    9.4904   -8.7257   -6.9672 H   0  0  0  0  0  0  0  0  0  0  0  0
    4.6674   -5.8665   -8.7861 H   0  0  0  0  0  0  0  0  0  0  0  0
    2.3416   -6.6291   -9.1432 H   0  0  0  0  0  0  0  0  0  0  0  0
    0.5053   -7.2570   -9.4026 H   0  0  0  0  0  0  0  0  0  0  0  0
   -1.8090   -8.0789   -9.6997 H   0  0  0  0  0  0  0  0  0  0  0  0
   -0.8622  -12.7872   -5.0068 H   0  0  0  0  0  0  0  0  0  0  0  0
    1.4657  -12.0283   -4.6544 H   0  0  0  0  0  0  0  0  0  0  0  0
    3.3061  -11.4080   -4.4035 H   0  0  0  0  0  0  0  0  0  0  0  0
    5.6217  -10.5895   -4.1107 H   0  0  0  0  0  0  0  0  0  0  0  0
   -4.2589  -12.9339   -9.4864 H   0  0  0  0  0  0  0  0  0  0  0  0
   -6.5823  -13.7703   -9.8437 H   0  0  0  0  0  0  0  0  0  0  0  0
   -5.5983  -10.4162   -6.2593 H   0  0  0  0  0  0  0  0  0  0  0  0
   -9.2543  -11.3346   -4.4739 H   0  0  0  0  0  0  0  0  0  0  0  0
   -7.5437  -10.9190   -4.4970 H   0  0  0  0  0  0  0  0  0  0  0  0
   -6.9563  -13.2963   -5.0632 H   0  0  0  0  0  0  0  0  0  0  0  0
   -8.6678  -13.7249   -5.0720 H   0  0  0  0  0  0  0  0  0  0  0  0
   -8.8491  -13.0557   -2.6491 H   0  0  0  0  0  0  0  0  0  0  0  0
   -7.1416  -12.6171   -2.6409 H   0  0  0  0  0  0  0  0  0  0  0  0
   -6.5260  -14.9965   -3.2014 H   0  0  0  0  0  0  0  0  0  0  0  0
   -8.2317  -15.4378   -3.2086 H   0  0  0  0  0  0  0  0  0  0  0  0
   -8.4155  -14.7642   -0.7821 H   0  0  0  0  0  0  0  0  0  0  0  0
   -6.7088  -14.3260   -0.7760 H   0  0  0  0  0  0  0  0  0  0  0  0
   -6.0948  -16.7084   -1.3349 H   0  0  0  0  0  0  0  0  0  0  0  0
   -7.8011  -17.1472   -1.3410 H   0  0  0  0  0  0  0  0  0  0  0  0
   -7.9830  -16.4737    1.0845 H   0  0  0  0  0  0  0  0  0  0  0  0
   -6.2762  -16.0357    1.0904 H   0  0  0  0  0  0  0  0  0  0  0  0
   -5.6623  -18.4192    0.5332 H   0  0  0  0  0  0  0  0  0  0  0  0
   -7.3692  -18.8574    0.5270 H   0  0  0  0  0  0  0  0  0  0  0  0
   -7.5508  -18.1830    2.9501 H   0  0  0  0  0  0  0  0  0  0  0  0
   -5.8447  -17.7451    2.9563 H   0  0  0  0  0  0  0  0  0  0  0  0
   -6.9388  -20.5909    2.4334 H   0  0  0  0  0  0  0  0  0  0  0  0
   -6.1701  -20.0335    3.9373 H   0  0  0  0  0  0  0  0  0  0  0  0
   -5.2180  -20.1492    2.4394 H   0  0  0  0  0  0  0  0  0  0  0  0
   -7.9365   -9.1630   -6.0479 H   0  0  0  0  0  0  0  0  0  0  0  0
   -9.6579   -9.5285   -6.0269 H   0  0  0  0  0  0  0  0  0  0  0  0
   -9.6453   -9.7125   -8.5470 H   0  0  0  0  0  0  0  0  0  0  0  0
   -7.9209   -9.3414   -8.5617 H   0  0  0  0  0  0  0  0  0  0  0  0
   -8.3903   -7.1120   -7.4843 H   0  0  0  0  0  0  0  0  0  0  0  0
  -10.1139   -7.4807   -7.4669 H   0  0  0  0  0  0  0  0  0  0  0  0
  -10.1047   -7.6386   -9.9843 H   0  0  0  0  0  0  0  0  0  0  0  0
   -8.3810   -7.2731  -10.0011 H   0  0  0  0  0  0  0  0  0  0  0  0
   -8.8437   -5.0380   -8.9261 H   0  0  0  0  0  0  0  0  0  0  0  0
  -10.5676   -5.4035   -8.9057 H   0  0  0  0  0  0  0  0  0  0  0  0
  -10.5638   -5.5621  -11.4237 H   0  0  0  0  0  0  0  0  0  0  0  0
   -8.8400   -5.1980  -11.4443 H   0  0  0  0  0  0  0  0  0  0  0  0
   -9.2990   -2.9625  -10.3680 H   0  0  0  0  0  0  0  0  0  0  0  0
  -11.0229   -3.3268  -10.3458 H   0  0  0  0  0  0  0  0  0  0  0  0
  -11.0221   -3.4851  -12.8644 H   0  0  0  0  0  0  0  0  0  0  0  0
   -9.2979   -3.1212  -12.8868 H   0  0  0  0  0  0  0  0  0  0  0  0
   -9.7557   -0.8878  -11.8091 H   0  0  0  0  0  0  0  0  0  0  0  0
  -11.4790   -1.2516  -11.7863 H   0  0  0  0  0  0  0  0  0  0  0  0
   -9.7573   -1.0020  -14.3442 H   0  0  0  0  0  0  0  0  0  0  0  0
  -10.9136    0.2106  -13.7476 H   0  0  0  0  0  0  0  0  0  0  0  0
  -11.4955   -1.3692  -14.3212 H   0  0  0  0  0  0  0  0  0  0  0  0
  -11.2740  -11.6001   -6.1473 H   0  0  0  0  0  0  0  0  0  0  0  0
  -15.1260  -11.8558   -6.5186 H   0  0  0  0  0  0  0  0  0  0  0  0
  -15.9833  -11.9232   -4.1924 H   0  0  0  0  0  0  0  0  0  0  0  0
  -14.8165  -13.2929   -2.4579 H   0  0  0  0  0  0  0  0  0  0  0  0
  -12.7881  -14.6072   -3.0940 H   0  0  0  0  0  0  0  0  0  0  0  0
  -11.9495  -14.5620   -5.4280 H   0  0  0  0  0  0  0  0  0  0  0  0
  -15.1266  -14.7810   -7.6486 H   0  0  0  0  0  0  0  0  0  0  0  0
  -16.7284  -14.8973   -9.5375 H   0  0  0  0  0  0  0  0  0  0  0  0
  -16.4172  -13.4434  -11.5465 H   0  0  0  0  0  0  0  0  0  0  0  0
  -14.4847  -11.8603  -11.6257 H   0  0  0  0  0  0  0  0  0  0  0  0
  -12.9004  -11.7236   -9.7236 H   0  0  0  0  0  0  0  0  0  0  0  0
  -11.6061  -14.5019   -9.3272 H   0  0  0  0  0  0  0  0  0  0  0  0
   -9.1757  -14.3211   -9.7835 H   0  0  0  0  0  0  0  0  0  0  0  0
    7.9987   -5.2595   -4.8891 H   0  0  0  0  0  0  0  0  0  0  0  0
   10.3241   -4.4468   -4.5062 H   0  0  0  0  0  0  0  0  0  0  0  0
   12.9454   -4.0692   -4.3532 H   0  0  0  0  0  0  0  0  0  0  0  0
   15.4210   -4.1793   -4.4505 H   0  0  0  0  0  0  0  0  0  0  0  0
   19.1634   -5.3184   -4.3962 H   0  0  0  0  0  0  0  0  0  0  0  0
   20.4681   -3.2670   -4.8813 H   0  0  0  0  0  0  0  0  0  0  0  0
   19.6850   -1.6570   -6.6254 H   0  0  0  0  0  0  0  0  0  0  0  0
   17.5822   -2.1434   -7.8860 H   0  0  0  0  0  0  0  0  0  0  0  0
   16.2941   -4.2097   -7.4206 H   0  0  0  0  0  0  0  0  0  0  0  0
   18.9782   -7.0256   -7.0096 H   0  0  0  0  0  0  0  0  0  0  0  0
   20.1696   -9.1665   -6.6254 H   0  0  0  0  0  0  0  0  0  0  0  0
   19.4400  -10.7050   -4.7961 H   0  0  0  0  0  0  0  0  0  0  0  0
   17.5094  -10.0574   -3.3469 H   0  0  0  0  0  0  0  0  0  0  0  0
   16.3379   -7.9019   -3.7134 H   0  0  0  0  0  0  0  0  0  0  0  0
   15.2179   -7.8977   -6.6353 H   0  0  0  0  0  0  0  0  0  0  0  0
  1  2  1  0
  1123  1  0
  1124  1  0
  1125  1  0
  2  3  1  0
  2126  1  0
  2127  1  0
  3  4  1  0
  3128  1  0
  3129  1  0
  4  5  1  0
  4130  1  0
  4131  1  0
  5  6  1  0
  5132  1  0
  5133  1  0
  6  7  1  0
  6134  1  0
  6135  1  0
  7  8  1  0
  7136  1  0
  7137  1  0
  8  9  1  0
  8138  1  0
  8139  1  0
  9 10  1  0
  9140  1  0
  9141  1  0
 11 10  1  6
 10142  1  0
 10143  1  0
 11 12  1  0
 11 22  1  0
 11122  1  0
 12 13  1  0
 12144  1  0
 12145  1  0
 13 14  1  0
 13146  1  0
 13147  1  0
 14 15  1  0
 14148  1  0
 14149  1  0
 15 16  1  0
 15150  1  0
 15151  1  0
 16 17  1  0
 16152  1  0
 16153  1  0
 17 18  1  0
 17154  1  0
 17155  1  0
 18 19  1  0
 18156  1  0
 18157  1  0
 19 20  1  0
 19158  1  0
 19159  1  0
 20 21  1  0
 20160  1  0
 20161  1  0
 21162  1  0
 21163  1  0
 21164  1  0
 22 23  2  0
 22103  1  0
 23 24  1  0
 23165  1  0
 24 25  1  0
 24101  2  0
 25 26  1  0
 25 47  1  0
 26 27  2  0
 26 28  1  0
 28 29  2  0
 28 45  1  0
 29 30  1  0
 29166  1  0
 30 31  2  0
 30167  1  0
 31 32  1  0
 31 46  1  0
 32 33  2  0
 32 49  1  0
 33 34  1  0
 33168  1  0
 34 35  2  0
 34169  1  0
 35 36  1  0
 35 99  1  0
 36 37  1  0
 36 49  2  0
 37 38  2  0
 37 50  1  0
 38 39  1  0
 38170  1  0
 39 40  2  0
 39171  1  0
 40 41  1  0
 40 49  1  0
 41 42  1  0
 41 46  2  0
 42 43  2  0
 42172  1  0
 43 44  1  0
 43173  1  0
 44 45  2  0
 44 47  1  0
 45 46  1  0
 47 48  2  0
 50 51  2  0
 50 52  1  0
 52 53  1  0
 52 99  1  0
 53 54  2  0
 53 58  1  0
 54 55  1  0
 54174  1  0
 55 56  2  0
 55175  1  0
 56 57  1  0
 56 98  1  0
 57 58  2  0
 57 59  1  0
 58176  1  0
 59 60  1  1
 59 70  1  0
 59 80  1  0
 60 61  1  0
 60177  1  0
 60178  1  0
 61 62  1  0
 61179  1  0
 61180  1  0
 62 63  1  0
 62181  1  0
 62182  1  0
 63 64  1  0
 63183  1  0
 63184  1  0
 64 65  1  0
 64185  1  0
 64186  1  0
 65 66  1  0
 65187  1  0
 65188  1  0
 66 67  1  0
 66189  1  0
 66190  1  0
 67 68  1  0
 67191  1  0
 67192  1  0
 68 69  1  0
 68193  1  0
 68194  1  0
 69195  1  0
 69196  1  0
 69197  1  0
 70 71  1  0
 70198  1  0
 70199  1  0
 71 72  1  0
 71200  1  0
 71201  1  0
 72 73  1  0
 72202  1  0
 72203  1  0
 73 74  1  0
 73204  1  0
 73205  1  0
 74 75  1  0
 74206  1  0
 74207  1  0
 75 76  1  0
 75208  1  0
 75209  1  0
 76 77  1  0
 76210  1  0
 76211  1  0
 77 78  1  0
 77212  1  0
 77213  1  0
 78 79  1  0
 78214  1  0
 78215  1  0
 79216  1  0
 79217  1  0
 79218  1  0
 80 81  1  0
 80 98  2  0
 81 82  2  0
 81219  1  0
 82 83  1  0
 82 96  1  0
 83 84  1  0
 83 90  1  0
 84 85  2  0
 84 89  1  0
 85 86  1  0
 85220  1  0
 86 87  2  0
 86221  1  0
 87 88  1  0
 87222  1  0
 88 89  2  0
 88223  1  0
 89224  1  0
 90 91  2  0
 90 95  1  0
 91 92  1  0
 91225  1  0
 92 93  2  0
 92226  1  0
 93 94  1  0
 93227  1  0
 94 95  2  0
 94228  1  0
 95229  1  0
 96 97  2  0
 96230  1  0
 97 98  1  0
 97231  1  0
 99100  2  0
101102  1  0
101232  1  0
102103  2  0
102233  1  0
103104  1  0
104105  2  0
104122  1  0
105106  1  0
105234  1  0
106107  2  0
106235  1  0
107108  1  0
107121  1  0
108109  1  0
108115  1  0
109110  2  0
109114  1  0
110111  1  0
110236  1  0
111112  2  0
111237  1  0
112113  1  0
112238  1  0
113114  2  0
113239  1  0
114240  1  0
115116  2  0
115120  1  0
116117  1  0
116241  1  0
117118  2  0
117242  1  0
118119  1  0
118243  1  0
119120  2  0
119244  1  0
120245  1  0
121122  2  0
121246  1  0
M  END

