
     RDKit          3D

 37 39  0  0  0  0  0  0  0  0999 V2000
    0.9383    0.1919    0.3386 C   0  0  0  0  0  0  0  0  0  0  0  0
    2.3856    0.0926   -0.0761 C   0  0  0  0  0  0  0  0  0  0  0  0
    3.1438    1.2604   -0.2376 C   0  0  0  0  0  0  0  0  0  0  0  0
    4.4924    1.2467   -0.6194 C   0  0  0  0  0  0  0  0  0  0  0  0
    5.2753    2.5393   -0.7348 C   0  0  0  0  0  0  0  0  0  0  0  0
    6.2783    2.4907   -1.7877 N   0  0  0  0  0  0  0  0  0  0  0  0
    7.1257    3.6448   -1.8756 C   0  0  1  0  0  0  0  0  0  0  0  0
    7.6518    4.0915   -3.2049 C   0  0  0  0  0  0  0  0  0  0  0  0
    6.6622    4.9665   -2.4641 C   0  0  0  0  0  0  0  0  0  0  0  0
    5.0981    0.0081   -0.8642 C   0  0  0  0  0  0  0  0  0  0  0  0
    4.3636   -1.1680   -0.7180 C   0  0  0  0  0  0  0  0  0  0  0  0
    3.0151   -1.1556   -0.3173 C   0  0  0  0  0  0  0  0  0  0  0  0
    2.2682   -2.4267   -0.1971 C   0  0  0  0  0  0  0  0  0  0  0  0
    1.0695   -2.6582   -0.7084 N   0  0  0  0  0  0  0  0  0  0  0  0
    0.7684   -3.9569   -0.4129 C   0  0  0  0  0  0  0  0  0  0  0  0
    1.7954   -4.5334    0.2996 C   0  0  0  0  0  0  0  0  0  0  0  0
    2.7546   -3.5530    0.4415 N   0  0  0  0  0  0  0  0  0  0  0  0
    3.9860   -3.7087    1.1955 C   0  0  0  0  0  0  0  0  0  0  0  0
    0.6635    1.2347    0.5557 H   0  0  0  0  0  0  0  0  0  0  0  0
    0.7347   -0.4140    1.2365 H   0  0  0  0  0  0  0  0  0  0  0  0
    0.2762   -0.2027   -0.4454 H   0  0  0  0  0  0  0  0  0  0  0  0
    2.6571    2.2239   -0.0555 H   0  0  0  0  0  0  0  0  0  0  0  0
    5.8077    2.7239    0.2183 H   0  0  0  0  0  0  0  0  0  0  0  0
    4.5644    3.3875   -0.8427 H   0  0  0  0  0  0  0  0  0  0  0  0
    5.8451    2.2792   -2.6852 H   0  0  0  0  0  0  0  0  0  0  0  0
    7.8202    3.7196   -1.0287 H   0  0  0  0  0  0  0  0  0  0  0  0
    7.2966    3.5628   -4.0960 H   0  0  0  0  0  0  0  0  0  0  0  0
    8.6948    4.4134   -3.2732 H   0  0  0  0  0  0  0  0  0  0  0  0
    5.6413    5.0138   -2.8568 H   0  0  0  0  0  0  0  0  0  0  0  0
    7.0180    5.9014   -2.0201 H   0  0  0  0  0  0  0  0  0  0  0  0
    6.1405   -0.0205   -1.1874 H   0  0  0  0  0  0  0  0  0  0  0  0
    4.8430   -2.1220   -0.9498 H   0  0  0  0  0  0  0  0  0  0  0  0
   -0.1706   -4.4153   -0.7222 H   0  0  0  0  0  0  0  0  0  0  0  0
    1.9250   -5.5268    0.7231 H   0  0  0  0  0  0  0  0  0  0  0  0
    3.8008   -4.3495    2.0700 H   0  0  0  0  0  0  0  0  0  0  0  0
    4.3354   -2.7298    1.5466 H   0  0  0  0  0  0  0  0  0  0  0  0
    4.7834   -4.1677    0.5881 H   0  0  0  0  0  0  0  0  0  0  0  0
  1  2  1  0
  1 19  1  0
  1 20  1  0
  1 21  1  0
  2  3  2  0
  2 12  1  0
  3  4  1  0
  3 22  1  0
  4  5  1  0
  4 10  2  0
  5  6  1  0
  5 23  1  0
  5 24  1  0
  6  7  1  0
  6 25  1  0
  7  8  1  0
  7  9  1  0
  7 26  1  1
  8  9  1  0
  8 27  1  0
  8 28  1  0
  9 29  1  0
  9 30  1  0
 10 11  1  0
 10 31  1  0
 11 12  2  0
 11 32  1  0
 12 13  1  0
 13 14  2  0
 13 17  1  0
 14 15  1  0
 15 16  2  0
 15 33  1  0
 16 17  1  0
 16 34  1  0
 17 18  1  0
 18 35  1  0
 18 36  1  0
 18 37  1  0
M  END

