
     RDKit          3D

 46 49  0  0  0  0  0  0  0  0999 V2000
    3.0374   -1.1858   -3.0063 C   0  0  0  0  0  0  0  0  0  0  0  0
    2.6540   -0.4433   -1.7261 C   0  0  0  0  0  0  0  0  0  0  0  0
    3.2288   -1.0623   -0.4432 C   0  0  0  0  0  0  0  0  0  0  0  0
    4.6784   -1.1341   -0.4037 N   0  0  0  0  0  0  0  0  0  0  0  0
    5.3592   -2.3415   -0.4931 C   0  0  0  0  0  0  0  0  0  0  0  0
    4.8675   -3.4488   -0.5985 O   0  0  0  0  0  0  0  0  0  0  0  0
    6.7780   -1.9325   -0.4348 C   0  0  0  0  0  0  0  0  0  0  0  0
    8.0126   -2.4742   -0.4886 N   0  0  0  0  0  0  0  0  0  0  0  0
    8.2707   -3.4501   -0.5777 H   0  0  0  0  0  0  0  0  0  0  0  0
    8.9623   -1.5323   -0.4170 N   0  0  0  0  0  0  0  0  0  0  0  0
    8.3321   -0.3476   -0.3152 C   0  0  0  0  0  0  0  0  0  0  0  0
    9.1120    0.9004   -0.2365 C   0  0  0  0  0  0  0  0  0  0  0  0
   10.5178    0.8656   -0.2666 C   0  0  0  0  0  0  0  0  0  0  0  0
   11.2620    2.0418   -0.1981 C   0  0  0  0  0  0  0  0  0  0  0  0
   10.6410    3.2978   -0.0990 C   0  0  0  0  0  0  0  0  0  0  0  0
   11.4465    4.5730   -0.0499 C   0  0  0  0  0  0  0  0  0  0  0  0
    9.2382    3.3277   -0.0659 C   0  0  0  0  0  0  0  0  0  0  0  0
    8.4864    2.1545   -0.1341 C   0  0  0  0  0  0  0  0  0  0  0  0
    6.9223   -0.5707   -0.3195 C   0  0  0  0  0  0  0  0  0  0  0  0
    5.5473    0.0596   -0.2807 C   0  0  2  0  0  0  0  0  0  0  0  0
    5.2205    0.8748    0.9681 C   0  0  0  0  0  0  0  0  0  0  0  0
    5.4268    0.3414    2.2492 C   0  0  0  0  0  0  0  0  0  0  0  0
    5.1035    1.0883    3.3821 C   0  0  0  0  0  0  0  0  0  0  0  0
    4.5720    2.3770    3.2612 C   0  0  0  0  0  0  0  0  0  0  0  0
    4.3661    2.9027    1.9851 C   0  0  0  0  0  0  0  0  0  0  0  0
    3.7002    4.5103    1.8051 Cl  0  0  0  0  0  0  0  0  0  0  0  0
    4.6831    2.1611    0.8415 C   0  0  0  0  0  0  0  0  0  0  0  0
    2.5676   -0.7245   -3.8893 H   0  0  0  0  0  0  0  0  0  0  0  0
    2.7231   -2.2411   -2.9654 H   0  0  0  0  0  0  0  0  0  0  0  0
    4.1275   -1.1762   -3.1676 H   0  0  0  0  0  0  0  0  0  0  0  0
    1.5557   -0.4258   -1.6151 H   0  0  0  0  0  0  0  0  0  0  0  0
    2.9598    0.6162   -1.7980 H   0  0  0  0  0  0  0  0  0  0  0  0
    2.8773   -2.1000   -0.3367 H   0  0  0  0  0  0  0  0  0  0  0  0
    2.8693   -0.4979    0.4349 H   0  0  0  0  0  0  0  0  0  0  0  0
   11.0181   -0.1010   -0.3431 H   0  0  0  0  0  0  0  0  0  0  0  0
   12.3543    1.9843   -0.2211 H   0  0  0  0  0  0  0  0  0  0  0  0
   12.4996    4.3773    0.2017 H   0  0  0  0  0  0  0  0  0  0  0  0
   11.0430    5.2774    0.6951 H   0  0  0  0  0  0  0  0  0  0  0  0
   11.4314    5.0920   -1.0245 H   0  0  0  0  0  0  0  0  0  0  0  0
    8.7209    4.2880    0.0187 H   0  0  0  0  0  0  0  0  0  0  0  0
    7.3984    2.2217   -0.0947 H   0  0  0  0  0  0  0  0  0  0  0  0
    5.3982    0.7122   -1.1603 H   0  0  0  0  0  0  0  0  0  0  0  0
    5.8466   -0.6613    2.3566 H   0  0  0  0  0  0  0  0  0  0  0  0
    5.2698    0.6685    4.3773 H   0  0  0  0  0  0  0  0  0  0  0  0
    4.3198    2.9691    4.1423 H   0  0  0  0  0  0  0  0  0  0  0  0
    4.5079    2.5964   -0.1448 H   0  0  0  0  0  0  0  0  0  0  0  0
  1  2  1  0
  1 28  1  0
  1 29  1  0
  1 30  1  0
  2  3  1  0
  2 31  1  0
  2 32  1  0
  3  4  1  0
  3 33  1  0
  3 34  1  0
  4  5  1  0
  4 20  1  0
  5  6  2  0
  5  7  1  0
  7  8  1  0
  7 19  2  0
  8  9  1  0
  8 10  1  0
 10 11  2  0
 11 12  1  0
 11 19  1  0
 12 13  2  0
 12 18  1  0
 13 14  1  0
 13 35  1  0
 14 15  2  0
 14 36  1  0
 15 16  1  0
 15 17  1  0
 16 37  1  0
 16 38  1  0
 16 39  1  0
 17 18  2  0
 17 40  1  0
 18 41  1  0
 19 20  1  0
 20 21  1  0
 20 42  1  6
 21 22  2  0
 21 27  1  0
 22 23  1  0
 22 43  1  0
 23 24  2  0
 23 44  1  0
 24 25  1  0
 24 45  1  0
 25 26  1  0
 25 27  2  0
 27 46  1  0
M  END

