
     RDKit          3D

 88 93  0  0  0  0  0  0  0  0999 V2000
  -16.8041    7.3174   -0.7335 O   0  0  0  0  0  0  0  0  0  0  0  0
  -16.0905    7.6050    0.2081 C   0  0  0  0  0  0  0  0  0  0  0  0
  -15.6702    6.6342    1.0933 N   0  0  0  0  0  0  0  0  0  0  0  0
  -14.8499    6.7251    2.2504 C   0  0  0  0  0  0  0  0  0  0  0  0
  -15.2201    7.4964    3.3620 C   0  0  0  0  0  0  0  0  0  0  0  0
  -14.4012    7.5458    4.4889 C   0  0  0  0  0  0  0  0  0  0  0  0
  -13.2025    6.8074    4.5695 C   0  0  0  0  0  0  0  0  0  0  0  0
  -12.3918    6.8952    5.7872 C   0  0  0  0  0  0  0  0  0  0  0  0
  -11.2237    6.2607    6.0352 C   0  0  0  0  0  0  0  0  0  0  0  0
  -10.4087    6.3449    7.2487 C   0  0  0  0  0  0  0  0  0  0  0  0
  -10.7468    7.1308    8.3705 C   0  0  0  0  0  0  0  0  0  0  0  0
   -9.9461    7.1859    9.5066 C   0  0  0  0  0  0  0  0  0  0  0  0
   -8.7529    6.4385    9.5603 C   0  0  0  0  0  0  0  0  0  0  0  0
   -7.8893    6.4404   10.6716 N   0  0  0  0  0  0  0  0  0  0  0  0
   -8.0197    7.0965   11.8759 C   0  0  0  0  0  0  0  0  0  0  0  0
   -8.9304    7.8504   12.1580 O   0  0  0  0  0  0  0  0  0  0  0  0
   -6.9050    6.7391   12.8835 C   0  0  2  0  0  0  0  0  0  0  0  0
   -5.9856    6.4723   12.3369 H   0  0  0  0  0  0  0  0  0  0  0  0
   -7.3598    5.5764   13.8014 C   0  0  0  0  0  0  0  0  0  0  0  0
   -8.0775    6.3013   14.9485 C   0  0  0  0  0  0  0  0  0  0  0  0
   -7.2285    7.5595   15.1567 C   0  0  0  0  0  0  0  0  0  0  0  0
   -6.6524    7.8144   13.8298 N   0  0  0  0  0  0  0  0  0  0  0  0
   -5.9556    8.9696   13.6011 C   0  0  0  0  0  0  0  0  0  0  0  0
   -5.7633    9.7784   14.4966 O   0  0  0  0  0  0  0  0  0  0  0  0
   -5.3842    9.1913   12.1974 C   0  0  0  0  0  0  0  0  0  0  0  0
   -4.0779    8.4514   11.9632 C   0  0  0  0  0  0  0  0  0  0  0  0
   -3.8698    7.7012   10.7953 C   0  0  0  0  0  0  0  0  0  0  0  0
   -2.6576    7.0386   10.5724 C   0  0  0  0  0  0  0  0  0  0  0  0
   -1.6338    7.1154   11.5196 C   0  0  0  0  0  0  0  0  0  0  0  0
   -1.8298    7.8608   12.6876 C   0  0  0  0  0  0  0  0  0  0  0  0
   -3.0393    8.5233   12.9077 C   0  0  0  0  0  0  0  0  0  0  0  0
   -8.3979    5.6494    8.4521 C   0  0  0  0  0  0  0  0  0  0  0  0
   -9.2102    5.6064    7.3241 C   0  0  0  0  0  0  0  0  0  0  0  0
  -12.8599    6.0120    3.4544 C   0  0  0  0  0  0  0  0  0  0  0  0
  -13.6613    5.9771    2.3182 C   0  0  0  0  0  0  0  0  0  0  0  0
  -15.5520    9.0321    0.4201 C   0  0  1  0  0  0  0  0  0  0  0  0
  -14.0885    9.1222   -0.1035 C   0  0  0  0  0  0  0  0  0  0  0  0
  -14.0082   10.5075   -0.7565 C   0  0  0  0  0  0  0  0  0  0  0  0
  -15.4025   10.6803   -1.3577 C   0  0  0  0  0  0  0  0  0  0  0  0
  -16.2678   10.0292   -0.3703 N   0  0  0  0  0  0  0  0  0  0  0  0
  -17.5821   10.4091   -0.2637 C   0  0  0  0  0  0  0  0  0  0  0  0
  -18.0541   11.2627   -0.9957 O   0  0  0  0  0  0  0  0  0  0  0  0
  -18.4291    9.7824    0.8544 C   0  0  0  0  0  0  0  0  0  0  0  0
  -19.8408    9.4758    0.4032 C   0  0  0  0  0  0  0  0  0  0  0  0
  -20.1447    8.2384   -0.1864 C   0  0  0  0  0  0  0  0  0  0  0  0
  -21.4437    7.9577   -0.6187 C   0  0  0  0  0  0  0  0  0  0  0  0
  -22.4564    8.9108   -0.4726 C   0  0  0  0  0  0  0  0  0  0  0  0
  -22.1597   10.1492    0.1036 C   0  0  0  0  0  0  0  0  0  0  0  0
  -20.8603   10.4285    0.5356 C   0  0  0  0  0  0  0  0  0  0  0  0
  -15.9284    5.6995    0.7838 H   0  0  0  0  0  0  0  0  0  0  0  0
  -16.1653    8.0429    3.3515 H   0  0  0  0  0  0  0  0  0  0  0  0
  -14.7075    8.1568    5.3422 H   0  0  0  0  0  0  0  0  0  0  0  0
  -12.8055    7.5543    6.5572 H   0  0  0  0  0  0  0  0  0  0  0  0
  -10.8115    5.6021    5.2633 H   0  0  0  0  0  0  0  0  0  0  0  0
  -11.6644    7.7228    8.3629 H   0  0  0  0  0  0  0  0  0  0  0  0
  -10.2267    7.8012   10.3581 H   0  0  0  0  0  0  0  0  0  0  0  0
   -7.0631    5.8611   10.5702 H   0  0  0  0  0  0  0  0  0  0  0  0
   -6.4672    5.0469   14.1726 H   0  0  0  0  0  0  0  0  0  0  0  0
   -7.9902    4.8437   13.2754 H   0  0  0  0  0  0  0  0  0  0  0  0
   -8.1550    5.6879   15.8581 H   0  0  0  0  0  0  0  0  0  0  0  0
   -9.0945    6.5817   14.6360 H   0  0  0  0  0  0  0  0  0  0  0  0
   -6.4209    7.4041   15.8941 H   0  0  0  0  0  0  0  0  0  0  0  0
   -7.8082    8.4310   15.4934 H   0  0  0  0  0  0  0  0  0  0  0  0
   -5.2145   10.2766   12.1305 H   0  0  0  0  0  0  0  0  0  0  0  0
   -6.1131    8.9273   11.4171 H   0  0  0  0  0  0  0  0  0  0  0  0
   -4.6637    7.6466   10.0436 H   0  0  0  0  0  0  0  0  0  0  0  0
   -2.5130    6.4644    9.6533 H   0  0  0  0  0  0  0  0  0  0  0  0
   -0.6855    6.5997   11.3482 H   0  0  0  0  0  0  0  0  0  0  0  0
   -1.0326    7.9293   13.4324 H   0  0  0  0  0  0  0  0  0  0  0  0
   -3.1887    9.1085   13.8189 H   0  0  0  0  0  0  0  0  0  0  0  0
   -7.4749    5.0621    8.4762 H   0  0  0  0  0  0  0  0  0  0  0  0
   -8.9106    4.9841    6.4764 H   0  0  0  0  0  0  0  0  0  0  0  0
  -11.9454    5.4158    3.4681 H   0  0  0  0  0  0  0  0  0  0  0  0
  -13.3673    5.3672    1.4602 H   0  0  0  0  0  0  0  0  0  0  0  0
  -15.5799    9.2911    1.4893 H   0  0  0  0  0  0  0  0  0  0  0  0
  -13.9221    8.3436   -0.8653 H   0  0  0  0  0  0  0  0  0  0  0  0
  -13.3563    8.9629    0.7006 H   0  0  0  0  0  0  0  0  0  0  0  0
  -13.2046   10.5779   -1.5048 H   0  0  0  0  0  0  0  0  0  0  0  0
  -13.8282   11.2826    0.0068 H   0  0  0  0  0  0  0  0  0  0  0  0
  -15.4880   10.1793   -2.3399 H   0  0  0  0  0  0  0  0  0  0  0  0
  -15.7177   11.7232   -1.4927 H   0  0  0  0  0  0  0  0  0  0  0  0
  -18.4537   10.5322    1.6644 H   0  0  0  0  0  0  0  0  0  0  0  0
  -17.9686    8.8788    1.2731 H   0  0  0  0  0  0  0  0  0  0  0  0
  -19.3504    7.4998   -0.3232 H   0  0  0  0  0  0  0  0  0  0  0  0
  -21.6647    6.9894   -1.0759 H   0  0  0  0  0  0  0  0  0  0  0  0
  -23.4727    8.6904   -0.8100 H   0  0  0  0  0  0  0  0  0  0  0  0
  -22.9432   10.9035    0.2161 H   0  0  0  0  0  0  0  0  0  0  0  0
  -20.6316   11.4022    0.9767 H   0  0  0  0  0  0  0  0  0  0  0  0
  1  2  2  0
  2  3  1  0
  2 36  1  0
  3  4  1  0
  3 50  1  0
  4  5  2  0
  4 35  1  0
  5  6  1  0
  5 51  1  0
  6  7  2  0
  6 52  1  0
  7  8  1  0
  7 34  1  0
  8  9  2  0
  8 53  1  0
  9 10  1  0
  9 54  1  0
 10 11  2  0
 10 33  1  0
 11 12  1  0
 11 55  1  0
 12 13  2  0
 12 56  1  0
 13 14  1  0
 13 32  1  0
 14 15  1  0
 14 57  1  0
 15 16  2  0
 15 17  1  0
 17 18  1  6
 17 19  1  0
 17 22  1  0
 19 20  1  0
 19 58  1  0
 19 59  1  0
 20 21  1  0
 20 60  1  0
 20 61  1  0
 21 22  1  0
 21 62  1  0
 21 63  1  0
 22 23  1  0
 23 24  2  0
 23 25  1  0
 25 26  1  0
 25 64  1  0
 25 65  1  0
 26 27  2  0
 26 31  1  0
 27 28  1  0
 27 66  1  0
 28 29  2  0
 28 67  1  0
 29 30  1  0
 29 68  1  0
 30 31  2  0
 30 69  1  0
 31 70  1  0
 32 33  2  0
 32 71  1  0
 33 72  1  0
 34 35  2  0
 34 73  1  0
 35 74  1  0
 36 37  1  0
 36 40  1  0
 36 75  1  1
 37 38  1  0
 37 76  1  0
 37 77  1  0
 38 39  1  0
 38 78  1  0
 38 79  1  0
 39 40  1  0
 39 80  1  0
 39 81  1  0
 40 41  1  0
 41 42  2  0
 41 43  1  0
 43 44  1  0
 43 82  1  0
 43 83  1  0
 44 45  2  0
 44 49  1  0
 45 46  1  0
 45 84  1  0
 46 47  2  0
 46 85  1  0
 47 48  1  0
 47 86  1  0
 48 49  2  0
 48 87  1  0
 49 88  1  0
M  END

