
     RDKit          3D

 71 70  0  0  0  0  0  0  0  0999 V2000
    2.9216   -3.5142    0.9328 C   0  0  0  0  0  0  0  0  0  0  0  0
    3.9828   -2.5513    0.3940 C   0  0  0  0  0  0  0  0  0  0  0  0
    3.4291   -1.4129   -0.4855 C   0  0  1  0  0  0  0  0  0  0  0  0
    2.5394   -0.4382    0.2953 C   0  0  0  0  0  0  0  0  0  0  0  0
    4.5564   -0.6488   -1.2273 C   0  0  1  0  0  0  0  0  0  0  0  0
    5.5579    0.0224   -0.3959 N   0  0  0  0  0  0  0  0  0  0  0  0
    5.2293   -1.5471   -2.2872 C   0  0  0  0  0  0  0  0  0  0  0  0
    4.5855   -2.3669   -2.9387 O   0  0  0  0  0  0  0  0  0  0  0  0
    6.5504   -1.3196   -2.4650 N   0  0  0  0  0  0  0  0  0  0  0  0
    7.3560   -2.0330   -3.4500 C   0  0  1  0  0  0  0  0  0  0  0  0
    7.1988   -1.3292   -4.8229 C   0  0  0  0  0  0  0  0  0  0  0  0
    8.0446   -0.5702   -5.2751 O   0  0  0  0  0  0  0  0  0  0  0  0
    6.0197   -1.6042   -5.4411 N   0  0  0  0  0  0  0  0  0  0  0  0
    5.6625   -1.0457   -6.7264 C   0  0  1  0  0  0  0  0  0  0  0  0
    5.1773   -2.1808   -7.6386 C   0  0  0  0  0  0  0  0  0  0  0  0
    4.6787   -3.2064   -7.2008 O   0  0  0  0  0  0  0  0  0  0  0  0
    5.3014   -1.9400   -8.9760 N   0  0  0  0  0  0  0  0  0  0  0  0
    4.8716   -2.9038   -9.9658 C   0  0  1  0  0  0  0  0  0  0  0  0
    3.4183   -2.6383  -10.4292 C   0  0  0  0  0  0  0  0  0  0  0  0
    2.8284   -3.6843  -11.3746 C   0  0  0  0  0  0  0  0  0  0  0  0
    1.3241   -3.4720  -11.5837 C   0  0  0  0  0  0  0  0  0  0  0  0
    0.8303   -3.9763  -12.7511 N   0  0  0  0  0  0  0  0  0  0  0  0
    0.6230   -2.9175  -10.7595 O   0  0  0  0  0  0  0  0  0  0  0  0
    5.8492   -2.8368  -11.1435 C   0  0  0  0  0  0  0  0  0  0  0  0
    6.4611   -1.8439  -11.4313 O   0  0  0  0  0  0  0  0  0  0  0  0
    5.9504   -3.9531  -11.8950 O   0  0  0  0  0  0  0  0  0  0  0  0
    4.5979    0.0924   -6.6399 C   0  0  1  0  0  0  0  0  0  0  0  0
    3.2635   -0.3919   -6.0580 C   0  0  0  0  0  0  0  0  0  0  0  0
    5.1479    1.2933   -5.8615 C   0  0  0  0  0  0  0  0  0  0  0  0
    8.8293   -2.1462   -3.0163 C   0  0  1  0  0  0  0  0  0  0  0  0
    8.9639   -2.7114   -1.5962 C   0  0  0  0  0  0  0  0  0  0  0  0
    9.6259   -2.9985   -4.0134 C   0  0  0  0  0  0  0  0  0  0  0  0
    3.3865   -4.3339    1.5034 H   0  0  0  0  0  0  0  0  0  0  0  0
    2.3459   -3.9674    0.1091 H   0  0  0  0  0  0  0  0  0  0  0  0
    2.2063   -3.0142    1.6049 H   0  0  0  0  0  0  0  0  0  0  0  0
    4.7091   -3.1329   -0.1988 H   0  0  0  0  0  0  0  0  0  0  0  0
    4.5457   -2.1247    1.2462 H   0  0  0  0  0  0  0  0  0  0  0  0
    2.8268   -1.8799   -1.2819 H   0  0  0  0  0  0  0  0  0  0  0  0
    3.1036    0.0682    1.0978 H   0  0  0  0  0  0  0  0  0  0  0  0
    1.6881   -0.9507    0.7670 H   0  0  0  0  0  0  0  0  0  0  0  0
    2.1258    0.3417   -0.3653 H   0  0  0  0  0  0  0  0  0  0  0  0
    4.0679    0.1399   -1.8284 H   0  0  0  0  0  0  0  0  0  0  0  0
    5.8380   -0.5645    0.3902 H   0  0  0  0  0  0  0  0  0  0  0  0
    5.1955    0.8897   -0.0050 H   0  0  0  0  0  0  0  0  0  0  0  0
    6.9415   -0.5603   -1.9091 H   0  0  0  0  0  0  0  0  0  0  0  0
    6.9181   -3.0421   -3.5331 H   0  0  0  0  0  0  0  0  0  0  0  0
    5.3666   -2.2482   -4.9949 H   0  0  0  0  0  0  0  0  0  0  0  0
    6.5855   -0.6118   -7.1419 H   0  0  0  0  0  0  0  0  0  0  0  0
    5.8182   -1.1371   -9.3234 H   0  0  0  0  0  0  0  0  0  0  0  0
    4.9092   -3.8986   -9.4878 H   0  0  0  0  0  0  0  0  0  0  0  0
    3.3760   -1.6400  -10.8954 H   0  0  0  0  0  0  0  0  0  0  0  0
    2.7874   -2.5948   -9.5300 H   0  0  0  0  0  0  0  0  0  0  0  0
    2.9409   -4.6957  -10.9375 H   0  0  0  0  0  0  0  0  0  0  0  0
    3.3449   -3.7000  -12.3485 H   0  0  0  0  0  0  0  0  0  0  0  0
    1.4160   -4.4149  -13.4484 H   0  0  0  0  0  0  0  0  0  0  0  0
   -0.1644   -3.8938  -12.9269 H   0  0  0  0  0  0  0  0  0  0  0  0
    5.4635   -4.6819  -11.4839 H   0  0  0  0  0  0  0  0  0  0  0  0
    4.4206    0.4159   -7.6819 H   0  0  0  0  0  0  0  0  0  0  0  0
    3.3921   -0.7706   -5.0310 H   0  0  0  0  0  0  0  0  0  0  0  0
    2.8190   -1.2039   -6.6532 H   0  0  0  0  0  0  0  0  0  0  0  0
    2.5376    0.4361   -6.0236 H   0  0  0  0  0  0  0  0  0  0  0  0
    5.3203    1.0317   -4.8052 H   0  0  0  0  0  0  0  0  0  0  0  0
    4.4313    2.1300   -5.8864 H   0  0  0  0  0  0  0  0  0  0  0  0
    6.1061    1.6451   -6.2730 H   0  0  0  0  0  0  0  0  0  0  0  0
    9.2479   -1.1245   -3.0420 H   0  0  0  0  0  0  0  0  0  0  0  0
    8.5429   -3.7297   -1.5336 H   0  0  0  0  0  0  0  0  0  0  0  0
    8.4494   -2.0939   -0.8449 H   0  0  0  0  0  0  0  0  0  0  0  0
   10.0249   -2.7725   -1.3068 H   0  0  0  0  0  0  0  0  0  0  0  0
    9.2294   -4.0278   -4.0595 H   0  0  0  0  0  0  0  0  0  0  0  0
   10.6813   -3.0646   -3.7050 H   0  0  0  0  0  0  0  0  0  0  0  0
    9.5988   -2.5662   -5.0229 H   0  0  0  0  0  0  0  0  0  0  0  0
  1  2  1  0
  1 33  1  0
  1 34  1  0
  1 35  1  0
  2  3  1  0
  2 36  1  0
  2 37  1  0
  3  4  1  0
  3  5  1  0
  3 38  1  6
  4 39  1  0
  4 40  1  0
  4 41  1  0
  5  6  1  0
  5  7  1  0
  5 42  1  6
  6 43  1  0
  6 44  1  0
  7  8  2  0
  7  9  1  0
  9 10  1  0
  9 45  1  0
 10 11  1  0
 10 30  1  0
 10 46  1  6
 11 12  2  0
 11 13  1  0
 13 14  1  0
 13 47  1  0
 14 15  1  0
 14 27  1  0
 14 48  1  6
 15 16  2  0
 15 17  1  0
 17 18  1  0
 17 49  1  0
 18 19  1  0
 18 24  1  0
 18 50  1  1
 19 20  1  0
 19 51  1  0
 19 52  1  0
 20 21  1  0
 20 53  1  0
 20 54  1  0
 21 22  1  0
 21 23  2  0
 22 55  1  0
 22 56  1  0
 24 25  2  0
 24 26  1  0
 26 57  1  0
 27 28  1  0
 27 29  1  0
 27 58  1  6
 28 59  1  0
 28 60  1  0
 28 61  1  0
 29 62  1  0
 29 63  1  0
 29 64  1  0
 30 31  1  0
 30 32  1  0
 30 65  1  1
 31 66  1  0
 31 67  1  0
 31 68  1  0
 32 69  1  0
 32 70  1  0
 32 71  1  0
M  END

