
     RDKit          3D

 63 66  0  0  0  0  0  0  0  0999 V2000
    2.0819    0.7992    2.7377 C   0  0  0  0  0  0  0  0  0  0  0  0
    3.0287    0.5115    1.5965 C   0  0  0  0  0  0  0  0  0  0  0  0
    3.2712    1.4886    0.6142 C   0  0  0  0  0  0  0  0  0  0  0  0
    4.1613    1.2658   -0.4407 C   0  0  0  0  0  0  0  0  0  0  0  0
    4.4231    2.3236   -1.4862 C   0  0  0  0  0  0  0  0  0  0  0  0
    4.8196    0.0254   -0.5082 C   0  0  0  0  0  0  0  0  0  0  0  0
    4.5927   -0.9749    0.4465 C   0  0  0  0  0  0  0  0  0  0  0  0
    5.3433   -2.2599    0.3634 C   0  0  0  0  0  0  0  0  0  0  0  0
    6.7499   -2.2316    0.3250 C   0  0  0  0  0  0  0  0  0  0  0  0
    7.5157   -3.3163    0.2537 N   0  0  0  0  0  0  0  0  0  0  0  0
    6.9331   -4.5122    0.1888 C   0  0  0  0  0  0  0  0  0  0  0  0
    5.5327   -4.6714    0.1939 C   0  0  0  0  0  0  0  0  0  0  0  0
    4.9029   -5.9192    0.0543 N   0  0  0  0  0  0  0  0  0  0  0  0
    5.4576   -7.1703   -0.1020 C   0  0  0  0  0  0  0  0  0  0  0  0
    6.6556   -7.3899   -0.1275 O   0  0  0  0  0  0  0  0  0  0  0  0
    4.4528   -8.2896   -0.2721 C   0  0  0  0  0  0  0  0  0  0  0  0
    4.9098   -9.4890   -0.8277 C   0  0  0  0  0  0  0  0  0  0  0  0
    4.0085  -10.5475   -1.0104 C   0  0  0  0  0  0  0  0  0  0  0  0
    4.4413  -11.8565   -1.6196 C   0  0  0  0  0  0  0  0  0  0  0  0
    2.7182  -10.4494   -0.6583 N   0  0  0  0  0  0  0  0  0  0  0  0
    2.2660   -9.3187   -0.1054 C   0  0  0  0  0  0  0  0  0  0  0  0
    0.8145   -9.2815    0.3039 C   0  0  0  0  0  0  0  0  0  0  0  0
    3.1064   -8.2129    0.1044 C   0  0  0  0  0  0  0  0  0  0  0  0
    4.7096   -3.5197    0.3108 C   0  0  0  0  0  0  0  0  0  0  0  0
    3.2869   -3.6103    0.3221 N   0  0  0  0  0  0  0  0  0  0  0  0
    2.6170   -4.2716    1.4386 C   0  0  0  0  0  0  0  0  0  0  0  0
    1.1639   -3.8106    1.5738 C   0  0  0  0  0  0  0  0  0  0  0  0
    0.3922   -3.9448    0.2514 C   0  0  2  0  0  0  0  0  0  0  0  0
    0.1590   -5.3571   -0.0845 N   0  0  0  0  0  0  0  0  0  0  0  0
    1.1440   -3.1411   -0.8305 C   0  0  0  0  0  0  0  0  0  0  0  0
    2.6006   -3.5947   -0.9683 C   0  0  0  0  0  0  0  0  0  0  0  0
    3.6921   -0.7147    1.4964 C   0  0  0  0  0  0  0  0  0  0  0  0
    2.4582    1.6199    3.3717 H   0  0  0  0  0  0  0  0  0  0  0  0
    1.9422   -0.0817    3.3817 H   0  0  0  0  0  0  0  0  0  0  0  0
    1.0901    1.1099    2.3690 H   0  0  0  0  0  0  0  0  0  0  0  0
    2.7530    2.4508    0.6806 H   0  0  0  0  0  0  0  0  0  0  0  0
    3.7999    3.2156   -1.3258 H   0  0  0  0  0  0  0  0  0  0  0  0
    4.2167    1.9451   -2.5011 H   0  0  0  0  0  0  0  0  0  0  0  0
    5.4784    2.6446   -1.4738 H   0  0  0  0  0  0  0  0  0  0  0  0
    5.5154   -0.1688   -1.3295 H   0  0  0  0  0  0  0  0  0  0  0  0
    7.2648   -1.2655    0.3798 H   0  0  0  0  0  0  0  0  0  0  0  0
    7.5732   -5.3914    0.1145 H   0  0  0  0  0  0  0  0  0  0  0  0
    3.8965   -5.8684   -0.0146 H   0  0  0  0  0  0  0  0  0  0  0  0
    5.9599   -9.5767   -1.1102 H   0  0  0  0  0  0  0  0  0  0  0  0
    5.5136  -11.8658   -1.8602 H   0  0  0  0  0  0  0  0  0  0  0  0
    3.8687  -12.0541   -2.5402 H   0  0  0  0  0  0  0  0  0  0  0  0
    4.2236  -12.6858   -0.9279 H   0  0  0  0  0  0  0  0  0  0  0  0
    0.1954   -9.7619   -0.4683 H   0  0  0  0  0  0  0  0  0  0  0  0
    0.4574   -8.2550    0.4763 H   0  0  0  0  0  0  0  0  0  0  0  0
    0.6670   -9.8574    1.2336 H   0  0  0  0  0  0  0  0  0  0  0  0
    2.6888   -7.3287    0.5893 H   0  0  0  0  0  0  0  0  0  0  0  0
    3.1749   -4.0430    2.3602 H   0  0  0  0  0  0  0  0  0  0  0  0
    2.6156   -5.3828    1.3643 H   0  0  0  0  0  0  0  0  0  0  0  0
    1.1492   -2.7535    1.8855 H   0  0  0  0  0  0  0  0  0  0  0  0
    0.6644   -4.4057    2.3541 H   0  0  0  0  0  0  0  0  0  0  0  0
   -0.6034   -3.4934    0.3959 H   0  0  0  0  0  0  0  0  0  0  0  0
    0.9884   -5.7815   -0.5003 H   0  0  0  0  0  0  0  0  0  0  0  0
   -0.5655   -5.4301   -0.7990 H   0  0  0  0  0  0  0  0  0  0  0  0
    1.1301   -2.0718   -0.5619 H   0  0  0  0  0  0  0  0  0  0  0  0
    0.6368   -3.2434   -1.8052 H   0  0  0  0  0  0  0  0  0  0  0  0
    3.1419   -2.9080   -1.6364 H   0  0  0  0  0  0  0  0  0  0  0  0
    2.6306   -4.5901   -1.4740 H   0  0  0  0  0  0  0  0  0  0  0  0
    3.5273   -1.4777    2.2598 H   0  0  0  0  0  0  0  0  0  0  0  0
  1  2  1  0
  1 33  1  0
  1 34  1  0
  1 35  1  0
  2  3  2  0
  2 32  1  0
  3  4  1  0
  3 36  1  0
  4  5  1  0
  4  6  2  0
  5 37  1  0
  5 38  1  0
  5 39  1  0
  6  7  1  0
  6 40  1  0
  7  8  1  0
  7 32  2  0
  8  9  2  0
  8 24  1  0
  9 10  1  0
  9 41  1  0
 10 11  2  0
 11 12  1  0
 11 42  1  0
 12 13  1  0
 12 24  2  0
 13 14  1  0
 13 43  1  0
 14 15  2  0
 14 16  1  0
 16 17  2  0
 16 23  1  0
 17 18  1  0
 17 44  1  0
 18 19  1  0
 18 20  2  0
 19 45  1  0
 19 46  1  0
 19 47  1  0
 20 21  1  0
 21 22  1  0
 21 23  2  0
 22 48  1  0
 22 49  1  0
 22 50  1  0
 23 51  1  0
 24 25  1  0
 25 26  1  0
 25 31  1  0
 26 27  1  0
 26 52  1  0
 26 53  1  0
 27 28  1  0
 27 54  1  0
 27 55  1  0
 28 29  1  0
 28 30  1  0
 28 56  1  1
 29 57  1  0
 29 58  1  0
 30 31  1  0
 30 59  1  0
 30 60  1  0
 31 61  1  0
 31 62  1  0
 32 63  1  0
M  END

