
     RDKit          3D

 53 55  0  0  0  0  0  0  0  0999 V2000
    3.2084    3.0073    3.5174 C   0  0  0  0  0  0  0  0  0  0  0  0
    3.7029    1.6865    3.4531 O   0  0  0  0  0  0  0  0  0  0  0  0
    4.2300    1.2317    2.2942 C   0  0  0  0  0  0  0  0  0  0  0  0
    4.2107    1.9140    1.0749 C   0  0  0  0  0  0  0  0  0  0  0  0
    4.7846    1.3545   -0.0848 C   0  0  0  0  0  0  0  0  0  0  0  0
    4.6298    2.1106   -1.3436 C   0  0  0  0  0  0  0  0  0  0  0  0
    5.2477    2.1042   -2.4699 N   0  0  0  0  0  0  0  0  0  0  0  0
    6.4345    1.4151   -2.6285 N   0  0  0  0  0  0  0  0  0  0  0  0
    7.5561    1.6123   -1.8522 C   0  0  0  0  0  0  0  0  0  0  0  0
    7.5638    2.1388   -0.7592 O   0  0  0  0  0  0  0  0  0  0  0  0
    8.8690    1.1689   -2.5276 C   0  0  2  0  0  0  0  0  0  0  0  0
    9.4730    0.6825   -1.7448 H   0  0  0  0  0  0  0  0  0  0  0  0
    9.6221    2.3857   -3.0572 C   0  0  0  0  0  0  0  0  0  0  0  0
    8.6590    0.2817   -3.6226 O   0  0  0  0  0  0  0  0  0  0  0  0
    8.5005   -1.0590   -3.4126 C   0  0  0  0  0  0  0  0  0  0  0  0
    8.4666   -1.8578   -4.5672 C   0  0  0  0  0  0  0  0  0  0  0  0
    8.3064   -3.2374   -4.4693 C   0  0  0  0  0  0  0  0  0  0  0  0
    8.1818   -3.8321   -3.2081 C   0  0  0  0  0  0  0  0  0  0  0  0
    7.9660   -5.7225   -3.0685 Br  0  0  0  0  0  0  0  0  0  0  0  0
    8.2133   -3.0485   -2.0552 C   0  0  0  0  0  0  0  0  0  0  0  0
    8.3692   -1.6603   -2.1525 C   0  0  0  0  0  0  0  0  0  0  0  0
    5.3518    0.0726   -0.0165 C   0  0  0  0  0  0  0  0  0  0  0  0
    5.3565   -0.6231    1.1933 C   0  0  0  0  0  0  0  0  0  0  0  0
    4.8152   -0.0516    2.3389 C   0  0  0  0  0  0  0  0  0  0  0  0
    4.7777   -0.7801    3.5126 O   0  0  0  0  0  0  0  0  0  0  0  0
    5.5378   -0.3557    4.5778 C   0  0  0  0  0  0  0  0  0  0  0  0
    6.3530    0.5174    4.4884 O   0  0  0  0  0  0  0  0  0  0  0  0
    5.1907   -1.1383    5.8049 C   0  0  0  0  0  0  0  0  0  0  0  0
    3.9162   -1.7284    5.9074 C   0  0  0  0  0  0  0  0  0  0  0  0
    3.5258   -2.4263    7.0476 C   0  0  0  0  0  0  0  0  0  0  0  0
    4.4201   -2.5603    8.1135 C   0  0  0  0  0  0  0  0  0  0  0  0
    5.6929   -1.9961    8.0330 C   0  0  0  0  0  0  0  0  0  0  0  0
    6.0804   -1.2841    6.8915 C   0  0  0  0  0  0  0  0  0  0  0  0
    7.7001   -0.6404    6.8756 Cl  0  0  0  0  0  0  0  0  0  0  0  0
    2.8973    3.1726    4.5572 H   0  0  0  0  0  0  0  0  0  0  0  0
    2.3352    3.1506    2.8559 H   0  0  0  0  0  0  0  0  0  0  0  0
    3.9863    3.7444    3.2523 H   0  0  0  0  0  0  0  0  0  0  0  0
    3.7478    2.8992    1.0092 H   0  0  0  0  0  0  0  0  0  0  0  0
    3.7563    2.7792   -1.3580 H   0  0  0  0  0  0  0  0  0  0  0  0
    6.6267    1.2105   -3.6058 H   0  0  0  0  0  0  0  0  0  0  0  0
   10.5966    2.0790   -3.4642 H   0  0  0  0  0  0  0  0  0  0  0  0
    9.7803    3.1039   -2.2406 H   0  0  0  0  0  0  0  0  0  0  0  0
    9.0475    2.8787   -3.8565 H   0  0  0  0  0  0  0  0  0  0  0  0
    8.5736   -1.3740   -5.5401 H   0  0  0  0  0  0  0  0  0  0  0  0
    8.2830   -3.8515   -5.3711 H   0  0  0  0  0  0  0  0  0  0  0  0
    8.1134   -3.5134   -1.0729 H   0  0  0  0  0  0  0  0  0  0  0  0
    8.3775   -1.0687   -1.2367 H   0  0  0  0  0  0  0  0  0  0  0  0
    5.7714   -0.3925   -0.9080 H   0  0  0  0  0  0  0  0  0  0  0  0
    5.7824   -1.6257    1.2669 H   0  0  0  0  0  0  0  0  0  0  0  0
    3.2300   -1.6162    5.0682 H   0  0  0  0  0  0  0  0  0  0  0  0
    2.5276   -2.8660    7.1036 H   0  0  0  0  0  0  0  0  0  0  0  0
    4.1306   -3.1086    9.0135 H   0  0  0  0  0  0  0  0  0  0  0  0
    6.4049   -2.1007    8.8531 H   0  0  0  0  0  0  0  0  0  0  0  0
  1  2  1  0
  1 35  1  0
  1 36  1  0
  1 37  1  0
  2  3  1  0
  3  4  2  0
  3 24  1  0
  4  5  1  0
  4 38  1  0
  5  6  1  0
  5 22  2  0
  6  7  2  0
  6 39  1  0
  7  8  1  0
  8  9  1  0
  8 40  1  0
  9 10  2  0
  9 11  1  0
 11 12  1  1
 11 13  1  0
 11 14  1  0
 13 41  1  0
 13 42  1  0
 13 43  1  0
 14 15  1  0
 15 16  2  0
 15 21  1  0
 16 17  1  0
 16 44  1  0
 17 18  2  0
 17 45  1  0
 18 19  1  0
 18 20  1  0
 20 21  2  0
 20 46  1  0
 21 47  1  0
 22 23  1  0
 22 48  1  0
 23 24  2  0
 23 49  1  0
 24 25  1  0
 25 26  1  0
 26 27  2  0
 26 28  1  0
 28 29  2  0
 28 33  1  0
 29 30  1  0
 29 50  1  0
 30 31  2  0
 30 51  1  0
 31 32  1  0
 31 52  1  0
 32 33  2  0
 32 53  1  0
 33 34  1  0
M  END

