
     RDKit          3D

 32 32  0  0  0  0  0  0  0  0999 V2000
    0.8999   -0.1568   -0.1500 C   0  0  0  0  0  0  0  0  0  0  0  0
    2.2845   -0.0503    0.0350 O   0  0  0  0  0  0  0  0  0  0  0  0
    2.6683    1.0115    0.8757 C   0  0  0  0  0  0  0  0  0  0  0  0
    4.1864    0.9993    1.0046 C   0  0  0  0  0  0  0  0  0  0  0  0
    4.7740    2.1843    1.7871 C   0  0  1  0  0  0  0  0  0  0  0  0
    4.3418    2.1998    3.2586 C   0  0  0  0  0  0  0  0  0  0  0  0
    6.3174    2.2838    1.5967 C   0  0  1  0  0  0  0  0  0  0  0  0
    6.8172    3.5221    2.0610 O   0  0  0  0  0  0  0  0  0  0  0  0
    7.1090    1.0892    2.1275 C   0  0  0  0  0  0  0  0  0  0  0  0
    7.4613    0.0216    1.2855 C   0  0  0  0  0  0  0  0  0  0  0  0
    8.1835   -1.0845    1.7388 C   0  0  0  0  0  0  0  0  0  0  0  0
    8.5774   -1.1228    3.0738 C   0  0  0  0  0  0  0  0  0  0  0  0
    9.2753   -2.1705    3.5278 F   0  0  0  0  0  0  0  0  0  0  0  0
    8.2675   -0.0885    3.9530 C   0  0  0  0  0  0  0  0  0  0  0  0
    7.5385    0.9872    3.4562 C   0  0  0  0  0  0  0  0  0  0  0  0
    7.2469    1.9869    4.3242 F   0  0  0  0  0  0  0  0  0  0  0  0
    0.7124   -1.0102   -0.8184 H   0  0  0  0  0  0  0  0  0  0  0  0
    0.4689    0.7544   -0.6145 H   0  0  0  0  0  0  0  0  0  0  0  0
    0.3629   -0.3340    0.8049 H   0  0  0  0  0  0  0  0  0  0  0  0
    2.1820    0.9078    1.8680 H   0  0  0  0  0  0  0  0  0  0  0  0
    2.3278    1.9834    0.4554 H   0  0  0  0  0  0  0  0  0  0  0  0
    4.5942    0.9907   -0.0213 H   0  0  0  0  0  0  0  0  0  0  0  0
    4.4883    0.0432    1.4653 H   0  0  0  0  0  0  0  0  0  0  0  0
    4.4039    3.1167    1.3226 H   0  0  0  0  0  0  0  0  0  0  0  0
    4.6230    1.2690    3.7780 H   0  0  0  0  0  0  0  0  0  0  0  0
    3.2511    2.3133    3.3518 H   0  0  0  0  0  0  0  0  0  0  0  0
    4.7968    3.0431    3.7990 H   0  0  0  0  0  0  0  0  0  0  0  0
    6.4852    2.3028    0.5074 H   0  0  0  0  0  0  0  0  0  0  0  0
    6.8622    3.4928    3.0253 H   0  0  0  0  0  0  0  0  0  0  0  0
    7.1635    0.0627    0.2351 H   0  0  0  0  0  0  0  0  0  0  0  0
    8.4508   -1.9070    1.0736 H   0  0  0  0  0  0  0  0  0  0  0  0
    8.5827   -0.1158    4.9964 H   0  0  0  0  0  0  0  0  0  0  0  0
  1  2  1  0
  1 17  1  0
  1 18  1  0
  1 19  1  0
  2  3  1  0
  3  4  1  0
  3 20  1  0
  3 21  1  0
  4  5  1  0
  4 22  1  0
  4 23  1  0
  5  6  1  0
  5  7  1  0
  5 24  1  6
  6 25  1  0
  6 26  1  0
  6 27  1  0
  7  8  1  0
  7  9  1  0
  7 28  1  6
  8 29  1  0
  9 10  2  0
  9 15  1  0
 10 11  1  0
 10 30  1  0
 11 12  2  0
 11 31  1  0
 12 13  1  0
 12 14  1  0
 14 15  2  0
 14 32  1  0
 15 16  1  0
M  END

