
     RDKit          3D

 42 44  0  0  0  0  0  0  0  0999 V2000
   -1.3695    2.3308    4.6173 C   0  0  0  0  0  0  0  0  0  0  0  0
   -0.7739    1.6086    3.4001 C   0  0  0  0  0  0  0  0  0  0  0  0
    0.4889    0.8796    3.6994 C   0  0  0  0  0  0  0  0  0  0  0  0
    0.7395   -0.3869    3.6244 N   0  0  0  0  0  0  0  0  0  0  0  0
    2.0594   -0.5590    4.0241 N   0  0  0  0  0  0  0  0  0  0  0  0
    2.5096    0.6154    4.3185 C   0  0  0  0  0  0  0  0  0  0  0  0
    3.8748    1.0089    4.8008 C   0  0  0  0  0  0  0  0  0  0  0  0
    4.7108   -0.1412    5.0866 N   0  0  0  0  0  0  0  0  0  0  0  0
    5.2706   -0.8561    3.9450 C   0  0  0  0  0  0  0  0  0  0  0  0
    4.7029   -0.6001    6.3806 C   0  0  0  0  0  0  0  0  0  0  0  0
    4.1036   -0.0242    7.2750 O   0  0  0  0  0  0  0  0  0  0  0  0
    5.4956   -1.8783    6.6989 C   0  0  0  0  0  0  0  0  0  0  0  0
    6.9486   -1.7001    6.6170 N   0  0  0  0  0  0  0  0  0  0  0  0
    7.4835   -0.5501    7.1508 C   0  0  0  0  0  0  0  0  0  0  0  0
    8.8099   -0.2554    7.1529 C   0  0  0  0  0  0  0  0  0  0  0  0
    9.7896   -1.1669    6.5799 C   0  0  0  0  0  0  0  0  0  0  0  0
   10.9933   -0.9352    6.5278 O   0  0  0  0  0  0  0  0  0  0  0  0
    9.1995   -2.4367    6.0668 C   0  0  0  0  0  0  0  0  0  0  0  0
   10.0649   -3.4116    5.5413 C   0  0  0  0  0  0  0  0  0  0  0  0
    9.5847   -4.6252    5.0709 C   0  0  0  0  0  0  0  0  0  0  0  0
    8.2062   -4.8820    5.1331 C   0  0  0  0  0  0  0  0  0  0  0  0
    7.3247   -3.9372    5.6461 C   0  0  0  0  0  0  0  0  0  0  0  0
    7.8023   -2.6900    6.1117 C   0  0  0  0  0  0  0  0  0  0  0  0
    1.5777    1.5829    4.1361 O   0  0  0  0  0  0  0  0  0  0  0  0
   -2.2955    2.8545    4.3357 H   0  0  0  0  0  0  0  0  0  0  0  0
   -0.6673    3.0761    5.0212 H   0  0  0  0  0  0  0  0  0  0  0  0
   -1.6108    1.6190    5.4218 H   0  0  0  0  0  0  0  0  0  0  0  0
   -0.5786    2.3357    2.5926 H   0  0  0  0  0  0  0  0  0  0  0  0
   -1.4757    0.8621    3.0011 H   0  0  0  0  0  0  0  0  0  0  0  0
    3.7661    1.6002    5.7211 H   0  0  0  0  0  0  0  0  0  0  0  0
    4.3627    1.6451    4.0421 H   0  0  0  0  0  0  0  0  0  0  0  0
    5.6805   -0.1272    3.2285 H   0  0  0  0  0  0  0  0  0  0  0  0
    4.5004   -1.4564    3.4333 H   0  0  0  0  0  0  0  0  0  0  0  0
    6.0984   -1.5040    4.2516 H   0  0  0  0  0  0  0  0  0  0  0  0
    5.1840   -2.6739    6.0147 H   0  0  0  0  0  0  0  0  0  0  0  0
    5.1935   -2.1665    7.7173 H   0  0  0  0  0  0  0  0  0  0  0  0
    6.7505    0.1314    7.5880 H   0  0  0  0  0  0  0  0  0  0  0  0
    9.1631    0.6799    7.5888 H   0  0  0  0  0  0  0  0  0  0  0  0
   11.1283   -3.1625    5.5286 H   0  0  0  0  0  0  0  0  0  0  0  0
   10.2674   -5.3755    4.6657 H   0  0  0  0  0  0  0  0  0  0  0  0
    7.8106   -5.8387    4.7826 H   0  0  0  0  0  0  0  0  0  0  0  0
    6.2661   -4.1894    5.6961 H   0  0  0  0  0  0  0  0  0  0  0  0
  1  2  1  0
  1 25  1  0
  1 26  1  0
  1 27  1  0
  2  3  1  0
  2 28  1  0
  2 29  1  0
  3  4  2  0
  3 24  1  0
  4  5  1  0
  5  6  2  0
  6  7  1  0
  6 24  1  0
  7  8  1  0
  7 30  1  0
  7 31  1  0
  8  9  1  0
  8 10  1  0
  9 32  1  0
  9 33  1  0
  9 34  1  0
 10 11  2  0
 10 12  1  0
 12 13  1  0
 12 35  1  0
 12 36  1  0
 13 14  1  0
 13 23  1  0
 14 15  2  0
 14 37  1  0
 15 16  1  0
 15 38  1  0
 16 17  2  0
 16 18  1  0
 18 19  1  0
 18 23  2  0
 19 20  2  0
 19 39  1  0
 20 21  1  0
 20 40  1  0
 21 22  2  0
 21 41  1  0
 22 23  1  0
 22 42  1  0
M  END

