
     RDKit          3D

 28 29  0  0  0  0  0  0  0  0999 V2000
    3.1687    3.0945   -0.8078 N   0  0  0  0  0  0  0  0  0  0  0  0
    2.8326    1.7806   -0.6551 C   0  0  0  0  0  0  0  0  0  0  0  0
    2.1074    1.3834    0.2410 O   0  0  0  0  0  0  0  0  0  0  0  0
    3.4007    0.8415   -1.6670 C   0  0  0  0  0  0  0  0  0  0  0  0
    3.2374   -0.5245   -1.5857 C   0  0  0  0  0  0  0  0  0  0  0  0
    3.8358   -1.1408   -2.6120 O   0  0  0  0  0  0  0  0  0  0  0  0
    4.4071   -0.1768   -3.3971 C   0  0  0  0  0  0  0  0  0  0  0  0
    5.1265   -0.5549   -4.6186 C   0  0  0  0  0  0  0  0  0  0  0  0
    5.5211    0.2870   -5.4015 O   0  0  0  0  0  0  0  0  0  0  0  0
    5.3447   -2.0452   -4.8900 C   0  0  0  0  0  0  0  0  0  0  0  0
    6.0040   -2.6105   -3.7747 O   0  0  0  0  0  0  0  0  0  0  0  0
    6.2149   -3.9425   -3.7292 C   0  0  0  0  0  0  0  0  0  0  0  0
    5.9382   -4.8400   -4.7646 C   0  0  0  0  0  0  0  0  0  0  0  0
    6.2141   -6.2008   -4.5800 C   0  0  0  0  0  0  0  0  0  0  0  0
    6.7586   -6.6173   -3.3690 C   0  0  0  0  0  0  0  0  0  0  0  0
    7.0266   -5.7591   -2.3758 N   0  0  0  0  0  0  0  0  0  0  0  0
    6.7702   -4.4853   -2.5408 C   0  0  0  0  0  0  0  0  0  0  0  0
    7.1299   -3.3920   -1.2223 Cl  0  0  0  0  0  0  0  0  0  0  0  0
    4.1614    1.0631   -2.8560 C   0  0  0  0  0  0  0  0  0  0  0  0
    2.8325    3.7486   -0.1110 H   0  0  0  0  0  0  0  0  0  0  0  0
    3.8532    3.4120   -1.4799 H   0  0  0  0  0  0  0  0  0  0  0  0
    2.7249   -1.1443   -0.8545 H   0  0  0  0  0  0  0  0  0  0  0  0
    5.9495   -2.1240   -5.8087 H   0  0  0  0  0  0  0  0  0  0  0  0
    4.3661   -2.5360   -5.0574 H   0  0  0  0  0  0  0  0  0  0  0  0
    5.5179   -4.4907   -5.7086 H   0  0  0  0  0  0  0  0  0  0  0  0
    6.0068   -6.9203   -5.3750 H   0  0  0  0  0  0  0  0  0  0  0  0
    6.9892   -7.6713   -3.1833 H   0  0  0  0  0  0  0  0  0  0  0  0
    4.4978    1.9992   -3.2967 H   0  0  0  0  0  0  0  0  0  0  0  0
  1  2  1  0
  1 20  1  0
  1 21  1  0
  2  3  2  0
  2  4  1  0
  4  5  2  0
  4 19  1  0
  5  6  1  0
  5 22  1  0
  6  7  1  0
  7  8  1  0
  7 19  2  0
  8  9  2  0
  8 10  1  0
 10 11  1  0
 10 23  1  0
 10 24  1  0
 11 12  1  0
 12 13  2  0
 12 17  1  0
 13 14  1  0
 13 25  1  0
 14 15  2  0
 14 26  1  0
 15 16  1  0
 15 27  1  0
 16 17  2  0
 17 18  1  0
 19 28  1  0
M  END

