
     RDKit          3D

 73 78  0  0  0  0  0  0  0  0999 V2000
    1.0129   -0.4261   -1.5846 C   0  0  0  0  0  0  0  0  0  0  0  0
    2.4682   -0.2720   -1.2175 C   0  0  0  0  0  0  0  0  0  0  0  0
    3.4046    0.2291   -2.1252 C   0  0  0  0  0  0  0  0  0  0  0  0
    4.7575    0.3908   -1.7897 C   0  0  0  0  0  0  0  0  0  0  0  0
    5.6735    0.9514   -2.8609 C   0  0  0  0  0  0  0  0  0  0  0  0
    5.2230    0.0126   -0.5008 C   0  0  0  0  0  0  0  0  0  0  0  0
    6.7461    0.1838   -0.0983 B   0  0  0  0  0  0  0  0  0  0  0  0
    7.4194    1.6027   -0.2601 C   0  0  0  0  0  0  0  0  0  0  0  0
    6.6671    2.7921   -0.1485 C   0  0  0  0  0  0  0  0  0  0  0  0
    7.2598    4.0492   -0.2763 C   0  0  0  0  0  0  0  0  0  0  0  0
    8.6305    4.1522   -0.5516 C   0  0  0  0  0  0  0  0  0  0  0  0
    9.2413    5.4379   -0.6980 N   0  0  0  0  0  0  0  0  0  0  0  0
    9.7302    6.1246    0.4298 C   0  0  0  0  0  0  0  0  0  0  0  0
    9.6554    5.6055    1.7300 C   0  0  0  0  0  0  0  0  0  0  0  0
   10.1569    6.3251    2.8226 C   0  0  0  0  0  0  0  0  0  0  0  0
   10.7428    7.5747    2.6341 C   0  0  0  0  0  0  0  0  0  0  0  0
   10.8263    8.1047    1.3401 C   0  0  0  0  0  0  0  0  0  0  0  0
   10.3288    7.3918    0.2549 C   0  0  0  0  0  0  0  0  0  0  0  0
   10.4458    7.9687   -0.9866 O   0  0  0  0  0  0  0  0  0  0  0  0
    9.9671    7.2971   -2.0855 C   0  0  0  0  0  0  0  0  0  0  0  0
   10.1028    7.9174   -3.3225 C   0  0  0  0  0  0  0  0  0  0  0  0
    9.6346    7.2904   -4.4845 C   0  0  0  0  0  0  0  0  0  0  0  0
    9.0304    6.0390   -4.3877 C   0  0  0  0  0  0  0  0  0  0  0  0
    8.8926    5.4130   -3.1419 C   0  0  0  0  0  0  0  0  0  0  0  0
    9.3585    6.0278   -1.9712 C   0  0  0  0  0  0  0  0  0  0  0  0
    9.3987    2.9869   -0.6823 C   0  0  0  0  0  0  0  0  0  0  0  0
    8.8001    1.7362   -0.5234 C   0  0  0  0  0  0  0  0  0  0  0  0
    7.6198   -1.0152    0.4584 C   0  0  0  0  0  0  0  0  0  0  0  0
    7.7370   -2.2342   -0.2653 C   0  0  0  0  0  0  0  0  0  0  0  0
    7.0265   -2.4613   -1.5837 C   0  0  0  0  0  0  0  0  0  0  0  0
    8.5414   -3.2711    0.2300 C   0  0  0  0  0  0  0  0  0  0  0  0
    9.2227   -3.1687    1.4463 C   0  0  0  0  0  0  0  0  0  0  0  0
   10.0747   -4.2970    1.9733 C   0  0  0  0  0  0  0  0  0  0  0  0
    9.0864   -1.9759    2.1667 C   0  0  0  0  0  0  0  0  0  0  0  0
    8.3197   -0.9039    1.6945 C   0  0  0  0  0  0  0  0  0  0  0  0
    8.2533    0.3396    2.5606 C   0  0  0  0  0  0  0  0  0  0  0  0
    4.2747   -0.5199    0.4210 C   0  0  0  0  0  0  0  0  0  0  0  0
    4.6684   -0.9590    1.8160 C   0  0  0  0  0  0  0  0  0  0  0  0
    2.9290   -0.6355    0.0547 C   0  0  0  0  0  0  0  0  0  0  0  0
    0.8194   -0.1104   -2.6205 H   0  0  0  0  0  0  0  0  0  0  0  0
    0.3681    0.1760   -0.9225 H   0  0  0  0  0  0  0  0  0  0  0  0
    0.6832   -1.4739   -1.4834 H   0  0  0  0  0  0  0  0  0  0  0  0
    3.0740    0.5050   -3.1316 H   0  0  0  0  0  0  0  0  0  0  0  0
    5.2640    0.7544   -3.8633 H   0  0  0  0  0  0  0  0  0  0  0  0
    6.6867    0.5270   -2.8264 H   0  0  0  0  0  0  0  0  0  0  0  0
    5.7869    2.0435   -2.7619 H   0  0  0  0  0  0  0  0  0  0  0  0
    5.5932    2.7279    0.0467 H   0  0  0  0  0  0  0  0  0  0  0  0
    6.6674    4.9614   -0.1745 H   0  0  0  0  0  0  0  0  0  0  0  0
    9.1989    4.6282    1.8878 H   0  0  0  0  0  0  0  0  0  0  0  0
   10.0832    5.8939    3.8237 H   0  0  0  0  0  0  0  0  0  0  0  0
   11.1358    8.1411    3.4811 H   0  0  0  0  0  0  0  0  0  0  0  0
   11.2787    9.0796    1.1470 H   0  0  0  0  0  0  0  0  0  0  0  0
   10.5813    8.8984   -3.3525 H   0  0  0  0  0  0  0  0  0  0  0  0
    9.7454    7.7842   -5.4522 H   0  0  0  0  0  0  0  0  0  0  0  0
    8.6577    5.5340   -5.2820 H   0  0  0  0  0  0  0  0  0  0  0  0
    8.4180    4.4337   -3.0766 H   0  0  0  0  0  0  0  0  0  0  0  0
   10.4659    3.0745   -0.8986 H   0  0  0  0  0  0  0  0  0  0  0  0
    9.4164    0.8371   -0.6088 H   0  0  0  0  0  0  0  0  0  0  0  0
    7.2521   -1.6743   -2.3206 H   0  0  0  0  0  0  0  0  0  0  0  0
    5.9329   -2.4734   -1.4592 H   0  0  0  0  0  0  0  0  0  0  0  0
    7.3263   -3.4213   -2.0288 H   0  0  0  0  0  0  0  0  0  0  0  0
    8.6302   -4.1932   -0.3526 H   0  0  0  0  0  0  0  0  0  0  0  0
   10.0292   -5.1801    1.3190 H   0  0  0  0  0  0  0  0  0  0  0  0
    9.7523   -4.6055    2.9817 H   0  0  0  0  0  0  0  0  0  0  0  0
   11.1324   -3.9939    2.0556 H   0  0  0  0  0  0  0  0  0  0  0  0
    9.5953   -1.8760    3.1311 H   0  0  0  0  0  0  0  0  0  0  0  0
    8.4875    0.0963    3.6080 H   0  0  0  0  0  0  0  0  0  0  0  0
    7.2653    0.8214    2.5444 H   0  0  0  0  0  0  0  0  0  0  0  0
    8.9785    1.1006    2.2296 H   0  0  0  0  0  0  0  0  0  0  0  0
    5.1783   -0.1590    2.3759 H   0  0  0  0  0  0  0  0  0  0  0  0
    5.3572   -1.8173    1.7934 H   0  0  0  0  0  0  0  0  0  0  0  0
    3.7825   -1.2518    2.3984 H   0  0  0  0  0  0  0  0  0  0  0  0
    2.2161   -1.0311    0.7852 H   0  0  0  0  0  0  0  0  0  0  0  0
  1  2  1  0
  1 40  1  0
  1 41  1  0
  1 42  1  0
  2  3  2  0
  2 39  1  0
  3  4  1  0
  3 43  1  0
  4  5  1  0
  4  6  2  0
  5 44  1  0
  5 45  1  0
  5 46  1  0
  6  7  1  0
  6 37  1  0
  7  8  1  0
  7 28  1  0
  8  9  2  0
  8 27  1  0
  9 10  1  0
  9 47  1  0
 10 11  2  0
 10 48  1  0
 11 12  1  0
 11 26  1  0
 12 13  1  0
 12 25  1  0
 13 14  2  0
 13 18  1  0
 14 15  1  0
 14 49  1  0
 15 16  2  0
 15 50  1  0
 16 17  1  0
 16 51  1  0
 17 18  2  0
 17 52  1  0
 18 19  1  0
 19 20  1  0
 20 21  2  0
 20 25  1  0
 21 22  1  0
 21 53  1  0
 22 23  2  0
 22 54  1  0
 23 24  1  0
 23 55  1  0
 24 25  2  0
 24 56  1  0
 26 27  2  0
 26 57  1  0
 27 58  1  0
 28 29  2  0
 28 35  1  0
 29 30  1  0
 29 31  1  0
 30 59  1  0
 30 60  1  0
 30 61  1  0
 31 32  2  0
 31 62  1  0
 32 33  1  0
 32 34  1  0
 33 63  1  0
 33 64  1  0
 33 65  1  0
 34 35  2  0
 34 66  1  0
 35 36  1  0
 36 67  1  0
 36 68  1  0
 36 69  1  0
 37 38  1  0
 37 39  2  0
 38 70  1  0
 38 71  1  0
 38 72  1  0
 39 73  1  0
M  END

