
     RDKit          3D

 40 44  0  0  0  0  0  0  0  0999 V2000
    5.0804    2.3284    1.5425 C   0  0  0  0  0  0  0  0  0  0  0  0
    6.5027    1.9628    1.0637 C   0  0  2  0  0  0  0  0  0  0  0  0
    6.3661    0.5083   -0.0698 S   0  0  0  0  0  0  0  0  0  0  0  0
    7.1297   -0.6374    1.1430 C   0  0  0  0  0  0  0  0  0  0  0  0
    7.2432   -1.8192    0.9550 O   0  0  0  0  0  0  0  0  0  0  0  0
    7.5799    0.1425    2.3096 C   0  0  0  0  0  0  0  0  0  0  0  0
    7.3333    1.4667    2.2522 C   0  0  0  0  0  0  0  0  0  0  0  0
    7.7953    2.5007    3.1562 C   0  0  0  0  0  0  0  0  0  0  0  0
    8.2735    2.3726    4.4235 N   0  0  0  0  0  0  0  0  0  0  0  0
    8.5712    3.6045    4.8227 C   0  0  0  0  0  0  0  0  0  0  0  0
    9.1241    3.9409    6.1372 C   0  0  0  0  0  0  0  0  0  0  0  0
    9.3580    2.8995    7.0566 C   0  0  0  0  0  0  0  0  0  0  0  0
    9.8816    3.1501    8.3215 C   0  0  0  0  0  0  0  0  0  0  0  0
   10.1856    4.4635    8.6970 C   0  0  0  0  0  0  0  0  0  0  0  0
    9.9637    5.5129    7.8050 C   0  0  0  0  0  0  0  0  0  0  0  0
    9.4372    5.2613    6.5336 C   0  0  0  0  0  0  0  0  0  0  0  0
    9.2147    6.2803    5.6470 O   0  0  0  0  0  0  0  0  0  0  0  0
    8.2957    4.5266    3.8408 N   0  0  0  0  0  0  0  0  0  0  0  0
    8.4749    5.5208    3.9405 H   0  0  0  0  0  0  0  0  0  0  0  0
    7.8092    3.8434    2.7566 C   0  0  0  0  0  0  0  0  0  0  0  0
    7.3552    4.3012    1.4731 C   0  0  0  0  0  0  0  0  0  0  0  0
    6.9808    5.5411    1.0830 C   0  0  0  0  0  0  0  0  0  0  0  0
    6.3885    5.6337   -0.2620 C   0  0  0  0  0  0  0  0  0  0  0  0
    5.9767    6.6181   -0.8175 O   0  0  0  0  0  0  0  0  0  0  0  0
    6.3222    3.9565   -0.9909 S   0  0  0  0  0  0  0  0  0  0  0  0
    7.2461    3.1920    0.4176 C   0  0  2  0  0  0  0  0  0  0  0  0
    8.6576    2.8197   -0.0864 C   0  0  0  0  0  0  0  0  0  0  0  0
    4.6142    1.4570    2.0223 H   0  0  0  0  0  0  0  0  0  0  0  0
    4.4595    2.6347    0.6898 H   0  0  0  0  0  0  0  0  0  0  0  0
    5.1028    3.1551    2.2688 H   0  0  0  0  0  0  0  0  0  0  0  0
    8.1215   -0.3538    3.1161 H   0  0  0  0  0  0  0  0  0  0  0  0
    9.1115    1.8854    6.7384 H   0  0  0  0  0  0  0  0  0  0  0  0
   10.0529    2.3245    9.0152 H   0  0  0  0  0  0  0  0  0  0  0  0
   10.5970    4.6760    9.6865 H   0  0  0  0  0  0  0  0  0  0  0  0
   10.1997    6.5425    8.0921 H   0  0  0  0  0  0  0  0  0  0  0  0
    9.4664    7.1247    6.0444 H   0  0  0  0  0  0  0  0  0  0  0  0
    7.0240    6.4431    1.6966 H   0  0  0  0  0  0  0  0  0  0  0  0
    9.1575    3.7105   -0.4911 H   0  0  0  0  0  0  0  0  0  0  0  0
    8.5868    2.0647   -0.8809 H   0  0  0  0  0  0  0  0  0  0  0  0
    9.2756    2.4085    0.7262 H   0  0  0  0  0  0  0  0  0  0  0  0
  2  1  1  1
  1 28  1  0
  1 29  1  0
  1 30  1  0
  2  3  1  0
  2  7  1  0
  2 26  1  0
  3  4  2  0
  4  5  1  0
  4  6  1  0
  6  7  2  0
  6 31  1  0
  7  8  1  0
  8  9  1  0
  8 20  2  0
  9 10  2  0
 10 11  1  0
 10 18  1  0
 11 12  2  0
 11 16  1  0
 12 13  1  0
 12 32  1  0
 13 14  2  0
 13 33  1  0
 14 15  1  0
 14 34  1  0
 15 16  2  0
 15 35  1  0
 16 17  1  0
 17 36  1  0
 18 19  1  0
 18 20  1  0
 20 21  1  0
 21 22  2  0
 21 26  1  0
 22 23  1  0
 22 37  1  0
 23 24  2  0
 23 25  1  0
 25 26  1  0
 26 27  1  6
 27 38  1  0
 27 39  1  0
 27 40  1  0
M  CHG  2   3   1   5  -1
M  END

