
     RDKit          3D

 43 44  0  0  0  0  0  0  0  0999 V2000
   -1.0527    3.1289   -2.3771 C   0  0  0  0  0  0  0  0  0  0  0  0
    0.0389    4.1372   -2.3011 C   0  0  0  0  0  0  0  0  0  0  0  0
    1.3314    4.1003   -1.8591 C   0  0  0  0  0  0  0  0  0  0  0  0
    1.7951    5.4348   -2.0698 C   0  0  0  0  0  0  0  0  0  0  0  0
    3.1427    6.0166   -1.7919 C   0  0  0  0  0  0  0  0  0  0  0  0
    3.6437    5.7445   -0.0597 S   0  0  1  0  0  0  0  0  0  0  0  0
    2.7020    6.4634    0.7993 O   0  0  0  0  0  0  0  0  0  0  0  0
    3.8809    4.3015    0.0897 O   0  0  0  0  0  0  0  0  0  0  0  0
    5.1138    6.5522    0.0196 N   0  0  0  0  0  0  0  0  0  0  0  0
    6.3575    5.8099    0.2512 C   0  0  0  0  0  0  0  0  0  0  0  0
    7.5796    6.5745   -0.2937 C   0  0  1  0  0  0  0  0  0  0  0  0
    7.7209    6.4299   -1.8130 C   0  0  0  0  0  0  0  0  0  0  0  0
    7.5536    8.0679    0.0894 C   0  0  0  0  0  0  0  0  0  0  0  0
    7.1221    8.3333    1.4509 N   0  0  0  0  0  0  0  0  0  0  0  0
    8.0320    7.9016    2.5111 C   0  0  0  0  0  0  0  0  0  0  0  0
    7.4540    8.5464    3.7836 C   0  0  0  0  0  0  0  0  0  0  0  0
    6.6610    9.7783    3.2656 C   0  0  0  0  0  0  0  0  0  0  0  0
    6.8606    9.7431    1.7412 C   0  0  0  0  0  0  0  0  0  0  0  0
    0.8594    6.1958   -2.5915 N   0  0  0  0  0  0  0  0  0  0  0  0
   -0.2422    5.3809   -2.7417 O   0  0  0  0  0  0  0  0  0  0  0  0
   -0.7018    2.1594   -1.9997 H   0  0  0  0  0  0  0  0  0  0  0  0
   -1.3977    3.0002   -3.4158 H   0  0  0  0  0  0  0  0  0  0  0  0
   -1.9211    3.4465   -1.7776 H   0  0  0  0  0  0  0  0  0  0  0  0
    1.8793    3.2717   -1.4203 H   0  0  0  0  0  0  0  0  0  0  0  0
    3.1349    7.1013   -1.9583 H   0  0  0  0  0  0  0  0  0  0  0  0
    3.9323    5.5501   -2.3998 H   0  0  0  0  0  0  0  0  0  0  0  0
    5.0211    7.3451    0.6582 H   0  0  0  0  0  0  0  0  0  0  0  0
    6.2725    4.8314   -0.2422 H   0  0  0  0  0  0  0  0  0  0  0  0
    6.4863    5.6079    1.3276 H   0  0  0  0  0  0  0  0  0  0  0  0
    8.4630    6.1062    0.1767 H   0  0  0  0  0  0  0  0  0  0  0  0
    6.8111    6.7859   -2.3239 H   0  0  0  0  0  0  0  0  0  0  0  0
    7.8838    5.3794   -2.1014 H   0  0  0  0  0  0  0  0  0  0  0  0
    8.5710    7.0175   -2.1961 H   0  0  0  0  0  0  0  0  0  0  0  0
    6.8479    8.5822   -0.5844 H   0  0  0  0  0  0  0  0  0  0  0  0
    8.5570    8.5097   -0.1153 H   0  0  0  0  0  0  0  0  0  0  0  0
    9.0650    8.2754    2.3208 H   0  0  0  0  0  0  0  0  0  0  0  0
    8.0908    6.8040    2.5737 H   0  0  0  0  0  0  0  0  0  0  0  0
    8.2499    8.8192    4.4924 H   0  0  0  0  0  0  0  0  0  0  0  0
    6.7838    7.8448    4.3021 H   0  0  0  0  0  0  0  0  0  0  0  0
    7.0160   10.7258    3.6972 H   0  0  0  0  0  0  0  0  0  0  0  0
    5.5941    9.6849    3.5169 H   0  0  0  0  0  0  0  0  0  0  0  0
    7.7289   10.3783    1.4499 H   0  0  0  0  0  0  0  0  0  0  0  0
    5.9878   10.1064    1.1746 H   0  0  0  0  0  0  0  0  0  0  0  0
  1  2  1  0
  1 21  1  0
  1 22  1  0
  1 23  1  0
  2  3  2  0
  2 20  1  0
  3  4  1  0
  3 24  1  0
  4  5  1  0
  4 19  2  0
  5  6  1  0
  5 25  1  0
  5 26  1  0
  6  7  2  0
  6  8  2  0
  6  9  1  6
  9 10  1  0
  9 27  1  0
 10 11  1  0
 10 28  1  0
 10 29  1  0
 11 12  1  0
 11 13  1  0
 11 30  1  1
 12 31  1  0
 12 32  1  0
 12 33  1  0
 13 14  1  0
 13 34  1  0
 13 35  1  0
 14 15  1  0
 14 18  1  0
 15 16  1  0
 15 36  1  0
 15 37  1  0
 16 17  1  0
 16 38  1  0
 16 39  1  0
 17 18  1  0
 17 40  1  0
 17 41  1  0
 18 42  1  0
 18 43  1  0
 19 20  1  0
M  END

