
     RDKit          3D

 35 37  0  0  0  0  0  0  0  0999 V2000
    2.4297   -0.5270   -1.0444 O   0  0  0  0  0  0  0  0  0  0  0  0
    2.0857   -1.2963    0.0916 C   0  0  0  0  0  0  0  0  0  0  0  0
    2.8578   -0.7696    1.2909 C   0  0  0  0  0  0  0  0  0  0  0  0
    4.3098   -0.9556    1.2135 N   0  0  0  0  0  0  0  0  0  0  0  0
    5.0800   -0.0149    0.4157 C   0  0  0  0  0  0  0  0  0  0  0  0
    5.6932   -0.5412   -0.8759 C   0  0  0  0  0  0  0  0  0  0  0  0
    6.5752    0.2830   -1.5913 C   0  0  0  0  0  0  0  0  0  0  0  0
    7.1311   -0.1386   -2.7973 C   0  0  0  0  0  0  0  0  0  0  0  0
    6.8201   -1.4006   -3.3161 C   0  0  0  0  0  0  0  0  0  0  0  0
    7.5291   -1.9050   -4.8232 Cl  0  0  0  0  0  0  0  0  0  0  0  0
    5.9425   -2.2337   -2.6051 C   0  0  0  0  0  0  0  0  0  0  0  0
    5.5220   -3.8146   -3.2051 Cl  0  0  0  0  0  0  0  0  0  0  0  0
    5.3879   -1.8003   -1.3961 C   0  0  0  0  0  0  0  0  0  0  0  0
    4.9162   -1.9004    2.0024 C   0  0  0  0  0  0  0  0  0  0  0  0
    4.1186   -2.7193    2.7071 N   0  0  0  0  0  0  0  0  0  0  0  0
    4.6477   -3.6441    3.5183 C   0  0  0  0  0  0  0  0  0  0  0  0
    5.9304   -3.8936    3.7416 N   0  0  0  0  0  0  0  0  0  0  0  0
    6.7284   -3.0874    3.0314 C   0  0  0  0  0  0  0  0  0  0  0  0
    8.0862   -3.0856    3.0313 N   0  0  0  0  0  0  0  0  0  0  0  0
    8.6923   -3.6968    3.5652 H   0  0  0  0  0  0  0  0  0  0  0  0
    8.6050   -2.1554    2.2009 N   0  0  0  0  0  0  0  0  0  0  0  0
    7.5796   -1.5341    1.6524 C   0  0  0  0  0  0  0  0  0  0  0  0
    6.3324   -2.0641    2.1295 C   0  0  0  0  0  0  0  0  0  0  0  0
    2.1035   -0.9674   -1.8386 H   0  0  0  0  0  0  0  0  0  0  0  0
    2.3185   -2.3695   -0.0465 H   0  0  0  0  0  0  0  0  0  0  0  0
    1.0027   -1.2213    0.3205 H   0  0  0  0  0  0  0  0  0  0  0  0
    2.5049   -1.2840    2.1920 H   0  0  0  0  0  0  0  0  0  0  0  0
    2.6515    0.3096    1.3953 H   0  0  0  0  0  0  0  0  0  0  0  0
    5.8758    0.4368    1.0335 H   0  0  0  0  0  0  0  0  0  0  0  0
    4.3989    0.8041    0.1442 H   0  0  0  0  0  0  0  0  0  0  0  0
    6.8317    1.2738   -1.2051 H   0  0  0  0  0  0  0  0  0  0  0  0
    7.8159    0.5046   -3.3525 H   0  0  0  0  0  0  0  0  0  0  0  0
    4.7134   -2.4692   -0.8630 H   0  0  0  0  0  0  0  0  0  0  0  0
    3.9251   -4.2674    4.0598 H   0  0  0  0  0  0  0  0  0  0  0  0
    7.7687   -0.7480    0.9257 H   0  0  0  0  0  0  0  0  0  0  0  0
  1  2  1  0
  1 24  1  0
  2  3  1  0
  2 25  1  0
  2 26  1  0
  3  4  1  0
  3 27  1  0
  3 28  1  0
  4  5  1  0
  4 14  1  0
  5  6  1  0
  5 29  1  0
  5 30  1  0
  6  7  2  0
  6 13  1  0
  7  8  1  0
  7 31  1  0
  8  9  2  0
  8 32  1  0
  9 10  1  0
  9 11  1  0
 11 12  1  0
 11 13  2  0
 13 33  1  0
 14 15  2  0
 14 23  1  0
 15 16  1  0
 16 17  2  0
 16 34  1  0
 17 18  1  0
 18 19  1  0
 18 23  2  0
 19 20  1  0
 19 21  1  0
 21 22  2  0
 22 23  1  0
 22 35  1  0
M  END

