
     RDKit          3D

 73 77  0  0  0  0  0  0  0  0999 V2000
    4.7873    2.7129   10.6009 C   0  0  0  0  0  0  0  0  0  0  0  0
    3.8439    3.1534    9.4688 C   0  0  0  0  0  0  0  0  0  0  0  0
    2.4073    2.7322    9.6920 C   0  0  0  0  0  0  0  0  0  0  0  0
    1.6036    3.4449   10.5984 C   0  0  0  0  0  0  0  0  0  0  0  0
    0.2839    3.0766   10.8583 C   0  0  0  0  0  0  0  0  0  0  0  0
   -0.2735    1.9710   10.2089 C   0  0  0  0  0  0  0  0  0  0  0  0
    0.5009    1.2489    9.3034 C   0  0  0  0  0  0  0  0  0  0  0  0
    1.8249    1.6249    9.0505 C   0  0  0  0  0  0  0  0  0  0  0  0
    2.5804    0.8420    8.1035 N   0  0  0  0  0  0  0  0  0  0  0  0
    3.4371   -0.1762    8.5261 C   0  0  0  0  0  0  0  0  0  0  0  0
    3.6491   -0.4518    9.6822 O   0  0  0  0  0  0  0  0  0  0  0  0
    4.0635   -0.8799    7.3354 C   0  0  0  0  0  0  0  0  0  0  0  0
    3.4519   -0.0977    5.7948 S   0  0  0  0  0  0  0  0  0  0  0  0
    2.4504    1.0453    6.7287 C   0  0  0  0  0  0  0  0  0  0  0  0
    1.6864    1.9661    6.2745 N   0  0  0  0  0  0  0  0  0  0  0  0
    1.5887    2.1349    4.8841 C   0  0  0  0  0  0  0  0  0  0  0  0
    2.1897    1.4560    4.0561 O   0  0  0  0  0  0  0  0  0  0  0  0
    0.7354    3.1453    4.5622 N   0  0  0  0  0  0  0  0  0  0  0  0
    0.4809    3.5654    3.2028 C   0  0  0  0  0  0  0  0  0  0  0  0
    1.0483    4.9659    2.8703 C   0  0  1  0  0  0  0  0  0  0  0  0
    0.8314    5.3296    1.3838 C   0  0  0  0  0  0  0  0  0  0  0  0
    1.6039    4.4566    0.3914 C   0  0  0  0  0  0  0  0  0  0  0  0
    0.4879    6.0287    3.8043 C   0  0  0  0  0  0  0  0  0  0  0  0
    1.3175    6.6858    4.7267 C   0  0  0  0  0  0  0  0  0  0  0  0
    0.8162    7.6583    5.5931 C   0  0  0  0  0  0  0  0  0  0  0  0
   -0.5437    8.0033    5.5622 C   0  0  0  0  0  0  0  0  0  0  0  0
   -1.0655    9.0301    6.4754 C   0  0  0  0  0  0  0  0  0  0  0  0
   -0.2835    9.6840    7.3926 N   0  0  0  0  0  0  0  0  0  0  0  0
   -1.1239   10.4951    7.9883 C   0  0  0  0  0  0  0  0  0  0  0  0
   -2.3762   10.3478    7.4668 N   0  0  0  0  0  0  0  0  0  0  0  0
   -3.5766   11.0287    7.7930 C   0  0  0  0  0  0  0  0  0  0  0  0
   -3.7121   11.6902    9.0217 C   0  0  0  0  0  0  0  0  0  0  0  0
   -4.8886   12.3764    9.3141 C   0  0  0  0  0  0  0  0  0  0  0  0
   -5.9396   12.3821    8.3951 C   0  0  0  0  0  0  0  0  0  0  0  0
   -7.0852   13.0554    8.8043 O   0  0  0  0  0  0  0  0  0  0  0  0
   -7.9166   13.6511    7.9207 C   0  0  1  0  0  0  0  0  0  0  0  0
   -7.2627   14.4385    7.0583 F   0  0  0  0  0  0  0  0  0  0  0  0
   -8.6175   12.7615    7.1948 F   0  0  0  0  0  0  0  0  0  0  0  0
   -8.7758   14.3871    8.6099 F   0  0  0  0  0  0  0  0  0  0  0  0
   -5.8243   11.7027    7.1789 C   0  0  0  0  0  0  0  0  0  0  0  0
   -4.6366   11.0361    6.8779 C   0  0  0  0  0  0  0  0  0  0  0  0
   -2.3378    9.4119    6.4925 N   0  0  0  0  0  0  0  0  0  0  0  0
   -1.3858    7.3485    4.6464 C   0  0  0  0  0  0  0  0  0  0  0  0
   -0.8755    6.3790    3.7858 C   0  0  0  0  0  0  0  0  0  0  0  0
    5.8208    3.0346   10.3943 H   0  0  0  0  0  0  0  0  0  0  0  0
    4.7776    1.6193   10.7185 H   0  0  0  0  0  0  0  0  0  0  0  0
    4.4840    3.1553   11.5635 H   0  0  0  0  0  0  0  0  0  0  0  0
    4.2079    2.7553    8.5095 H   0  0  0  0  0  0  0  0  0  0  0  0
    3.8748    4.2520    9.3743 H   0  0  0  0  0  0  0  0  0  0  0  0
    2.0302    4.3144   11.1066 H   0  0  0  0  0  0  0  0  0  0  0  0
   -0.3131    3.6559   11.5672 H   0  0  0  0  0  0  0  0  0  0  0  0
   -1.3067    1.6743   10.4039 H   0  0  0  0  0  0  0  0  0  0  0  0
    0.0853    0.3863    8.7787 H   0  0  0  0  0  0  0  0  0  0  0  0
    3.7970   -1.9475    7.3704 H   0  0  0  0  0  0  0  0  0  0  0  0
    5.1592   -0.8047    7.4103 H   0  0  0  0  0  0  0  0  0  0  0  0
    0.3298    3.6581    5.3370 H   0  0  0  0  0  0  0  0  0  0  0  0
   -0.6067    3.5536    3.0050 H   0  0  0  0  0  0  0  0  0  0  0  0
    0.9430    2.8085    2.5553 H   0  0  0  0  0  0  0  0  0  0  0  0
    2.1367    4.9149    3.0466 H   0  0  0  0  0  0  0  0  0  0  0  0
    1.1270    6.3830    1.2452 H   0  0  0  0  0  0  0  0  0  0  0  0
   -0.2477    5.2894    1.1496 H   0  0  0  0  0  0  0  0  0  0  0  0
    2.6866    4.4776    0.5992 H   0  0  0  0  0  0  0  0  0  0  0  0
    1.4568    4.8149   -0.6399 H   0  0  0  0  0  0  0  0  0  0  0  0
    1.2841    3.4033    0.4189 H   0  0  0  0  0  0  0  0  0  0  0  0
    2.3801    6.4299    4.7655 H   0  0  0  0  0  0  0  0  0  0  0  0
    1.4722    8.1631    6.3046 H   0  0  0  0  0  0  0  0  0  0  0  0
   -0.8841   11.2101    8.7732 H   0  0  0  0  0  0  0  0  0  0  0  0
   -2.9106   11.6672    9.7613 H   0  0  0  0  0  0  0  0  0  0  0  0
   -5.0114   12.9023   10.2622 H   0  0  0  0  0  0  0  0  0  0  0  0
   -6.6481   11.6852    6.4665 H   0  0  0  0  0  0  0  0  0  0  0  0
   -4.5219   10.5042    5.9340 H   0  0  0  0  0  0  0  0  0  0  0  0
   -2.4457    7.6085    4.6179 H   0  0  0  0  0  0  0  0  0  0  0  0
   -1.5551    5.8875    3.0844 H   0  0  0  0  0  0  0  0  0  0  0  0
  1  2  1  0
  1 45  1  0
  1 46  1  0
  1 47  1  0
  2  3  1  0
  2 48  1  0
  2 49  1  0
  3  4  2  0
  3  8  1  0
  4  5  1  0
  4 50  1  0
  5  6  2  0
  5 51  1  0
  6  7  1  0
  6 52  1  0
  7  8  2  0
  7 53  1  0
  8  9  1  0
  9 10  1  0
  9 14  1  0
 10 11  2  0
 10 12  1  0
 12 13  1  0
 12 54  1  0
 12 55  1  0
 13 14  2  0
 14 15  1  0
 15 16  2  0
 16 17  1  0
 16 18  1  0
 18 19  1  0
 18 56  1  0
 19 20  1  0
 19 57  1  0
 19 58  1  0
 20 21  1  0
 20 23  1  0
 20 59  1  6
 21 22  1  0
 21 60  1  0
 21 61  1  0
 22 62  1  0
 22 63  1  0
 22 64  1  0
 23 24  2  0
 23 44  1  0
 24 25  1  0
 24 65  1  0
 25 26  2  0
 25 66  1  0
 26 27  1  0
 26 43  1  0
 27 28  1  0
 27 42  2  0
 28 29  2  0
 29 30  1  0
 29 67  1  0
 30 31  1  0
 30 42  1  0
 31 32  2  0
 31 41  1  0
 32 33  1  0
 32 68  1  0
 33 34  2  0
 33 69  1  0
 34 35  1  0
 34 40  1  0
 35 36  1  0
 36 37  1  6
 36 38  1  0
 36 39  1  0
 40 41  2  0
 40 70  1  0
 41 71  1  0
 43 44  2  0
 43 72  1  0
 44 73  1  0
M  CHG  2  13   1  17  -1
M  END

