
     RDKit          3D

 27 26  0  0  0  0  0  0  0  0999 V2000
    0.9201    0.0143    0.0117 C   0  0  0  0  0  0  0  0  0  0  0  0
    2.2581   -0.0905    0.0541 C   0  0  0  0  0  0  0  0  0  0  0  0
    3.0358   -0.9977   -0.8663 C   0  0  0  0  0  0  0  0  0  0  0  0
    2.9888    0.7515    1.0816 C   0  0  0  0  0  0  0  0  0  0  0  0
    2.3860    1.4902    1.8355 O   0  0  0  0  0  0  0  0  0  0  0  0
    4.5070    0.6424    1.1389 C   0  0  0  0  0  0  0  0  0  0  0  0
    5.1403    1.5078    2.2353 C   0  0  0  0  0  0  0  0  0  0  0  0
    6.6514    1.4043    2.3045 C   0  0  0  0  0  0  0  0  0  0  0  0
    7.4013    2.0616    1.1712 C   0  0  0  0  0  0  0  0  0  0  0  0
    7.2382    0.7675    3.3356 C   0  0  0  0  0  0  0  0  0  0  0  0
    8.7004    0.5491    3.5960 C   0  0  0  0  0  0  0  0  0  0  0  0
    0.3210   -0.5595   -0.7008 H   0  0  0  0  0  0  0  0  0  0  0  0
    0.4060    0.6870    0.7024 H   0  0  0  0  0  0  0  0  0  0  0  0
    2.3619   -1.5343   -1.5497 H   0  0  0  0  0  0  0  0  0  0  0  0
    3.6158   -1.7503   -0.3066 H   0  0  0  0  0  0  0  0  0  0  0  0
    3.7597   -0.4366   -1.4807 H   0  0  0  0  0  0  0  0  0  0  0  0
    4.9024    0.9008    0.1400 H   0  0  0  0  0  0  0  0  0  0  0  0
    4.7789   -0.4191    1.2818 H   0  0  0  0  0  0  0  0  0  0  0  0
    4.6969    1.2248    3.2020 H   0  0  0  0  0  0  0  0  0  0  0  0
    4.8398    2.5566    2.0652 H   0  0  0  0  0  0  0  0  0  0  0  0
    7.1425    3.1336    1.1087 H   0  0  0  0  0  0  0  0  0  0  0  0
    7.1292    1.6210    0.1959 H   0  0  0  0  0  0  0  0  0  0  0  0
    8.4919    1.9853    1.2719 H   0  0  0  0  0  0  0  0  0  0  0  0
    6.5708    0.3499    4.1011 H   0  0  0  0  0  0  0  0  0  0  0  0
    9.3510    0.9759    2.8197 H   0  0  0  0  0  0  0  0  0  0  0  0
    8.9305   -0.5290    3.6684 H   0  0  0  0  0  0  0  0  0  0  0  0
    8.9986    0.9917    4.5632 H   0  0  0  0  0  0  0  0  0  0  0  0
  1  2  2  0
  1 12  1  0
  1 13  1  0
  2  3  1  0
  2  4  1  0
  3 14  1  0
  3 15  1  0
  3 16  1  0
  4  5  2  0
  4  6  1  0
  6  7  1  0
  6 17  1  0
  6 18  1  0
  7  8  1  0
  7 19  1  0
  7 20  1  0
  8  9  1  0
  8 10  2  0
  9 21  1  0
  9 22  1  0
  9 23  1  0
 10 11  1  0
 10 24  1  0
 11 25  1  0
 11 26  1  0
 11 27  1  0
M  END

