
     RDKit          3D

 36 38  0  0  0  0  0  0  0  0999 V2000
    1.8393   -0.6828   -0.6636 C   0  0  0  0  0  0  0  0  0  0  0  0
    2.6186    0.1165    0.1914 O   0  0  0  0  0  0  0  0  0  0  0  0
    3.2227   -0.4558    1.2690 C   0  0  0  0  0  0  0  0  0  0  0  0
    3.9870    0.4278    2.0717 C   0  0  0  0  0  0  0  0  0  0  0  0
    4.6599   -0.0157    3.2027 C   0  0  0  0  0  0  0  0  0  0  0  0
    4.5723   -1.3739    3.5474 C   0  0  0  0  0  0  0  0  0  0  0  0
    5.1315   -2.0756    4.6061 N   0  0  0  0  0  0  0  0  0  0  0  0
    4.7326   -3.3100    4.4495 C   0  0  0  0  0  0  0  0  0  0  0  0
    5.1207   -4.6952    5.4680 S   0  0  0  0  0  0  0  0  0  0  0  0
    6.2977   -3.8871    6.6738 C   0  0  1  0  0  0  0  0  0  0  0  0
    6.8587   -3.1791    6.0504 H   0  0  0  0  0  0  0  0  0  0  0  0
    5.5438   -3.1144    7.7528 C   0  0  0  0  0  0  0  0  0  0  0  0
    7.2296   -4.9751    7.1679 C   0  0  0  0  0  0  0  0  0  0  0  0
    6.9546   -5.6974    8.3416 C   0  0  0  0  0  0  0  0  0  0  0  0
    7.8008   -6.7079    8.8020 C   0  0  0  0  0  0  0  0  0  0  0  0
    8.9600   -7.0214    8.0894 C   0  0  0  0  0  0  0  0  0  0  0  0
    9.2632   -6.3238    6.9190 C   0  0  0  0  0  0  0  0  0  0  0  0
    8.4045   -5.3182    6.4667 C   0  0  0  0  0  0  0  0  0  0  0  0
    8.8355   -4.4845    4.9867 Cl  0  0  0  0  0  0  0  0  0  0  0  0
    3.9238   -3.4805    3.3407 N   0  0  0  0  0  0  0  0  0  0  0  0
    3.5232   -4.3546    3.0254 H   0  0  0  0  0  0  0  0  0  0  0  0
    3.8042   -2.2412    2.7351 C   0  0  0  0  0  0  0  0  0  0  0  0
    3.1177   -1.8159    1.5906 C   0  0  0  0  0  0  0  0  0  0  0  0
    1.4549   -0.0212   -1.4520 H   0  0  0  0  0  0  0  0  0  0  0  0
    0.9828   -1.1413   -0.1350 H   0  0  0  0  0  0  0  0  0  0  0  0
    2.4342   -1.4879   -1.1338 H   0  0  0  0  0  0  0  0  0  0  0  0
    4.0269    1.4746    1.7648 H   0  0  0  0  0  0  0  0  0  0  0  0
    5.2476    0.6707    3.8156 H   0  0  0  0  0  0  0  0  0  0  0  0
    4.9858   -2.2929    7.2837 H   0  0  0  0  0  0  0  0  0  0  0  0
    6.2583   -2.6806    8.4723 H   0  0  0  0  0  0  0  0  0  0  0  0
    4.8323   -3.7461    8.3051 H   0  0  0  0  0  0  0  0  0  0  0  0
    6.0535   -5.4592    8.9095 H   0  0  0  0  0  0  0  0  0  0  0  0
    7.5536   -7.2479    9.7190 H   0  0  0  0  0  0  0  0  0  0  0  0
    9.6328   -7.8075    8.4407 H   0  0  0  0  0  0  0  0  0  0  0  0
   10.1648   -6.5500    6.3475 H   0  0  0  0  0  0  0  0  0  0  0  0
    2.5366   -2.5129    0.9877 H   0  0  0  0  0  0  0  0  0  0  0  0
  1  2  1  0
  1 24  1  0
  1 25  1  0
  1 26  1  0
  2  3  1  0
  3  4  2  0
  3 23  1  0
  4  5  1  0
  4 27  1  0
  5  6  2  0
  5 28  1  0
  6  7  1  0
  6 22  1  0
  7  8  2  0
  8  9  1  0
  8 20  1  0
  9 10  1  0
 10 11  1  6
 10 12  1  0
 10 13  1  0
 12 29  1  0
 12 30  1  0
 12 31  1  0
 13 14  2  0
 13 18  1  0
 14 15  1  0
 14 32  1  0
 15 16  2  0
 15 33  1  0
 16 17  1  0
 16 34  1  0
 17 18  2  0
 17 35  1  0
 18 19  1  0
 20 21  1  0
 20 22  1  0
 22 23  2  0
 23 36  1  0
M  END

