
     RDKit          3D

 34 34  0  0  0  0  0  0  0  0999 V2000
    4.7957    0.0021   -2.9772 C   0  0  0  0  0  0  0  0  0  0  0  0
    4.4679    0.1155   -1.4998 C   0  0  0  0  0  0  0  0  0  0  0  0
    4.8274   -1.0846   -0.8554 O   0  0  0  0  0  0  0  0  0  0  0  0
    4.5671   -1.1065    0.5263 C   0  0  0  0  0  0  0  0  0  0  0  0
    5.0188   -2.4421    1.0995 C   0  0  0  0  0  0  0  0  0  0  0  0
    6.5201   -2.6933    0.9114 C   0  0  0  0  0  0  0  0  0  0  0  0
    6.9643   -3.9449    1.4951 N   0  0  0  0  0  0  0  0  0  0  0  0
    7.3834   -5.0011    0.7430 C   0  0  0  0  0  0  0  0  0  0  0  0
    7.4446   -4.9652   -0.4782 O   0  0  0  0  0  0  0  0  0  0  0  0
    7.7947   -6.2584    1.4864 C   0  0  0  0  0  0  0  0  0  0  0  0
    8.2596   -7.3130    0.6826 C   0  0  0  0  0  0  0  0  0  0  0  0
    8.6757   -8.5447    1.2032 C   0  0  0  0  0  0  0  0  0  0  0  0
    9.1867   -9.5673    0.4232 N   0  0  0  0  0  0  0  0  0  0  0  0
    8.6025   -8.6931    2.6022 C   0  0  0  0  0  0  0  0  0  0  0  0
    8.9789   -9.8747    3.1279 F   0  0  0  0  0  0  0  0  0  0  0  0
    8.1507   -7.6838    3.4375 C   0  0  0  0  0  0  0  0  0  0  0  0
    7.7549   -6.4755    2.8694 C   0  0  0  0  0  0  0  0  0  0  0  0
    7.3195   -5.5123    3.7221 F   0  0  0  0  0  0  0  0  0  0  0  0
    4.5210    0.9276   -3.5070 H   0  0  0  0  0  0  0  0  0  0  0  0
    4.2464   -0.8373   -3.4308 H   0  0  0  0  0  0  0  0  0  0  0  0
    5.8722   -0.1776   -3.1221 H   0  0  0  0  0  0  0  0  0  0  0  0
    3.3845    0.3177   -1.3573 H   0  0  0  0  0  0  0  0  0  0  0  0
    5.0100    0.9730   -1.0462 H   0  0  0  0  0  0  0  0  0  0  0  0
    3.4845   -0.9556    0.7232 H   0  0  0  0  0  0  0  0  0  0  0  0
    5.0999   -0.2716    1.0334 H   0  0  0  0  0  0  0  0  0  0  0  0
    4.4524   -3.2549    0.6153 H   0  0  0  0  0  0  0  0  0  0  0  0
    4.7610   -2.4637    2.1736 H   0  0  0  0  0  0  0  0  0  0  0  0
    7.0939   -1.8583    1.3548 H   0  0  0  0  0  0  0  0  0  0  0  0
    6.7576   -2.7274   -0.1589 H   0  0  0  0  0  0  0  0  0  0  0  0
    6.9243   -4.0553    2.5003 H   0  0  0  0  0  0  0  0  0  0  0  0
    8.2851   -7.1268   -0.3931 H   0  0  0  0  0  0  0  0  0  0  0  0
    8.9342   -9.5563   -0.5575 H   0  0  0  0  0  0  0  0  0  0  0  0
    9.1820  -10.4899    0.8418 H   0  0  0  0  0  0  0  0  0  0  0  0
    8.1044   -7.8347    4.5165 H   0  0  0  0  0  0  0  0  0  0  0  0
  1  2  1  0
  1 19  1  0
  1 20  1  0
  1 21  1  0
  2  3  1  0
  2 22  1  0
  2 23  1  0
  3  4  1  0
  4  5  1  0
  4 24  1  0
  4 25  1  0
  5  6  1  0
  5 26  1  0
  5 27  1  0
  6  7  1  0
  6 28  1  0
  6 29  1  0
  7  8  1  0
  7 30  1  0
  8  9  2  0
  8 10  1  0
 10 11  2  0
 10 17  1  0
 11 12  1  0
 11 31  1  0
 12 13  1  0
 12 14  2  0
 13 32  1  0
 13 33  1  0
 14 15  1  0
 14 16  1  0
 16 17  2  0
 16 34  1  0
 17 18  1  0
M  END

