
     RDKit          3D

 36 37  0  0  0  0  0  0  0  0999 V2000
    0.8267    0.1851    0.2119 C   0  0  0  0  0  0  0  0  0  0  0  0
    2.3190    0.1633   -0.0050 C   0  0  0  0  0  0  0  0  0  0  0  0
    3.0598    1.3373    0.1145 C   0  0  0  0  0  0  0  0  0  0  0  0
    4.4638    1.3342    0.0806 C   0  0  0  0  0  0  0  0  0  0  0  0
    5.2555    2.6111    0.2436 C   0  0  0  0  0  0  0  0  0  0  0  0
    4.7166    3.7018   -0.4795 O   0  0  0  0  0  0  0  0  0  0  0  0
    5.0713    0.0854   -0.0579 C   0  0  0  0  0  0  0  0  0  0  0  0
    4.3997   -1.0546   -0.2077 N   0  0  0  0  0  0  0  0  0  0  0  0
    3.0582   -1.0435   -0.2189 C   0  0  0  0  0  0  0  0  0  0  0  0
    2.4444   -2.2776   -0.3833 N   0  0  0  0  0  0  0  0  0  0  0  0
    3.2253   -3.4964   -0.1809 C   0  0  0  0  0  0  0  0  0  0  0  0
    2.1676   -4.6002   -0.2675 C   0  0  2  0  0  0  0  0  0  0  0  0
    2.7237   -6.0059   -0.4736 C   0  0  0  0  0  0  0  0  0  0  0  0
    1.2827   -4.0797   -1.4099 C   0  0  0  0  0  0  0  0  0  0  0  0
    1.2859   -2.5383   -1.2717 C   0  0  2  0  0  0  0  0  0  0  0  0
    1.3792   -1.8352   -2.6296 C   0  0  0  0  0  0  0  0  0  0  0  0
    0.5147    1.1553    0.6255 H   0  0  0  0  0  0  0  0  0  0  0  0
    0.5256   -0.6010    0.9232 H   0  0  0  0  0  0  0  0  0  0  0  0
    0.2465    0.0224   -0.7116 H   0  0  0  0  0  0  0  0  0  0  0  0
    2.5382    2.2869    0.2683 H   0  0  0  0  0  0  0  0  0  0  0  0
    6.3163    2.4210   -0.0186 H   0  0  0  0  0  0  0  0  0  0  0  0
    5.2497    2.9335    1.2997 H   0  0  0  0  0  0  0  0  0  0  0  0
    4.6410    3.4307   -1.4047 H   0  0  0  0  0  0  0  0  0  0  0  0
    6.1671    0.0049   -0.0544 H   0  0  0  0  0  0  0  0  0  0  0  0
    3.7514   -3.4583    0.7847 H   0  0  0  0  0  0  0  0  0  0  0  0
    4.0036   -3.6316   -0.9585 H   0  0  0  0  0  0  0  0  0  0  0  0
    1.5812   -4.5788    0.6690 H   0  0  0  0  0  0  0  0  0  0  0  0
    3.3240   -6.0650   -1.3973 H   0  0  0  0  0  0  0  0  0  0  0  0
    1.9137   -6.7490   -0.5529 H   0  0  0  0  0  0  0  0  0  0  0  0
    3.3708   -6.3088    0.3656 H   0  0  0  0  0  0  0  0  0  0  0  0
    0.2628   -4.4943   -1.3950 H   0  0  0  0  0  0  0  0  0  0  0  0
    1.7357   -4.3653   -2.3757 H   0  0  0  0  0  0  0  0  0  0  0  0
    0.3534   -2.2187   -0.7766 H   0  0  0  0  0  0  0  0  0  0  0  0
    2.2958   -2.1358   -3.1623 H   0  0  0  0  0  0  0  0  0  0  0  0
    1.3924   -0.7396   -2.5319 H   0  0  0  0  0  0  0  0  0  0  0  0
    0.5135   -2.1072   -3.2557 H   0  0  0  0  0  0  0  0  0  0  0  0
  1  2  1  0
  1 17  1  0
  1 18  1  0
  1 19  1  0
  2  3  2  0
  2  9  1  0
  3  4  1  0
  3 20  1  0
  4  5  1  0
  4  7  2  0
  5  6  1  0
  5 21  1  0
  5 22  1  0
  6 23  1  0
  7  8  1  0
  7 24  1  0
  8  9  2  0
  9 10  1  0
 10 11  1  0
 10 15  1  0
 11 12  1  0
 11 25  1  0
 11 26  1  0
 12 13  1  0
 12 14  1  0
 12 27  1  1
 13 28  1  0
 13 29  1  0
 13 30  1  0
 14 15  1  0
 14 31  1  0
 14 32  1  0
 15 16  1  0
 15 33  1  1
 16 34  1  0
 16 35  1  0
 16 36  1  0
M  END

