
     RDKit          3D

 36 37  0  0  0  0  0  0  0  0999 V2000
    1.5645   -0.9274   -2.2811 C   0  0  0  0  0  0  0  0  0  0  0  0
    2.6156   -1.3081   -1.4341 O   0  0  0  0  0  0  0  0  0  0  0  0
    3.7129   -0.4206   -1.4383 C   0  0  0  0  0  0  0  0  0  0  0  0
    4.7954   -1.0039   -0.5436 C   0  0  0  0  0  0  0  0  0  0  0  0
    5.2138   -2.3141   -0.9914 N   0  0  0  0  0  0  0  0  0  0  0  0
    6.4888   -2.5762   -1.4222 C   0  0  0  0  0  0  0  0  0  0  0  0
    7.3676   -1.7232   -1.4111 O   0  0  0  0  0  0  0  0  0  0  0  0
    6.7484   -3.9739   -1.9147 C   0  0  0  0  0  0  0  0  0  0  0  0
    5.8971   -5.0701   -1.6250 C   0  0  0  0  0  0  0  0  0  0  0  0
    6.1728   -6.3518   -2.0925 C   0  0  0  0  0  0  0  0  0  0  0  0
    7.3267   -6.5305   -2.8664 C   0  0  0  0  0  0  0  0  0  0  0  0
    7.8528   -7.6528   -3.4577 N   0  0  0  0  0  0  0  0  0  0  0  0
    7.4487   -8.5787   -3.4188 H   0  0  0  0  0  0  0  0  0  0  0  0
    9.0347   -7.3316   -4.1196 C   0  0  0  0  0  0  0  0  0  0  0  0
    9.7975   -8.3931   -4.8434 C   0  0  0  0  0  0  0  0  0  0  0  0
    9.2886   -5.9832   -3.9627 C   0  0  0  0  0  0  0  0  0  0  0  0
   10.4427   -5.1896   -4.4946 C   0  0  0  0  0  0  0  0  0  0  0  0
    8.2076   -5.4505   -3.1634 C   0  0  0  0  0  0  0  0  0  0  0  0
    7.9079   -4.1725   -2.6717 C   0  0  0  0  0  0  0  0  0  0  0  0
    0.7728   -1.6868   -2.2006 H   0  0  0  0  0  0  0  0  0  0  0  0
    1.8864   -0.8633   -3.3405 H   0  0  0  0  0  0  0  0  0  0  0  0
    1.1382    0.0560   -1.9963 H   0  0  0  0  0  0  0  0  0  0  0  0
    3.4112    0.5802   -1.0639 H   0  0  0  0  0  0  0  0  0  0  0  0
    4.1013   -0.2882   -2.4693 H   0  0  0  0  0  0  0  0  0  0  0  0
    4.4104   -1.0567    0.4910 H   0  0  0  0  0  0  0  0  0  0  0  0
    5.6834   -0.3566   -0.5484 H   0  0  0  0  0  0  0  0  0  0  0  0
    4.4743   -2.9786   -1.1819 H   0  0  0  0  0  0  0  0  0  0  0  0
    5.0183   -4.9280   -0.9919 H   0  0  0  0  0  0  0  0  0  0  0  0
    5.5131   -7.1890   -1.8505 H   0  0  0  0  0  0  0  0  0  0  0  0
    9.1911   -8.8591   -5.6401 H   0  0  0  0  0  0  0  0  0  0  0  0
   10.1186   -9.2006   -4.1618 H   0  0  0  0  0  0  0  0  0  0  0  0
   10.6986   -7.9769   -5.3124 H   0  0  0  0  0  0  0  0  0  0  0  0
   11.1371   -5.8100   -5.0802 H   0  0  0  0  0  0  0  0  0  0  0  0
   11.0228   -4.7239   -3.6793 H   0  0  0  0  0  0  0  0  0  0  0  0
   10.1013   -4.3687   -5.1487 H   0  0  0  0  0  0  0  0  0  0  0  0
    8.5563   -3.3141   -2.8582 H   0  0  0  0  0  0  0  0  0  0  0  0
  1  2  1  0
  1 20  1  0
  1 21  1  0
  1 22  1  0
  2  3  1  0
  3  4  1  0
  3 23  1  0
  3 24  1  0
  4  5  1  0
  4 25  1  0
  4 26  1  0
  5  6  1  0
  5 27  1  0
  6  7  2  0
  6  8  1  0
  8  9  2  0
  8 19  1  0
  9 10  1  0
  9 28  1  0
 10 11  2  0
 10 29  1  0
 11 12  1  0
 11 18  1  0
 12 13  1  0
 12 14  1  0
 14 15  1  0
 14 16  2  0
 15 30  1  0
 15 31  1  0
 15 32  1  0
 16 17  1  0
 16 18  1  0
 17 33  1  0
 17 34  1  0
 17 35  1  0
 18 19  2  0
 19 36  1  0
M  END

