
     RDKit          3D

 26 27  0  0  0  0  0  0  0  0999 V2000
    1.2344    0.2170   -1.3412 C   0  0  0  0  0  0  0  0  0  0  0  0
    2.6628    0.1096   -0.2495 S   0  0  1  0  0  0  0  0  0  0  0  0
    3.6900    1.0249   -0.7682 O   0  0  0  0  0  0  0  0  0  0  0  0
    2.1998    0.2280    1.1403 O   0  0  0  0  0  0  0  0  0  0  0  0
    3.3028   -1.5835   -0.5008 C   0  0  0  0  0  0  0  0  0  0  0  0
    4.4607   -1.6919   -1.2716 C   0  0  0  0  0  0  0  0  0  0  0  0
    5.0382   -2.9476   -1.4719 C   0  0  0  0  0  0  0  0  0  0  0  0
    4.4596   -4.0818   -0.9050 C   0  0  0  0  0  0  0  0  0  0  0  0
    3.3039   -3.9577   -0.1265 C   0  0  0  0  0  0  0  0  0  0  0  0
    2.5999   -5.4067    0.5466 Cl  0  0  0  0  0  0  0  0  0  0  0  0
    2.6999   -2.7076    0.0948 C   0  0  0  0  0  0  0  0  0  0  0  0
    1.4848   -2.5933    0.9485 C   0  0  0  0  0  0  0  0  0  0  0  0
    0.3260   -2.2660    0.5395 N   0  0  0  0  0  0  0  0  0  0  0  0
   -0.5295   -2.2099    1.7293 C   0  0  0  0  0  0  0  0  0  0  0  0
    0.3754   -2.7140    2.8827 C   0  0  0  0  0  0  0  0  0  0  0  0
    1.6690   -2.8563    2.2585 O   0  0  0  0  0  0  0  0  0  0  0  0
    0.8234    1.2215   -1.1653 H   0  0  0  0  0  0  0  0  0  0  0  0
    0.5245   -0.5704   -1.0522 H   0  0  0  0  0  0  0  0  0  0  0  0
    1.5806    0.1159   -2.3778 H   0  0  0  0  0  0  0  0  0  0  0  0
    4.9005   -0.7851   -1.6893 H   0  0  0  0  0  0  0  0  0  0  0  0
    5.9462   -3.0435   -2.0718 H   0  0  0  0  0  0  0  0  0  0  0  0
    4.8938   -5.0712   -1.0561 H   0  0  0  0  0  0  0  0  0  0  0  0
   -1.4296   -2.8292    1.5873 H   0  0  0  0  0  0  0  0  0  0  0  0
   -0.8637   -1.1700    1.8835 H   0  0  0  0  0  0  0  0  0  0  0  0
    0.0750   -3.6976    3.2778 H   0  0  0  0  0  0  0  0  0  0  0  0
    0.4731   -2.0041    3.7162 H   0  0  0  0  0  0  0  0  0  0  0  0
  2  1  1  6
  1 17  1  0
  1 18  1  0
  1 19  1  0
  2  3  2  0
  2  4  2  0
  2  5  1  0
  5  6  2  0
  5 11  1  0
  6  7  1  0
  6 20  1  0
  7  8  2  0
  7 21  1  0
  8  9  1  0
  8 22  1  0
  9 10  1  0
  9 11  2  0
 11 12  1  0
 12 13  2  0
 12 16  1  0
 13 14  1  0
 14 15  1  0
 14 23  1  0
 14 24  1  0
 15 16  1  0
 15 25  1  0
 15 26  1  0
M  END

