
     RDKit          3D

 48 51  0  0  0  0  0  0  0  0999 V2000
    2.1293    1.5260   -1.9318 C   0  0  0  0  0  0  0  0  0  0  0  0
    3.2444    0.7624   -1.2869 C   0  0  0  0  0  0  0  0  0  0  0  0
    4.3037    1.3074   -0.7620 N   0  0  0  0  0  0  0  0  0  0  0  0
    5.1777    0.3871   -0.2390 C   0  0  0  0  0  0  0  0  0  0  0  0
    6.4316    0.8785    0.4209 C   0  0  0  0  0  0  0  0  0  0  0  0
    4.7780   -0.9359   -0.3755 C   0  0  0  0  0  0  0  0  0  0  0  0
    5.5231   -2.1138    0.1328 C   0  0  0  0  0  0  0  0  0  0  0  0
    6.4749   -1.9871    0.8957 O   0  0  0  0  0  0  0  0  0  0  0  0
    5.1222   -3.3660   -0.2559 N   0  0  0  0  0  0  0  0  0  0  0  0
    5.8849   -4.5815    0.0164 C   0  0  0  0  0  0  0  0  0  0  0  0
    5.0696   -5.3065   -1.0924 C   0  0  2  0  0  0  0  0  0  0  0  0
    5.8944   -6.0462   -2.1486 C   0  0  0  0  0  0  0  0  0  0  0  0
    5.1416   -6.9415   -3.0200 N   0  0  0  0  0  0  0  0  0  0  0  0
    4.5296   -6.5825   -4.2162 C   0  0  0  0  0  0  0  0  0  0  0  0
    4.4329   -5.1895   -4.7435 C   0  0  0  0  0  0  0  0  0  0  0  0
    4.0860   -7.7678   -4.7636 C   0  0  0  0  0  0  0  0  0  0  0  0
    4.4051   -8.8248   -3.9659 N   0  0  0  0  0  0  0  0  0  0  0  0
    5.0367   -8.3249   -2.9192 C   0  0  0  0  0  0  0  0  0  0  0  0
    5.5932   -9.1773   -1.8496 C   0  0  0  0  0  0  0  0  0  0  0  0
    6.0140  -10.4745   -2.2107 C   0  0  0  0  0  0  0  0  0  0  0  0
    6.5262  -11.3528   -1.2580 C   0  0  0  0  0  0  0  0  0  0  0  0
    6.6313  -10.9614    0.0819 C   0  0  0  0  0  0  0  0  0  0  0  0
    6.2028   -9.6870    0.4582 C   0  0  0  0  0  0  0  0  0  0  0  0
    5.6839   -8.8050   -0.4947 C   0  0  0  0  0  0  0  0  0  0  0  0
    4.4362   -3.9234   -1.4302 C   0  0  0  0  0  0  0  0  0  0  0  0
    3.2275   -0.9846   -1.1886 S   0  0  0  0  0  0  0  0  0  0  0  0
    2.3062    2.5984   -1.7745 H   0  0  0  0  0  0  0  0  0  0  0  0
    1.1505    1.2568   -1.5043 H   0  0  0  0  0  0  0  0  0  0  0  0
    2.0837    1.3328   -3.0164 H   0  0  0  0  0  0  0  0  0  0  0  0
    6.5872    1.9324    0.1537 H   0  0  0  0  0  0  0  0  0  0  0  0
    7.3038    0.2749    0.1373 H   0  0  0  0  0  0  0  0  0  0  0  0
    6.3508    0.7968    1.5168 H   0  0  0  0  0  0  0  0  0  0  0  0
    5.7781   -4.9711    1.0417 H   0  0  0  0  0  0  0  0  0  0  0  0
    6.9628   -4.4664   -0.1979 H   0  0  0  0  0  0  0  0  0  0  0  0
    4.3199   -5.9890   -0.6675 H   0  0  0  0  0  0  0  0  0  0  0  0
    6.6603   -6.6505   -1.6423 H   0  0  0  0  0  0  0  0  0  0  0  0
    6.4380   -5.3208   -2.7755 H   0  0  0  0  0  0  0  0  0  0  0  0
    5.4113   -4.6806   -4.7861 H   0  0  0  0  0  0  0  0  0  0  0  0
    3.7539   -4.5519   -4.1525 H   0  0  0  0  0  0  0  0  0  0  0  0
    4.0378   -5.2215   -5.7688 H   0  0  0  0  0  0  0  0  0  0  0  0
    3.5489   -7.8944   -5.7040 H   0  0  0  0  0  0  0  0  0  0  0  0
    5.9213  -10.7738   -3.2557 H   0  0  0  0  0  0  0  0  0  0  0  0
    6.8493  -12.3516   -1.5632 H   0  0  0  0  0  0  0  0  0  0  0  0
    7.0365  -11.6493    0.8283 H   0  0  0  0  0  0  0  0  0  0  0  0
    6.2582   -9.3765    1.5048 H   0  0  0  0  0  0  0  0  0  0  0  0
    5.3135   -7.8363   -0.1598 H   0  0  0  0  0  0  0  0  0  0  0  0
    3.3363   -3.8807   -1.3920 H   0  0  0  0  0  0  0  0  0  0  0  0
    4.7756   -3.4814   -2.3823 H   0  0  0  0  0  0  0  0  0  0  0  0
  1  2  1  0
  1 27  1  0
  1 28  1  0
  1 29  1  0
  2  3  2  0
  2 26  1  0
  3  4  1  0
  4  5  1  0
  4  6  2  0
  5 30  1  0
  5 31  1  0
  5 32  1  0
  6  7  1  0
  6 26  1  0
  7  8  2  0
  7  9  1  0
  9 10  1  0
  9 25  1  0
 10 11  1  0
 10 33  1  0
 10 34  1  0
 11 12  1  0
 11 25  1  0
 11 35  1  1
 12 13  1  0
 12 36  1  0
 12 37  1  0
 13 14  1  0
 13 18  1  0
 14 15  1  0
 14 16  2  0
 15 38  1  0
 15 39  1  0
 15 40  1  0
 16 17  1  0
 16 41  1  0
 17 18  2  0
 18 19  1  0
 19 20  2  0
 19 24  1  0
 20 21  1  0
 20 42  1  0
 21 22  2  0
 21 43  1  0
 22 23  1  0
 22 44  1  0
 23 24  2  0
 23 45  1  0
 24 46  1  0
 25 47  1  0
 25 48  1  0
M  END

