
     RDKit          3D

 65 69  0  0  0  0  0  0  0  0999 V2000
    5.6211   -1.3071    1.7751 O   0  0  0  0  0  0  0  0  0  0  0  0
    5.8219   -0.3881    1.0221 C   0  0  0  0  0  0  0  0  0  0  0  0
    6.8535   -0.3857    0.1742 O   0  0  0  0  0  0  0  0  0  0  0  0
    4.9127    0.8488    0.9873 C   0  0  0  0  0  0  0  0  0  0  0  0
    4.4184    1.2370   -0.4417 C   0  0  1  0  0  0  0  0  0  0  0  0
    2.9276    1.0526   -0.6656 C   0  0  0  0  0  0  0  0  0  0  0  0
    1.9606    1.4522    0.2629 C   0  0  0  0  0  0  0  0  0  0  0  0
    0.6472    1.3341    0.0458 N   0  0  0  0  0  0  0  0  0  0  0  0
    0.2224    0.8035   -1.0799 C   0  0  0  0  0  0  0  0  0  0  0  0
    1.0989    0.3282   -2.0983 C   0  0  0  0  0  0  0  0  0  0  0  0
    2.4677    0.4836   -1.8637 C   0  0  0  0  0  0  0  0  0  0  0  0
    0.5754   -0.2379   -3.2523 N   0  0  0  0  0  0  0  0  0  0  0  0
   -0.8113   -0.6579   -3.2151 C   0  0  0  0  0  0  0  0  0  0  0  0
   -1.6140    0.4419   -2.5310 C   0  0  0  0  0  0  0  0  0  0  0  0
   -1.1274    0.6982   -1.2206 O   0  0  0  0  0  0  0  0  0  0  0  0
    4.8600    2.5883   -0.8362 N   0  0  0  0  0  0  0  0  0  0  0  0
    4.0716    3.8186   -0.7596 C   0  0  0  0  0  0  0  0  0  0  0  0
    4.9335    4.8243   -1.5433 C   0  0  0  0  0  0  0  0  0  0  0  0
    6.3732    4.3063   -1.3764 C   0  0  2  0  0  0  0  0  0  0  0  0
    7.3590    4.5968   -2.5101 C   0  0  0  0  0  0  0  0  0  0  0  0
    7.7116    6.0788   -2.6547 C   0  0  0  0  0  0  0  0  0  0  0  0
    8.7318    6.3523   -3.7697 C   0  0  0  0  0  0  0  0  0  0  0  0
    9.1526    7.8040   -3.8468 C   0  0  0  0  0  0  0  0  0  0  0  0
    8.9188    8.5827   -4.9857 C   0  0  0  0  0  0  0  0  0  0  0  0
    9.3441    9.9182   -4.9763 C   0  0  0  0  0  0  0  0  0  0  0  0
    9.9815   10.4530   -3.8632 C   0  0  0  0  0  0  0  0  0  0  0  0
   10.1541    9.5797   -2.7516 C   0  0  0  0  0  0  0  0  0  0  0  0
    9.7536    8.3035   -2.7584 N   0  0  0  0  0  0  0  0  0  0  0  0
   10.7322   10.0380   -1.5928 N   0  0  0  0  0  0  0  0  0  0  0  0
   11.3709   11.3339   -1.4925 C   0  0  0  0  0  0  0  0  0  0  0  0
   10.6110   12.3576   -2.3390 C   0  0  0  0  0  0  0  0  0  0  0  0
   10.4972   11.8752   -3.7908 C   0  0  0  0  0  0  0  0  0  0  0  0
    6.1660    2.8159   -1.1236 C   0  0  0  0  0  0  0  0  0  0  0  0
    7.0449    1.9529   -1.1364 O   0  0  0  0  0  0  0  0  0  0  0  0
    6.9388    0.4657   -0.3301 H   0  0  0  0  0  0  0  0  0  0  0  0
    5.4777    1.6906    1.4211 H   0  0  0  0  0  0  0  0  0  0  0  0
    4.0782    0.6323    1.6638 H   0  0  0  0  0  0  0  0  0  0  0  0
    4.9299    0.5728   -1.1542 H   0  0  0  0  0  0  0  0  0  0  0  0
    2.2512    1.8904    1.2239 H   0  0  0  0  0  0  0  0  0  0  0  0
    3.1830    0.1390   -2.6172 H   0  0  0  0  0  0  0  0  0  0  0  0
    1.2131   -0.8064   -3.7980 H   0  0  0  0  0  0  0  0  0  0  0  0
   -0.9576   -1.6099   -2.6649 H   0  0  0  0  0  0  0  0  0  0  0  0
   -1.1842   -0.8033   -4.2416 H   0  0  0  0  0  0  0  0  0  0  0  0
   -2.6675    0.1503   -2.4175 H   0  0  0  0  0  0  0  0  0  0  0  0
   -1.5689    1.3669   -3.1347 H   0  0  0  0  0  0  0  0  0  0  0  0
    3.9292    4.1304    0.2927 H   0  0  0  0  0  0  0  0  0  0  0  0
    3.0742    3.6768   -1.1978 H   0  0  0  0  0  0  0  0  0  0  0  0
    4.7911    5.8553   -1.1909 H   0  0  0  0  0  0  0  0  0  0  0  0
    4.6555    4.7939   -2.6102 H   0  0  0  0  0  0  0  0  0  0  0  0
    6.8024    4.7023   -0.4346 H   0  0  0  0  0  0  0  0  0  0  0  0
    6.9380    4.2136   -3.4582 H   0  0  0  0  0  0  0  0  0  0  0  0
    8.2729    4.0083   -2.3237 H   0  0  0  0  0  0  0  0  0  0  0  0
    8.1294    6.4598   -1.7075 H   0  0  0  0  0  0  0  0  0  0  0  0
    6.7989    6.6702   -2.8494 H   0  0  0  0  0  0  0  0  0  0  0  0
    8.3259    6.0311   -4.7431 H   0  0  0  0  0  0  0  0  0  0  0  0
    9.6320    5.7404   -3.5812 H   0  0  0  0  0  0  0  0  0  0  0  0
    8.4225    8.1569   -5.8597 H   0  0  0  0  0  0  0  0  0  0  0  0
    9.1774   10.5513   -5.8538 H   0  0  0  0  0  0  0  0  0  0  0  0
   10.9222    9.3247   -0.8989 H   0  0  0  0  0  0  0  0  0  0  0  0
   12.4306   11.2976   -1.8236 H   0  0  0  0  0  0  0  0  0  0  0  0
   11.3815   11.6437   -0.4349 H   0  0  0  0  0  0  0  0  0  0  0  0
   11.1229   13.3316   -2.2912 H   0  0  0  0  0  0  0  0  0  0  0  0
    9.6032   12.4955   -1.9116 H   0  0  0  0  0  0  0  0  0  0  0  0
   11.4930   11.9340   -4.2695 H   0  0  0  0  0  0  0  0  0  0  0  0
    9.8425   12.5460   -4.3712 H   0  0  0  0  0  0  0  0  0  0  0  0
  1  2  2  0
  2  3  1  0
  2  4  1  0
  3 35  1  0
  4  5  1  0
  4 36  1  0
  4 37  1  0
  5  6  1  0
  5 16  1  0
  5 38  1  6
  6  7  2  0
  6 11  1  0
  7  8  1  0
  7 39  1  0
  8  9  2  0
  9 10  1  0
  9 15  1  0
 10 11  2  0
 10 12  1  0
 11 40  1  0
 12 13  1  0
 12 41  1  0
 13 14  1  0
 13 42  1  0
 13 43  1  0
 14 15  1  0
 14 44  1  0
 14 45  1  0
 16 17  1  0
 16 33  1  0
 17 18  1  0
 17 46  1  0
 17 47  1  0
 18 19  1  0
 18 48  1  0
 18 49  1  0
 19 20  1  0
 19 33  1  0
 19 50  1  1
 20 21  1  0
 20 51  1  0
 20 52  1  0
 21 22  1  0
 21 53  1  0
 21 54  1  0
 22 23  1  0
 22 55  1  0
 22 56  1  0
 23 24  2  0
 23 28  1  0
 24 25  1  0
 24 57  1  0
 25 26  2  0
 25 58  1  0
 26 27  1  0
 26 32  1  0
 27 28  2  0
 27 29  1  0
 29 30  1  0
 29 59  1  0
 30 31  1  0
 30 60  1  0
 30 61  1  0
 31 32  1  0
 31 62  1  0
 31 63  1  0
 32 64  1  0
 32 65  1  0
 33 34  2  0
M  END

