
     RDKit          3D

 34 34  0  0  0  0  0  0  0  0999 V2000
    1.0776    0.2279    0.7268 C   0  0  0  0  0  0  0  0  0  0  0  0
    2.5004    0.0323    0.2613 C   0  0  0  0  0  0  0  0  0  0  0  0
    3.3758    1.1182    0.0864 C   0  0  0  0  0  0  0  0  0  0  0  0
    4.7021    0.9670   -0.3241 C   0  0  0  0  0  0  0  0  0  0  0  0
    5.6253    2.1496   -0.4601 C   0  0  0  0  0  0  0  0  0  0  0  0
    5.1993   -0.3303   -0.6012 C   0  0  0  0  0  0  0  0  0  0  0  0
    6.5022   -0.3944   -0.9473 O   0  0  0  0  0  0  0  0  0  0  0  0
    7.3767   -1.4375   -0.5048 C   0  0  0  0  0  0  0  0  0  0  0  0
    8.7457   -0.8307   -0.2326 C   0  0  0  0  0  0  0  0  0  0  0  0
    9.7832   -1.8862    0.1672 C   0  0  0  0  0  0  0  0  0  0  0  0
   11.1594   -1.2820    0.4448 C   0  0  0  0  0  0  0  0  0  0  0  0
   12.4680   -2.5063    0.8458 S   0  0  0  0  0  0  0  0  0  0  0  0
    4.3042   -1.4156   -0.4820 C   0  0  0  0  0  0  0  0  0  0  0  0
    4.6521   -2.7736   -0.9229 N   0  0  0  0  0  0  0  0  0  0  0  0
    5.3833   -2.8817   -1.8979 O   0  0  0  0  0  0  0  0  0  0  0  0
    4.1500   -3.7128   -0.3246 O   0  0  0  0  0  0  0  0  0  0  0  0
    2.9910   -1.2394   -0.0275 C   0  0  0  0  0  0  0  0  0  0  0  0
    0.8656    1.2862    0.9379 H   0  0  0  0  0  0  0  0  0  0  0  0
    0.8733   -0.3461    1.6454 H   0  0  0  0  0  0  0  0  0  0  0  0
    0.3554   -0.1131   -0.0336 H   0  0  0  0  0  0  0  0  0  0  0  0
    3.0133    2.1284    0.2984 H   0  0  0  0  0  0  0  0  0  0  0  0
    5.0980    3.0881   -0.2383 H   0  0  0  0  0  0  0  0  0  0  0  0
    6.0439    2.2146   -1.4769 H   0  0  0  0  0  0  0  0  0  0  0  0
    6.4859    2.0641    0.2233 H   0  0  0  0  0  0  0  0  0  0  0  0
    7.4377   -2.2174   -1.2782 H   0  0  0  0  0  0  0  0  0  0  0  0
    6.9649   -1.9033    0.4092 H   0  0  0  0  0  0  0  0  0  0  0  0
    8.6532   -0.0663    0.5586 H   0  0  0  0  0  0  0  0  0  0  0  0
    9.0767   -0.3012   -1.1427 H   0  0  0  0  0  0  0  0  0  0  0  0
    9.8782   -2.6461   -0.6269 H   0  0  0  0  0  0  0  0  0  0  0  0
    9.4376   -2.4272    1.0668 H   0  0  0  0  0  0  0  0  0  0  0  0
   11.1089   -0.5287    1.2471 H   0  0  0  0  0  0  0  0  0  0  0  0
   11.5410   -0.7645   -0.4503 H   0  0  0  0  0  0  0  0  0  0  0  0
   11.9345   -2.9294    2.0160 H   0  0  0  0  0  0  0  0  0  0  0  0
    2.3627   -2.1262    0.0660 H   0  0  0  0  0  0  0  0  0  0  0  0
  1  2  1  0
  1 18  1  0
  1 19  1  0
  1 20  1  0
  2  3  2  0
  2 17  1  0
  3  4  1  0
  3 21  1  0
  4  5  1  0
  4  6  2  0
  5 22  1  0
  5 23  1  0
  5 24  1  0
  6  7  1  0
  6 13  1  0
  7  8  1  0
  8  9  1  0
  8 25  1  0
  8 26  1  0
  9 10  1  0
  9 27  1  0
  9 28  1  0
 10 11  1  0
 10 29  1  0
 10 30  1  0
 11 12  1  0
 11 31  1  0
 11 32  1  0
 12 33  1  0
 13 14  1  0
 13 17  2  0
 14 15  2  0
 14 16  1  0
 17 34  1  0
M  CHG  2  14   1  16  -1
M  END

