
     RDKit          3D

 66 69  0  0  0  0  0  0  0  0999 V2000
    3.2925    2.1071    0.8275 C   0  0  0  0  0  0  0  0  0  0  0  0
    2.6222    1.1685    1.8466 C   0  0  1  0  0  0  0  0  0  0  0  0
    3.1381    1.3096    2.8133 H   0  0  0  0  0  0  0  0  0  0  0  0
    1.2166    1.4743    2.1189 N   0  0  0  0  0  0  0  0  0  0  0  0
    0.3273    1.7574    0.9911 C   0  0  0  0  0  0  0  0  0  0  0  0
   -1.0756    1.9704    1.4826 C   0  0  0  0  0  0  0  0  0  0  0  0
   -1.7924    3.0862    1.2643 C   0  0  0  0  0  0  0  0  0  0  0  0
   -3.1692    3.3706    1.7026 C   0  0  0  0  0  0  0  0  0  0  0  0
   -3.9750    2.4297    2.3765 C   0  0  0  0  0  0  0  0  0  0  0  0
   -5.2704    2.7514    2.7779 C   0  0  0  0  0  0  0  0  0  0  0  0
   -5.8002    4.0210    2.5157 C   0  0  0  0  0  0  0  0  0  0  0  0
   -5.0184    4.9645    1.8450 C   0  0  0  0  0  0  0  0  0  0  0  0
   -3.7205    4.6405    1.4438 C   0  0  0  0  0  0  0  0  0  0  0  0
    2.8042   -0.3342    1.4719 C   0  0  2  0  0  0  0  0  0  0  0  0
    2.2722   -0.5133    0.5246 H   0  0  0  0  0  0  0  0  0  0  0  0
    2.1940   -1.2899    2.5326 C   0  0  0  0  0  0  0  0  0  0  0  0
    0.7142   -1.4780    2.4689 C   0  0  0  0  0  0  0  0  0  0  0  0
   -0.2435   -1.7245    3.4232 C   0  0  0  0  0  0  0  0  0  0  0  0
   -1.4668   -1.9345    2.7185 C   0  0  0  0  0  0  0  0  0  0  0  0
   -1.1730   -1.8048    1.3801 C   0  0  0  0  0  0  0  0  0  0  0  0
   -1.9591   -1.7950    0.1233 C   0  0  0  0  0  0  0  0  0  0  0  0
   -1.5330   -1.2713   -0.8929 O   0  0  0  0  0  0  0  0  0  0  0  0
   -3.1894   -2.4081    0.2382 N   0  0  0  0  0  0  0  0  0  0  0  0
   -4.2230   -2.5050   -0.7118 C   0  0  0  0  0  0  0  0  0  0  0  0
   -4.1509   -1.9303   -1.9942 C   0  0  0  0  0  0  0  0  0  0  0  0
   -5.2296   -2.0703   -2.8708 C   0  0  0  0  0  0  0  0  0  0  0  0
   -6.3801   -2.7728   -2.5021 C   0  0  0  0  0  0  0  0  0  0  0  0
   -6.4484   -3.3451   -1.2281 C   0  0  0  0  0  0  0  0  0  0  0  0
   -5.3819   -3.2130   -0.3403 C   0  0  0  0  0  0  0  0  0  0  0  0
    0.1538   -1.5334    1.2401 O   0  0  0  0  0  0  0  0  0  0  0  0
    4.2651   -0.6853    1.2344 C   0  0  0  0  0  0  0  0  0  0  0  0
    5.2048   -0.6380    2.2817 C   0  0  0  0  0  0  0  0  0  0  0  0
    6.5425   -0.9652    2.0698 C   0  0  0  0  0  0  0  0  0  0  0  0
    6.9455   -1.3477    0.7893 C   0  0  0  0  0  0  0  0  0  0  0  0
    8.3613   -1.6963    0.5550 N   0  0  0  0  0  0  0  0  0  0  0  0
    9.1233   -1.6321    1.5068 O   0  0  0  0  0  0  0  0  0  0  0  0
    8.6822   -2.0265   -0.5754 O   0  0  0  0  0  0  0  0  0  0  0  0
    6.0441   -1.4106   -0.2727 C   0  0  0  0  0  0  0  0  0  0  0  0
    4.7094   -1.0790   -0.0393 C   0  0  0  0  0  0  0  0  0  0  0  0
    3.1035    3.1584    1.0984 H   0  0  0  0  0  0  0  0  0  0  0  0
    2.9067    1.9474   -0.1920 H   0  0  0  0  0  0  0  0  0  0  0  0
    4.3818    1.9595    0.7967 H   0  0  0  0  0  0  0  0  0  0  0  0
    1.1522    2.2332    2.7940 H   0  0  0  0  0  0  0  0  0  0  0  0
    0.3296    0.8852    0.3131 H   0  0  0  0  0  0  0  0  0  0  0  0
    0.6381    2.6336    0.3857 H   0  0  0  0  0  0  0  0  0  0  0  0
   -1.4945    1.1415    2.0629 H   0  0  0  0  0  0  0  0  0  0  0  0
   -1.3177    3.8950    0.6944 H   0  0  0  0  0  0  0  0  0  0  0  0
   -3.5840    1.4309    2.5821 H   0  0  0  0  0  0  0  0  0  0  0  0
   -5.8768    2.0042    3.2970 H   0  0  0  0  0  0  0  0  0  0  0  0
   -6.8172    4.2691    2.8299 H   0  0  0  0  0  0  0  0  0  0  0  0
   -5.4207    5.9582    1.6310 H   0  0  0  0  0  0  0  0  0  0  0  0
   -3.1152    5.3848    0.9181 H   0  0  0  0  0  0  0  0  0  0  0  0
    2.4523   -0.9605    3.5513 H   0  0  0  0  0  0  0  0  0  0  0  0
    2.6631   -2.2821    2.4029 H   0  0  0  0  0  0  0  0  0  0  0  0
   -0.0914   -1.7385    4.5000 H   0  0  0  0  0  0  0  0  0  0  0  0
   -2.4449   -2.1242    3.1576 H   0  0  0  0  0  0  0  0  0  0  0  0
   -3.3607   -2.8989    1.1077 H   0  0  0  0  0  0  0  0  0  0  0  0
   -3.2537   -1.3897   -2.2854 H   0  0  0  0  0  0  0  0  0  0  0  0
   -5.1622   -1.6190   -3.8642 H   0  0  0  0  0  0  0  0  0  0  0  0
   -7.2148   -2.8748   -3.1994 H   0  0  0  0  0  0  0  0  0  0  0  0
   -7.3386   -3.8992   -0.9193 H   0  0  0  0  0  0  0  0  0  0  0  0
   -5.4447   -3.6623    0.6559 H   0  0  0  0  0  0  0  0  0  0  0  0
    4.8901   -0.3407    3.2851 H   0  0  0  0  0  0  0  0  0  0  0  0
    7.2785   -0.9317    2.8727 H   0  0  0  0  0  0  0  0  0  0  0  0
    6.3979   -1.7168   -1.2568 H   0  0  0  0  0  0  0  0  0  0  0  0
    3.9949   -1.1274   -0.8649 H   0  0  0  0  0  0  0  0  0  0  0  0
  1  2  1  0
  1 40  1  0
  1 41  1  0
  1 42  1  0
  2  3  1  1
  2  4  1  0
  2 14  1  0
  4  5  1  0
  4 43  1  0
  5  6  1  0
  5 44  1  0
  5 45  1  0
  6  7  2  0
  6 46  1  0
  7  8  1  0
  7 47  1  0
  8  9  2  0
  8 13  1  0
  9 10  1  0
  9 48  1  0
 10 11  2  0
 10 49  1  0
 11 12  1  0
 11 50  1  0
 12 13  2  0
 12 51  1  0
 13 52  1  0
 14 15  1  6
 14 16  1  0
 14 31  1  0
 16 17  1  0
 16 53  1  0
 16 54  1  0
 17 18  2  0
 17 30  1  0
 18 19  1  0
 18 55  1  0
 19 20  2  0
 19 56  1  0
 20 21  1  0
 20 30  1  0
 21 22  2  0
 21 23  1  0
 23 24  1  0
 23 57  1  0
 24 25  2  0
 24 29  1  0
 25 26  1  0
 25 58  1  0
 26 27  2  0
 26 59  1  0
 27 28  1  0
 27 60  1  0
 28 29  2  0
 28 61  1  0
 29 62  1  0
 31 32  2  0
 31 39  1  0
 32 33  1  0
 32 63  1  0
 33 34  2  0
 33 64  1  0
 34 35  1  0
 34 38  1  0
 35 36  2  0
 35 37  1  0
 38 39  2  0
 38 65  1  0
 39 66  1  0
M  CHG  2  35   1  37  -1
M  END

