
     RDKit          3D

 43 46  0  0  0  0  0  0  0  0999 V2000
    1.6382   -1.0049    2.1962 C   0  0  0  0  0  0  0  0  0  0  0  0
    2.7417   -0.5077    1.3026 C   0  0  0  0  0  0  0  0  0  0  0  0
    3.4107    0.5826    1.6974 N   0  0  0  0  0  0  0  0  0  0  0  0
    4.4194    1.0418    0.9555 C   0  0  0  0  0  0  0  0  0  0  0  0
    4.8331    0.4427   -0.2362 C   0  0  0  0  0  0  0  0  0  0  0  0
    4.1465   -0.6927   -0.6649 C   0  0  0  0  0  0  0  0  0  0  0  0
    3.0838   -1.1689    0.1034 C   0  0  0  0  0  0  0  0  0  0  0  0
    2.3709   -2.3466   -0.3207 N   0  0  0  0  0  0  0  0  0  0  0  0
    1.3984   -2.3040   -1.3309 C   0  0  0  0  0  0  0  0  0  0  0  0
    1.0298   -0.9874   -1.8731 C   0  0  0  0  0  0  0  0  0  0  0  0
    0.1582   -0.8571   -2.8979 C   0  0  0  0  0  0  0  0  0  0  0  0
   -0.2943    0.3941   -3.5018 C   0  0  0  0  0  0  0  0  0  0  0  0
    0.1095    1.6777   -3.0726 C   0  0  0  0  0  0  0  0  0  0  0  0
   -0.3585    2.8344   -3.6896 C   0  0  0  0  0  0  0  0  0  0  0  0
   -1.2533    2.7445   -4.7646 C   0  0  0  0  0  0  0  0  0  0  0  0
   -1.6752    1.4933   -5.2163 C   0  0  0  0  0  0  0  0  0  0  0  0
   -1.1948    0.3497   -4.5850 C   0  0  0  0  0  0  0  0  0  0  0  0
   -1.6113   -0.8444   -5.0333 F   0  0  0  0  0  0  0  0  0  0  0  0
    0.8094   -3.3705   -1.7819 N   0  0  0  0  0  0  0  0  0  0  0  0
    1.1255   -4.6000   -1.2591 C   0  0  0  0  0  0  0  0  0  0  0  0
    0.4917   -5.7566   -1.7704 C   0  0  0  0  0  0  0  0  0  0  0  0
    0.7913   -7.0057   -1.2465 C   0  0  0  0  0  0  0  0  0  0  0  0
    1.7255   -7.1439   -0.1998 C   0  0  0  0  0  0  0  0  0  0  0  0
    2.3575   -6.0197    0.3152 C   0  0  0  0  0  0  0  0  0  0  0  0
    2.0643   -4.7481   -0.2091 C   0  0  0  0  0  0  0  0  0  0  0  0
    2.7404   -3.5597    0.3212 C   0  0  0  0  0  0  0  0  0  0  0  0
    3.5598   -3.5577    1.2216 O   0  0  0  0  0  0  0  0  0  0  0  0
    1.4044   -0.2355    2.9427 H   0  0  0  0  0  0  0  0  0  0  0  0
    1.9669   -1.9184    2.7190 H   0  0  0  0  0  0  0  0  0  0  0  0
    0.7281   -1.2588    1.6308 H   0  0  0  0  0  0  0  0  0  0  0  0
    4.9298    1.9376    1.3296 H   0  0  0  0  0  0  0  0  0  0  0  0
    5.6703    0.8490   -0.8075 H   0  0  0  0  0  0  0  0  0  0  0  0
    4.4250   -1.2126   -1.5847 H   0  0  0  0  0  0  0  0  0  0  0  0
    1.4820   -0.1118   -1.4089 H   0  0  0  0  0  0  0  0  0  0  0  0
   -0.2516   -1.7780   -3.3185 H   0  0  0  0  0  0  0  0  0  0  0  0
    0.8044    1.7640   -2.2349 H   0  0  0  0  0  0  0  0  0  0  0  0
   -0.0276    3.8122   -3.3329 H   0  0  0  0  0  0  0  0  0  0  0  0
   -1.6237    3.6497   -5.2514 H   0  0  0  0  0  0  0  0  0  0  0  0
   -2.3712    1.3828   -6.0499 H   0  0  0  0  0  0  0  0  0  0  0  0
   -0.2313   -5.6302   -2.5784 H   0  0  0  0  0  0  0  0  0  0  0  0
    0.2959   -7.8934   -1.6489 H   0  0  0  0  0  0  0  0  0  0  0  0
    1.9503   -8.1340    0.2037 H   0  0  0  0  0  0  0  0  0  0  0  0
    3.0868   -6.0894    1.1247 H   0  0  0  0  0  0  0  0  0  0  0  0
  1  2  1  0
  1 28  1  0
  1 29  1  0
  1 30  1  0
  2  3  2  0
  2  7  1  0
  3  4  1  0
  4  5  2  0
  4 31  1  0
  5  6  1  0
  5 32  1  0
  6  7  2  0
  6 33  1  0
  7  8  1  0
  8  9  1  0
  8 26  1  0
  9 10  1  0
  9 19  2  0
 10 11  2  0
 10 34  1  0
 11 12  1  0
 11 35  1  0
 12 13  2  0
 12 17  1  0
 13 14  1  0
 13 36  1  0
 14 15  2  0
 14 37  1  0
 15 16  1  0
 15 38  1  0
 16 17  2  0
 16 39  1  0
 17 18  1  0
 19 20  1  0
 20 21  2  0
 20 25  1  0
 21 22  1  0
 21 40  1  0
 22 23  2  0
 22 41  1  0
 23 24  1  0
 23 42  1  0
 24 25  2  0
 24 43  1  0
 25 26  1  0
 26 27  2  0
M  END

