
     RDKit          3D

 39 42  0  0  0  0  0  0  0  0999 V2000
    0.9832    0.2099   -0.3866 C   0  0  0  0  0  0  0  0  0  0  0  0
    2.4664    0.0918   -0.1877 C   0  0  0  0  0  0  0  0  0  0  0  0
    3.1331   -1.0989   -0.0759 C   0  0  0  0  0  0  0  0  0  0  0  0
    2.5032   -2.4442   -0.1417 C   0  0  0  0  0  0  0  0  0  0  0  0
    2.6545   -3.3739    0.9039 C   0  0  0  0  0  0  0  0  0  0  0  0
    2.0790   -4.6411    0.8564 C   0  0  0  0  0  0  0  0  0  0  0  0
    1.3370   -5.0354   -0.2707 C   0  0  0  0  0  0  0  0  0  0  0  0
    0.7519   -6.3157   -0.3366 N   0  0  0  0  0  0  0  0  0  0  0  0
   -0.4093   -6.6432   -1.0210 C   0  0  0  0  0  0  0  0  0  0  0  0
   -0.6537   -7.9858   -0.8449 C   0  0  0  0  0  0  0  0  0  0  0  0
    0.3978   -8.5075   -0.0296 C   0  0  0  0  0  0  0  0  0  0  0  0
    1.2414   -7.4628    0.2708 C   0  0  0  0  0  0  0  0  0  0  0  0
    1.1867   -4.1344   -1.3356 C   0  0  0  0  0  0  0  0  0  0  0  0
    1.7594   -2.8705   -1.2523 C   0  0  0  0  0  0  0  0  0  0  0  0
    1.6153   -2.0497   -2.2983 F   0  0  0  0  0  0  0  0  0  0  0  0
    4.4977   -1.1295    0.1514 N   0  0  0  0  0  0  0  0  0  0  0  0
    4.9541   -2.0334    0.1579 H   0  0  0  0  0  0  0  0  0  0  0  0
    5.2823   -0.0066    0.2579 C   0  0  0  0  0  0  0  0  0  0  0  0
    6.6692   -0.1422    0.4768 C   0  0  0  0  0  0  0  0  0  0  0  0
    7.4320    1.0063    0.5804 C   0  0  0  0  0  0  0  0  0  0  0  0
    8.7473    0.8939    0.7889 F   0  0  0  0  0  0  0  0  0  0  0  0
    6.8798    2.2869    0.4770 C   0  0  0  0  0  0  0  0  0  0  0  0
    5.5135    2.3929    0.2586 C   0  0  0  0  0  0  0  0  0  0  0  0
    5.0075    3.6151    0.1623 F   0  0  0  0  0  0  0  0  0  0  0  0
    4.6664    1.2657    0.1386 C   0  0  0  0  0  0  0  0  0  0  0  0
    3.2044    1.3725   -0.1078 C   0  0  0  0  0  0  0  0  0  0  0  0
    2.6211    2.4435   -0.2294 O   0  0  0  0  0  0  0  0  0  0  0  0
    0.4468   -0.7107   -0.1199 H   0  0  0  0  0  0  0  0  0  0  0  0
    0.7452    0.4573   -1.4347 H   0  0  0  0  0  0  0  0  0  0  0  0
    0.5997    1.0434    0.2201 H   0  0  0  0  0  0  0  0  0  0  0  0
    3.2086   -3.0758    1.7975 H   0  0  0  0  0  0  0  0  0  0  0  0
    2.1757   -5.3131    1.7094 H   0  0  0  0  0  0  0  0  0  0  0  0
   -0.9890   -5.8813   -1.5349 H   0  0  0  0  0  0  0  0  0  0  0  0
   -1.5034   -8.5339   -1.2476 H   0  0  0  0  0  0  0  0  0  0  0  0
    0.5267   -9.5395    0.2914 H   0  0  0  0  0  0  0  0  0  0  0  0
    2.1756   -7.4466    0.8252 H   0  0  0  0  0  0  0  0  0  0  0  0
    0.6586   -4.4083   -2.2487 H   0  0  0  0  0  0  0  0  0  0  0  0
    7.1430   -1.1212    0.5659 H   0  0  0  0  0  0  0  0  0  0  0  0
    7.5001    3.1786    0.5636 H   0  0  0  0  0  0  0  0  0  0  0  0
  1  2  1  0
  1 28  1  0
  1 29  1  0
  1 30  1  0
  2  3  2  0
  2 26  1  0
  3  4  1  0
  3 16  1  0
  4  5  2  0
  4 14  1  0
  5  6  1  0
  5 31  1  0
  6  7  2  0
  6 32  1  0
  7  8  1  0
  7 13  1  0
  8  9  1  0
  8 12  1  0
  9 10  2  0
  9 33  1  0
 10 11  1  0
 10 34  1  0
 11 12  2  0
 11 35  1  0
 12 36  1  0
 13 14  2  0
 13 37  1  0
 14 15  1  0
 16 17  1  0
 16 18  1  0
 18 19  1  0
 18 25  2  0
 19 20  2  0
 19 38  1  0
 20 21  1  0
 20 22  1  0
 22 23  2  0
 22 39  1  0
 23 24  1  0
 23 25  1  0
 25 26  1  0
 26 27  2  0
M  END

