
     RDKit          3D

 28 28  0  0  0  0  0  0  0  0999 V2000
    1.5893    1.0765   -4.8419 N   0  0  0  0  0  0  0  0  0  0  0  0
    2.9330    0.8739   -4.8240 C   0  0  0  0  0  0  0  0  0  0  0  0
    3.5091    0.0221   -5.4741 O   0  0  0  0  0  0  0  0  0  0  0  0
    3.6989    1.8486   -3.9073 C   0  0  1  0  0  0  0  0  0  0  0  0
    2.8648    2.4813   -2.9431 O   0  0  0  0  0  0  0  0  0  0  0  0
    4.9009    1.1663   -3.2655 C   0  0  0  0  0  0  0  0  0  0  0  0
    5.6795    2.1846   -2.5652 N   0  0  0  0  0  0  0  0  0  0  0  0
    7.1006    1.7599   -1.7834 S   0  0  1  0  0  0  0  0  0  0  0  0
    6.9430    2.0784   -0.3609 O   0  0  0  0  0  0  0  0  0  0  0  0
    7.4781    0.4212   -2.2280 O   0  0  0  0  0  0  0  0  0  0  0  0
    8.3111    2.9531   -2.4193 C   0  0  0  0  0  0  0  0  0  0  0  0
    8.9283    3.7717   -1.4700 C   0  0  0  0  0  0  0  0  0  0  0  0
    9.9096    4.6818   -1.8653 C   0  0  0  0  0  0  0  0  0  0  0  0
   10.2744    4.7740   -3.2068 C   0  0  0  0  0  0  0  0  0  0  0  0
    9.6592    3.9561   -4.1612 C   0  0  0  0  0  0  0  0  0  0  0  0
   10.1402    4.1061   -5.8259 Cl  0  0  0  0  0  0  0  0  0  0  0  0
    8.6709    3.0301   -3.7772 C   0  0  0  0  0  0  0  0  0  0  0  0
    7.9210    2.0331   -4.9813 Cl  0  0  0  0  0  0  0  0  0  0  0  0
    1.0235    0.5312   -5.4814 H   0  0  0  0  0  0  0  0  0  0  0  0
    1.1879    1.8625   -4.3460 H   0  0  0  0  0  0  0  0  0  0  0  0
    4.0701    2.6654   -4.5498 H   0  0  0  0  0  0  0  0  0  0  0  0
    2.5709    1.8048   -2.3142 H   0  0  0  0  0  0  0  0  0  0  0  0
    5.5090    0.6938   -4.0455 H   0  0  0  0  0  0  0  0  0  0  0  0
    4.5520    0.3563   -2.5943 H   0  0  0  0  0  0  0  0  0  0  0  0
    5.1191    2.7857   -1.9602 H   0  0  0  0  0  0  0  0  0  0  0  0
    8.6238    3.6773   -0.4273 H   0  0  0  0  0  0  0  0  0  0  0  0
   10.3930    5.3216   -1.1240 H   0  0  0  0  0  0  0  0  0  0  0  0
   11.0387    5.4796   -3.5363 H   0  0  0  0  0  0  0  0  0  0  0  0
  1  2  1  0
  1 19  1  0
  1 20  1  0
  2  3  2  0
  2  4  1  0
  4  5  1  0
  4  6  1  0
  4 21  1  6
  5 22  1  0
  6  7  1  0
  6 23  1  0
  6 24  1  0
  8  7  1  6
  7 25  1  0
  8  9  2  0
  8 10  2  0
  8 11  1  0
 11 12  2  0
 11 17  1  0
 12 13  1  0
 12 26  1  0
 13 14  2  0
 13 27  1  0
 14 15  1  0
 14 28  1  0
 15 16  1  0
 15 17  2  0
 17 18  1  0
M  END

