
     RDKit          3D

 54 53  0  0  0  0  0  0  0  0999 V2000
    8.4263    2.7177   -3.3631 C   0  0  0  0  0  0  0  0  0  0  0  0
    7.5737    2.4170   -2.3628 C   0  0  0  0  0  0  0  0  0  0  0  0
    6.1823    2.4040   -2.4702 N   0  0  0  0  0  0  0  0  0  0  0  0
    5.4509    2.2628   -3.6321 C   0  0  0  0  0  0  0  0  0  0  0  0
    4.1973    2.4649   -3.6621 N   0  0  0  0  0  0  0  0  0  0  0  0
    3.4912    2.2274   -4.8955 C   0  0  0  0  0  0  0  0  0  0  0  0
    8.2016    2.0592   -0.7290 S   0  0  0  0  0  0  0  0  0  0  0  0
    7.4420    0.3923   -0.3787 C   0  0  0  0  0  0  0  0  0  0  0  0
    8.0905   -0.1900    0.8402 C   0  0  0  0  0  0  0  0  0  0  0  0
    7.6121   -0.1656    2.0998 C   0  0  0  0  0  0  0  0  0  0  0  0
    6.3029    0.4764    2.4878 C   0  0  0  0  0  0  0  0  0  0  0  0
    8.3493   -0.7922    3.2650 C   0  0  0  0  0  0  0  0  0  0  0  0
    9.6822   -1.4891    2.9849 C   0  0  0  0  0  0  0  0  0  0  0  0
   10.2958   -2.0758    4.2394 C   0  0  0  0  0  0  0  0  0  0  0  0
   11.4586   -2.7462    4.3238 C   0  0  0  0  0  0  0  0  0  0  0  0
   12.3393   -3.0105    3.1265 C   0  0  0  0  0  0  0  0  0  0  0  0
   12.0056   -3.3041    5.6215 C   0  0  0  0  0  0  0  0  0  0  0  0
   11.1864   -3.0905    6.8960 C   0  0  0  0  0  0  0  0  0  0  0  0
   11.8485   -3.6985    8.1138 C   0  0  0  0  0  0  0  0  0  0  0  0
   11.3899   -3.6773    9.3776 C   0  0  0  0  0  0  0  0  0  0  0  0
   10.0954   -3.0167    9.7806 C   0  0  0  0  0  0  0  0  0  0  0  0
   12.1545   -4.3267   10.5040 C   0  0  0  0  0  0  0  0  0  0  0  0
    8.0740    3.1133   -4.3187 H   0  0  0  0  0  0  0  0  0  0  0  0
    9.4984    2.5813   -3.2245 H   0  0  0  0  0  0  0  0  0  0  0  0
    5.6428    2.6306   -1.6396 H   0  0  0  0  0  0  0  0  0  0  0  0
    6.0520    1.9349   -4.5019 H   0  0  0  0  0  0  0  0  0  0  0  0
    2.7183    1.4518   -4.7494 H   0  0  0  0  0  0  0  0  0  0  0  0
    4.1401    1.9060   -5.7378 H   0  0  0  0  0  0  0  0  0  0  0  0
    2.9549    3.1408   -5.2077 H   0  0  0  0  0  0  0  0  0  0  0  0
    7.6364   -0.2376   -1.2594 H   0  0  0  0  0  0  0  0  0  0  0  0
    6.3557    0.5061   -0.2697 H   0  0  0  0  0  0  0  0  0  0  0  0
    9.0660   -0.6493    0.6590 H   0  0  0  0  0  0  0  0  0  0  0  0
    5.8056    0.9932    1.6571 H   0  0  0  0  0  0  0  0  0  0  0  0
    6.4630    1.2166    3.2907 H   0  0  0  0  0  0  0  0  0  0  0  0
    5.6031   -0.2754    2.8941 H   0  0  0  0  0  0  0  0  0  0  0  0
    7.6630   -1.5118    3.7529 H   0  0  0  0  0  0  0  0  0  0  0  0
    8.5086   -0.0065    4.0290 H   0  0  0  0  0  0  0  0  0  0  0  0
   10.3795   -0.7684    2.5214 H   0  0  0  0  0  0  0  0  0  0  0  0
    9.5272   -2.2810    2.2301 H   0  0  0  0  0  0  0  0  0  0  0  0
    9.7173   -1.9269    5.1569 H   0  0  0  0  0  0  0  0  0  0  0  0
   11.9337   -2.6015    2.1917 H   0  0  0  0  0  0  0  0  0  0  0  0
   12.4904   -4.0954    2.9832 H   0  0  0  0  0  0  0  0  0  0  0  0
   13.3443   -2.5769    3.2764 H   0  0  0  0  0  0  0  0  0  0  0  0
   13.0200   -2.8864    5.7749 H   0  0  0  0  0  0  0  0  0  0  0  0
   12.1759   -4.3900    5.4843 H   0  0  0  0  0  0  0  0  0  0  0  0
   10.1780   -3.5209    6.7566 H   0  0  0  0  0  0  0  0  0  0  0  0
   11.0280   -2.0078    7.0498 H   0  0  0  0  0  0  0  0  0  0  0  0
   12.8037   -4.2086    7.9344 H   0  0  0  0  0  0  0  0  0  0  0  0
    9.5658   -2.5537    8.9370 H   0  0  0  0  0  0  0  0  0  0  0  0
   10.2750   -2.2334   10.5390 H   0  0  0  0  0  0  0  0  0  0  0  0
    9.4122   -3.7475   10.2497 H   0  0  0  0  0  0  0  0  0  0  0  0
   13.0884   -4.7919   10.1547 H   0  0  0  0  0  0  0  0  0  0  0  0
   11.5480   -5.1064   10.9996 H   0  0  0  0  0  0  0  0  0  0  0  0
   12.4109   -3.5907   11.2876 H   0  0  0  0  0  0  0  0  0  0  0  0
  1  2  2  0
  1 23  1  0
  1 24  1  0
  2  3  1  0
  2  7  1  0
  3  4  1  0
  3 25  1  0
  4  5  2  0
  4 26  1  0
  5  6  1  0
  6 27  1  0
  6 28  1  0
  6 29  1  0
  7  8  1  0
  8  9  1  0
  8 30  1  0
  8 31  1  0
  9 10  2  0
  9 32  1  0
 10 11  1  0
 10 12  1  0
 11 33  1  0
 11 34  1  0
 11 35  1  0
 12 13  1  0
 12 36  1  0
 12 37  1  0
 13 14  1  0
 13 38  1  0
 13 39  1  0
 14 15  2  0
 14 40  1  0
 15 16  1  0
 15 17  1  0
 16 41  1  0
 16 42  1  0
 16 43  1  0
 17 18  1  0
 17 44  1  0
 17 45  1  0
 18 19  1  0
 18 46  1  0
 18 47  1  0
 19 20  2  0
 19 48  1  0
 20 21  1  0
 20 22  1  0
 21 49  1  0
 21 50  1  0
 21 51  1  0
 22 52  1  0
 22 53  1  0
 22 54  1  0
M  END

