
     RDKit          3D

 66 66  0  0  0  0  0  0  0  0999 V2000
    5.8290    0.8992    3.7243 C   0  0  0  0  0  0  0  0  0  0  0  0
    4.4051    0.5146    3.3658 C   0  0  0  0  0  0  0  0  0  0  0  0
    4.0646    0.9814    2.0453 O   0  0  0  0  0  0  0  0  0  0  0  0
    3.9369   -0.0584    0.8022 P   0  0  1  0  0  0  0  0  0  0  0  0
    2.9550   -1.1704    0.9754 O   0  0  0  0  0  0  0  0  0  0  0  0
    3.5465    1.1192   -0.5732 C   0  0  0  0  0  0  0  0  0  0  0  0
    2.3859    0.7118   -1.3389 N   0  0  0  0  0  0  0  0  0  0  0  0
    1.0287    1.1415   -0.9775 C   0  0  0  0  0  0  0  0  0  0  0  0
    0.8837    2.5920   -0.4610 C   0  0  1  0  0  0  0  0  0  0  0  0
   -0.4631    3.1687   -0.9245 C   0  0  0  0  0  0  0  0  0  0  0  0
    1.0032    2.7056    1.0670 C   0  0  0  0  0  0  0  0  0  0  0  0
    2.5970   -0.4256   -2.1106 C   0  0  0  0  0  0  0  0  0  0  0  0
    3.7319   -0.8722   -2.2840 O   0  0  0  0  0  0  0  0  0  0  0  0
    1.5013   -1.0215   -2.6655 N   0  0  0  0  0  0  0  0  0  0  0  0
    1.6262   -2.2042   -3.4853 C   0  0  1  0  0  0  0  0  0  0  0  0
    2.4899   -2.0827   -4.1595 H   0  0  0  0  0  0  0  0  0  0  0  0
    1.8764   -3.5113   -2.6734 C   0  0  0  0  0  0  0  0  0  0  0  0
    0.7782   -3.8775   -1.7023 C   0  0  0  0  0  0  0  0  0  0  0  0
   -0.2727   -4.7305   -2.0845 C   0  0  0  0  0  0  0  0  0  0  0  0
   -1.3020   -5.0573   -1.2045 C   0  0  0  0  0  0  0  0  0  0  0  0
   -1.3149   -4.5348    0.1020 C   0  0  0  0  0  0  0  0  0  0  0  0
   -2.6763   -5.0202    1.1386 S   0  0  0  0  0  0  0  0  0  0  0  0
   -2.3310   -4.1925    2.7168 C   0  0  0  0  0  0  0  0  0  0  0  0
   -0.2683   -3.6871    0.4951 C   0  0  0  0  0  0  0  0  0  0  0  0
    0.7624   -3.3663   -0.3953 C   0  0  0  0  0  0  0  0  0  0  0  0
    0.3707   -2.2964   -4.3438 C   0  0  0  0  0  0  0  0  0  0  0  0
   -0.5988   -1.5862   -4.2191 O   0  0  0  0  0  0  0  0  0  0  0  0
    0.4630   -3.2770   -5.2520 O   0  0  0  0  0  0  0  0  0  0  0  0
   -0.6748   -3.4697   -6.0971 C   0  0  0  0  0  0  0  0  0  0  0  0
    5.4808   -0.5352    0.6472 O   0  0  0  0  0  0  0  0  0  0  0  0
    5.8566   -1.8227    0.1088 C   0  0  0  0  0  0  0  0  0  0  0  0
    6.7292   -1.6466   -1.1182 C   0  0  0  0  0  0  0  0  0  0  0  0
    6.0612    0.5784    4.7529 H   0  0  0  0  0  0  0  0  0  0  0  0
    5.9638    1.9904    3.6642 H   0  0  0  0  0  0  0  0  0  0  0  0
    6.5428    0.4234    3.0362 H   0  0  0  0  0  0  0  0  0  0  0  0
    3.6823    0.9838    4.0521 H   0  0  0  0  0  0  0  0  0  0  0  0
    4.2515   -0.5757    3.4241 H   0  0  0  0  0  0  0  0  0  0  0  0
    4.4306    1.1532   -1.2233 H   0  0  0  0  0  0  0  0  0  0  0  0
    3.4013    2.1151   -0.1419 H   0  0  0  0  0  0  0  0  0  0  0  0
    0.5817    0.4434   -0.2423 H   0  0  0  0  0  0  0  0  0  0  0  0
    0.4295    1.0728   -1.8973 H   0  0  0  0  0  0  0  0  0  0  0  0
    1.6791    3.1956   -0.9339 H   0  0  0  0  0  0  0  0  0  0  0  0
   -1.3036    2.5589   -0.5508 H   0  0  0  0  0  0  0  0  0  0  0  0
   -0.5356    3.2025   -2.0234 H   0  0  0  0  0  0  0  0  0  0  0  0
   -0.6054    4.1930   -0.5450 H   0  0  0  0  0  0  0  0  0  0  0  0
    0.1687    2.1732    1.5544 H   0  0  0  0  0  0  0  0  0  0  0  0
    0.9527    3.7598    1.3842 H   0  0  0  0  0  0  0  0  0  0  0  0
    1.9363    2.2813    1.4642 H   0  0  0  0  0  0  0  0  0  0  0  0
    0.5564   -0.6981   -2.5012 H   0  0  0  0  0  0  0  0  0  0  0  0
    2.8256   -3.3537   -2.1418 H   0  0  0  0  0  0  0  0  0  0  0  0
    2.0348   -4.3242   -3.3986 H   0  0  0  0  0  0  0  0  0  0  0  0
   -0.2796   -5.1584   -3.0914 H   0  0  0  0  0  0  0  0  0  0  0  0
   -2.1017   -5.7294   -1.5281 H   0  0  0  0  0  0  0  0  0  0  0  0
   -3.1546   -4.4791    3.3859 H   0  0  0  0  0  0  0  0  0  0  0  0
   -2.3240   -3.0973    2.6119 H   0  0  0  0  0  0  0  0  0  0  0  0
   -1.3814   -4.5318    3.1568 H   0  0  0  0  0  0  0  0  0  0  0  0
   -0.2321   -3.2680    1.5013 H   0  0  0  0  0  0  0  0  0  0  0  0
    1.5658   -2.7113   -0.0447 H   0  0  0  0  0  0  0  0  0  0  0  0
   -0.4182   -4.2976   -6.7690 H   0  0  0  0  0  0  0  0  0  0  0  0
   -0.8876   -2.5586   -6.6760 H   0  0  0  0  0  0  0  0  0  0  0  0
   -1.5637   -3.7211   -5.4995 H   0  0  0  0  0  0  0  0  0  0  0  0
    4.9487   -2.3983   -0.1234 H   0  0  0  0  0  0  0  0  0  0  0  0
    6.3978   -2.3486    0.9126 H   0  0  0  0  0  0  0  0  0  0  0  0
    6.1519   -1.1776   -1.9271 H   0  0  0  0  0  0  0  0  0  0  0  0
    7.0817   -2.6310   -1.4675 H   0  0  0  0  0  0  0  0  0  0  0  0
    7.6111   -1.0280   -0.8881 H   0  0  0  0  0  0  0  0  0  0  0  0
  1  2  1  0
  1 33  1  0
  1 34  1  0
  1 35  1  0
  2  3  1  0
  2 36  1  0
  2 37  1  0
  4  3  1  1
  4  5  2  0
  4  6  1  0
  4 30  1  0
  6  7  1  0
  6 38  1  0
  6 39  1  0
  7  8  1  0
  7 12  1  0
  8  9  1  0
  8 40  1  0
  8 41  1  0
  9 10  1  0
  9 11  1  0
  9 42  1  6
 10 43  1  0
 10 44  1  0
 10 45  1  0
 11 46  1  0
 11 47  1  0
 11 48  1  0
 12 13  2  0
 12 14  1  0
 14 15  1  0
 14 49  1  0
 15 16  1  6
 15 17  1  0
 15 26  1  0
 17 18  1  0
 17 50  1  0
 17 51  1  0
 18 19  2  0
 18 25  1  0
 19 20  1  0
 19 52  1  0
 20 21  2  0
 20 53  1  0
 21 22  1  0
 21 24  1  0
 22 23  1  0
 23 54  1  0
 23 55  1  0
 23 56  1  0
 24 25  2  0
 24 57  1  0
 25 58  1  0
 26 27  2  0
 26 28  1  0
 28 29  1  0
 29 59  1  0
 29 60  1  0
 29 61  1  0
 30 31  1  0
 31 32  1  0
 31 62  1  0
 31 63  1  0
 32 64  1  0
 32 65  1  0
 32 66  1  0
M  END

