
     RDKit          3D

 63 67  0  0  0  0  0  0  0  0999 V2000
    2.2014   -0.1761   -2.4398 C   0  0  0  0  0  0  0  0  0  0  0  0
    2.7952   -0.0103   -1.1261 N   0  0  0  0  0  0  0  0  0  0  0  0
    3.2222    1.2056   -0.7052 N   0  0  0  0  0  0  0  0  0  0  0  0
    3.7450    1.0407    0.4557 N   0  0  0  0  0  0  0  0  0  0  0  0
    3.6696   -0.2472    0.8476 N   0  0  0  0  0  0  0  0  0  0  0  0
    3.0728   -0.8907   -0.1395 C   0  0  0  0  0  0  0  0  0  0  0  0
    2.8957   -2.2652   -0.1552 N   0  0  0  0  0  0  0  0  0  0  0  0
    1.6620   -2.8658   -0.4802 C   0  0  0  0  0  0  0  0  0  0  0  0
    0.7220   -2.1945   -0.8745 O   0  0  0  0  0  0  0  0  0  0  0  0
    1.6161   -4.2270   -0.3322 N   0  0  0  0  0  0  0  0  0  0  0  0
    2.7339   -5.1214   -0.0405 C   0  0  0  0  0  0  0  0  0  0  0  0
    2.4432   -5.9792    1.1958 C   0  0  0  0  0  0  0  0  0  0  0  0
    1.1240   -6.7566    1.0327 C   0  0  2  0  0  0  0  0  0  0  0  0
   -0.0058   -5.7702    0.6814 C   0  0  0  0  0  0  0  0  0  0  0  0
    0.3439   -4.9196   -0.5428 C   0  0  0  0  0  0  0  0  0  0  0  0
    0.7920   -7.6521    2.2468 C   0  0  0  0  0  0  0  0  0  0  0  0
    0.2857   -8.9652    1.6143 C   0  0  2  0  0  0  0  0  0  0  0  0
    0.3295  -10.2020    2.4864 C   0  0  0  0  0  0  0  0  0  0  0  0
    1.5161  -10.6531    3.0813 C   0  0  0  0  0  0  0  0  0  0  0  0
    1.5551  -11.8040    3.8756 C   0  0  0  0  0  0  0  0  0  0  0  0
    0.3800  -12.5385    4.0927 C   0  0  0  0  0  0  0  0  0  0  0  0
    0.3076  -13.6690    4.8470 O   0  0  0  0  0  0  0  0  0  0  0  0
    1.4705  -14.1693    5.4646 C   0  0  0  0  0  0  0  0  0  0  0  0
    1.1498  -15.4264    6.2388 C   0  0  0  0  0  0  0  0  0  0  0  0
   -0.1414  -15.9647    6.3052 C   0  0  0  0  0  0  0  0  0  0  0  0
   -0.3363  -17.1306    7.0437 C   0  0  0  0  0  0  0  0  0  0  0  0
    0.7589  -17.7142    7.6864 C   0  0  0  0  0  0  0  0  0  0  0  0
    0.6102  -19.0017    8.4548 C   0  0  1  0  0  0  0  0  0  0  0  0
   -0.6069  -19.1034    9.0177 F   0  0  0  0  0  0  0  0  0  0  0  0
    0.7638  -20.0752    7.6566 F   0  0  0  0  0  0  0  0  0  0  0  0
    1.5237  -19.1054    9.4344 F   0  0  0  0  0  0  0  0  0  0  0  0
    2.0090  -17.0926    7.5628 C   0  0  0  0  0  0  0  0  0  0  0  0
    2.1986  -15.9803    6.8581 N   0  0  0  0  0  0  0  0  0  0  0  0
   -0.8184  -12.1031    3.5060 C   0  0  0  0  0  0  0  0  0  0  0  0
   -0.8348  -10.9559    2.7182 C   0  0  0  0  0  0  0  0  0  0  0  0
    1.1547   -9.0107    0.3460 C   0  0  0  0  0  0  0  0  0  0  0  0
    1.2724   -7.6658   -0.0823 O   0  0  0  0  0  0  0  0  0  0  0  0
    2.3545    0.7663   -2.9792 H   0  0  0  0  0  0  0  0  0  0  0  0
    1.1349   -0.4146   -2.3490 H   0  0  0  0  0  0  0  0  0  0  0  0
    2.7043   -0.9953   -2.9748 H   0  0  0  0  0  0  0  0  0  0  0  0
    3.4662   -2.7116    0.5553 H   0  0  0  0  0  0  0  0  0  0  0  0
    3.6672   -4.5574    0.0770 H   0  0  0  0  0  0  0  0  0  0  0  0
    2.8810   -5.7946   -0.9038 H   0  0  0  0  0  0  0  0  0  0  0  0
    2.3822   -5.3401    2.0936 H   0  0  0  0  0  0  0  0  0  0  0  0
    3.2691   -6.6930    1.3489 H   0  0  0  0  0  0  0  0  0  0  0  0
   -0.1898   -5.1094    1.5453 H   0  0  0  0  0  0  0  0  0  0  0  0
   -0.9336   -6.3318    0.4871 H   0  0  0  0  0  0  0  0  0  0  0  0
   -0.4226   -4.1625   -0.7436 H   0  0  0  0  0  0  0  0  0  0  0  0
    0.4275   -5.5729   -1.4288 H   0  0  0  0  0  0  0  0  0  0  0  0
    0.0542   -7.1926    2.9207 H   0  0  0  0  0  0  0  0  0  0  0  0
    1.7013   -7.8445    2.8389 H   0  0  0  0  0  0  0  0  0  0  0  0
   -0.7581   -8.8127    1.2940 H   0  0  0  0  0  0  0  0  0  0  0  0
    2.4480  -10.1009    2.9317 H   0  0  0  0  0  0  0  0  0  0  0  0
    2.5029  -12.1130    4.3162 H   0  0  0  0  0  0  0  0  0  0  0  0
    1.9064  -13.4282    6.1613 H   0  0  0  0  0  0  0  0  0  0  0  0
    2.2523  -14.4063    4.7182 H   0  0  0  0  0  0  0  0  0  0  0  0
   -0.9636  -15.4712    5.7886 H   0  0  0  0  0  0  0  0  0  0  0  0
   -1.3285  -17.5796    7.1268 H   0  0  0  0  0  0  0  0  0  0  0  0
    2.8855  -17.5167    8.0641 H   0  0  0  0  0  0  0  0  0  0  0  0
   -1.7279  -12.6811    3.6814 H   0  0  0  0  0  0  0  0  0  0  0  0
   -1.7794  -10.6345    2.2700 H   0  0  0  0  0  0  0  0  0  0  0  0
    0.7058   -9.6034   -0.4666 H   0  0  0  0  0  0  0  0  0  0  0  0
    2.1491   -9.4461    0.5714 H   0  0  0  0  0  0  0  0  0  0  0  0
  1  2  1  0
  1 38  1  0
  1 39  1  0
  1 40  1  0
  2  3  1  0
  2  6  1  0
  3  4  2  0
  4  5  1  0
  5  6  2  0
  6  7  1  0
  7  8  1  0
  7 41  1  0
  8  9  2  0
  8 10  1  0
 10 11  1  0
 10 15  1  0
 11 12  1  0
 11 42  1  0
 11 43  1  0
 12 13  1  0
 12 44  1  0
 12 45  1  0
 13 14  1  0
 13 16  1  0
 13 37  1  6
 14 15  1  0
 14 46  1  0
 14 47  1  0
 15 48  1  0
 15 49  1  0
 16 17  1  0
 16 50  1  0
 16 51  1  0
 17 18  1  0
 17 36  1  0
 17 52  1  6
 18 19  2  0
 18 35  1  0
 19 20  1  0
 19 53  1  0
 20 21  2  0
 20 54  1  0
 21 22  1  0
 21 34  1  0
 22 23  1  0
 23 24  1  0
 23 55  1  0
 23 56  1  0
 24 25  2  0
 24 33  1  0
 25 26  1  0
 25 57  1  0
 26 27  2  0
 26 58  1  0
 27 28  1  0
 27 32  1  0
 28 29  1  1
 28 30  1  0
 28 31  1  0
 32 33  2  0
 32 59  1  0
 34 35  2  0
 34 60  1  0
 35 61  1  0
 36 37  1  0
 36 62  1  0
 36 63  1  0
M  END

