
     RDKit          3D

 53 56  0  0  0  0  0  0  0  0999 V2000
    1.9855    0.5686    1.0972 O   0  0  0  0  0  0  0  0  0  0  0  0
    1.4540   -0.3017    0.4616 C   0  0  0  0  0  0  0  0  0  0  0  0
    0.1038   -0.3614    0.3994 O   0  0  0  0  0  0  0  0  0  0  0  0
    2.2072   -1.3652   -0.3526 C   0  0  1  0  0  0  0  0  0  0  0  0
    3.7165   -1.3167   -0.0573 C   0  0  0  0  0  0  0  0  0  0  0  0
    4.0615   -1.9027    1.3222 C   0  0  0  0  0  0  0  0  0  0  0  0
    3.4977   -3.3149    1.5423 C   0  0  2  0  0  0  0  0  0  0  0  0
    4.2342   -4.2833    0.7298 N   0  0  0  0  0  0  0  0  0  0  0  0
    4.1896   -5.6308    1.0145 C   0  0  0  0  0  0  0  0  0  0  0  0
    3.4849   -6.0847    1.9075 O   0  0  0  0  0  0  0  0  0  0  0  0
    4.9893   -6.4360    0.2228 N   0  0  0  0  0  0  0  0  0  0  0  0
    6.0580   -5.9591   -0.6551 C   0  0  0  0  0  0  0  0  0  0  0  0
    6.7500   -7.2483   -1.1213 C   0  0  0  0  0  0  0  0  0  0  0  0
    6.5187   -8.2085    0.0519 C   0  0  0  0  0  0  0  0  0  0  0  0
    5.0798   -7.8720    0.5131 C   0  0  2  0  0  0  0  0  0  0  0  0
    4.0117   -8.7118   -0.1831 C   0  0  0  0  0  0  0  0  0  0  0  0
    3.2793   -8.2437   -1.2830 C   0  0  0  0  0  0  0  0  0  0  0  0
    2.3456   -9.0632   -1.9211 C   0  0  0  0  0  0  0  0  0  0  0  0
    2.1176  -10.3641   -1.4688 C   0  0  0  0  0  0  0  0  0  0  0  0
    2.8298  -10.8369   -0.3470 C   0  0  0  0  0  0  0  0  0  0  0  0
    3.7667  -10.0120    0.2777 C   0  0  0  0  0  0  0  0  0  0  0  0
    2.6206  -12.0932    0.1531 O   0  0  0  0  0  0  0  0  0  0  0  0
    1.4280  -12.7138   -0.3000 C   0  0  0  0  0  0  0  0  0  0  0  0
    1.2738  -12.5250   -1.8001 C   0  0  0  0  0  0  0  0  0  0  0  0
    1.1994  -11.1448   -2.1176 O   0  0  0  0  0  0  0  0  0  0  0  0
    1.9834   -3.3439    1.2464 C   0  0  0  0  0  0  0  0  0  0  0  0
    1.6652   -2.7988   -0.1489 C   0  0  0  0  0  0  0  0  0  0  0  0
   -0.1760   -1.1189   -0.1340 H   0  0  0  0  0  0  0  0  0  0  0  0
    2.0428   -1.0774   -1.4088 H   0  0  0  0  0  0  0  0  0  0  0  0
    4.0685   -0.2766   -0.1130 H   0  0  0  0  0  0  0  0  0  0  0  0
    4.2394   -1.8705   -0.8574 H   0  0  0  0  0  0  0  0  0  0  0  0
    3.6442   -1.2399    2.0954 H   0  0  0  0  0  0  0  0  0  0  0  0
    5.1546   -1.9090    1.4711 H   0  0  0  0  0  0  0  0  0  0  0  0
    3.6366   -3.6049    2.5959 H   0  0  0  0  0  0  0  0  0  0  0  0
    4.8380   -3.9398   -0.0041 H   0  0  0  0  0  0  0  0  0  0  0  0
    6.7623   -5.3055   -0.1032 H   0  0  0  0  0  0  0  0  0  0  0  0
    5.6644   -5.3752   -1.5075 H   0  0  0  0  0  0  0  0  0  0  0  0
    7.8125   -7.0906   -1.3587 H   0  0  0  0  0  0  0  0  0  0  0  0
    6.2575   -7.6334   -2.0281 H   0  0  0  0  0  0  0  0  0  0  0  0
    7.2253   -7.9860    0.8693 H   0  0  0  0  0  0  0  0  0  0  0  0
    6.6375   -9.2667   -0.2197 H   0  0  0  0  0  0  0  0  0  0  0  0
    4.9638   -8.0202    1.5970 H   0  0  0  0  0  0  0  0  0  0  0  0
    3.4319   -7.2224   -1.6364 H   0  0  0  0  0  0  0  0  0  0  0  0
    1.7740   -8.7115   -2.7830 H   0  0  0  0  0  0  0  0  0  0  0  0
    4.2902  -10.4114    1.1504 H   0  0  0  0  0  0  0  0  0  0  0  0
    0.5535  -12.2825    0.2231 H   0  0  0  0  0  0  0  0  0  0  0  0
    1.5015  -13.7801   -0.0397 H   0  0  0  0  0  0  0  0  0  0  0  0
    0.3459  -12.9898   -2.1651 H   0  0  0  0  0  0  0  0  0  0  0  0
    2.1305  -12.9900   -2.3242 H   0  0  0  0  0  0  0  0  0  0  0  0
    1.4667   -2.7397    2.0135 H   0  0  0  0  0  0  0  0  0  0  0  0
    1.6231   -4.3766    1.3592 H   0  0  0  0  0  0  0  0  0  0  0  0
    0.5797   -2.8616   -0.3476 H   0  0  0  0  0  0  0  0  0  0  0  0
    2.1302   -3.4502   -0.9077 H   0  0  0  0  0  0  0  0  0  0  0  0
  1  2  2  0
  2  3  1  0
  2  4  1  0
  3 28  1  0
  4  5  1  0
  4 27  1  0
  4 29  1  6
  5  6  1  0
  5 30  1  0
  5 31  1  0
  6  7  1  0
  6 32  1  0
  6 33  1  0
  7  8  1  0
  7 26  1  0
  7 34  1  1
  8  9  1  0
  8 35  1  0
  9 10  2  0
  9 11  1  0
 11 12  1  0
 11 15  1  0
 12 13  1  0
 12 36  1  0
 12 37  1  0
 13 14  1  0
 13 38  1  0
 13 39  1  0
 14 15  1  0
 14 40  1  0
 14 41  1  0
 15 16  1  0
 15 42  1  1
 16 17  2  0
 16 21  1  0
 17 18  1  0
 17 43  1  0
 18 19  2  0
 18 44  1  0
 19 20  1  0
 19 25  1  0
 20 21  2  0
 20 22  1  0
 21 45  1  0
 22 23  1  0
 23 24  1  0
 23 46  1  0
 23 47  1  0
 24 25  1  0
 24 48  1  0
 24 49  1  0
 26 27  1  0
 26 50  1  0
 26 51  1  0
 27 52  1  0
 27 53  1  0
M  END

