
     RDKit          3D

 56 59  0  0  0  0  0  0  0  0999 V2000
    7.4491    2.4555    2.2818 O   0  0  0  0  0  0  0  0  0  0  0  0
    7.7355    2.0725    1.1826 C   0  0  0  0  0  0  0  0  0  0  0  0
    8.3058    2.8491    0.2562 O   0  0  0  0  0  0  0  0  0  0  0  0
    7.4611    0.6302    0.7477 C   0  0  0  0  0  0  0  0  0  0  0  0
    7.9072    0.4511   -0.5857 O   0  0  0  0  0  0  0  0  0  0  0  0
    7.7683   -0.7506   -1.2117 C   0  0  0  0  0  0  0  0  0  0  0  0
    8.2333   -0.8220   -2.5353 C   0  0  0  0  0  0  0  0  0  0  0  0
    8.1253   -2.0120   -3.2370 C   0  0  0  0  0  0  0  0  0  0  0  0
    7.5552   -3.1751   -2.6577 C   0  0  0  0  0  0  0  0  0  0  0  0
    7.4959   -4.3582   -3.5052 C   0  0  0  0  0  0  0  0  0  0  0  0
    7.0383   -5.6349   -3.3585 C   0  0  0  0  0  0  0  0  0  0  0  0
    7.1749   -6.7784   -4.7245 S   0  0  0  0  0  0  0  0  0  0  0  0
    6.3884   -8.0867   -3.8549 C   0  0  0  0  0  0  0  0  0  0  0  0
    6.1157   -9.5857   -4.4570 S   0  0  0  0  0  0  0  0  0  0  0  0
    6.0762   -7.6441   -2.5761 N   0  0  0  0  0  0  0  0  0  0  0  0
    5.3830   -8.4344   -1.7070 N   0  0  0  0  0  0  0  0  0  0  0  0
    4.0001   -8.2991   -1.6071 C   0  0  0  0  0  0  0  0  0  0  0  0
    3.4224   -7.3609   -2.1145 O   0  0  0  0  0  0  0  0  0  0  0  0
    3.3221   -9.3584   -0.8010 C   0  0  0  0  0  0  0  0  0  0  0  0
    2.1075   -9.0330   -0.1834 C   0  0  0  0  0  0  0  0  0  0  0  0
    1.4052   -9.9709    0.5731 C   0  0  0  0  0  0  0  0  0  0  0  0
    1.9123  -11.2751    0.7065 C   0  0  0  0  0  0  0  0  0  0  0  0
    1.3115  -12.2610    1.4134 O   0  0  0  0  0  0  0  0  0  0  0  0
    0.0884  -12.0042    2.0736 C   0  0  0  0  0  0  0  0  0  0  0  0
   -0.3810  -13.2500    2.7864 C   0  0  0  0  0  0  0  0  0  0  0  0
    0.3432  -14.4488    2.7482 C   0  0  0  0  0  0  0  0  0  0  0  0
   -0.1130  -15.5882    3.4160 C   0  0  0  0  0  0  0  0  0  0  0  0
   -1.3083  -15.5468    4.1374 C   0  0  0  0  0  0  0  0  0  0  0  0
   -2.0482  -14.3632    4.1904 C   0  0  0  0  0  0  0  0  0  0  0  0
   -1.5802  -13.2328    3.5183 C   0  0  0  0  0  0  0  0  0  0  0  0
   -2.5235  -11.7523    3.5953 Cl  0  0  0  0  0  0  0  0  0  0  0  0
    3.1179  -11.6198    0.0683 C   0  0  0  0  0  0  0  0  0  0  0  0
    3.8114  -10.6725   -0.6745 C   0  0  0  0  0  0  0  0  0  0  0  0
    6.4116   -6.3182   -2.2021 C   0  0  0  0  0  0  0  0  0  0  0  0
    6.2007   -5.8981   -1.0877 O   0  0  0  0  0  0  0  0  0  0  0  0
    7.0972   -3.0767   -1.3254 C   0  0  0  0  0  0  0  0  0  0  0  0
    7.2004   -1.8840   -0.6116 C   0  0  0  0  0  0  0  0  0  0  0  0
    8.4412    2.3154   -0.5477 H   0  0  0  0  0  0  0  0  0  0  0  0
    6.3771    0.4445    0.8424 H   0  0  0  0  0  0  0  0  0  0  0  0
    7.9858   -0.0437    1.4468 H   0  0  0  0  0  0  0  0  0  0  0  0
    8.6734    0.0660   -2.9929 H   0  0  0  0  0  0  0  0  0  0  0  0
    8.4894   -2.0519   -4.2670 H   0  0  0  0  0  0  0  0  0  0  0  0
    7.9155   -4.1637   -4.4999 H   0  0  0  0  0  0  0  0  0  0  0  0
    5.8828   -9.2253   -1.3178 H   0  0  0  0  0  0  0  0  0  0  0  0
    1.7169   -8.0209   -0.3065 H   0  0  0  0  0  0  0  0  0  0  0  0
    0.4686   -9.6792    1.0478 H   0  0  0  0  0  0  0  0  0  0  0  0
   -0.6813  -11.6763    1.3498 H   0  0  0  0  0  0  0  0  0  0  0  0
    0.2066  -11.1800    2.8020 H   0  0  0  0  0  0  0  0  0  0  0  0
    1.2750  -14.4736    2.1830 H   0  0  0  0  0  0  0  0  0  0  0  0
    0.4695  -16.5114    3.3711 H   0  0  0  0  0  0  0  0  0  0  0  0
   -1.6708  -16.4342    4.6618 H   0  0  0  0  0  0  0  0  0  0  0  0
   -2.9849  -14.3064    4.7472 H   0  0  0  0  0  0  0  0  0  0  0  0
    3.4825  -12.6445    0.1600 H   0  0  0  0  0  0  0  0  0  0  0  0
    4.7201  -10.9798   -1.1986 H   0  0  0  0  0  0  0  0  0  0  0  0
    6.6563   -3.9505   -0.8488 H   0  0  0  0  0  0  0  0  0  0  0  0
    6.8328   -1.8525    0.4142 H   0  0  0  0  0  0  0  0  0  0  0  0
  1  2  2  0
  2  3  1  0
  2  4  1  0
  3 38  1  0
  4  5  1  0
  4 39  1  0
  4 40  1  0
  5  6  1  0
  6  7  2  0
  6 37  1  0
  7  8  1  0
  7 41  1  0
  8  9  2  0
  8 42  1  0
  9 10  1  0
  9 36  1  0
 10 11  2  0
 10 43  1  0
 11 12  1  0
 11 34  1  0
 12 13  1  0
 13 14  2  0
 13 15  1  0
 15 16  1  0
 15 34  1  0
 16 17  1  0
 16 44  1  0
 17 18  2  0
 17 19  1  0
 19 20  2  0
 19 33  1  0
 20 21  1  0
 20 45  1  0
 21 22  2  0
 21 46  1  0
 22 23  1  0
 22 32  1  0
 23 24  1  0
 24 25  1  0
 24 47  1  0
 24 48  1  0
 25 26  2  0
 25 30  1  0
 26 27  1  0
 26 49  1  0
 27 28  2  0
 27 50  1  0
 28 29  1  0
 28 51  1  0
 29 30  2  0
 29 52  1  0
 30 31  1  0
 32 33  2  0
 32 53  1  0
 33 54  1  0
 34 35  2  0
 36 37  2  0
 36 55  1  0
 37 56  1  0
M  END

