
     RDKit          3D

 64 66  0  0  0  0  0  0  0  0999 V2000
    5.6578    0.8403   -2.3721 C   0  0  0  0  0  0  0  0  0  0  0  0
    4.6470    0.6916   -1.4015 O   0  0  0  0  0  0  0  0  0  0  0  0
    4.7897    1.2978   -0.1950 C   0  0  0  0  0  0  0  0  0  0  0  0
    5.8932    2.0815    0.1782 C   0  0  0  0  0  0  0  0  0  0  0  0
    5.9326    2.6611    1.4495 C   0  0  0  0  0  0  0  0  0  0  0  0
    4.8955    2.4857    2.3768 C   0  0  0  0  0  0  0  0  0  0  0  0
    5.0290    3.1127    3.7631 C   0  0  1  0  0  0  0  0  0  0  0  0
    3.6933    3.4352    4.4526 C   0  0  0  0  0  0  0  0  0  0  0  0
    3.7989    4.2098    5.7805 C   0  0  1  0  0  0  0  0  0  0  0  0
    4.5018    5.5659    5.6264 C   0  0  0  0  0  0  0  0  0  0  0  0
    2.4060    4.3795    6.4018 C   0  0  0  0  0  0  0  0  0  0  0  0
    5.8804    2.2814    4.6223 N   0  0  0  0  0  0  0  0  0  0  0  0
    7.1479    2.6439    4.9816 C   0  0  0  0  0  0  0  0  0  0  0  0
    7.6500    3.7126    4.6544 O   0  0  0  0  0  0  0  0  0  0  0  0
    7.9170    1.6482    5.8156 C   0  0  0  0  0  0  0  0  0  0  0  0
    9.3070    1.8184    5.8977 C   0  0  0  0  0  0  0  0  0  0  0  0
   10.0867    0.9398    6.6464 C   0  0  0  0  0  0  0  0  0  0  0  0
    9.4959   -0.1304    7.3361 C   0  0  0  0  0  0  0  0  0  0  0  0
   10.3325   -1.0630    8.1650 C   0  0  0  0  0  0  0  0  0  0  0  0
   10.2972   -0.6003    9.9380 S   0  0  1  0  0  0  0  0  0  0  0  0
   10.9171    0.7234   10.0548 O   0  0  0  0  0  0  0  0  0  0  0  0
    8.9354   -0.8549   10.4249 O   0  0  0  0  0  0  0  0  0  0  0  0
   11.3268   -1.7344   10.6425 N   0  0  0  0  0  0  0  0  0  0  0  0
   12.6609   -1.3056   11.0856 C   0  0  0  0  0  0  0  0  0  0  0  0
   12.6622   -1.0324   12.5895 C   0  0  0  0  0  0  0  0  0  0  0  0
   12.1672   -2.1441   13.3112 O   0  0  0  0  0  0  0  0  0  0  0  0
   10.8418   -2.4728   12.9420 C   0  0  0  0  0  0  0  0  0  0  0  0
   10.7519   -2.8154   11.4550 C   0  0  0  0  0  0  0  0  0  0  0  0
    8.1018   -0.2832    7.2814 C   0  0  0  0  0  0  0  0  0  0  0  0
    7.3224    0.5954    6.5296 C   0  0  0  0  0  0  0  0  0  0  0  0
    3.7983    1.6994    1.9842 C   0  0  0  0  0  0  0  0  0  0  0  0
    3.7421    1.1132    0.7218 C   0  0  0  0  0  0  0  0  0  0  0  0
    5.3318    0.2722   -3.2539 H   0  0  0  0  0  0  0  0  0  0  0  0
    6.6261    0.4357   -2.0252 H   0  0  0  0  0  0  0  0  0  0  0  0
    5.8000    1.8974   -2.6615 H   0  0  0  0  0  0  0  0  0  0  0  0
    6.7217    2.2510   -0.5099 H   0  0  0  0  0  0  0  0  0  0  0  0
    6.7990    3.2670    1.7300 H   0  0  0  0  0  0  0  0  0  0  0  0
    5.5978    4.0435    3.6427 H   0  0  0  0  0  0  0  0  0  0  0  0
    3.1417    2.4965    4.6421 H   0  0  0  0  0  0  0  0  0  0  0  0
    3.0746    4.0127    3.7427 H   0  0  0  0  0  0  0  0  0  0  0  0
    4.4027    3.5965    6.4739 H   0  0  0  0  0  0  0  0  0  0  0  0
    3.9820    6.1996    4.8861 H   0  0  0  0  0  0  0  0  0  0  0  0
    5.5502    5.4574    5.3098 H   0  0  0  0  0  0  0  0  0  0  0  0
    4.5050    6.1123    6.5834 H   0  0  0  0  0  0  0  0  0  0  0  0
    1.7556    4.9942    5.7554 H   0  0  0  0  0  0  0  0  0  0  0  0
    2.4646    4.8782    7.3826 H   0  0  0  0  0  0  0  0  0  0  0  0
    1.9045    3.4086    6.5492 H   0  0  0  0  0  0  0  0  0  0  0  0
    5.5917    1.3213    4.7674 H   0  0  0  0  0  0  0  0  0  0  0  0
    9.7548    2.6579    5.3633 H   0  0  0  0  0  0  0  0  0  0  0  0
   11.1682    1.0874    6.7024 H   0  0  0  0  0  0  0  0  0  0  0  0
   11.3934   -1.0411    7.8807 H   0  0  0  0  0  0  0  0  0  0  0  0
    9.9700   -2.1003    8.1364 H   0  0  0  0  0  0  0  0  0  0  0  0
   12.9600   -0.4071   10.5307 H   0  0  0  0  0  0  0  0  0  0  0  0
   13.3721   -2.1179   10.8523 H   0  0  0  0  0  0  0  0  0  0  0  0
   12.0483   -0.1311   12.7905 H   0  0  0  0  0  0  0  0  0  0  0  0
   13.6858   -0.8443   12.9491 H   0  0  0  0  0  0  0  0  0  0  0  0
   10.1551   -1.6292   13.1579 H   0  0  0  0  0  0  0  0  0  0  0  0
   10.5397   -3.3343   13.5577 H   0  0  0  0  0  0  0  0  0  0  0  0
    9.7077   -2.9798   11.1597 H   0  0  0  0  0  0  0  0  0  0  0  0
   11.3264   -3.7359   11.2482 H   0  0  0  0  0  0  0  0  0  0  0  0
    7.6234   -1.0834    7.8503 H   0  0  0  0  0  0  0  0  0  0  0  0
    6.2375    0.4649    6.5317 H   0  0  0  0  0  0  0  0  0  0  0  0
    2.9617    1.5397    2.6680 H   0  0  0  0  0  0  0  0  0  0  0  0
    2.8874    0.5058    0.4165 H   0  0  0  0  0  0  0  0  0  0  0  0
  1  2  1  0
  1 33  1  0
  1 34  1  0
  1 35  1  0
  2  3  1  0
  3  4  2  0
  3 32  1  0
  4  5  1  0
  4 36  1  0
  5  6  2  0
  5 37  1  0
  6  7  1  0
  6 31  1  0
  7  8  1  0
  7 12  1  0
  7 38  1  6
  8  9  1  0
  8 39  1  0
  8 40  1  0
  9 10  1  0
  9 11  1  0
  9 41  1  1
 10 42  1  0
 10 43  1  0
 10 44  1  0
 11 45  1  0
 11 46  1  0
 11 47  1  0
 12 13  1  0
 12 48  1  0
 13 14  2  0
 13 15  1  0
 15 16  2  0
 15 30  1  0
 16 17  1  0
 16 49  1  0
 17 18  2  0
 17 50  1  0
 18 19  1  0
 18 29  1  0
 20 19  1  6
 19 51  1  0
 19 52  1  0
 20 21  2  0
 20 22  2  0
 20 23  1  0
 23 24  1  0
 23 28  1  0
 24 25  1  0
 24 53  1  0
 24 54  1  0
 25 26  1  0
 25 55  1  0
 25 56  1  0
 26 27  1  0
 27 28  1  0
 27 57  1  0
 27 58  1  0
 28 59  1  0
 28 60  1  0
 29 30  2  0
 29 61  1  0
 30 62  1  0
 31 32  2  0
 31 63  1  0
 32 64  1  0
M  END

