
     RDKit          3D

 43 44  0  0  0  0  0  0  0  0999 V2000
    1.5091    1.2501    0.4296 C   0  0  0  0  0  0  0  0  0  0  0  0
    2.6935    0.2992    0.2030 C   0  0  0  0  0  0  0  0  0  0  0  0
    2.7126   -0.8632    1.1820 C   0  0  0  0  0  0  0  0  0  0  0  0
    2.9647   -0.5043    2.4152 N   0  0  0  0  0  0  0  0  0  0  0  0
    2.9756   -1.4389    3.3500 N   0  0  0  0  0  0  0  0  0  0  0  0
    3.2026   -1.1264    4.2932 H   0  0  0  0  0  0  0  0  0  0  0  0
    2.7379   -2.7919    3.2098 C   0  0  0  0  0  0  0  0  0  0  0  0
    2.8379   -3.5115    4.2102 O   0  0  0  0  0  0  0  0  0  0  0  0
    2.4009   -3.2013    1.8400 C   0  0  0  0  0  0  0  0  0  0  0  0
    2.0151   -4.6478    1.5710 C   0  0  0  0  0  0  0  0  0  0  0  0
    1.5153   -4.9962    0.5086 O   0  0  0  0  0  0  0  0  0  0  0  0
    2.2656   -5.5045    2.6078 N   0  0  0  0  0  0  0  0  0  0  0  0
    2.0151   -6.8795    2.6746 C   0  0  0  0  0  0  0  0  0  0  0  0
    1.5032   -7.6510    1.6127 C   0  0  0  0  0  0  0  0  0  0  0  0
    1.2996   -9.0208    1.7849 C   0  0  0  0  0  0  0  0  0  0  0  0
    1.5862   -9.6836    2.9873 C   0  0  0  0  0  0  0  0  0  0  0  0
    1.3699  -11.1695    3.1712 C   0  0  0  0  0  0  0  0  0  0  0  0
    0.0896  -11.5390    3.9370 C   0  0  0  0  0  0  0  0  0  0  0  0
   -0.7921  -12.2009    3.4639 O   0  0  0  0  0  0  0  0  0  0  0  0
    0.0123  -11.0815    5.2024 O   0  0  0  0  0  0  0  0  0  0  0  0
    2.0857   -8.8791    4.0149 C   0  0  0  0  0  0  0  0  0  0  0  0
    2.3596   -9.4705    5.2134 F   0  0  0  0  0  0  0  0  0  0  0  0
    2.3060   -7.5182    3.8971 C   0  0  0  0  0  0  0  0  0  0  0  0
    2.4435   -2.2500    0.8238 C   0  0  0  0  0  0  0  0  0  0  0  0
    2.2296   -2.5806   -0.6387 C   0  0  0  0  0  0  0  0  0  0  0  0
    0.7752   -2.4000   -1.1055 C   0  0  0  0  0  0  0  0  0  0  0  0
    1.5568    2.1019   -0.2666 H   0  0  0  0  0  0  0  0  0  0  0  0
    1.5225    1.6443    1.4568 H   0  0  0  0  0  0  0  0  0  0  0  0
    0.5444    0.7410    0.2753 H   0  0  0  0  0  0  0  0  0  0  0  0
    3.6327    0.8600    0.3366 H   0  0  0  0  0  0  0  0  0  0  0  0
    2.6886   -0.0592   -0.8332 H   0  0  0  0  0  0  0  0  0  0  0  0
    2.5946   -5.0392    3.4671 H   0  0  0  0  0  0  0  0  0  0  0  0
    1.2694   -7.1676    0.6685 H   0  0  0  0  0  0  0  0  0  0  0  0
    0.9047   -9.6033    0.9483 H   0  0  0  0  0  0  0  0  0  0  0  0
    2.2262  -11.6090    3.7123 H   0  0  0  0  0  0  0  0  0  0  0  0
    1.2986  -11.6648    2.1953 H   0  0  0  0  0  0  0  0  0  0  0  0
    0.8092  -10.5828    5.4455 H   0  0  0  0  0  0  0  0  0  0  0  0
    2.6981   -6.9643    4.7522 H   0  0  0  0  0  0  0  0  0  0  0  0
    2.5231   -3.6180   -0.8238 H   0  0  0  0  0  0  0  0  0  0  0  0
    2.8915   -1.9365   -1.2366 H   0  0  0  0  0  0  0  0  0  0  0  0
    0.1174   -3.0938   -0.5645 H   0  0  0  0  0  0  0  0  0  0  0  0
    0.6957   -2.6255   -2.1803 H   0  0  0  0  0  0  0  0  0  0  0  0
    0.4112   -1.3724   -0.9492 H   0  0  0  0  0  0  0  0  0  0  0  0
  1  2  1  0
  1 27  1  0
  1 28  1  0
  1 29  1  0
  2  3  1  0
  2 30  1  0
  2 31  1  0
  3  4  2  0
  3 24  1  0
  4  5  1  0
  5  6  1  0
  5  7  1  0
  7  8  2  0
  7  9  1  0
  9 10  1  0
  9 24  2  0
 10 11  2  0
 10 12  1  0
 12 13  1  0
 12 32  1  0
 13 14  2  0
 13 23  1  0
 14 15  1  0
 14 33  1  0
 15 16  2  0
 15 34  1  0
 16 17  1  0
 16 21  1  0
 17 18  1  0
 17 35  1  0
 17 36  1  0
 18 19  2  0
 18 20  1  0
 20 37  1  0
 21 22  1  0
 21 23  2  0
 23 38  1  0
 24 25  1  0
 25 26  1  0
 25 39  1  0
 25 40  1  0
 26 41  1  0
 26 42  1  0
 26 43  1  0
M  END

