
     RDKit          3D

 71 74  0  0  0  0  0  0  0  0999 V2000
    1.7351    2.4687    2.6067 C   0  0  0  0  0  0  0  0  0  0  0  0
    2.5515    1.3088    3.1571 C   0  0  0  0  0  0  0  0  0  0  0  0
    3.1654    0.5071    2.1386 O   0  0  0  0  0  0  0  0  0  0  0  0
    4.3435    0.9400    1.5959 C   0  0  0  0  0  0  0  0  0  0  0  0
    4.3130    1.7431    0.4449 C   0  0  0  0  0  0  0  0  0  0  0  0
    5.4929    2.1697   -0.1575 C   0  0  0  0  0  0  0  0  0  0  0  0
    6.7345    1.7713    0.3714 C   0  0  0  0  0  0  0  0  0  0  0  0
    7.9919    2.2803   -0.2339 C   0  0  0  0  0  0  0  0  0  0  0  0
    8.0646    3.6159   -0.3740 O   0  0  0  0  0  0  0  0  0  0  0  0
    9.0416    1.5154   -0.6529 C   0  0  0  0  0  0  0  0  0  0  0  0
   10.3460    2.0356   -1.0693 C   0  0  0  0  0  0  0  0  0  0  0  0
   10.7375    3.1709   -1.2165 O   0  0  0  0  0  0  0  0  0  0  0  0
   11.2549    0.8077   -1.2623 C   0  0  0  0  0  0  0  0  0  0  0  0
   12.4318    0.8578   -1.5416 O   0  0  0  0  0  0  0  0  0  0  0  0
   10.4747   -0.3215   -1.0444 N   0  0  0  0  0  0  0  0  0  0  0  0
   10.9357   -1.6626   -1.0654 C   0  0  0  0  0  0  0  0  0  0  0  0
   12.2562   -1.9846   -1.4484 C   0  0  0  0  0  0  0  0  0  0  0  0
   12.6747   -3.3165   -1.4658 C   0  0  0  0  0  0  0  0  0  0  0  0
   11.8077   -4.3531   -1.1227 C   0  0  0  0  0  0  0  0  0  0  0  0
   10.4968   -4.0421   -0.7402 C   0  0  0  0  0  0  0  0  0  0  0  0
    9.5626   -5.1668   -0.4217 C   0  0  0  0  0  0  0  0  0  0  0  0
    9.8635   -6.3370   -0.4982 O   0  0  0  0  0  0  0  0  0  0  0  0
    8.3399   -4.7333   -0.0592 O   0  0  0  0  0  0  0  0  0  0  0  0
    7.3027   -5.7216    0.1737 C   0  0  1  0  0  0  0  0  0  0  0  0
    7.4314   -6.2914    1.5818 C   0  0  0  0  0  0  0  0  0  0  0  0
    5.9776   -5.0196   -0.0814 C   0  0  0  0  0  0  0  0  0  0  0  0
   10.0705   -2.7085   -0.7007 C   0  0  0  0  0  0  0  0  0  0  0  0
    9.0547   -0.0031   -0.7733 C   0  0  2  0  0  0  0  0  0  0  0  0
    8.1253   -0.5066   -1.8784 C   0  0  0  0  0  0  0  0  0  0  0  0
    8.3679   -0.2304   -3.2300 C   0  0  0  0  0  0  0  0  0  0  0  0
    7.4798   -0.7119   -4.1904 C   0  0  0  0  0  0  0  0  0  0  0  0
    6.3747   -1.4589   -3.7660 C   0  0  0  0  0  0  0  0  0  0  0  0
    6.1285   -1.7288   -2.4831 N   0  0  0  0  0  0  0  0  0  0  0  0
    6.9830   -1.2587   -1.5719 C   0  0  0  0  0  0  0  0  0  0  0  0
    6.7524    0.9551    1.5136 C   0  0  0  0  0  0  0  0  0  0  0  0
    5.5780    0.5268    2.1483 C   0  0  0  0  0  0  0  0  0  0  0  0
    5.6382   -0.3651    3.3824 C   0  0  1  0  0  0  0  0  0  0  0  0
    6.3355   -1.7037    3.0838 C   0  0  0  0  0  0  0  0  0  0  0  0
    6.2923    0.3493    4.5783 C   0  0  0  0  0  0  0  0  0  0  0  0
    1.2209    2.9871    3.4322 H   0  0  0  0  0  0  0  0  0  0  0  0
    0.9725    2.1065    1.8999 H   0  0  0  0  0  0  0  0  0  0  0  0
    2.3672    3.2072    2.0903 H   0  0  0  0  0  0  0  0  0  0  0  0
    1.9009    0.6146    3.7109 H   0  0  0  0  0  0  0  0  0  0  0  0
    3.3226    1.6741    3.8594 H   0  0  0  0  0  0  0  0  0  0  0  0
    3.3434    2.0079    0.0203 H   0  0  0  0  0  0  0  0  0  0  0  0
    5.4523    2.7855   -1.0596 H   0  0  0  0  0  0  0  0  0  0  0  0
    7.3308    4.0243    0.1080 H   0  0  0  0  0  0  0  0  0  0  0  0
   12.9391   -1.1856   -1.7239 H   0  0  0  0  0  0  0  0  0  0  0  0
   13.7017   -3.5412   -1.7642 H   0  0  0  0  0  0  0  0  0  0  0  0
   12.1179   -5.3988   -1.1514 H   0  0  0  0  0  0  0  0  0  0  0  0
    7.4578   -6.5306   -0.5575 H   0  0  0  0  0  0  0  0  0  0  0  0
    7.3471   -5.4905    2.3342 H   0  0  0  0  0  0  0  0  0  0  0  0
    8.3968   -6.8011    1.7083 H   0  0  0  0  0  0  0  0  0  0  0  0
    6.6299   -7.0241    1.7672 H   0  0  0  0  0  0  0  0  0  0  0  0
    5.8062   -4.2256    0.6634 H   0  0  0  0  0  0  0  0  0  0  0  0
    5.1481   -5.7398   -0.0076 H   0  0  0  0  0  0  0  0  0  0  0  0
    5.9537   -4.5582   -1.0799 H   0  0  0  0  0  0  0  0  0  0  0  0
    9.0466   -2.5206   -0.3960 H   0  0  0  0  0  0  0  0  0  0  0  0
    8.7582   -0.4863    0.1699 H   0  0  0  0  0  0  0  0  0  0  0  0
    9.2459    0.3477   -3.5314 H   0  0  0  0  0  0  0  0  0  0  0  0
    7.6414   -0.5186   -5.2533 H   0  0  0  0  0  0  0  0  0  0  0  0
    5.6630   -1.8586   -4.4980 H   0  0  0  0  0  0  0  0  0  0  0  0
    6.7574   -1.5014   -0.5261 H   0  0  0  0  0  0  0  0  0  0  0  0
    7.7179    0.6681    1.9367 H   0  0  0  0  0  0  0  0  0  0  0  0
    4.5981   -0.5977    3.6533 H   0  0  0  0  0  0  0  0  0  0  0  0
    7.3970   -1.5644    2.8200 H   0  0  0  0  0  0  0  0  0  0  0  0
    5.8468   -2.2321    2.2506 H   0  0  0  0  0  0  0  0  0  0  0  0
    6.3017   -2.3612    3.9674 H   0  0  0  0  0  0  0  0  0  0  0  0
    7.3489    0.5921    4.3774 H   0  0  0  0  0  0  0  0  0  0  0  0
    6.2656   -0.2922    5.4738 H   0  0  0  0  0  0  0  0  0  0  0  0
    5.7758    1.2913    4.8215 H   0  0  0  0  0  0  0  0  0  0  0  0
  1  2  1  0
  1 40  1  0
  1 41  1  0
  1 42  1  0
  2  3  1  0
  2 43  1  0
  2 44  1  0
  3  4  1  0
  4  5  2  0
  4 36  1  0
  5  6  1  0
  5 45  1  0
  6  7  2  0
  6 46  1  0
  7  8  1  0
  7 35  1  0
  8  9  1  0
  8 10  2  0
  9 47  1  0
 10 11  1  0
 10 28  1  0
 11 12  2  0
 11 13  1  0
 13 14  2  0
 13 15  1  0
 15 16  1  0
 15 28  1  0
 16 17  2  0
 16 27  1  0
 17 18  1  0
 17 48  1  0
 18 19  2  0
 18 49  1  0
 19 20  1  0
 19 50  1  0
 20 21  1  0
 20 27  2  0
 21 22  2  0
 21 23  1  0
 23 24  1  0
 24 25  1  0
 24 26  1  0
 24 51  1  6
 25 52  1  0
 25 53  1  0
 25 54  1  0
 26 55  1  0
 26 56  1  0
 26 57  1  0
 27 58  1  0
 28 29  1  0
 28 59  1  1
 29 30  2  0
 29 34  1  0
 30 31  1  0
 30 60  1  0
 31 32  2  0
 31 61  1  0
 32 33  1  0
 32 62  1  0
 33 34  2  0
 34 63  1  0
 35 36  2  0
 35 64  1  0
 36 37  1  0
 37 38  1  0
 37 39  1  0
 37 65  1  1
 38 66  1  0
 38 67  1  0
 38 68  1  0
 39 69  1  0
 39 70  1  0
 39 71  1  0
M  END

