
     RDKit          3D

 73 75  0  0  0  0  0  0  0  0999 V2000
    5.4135   -1.0920   -4.0264 C   0  0  0  0  0  0  0  0  0  0  0  0
    4.0447   -0.4289   -4.1742 C   0  0  0  0  0  0  0  0  0  0  0  0
    4.0297    1.0724   -3.8200 C   0  0  1  0  0  0  0  0  0  0  0  0
    2.6466    1.7218   -4.0699 C   0  0  0  0  0  0  0  0  0  0  0  0
    1.6161    1.3392   -2.9974 C   0  0  0  0  0  0  0  0  0  0  0  0
    2.1733    1.6081   -1.5937 C   0  0  0  0  0  0  0  0  0  0  0  0
    3.5508    0.9450   -1.4247 C   0  0  0  0  0  0  0  0  0  0  0  0
    4.5256    1.3237   -2.4522 N   0  0  0  0  0  0  0  0  0  0  0  0
    5.1373    2.6393   -2.2660 C   0  0  0  0  0  0  0  0  0  0  0  0
    6.0312    2.7495   -1.0232 C   0  0  0  0  0  0  0  0  0  0  0  0
    7.0406    1.6043   -0.8574 C   0  0  0  0  0  0  0  0  0  0  0  0
    7.8481    1.3487   -2.0379 N   0  0  0  0  0  0  0  0  0  0  0  0
    9.0155    2.0149   -2.2775 C   0  0  0  0  0  0  0  0  0  0  0  0
    9.4657    2.8525   -1.5068 O   0  0  0  0  0  0  0  0  0  0  0  0
    9.7347    1.6627   -3.5570 C   0  0  0  0  0  0  0  0  0  0  0  0
   10.6688    2.5866   -4.0480 C   0  0  0  0  0  0  0  0  0  0  0  0
   11.3770    2.3257   -5.2208 C   0  0  0  0  0  0  0  0  0  0  0  0
   11.1873    1.1263   -5.9255 C   0  0  0  0  0  0  0  0  0  0  0  0
   11.9736    0.8219   -7.1873 C   0  0  0  0  0  0  0  0  0  0  0  0
   13.2162    0.0499   -6.9821 N   0  0  0  0  0  0  0  0  0  0  0  0
   14.4602    0.7235   -6.7269 C   0  0  0  0  0  0  0  0  0  0  0  0
   14.7918    1.0810   -5.4109 C   0  0  0  0  0  0  0  0  0  0  0  0
   15.9740    1.7686   -5.1077 C   0  0  0  0  0  0  0  0  0  0  0  0
   16.3273    2.1444   -3.6888 C   0  0  0  0  0  0  0  0  0  0  0  0
   16.8227    2.0932   -6.1764 C   0  0  0  0  0  0  0  0  0  0  0  0
   16.4965    1.7444   -7.4873 C   0  0  0  0  0  0  0  0  0  0  0  0
   15.3146    1.0557   -7.7997 C   0  0  0  0  0  0  0  0  0  0  0  0
   14.9831    0.6770   -9.2200 C   0  0  0  0  0  0  0  0  0  0  0  0
   13.1680   -1.6315   -7.0059 S   0  0  1  0  0  0  0  0  0  0  0  0
   13.2305   -2.1622   -5.2853 C   0  0  0  0  0  0  0  0  0  0  0  0
   11.8491   -2.0033   -7.5324 O   0  0  0  0  0  0  0  0  0  0  0  0
   14.3973   -2.1254   -7.6288 O   0  0  0  0  0  0  0  0  0  0  0  0
   10.2607    0.1957   -5.4259 C   0  0  0  0  0  0  0  0  0  0  0  0
    9.5441    0.4601   -4.2566 C   0  0  0  0  0  0  0  0  0  0  0  0
    5.3846   -2.1464   -4.3439 H   0  0  0  0  0  0  0  0  0  0  0  0
    5.7565   -1.0628   -2.9810 H   0  0  0  0  0  0  0  0  0  0  0  0
    6.1714   -0.5829   -4.6472 H   0  0  0  0  0  0  0  0  0  0  0  0
    3.3050   -0.9788   -3.5683 H   0  0  0  0  0  0  0  0  0  0  0  0
    3.6988   -0.5244   -5.2180 H   0  0  0  0  0  0  0  0  0  0  0  0
    4.7529    1.5559   -4.4996 H   0  0  0  0  0  0  0  0  0  0  0  0
    2.2823    1.4508   -5.0753 H   0  0  0  0  0  0  0  0  0  0  0  0
    2.7679    2.8194   -4.0724 H   0  0  0  0  0  0  0  0  0  0  0  0
    1.3560    0.2693   -3.0881 H   0  0  0  0  0  0  0  0  0  0  0  0
    0.6771    1.8950   -3.1571 H   0  0  0  0  0  0  0  0  0  0  0  0
    1.4833    1.2340   -0.8181 H   0  0  0  0  0  0  0  0  0  0  0  0
    2.2605    2.6974   -1.4320 H   0  0  0  0  0  0  0  0  0  0  0  0
    3.4246   -0.1522   -1.4499 H   0  0  0  0  0  0  0  0  0  0  0  0
    3.9691    1.1746   -0.4330 H   0  0  0  0  0  0  0  0  0  0  0  0
    4.4003    3.4718   -2.2369 H   0  0  0  0  0  0  0  0  0  0  0  0
    5.7614    2.8281   -3.1546 H   0  0  0  0  0  0  0  0  0  0  0  0
    5.4247    2.8071   -0.1027 H   0  0  0  0  0  0  0  0  0  0  0  0
    6.5773    3.7052   -1.0849 H   0  0  0  0  0  0  0  0  0  0  0  0
    6.5153    0.6713   -0.6033 H   0  0  0  0  0  0  0  0  0  0  0  0
    7.7279    1.8447   -0.0337 H   0  0  0  0  0  0  0  0  0  0  0  0
    7.4281    0.7953   -2.7744 H   0  0  0  0  0  0  0  0  0  0  0  0
   10.8224    3.5103   -3.4867 H   0  0  0  0  0  0  0  0  0  0  0  0
   12.0905    3.0644   -5.5968 H   0  0  0  0  0  0  0  0  0  0  0  0
   12.2707    1.7602   -7.6789 H   0  0  0  0  0  0  0  0  0  0  0  0
   11.3471    0.2600   -7.8924 H   0  0  0  0  0  0  0  0  0  0  0  0
   14.0963    0.8221   -4.6091 H   0  0  0  0  0  0  0  0  0  0  0  0
   15.5200    1.8863   -2.9877 H   0  0  0  0  0  0  0  0  0  0  0  0
   16.5204    3.2259   -3.5961 H   0  0  0  0  0  0  0  0  0  0  0  0
   17.2415    1.6259   -3.3534 H   0  0  0  0  0  0  0  0  0  0  0  0
   17.7556    2.6304   -5.9809 H   0  0  0  0  0  0  0  0  0  0  0  0
   17.1798    2.0122   -8.2981 H   0  0  0  0  0  0  0  0  0  0  0  0
   15.7505    1.0472   -9.9150 H   0  0  0  0  0  0  0  0  0  0  0  0
   14.0117    1.0923   -9.5362 H   0  0  0  0  0  0  0  0  0  0  0  0
   14.9133   -0.4166   -9.3190 H   0  0  0  0  0  0  0  0  0  0  0  0
   12.3740   -1.7378   -4.7465 H   0  0  0  0  0  0  0  0  0  0  0  0
   14.1835   -1.8355   -4.8510 H   0  0  0  0  0  0  0  0  0  0  0  0
   13.1764   -3.2593   -5.3069 H   0  0  0  0  0  0  0  0  0  0  0  0
   10.1086   -0.7449   -5.9619 H   0  0  0  0  0  0  0  0  0  0  0  0
    8.8485   -0.2952   -3.8821 H   0  0  0  0  0  0  0  0  0  0  0  0
  1  2  1  0
  1 35  1  0
  1 36  1  0
  1 37  1  0
  2  3  1  0
  2 38  1  0
  2 39  1  0
  3  4  1  0
  3  8  1  0
  3 40  1  6
  4  5  1  0
  4 41  1  0
  4 42  1  0
  5  6  1  0
  5 43  1  0
  5 44  1  0
  6  7  1  0
  6 45  1  0
  6 46  1  0
  7  8  1  0
  7 47  1  0
  7 48  1  0
  8  9  1  0
  9 10  1  0
  9 49  1  0
  9 50  1  0
 10 11  1  0
 10 51  1  0
 10 52  1  0
 11 12  1  0
 11 53  1  0
 11 54  1  0
 12 13  1  0
 12 55  1  0
 13 14  2  0
 13 15  1  0
 15 16  2  0
 15 34  1  0
 16 17  1  0
 16 56  1  0
 17 18  2  0
 17 57  1  0
 18 19  1  0
 18 33  1  0
 19 20  1  0
 19 58  1  0
 19 59  1  0
 20 21  1  0
 29 20  1  1
 21 22  2  0
 21 27  1  0
 22 23  1  0
 22 60  1  0
 23 24  1  0
 23 25  2  0
 24 61  1  0
 24 62  1  0
 24 63  1  0
 25 26  1  0
 25 64  1  0
 26 27  2  0
 26 65  1  0
 27 28  1  0
 28 66  1  0
 28 67  1  0
 28 68  1  0
 29 30  1  0
 29 31  2  0
 29 32  2  0
 30 69  1  0
 30 70  1  0
 30 71  1  0
 33 34  2  0
 33 72  1  0
 34 73  1  0
M  END

