
     RDKit          3D

 42 43  0  0  0  0  0  0  0  0999 V2000
    1.9829    0.2015    3.1257 C   0  0  0  0  0  0  0  0  0  0  0  0
    2.5165   -0.3011    1.3934 Si  0  0  1  0  0  4  0  0  0  0  0  0
    2.8833   -2.1480    1.3141 C   0  0  0  0  0  0  0  0  0  0  0  0
    1.2169    0.1892    0.1294 C   0  0  0  0  0  0  0  0  0  0  0  0
    3.8815    0.5999    0.9258 O   0  0  0  0  0  0  0  0  0  0  0  0
    5.2582    0.5129    1.2223 C   0  0  2  0  0  0  0  0  0  0  0  0
    5.4773   -0.0278    2.5854 C   0  0  0  0  0  0  0  0  0  0  0  0
    5.6324   -0.4601    3.6501 N   0  0  0  0  0  0  0  0  0  0  0  0
    5.8731    1.9283    1.0784 C   0  0  0  0  0  0  0  0  0  0  0  0
    6.2214    2.0272   -0.4107 C   0  0  1  0  0  0  0  0  0  0  0  0
    5.2694    2.0558   -0.9726 H   0  0  0  0  0  0  0  0  0  0  0  0
    7.0371    3.2660   -0.7824 C   0  0  0  0  0  0  0  0  0  0  0  0
    7.5096    3.3368   -2.2427 C   0  0  0  0  0  0  0  0  0  0  0  0
    8.5866    2.2989   -2.6040 C   0  0  0  0  0  0  0  0  0  0  0  0
    8.1020    0.8890   -2.9947 C   0  0  0  0  0  0  0  0  0  0  0  0
    6.9416    0.2764   -2.1817 C   0  0  0  0  0  0  0  0  0  0  0  0
    6.8684    0.6508   -0.6943 C   0  0  2  0  0  0  0  0  0  0  0  0
    7.8899    0.6597   -0.2701 H   0  0  0  0  0  0  0  0  0  0  0  0
    6.0121   -0.3358    0.1381 C   0  0  0  0  0  0  0  0  0  0  0  0
    1.0452   -0.3083    3.4048 H   0  0  0  0  0  0  0  0  0  0  0  0
    1.8044    1.2880    3.1806 H   0  0  0  0  0  0  0  0  0  0  0  0
    2.7456   -0.0574    3.8766 H   0  0  0  0  0  0  0  0  0  0  0  0
    1.9841   -2.7257    1.5879 H   0  0  0  0  0  0  0  0  0  0  0  0
    3.6846   -2.4341    2.0142 H   0  0  0  0  0  0  0  0  0  0  0  0
    3.1835   -2.4594    0.3001 H   0  0  0  0  0  0  0  0  0  0  0  0
    0.2531   -0.3018    0.3444 H   0  0  0  0  0  0  0  0  0  0  0  0
    1.5235   -0.0952   -0.8902 H   0  0  0  0  0  0  0  0  0  0  0  0
    1.0509    1.2787    0.1404 H   0  0  0  0  0  0  0  0  0  0  0  0
    6.7943    2.0024    1.6810 H   0  0  0  0  0  0  0  0  0  0  0  0
    5.1635    2.6879    1.4363 H   0  0  0  0  0  0  0  0  0  0  0  0
    7.9249    3.3263   -0.1244 H   0  0  0  0  0  0  0  0  0  0  0  0
    6.4318    4.1605   -0.5533 H   0  0  0  0  0  0  0  0  0  0  0  0
    7.9247    4.3443   -2.4139 H   0  0  0  0  0  0  0  0  0  0  0  0
    6.6457    3.2503   -2.9272 H   0  0  0  0  0  0  0  0  0  0  0  0
    9.2858    2.2250   -1.7519 H   0  0  0  0  0  0  0  0  0  0  0  0
    9.1938    2.6825   -3.4413 H   0  0  0  0  0  0  0  0  0  0  0  0
    8.9740    0.2140   -2.9430 H   0  0  0  0  0  0  0  0  0  0  0  0
    7.8010    0.8935   -4.0567 H   0  0  0  0  0  0  0  0  0  0  0  0
    7.0048   -0.8211   -2.2783 H   0  0  0  0  0  0  0  0  0  0  0  0
    5.9749    0.5534   -2.6393 H   0  0  0  0  0  0  0  0  0  0  0  0
    6.6200   -1.1374    0.5826 H   0  0  0  0  0  0  0  0  0  0  0  0
    5.2431   -0.8124   -0.4867 H   0  0  0  0  0  0  0  0  0  0  0  0
  1  2  1  0
  1 20  1  0
  1 21  1  0
  1 22  1  0
  2  3  1  0
  2  4  1  0
  2  5  1  6
  3 23  1  0
  3 24  1  0
  3 25  1  0
  4 26  1  0
  4 27  1  0
  4 28  1  0
  5  6  1  0
  6  7  1  1
  6  9  1  0
  6 19  1  0
  7  8  3  0
  9 10  1  0
  9 29  1  0
  9 30  1  0
 10 11  1  6
 10 12  1  0
 10 17  1  0
 12 13  1  0
 12 31  1  0
 12 32  1  0
 13 14  1  0
 13 33  1  0
 13 34  1  0
 14 15  1  0
 14 35  1  0
 14 36  1  0
 15 16  1  0
 15 37  1  0
 15 38  1  0
 16 17  1  0
 16 39  1  0
 16 40  1  0
 17 18  1  1
 17 19  1  0
 19 41  1  0
 19 42  1  0
M  END

