
     RDKit          3D

 73 73  0  0  0  0  0  0  0  0999 V2000
    0.9807   -1.5709   -4.8108 C   0  0  0  0  0  0  0  0  0  0  0  0
    2.4849   -1.3551   -4.6386 C   0  0  0  0  0  0  0  0  0  0  0  0
    3.1795   -2.4723   -3.8536 C   0  0  0  0  0  0  0  0  0  0  0  0
    4.6863   -2.2641   -3.6768 C   0  0  0  0  0  0  0  0  0  0  0  0
    5.3796   -3.3809   -2.8910 C   0  0  0  0  0  0  0  0  0  0  0  0
    6.8869   -3.1727   -2.7161 C   0  0  0  0  0  0  0  0  0  0  0  0
    7.5744   -4.2876   -1.9245 C   0  0  0  0  0  0  0  0  0  0  0  0
    9.0796   -4.0862   -1.7582 C   0  0  0  0  0  0  0  0  0  0  0  0
    9.6722   -5.1483   -0.9688 N   0  0  0  0  0  0  0  0  0  0  0  0
   11.0938   -5.0380   -0.7681 C   0  0  0  0  0  0  0  0  0  0  0  0
   11.6666   -6.3831   -0.3290 C   0  0  0  0  0  0  0  0  0  0  0  0
   11.0553   -7.4217   -0.5847 O   0  0  0  0  0  0  0  0  0  0  0  0
   12.8635   -6.4096    0.3203 N   0  0  0  0  0  0  0  0  0  0  0  0
   13.7673   -5.2654    0.4488 C   0  0  0  0  0  0  0  0  0  0  0  0
   13.8117   -4.6673    1.8584 C   0  0  0  0  0  0  0  0  0  0  0  0
   14.7973   -3.5027    1.9736 C   0  0  0  0  0  0  0  0  0  0  0  0
   14.8674   -2.8947    3.3747 C   0  0  0  0  0  0  0  0  0  0  0  0
   15.7735   -1.7523    3.4007 N   0  0  0  0  0  0  0  0  0  0  0  0
   13.3805   -7.7313    0.6300 C   0  0  0  0  0  0  0  0  0  0  0  0
   13.8691   -8.4244   -0.6604 C   0  0  0  0  0  0  0  0  0  0  0  0
   14.2928   -7.7442   -1.5831 O   0  0  0  0  0  0  0  0  0  0  0  0
   13.7909   -9.7876   -0.7250 N   0  0  0  0  0  0  0  0  0  0  0  0
   13.4096  -10.6714    0.3675 C   0  0  0  0  0  0  0  0  0  0  0  0
   11.9469  -11.1629    0.4007 C   0  0  0  0  0  0  0  0  0  0  0  0
   11.0179  -10.3444   -0.1505 N   0  0  0  0  0  0  0  0  0  0  0  0
   11.6907  -12.2294    0.9320 O   0  0  0  0  0  0  0  0  0  0  0  0
   14.1928  -10.4270   -1.9881 C   0  0  0  0  0  0  0  0  0  0  0  0
   15.6226  -10.8578   -2.0221 C   0  0  0  0  0  0  0  0  0  0  0  0
   16.7646  -10.2695   -2.4937 C   0  0  0  0  0  0  0  0  0  0  0  0
   17.8404  -11.1682   -2.1880 C   0  0  0  0  0  0  0  0  0  0  0  0
   17.2717  -12.2330   -1.5498 C   0  0  0  0  0  0  0  0  0  0  0  0
   15.9301  -12.0562   -1.4430 O   0  0  0  0  0  0  0  0  0  0  0  0
    0.5151   -0.7496   -5.3789 H   0  0  0  0  0  0  0  0  0  0  0  0
    0.4699   -1.6315   -3.8350 H   0  0  0  0  0  0  0  0  0  0  0  0
    0.7694   -2.5096   -5.3502 H   0  0  0  0  0  0  0  0  0  0  0  0
    2.6633   -0.3899   -4.1300 H   0  0  0  0  0  0  0  0  0  0  0  0
    2.9602   -1.2608   -5.6322 H   0  0  0  0  0  0  0  0  0  0  0  0
    3.0015   -3.4388   -4.3616 H   0  0  0  0  0  0  0  0  0  0  0  0
    2.7049   -2.5673   -2.8588 H   0  0  0  0  0  0  0  0  0  0  0  0
    4.8637   -1.2973   -3.1696 H   0  0  0  0  0  0  0  0  0  0  0  0
    5.1605   -2.1699   -4.6717 H   0  0  0  0  0  0  0  0  0  0  0  0
    5.2020   -4.3480   -3.3972 H   0  0  0  0  0  0  0  0  0  0  0  0
    4.9073   -3.4747   -1.8955 H   0  0  0  0  0  0  0  0  0  0  0  0
    7.0640   -2.2042   -2.2120 H   0  0  0  0  0  0  0  0  0  0  0  0
    7.3595   -3.0822   -3.7119 H   0  0  0  0  0  0  0  0  0  0  0  0
    7.3962   -5.2571   -2.4272 H   0  0  0  0  0  0  0  0  0  0  0  0
    7.1221   -4.3781   -0.9217 H   0  0  0  0  0  0  0  0  0  0  0  0
    9.2627   -3.1227   -1.2459 H   0  0  0  0  0  0  0  0  0  0  0  0
    9.5528   -3.9824   -2.7646 H   0  0  0  0  0  0  0  0  0  0  0  0
    9.4659   -6.0701   -1.3536 H   0  0  0  0  0  0  0  0  0  0  0  0
   11.3168   -4.2555   -0.0221 H   0  0  0  0  0  0  0  0  0  0  0  0
   11.6570   -4.7474   -1.6904 H   0  0  0  0  0  0  0  0  0  0  0  0
   13.4832   -4.4948   -0.2803 H   0  0  0  0  0  0  0  0  0  0  0  0
   14.7692   -5.6010    0.1369 H   0  0  0  0  0  0  0  0  0  0  0  0
   14.0803   -5.4582    2.5820 H   0  0  0  0  0  0  0  0  0  0  0  0
   12.7974   -4.3322    2.1389 H   0  0  0  0  0  0  0  0  0  0  0  0
   14.5315   -2.7009    1.2630 H   0  0  0  0  0  0  0  0  0  0  0  0
   15.8072   -3.8463    1.6786 H   0  0  0  0  0  0  0  0  0  0  0  0
   15.1222   -3.6994    4.1012 H   0  0  0  0  0  0  0  0  0  0  0  0
   13.8615   -2.5391    3.6603 H   0  0  0  0  0  0  0  0  0  0  0  0
   16.7362   -2.0606    3.2553 H   0  0  0  0  0  0  0  0  0  0  0  0
   15.7572   -1.3020    4.3155 H   0  0  0  0  0  0  0  0  0  0  0  0
   12.6032   -8.3117    1.1409 H   0  0  0  0  0  0  0  0  0  0  0  0
   14.2311   -7.6285    1.3217 H   0  0  0  0  0  0  0  0  0  0  0  0
   13.6234  -10.2044    1.3405 H   0  0  0  0  0  0  0  0  0  0  0  0
   14.0301  -11.5776    0.3319 H   0  0  0  0  0  0  0  0  0  0  0  0
   11.1939   -9.3822   -0.4456 H   0  0  0  0  0  0  0  0  0  0  0  0
   10.0503  -10.6328   -0.0517 H   0  0  0  0  0  0  0  0  0  0  0  0
   14.0241   -9.7009   -2.7916 H   0  0  0  0  0  0  0  0  0  0  0  0
   13.5357  -11.2950   -2.1523 H   0  0  0  0  0  0  0  0  0  0  0  0
   16.8204   -9.3032   -2.9899 H   0  0  0  0  0  0  0  0  0  0  0  0
   18.8963  -11.0398   -2.4175 H   0  0  0  0  0  0  0  0  0  0  0  0
   17.6680  -13.1572   -1.1371 H   0  0  0  0  0  0  0  0  0  0  0  0
  1  2  1  0
  1 33  1  0
  1 34  1  0
  1 35  1  0
  2  3  1  0
  2 36  1  0
  2 37  1  0
  3  4  1  0
  3 38  1  0
  3 39  1  0
  4  5  1  0
  4 40  1  0
  4 41  1  0
  5  6  1  0
  5 42  1  0
  5 43  1  0
  6  7  1  0
  6 44  1  0
  6 45  1  0
  7  8  1  0
  7 46  1  0
  7 47  1  0
  8  9  1  0
  8 48  1  0
  8 49  1  0
  9 10  1  0
  9 50  1  0
 10 11  1  0
 10 51  1  0
 10 52  1  0
 11 12  2  0
 11 13  1  0
 13 14  1  0
 13 19  1  0
 14 15  1  0
 14 53  1  0
 14 54  1  0
 15 16  1  0
 15 55  1  0
 15 56  1  0
 16 17  1  0
 16 57  1  0
 16 58  1  0
 17 18  1  0
 17 59  1  0
 17 60  1  0
 18 61  1  0
 18 62  1  0
 19 20  1  0
 19 63  1  0
 19 64  1  0
 20 21  2  0
 20 22  1  0
 22 23  1  0
 22 27  1  0
 23 24  1  0
 23 65  1  0
 23 66  1  0
 24 25  1  0
 24 26  2  0
 25 67  1  0
 25 68  1  0
 27 28  1  0
 27 69  1  0
 27 70  1  0
 28 29  2  0
 28 32  1  0
 29 30  1  0
 29 71  1  0
 30 31  2  0
 30 72  1  0
 31 32  1  0
 31 73  1  0
M  END

