
     RDKit          3D

 37 39  0  0  0  0  0  0  0  0999 V2000
    1.4080   -0.1140    0.4226 O   0  0  0  0  0  0  0  0  0  0  0  0
    2.6285   -0.2005    0.4486 C   0  0  0  0  0  0  0  0  0  0  0  0
    3.5038    0.9499    0.2763 C   0  0  0  0  0  0  0  0  0  0  0  0
    4.8702    0.8447    0.2489 C   0  0  0  0  0  0  0  0  0  0  0  0
    5.7060    1.9014    0.0545 N   0  0  0  0  0  0  0  0  0  0  0  0
    5.2739    3.2774   -0.0347 C   0  0  0  0  0  0  0  0  0  0  0  0
    6.4529    4.2078   -0.3656 C   0  0  0  0  0  0  0  0  0  0  0  0
    7.5843    4.1462    0.6126 C   0  0  0  0  0  0  0  0  0  0  0  0
    8.8628    3.6291    0.5150 C   0  0  0  0  0  0  0  0  0  0  0  0
    9.5446    3.7692    1.6986 N   0  0  0  0  0  0  0  0  0  0  0  0
    8.7067    4.3602    2.5157 C   0  0  0  0  0  0  0  0  0  0  0  0
    7.5035    4.6100    1.9128 N   0  0  0  0  0  0  0  0  0  0  0  0
    6.7027    5.0625    2.3380 H   0  0  0  0  0  0  0  0  0  0  0  0
    5.5576   -0.4866    0.4600 C   0  0  0  0  0  0  0  0  0  0  0  0
    4.6828   -1.6919    0.0453 C   0  0  2  0  0  0  0  0  0  0  0  0
    5.1699   -2.5940    0.4543 H   0  0  0  0  0  0  0  0  0  0  0  0
    4.5968   -1.8686   -1.4563 C   0  0  0  0  0  0  0  0  0  0  0  0
    3.5146   -1.7555   -2.2971 C   0  0  0  0  0  0  0  0  0  0  0  0
    3.8297   -2.0103   -3.6690 C   0  0  0  0  0  0  0  0  0  0  0  0
    5.1502   -2.3177   -3.8629 C   0  0  0  0  0  0  0  0  0  0  0  0
    6.0260   -2.3044   -2.3690 S   0  0  0  0  0  0  0  0  0  0  0  0
    3.3022   -1.5523    0.7029 C   0  0  0  0  0  0  0  0  0  0  0  0
    2.9973    1.9061    0.1365 H   0  0  0  0  0  0  0  0  0  0  0  0
    6.7014    1.7468    0.1790 H   0  0  0  0  0  0  0  0  0  0  0  0
    4.7860    3.5971    0.9091 H   0  0  0  0  0  0  0  0  0  0  0  0
    4.5072    3.3748   -0.8227 H   0  0  0  0  0  0  0  0  0  0  0  0
    6.0626    5.2372   -0.4465 H   0  0  0  0  0  0  0  0  0  0  0  0
    6.8487    3.9476   -1.3599 H   0  0  0  0  0  0  0  0  0  0  0  0
    9.3239    3.1778   -0.3642 H   0  0  0  0  0  0  0  0  0  0  0  0
    8.9058    4.6364    3.5518 H   0  0  0  0  0  0  0  0  0  0  0  0
    5.8116   -0.5823    1.5319 H   0  0  0  0  0  0  0  0  0  0  0  0
    6.5128   -0.4988   -0.0900 H   0  0  0  0  0  0  0  0  0  0  0  0
    2.5145   -1.4918   -1.9512 H   0  0  0  0  0  0  0  0  0  0  0  0
    3.0977   -1.9663   -4.4772 H   0  0  0  0  0  0  0  0  0  0  0  0
    5.6607   -2.5577   -4.7946 H   0  0  0  0  0  0  0  0  0  0  0  0
    3.4214   -1.6493    1.7975 H   0  0  0  0  0  0  0  0  0  0  0  0
    2.6087   -2.3456    0.3905 H   0  0  0  0  0  0  0  0  0  0  0  0
  1  2  2  0
  2  3  1  0
  2 22  1  0
  3  4  2  0
  3 23  1  0
  4  5  1  0
  4 14  1  0
  5  6  1  0
  5 24  1  0
  6  7  1  0
  6 25  1  0
  6 26  1  0
  7  8  1  0
  7 27  1  0
  7 28  1  0
  8  9  2  0
  8 12  1  0
  9 10  1  0
  9 29  1  0
 10 11  2  0
 11 12  1  0
 11 30  1  0
 12 13  1  0
 14 15  1  0
 14 31  1  0
 14 32  1  0
 15 16  1  1
 15 17  1  0
 15 22  1  0
 17 18  2  0
 17 21  1  0
 18 19  1  0
 18 33  1  0
 19 20  2  0
 19 34  1  0
 20 21  1  0
 20 35  1  0
 22 36  1  0
 22 37  1  0
M  END

