
     RDKit          3D

 41 42  0  0  0  0  0  0  0  0999 V2000
    0.8825    0.2458   -0.2475 C   0  0  0  0  0  0  0  0  0  0  0  0
    2.3824    0.2423    0.0782 C   0  0  1  0  0  0  0  0  0  0  0  0
    2.7000    1.5706    0.7987 C   0  0  0  0  0  0  0  0  0  0  0  0
    2.8060    2.6174    0.1772 O   0  0  0  0  0  0  0  0  0  0  0  0
    2.7803    1.4726    2.1515 N   0  0  0  0  0  0  0  0  0  0  0  0
    2.9568    2.6256    3.0202 C   0  0  0  0  0  0  0  0  0  0  0  0
    1.6601    3.1576    3.6045 C   0  0  0  0  0  0  0  0  0  0  0  0
    1.3520    2.9859    4.9608 C   0  0  0  0  0  0  0  0  0  0  0  0
    0.1474    3.4651    5.4879 C   0  0  0  0  0  0  0  0  0  0  0  0
   -0.7650    4.1224    4.6593 C   0  0  0  0  0  0  0  0  0  0  0  0
   -0.4659    4.3008    3.3033 C   0  0  0  0  0  0  0  0  0  0  0  0
    0.7373    3.8240    2.7794 C   0  0  0  0  0  0  0  0  0  0  0  0
    2.8034   -0.9135    0.8645 N   0  0  0  0  0  0  0  0  0  0  0  0
    2.2321   -2.2201    0.5417 C   0  0  0  0  0  0  0  0  0  0  0  0
    3.0372   -3.1679    1.4336 C   0  0  0  0  0  0  0  0  0  0  0  0
    4.4597   -2.5479    1.4631 C   0  0  2  0  0  0  0  0  0  0  0  0
    5.0925   -2.5519    2.8572 C   0  0  0  0  0  0  0  0  0  0  0  0
    5.2838   -3.8482    3.3777 O   0  0  0  0  0  0  0  0  0  0  0  0
    4.2561   -1.1225    0.8940 C   0  0  0  0  0  0  0  0  0  0  0  0
    0.6349    1.1844   -0.7628 H   0  0  0  0  0  0  0  0  0  0  0  0
    0.2782    0.1848    0.6716 H   0  0  0  0  0  0  0  0  0  0  0  0
    0.6055   -0.5883   -0.9086 H   0  0  0  0  0  0  0  0  0  0  0  0
    2.9401    0.2989   -0.8817 H   0  0  0  0  0  0  0  0  0  0  0  0
    2.6043    0.5479    2.5365 H   0  0  0  0  0  0  0  0  0  0  0  0
    3.4369    3.4027    2.4073 H   0  0  0  0  0  0  0  0  0  0  0  0
    3.6505    2.3569    3.8329 H   0  0  0  0  0  0  0  0  0  0  0  0
    2.0645    2.4748    5.6157 H   0  0  0  0  0  0  0  0  0  0  0  0
   -0.0765    3.3250    6.5488 H   0  0  0  0  0  0  0  0  0  0  0  0
   -1.7061    4.4991    5.0684 H   0  0  0  0  0  0  0  0  0  0  0  0
   -1.1733    4.8208    2.6517 H   0  0  0  0  0  0  0  0  0  0  0  0
    0.9775    3.9673    1.7225 H   0  0  0  0  0  0  0  0  0  0  0  0
    2.3755   -2.4855   -0.5308 H   0  0  0  0  0  0  0  0  0  0  0  0
    1.1531   -2.2546    0.7493 H   0  0  0  0  0  0  0  0  0  0  0  0
    3.0241   -4.2044    1.0659 H   0  0  0  0  0  0  0  0  0  0  0  0
    2.5968   -3.1659    2.4466 H   0  0  0  0  0  0  0  0  0  0  0  0
    5.1277   -3.1212    0.8008 H   0  0  0  0  0  0  0  0  0  0  0  0
    4.4769   -1.9217    3.5353 H   0  0  0  0  0  0  0  0  0  0  0  0
    6.0920   -2.0890    2.8123 H   0  0  0  0  0  0  0  0  0  0  0  0
    4.4168   -4.2507    3.5174 H   0  0  0  0  0  0  0  0  0  0  0  0
    4.6859   -1.0504   -0.1283 H   0  0  0  0  0  0  0  0  0  0  0  0
    4.7484   -0.3447    1.5010 H   0  0  0  0  0  0  0  0  0  0  0  0
  1  2  1  0
  1 20  1  0
  1 21  1  0
  1 22  1  0
  2  3  1  0
  2 13  1  0
  2 23  1  6
  3  4  2  0
  3  5  1  0
  5  6  1  0
  5 24  1  0
  6  7  1  0
  6 25  1  0
  6 26  1  0
  7  8  2  0
  7 12  1  0
  8  9  1  0
  8 27  1  0
  9 10  2  0
  9 28  1  0
 10 11  1  0
 10 29  1  0
 11 12  2  0
 11 30  1  0
 12 31  1  0
 13 14  1  0
 13 19  1  0
 14 15  1  0
 14 32  1  0
 14 33  1  0
 15 16  1  0
 15 34  1  0
 15 35  1  0
 16 17  1  0
 16 19  1  0
 16 36  1  6
 17 18  1  0
 17 37  1  0
 17 38  1  0
 18 39  1  0
 19 40  1  0
 19 41  1  0
M  END

