
     RDKit          3D

 41 45  0  0  0  0  0  0  0  0999 V2000
    1.3103    0.0083    0.7817 O   0  0  0  0  0  0  0  0  0  0  0  0
    2.4513   -0.1717    0.4779 C   0  0  0  0  0  0  0  0  0  0  0  0
    2.9082   -0.5042   -0.7420 O   0  0  0  0  0  0  0  0  0  0  0  0
    4.3528   -0.6326   -0.7012 B   0  0  2  0  0  0  0  0  0  0  0  0
    4.7689   -0.3498    0.6544 O   0  0  0  0  0  0  0  0  0  0  0  0
    3.6925   -0.0685    1.4089 C   0  0  0  0  0  0  0  0  0  0  0  0
    3.6951    0.2072    2.5709 O   0  0  0  0  0  0  0  0  0  0  0  0
    4.9772    0.3344   -1.6426 O   0  0  0  0  0  0  0  0  0  0  0  0
    5.5965    0.0060   -2.7355 C   0  0  0  0  0  0  0  0  0  0  0  0
    6.0568    1.1342   -3.5699 C   0  0  0  0  0  0  0  0  0  0  0  0
    5.7246    2.4483   -3.1849 C   0  0  0  0  0  0  0  0  0  0  0  0
    6.1405    3.5353   -3.9517 C   0  0  0  0  0  0  0  0  0  0  0  0
    6.8948    3.3293   -5.1113 C   0  0  0  0  0  0  0  0  0  0  0  0
    7.2334    2.0287   -5.5022 C   0  0  0  0  0  0  0  0  0  0  0  0
    6.8189    0.9392   -4.7391 C   0  0  0  0  0  0  0  0  0  0  0  0
    5.8009   -1.3393   -3.0622 C   0  0  0  0  0  0  0  0  0  0  0  0
    5.3703   -2.3351   -2.1738 C   0  0  0  0  0  0  0  0  0  0  0  0
    5.5821   -3.7787   -2.3865 C   0  0  0  0  0  0  0  0  0  0  0  0
    5.0318   -4.7032   -1.4460 C   0  0  0  0  0  0  0  0  0  0  0  0
    5.2065   -6.0558   -1.6115 C   0  0  0  0  0  0  0  0  0  0  0  0
    5.9389   -6.5767   -2.7166 C   0  0  0  0  0  0  0  0  0  0  0  0
    6.1370   -7.9697   -2.9147 C   0  0  0  0  0  0  0  0  0  0  0  0
    6.8551   -8.4319   -3.9988 C   0  0  0  0  0  0  0  0  0  0  0  0
    7.4095   -7.5230   -4.9369 C   0  0  0  0  0  0  0  0  0  0  0  0
    7.2354   -6.1658   -4.7738 C   0  0  0  0  0  0  0  0  0  0  0  0
    6.4987   -5.6556   -3.6658 C   0  0  0  0  0  0  0  0  0  0  0  0
    6.3024   -4.2662   -3.4718 C   0  0  0  0  0  0  0  0  0  0  0  0
    4.7495   -2.0174   -1.0796 O   0  0  0  0  0  0  0  0  0  0  0  0
    5.1357    2.6008   -2.2803 H   0  0  0  0  0  0  0  0  0  0  0  0
    5.8745    4.5490   -3.6434 H   0  0  0  0  0  0  0  0  0  0  0  0
    7.2209    4.1822   -5.7118 H   0  0  0  0  0  0  0  0  0  0  0  0
    7.8253    1.8641   -6.4055 H   0  0  0  0  0  0  0  0  0  0  0  0
    7.1004   -0.0651   -5.0583 H   0  0  0  0  0  0  0  0  0  0  0  0
    6.3015   -1.6078   -3.9845 H   0  0  0  0  0  0  0  0  0  0  0  0
    4.4698   -4.3142   -0.5975 H   0  0  0  0  0  0  0  0  0  0  0  0
    4.7792   -6.7539   -0.8871 H   0  0  0  0  0  0  0  0  0  0  0  0
    5.7109   -8.6712   -2.1928 H   0  0  0  0  0  0  0  0  0  0  0  0
    7.0002   -9.5059   -4.1395 H   0  0  0  0  0  0  0  0  0  0  0  0
    7.9755   -7.9052   -5.7897 H   0  0  0  0  0  0  0  0  0  0  0  0
    7.6611   -5.4622   -5.4943 H   0  0  0  0  0  0  0  0  0  0  0  0
    6.7433   -3.5863   -4.2027 H   0  0  0  0  0  0  0  0  0  0  0  0
  1  2  2  0
  2  3  1  0
  2  6  1  0
  4  3  1  1
  4  5  1  0
  4  8  1  0
  4 28  1  0
  5  6  1  0
  6  7  2  0
  8  9  1  0
  9 10  1  0
  9 16  2  0
 10 11  2  0
 10 15  1  0
 11 12  1  0
 11 29  1  0
 12 13  2  0
 12 30  1  0
 13 14  1  0
 13 31  1  0
 14 15  2  0
 14 32  1  0
 15 33  1  0
 16 17  1  0
 16 34  1  0
 17 18  1  0
 17 28  2  0
 18 19  2  0
 18 27  1  0
 19 20  1  0
 19 35  1  0
 20 21  2  0
 20 36  1  0
 21 22  1  0
 21 26  1  0
 22 23  2  0
 22 37  1  0
 23 24  1  0
 23 38  1  0
 24 25  2  0
 24 39  1  0
 25 26  1  0
 25 40  1  0
 26 27  2  0
 27 41  1  0
M  CHG  2   4  -1  28   1
M  END

