
     RDKit          3D

 37 36  0  0  0  0  0  0  0  0999 V2000
    8.7987    6.9298    5.3732 O   0  0  0  0  0  0  0  0  0  0  0  0
    8.3197    6.4460    6.3852 C   0  0  0  0  0  0  0  0  0  0  0  0
    7.5713    5.3505    6.3856 O   0  0  0  0  0  0  0  0  0  0  0  0
    7.4002    4.6500    5.0994 C   0  0  2  0  0  0  0  0  0  0  0  0
    6.7765    5.4476    4.1744 O   0  0  0  0  0  0  0  0  0  0  0  0
    6.4935    3.4631    5.4454 C   0  0  2  0  0  0  0  0  0  0  0  0
    5.4813    3.9068    5.5834 H   0  0  0  0  0  0  0  0  0  0  0  0
    6.9253    2.8121    6.6116 O   0  0  0  0  0  0  0  0  0  0  0  0
    6.3847    2.4502    4.2990 C   0  0  2  0  0  0  0  0  0  0  0  0
    6.1967    3.0206    3.3719 H   0  0  0  0  0  0  0  0  0  0  0  0
    5.3210    1.5293    4.5429 O   0  0  0  0  0  0  0  0  0  0  0  0
    7.6730    1.6306    4.0720 C   0  0  2  0  0  0  0  0  0  0  0  0
    8.0505    1.3121    5.0592 H   0  0  0  0  0  0  0  0  0  0  0  0
    8.6417    2.4813    3.4815 O   0  0  0  0  0  0  0  0  0  0  0  0
    7.3810    0.3428    3.2592 C   0  0  1  0  0  0  0  0  0  0  0  0
    7.0539   -0.4307    3.9776 H   0  0  0  0  0  0  0  0  0  0  0  0
    6.3949    0.5302    2.2525 O   0  0  0  0  0  0  0  0  0  0  0  0
    8.6134   -0.1629    2.5105 C   0  0  0  0  0  0  0  0  0  0  0  0
    8.9140    0.7194    1.4342 O   0  0  0  0  0  0  0  0  0  0  0  0
    8.5156    7.0468    7.7819 C   0  0  1  0  0  0  0  0  0  0  0  0
    8.3556    6.1062    8.8137 O   0  0  0  0  0  0  0  0  0  0  0  0
    9.8604    7.7958    7.8681 C   0  0  0  0  0  0  0  0  0  0  0  0
    9.9432    8.8837    6.9952 O   0  0  0  0  0  0  0  0  0  0  0  0
    8.4029    4.3244    4.7868 H   0  0  0  0  0  0  0  0  0  0  0  0
    7.4273    6.1031    3.8760 H   0  0  0  0  0  0  0  0  0  0  0  0
    7.0544    3.4940    7.2870 H   0  0  0  0  0  0  0  0  0  0  0  0
    4.5583    2.0096    4.8909 H   0  0  0  0  0  0  0  0  0  0  0  0
    8.8495    2.1434    2.5888 H   0  0  0  0  0  0  0  0  0  0  0  0
    5.5738    0.7481    2.7238 H   0  0  0  0  0  0  0  0  0  0  0  0
    8.4213   -1.1846    2.1352 H   0  0  0  0  0  0  0  0  0  0  0  0
    9.4942   -0.1956    3.1688 H   0  0  0  0  0  0  0  0  0  0  0  0
    8.0765    0.8225    0.9515 H   0  0  0  0  0  0  0  0  0  0  0  0
    7.7106    7.7931    7.9054 H   0  0  0  0  0  0  0  0  0  0  0  0
    9.0981    5.4865    8.7820 H   0  0  0  0  0  0  0  0  0  0  0  0
   10.6817    7.0595    7.7129 H   0  0  0  0  0  0  0  0  0  0  0  0
    9.9563    8.1727    8.8983 H   0  0  0  0  0  0  0  0  0  0  0  0
    9.7955    8.5307    6.1023 H   0  0  0  0  0  0  0  0  0  0  0  0
  1  2  2  0
  2  3  1  0
  2 20  1  0
  3  4  1  0
  4  5  1  0
  4  6  1  0
  4 24  1  6
  5 25  1  0
  6  7  1  1
  6  8  1  0
  6  9  1  0
  8 26  1  0
  9 10  1  6
  9 11  1  0
  9 12  1  0
 11 27  1  0
 12 13  1  1
 12 14  1  0
 12 15  1  0
 14 28  1  0
 15 16  1  1
 15 17  1  0
 15 18  1  0
 17 29  1  0
 18 19  1  0
 18 30  1  0
 18 31  1  0
 19 32  1  0
 20 21  1  0
 20 22  1  0
 20 33  1  1
 21 34  1  0
 22 23  1  0
 22 35  1  0
 22 36  1  0
 23 37  1  0
M  END

