
     RDKit          3D

 32 33  0  0  0  0  0  0  0  0999 V2000
    1.0956    0.4265    0.9161 C   0  0  0  0  0  0  0  0  0  0  0  0
    2.4210    0.3596    0.3349 N   0  0  0  0  0  0  0  0  0  0  0  0
    3.4786    1.1814    0.5685 C   0  0  0  0  0  0  0  0  0  0  0  0
    4.5298    0.7316   -0.2246 C   0  0  0  0  0  0  0  0  0  0  0  0
    5.9247    1.3103   -0.2967 C   0  0  1  0  0  0  0  0  0  0  0  0
    6.7813    0.6352   -1.3804 C   0  0  0  0  0  0  0  0  0  0  0  0
    8.1366    1.1641   -1.3548 N   0  0  0  0  0  0  0  0  0  0  0  0
    5.8637    2.7660   -0.4778 N   0  0  0  0  0  0  0  0  0  0  0  0
    6.4737    3.7037    0.3417 C   0  0  0  0  0  0  0  0  0  0  0  0
    5.9215    4.9991    0.4606 C   0  0  0  0  0  0  0  0  0  0  0  0
    6.5225    5.9613    1.2635 C   0  0  0  0  0  0  0  0  0  0  0  0
    7.6857    5.6739    1.9888 C   0  0  0  0  0  0  0  0  0  0  0  0
    8.3867    6.9139    2.9960 Cl  0  0  0  0  0  0  0  0  0  0  0  0
    8.2455    4.3930    1.8703 C   0  0  0  0  0  0  0  0  0  0  0  0
    9.8418    3.9314    2.7995 Br  0  0  0  0  0  0  0  0  0  0  0  0
    7.6596    3.4235    1.0525 C   0  0  0  0  0  0  0  0  0  0  0  0
    3.9736   -0.3843   -0.9046 C   0  0  0  0  0  0  0  0  0  0  0  0
    2.7064   -0.5959   -0.5585 N   0  0  0  0  0  0  0  0  0  0  0  0
    1.0664    1.2353    1.6581 H   0  0  0  0  0  0  0  0  0  0  0  0
    0.8517   -0.5263    1.4086 H   0  0  0  0  0  0  0  0  0  0  0  0
    0.3437    0.6219    0.1363 H   0  0  0  0  0  0  0  0  0  0  0  0
    3.4175    2.0078    1.2743 H   0  0  0  0  0  0  0  0  0  0  0  0
    6.4342    1.1270    0.6644 H   0  0  0  0  0  0  0  0  0  0  0  0
    6.2621    0.7440   -2.3576 H   0  0  0  0  0  0  0  0  0  0  0  0
    6.8240   -0.4451   -1.1628 H   0  0  0  0  0  0  0  0  0  0  0  0
    8.1348    2.1357   -1.6682 H   0  0  0  0  0  0  0  0  0  0  0  0
    8.7390    0.6516   -1.9974 H   0  0  0  0  0  0  0  0  0  0  0  0
    5.0178    3.0877   -0.9340 H   0  0  0  0  0  0  0  0  0  0  0  0
    5.0054    5.2484   -0.0822 H   0  0  0  0  0  0  0  0  0  0  0  0
    6.0837    6.9571    1.3491 H   0  0  0  0  0  0  0  0  0  0  0  0
    8.1565    2.4623    0.9233 H   0  0  0  0  0  0  0  0  0  0  0  0
    4.4485   -1.0432   -1.6306 H   0  0  0  0  0  0  0  0  0  0  0  0
  1  2  1  0
  1 19  1  0
  1 20  1  0
  1 21  1  0
  2  3  1  0
  2 18  1  0
  3  4  2  0
  3 22  1  0
  4  5  1  0
  4 17  1  0
  5  6  1  0
  5  8  1  0
  5 23  1  1
  6  7  1  0
  6 24  1  0
  6 25  1  0
  7 26  1  0
  7 27  1  0
  8  9  1  0
  8 28  1  0
  9 10  2  0
  9 16  1  0
 10 11  1  0
 10 29  1  0
 11 12  2  0
 11 30  1  0
 12 13  1  0
 12 14  1  0
 14 15  1  0
 14 16  2  0
 16 31  1  0
 17 18  2  0
 17 32  1  0
M  END

