
     RDKit          3D

 34 34  0  0  0  0  0  0  0  0999 V2000
    0.8274    0.2808    0.0156 C   0  0  0  0  0  0  0  0  0  0  0  0
    2.2303    0.0801   -0.3066 N   0  0  0  0  0  0  0  0  0  0  0  0
    2.5068   -0.2967   -1.6889 C   0  0  0  0  0  0  0  0  0  0  0  0
    2.1244   -1.7467   -2.0060 C   0  0  0  0  0  0  0  0  0  0  0  0
    2.4862   -2.1363   -3.4445 C   0  0  0  0  0  0  0  0  0  0  0  0
    2.1427   -3.5046   -3.7720 N   0  0  0  0  0  0  0  0  0  0  0  0
    1.1079   -3.8371   -4.5833 C   0  0  0  0  0  0  0  0  0  0  0  0
    0.3736   -3.0410   -5.1508 O   0  0  0  0  0  0  0  0  0  0  0  0
    0.9220   -5.3300   -4.7516 C   0  0  0  0  0  0  0  0  0  0  0  0
   -0.1011   -5.8123   -5.5830 C   0  0  0  0  0  0  0  0  0  0  0  0
   -0.3005   -7.1192   -5.7596 N   0  0  0  0  0  0  0  0  0  0  0  0
    0.5193   -7.9456   -5.1071 C   0  0  0  0  0  0  0  0  0  0  0  0
    1.5414   -7.4699   -4.2757 C   0  0  0  0  0  0  0  0  0  0  0  0
    1.7399   -6.1640   -4.1004 N   0  0  0  0  0  0  0  0  0  0  0  0
    3.1660    0.9686    0.3279 C   0  0  0  0  0  0  0  0  0  0  0  0
    3.1786    2.4290   -0.1302 C   0  0  1  0  0  0  0  0  0  0  0  0
    3.4379    2.5452   -1.4466 F   0  0  0  0  0  0  0  0  0  0  0  0
    2.0036    3.0449    0.0989 F   0  0  0  0  0  0  0  0  0  0  0  0
    4.1286    3.1172    0.5298 F   0  0  0  0  0  0  0  0  0  0  0  0
    0.2514   -0.6284   -0.2156 H   0  0  0  0  0  0  0  0  0  0  0  0
    0.3555    1.1256   -0.5276 H   0  0  0  0  0  0  0  0  0  0  0  0
    0.7156    0.4724    1.0942 H   0  0  0  0  0  0  0  0  0  0  0  0
    3.5873   -0.1700   -1.8660 H   0  0  0  0  0  0  0  0  0  0  0  0
    2.0042    0.3822   -2.4115 H   0  0  0  0  0  0  0  0  0  0  0  0
    1.0422   -1.9025   -1.8663 H   0  0  0  0  0  0  0  0  0  0  0  0
    2.6364   -2.4124   -1.2894 H   0  0  0  0  0  0  0  0  0  0  0  0
    3.5670   -1.9825   -3.6160 H   0  0  0  0  0  0  0  0  0  0  0  0
    1.9461   -1.4970   -4.1588 H   0  0  0  0  0  0  0  0  0  0  0  0
    2.6476   -4.2815   -3.3538 H   0  0  0  0  0  0  0  0  0  0  0  0
   -0.7541   -5.1051   -6.1020 H   0  0  0  0  0  0  0  0  0  0  0  0
    0.3668   -9.0224   -5.2428 H   0  0  0  0  0  0  0  0  0  0  0  0
    2.2058   -8.1618   -3.7465 H   0  0  0  0  0  0  0  0  0  0  0  0
    4.1949    0.5982    0.1856 H   0  0  0  0  0  0  0  0  0  0  0  0
    2.9815    0.9949    1.4153 H   0  0  0  0  0  0  0  0  0  0  0  0
  1  2  1  0
  1 20  1  0
  1 21  1  0
  1 22  1  0
  2  3  1  0
  2 15  1  0
  3  4  1  0
  3 23  1  0
  3 24  1  0
  4  5  1  0
  4 25  1  0
  4 26  1  0
  5  6  1  0
  5 27  1  0
  5 28  1  0
  6  7  1  0
  6 29  1  0
  7  8  2  0
  7  9  1  0
  9 10  2  0
  9 14  1  0
 10 11  1  0
 10 30  1  0
 11 12  2  0
 12 13  1  0
 12 31  1  0
 13 14  2  0
 13 32  1  0
 15 16  1  0
 15 33  1  0
 15 34  1  0
 16 17  1  6
 16 18  1  0
 16 19  1  0
M  END

