
     RDKit          3D

 54 58  0  0  0  0  0  0  0  0999 V2000
    4.9248    2.1382   -5.1148 N   0  0  0  0  0  0  0  0  0  0  0  0
    5.2728    2.0305   -3.5017 S   0  0  1  0  0  0  0  0  0  0  0  0
    6.6577    2.4138   -3.2589 O   0  0  0  0  0  0  0  0  0  0  0  0
    4.1746    2.6255   -2.7536 O   0  0  0  0  0  0  0  0  0  0  0  0
    5.1762    0.4050   -3.3601 O   0  0  0  0  0  0  0  0  0  0  0  0
    5.5346   -0.1217   -2.0721 C   0  0  0  0  0  0  0  0  0  0  0  0
    5.4193   -1.6268   -2.1222 C   0  0  1  0  0  0  0  0  0  0  0  0
    4.4241   -1.8906   -2.5322 H   0  0  0  0  0  0  0  0  0  0  0  0
    6.4593   -2.1861   -2.9058 O   0  0  0  0  0  0  0  0  0  0  0  0
    6.7341   -3.5184   -2.4905 C   0  0  1  0  0  0  0  0  0  0  0  0
    6.3967   -4.2449   -3.2461 H   0  0  0  0  0  0  0  0  0  0  0  0
    8.1698   -3.6988   -2.4186 N   0  0  0  0  0  0  0  0  0  0  0  0
    9.0910   -2.8748   -1.7885 C   0  0  0  0  0  0  0  0  0  0  0  0
   10.3559   -3.3968   -1.9198 C   0  0  0  0  0  0  0  0  0  0  0  0
   10.2202   -4.6115   -2.6744 C   0  0  0  0  0  0  0  0  0  0  0  0
   11.0574   -5.6447   -3.1812 C   0  0  0  0  0  0  0  0  0  0  0  0
   12.4033   -5.6465   -2.9782 N   0  0  0  0  0  0  0  0  0  0  0  0
   13.3060   -6.6695   -3.5014 C   0  0  1  0  0  0  0  0  0  0  0  0
   12.7627   -7.6229   -3.4424 H   0  0  0  0  0  0  0  0  0  0  0  0
   13.7963   -6.4143   -4.9556 C   0  0  0  0  0  0  0  0  0  0  0  0
   15.1455   -5.6710   -4.8252 C   0  0  0  0  0  0  0  0  0  0  0  0
   15.6412   -6.0916   -3.4572 C   0  0  0  0  0  0  0  0  0  0  0  0
   16.9172   -5.9656   -2.9006 C   0  0  0  0  0  0  0  0  0  0  0  0
   17.1407   -6.4191   -1.5953 C   0  0  0  0  0  0  0  0  0  0  0  0
   16.0997   -6.9884   -0.8495 C   0  0  0  0  0  0  0  0  0  0  0  0
   14.8204   -7.1117   -1.4032 C   0  0  0  0  0  0  0  0  0  0  0  0
   14.6020   -6.6683   -2.7099 C   0  0  0  0  0  0  0  0  0  0  0  0
   10.5120   -6.6562   -3.8723 N   0  0  0  0  0  0  0  0  0  0  0  0
    9.1847   -6.6697   -4.0634 C   0  0  0  0  0  0  0  0  0  0  0  0
    8.2935   -5.7767   -3.6493 N   0  0  0  0  0  0  0  0  0  0  0  0
    8.8473   -4.7658   -2.9675 C   0  0  0  0  0  0  0  0  0  0  0  0
    5.9791   -3.7157   -1.1520 C   0  0  0  0  0  0  0  0  0  0  0  0
    5.5559   -2.2962   -0.7484 C   0  0  2  0  0  0  0  0  0  0  0  0
    6.3719   -1.7972   -0.1869 H   0  0  0  0  0  0  0  0  0  0  0  0
    4.3353   -2.1953   -0.0567 O   0  0  0  0  0  0  0  0  0  0  0  0
    5.7432    2.3507   -5.6806 H   0  0  0  0  0  0  0  0  0  0  0  0
    4.1167    2.7314   -5.2871 H   0  0  0  0  0  0  0  0  0  0  0  0
    4.8395    0.2608   -1.3059 H   0  0  0  0  0  0  0  0  0  0  0  0
    6.5660    0.1777   -1.8240 H   0  0  0  0  0  0  0  0  0  0  0  0
    8.7697   -1.9482   -1.3197 H   0  0  0  0  0  0  0  0  0  0  0  0
   11.2651   -2.9426   -1.5302 H   0  0  0  0  0  0  0  0  0  0  0  0
   12.8111   -4.8531   -2.5010 H   0  0  0  0  0  0  0  0  0  0  0  0
   13.0441   -5.8786   -5.5508 H   0  0  0  0  0  0  0  0  0  0  0  0
   13.9618   -7.3906   -5.4392 H   0  0  0  0  0  0  0  0  0  0  0  0
   15.0123   -4.5741   -4.8629 H   0  0  0  0  0  0  0  0  0  0  0  0
   15.8516   -5.9248   -5.6320 H   0  0  0  0  0  0  0  0  0  0  0  0
   17.7346   -5.5218   -3.4760 H   0  0  0  0  0  0  0  0  0  0  0  0
   18.1371   -6.3315   -1.1541 H   0  0  0  0  0  0  0  0  0  0  0  0
   16.2903   -7.3416    0.1672 H   0  0  0  0  0  0  0  0  0  0  0  0
   14.0055   -7.5543   -0.8235 H   0  0  0  0  0  0  0  0  0  0  0  0
    8.7948   -7.5226   -4.6326 H   0  0  0  0  0  0  0  0  0  0  0  0
    6.5955   -4.2351   -0.4053 H   0  0  0  0  0  0  0  0  0  0  0  0
    5.0643   -4.3049   -1.3186 H   0  0  0  0  0  0  0  0  0  0  0  0
    4.4626   -2.4943    0.8523 H   0  0  0  0  0  0  0  0  0  0  0  0
  1  2  1  0
  1 36  1  0
  1 37  1  0
  2  3  2  0
  2  4  2  0
  2  5  1  1
  5  6  1  0
  6  7  1  0
  6 38  1  0
  6 39  1  0
  7  8  1  6
  7  9  1  0
  7 33  1  0
  9 10  1  0
 10 11  1  6
 10 12  1  0
 10 32  1  0
 12 13  1  0
 12 31  1  0
 13 14  2  0
 13 40  1  0
 14 15  1  0
 14 41  1  0
 15 16  1  0
 15 31  2  0
 16 17  1  0
 16 28  2  0
 17 18  1  0
 17 42  1  0
 18 19  1  6
 18 20  1  0
 18 27  1  0
 20 21  1  0
 20 43  1  0
 20 44  1  0
 21 22  1  0
 21 45  1  0
 21 46  1  0
 22 23  1  0
 22 27  2  0
 23 24  2  0
 23 47  1  0
 24 25  1  0
 24 48  1  0
 25 26  2  0
 25 49  1  0
 26 27  1  0
 26 50  1  0
 28 29  1  0
 29 30  2  0
 29 51  1  0
 30 31  1  0
 32 33  1  0
 32 52  1  0
 32 53  1  0
 33 34  1  1
 33 35  1  0
 35 54  1  0
M  END

