
     RDKit          3D

 50 52  0  0  0  0  0  0  0  0999 V2000
    3.0635    1.3010   -1.4644 C   0  0  0  0  0  0  0  0  0  0  0  0
    2.4912    0.1703   -0.6022 C   0  0  1  0  0  0  0  0  0  0  0  0
    0.9640    0.0948   -0.7071 C   0  0  0  0  0  0  0  0  0  0  0  0
    3.1270   -1.1861   -0.9464 C   0  0  0  0  0  0  0  0  0  0  0  0
    4.5651   -1.1956   -0.7314 N   0  0  0  0  0  0  0  0  0  0  0  0
    5.2352   -2.4261   -1.1090 C   0  0  0  0  0  0  0  0  0  0  0  0
    6.7512   -2.2971   -0.9958 C   0  0  1  0  0  0  0  0  0  0  0  0
    7.3101   -2.1437    0.4263 C   0  0  0  0  0  0  0  0  0  0  0  0
    8.7055   -2.7622    0.2902 C   0  0  0  0  0  0  0  0  0  0  0  0
    8.4538   -3.9070   -0.6996 C   0  0  2  0  0  0  0  0  0  0  0  0
    9.6298   -4.2345   -1.6230 C   0  0  0  0  0  0  0  0  0  0  0  0
   10.8321   -4.6263   -0.9133 N   0  0  0  0  0  0  0  0  0  0  0  0
   10.7654   -5.9285   -0.2697 C   0  0  0  0  0  0  0  0  0  0  0  0
   12.1306   -6.2626    0.4007 C   0  0  1  0  0  0  0  0  0  0  0  0
   13.0484   -7.1654   -0.4676 C   0  0  0  0  0  0  0  0  0  0  0  0
   13.9331   -6.1351   -1.2168 C   0  0  0  0  0  0  0  0  0  0  0  0
   13.2960   -4.7974   -0.7881 C   0  0  1  0  0  0  0  0  0  0  0  0
   12.0588   -4.4119   -1.6606 C   0  0  0  0  0  0  0  0  0  0  0  0
   12.8717   -5.0574    0.5443 O   0  0  0  0  0  0  0  0  0  0  0  0
    7.3503   -3.4893   -1.5084 O   0  0  0  0  0  0  0  0  0  0  0  0
    2.6809    2.2834   -1.1431 H   0  0  0  0  0  0  0  0  0  0  0  0
    2.7827    1.1628   -2.5231 H   0  0  0  0  0  0  0  0  0  0  0  0
    4.1615    1.3144   -1.4111 H   0  0  0  0  0  0  0  0  0  0  0  0
    2.7432    0.3872    0.4554 H   0  0  0  0  0  0  0  0  0  0  0  0
    0.6507   -0.1359   -1.7401 H   0  0  0  0  0  0  0  0  0  0  0  0
    0.4974    1.0528   -0.4270 H   0  0  0  0  0  0  0  0  0  0  0  0
    0.5475   -0.6865   -0.0503 H   0  0  0  0  0  0  0  0  0  0  0  0
    2.9399   -1.4100   -2.0134 H   0  0  0  0  0  0  0  0  0  0  0  0
    2.6037   -1.9865   -0.3733 H   0  0  0  0  0  0  0  0  0  0  0  0
    4.7614   -0.9758    0.2453 H   0  0  0  0  0  0  0  0  0  0  0  0
    4.9919   -2.6511   -2.1611 H   0  0  0  0  0  0  0  0  0  0  0  0
    4.9137   -3.3165   -0.5201 H   0  0  0  0  0  0  0  0  0  0  0  0
    7.0645   -1.4306   -1.6115 H   0  0  0  0  0  0  0  0  0  0  0  0
    6.6985   -2.7280    1.1368 H   0  0  0  0  0  0  0  0  0  0  0  0
    7.3268   -1.0981    0.7692 H   0  0  0  0  0  0  0  0  0  0  0  0
    9.1372   -3.1067    1.2403 H   0  0  0  0  0  0  0  0  0  0  0  0
    9.4109   -2.0360   -0.1469 H   0  0  0  0  0  0  0  0  0  0  0  0
    8.1469   -4.8166   -0.1470 H   0  0  0  0  0  0  0  0  0  0  0  0
    9.8488   -3.3227   -2.2028 H   0  0  0  0  0  0  0  0  0  0  0  0
    9.2981   -5.0014   -2.3608 H   0  0  0  0  0  0  0  0  0  0  0  0
   10.4864   -6.7396   -0.9839 H   0  0  0  0  0  0  0  0  0  0  0  0
    9.9751   -5.9058    0.4970 H   0  0  0  0  0  0  0  0  0  0  0  0
   11.9663   -6.6769    1.4054 H   0  0  0  0  0  0  0  0  0  0  0  0
   12.4696   -7.8108   -1.1450 H   0  0  0  0  0  0  0  0  0  0  0  0
   13.6579   -7.8210    0.1711 H   0  0  0  0  0  0  0  0  0  0  0  0
   13.9389   -6.2730   -2.3084 H   0  0  0  0  0  0  0  0  0  0  0  0
   14.9745   -6.1831   -0.8661 H   0  0  0  0  0  0  0  0  0  0  0  0
   14.0163   -3.9680   -0.7517 H   0  0  0  0  0  0  0  0  0  0  0  0
   12.0825   -4.9866   -2.6174 H   0  0  0  0  0  0  0  0  0  0  0  0
   12.1084   -3.3469   -1.9397 H   0  0  0  0  0  0  0  0  0  0  0  0
  1  2  1  0
  1 21  1  0
  1 22  1  0
  1 23  1  0
  2  3  1  0
  2  4  1  0
  2 24  1  1
  3 25  1  0
  3 26  1  0
  3 27  1  0
  4  5  1  0
  4 28  1  0
  4 29  1  0
  5  6  1  0
  5 30  1  0
  6  7  1  0
  6 31  1  0
  6 32  1  0
  7  8  1  0
  7 20  1  0
  7 33  1  6
  8  9  1  0
  8 34  1  0
  8 35  1  0
  9 10  1  0
  9 36  1  0
  9 37  1  0
 10 11  1  0
 10 20  1  0
 10 38  1  1
 11 12  1  0
 11 39  1  0
 11 40  1  0
 12 13  1  0
 12 18  1  0
 13 14  1  0
 13 41  1  0
 13 42  1  0
 14 15  1  0
 14 19  1  0
 14 43  1  1
 15 16  1  0
 15 44  1  0
 15 45  1  0
 16 17  1  0
 16 46  1  0
 16 47  1  0
 17 18  1  0
 17 19  1  0
 17 48  1  1
 18 49  1  0
 18 50  1  0
M  END

