
     RDKit          3D

 45 48  0  0  0  0  0  0  0  0999 V2000
    3.8283   -2.6032   -1.5959 C   0  0  0  0  0  0  0  0  0  0  0  0
    4.6517   -1.6648   -0.7892 C   0  0  0  0  0  0  0  0  0  0  0  0
    5.2377   -0.5645   -1.1582 N   0  0  0  0  0  0  0  0  0  0  0  0
    5.8430   -0.1315    0.0013 C   0  0  0  0  0  0  0  0  0  0  0  0
    6.5995    1.1789    0.0735 C   0  0  1  0  0  0  0  0  0  0  0  0
    7.2143    1.3429   -1.2551 N   0  0  0  0  0  0  0  0  0  0  0  0
    8.3038    2.0734   -1.5916 C   0  0  0  0  0  0  0  0  0  0  0  0
    8.9859    2.7270   -0.8178 O   0  0  0  0  0  0  0  0  0  0  0  0
    8.6717    2.0945   -3.1150 C   0  0  2  0  0  0  0  0  0  0  0  0
    7.6514    1.0296   -4.2054 S   0  0  0  0  0  0  0  0  0  0  0  0
    8.5359   -0.5342   -3.8580 C   0  0  0  0  0  0  0  0  0  0  0  0
    9.9810   -0.4555   -4.3270 C   0  0  0  0  0  0  0  0  0  0  0  0
   10.7665    0.7506   -3.8385 C   0  0  0  0  0  0  0  0  0  0  0  0
   12.1669    0.7021   -3.9644 C   0  0  0  0  0  0  0  0  0  0  0  0
   12.9760    1.7742   -3.5986 C   0  0  0  0  0  0  0  0  0  0  0  0
   12.3864    2.9368   -3.0936 C   0  0  0  0  0  0  0  0  0  0  0  0
   11.0020    3.0023   -2.9599 C   0  0  0  0  0  0  0  0  0  0  0  0
   10.1741    1.9230   -3.3232 C   0  0  0  0  0  0  0  0  0  0  0  0
    5.6158    2.3449    0.4037 C   0  0  0  0  0  0  0  0  0  0  0  0
    6.5113    3.4317    1.0091 C   0  0  0  0  0  0  0  0  0  0  0  0
    7.5327    2.6525    1.8649 C   0  0  0  0  0  0  0  0  0  0  0  0
    7.6088    1.2269    1.2587 C   0  0  0  0  0  0  0  0  0  0  0  0
    5.6451   -0.9198    1.0255 N   0  0  0  0  0  0  0  0  0  0  0  0
    4.8498   -1.9381    0.5066 O   0  0  0  0  0  0  0  0  0  0  0  0
    3.8084   -2.2641   -2.6385 H   0  0  0  0  0  0  0  0  0  0  0  0
    2.7982   -2.6441   -1.2079 H   0  0  0  0  0  0  0  0  0  0  0  0
    4.2418   -3.6223   -1.5468 H   0  0  0  0  0  0  0  0  0  0  0  0
    6.6944    0.9254   -2.0293 H   0  0  0  0  0  0  0  0  0  0  0  0
    8.4070    3.1162   -3.4330 H   0  0  0  0  0  0  0  0  0  0  0  0
    7.9864   -1.3252   -4.3894 H   0  0  0  0  0  0  0  0  0  0  0  0
    8.4651   -0.7446   -2.7790 H   0  0  0  0  0  0  0  0  0  0  0  0
    9.9931   -0.4522   -5.4319 H   0  0  0  0  0  0  0  0  0  0  0  0
   10.5096   -1.3748   -4.0188 H   0  0  0  0  0  0  0  0  0  0  0  0
   12.6251   -0.2071   -4.3657 H   0  0  0  0  0  0  0  0  0  0  0  0
   14.0613    1.7047   -3.7087 H   0  0  0  0  0  0  0  0  0  0  0  0
   13.0032    3.7909   -2.8032 H   0  0  0  0  0  0  0  0  0  0  0  0
   10.5406    3.9017   -2.5503 H   0  0  0  0  0  0  0  0  0  0  0  0
    4.8941    1.9855    1.1570 H   0  0  0  0  0  0  0  0  0  0  0  0
    5.0469    2.6593   -0.4847 H   0  0  0  0  0  0  0  0  0  0  0  0
    5.9341    4.1680    1.5905 H   0  0  0  0  0  0  0  0  0  0  0  0
    7.0352    3.9756    0.2104 H   0  0  0  0  0  0  0  0  0  0  0  0
    7.1953    2.5982    2.9129 H   0  0  0  0  0  0  0  0  0  0  0  0
    8.5142    3.1447    1.8563 H   0  0  0  0  0  0  0  0  0  0  0  0
    7.3028    0.4724    1.9956 H   0  0  0  0  0  0  0  0  0  0  0  0
    8.6182    0.9669    0.9188 H   0  0  0  0  0  0  0  0  0  0  0  0
  1  2  1  0
  1 25  1  0
  1 26  1  0
  1 27  1  0
  2  3  2  0
  2 24  1  0
  3  4  1  0
  4  5  1  0
  4 23  2  0
  5  6  1  6
  5 19  1  0
  5 22  1  0
  6  7  1  0
  6 28  1  0
  7  8  2  0
  7  9  1  0
  9 10  1  0
  9 18  1  0
  9 29  1  6
 10 11  1  0
 11 12  1  0
 11 30  1  0
 11 31  1  0
 12 13  1  0
 12 32  1  0
 12 33  1  0
 13 14  2  0
 13 18  1  0
 14 15  1  0
 14 34  1  0
 15 16  2  0
 15 35  1  0
 16 17  1  0
 16 36  1  0
 17 18  2  0
 17 37  1  0
 19 20  1  0
 19 38  1  0
 19 39  1  0
 20 21  1  0
 20 40  1  0
 20 41  1  0
 21 22  1  0
 21 42  1  0
 21 43  1  0
 22 44  1  0
 22 45  1  0
 23 24  1  0
M  END

