
     RDKit          3D

 35 34  0  0  0  0  0  0  0  0999 V2000
    0.9905    0.1365    0.1166 C   0  0  0  0  0  0  0  0  0  0  0  0
    2.4502    0.1043    0.0896 C   0  0  0  0  0  0  0  0  0  0  0  0
    3.6630    0.0800    0.0658 C   0  0  0  0  0  0  0  0  0  0  0  0
    5.1260    0.0381    0.0270 C   0  0  0  0  0  0  0  0  0  0  0  0
    5.6961   -1.0004   -0.9578 C   0  0  0  0  0  0  0  0  0  0  0  0
    7.2262   -1.0265   -0.9803 C   0  0  0  0  0  0  0  0  0  0  0  0
    7.8104   -2.0533   -1.9549 C   0  0  0  0  0  0  0  0  0  0  0  0
    9.3415   -2.0827   -1.9800 C   0  0  0  0  0  0  0  0  0  0  0  0
    9.9258   -3.1090   -2.9549 C   0  0  0  0  0  0  0  0  0  0  0  0
   11.4569   -3.1379   -2.9791 C   0  0  0  0  0  0  0  0  0  0  0  0
   12.0408   -4.1598   -3.9577 C   0  0  0  0  0  0  0  0  0  0  0  0
   13.5683   -4.1945   -3.9729 C   0  0  0  0  0  0  0  0  0  0  0  0
   14.0949   -5.0914   -4.9288 O   0  0  0  0  0  0  0  0  0  0  0  0
    0.5665   -0.8788    0.1932 H   0  0  0  0  0  0  0  0  0  0  0  0
    0.5800    0.5989   -0.7967 H   0  0  0  0  0  0  0  0  0  0  0  0
    0.6179    0.7162    0.9777 H   0  0  0  0  0  0  0  0  0  0  0  0
    5.5117   -0.1713    1.0418 H   0  0  0  0  0  0  0  0  0  0  0  0
    5.5123    1.0402   -0.2360 H   0  0  0  0  0  0  0  0  0  0  0  0
    5.3099   -0.7851   -1.9693 H   0  0  0  0  0  0  0  0  0  0  0  0
    5.3080   -1.9987   -0.6906 H   0  0  0  0  0  0  0  0  0  0  0  0
    7.6038   -1.2343    0.0384 H   0  0  0  0  0  0  0  0  0  0  0  0
    7.6056   -0.0204   -1.2396 H   0  0  0  0  0  0  0  0  0  0  0  0
    7.4327   -1.8452   -2.9732 H   0  0  0  0  0  0  0  0  0  0  0  0
    7.4302   -3.0589   -1.6958 H   0  0  0  0  0  0  0  0  0  0  0  0
    9.7191   -2.2908   -0.9614 H   0  0  0  0  0  0  0  0  0  0  0  0
    9.7214   -1.0767   -2.2387 H   0  0  0  0  0  0  0  0  0  0  0  0
    9.5495   -2.9007   -3.9736 H   0  0  0  0  0  0  0  0  0  0  0  0
    9.5461   -4.1151   -2.6967 H   0  0  0  0  0  0  0  0  0  0  0  0
   11.8325   -3.3475   -1.9601 H   0  0  0  0  0  0  0  0  0  0  0  0
   11.8353   -2.1309   -3.2356 H   0  0  0  0  0  0  0  0  0  0  0  0
   11.6894   -3.9516   -4.9837 H   0  0  0  0  0  0  0  0  0  0  0  0
   11.6634   -5.1695   -3.7030 H   0  0  0  0  0  0  0  0  0  0  0  0
   13.9473   -4.4153   -2.9522 H   0  0  0  0  0  0  0  0  0  0  0  0
   13.9606   -3.1991   -4.2414 H   0  0  0  0  0  0  0  0  0  0  0  0
   13.7829   -5.9789   -4.7083 H   0  0  0  0  0  0  0  0  0  0  0  0
  1  2  1  0
  1 14  1  0
  1 15  1  0
  1 16  1  0
  2  3  3  0
  3  4  1  0
  4  5  1  0
  4 17  1  0
  4 18  1  0
  5  6  1  0
  5 19  1  0
  5 20  1  0
  6  7  1  0
  6 21  1  0
  6 22  1  0
  7  8  1  0
  7 23  1  0
  7 24  1  0
  8  9  1  0
  8 25  1  0
  8 26  1  0
  9 10  1  0
  9 27  1  0
  9 28  1  0
 10 11  1  0
 10 29  1  0
 10 30  1  0
 11 12  1  0
 11 31  1  0
 11 32  1  0
 12 13  1  0
 12 33  1  0
 12 34  1  0
 13 35  1  0
M  END

