
     RDKit          3D

 45 47  0  0  0  0  0  0  0  0999 V2000
    1.6538   -1.2731   -1.6480 C   0  0  0  0  0  0  0  0  0  0  0  0
    3.1648   -1.3133   -1.4632 C   0  0  0  0  0  0  0  0  0  0  0  0
    3.8646   -2.0586   -2.1231 O   0  0  0  0  0  0  0  0  0  0  0  0
    3.6452   -0.4497   -0.5030 N   0  0  0  0  0  0  0  0  0  0  0  0
    4.9741   -0.2385   -0.0829 C   0  0  0  0  0  0  0  0  0  0  0  0
    6.0784   -0.9266   -0.6142 C   0  0  0  0  0  0  0  0  0  0  0  0
    7.3686   -0.6675   -0.1486 C   0  0  0  0  0  0  0  0  0  0  0  0
    7.5898    0.2861    0.8592 C   0  0  0  0  0  0  0  0  0  0  0  0
    8.8625    0.5960    1.3796 N   0  0  0  0  0  0  0  0  0  0  0  0
   10.0847    0.1210    0.9951 C   0  0  0  0  0  0  0  0  0  0  0  0
   10.2882   -0.7119    0.1265 O   0  0  0  0  0  0  0  0  0  0  0  0
   11.2498    0.7595    1.7749 C   0  0  0  0  0  0  0  0  0  0  0  0
   11.5257    2.1450    1.3913 N   0  0  0  0  0  0  0  0  0  0  0  0
   10.8414    3.1392    2.0349 C   0  0  0  0  0  0  0  0  0  0  0  0
    9.9428    2.9198    2.8394 O   0  0  0  0  0  0  0  0  0  0  0  0
   11.2442    4.5548    1.6505 C   0  0  0  0  0  0  0  0  0  0  0  0
   12.6004    4.6733    1.2668 O   0  0  0  0  0  0  0  0  0  0  0  0
   13.0084    3.7518    0.3436 C   0  0  0  0  0  0  0  0  0  0  0  0
   13.9859    4.0926   -0.5867 C   0  0  0  0  0  0  0  0  0  0  0  0
   14.4399    3.1554   -1.5297 C   0  0  0  0  0  0  0  0  0  0  0  0
   15.5066    3.5356   -2.5273 C   0  0  0  0  0  0  0  0  0  0  0  0
   13.8658    1.8769   -1.5199 C   0  0  0  0  0  0  0  0  0  0  0  0
   12.8834    1.5235   -0.5886 C   0  0  0  0  0  0  0  0  0  0  0  0
   12.4614    2.4537    0.3660 C   0  0  0  0  0  0  0  0  0  0  0  0
    6.4843    0.9748    1.3889 C   0  0  0  0  0  0  0  0  0  0  0  0
    5.1993    0.7158    0.9254 C   0  0  0  0  0  0  0  0  0  0  0  0
    1.2516   -2.2792   -1.4539 H   0  0  0  0  0  0  0  0  0  0  0  0
    1.4376   -1.0383   -2.7012 H   0  0  0  0  0  0  0  0  0  0  0  0
    1.1337   -0.5486   -1.0041 H   0  0  0  0  0  0  0  0  0  0  0  0
    2.9540    0.1162   -0.0266 H   0  0  0  0  0  0  0  0  0  0  0  0
    5.9152   -1.6661   -1.3946 H   0  0  0  0  0  0  0  0  0  0  0  0
    8.2169   -1.2048   -0.5668 H   0  0  0  0  0  0  0  0  0  0  0  0
    8.8910    1.3205    2.0994 H   0  0  0  0  0  0  0  0  0  0  0  0
   12.1432    0.1524    1.5917 H   0  0  0  0  0  0  0  0  0  0  0  0
   11.0248    0.7590    2.8513 H   0  0  0  0  0  0  0  0  0  0  0  0
   11.0826    5.1996    2.5237 H   0  0  0  0  0  0  0  0  0  0  0  0
   10.5719    4.8986    0.8374 H   0  0  0  0  0  0  0  0  0  0  0  0
   14.3875    5.1084   -0.5577 H   0  0  0  0  0  0  0  0  0  0  0  0
   15.2097    4.4191   -3.1164 H   0  0  0  0  0  0  0  0  0  0  0  0
   15.7114    2.7153   -3.2305 H   0  0  0  0  0  0  0  0  0  0  0  0
   16.4537    3.7901   -2.0221 H   0  0  0  0  0  0  0  0  0  0  0  0
   14.1841    1.1358   -2.2573 H   0  0  0  0  0  0  0  0  0  0  0  0
   12.4340    0.5291   -0.6176 H   0  0  0  0  0  0  0  0  0  0  0  0
    6.6349    1.7234    2.1718 H   0  0  0  0  0  0  0  0  0  0  0  0
    4.3559    1.2655    1.3545 H   0  0  0  0  0  0  0  0  0  0  0  0
  1  2  1  0
  1 27  1  0
  1 28  1  0
  1 29  1  0
  2  3  2  0
  2  4  1  0
  4  5  1  0
  4 30  1  0
  5  6  2  0
  5 26  1  0
  6  7  1  0
  6 31  1  0
  7  8  2  0
  7 32  1  0
  8  9  1  0
  8 25  1  0
  9 10  1  0
  9 33  1  0
 10 11  2  0
 10 12  1  0
 12 13  1  0
 12 34  1  0
 12 35  1  0
 13 14  1  0
 13 24  1  0
 14 15  2  0
 14 16  1  0
 16 17  1  0
 16 36  1  0
 16 37  1  0
 17 18  1  0
 18 19  2  0
 18 24  1  0
 19 20  1  0
 19 38  1  0
 20 21  1  0
 20 22  2  0
 21 39  1  0
 21 40  1  0
 21 41  1  0
 22 23  1  0
 22 42  1  0
 23 24  2  0
 23 43  1  0
 25 26  2  0
 25 44  1  0
 26 45  1  0
M  END

