
     RDKit          3D

 44 45  0  0  0  0  0  0  0  0999 V2000
    2.3213    7.4228    0.3099 C   0  0  0  0  0  0  0  0  0  0  0  0
    3.4049    7.5267    1.2050 O   0  0  0  0  0  0  0  0  0  0  0  0
    3.7721    6.4436    1.9350 C   0  0  0  0  0  0  0  0  0  0  0  0
    3.1442    5.1890    1.8698 C   0  0  0  0  0  0  0  0  0  0  0  0
    3.6053    4.1398    2.6682 C   0  0  0  0  0  0  0  0  0  0  0  0
    4.6897    4.3042    3.5434 C   0  0  0  0  0  0  0  0  0  0  0  0
    5.1830    3.2085    4.3875 C   0  0  0  0  0  0  0  0  0  0  0  0
    4.7483    1.9165    4.5061 C   0  0  0  0  0  0  0  0  0  0  0  0
    5.5427    1.2832    5.4340 O   0  0  0  0  0  0  0  0  0  0  0  0
    6.4106    2.2238    5.8224 C   0  0  0  0  0  0  0  0  0  0  0  0
    7.3748    1.9406    6.7710 N   0  0  0  0  0  0  0  0  0  0  0  0
    7.6431    0.7333    7.4109 C   0  0  0  0  0  0  0  0  0  0  0  0
    7.0272   -0.2861    7.1904 O   0  0  0  0  0  0  0  0  0  0  0  0
    8.7487    0.8253    8.4547 C   0  0  0  0  0  0  0  0  0  0  0  0
    8.2032    1.0415    9.8839 C   0  0  0  0  0  0  0  0  0  0  0  0
    7.2432   -0.0393   10.4080 C   0  0  0  0  0  0  0  0  0  0  0  0
    7.7832   -1.4752   10.4375 C   0  0  0  0  0  0  0  0  0  0  0  0
    9.0195   -1.6708   11.3144 C   0  0  0  0  0  0  0  0  0  0  0  0
    9.4437   -3.1297   11.4471 C   0  0  0  0  0  0  0  0  0  0  0  0
    8.8552   -4.0605   10.9737 O   0  0  0  0  0  0  0  0  0  0  0  0
   10.5739   -3.3330   12.1706 O   0  0  0  0  0  0  0  0  0  0  0  0
    6.2629    3.3799    5.2527 N   0  0  0  0  0  0  0  0  0  0  0  0
    5.3086    5.5691    3.5964 C   0  0  0  0  0  0  0  0  0  0  0  0
    4.8599    6.6209    2.8080 C   0  0  0  0  0  0  0  0  0  0  0  0
    2.2084    8.4085   -0.1613 H   0  0  0  0  0  0  0  0  0  0  0  0
    1.3803    7.1660    0.8297 H   0  0  0  0  0  0  0  0  0  0  0  0
    2.5075    6.6701   -0.4777 H   0  0  0  0  0  0  0  0  0  0  0  0
    2.2986    5.0172    1.2037 H   0  0  0  0  0  0  0  0  0  0  0  0
    3.0999    3.1731    2.5989 H   0  0  0  0  0  0  0  0  0  0  0  0
    3.9649    1.3165    4.0564 H   0  0  0  0  0  0  0  0  0  0  0  0
    7.9527    2.7460    6.9850 H   0  0  0  0  0  0  0  0  0  0  0  0
    9.4531    1.6373    8.2091 H   0  0  0  0  0  0  0  0  0  0  0  0
    9.3094   -0.1194    8.3963 H   0  0  0  0  0  0  0  0  0  0  0  0
    7.6883    2.0174    9.9242 H   0  0  0  0  0  0  0  0  0  0  0  0
    9.0709    1.1389   10.5595 H   0  0  0  0  0  0  0  0  0  0  0  0
    6.3261   -0.0372    9.7977 H   0  0  0  0  0  0  0  0  0  0  0  0
    6.9320    0.2555   11.4268 H   0  0  0  0  0  0  0  0  0  0  0  0
    7.9954   -1.8201    9.4135 H   0  0  0  0  0  0  0  0  0  0  0  0
    6.9918   -2.1465   10.8059 H   0  0  0  0  0  0  0  0  0  0  0  0
    8.8392   -1.2812   12.3351 H   0  0  0  0  0  0  0  0  0  0  0  0
    9.8867   -1.1031   10.9292 H   0  0  0  0  0  0  0  0  0  0  0  0
   10.9298   -2.4904   12.4862 H   0  0  0  0  0  0  0  0  0  0  0  0
    6.1532    5.7091    4.2729 H   0  0  0  0  0  0  0  0  0  0  0  0
    5.3372    7.6022    2.8467 H   0  0  0  0  0  0  0  0  0  0  0  0
  1  2  1  0
  1 25  1  0
  1 26  1  0
  1 27  1  0
  2  3  1  0
  3  4  2  0
  3 24  1  0
  4  5  1  0
  4 28  1  0
  5  6  2  0
  5 29  1  0
  6  7  1  0
  6 23  1  0
  7  8  2  0
  7 22  1  0
  8  9  1  0
  8 30  1  0
  9 10  1  0
 10 11  1  0
 10 22  2  0
 11 12  1  0
 11 31  1  0
 12 13  2  0
 12 14  1  0
 14 15  1  0
 14 32  1  0
 14 33  1  0
 15 16  1  0
 15 34  1  0
 15 35  1  0
 16 17  1  0
 16 36  1  0
 16 37  1  0
 17 18  1  0
 17 38  1  0
 17 39  1  0
 18 19  1  0
 18 40  1  0
 18 41  1  0
 19 20  2  0
 19 21  1  0
 21 42  1  0
 23 24  2  0
 23 43  1  0
 24 44  1  0
M  END

