
     RDKit          3D

 43 44  0  0  0  0  0  0  0  0999 V2000
    1.2625   -0.5360    0.3938 C   0  0  0  0  0  0  0  0  0  0  0  0
    2.5705   -0.3921    0.1730 C   0  0  0  0  0  0  0  0  0  0  0  0
    3.3423   -1.1458   -0.8678 C   0  0  0  0  0  0  0  0  0  0  0  0
    4.1043   -0.2140   -1.6238 O   0  0  0  0  0  0  0  0  0  0  0  0
    4.9358   -0.6562   -2.5969 C   0  0  0  0  0  0  0  0  0  0  0  0
    5.6826    0.3301   -3.2696 C   0  0  0  0  0  0  0  0  0  0  0  0
    6.5630   -0.0269   -4.2801 C   0  0  0  0  0  0  0  0  0  0  0  0
    6.7190   -1.3713   -4.6675 C   0  0  0  0  0  0  0  0  0  0  0  0
    7.7020   -1.6660   -5.7668 C   0  0  0  0  0  0  0  0  0  0  0  0
    8.5518   -0.8508   -6.1011 O   0  0  0  0  0  0  0  0  0  0  0  0
    7.5876   -2.8834   -6.3836 N   0  0  0  0  0  0  0  0  0  0  0  0
    8.4782   -3.2788   -7.4632 C   0  0  0  0  0  0  0  0  0  0  0  0
    9.7873   -3.9438   -6.9851 C   0  0  1  0  0  0  0  0  0  0  0  0
    9.5553   -5.2400   -6.1826 C   0  0  0  0  0  0  0  0  0  0  0  0
    9.1304   -6.4287   -7.0583 C   0  0  0  0  0  0  0  0  0  0  0  0
   10.1233   -6.6670   -8.2037 C   0  0  0  0  0  0  0  0  0  0  0  0
   10.3315   -5.3967   -9.0391 C   0  0  0  0  0  0  0  0  0  0  0  0
   10.7501   -4.2066   -8.1613 C   0  0  0  0  0  0  0  0  0  0  0  0
    5.9809   -2.3456   -3.9839 C   0  0  0  0  0  0  0  0  0  0  0  0
    5.0938   -2.0039   -2.9577 C   0  0  0  0  0  0  0  0  0  0  0  0
    0.7549    0.0115    1.1925 H   0  0  0  0  0  0  0  0  0  0  0  0
    0.6473   -1.2097   -0.2123 H   0  0  0  0  0  0  0  0  0  0  0  0
    3.1642    0.2962    0.7860 H   0  0  0  0  0  0  0  0  0  0  0  0
    2.6608   -1.7184   -1.5236 H   0  0  0  0  0  0  0  0  0  0  0  0
    4.0254   -1.8704   -0.3806 H   0  0  0  0  0  0  0  0  0  0  0  0
    5.5513    1.3717   -2.9698 H   0  0  0  0  0  0  0  0  0  0  0  0
    7.1581    0.7275   -4.7980 H   0  0  0  0  0  0  0  0  0  0  0  0
    6.7994   -3.4743   -6.1587 H   0  0  0  0  0  0  0  0  0  0  0  0
    8.7370   -2.3700   -8.0279 H   0  0  0  0  0  0  0  0  0  0  0  0
    7.9153   -3.9409   -8.1395 H   0  0  0  0  0  0  0  0  0  0  0  0
   10.2629   -3.2059   -6.3176 H   0  0  0  0  0  0  0  0  0  0  0  0
    8.8133   -5.0588   -5.3866 H   0  0  0  0  0  0  0  0  0  0  0  0
   10.4956   -5.5018   -5.6648 H   0  0  0  0  0  0  0  0  0  0  0  0
    8.1250   -6.2478   -7.4824 H   0  0  0  0  0  0  0  0  0  0  0  0
    9.0359   -7.3363   -6.4380 H   0  0  0  0  0  0  0  0  0  0  0  0
    9.7813   -7.4978   -8.8442 H   0  0  0  0  0  0  0  0  0  0  0  0
   11.0942   -6.9828   -7.7782 H   0  0  0  0  0  0  0  0  0  0  0  0
    9.3973   -5.1591   -9.5800 H   0  0  0  0  0  0  0  0  0  0  0  0
   11.0930   -5.5721   -9.8177 H   0  0  0  0  0  0  0  0  0  0  0  0
   10.8532   -3.2948   -8.7745 H   0  0  0  0  0  0  0  0  0  0  0  0
   11.7539   -4.4112   -7.7475 H   0  0  0  0  0  0  0  0  0  0  0  0
    6.1040   -3.4059   -4.2202 H   0  0  0  0  0  0  0  0  0  0  0  0
    4.5435   -2.7934   -2.4462 H   0  0  0  0  0  0  0  0  0  0  0  0
  1  2  2  0
  1 21  1  0
  1 22  1  0
  2  3  1  0
  2 23  1  0
  3  4  1  0
  3 24  1  0
  3 25  1  0
  4  5  1  0
  5  6  2  0
  5 20  1  0
  6  7  1  0
  6 26  1  0
  7  8  2  0
  7 27  1  0
  8  9  1  0
  8 19  1  0
  9 10  2  0
  9 11  1  0
 11 12  1  0
 11 28  1  0
 12 13  1  0
 12 29  1  0
 12 30  1  0
 13 14  1  0
 13 18  1  0
 13 31  1  1
 14 15  1  0
 14 32  1  0
 14 33  1  0
 15 16  1  0
 15 34  1  0
 15 35  1  0
 16 17  1  0
 16 36  1  0
 16 37  1  0
 17 18  1  0
 17 38  1  0
 17 39  1  0
 18 40  1  0
 18 41  1  0
 19 20  2  0
 19 42  1  0
 20 43  1  0
M  END

