
     RDKit          3D

 45 46  0  0  0  0  0  0  0  0999 V2000
    0.7884    0.4346   -0.7982 C   0  0  0  0  0  0  0  0  0  0  0  0
    2.2168    0.2082   -0.6585 N   0  0  0  0  0  0  0  0  0  0  0  0
    2.6958   -0.9510   -1.4022 C   0  0  0  0  0  0  0  0  0  0  0  0
    2.2025   -2.2924   -0.8541 C   0  0  0  0  0  0  0  0  0  0  0  0
    2.8367   -3.4877   -1.5646 C   0  0  0  0  0  0  0  0  0  0  0  0
    2.3705   -4.7473   -1.0094 N   0  0  0  0  0  0  0  0  0  0  0  0
    2.9267   -5.9350   -1.6360 C   0  0  0  0  0  0  0  0  0  0  0  0
    2.4203   -7.2073   -0.9650 C   0  0  1  0  0  0  0  0  0  0  0  0
    3.0220   -8.5164   -1.4977 C   0  0  0  0  0  0  0  0  0  0  0  0
    2.7431   -9.4823   -0.3430 C   0  0  0  0  0  0  0  0  0  0  0  0
    2.7847   -8.7016    0.8442 O   0  0  0  0  0  0  0  0  0  0  0  0
    2.7528   -7.3133    0.5322 C   0  0  0  0  0  0  0  0  0  0  0  0
    2.9905    1.4123   -0.9308 C   0  0  0  0  0  0  0  0  0  0  0  0
    2.8241    2.5002    0.1159 C   0  0  0  0  0  0  0  0  0  0  0  0
    2.8027    2.1777    1.4824 C   0  0  0  0  0  0  0  0  0  0  0  0
    2.7042    3.1801    2.4496 C   0  0  0  0  0  0  0  0  0  0  0  0
    2.6277    4.5242    2.0671 C   0  0  0  0  0  0  0  0  0  0  0  0
    2.6450    4.8559    0.7100 C   0  0  0  0  0  0  0  0  0  0  0  0
    2.7386    3.8489   -0.2566 C   0  0  0  0  0  0  0  0  0  0  0  0
    0.2163   -0.4343   -0.4419 H   0  0  0  0  0  0  0  0  0  0  0  0
    0.4861    0.6348   -1.8528 H   0  0  0  0  0  0  0  0  0  0  0  0
    0.4840    1.2997   -0.1913 H   0  0  0  0  0  0  0  0  0  0  0  0
    3.7977   -0.9429   -1.3520 H   0  0  0  0  0  0  0  0  0  0  0  0
    2.4376   -0.8761   -2.4865 H   0  0  0  0  0  0  0  0  0  0  0  0
    1.1048   -2.3654   -0.9535 H   0  0  0  0  0  0  0  0  0  0  0  0
    2.4250   -2.3488    0.2238 H   0  0  0  0  0  0  0  0  0  0  0  0
    3.9349   -3.4473   -1.4428 H   0  0  0  0  0  0  0  0  0  0  0  0
    2.6539   -3.4074   -2.6627 H   0  0  0  0  0  0  0  0  0  0  0  0
    1.3512   -4.7836   -1.0475 H   0  0  0  0  0  0  0  0  0  0  0  0
    4.0273   -5.8917   -1.5356 H   0  0  0  0  0  0  0  0  0  0  0  0
    2.7239   -5.9873   -2.7317 H   0  0  0  0  0  0  0  0  0  0  0  0
    1.3210   -7.2578   -1.0867 H   0  0  0  0  0  0  0  0  0  0  0  0
    4.1092   -8.3955   -1.6472 H   0  0  0  0  0  0  0  0  0  0  0  0
    2.5846   -8.8470   -2.4522 H   0  0  0  0  0  0  0  0  0  0  0  0
    3.4852  -10.2956   -0.2701 H   0  0  0  0  0  0  0  0  0  0  0  0
    1.7446   -9.9515   -0.4546 H   0  0  0  0  0  0  0  0  0  0  0  0
    3.7391   -6.8524    0.7412 H   0  0  0  0  0  0  0  0  0  0  0  0
    2.0128   -6.8084    1.1734 H   0  0  0  0  0  0  0  0  0  0  0  0
    2.7650    1.8390   -1.9361 H   0  0  0  0  0  0  0  0  0  0  0  0
    4.0554    1.1213   -0.9594 H   0  0  0  0  0  0  0  0  0  0  0  0
    2.8520    1.1257    1.7730 H   0  0  0  0  0  0  0  0  0  0  0  0
    2.6874    2.9121    3.5096 H   0  0  0  0  0  0  0  0  0  0  0  0
    2.5505    5.3086    2.8246 H   0  0  0  0  0  0  0  0  0  0  0  0
    2.5790    5.9023    0.4000 H   0  0  0  0  0  0  0  0  0  0  0  0
    2.7440    4.1152   -1.3180 H   0  0  0  0  0  0  0  0  0  0  0  0
  1  2  1  0
  1 20  1  0
  1 21  1  0
  1 22  1  0
  2  3  1  0
  2 13  1  0
  3  4  1  0
  3 23  1  0
  3 24  1  0
  4  5  1  0
  4 25  1  0
  4 26  1  0
  5  6  1  0
  5 27  1  0
  5 28  1  0
  6  7  1  0
  6 29  1  0
  7  8  1  0
  7 30  1  0
  7 31  1  0
  8  9  1  0
  8 12  1  0
  8 32  1  1
  9 10  1  0
  9 33  1  0
  9 34  1  0
 10 11  1  0
 10 35  1  0
 10 36  1  0
 11 12  1  0
 12 37  1  0
 12 38  1  0
 13 14  1  0
 13 39  1  0
 13 40  1  0
 14 15  2  0
 14 19  1  0
 15 16  1  0
 15 41  1  0
 16 17  2  0
 16 42  1  0
 17 18  1  0
 17 43  1  0
 18 19  2  0
 18 44  1  0
 19 45  1  0
M  END

