
     RDKit          3D

 54 55  0  0  0  0  0  0  0  0999 V2000
    1.5745   -0.1013   -1.4493 C   0  0  0  0  0  0  0  0  0  0  0  0
    1.2987    0.1689   -0.0916 O   0  0  0  0  0  0  0  0  0  0  0  0
    2.0242    1.1094    0.5582 C   0  0  0  0  0  0  0  0  0  0  0  0
    3.0603    1.8680   -0.0148 C   0  0  0  0  0  0  0  0  0  0  0  0
    3.7555    2.8116    0.7361 C   0  0  0  0  0  0  0  0  0  0  0  0
    3.4622    3.0519    2.0944 C   0  0  0  0  0  0  0  0  0  0  0  0
    4.1660    3.9885    2.8519 N   0  0  0  0  0  0  0  0  0  0  0  0
    5.1243    4.8944    2.4350 C   0  0  0  0  0  0  0  0  0  0  0  0
    5.5257    4.9831    1.2872 O   0  0  0  0  0  0  0  0  0  0  0  0
    5.6021    5.8647    3.5411 C   0  0  1  0  0  0  0  0  0  0  0  0
    7.0723    6.2215    3.3236 C   0  0  0  0  0  0  0  0  0  0  0  0
    4.7446    7.0588    3.6192 N   0  0  0  0  0  0  0  0  0  0  0  0
    4.4885    7.7512    2.3665 C   0  0  0  0  0  0  0  0  0  0  0  0
    3.5730    6.9360    4.4802 C   0  0  0  0  0  0  0  0  0  0  0  0
    3.9140    6.7980    5.9545 C   0  0  0  0  0  0  0  0  0  0  0  0
    3.2815    5.8515    6.7615 C   0  0  0  0  0  0  0  0  0  0  0  0
    3.5789    5.7765    8.1308 C   0  0  0  0  0  0  0  0  0  0  0  0
    4.4950    6.6558    8.6991 C   0  0  0  0  0  0  0  0  0  0  0  0
    4.8482    6.6329   10.0323 O   0  0  0  0  0  0  0  0  0  0  0  0
    3.8908    6.3545   10.9614 C   0  0  1  0  0  0  0  0  0  0  0  0
    3.7204    5.0111   11.0983 F   0  0  0  0  0  0  0  0  0  0  0  0
    4.3263    6.8203   12.1388 F   0  0  0  0  0  0  0  0  0  0  0  0
    5.1554    7.6172    7.8932 C   0  0  0  0  0  0  0  0  0  0  0  0
    6.0364    8.4235    8.5273 O   0  0  0  0  0  0  0  0  0  0  0  0
    6.7414    9.3891    7.7810 C   0  0  0  0  0  0  0  0  0  0  0  0
    4.8574    7.6703    6.5294 C   0  0  0  0  0  0  0  0  0  0  0  0
    2.4006    2.2786    2.6516 C   0  0  0  0  0  0  0  0  0  0  0  0
    1.9523    2.4295    4.0420 N   0  0  0  0  0  0  0  0  0  0  0  0
    2.5816    3.1901    4.7878 O   0  0  0  0  0  0  0  0  0  0  0  0
    0.9775    1.8042    4.4109 O   0  0  0  0  0  0  0  0  0  0  0  0
    1.7033    1.3303    1.8971 C   0  0  0  0  0  0  0  0  0  0  0  0
    0.8728   -0.8868   -1.7589 H   0  0  0  0  0  0  0  0  0  0  0  0
    2.6069   -0.4673   -1.5941 H   0  0  0  0  0  0  0  0  0  0  0  0
    1.4180    0.7883   -2.0856 H   0  0  0  0  0  0  0  0  0  0  0  0
    3.3424    1.7312   -1.0590 H   0  0  0  0  0  0  0  0  0  0  0  0
    4.5512    3.3958    0.2811 H   0  0  0  0  0  0  0  0  0  0  0  0
    3.8972    3.9885    3.8348 H   0  0  0  0  0  0  0  0  0  0  0  0
    5.5113    5.3597    4.5160 H   0  0  0  0  0  0  0  0  0  0  0  0
    7.2337    6.6658    2.3315 H   0  0  0  0  0  0  0  0  0  0  0  0
    7.7014    5.3195    3.3809 H   0  0  0  0  0  0  0  0  0  0  0  0
    7.3989    6.9313    4.0968 H   0  0  0  0  0  0  0  0  0  0  0  0
    5.4203    7.8696    1.7968 H   0  0  0  0  0  0  0  0  0  0  0  0
    4.0924    8.7572    2.5797 H   0  0  0  0  0  0  0  0  0  0  0  0
    3.7623    7.2366    1.7010 H   0  0  0  0  0  0  0  0  0  0  0  0
    2.8946    6.1074    4.1847 H   0  0  0  0  0  0  0  0  0  0  0  0
    2.9841    7.8598    4.3444 H   0  0  0  0  0  0  0  0  0  0  0  0
    2.5708    5.1431    6.3307 H   0  0  0  0  0  0  0  0  0  0  0  0
    3.1151    5.0084    8.7510 H   0  0  0  0  0  0  0  0  0  0  0  0
    2.9103    6.8007   10.7115 H   0  0  0  0  0  0  0  0  0  0  0  0
    7.3955    9.9137    8.4902 H   0  0  0  0  0  0  0  0  0  0  0  0
    6.0619   10.1221    7.3094 H   0  0  0  0  0  0  0  0  0  0  0  0
    7.3634    8.9264    6.9936 H   0  0  0  0  0  0  0  0  0  0  0  0
    5.3567    8.3890    5.8798 H   0  0  0  0  0  0  0  0  0  0  0  0
    0.9003    0.7644    2.3647 H   0  0  0  0  0  0  0  0  0  0  0  0
  1  2  1  0
  1 32  1  0
  1 33  1  0
  1 34  1  0
  2  3  1  0
  3  4  2  0
  3 31  1  0
  4  5  1  0
  4 35  1  0
  5  6  2  0
  5 36  1  0
  6  7  1  0
  6 27  1  0
  7  8  1  0
  7 37  1  0
  8  9  2  0
  8 10  1  0
 10 11  1  0
 10 12  1  0
 10 38  1  1
 11 39  1  0
 11 40  1  0
 11 41  1  0
 12 13  1  0
 12 14  1  0
 13 42  1  0
 13 43  1  0
 13 44  1  0
 14 15  1  0
 14 45  1  0
 14 46  1  0
 15 16  2  0
 15 26  1  0
 16 17  1  0
 16 47  1  0
 17 18  2  0
 17 48  1  0
 18 19  1  0
 18 23  1  0
 19 20  1  0
 20 21  1  0
 20 22  1  0
 20 49  1  6
 23 24  1  0
 23 26  2  0
 24 25  1  0
 25 50  1  0
 25 51  1  0
 25 52  1  0
 26 53  1  0
 27 28  1  0
 27 31  2  0
 28 29  2  0
 28 30  1  0
 31 54  1  0
M  CHG  2  28   1  30  -1
M  END

