
     RDKit          3D

 39 40  0  0  0  0  0  0  0  0999 V2000
    3.2147   -1.2210    1.5424 N   0  0  0  0  0  0  0  0  0  0  0  0
    2.6031   -0.0198    1.1959 C   0  0  0  0  0  0  0  0  0  0  0  0
    3.3628    1.1653    1.1366 C   0  0  0  0  0  0  0  0  0  0  0  0
    2.7633    2.3879    0.8394 C   0  0  0  0  0  0  0  0  0  0  0  0
    1.3894    2.4591    0.5914 C   0  0  0  0  0  0  0  0  0  0  0  0
    0.6321    1.2869    0.6517 C   0  0  0  0  0  0  0  0  0  0  0  0
    1.2060    0.0469    0.9575 C   0  0  0  0  0  0  0  0  0  0  0  0
    0.3620   -1.2059    1.0029 C   0  0  0  0  0  0  0  0  0  0  0  0
    0.4319   -1.9626   -0.2491 N   0  0  0  0  0  0  0  0  0  0  0  0
   -0.0254   -3.3415   -0.1941 C   0  0  0  0  0  0  0  0  0  0  0  0
   -1.5610   -3.4541   -0.1420 C   0  0  0  0  0  0  0  0  0  0  0  0
   -2.0718   -4.8762   -0.1613 C   0  0  0  0  0  0  0  0  0  0  0  0
   -2.6972   -5.4182    0.8989 C   0  0  0  0  0  0  0  0  0  0  0  0
   -3.2151   -6.8330    0.9603 C   0  0  0  0  0  0  0  0  0  0  0  0
   -2.6867   -7.7040   -0.1863 C   0  0  0  0  0  0  0  0  0  0  0  0
   -2.7191   -6.9353   -1.5102 C   0  0  0  0  0  0  0  0  0  0  0  0
   -1.8478   -5.6757   -1.4321 C   0  0  0  0  0  0  0  0  0  0  0  0
    4.2241   -1.2484    1.4627 H   0  0  0  0  0  0  0  0  0  0  0  0
    2.7695   -2.0767    1.2361 H   0  0  0  0  0  0  0  0  0  0  0  0
    4.4389    1.1169    1.3298 H   0  0  0  0  0  0  0  0  0  0  0  0
    3.3781    3.2912    0.7995 H   0  0  0  0  0  0  0  0  0  0  0  0
    0.9143    3.4136    0.3544 H   0  0  0  0  0  0  0  0  0  0  0  0
   -0.4441    1.3260    0.4596 H   0  0  0  0  0  0  0  0  0  0  0  0
   -0.6855   -0.9232    1.1990 H   0  0  0  0  0  0  0  0  0  0  0  0
    0.6757   -1.8256    1.8752 H   0  0  0  0  0  0  0  0  0  0  0  0
    1.3620   -1.8982   -0.6544 H   0  0  0  0  0  0  0  0  0  0  0  0
    0.3917   -3.9008    0.6766 H   0  0  0  0  0  0  0  0  0  0  0  0
    0.3438   -3.8497   -1.0999 H   0  0  0  0  0  0  0  0  0  0  0  0
   -1.9595   -2.8931   -1.0071 H   0  0  0  0  0  0  0  0  0  0  0  0
   -1.9319   -2.9480    0.7639 H   0  0  0  0  0  0  0  0  0  0  0  0
   -2.8614   -4.7961    1.7874 H   0  0  0  0  0  0  0  0  0  0  0  0
   -4.3230   -6.8141    0.9415 H   0  0  0  0  0  0  0  0  0  0  0  0
   -2.9541   -7.2819    1.9354 H   0  0  0  0  0  0  0  0  0  0  0  0
   -3.2706   -8.6363   -0.2592 H   0  0  0  0  0  0  0  0  0  0  0  0
   -1.6450   -8.0027    0.0309 H   0  0  0  0  0  0  0  0  0  0  0  0
   -3.7614   -6.6447   -1.7349 H   0  0  0  0  0  0  0  0  0  0  0  0
   -2.3862   -7.5762   -2.3434 H   0  0  0  0  0  0  0  0  0  0  0  0
   -2.0345   -5.0266   -2.3068 H   0  0  0  0  0  0  0  0  0  0  0  0
   -0.7801   -5.9598   -1.5057 H   0  0  0  0  0  0  0  0  0  0  0  0
  1  2  1  0
  1 18  1  0
  1 19  1  0
  2  3  2  0
  2  7  1  0
  3  4  1  0
  3 20  1  0
  4  5  2  0
  4 21  1  0
  5  6  1  0
  5 22  1  0
  6  7  2  0
  6 23  1  0
  7  8  1  0
  8  9  1  0
  8 24  1  0
  8 25  1  0
  9 10  1  0
  9 26  1  0
 10 11  1  0
 10 27  1  0
 10 28  1  0
 11 12  1  0
 11 29  1  0
 11 30  1  0
 12 13  2  0
 12 17  1  0
 13 14  1  0
 13 31  1  0
 14 15  1  0
 14 32  1  0
 14 33  1  0
 15 16  1  0
 15 34  1  0
 15 35  1  0
 16 17  1  0
 16 36  1  0
 16 37  1  0
 17 38  1  0
 17 39  1  0
M  END

