
     RDKit          3D

 52 54  0  0  0  0  0  0  0  0999 V2000
    4.7867    3.7787   -1.2053 C   0  0  0  0  0  0  0  0  0  0  0  0
    4.3409    2.5145   -0.7662 O   0  0  0  0  0  0  0  0  0  0  0  0
    3.1426    2.5169   -0.0234 C   0  0  1  0  0  0  0  0  0  0  0  0
    1.9638    2.2529   -0.9670 C   0  0  0  0  0  0  0  0  0  0  0  0
    0.6388    2.4631   -0.3795 N   0  0  0  0  0  0  0  0  0  0  0  0
    0.1999    3.7653   -0.3301 C   0  0  0  0  0  0  0  0  0  0  0  0
    0.8804    4.6998   -0.7320 O   0  0  0  0  0  0  0  0  0  0  0  0
   -1.2024    3.9787    0.2434 C   0  0  1  0  0  0  0  0  0  0  0  0
   -1.1382    3.8353    1.3411 H   0  0  0  0  0  0  0  0  0  0  0  0
   -1.5959    5.3321   -0.0602 N   0  0  0  0  0  0  0  0  0  0  0  0
   -2.6578    5.9195    0.5508 C   0  0  0  0  0  0  0  0  0  0  0  0
   -3.4486    5.3457    1.2773 O   0  0  0  0  0  0  0  0  0  0  0  0
   -2.7254    7.2315    0.2225 O   0  0  0  0  0  0  0  0  0  0  0  0
   -3.8027    7.9965    0.7958 C   0  0  0  0  0  0  0  0  0  0  0  0
   -3.4053    8.6650    2.0914 C   0  0  0  0  0  0  0  0  0  0  0  0
   -2.9618    9.9957    2.0985 C   0  0  0  0  0  0  0  0  0  0  0  0
   -2.5798   10.6153    3.2918 C   0  0  0  0  0  0  0  0  0  0  0  0
   -2.6356    9.9065    4.4953 C   0  0  0  0  0  0  0  0  0  0  0  0
   -3.0754    8.5784    4.4991 C   0  0  0  0  0  0  0  0  0  0  0  0
   -3.4588    7.9609    3.3062 C   0  0  0  0  0  0  0  0  0  0  0  0
   -2.1428    2.8983   -0.3035 C   0  0  0  0  0  0  0  0  0  0  0  0
   -1.5834    1.5458    0.0542 C   0  0  0  0  0  0  0  0  0  0  0  0
   -2.3947    0.4676    0.4195 C   0  0  0  0  0  0  0  0  0  0  0  0
   -1.8445   -0.7742    0.7480 C   0  0  0  0  0  0  0  0  0  0  0  0
   -0.4573   -0.9326    0.7337 C   0  0  0  0  0  0  0  0  0  0  0  0
    0.3758    0.1340    0.3876 C   0  0  0  0  0  0  0  0  0  0  0  0
   -0.1821    1.3712    0.0319 C   0  0  0  0  0  0  0  0  0  0  0  0
    3.1866    1.4999    0.9216 O   0  0  0  0  0  0  0  0  0  0  0  0
    4.1406    1.6787    1.9488 C   0  0  0  0  0  0  0  0  0  0  0  0
    5.7173    3.6191   -1.7685 H   0  0  0  0  0  0  0  0  0  0  0  0
    4.9973    4.4578   -0.3564 H   0  0  0  0  0  0  0  0  0  0  0  0
    4.0562    4.2801   -1.8671 H   0  0  0  0  0  0  0  0  0  0  0  0
    3.0196    3.5048    0.4718 H   0  0  0  0  0  0  0  0  0  0  0  0
    2.0390    1.2249   -1.3424 H   0  0  0  0  0  0  0  0  0  0  0  0
    2.0621    2.9436   -1.8147 H   0  0  0  0  0  0  0  0  0  0  0  0
   -0.8943    5.9104   -0.5169 H   0  0  0  0  0  0  0  0  0  0  0  0
   -4.6642    7.3313    0.9463 H   0  0  0  0  0  0  0  0  0  0  0  0
   -4.0504    8.7490    0.0343 H   0  0  0  0  0  0  0  0  0  0  0  0
   -2.9176   10.5539    1.1586 H   0  0  0  0  0  0  0  0  0  0  0  0
   -2.2390   11.6540    3.2820 H   0  0  0  0  0  0  0  0  0  0  0  0
   -2.3390   10.3892    5.4303 H   0  0  0  0  0  0  0  0  0  0  0  0
   -3.1230    8.0210    5.4383 H   0  0  0  0  0  0  0  0  0  0  0  0
   -3.7945    6.9213    3.3018 H   0  0  0  0  0  0  0  0  0  0  0  0
   -2.2233    3.0172   -1.4006 H   0  0  0  0  0  0  0  0  0  0  0  0
   -3.1452    3.0410    0.1213 H   0  0  0  0  0  0  0  0  0  0  0  0
   -3.4785    0.6105    0.4426 H   0  0  0  0  0  0  0  0  0  0  0  0
   -2.4949   -1.6070    1.0254 H   0  0  0  0  0  0  0  0  0  0  0  0
   -0.0100   -1.8912    1.0085 H   0  0  0  0  0  0  0  0  0  0  0  0
    1.4581    0.0206    0.4286 H   0  0  0  0  0  0  0  0  0  0  0  0
    4.0360    0.8331    2.6426 H   0  0  0  0  0  0  0  0  0  0  0  0
    3.9611    2.6200    2.5038 H   0  0  0  0  0  0  0  0  0  0  0  0
    5.1673    1.6947    1.5469 H   0  0  0  0  0  0  0  0  0  0  0  0
  1  2  1  0
  1 30  1  0
  1 31  1  0
  1 32  1  0
  2  3  1  0
  3  4  1  0
  3 28  1  0
  3 33  1  1
  4  5  1  0
  4 34  1  0
  4 35  1  0
  5  6  1  0
  5 27  1  0
  6  7  2  0
  6  8  1  0
  8  9  1  1
  8 10  1  0
  8 21  1  0
 10 11  1  0
 10 36  1  0
 11 12  2  0
 11 13  1  0
 13 14  1  0
 14 15  1  0
 14 37  1  0
 14 38  1  0
 15 16  2  0
 15 20  1  0
 16 17  1  0
 16 39  1  0
 17 18  2  0
 17 40  1  0
 18 19  1  0
 18 41  1  0
 19 20  2  0
 19 42  1  0
 20 43  1  0
 21 22  1  0
 21 44  1  0
 21 45  1  0
 22 23  1  0
 22 27  2  0
 23 24  2  0
 23 46  1  0
 24 25  1  0
 24 47  1  0
 25 26  2  0
 25 48  1  0
 26 27  1  0
 26 49  1  0
 28 29  1  0
 29 50  1  0
 29 51  1  0
 29 52  1  0
M  END

