
     RDKit          3D

 92101  0  0  0  0  0  0  0  0999 V2000
   -1.5327   -0.8510    1.8107 C   0  0  0  0  0  0  0  0  0  0  0  0
   -1.0186    0.4470    1.7183 C   0  0  0  0  0  0  0  0  0  0  0  0
    0.2807    0.6546    1.2550 C   0  0  0  0  0  0  0  0  0  0  0  0
    1.0835   -0.4363    0.8776 C   0  0  0  0  0  0  0  0  0  0  0  0
    2.4679   -0.2166    0.3838 C   0  0  0  0  0  0  0  0  0  0  0  0
    2.9213    1.0415    0.3105 N   0  0  0  0  0  0  0  0  0  0  0  0
    4.1730    1.1984   -0.1391 C   0  0  0  0  0  0  0  0  0  0  0  0
    4.7162    2.5783   -0.2363 C   0  0  0  0  0  0  0  0  0  0  0  0
    3.9278    3.6818    0.1348 C   0  0  0  0  0  0  0  0  0  0  0  0
    4.4389    4.9765    0.0430 C   0  0  0  0  0  0  0  0  0  0  0  0
    5.7425    5.1860   -0.4201 C   0  0  0  0  0  0  0  0  0  0  0  0
    6.5336    4.0933   -0.7913 C   0  0  0  0  0  0  0  0  0  0  0  0
    6.0252    2.7975   -0.7006 C   0  0  0  0  0  0  0  0  0  0  0  0
    4.9624    0.1803   -0.5057 N   0  0  0  0  0  0  0  0  0  0  0  0
    4.4352   -1.0464   -0.4030 C   0  0  0  0  0  0  0  0  0  0  0  0
    5.2751   -2.2047   -0.7991 C   0  0  0  0  0  0  0  0  0  0  0  0
    6.5844   -2.0136   -1.2725 C   0  0  0  0  0  0  0  0  0  0  0  0
    7.3709   -3.1008   -1.6432 C   0  0  0  0  0  0  0  0  0  0  0  0
    6.8811   -4.4189   -1.5567 C   0  0  0  0  0  0  0  0  0  0  0  0
    7.7219   -5.5780   -1.9534 C   0  0  0  0  0  0  0  0  0  0  0  0
    9.1109   -5.5835   -1.7194 C   0  0  0  0  0  0  0  0  0  0  0  0
    9.9015   -6.6709   -2.0908 C   0  0  0  0  0  0  0  0  0  0  0  0
    9.3242   -7.7861   -2.7095 C   0  0  0  0  0  0  0  0  0  0  0  0
   10.1363   -8.9113   -3.0955 N   0  0  0  0  0  0  0  0  0  0  0  0
   10.3051   -9.9313   -2.1243 C   0  0  0  0  0  0  0  0  0  0  0  0
    9.7235   -9.7495   -0.8428 C   0  0  0  0  0  0  0  0  0  0  0  0
    9.8588  -10.7053    0.1584 C   0  0  0  0  0  0  0  0  0  0  0  0
   10.5780  -11.8828   -0.0668 C   0  0  0  0  0  0  0  0  0  0  0  0
   11.1477  -12.0725   -1.3217 C   0  0  0  0  0  0  0  0  0  0  0  0
   11.0266  -11.1314   -2.3637 C   0  0  0  0  0  0  0  0  0  0  0  0
   11.8182  -11.4962   -4.0141 Si  0  0  1  0  0  4  0  0  0  0  0  0
   13.6780  -11.8357   -3.8523 C   0  0  0  0  0  0  0  0  0  0  0  0
   14.1787  -13.1377   -3.6518 C   0  0  0  0  0  0  0  0  0  0  0  0
   15.5447  -13.3695   -3.4604 C   0  0  0  0  0  0  0  0  0  0  0  0
   16.4440  -12.2995   -3.4702 C   0  0  0  0  0  0  0  0  0  0  0  0
   15.9701  -10.9992   -3.6700 C   0  0  0  0  0  0  0  0  0  0  0  0
   14.6034  -10.7730   -3.8570 C   0  0  0  0  0  0  0  0  0  0  0  0
   10.9906  -12.9861   -4.8520 C   0  0  0  0  0  0  0  0  0  0  0  0
    9.7075  -13.4145   -4.4598 C   0  0  0  0  0  0  0  0  0  0  0  0
    9.0606  -14.4669   -5.1154 C   0  0  0  0  0  0  0  0  0  0  0  0
    9.6852  -15.1155   -6.1845 C   0  0  0  0  0  0  0  0  0  0  0  0
   10.9593  -14.7077   -6.5917 C   0  0  0  0  0  0  0  0  0  0  0  0
   11.6023  -13.6573   -5.9303 C   0  0  0  0  0  0  0  0  0  0  0  0
   11.4956   -9.9096   -4.9438 C   0  0  0  0  0  0  0  0  0  0  0  0
   12.0166   -9.7565   -6.2442 C   0  0  0  0  0  0  0  0  0  0  0  0
   11.7845   -8.6252   -7.0198 C   0  0  0  0  0  0  0  0  0  0  0  0
   10.9972   -7.6054   -6.4773 C   0  0  0  0  0  0  0  0  0  0  0  0
   10.4672   -7.7185   -5.1966 C   0  0  0  0  0  0  0  0  0  0  0  0
   10.7029   -8.8657   -4.3954 C   0  0  0  0  0  0  0  0  0  0  0  0
    7.9458   -7.7963   -2.9498 C   0  0  0  0  0  0  0  0  0  0  0  0
    7.1572   -6.7078   -2.5762 C   0  0  0  0  0  0  0  0  0  0  0  0
    5.5673   -4.6011   -1.0815 C   0  0  0  0  0  0  0  0  0  0  0  0
    4.7785   -3.5163   -0.7090 C   0  0  0  0  0  0  0  0  0  0  0  0
    3.1934   -1.2877    0.0365 N   0  0  0  0  0  0  0  0  0  0  0  0
    0.5594   -1.7375    0.9733 C   0  0  0  0  0  0  0  0  0  0  0  0
   -0.7403   -1.9419    1.4370 C   0  0  0  0  0  0  0  0  0  0  0  0
   -2.5511   -1.0124    2.1739 H   0  0  0  0  0  0  0  0  0  0  0  0
   -1.6347    1.3016    2.0093 H   0  0  0  0  0  0  0  0  0  0  0  0
    0.6932    1.6608    1.1783 H   0  0  0  0  0  0  0  0  0  0  0  0
    2.9137    3.5048    0.4940 H   0  0  0  0  0  0  0  0  0  0  0  0
    3.8181    5.8276    0.3338 H   0  0  0  0  0  0  0  0  0  0  0  0
    6.1420    6.2011   -0.4917 H   0  0  0  0  0  0  0  0  0  0  0  0
    7.5523    4.2532   -1.1535 H   0  0  0  0  0  0  0  0  0  0  0  0
    6.6313    1.9376   -0.9867 H   0  0  0  0  0  0  0  0  0  0  0  0
    6.9710   -0.9973   -1.3524 H   0  0  0  0  0  0  0  0  0  0  0  0
    8.3760   -2.9229   -2.0318 H   0  0  0  0  0  0  0  0  0  0  0  0
    9.5772   -4.7342   -1.2156 H   0  0  0  0  0  0  0  0  0  0  0  0
   10.9759   -6.6660   -1.8947 H   0  0  0  0  0  0  0  0  0  0  0  0
    9.1586   -8.8474   -0.6197 H   0  0  0  0  0  0  0  0  0  0  0  0
    9.3945  -10.5197    1.1308 H   0  0  0  0  0  0  0  0  0  0  0  0
   10.6899  -12.6327    0.7194 H   0  0  0  0  0  0  0  0  0  0  0  0
   11.7144  -12.9899   -1.5103 H   0  0  0  0  0  0  0  0  0  0  0  0
   13.4934  -13.9903   -3.6506 H   0  0  0  0  0  0  0  0  0  0  0  0
   15.9080  -14.3893   -3.3065 H   0  0  0  0  0  0  0  0  0  0  0  0
   17.5127  -12.4785   -3.3241 H   0  0  0  0  0  0  0  0  0  0  0  0
   16.6682  -10.1576   -3.6810 H   0  0  0  0  0  0  0  0  0  0  0  0
   14.2508   -9.7494   -4.0131 H   0  0  0  0  0  0  0  0  0  0  0  0
    9.2042  -12.9197   -3.6243 H   0  0  0  0  0  0  0  0  0  0  0  0
    8.0656  -14.7822   -4.7896 H   0  0  0  0  0  0  0  0  0  0  0  0
    9.1815  -15.9387   -6.6985 H   0  0  0  0  0  0  0  0  0  0  0  0
   11.4553  -15.2117   -7.4258 H   0  0  0  0  0  0  0  0  0  0  0  0
   12.6030  -13.3621   -6.2596 H   0  0  0  0  0  0  0  0  0  0  0  0
   12.6275  -10.5638   -6.6603 H   0  0  0  0  0  0  0  0  0  0  0  0
   12.2026   -8.5388   -8.0252 H   0  0  0  0  0  0  0  0  0  0  0  0
   10.7883   -6.7019   -7.0566 H   0  0  0  0  0  0  0  0  0  0  0  0
    9.8613   -6.8993   -4.8166 H   0  0  0  0  0  0  0  0  0  0  0  0
    7.4968   -8.6622   -3.4411 H   0  0  0  0  0  0  0  0  0  0  0  0
    6.0875   -6.7257   -2.7954 H   0  0  0  0  0  0  0  0  0  0  0  0
    5.1662   -5.6117   -0.9778 H   0  0  0  0  0  0  0  0  0  0  0  0
    3.7663   -3.6701   -0.3341 H   0  0  0  0  0  0  0  0  0  0  0  0
    1.1870   -2.5789    0.6789 H   0  0  0  0  0  0  0  0  0  0  0  0
   -1.1385   -2.9573    1.5078 H   0  0  0  0  0  0  0  0  0  0  0  0
  1  2  2  0
  1 56  1  0
  1 57  1  0
  2  3  1  0
  2 58  1  0
  3  4  2  0
  3 59  1  0
  4  5  1  0
  4 55  1  0
  5  6  2  0
  5 54  1  0
  6  7  1  0
  7  8  1  0
  7 14  2  0
  8  9  2  0
  8 13  1  0
  9 10  1  0
  9 60  1  0
 10 11  2  0
 10 61  1  0
 11 12  1  0
 11 62  1  0
 12 13  2  0
 12 63  1  0
 13 64  1  0
 14 15  1  0
 15 16  1  0
 15 54  2  0
 16 17  2  0
 16 53  1  0
 17 18  1  0
 17 65  1  0
 18 19  2  0
 18 66  1  0
 19 20  1  0
 19 52  1  0
 20 21  2  0
 20 51  1  0
 21 22  1  0
 21 67  1  0
 22 23  2  0
 22 68  1  0
 23 24  1  0
 23 50  1  0
 24 25  1  0
 24 49  1  0
 25 26  2  0
 25 30  1  0
 26 27  1  0
 26 69  1  0
 27 28  2  0
 27 70  1  0
 28 29  1  0
 28 71  1  0
 29 30  2  0
 29 72  1  0
 30 31  1  0
 31 32  1  1
 31 38  1  0
 31 44  1  0
 32 33  2  0
 32 37  1  0
 33 34  1  0
 33 73  1  0
 34 35  2  0
 34 74  1  0
 35 36  1  0
 35 75  1  0
 36 37  2  0
 36 76  1  0
 37 77  1  0
 38 39  2  0
 38 43  1  0
 39 40  1  0
 39 78  1  0
 40 41  2  0
 40 79  1  0
 41 42  1  0
 41 80  1  0
 42 43  2  0
 42 81  1  0
 43 82  1  0
 44 45  1  0
 44 49  2  0
 45 46  2  0
 45 83  1  0
 46 47  1  0
 46 84  1  0
 47 48  2  0
 47 85  1  0
 48 49  1  0
 48 86  1  0
 50 51  2  0
 50 87  1  0
 51 88  1  0
 52 53  2  0
 52 89  1  0
 53 90  1  0
 55 56  2  0
 55 91  1  0
 56 92  1  0
M  END

