
     RDKit          3D

 48 51  0  0  0  0  0  0  0  0999 V2000
    1.1149   -0.5451   -0.6142 C   0  0  0  0  0  0  0  0  0  0  0  0
    2.4981    0.0825   -0.4694 C   0  0  1  0  0  0  0  0  0  0  0  0
    2.3861    1.8142    0.2449 S   0  0  0  0  0  0  0  0  0  0  0  0
    2.0833    2.7257   -1.2333 C   0  0  0  0  0  0  0  0  0  0  0  0
    1.5014    2.2873   -2.3179 N   0  0  0  0  0  0  0  0  0  0  0  0
    1.4941    3.3076   -3.2386 N   0  0  0  0  0  0  0  0  0  0  0  0
    2.0415    4.3584   -2.6800 C   0  0  0  0  0  0  0  0  0  0  0  0
    2.1472    5.6182   -3.2478 N   0  0  0  0  0  0  0  0  0  0  0  0
    1.3201    5.8259   -4.4415 C   0  0  0  0  0  0  0  0  0  0  0  0
    1.2926    7.3124   -4.7796 C   0  0  0  0  0  0  0  0  0  0  0  0
    2.5958    7.8338   -4.9525 O   0  0  0  0  0  0  0  0  0  0  0  0
    3.3863    7.6522   -3.7979 C   0  0  0  0  0  0  0  0  0  0  0  0
    3.4961    6.1790   -3.4176 C   0  0  0  0  0  0  0  0  0  0  0  0
    2.4524    4.0562   -1.3862 N   0  0  0  0  0  0  0  0  0  0  0  0
    3.0295    4.9240   -0.4091 C   0  0  0  0  0  0  0  0  0  0  0  0
    2.3347    6.0712   -0.0033 C   0  0  0  0  0  0  0  0  0  0  0  0
    2.9052    6.9252    0.9433 C   0  0  0  0  0  0  0  0  0  0  0  0
    4.1563    6.6309    1.4949 C   0  0  0  0  0  0  0  0  0  0  0  0
    4.8412    5.4800    1.0928 C   0  0  0  0  0  0  0  0  0  0  0  0
    4.2858    4.6261    0.1367 C   0  0  0  0  0  0  0  0  0  0  0  0
    3.4904   -0.6747    0.3892 C   0  0  0  0  0  0  0  0  0  0  0  0
    3.0691   -1.5228    1.4271 C   0  0  0  0  0  0  0  0  0  0  0  0
    3.9782   -2.2149    2.2302 C   0  0  0  0  0  0  0  0  0  0  0  0
    5.3493   -2.0750    2.0084 C   0  0  0  0  0  0  0  0  0  0  0  0
    5.8033   -1.2402    0.9851 C   0  0  0  0  0  0  0  0  0  0  0  0
    4.8820   -0.5500    0.1943 C   0  0  0  0  0  0  0  0  0  0  0  0
    5.5157    0.4878   -1.0730 Cl  0  0  0  0  0  0  0  0  0  0  0  0
    0.5338    0.0433   -1.3367 H   0  0  0  0  0  0  0  0  0  0  0  0
    0.5635   -0.5665    0.3378 H   0  0  0  0  0  0  0  0  0  0  0  0
    1.2040   -1.5778   -0.9913 H   0  0  0  0  0  0  0  0  0  0  0  0
    2.9307    0.2373   -1.4661 H   0  0  0  0  0  0  0  0  0  0  0  0
    0.3055    5.4526   -4.2430 H   0  0  0  0  0  0  0  0  0  0  0  0
    1.7161    5.2509   -5.3013 H   0  0  0  0  0  0  0  0  0  0  0  0
    0.7629    7.8646   -3.9756 H   0  0  0  0  0  0  0  0  0  0  0  0
    0.7530    7.4761   -5.7246 H   0  0  0  0  0  0  0  0  0  0  0  0
    2.9598    8.2176   -2.9433 H   0  0  0  0  0  0  0  0  0  0  0  0
    4.3835    8.0614   -4.0205 H   0  0  0  0  0  0  0  0  0  0  0  0
    4.0664    6.0817   -2.4833 H   0  0  0  0  0  0  0  0  0  0  0  0
    4.0440    5.6326   -4.2130 H   0  0  0  0  0  0  0  0  0  0  0  0
    1.3586    6.2896   -0.4389 H   0  0  0  0  0  0  0  0  0  0  0  0
    2.3641    7.8211    1.2576 H   0  0  0  0  0  0  0  0  0  0  0  0
    4.5967    7.2980    2.2399 H   0  0  0  0  0  0  0  0  0  0  0  0
    5.8180    5.2443    1.5221 H   0  0  0  0  0  0  0  0  0  0  0  0
    4.8121    3.7251   -0.1829 H   0  0  0  0  0  0  0  0  0  0  0  0
    2.0000   -1.6453    1.6078 H   0  0  0  0  0  0  0  0  0  0  0  0
    3.6120   -2.8654    3.0279 H   0  0  0  0  0  0  0  0  0  0  0  0
    6.0707   -2.6140    2.6272 H   0  0  0  0  0  0  0  0  0  0  0  0
    6.8701   -1.1179    0.7911 H   0  0  0  0  0  0  0  0  0  0  0  0
  1  2  1  0
  1 28  1  0
  1 29  1  0
  1 30  1  0
  2  3  1  0
  2 21  1  0
  2 31  1  6
  3  4  1  0
  4  5  2  0
  4 14  1  0
  5  6  1  0
  6  7  2  0
  7  8  1  0
  7 14  1  0
  8  9  1  0
  8 13  1  0
  9 10  1  0
  9 32  1  0
  9 33  1  0
 10 11  1  0
 10 34  1  0
 10 35  1  0
 11 12  1  0
 12 13  1  0
 12 36  1  0
 12 37  1  0
 13 38  1  0
 13 39  1  0
 14 15  1  0
 15 16  2  0
 15 20  1  0
 16 17  1  0
 16 40  1  0
 17 18  2  0
 17 41  1  0
 18 19  1  0
 18 42  1  0
 19 20  2  0
 19 43  1  0
 20 44  1  0
 21 22  2  0
 21 26  1  0
 22 23  1  0
 22 45  1  0
 23 24  2  0
 23 46  1  0
 24 25  1  0
 24 47  1  0
 25 26  2  0
 25 48  1  0
 26 27  1  0
M  END

