
     RDKit          3D

 52 55  0  0  0  0  0  0  0  0999 V2000
    3.0172   -0.6196    0.5847 O   0  0  0  0  0  0  0  0  0  0  0  0
    3.2801   -1.7602    0.3364 C   0  0  0  0  0  0  0  0  0  0  0  0
    2.8711   -2.8129    1.0162 O   0  0  0  0  0  0  0  0  0  0  0  0
    4.0596   -2.1878   -0.7164 O   0  0  0  0  0  0  0  0  0  0  0  0
    4.7248   -1.3581   -1.5983 C   0  0  0  0  0  0  0  0  0  0  0  0
    5.1949   -0.0871   -1.2879 C   0  0  0  0  0  0  0  0  0  0  0  0
    5.9556    0.6280   -2.2367 C   0  0  0  0  0  0  0  0  0  0  0  0
    6.2523    0.1071   -3.4910 C   0  0  0  0  0  0  0  0  0  0  0  0
    5.7503   -1.1685   -3.7954 C   0  0  0  0  0  0  0  0  0  0  0  0
    4.9903   -1.9288   -2.8628 C   0  0  0  0  0  0  0  0  0  0  0  0
    4.6567   -3.1893   -3.4914 C   0  0  0  0  0  0  0  0  0  0  0  0
    3.8152   -4.3329   -2.9846 C   0  0  0  0  0  0  0  0  0  0  0  0
    4.5822   -5.4604   -2.2717 C   0  0  2  0  0  0  0  0  0  0  0  0
    5.4773   -5.7088   -2.8719 H   0  0  0  0  0  0  0  0  0  0  0  0
    3.6895   -6.5815   -2.2116 O   0  0  0  0  0  0  0  0  0  0  0  0
    5.0187   -5.1475   -0.8359 C   0  0  0  0  0  0  0  0  0  0  0  0
    3.8823   -5.0942    0.0159 O   0  0  0  0  0  0  0  0  0  0  0  0
    5.2227   -3.1368   -4.7450 C   0  0  0  0  0  0  0  0  0  0  0  0
    5.8818   -1.9338   -4.9487 N   0  0  0  0  0  0  0  0  0  0  0  0
    6.5574   -1.5738   -6.1445 C   0  0  0  0  0  0  0  0  0  0  0  0
    6.2921   -0.3504   -6.7809 C   0  0  0  0  0  0  0  0  0  0  0  0
    6.9551   -0.0094   -7.9571 C   0  0  0  0  0  0  0  0  0  0  0  0
    7.8756   -0.8972   -8.5308 C   0  0  0  0  0  0  0  0  0  0  0  0
    8.4385   -0.5118   -9.7187 O   0  0  0  0  0  0  0  0  0  0  0  0
    9.6370   -1.0346  -10.1534 C   0  0  0  0  0  0  0  0  0  0  0  0
    9.6825   -1.5898  -11.4360 C   0  0  0  0  0  0  0  0  0  0  0  0
   10.8936   -2.0572  -11.9519 C   0  0  0  0  0  0  0  0  0  0  0  0
   12.0425   -1.9689  -11.1691 C   0  0  0  0  0  0  0  0  0  0  0  0
   13.2062   -2.4215  -11.6581 F   0  0  0  0  0  0  0  0  0  0  0  0
   12.0115   -1.4175   -9.8887 C   0  0  0  0  0  0  0  0  0  0  0  0
   10.8014   -0.9424   -9.3798 C   0  0  0  0  0  0  0  0  0  0  0  0
    8.1319   -2.1291   -7.9150 C   0  0  0  0  0  0  0  0  0  0  0  0
    7.4829   -2.4539   -6.7222 C   0  0  0  0  0  0  0  0  0  0  0  0
    3.2444   -3.6516    0.6324 H   0  0  0  0  0  0  0  0  0  0  0  0
    4.9688    0.3499   -0.3180 H   0  0  0  0  0  0  0  0  0  0  0  0
    6.3240    1.6213   -1.9688 H   0  0  0  0  0  0  0  0  0  0  0  0
    6.8535    0.6695   -4.2059 H   0  0  0  0  0  0  0  0  0  0  0  0
    3.3099   -4.8128   -3.8369 H   0  0  0  0  0  0  0  0  0  0  0  0
    3.0257   -3.9654   -2.3135 H   0  0  0  0  0  0  0  0  0  0  0  0
    4.2080   -7.3820   -2.0519 H   0  0  0  0  0  0  0  0  0  0  0  0
    5.5418   -4.1844   -0.7716 H   0  0  0  0  0  0  0  0  0  0  0  0
    5.7119   -5.9377   -0.4842 H   0  0  0  0  0  0  0  0  0  0  0  0
    3.2700   -5.7720   -0.3228 H   0  0  0  0  0  0  0  0  0  0  0  0
    5.1624   -3.8622   -5.5549 H   0  0  0  0  0  0  0  0  0  0  0  0
    5.5537    0.3312   -6.3553 H   0  0  0  0  0  0  0  0  0  0  0  0
    6.7577    0.9387   -8.4606 H   0  0  0  0  0  0  0  0  0  0  0  0
    8.7634   -1.6418  -12.0224 H   0  0  0  0  0  0  0  0  0  0  0  0
   10.9572   -2.4913  -12.9515 H   0  0  0  0  0  0  0  0  0  0  0  0
   12.9346   -1.3562   -9.3092 H   0  0  0  0  0  0  0  0  0  0  0  0
   10.7594   -0.4944   -8.3851 H   0  0  0  0  0  0  0  0  0  0  0  0
    8.8417   -2.8294   -8.3576 H   0  0  0  0  0  0  0  0  0  0  0  0
    7.7016   -3.4035   -6.2293 H   0  0  0  0  0  0  0  0  0  0  0  0
  1  2  2  0
  2  3  1  0
  2  4  1  0
  3 34  1  0
  4  5  1  0
  5  6  2  0
  5 10  1  0
  6  7  1  0
  6 35  1  0
  7  8  2  0
  7 36  1  0
  8  9  1  0
  8 37  1  0
  9 10  2  0
  9 19  1  0
 10 11  1  0
 11 12  1  0
 11 18  2  0
 12 13  1  0
 12 38  1  0
 12 39  1  0
 13 14  1  6
 13 15  1  0
 13 16  1  0
 15 40  1  0
 16 17  1  0
 16 41  1  0
 16 42  1  0
 17 43  1  0
 18 19  1  0
 18 44  1  0
 19 20  1  0
 20 21  2  0
 20 33  1  0
 21 22  1  0
 21 45  1  0
 22 23  2  0
 22 46  1  0
 23 24  1  0
 23 32  1  0
 24 25  1  0
 25 26  2  0
 25 31  1  0
 26 27  1  0
 26 47  1  0
 27 28  2  0
 27 48  1  0
 28 29  1  0
 28 30  1  0
 30 31  2  0
 30 49  1  0
 31 50  1  0
 32 33  2  0
 32 51  1  0
 33 52  1  0
M  END

