
     RDKit          3D

 38 40  0  0  0  0  0  0  0  0999 V2000
    2.5396    0.9346    0.4110 C   0  0  0  0  0  0  0  0  0  0  0  0
    2.6169   -0.4600    0.4719 C   0  0  0  0  0  0  0  0  0  0  0  0
    1.4540   -1.2165    0.3238 C   0  0  0  0  0  0  0  0  0  0  0  0
    0.2062   -0.6079    0.1080 C   0  0  0  0  0  0  0  0  0  0  0  0
    0.1239    0.8005    0.0759 C   0  0  0  0  0  0  0  0  0  0  0  0
    1.3022    1.5505    0.2235 C   0  0  0  0  0  0  0  0  0  0  0  0
   -1.2102    1.5197   -0.0220 C   0  0  0  0  0  0  0  0  0  0  0  0
   -2.3782    0.6239   -0.4436 C   0  0  0  0  0  0  0  0  0  0  0  0
   -2.3127   -0.7282    0.2706 C   0  0  0  0  0  0  0  0  0  0  0  0
   -1.0337   -1.4690   -0.1148 C   0  0  1  0  0  0  0  0  0  0  0  0
   -1.1924   -1.8473   -1.4839 O   0  0  0  0  0  0  0  0  0  0  0  0
   -0.2880   -2.8017   -1.9943 C   0  0  0  0  0  0  0  0  0  0  0  0
   -0.7497   -3.2470   -3.3765 C   0  0  0  0  0  0  0  0  0  0  0  0
   -0.7526   -2.1452   -4.4271 C   0  0  1  0  0  0  0  0  0  0  0  0
   -1.2500   -2.4768   -5.8577 C   0  0  0  0  0  0  0  0  0  0  0  0
   -1.9242   -1.1672   -5.8971 N   0  0  0  0  0  0  0  0  0  0  0  0
   -1.8640   -1.0643   -4.4261 C   0  0  0  0  0  0  0  0  0  0  0  0
    3.4417    1.5422    0.5210 H   0  0  0  0  0  0  0  0  0  0  0  0
    3.5774   -0.9546    0.6371 H   0  0  0  0  0  0  0  0  0  0  0  0
    1.5100   -2.3071    0.3871 H   0  0  0  0  0  0  0  0  0  0  0  0
    1.2409    2.6430    0.1989 H   0  0  0  0  0  0  0  0  0  0  0  0
   -1.1171    2.3826   -0.7026 H   0  0  0  0  0  0  0  0  0  0  0  0
   -1.4265    1.9519    0.9739 H   0  0  0  0  0  0  0  0  0  0  0  0
   -2.3439    0.4456   -1.5300 H   0  0  0  0  0  0  0  0  0  0  0  0
   -3.3341    1.1300   -0.2323 H   0  0  0  0  0  0  0  0  0  0  0  0
   -3.1759   -1.3585    0.0058 H   0  0  0  0  0  0  0  0  0  0  0  0
   -2.3288   -0.5861    1.3657 H   0  0  0  0  0  0  0  0  0  0  0  0
   -0.9335   -2.3922    0.4914 H   0  0  0  0  0  0  0  0  0  0  0  0
   -0.2362   -3.6786   -1.3144 H   0  0  0  0  0  0  0  0  0  0  0  0
    0.7360   -2.3835   -2.0592 H   0  0  0  0  0  0  0  0  0  0  0  0
   -1.7575   -3.6907   -3.2925 H   0  0  0  0  0  0  0  0  0  0  0  0
   -0.0749   -4.0578   -3.7069 H   0  0  0  0  0  0  0  0  0  0  0  0
    0.2404   -1.6680   -4.4723 H   0  0  0  0  0  0  0  0  0  0  0  0
   -1.9338   -3.3515   -5.8547 H   0  0  0  0  0  0  0  0  0  0  0  0
   -0.4888   -2.6393   -6.6420 H   0  0  0  0  0  0  0  0  0  0  0  0
   -2.8541   -1.1526   -6.3133 H   0  0  0  0  0  0  0  0  0  0  0  0
   -2.7703   -1.4172   -3.8962 H   0  0  0  0  0  0  0  0  0  0  0  0
   -1.6041   -0.0661   -4.0344 H   0  0  0  0  0  0  0  0  0  0  0  0
  1  2  2  0
  1  6  1  0
  1 18  1  0
  2  3  1  0
  2 19  1  0
  3  4  2  0
  3 20  1  0
  4  5  1  0
  4 10  1  0
  5  6  2  0
  5  7  1  0
  6 21  1  0
  7  8  1  0
  7 22  1  0
  7 23  1  0
  8  9  1  0
  8 24  1  0
  8 25  1  0
  9 10  1  0
  9 26  1  0
  9 27  1  0
 10 11  1  0
 10 28  1  1
 11 12  1  0
 12 13  1  0
 12 29  1  0
 12 30  1  0
 13 14  1  0
 13 31  1  0
 13 32  1  0
 14 15  1  0
 14 17  1  0
 14 33  1  6
 15 16  1  0
 15 34  1  0
 15 35  1  0
 16 17  1  0
 16 36  1  0
 17 37  1  0
 17 38  1  0
M  END

