
     RDKit          3D

 60 67  0  0  0  0  0  0  0  0999 V2000
    2.2869   -0.8444   -0.4032 C   0  0  0  0  0  0  0  0  0  0  0  0
    1.9734   -2.0756   -0.2897 N   0  0  0  0  0  0  0  0  0  0  0  0
    0.5873   -2.4110    0.0280 C   0  0  0  0  0  0  0  0  0  0  0  0
   -0.4762   -1.4376   -0.5091 C   0  0  2  0  0  0  0  0  0  0  0  0
   -0.0228   -0.0250   -0.2872 C   0  0  0  0  0  0  0  0  0  0  0  0
    1.3310    0.2826   -0.2732 C   0  0  0  0  0  0  0  0  0  0  0  0
    1.8002    1.5329   -0.1652 N   0  0  0  0  0  0  0  0  0  0  0  0
    0.8846    2.5056   -0.0566 C   0  0  0  0  0  0  0  0  0  0  0  0
    1.3951    3.8977    0.0674 C   0  0  0  0  0  0  0  0  0  0  0  0
    2.7743    4.1430   -0.0293 C   0  0  0  0  0  0  0  0  0  0  0  0
    3.2880    5.4451    0.0708 C   0  0  0  0  0  0  0  0  0  0  0  0
    2.5363    6.5311    0.2713 N   0  0  0  0  0  0  0  0  0  0  0  0
    1.2366    6.2942    0.3748 C   0  0  0  0  0  0  0  0  0  0  0  0
    0.2766    7.2541    0.5942 N   0  0  0  0  0  0  0  0  0  0  0  0
    0.4273    8.2553    0.5950 H   0  0  0  0  0  0  0  0  0  0  0  0
   -0.9636    6.6614    0.6204 C   0  0  0  0  0  0  0  0  0  0  0  0
   -2.1816    7.4889    0.9012 C   0  0  1  0  0  0  0  0  0  0  0  0
   -2.5921    7.5872    2.3833 C   0  0  0  0  0  0  0  0  0  0  0  0
   -3.3753    8.9036    2.3958 C   0  0  0  0  0  0  0  0  0  0  0  0
   -2.5882    9.7554    1.3884 C   0  0  0  0  0  0  0  0  0  0  0  0
   -1.9327    8.8407    0.5077 O   0  0  0  0  0  0  0  0  0  0  0  0
   -0.8323    5.2991    0.4352 C   0  0  0  0  0  0  0  0  0  0  0  0
    0.5683    5.0281    0.2793 C   0  0  0  0  0  0  0  0  0  0  0  0
   -0.4456    2.3180   -0.0572 N   0  0  0  0  0  0  0  0  0  0  0  0
   -0.9146    1.0676   -0.1884 C   0  0  0  0  0  0  0  0  0  0  0  0
   -2.2691    0.8713   -0.2261 N   0  0  0  0  0  0  0  0  0  0  0  0
   -3.1517    2.0214    0.0030 C   0  0  0  0  0  0  0  0  0  0  0  0
   -4.6105    1.6257   -0.1756 C   0  0  0  0  0  0  0  0  0  0  0  0
   -4.9694    0.5608    0.7583 N   0  0  0  0  0  0  0  0  0  0  0  0
   -3.8990   -0.3929    1.0360 C   0  0  0  0  0  0  0  0  0  0  0  0
   -2.8514   -0.4705   -0.0939 C   0  0  1  0  0  0  0  0  0  0  0  0
   -3.4180   -1.1932   -1.3549 C   0  0  0  0  0  0  0  0  0  0  0  0
   -2.8072   -2.5129   -0.8189 C   0  0  0  0  0  0  0  0  0  0  0  0
   -1.8725   -1.6715    0.0933 C   0  0  1  0  0  0  0  0  0  0  0  0
    3.3367   -0.5724   -0.5885 H   0  0  0  0  0  0  0  0  0  0  0  0
    0.5185   -2.4590    1.1332 H   0  0  0  0  0  0  0  0  0  0  0  0
    0.3874   -3.4332   -0.3314 H   0  0  0  0  0  0  0  0  0  0  0  0
   -0.5449   -1.5872   -1.6060 H   0  0  0  0  0  0  0  0  0  0  0  0
    3.4450    3.2991   -0.1881 H   0  0  0  0  0  0  0  0  0  0  0  0
    4.3681    5.6083   -0.0161 H   0  0  0  0  0  0  0  0  0  0  0  0
   -3.0281    7.0748    0.3173 H   0  0  0  0  0  0  0  0  0  0  0  0
   -1.6894    7.6577    3.0118 H   0  0  0  0  0  0  0  0  0  0  0  0
   -3.1733    6.7159    2.7183 H   0  0  0  0  0  0  0  0  0  0  0  0
   -3.4360    9.3693    3.3907 H   0  0  0  0  0  0  0  0  0  0  0  0
   -4.4053    8.7379    2.0399 H   0  0  0  0  0  0  0  0  0  0  0  0
   -1.8250   10.3778    1.8911 H   0  0  0  0  0  0  0  0  0  0  0  0
   -3.2361   10.4295    0.8025 H   0  0  0  0  0  0  0  0  0  0  0  0
   -1.6345    4.5709    0.4200 H   0  0  0  0  0  0  0  0  0  0  0  0
   -2.8860    2.8226   -0.7012 H   0  0  0  0  0  0  0  0  0  0  0  0
   -2.9936    2.4270    1.0193 H   0  0  0  0  0  0  0  0  0  0  0  0
   -4.7682    1.3459   -1.2383 H   0  0  0  0  0  0  0  0  0  0  0  0
   -5.2357    2.5158    0.0110 H   0  0  0  0  0  0  0  0  0  0  0  0
   -5.8202    0.0912    0.4643 H   0  0  0  0  0  0  0  0  0  0  0  0
   -4.3363   -1.3860    1.2178 H   0  0  0  0  0  0  0  0  0  0  0  0
   -3.3606   -0.1151    1.9625 H   0  0  0  0  0  0  0  0  0  0  0  0
   -2.9229   -0.8449   -2.2730 H   0  0  0  0  0  0  0  0  0  0  0  0
   -4.5085   -1.1527   -1.5046 H   0  0  0  0  0  0  0  0  0  0  0  0
   -2.3080   -3.1659   -1.5500 H   0  0  0  0  0  0  0  0  0  0  0  0
   -3.5291   -3.1192   -0.2528 H   0  0  0  0  0  0  0  0  0  0  0  0
   -1.7715   -1.9998    1.1420 H   0  0  0  0  0  0  0  0  0  0  0  0
  1  2  2  0
  1  6  1  0
  1 35  1  0
  2  3  1  0
  3  4  1  0
  3 36  1  0
  3 37  1  0
  4  5  1  0
  4 34  1  0
  4 38  1  6
  5  6  2  0
  5 25  1  0
  6  7  1  0
  7  8  2  0
  8  9  1  0
  8 24  1  0
  9 10  2  0
  9 23  1  0
 10 11  1  0
 10 39  1  0
 11 12  2  0
 11 40  1  0
 12 13  1  0
 13 14  1  0
 13 23  2  0
 14 15  1  0
 14 16  1  0
 16 17  1  0
 16 22  2  0
 17 18  1  0
 17 21  1  0
 17 41  1  6
 18 19  1  0
 18 42  1  0
 18 43  1  0
 19 20  1  0
 19 44  1  0
 19 45  1  0
 20 21  1  0
 20 46  1  0
 20 47  1  0
 22 23  1  0
 22 48  1  0
 24 25  2  0
 25 26  1  0
 26 27  1  0
 26 31  1  0
 27 28  1  0
 27 49  1  0
 27 50  1  0
 28 29  1  0
 28 51  1  0
 28 52  1  0
 29 30  1  0
 29 53  1  0
 31 30  1  1
 30 54  1  0
 30 55  1  0
 31 32  1  0
 31 34  1  0
 32 33  1  0
 32 56  1  0
 32 57  1  0
 33 34  1  0
 33 58  1  0
 33 59  1  0
 34 60  1  1
M  END

