
     RDKit          3D

 59 61  0  0  0  0  0  0  0  0999 V2000
    1.2238   -0.2851   -0.6823 C   0  0  0  0  0  0  0  0  0  0  0  0
    2.6782   -0.2528   -0.2171 C   0  0  1  0  0  0  0  0  0  0  0  0
    3.0522    1.0121    0.5676 C   0  0  0  0  0  0  0  0  0  0  0  0
    4.5190    1.0160    0.9572 C   0  0  0  0  0  0  0  0  0  0  0  0
    5.1491    2.2075    1.3530 C   0  0  0  0  0  0  0  0  0  0  0  0
    6.4958    2.2275    1.7070 C   0  0  0  0  0  0  0  0  0  0  0  0
    7.2650    1.0477    1.6781 C   0  0  0  0  0  0  0  0  0  0  0  0
    8.7697    1.0542    2.0753 B   0  0  0  0  0  0  0  0  0  0  0  0
    9.5756   -0.0544    2.0207 O   0  0  0  0  0  0  0  0  0  0  0  0
   10.8339    0.2687    2.6606 C   0  0  2  0  0  0  0  0  0  0  0  0
   11.9614   -0.4225    1.8981 C   0  0  0  0  0  0  0  0  0  0  0  0
   10.7588   -0.2760    4.0924 C   0  0  0  0  0  0  0  0  0  0  0  0
   10.8472    1.8538    2.5912 C   0  0  2  0  0  0  0  0  0  0  0  0
   11.4917    2.4002    1.3112 C   0  0  0  0  0  0  0  0  0  0  0  0
   11.4410    2.5507    3.8128 C   0  0  0  0  0  0  0  0  0  0  0  0
    9.4353    2.1685    2.5190 O   0  0  0  0  0  0  0  0  0  0  0  0
    6.6266   -0.1399    1.2845 C   0  0  0  0  0  0  0  0  0  0  0  0
    5.2727   -0.1748    0.9279 C   0  0  0  0  0  0  0  0  0  0  0  0
    4.6373   -1.4900    0.5003 C   0  0  0  0  0  0  0  0  0  0  0  0
    3.1795   -1.4265    0.5255 N   0  0  0  0  0  0  0  0  0  0  0  0
    2.5486   -2.1156    1.5390 C   0  0  0  0  0  0  0  0  0  0  0  0
    3.0930   -2.9796    2.2014 O   0  0  0  0  0  0  0  0  0  0  0  0
    1.2661   -1.7276    1.6992 O   0  0  0  0  0  0  0  0  0  0  0  0
    0.3765   -2.3946    2.6558 C   0  0  1  0  0  0  0  0  0  0  0  0
    0.8940   -2.1939    4.0844 C   0  0  0  0  0  0  0  0  0  0  0  0
   -0.9527   -1.6614    2.4593 C   0  0  0  0  0  0  0  0  0  0  0  0
    0.2297   -3.8775    2.2978 C   0  0  0  0  0  0  0  0  0  0  0  0
    1.0877    0.4881   -1.4556 H   0  0  0  0  0  0  0  0  0  0  0  0
    0.5165   -0.0912    0.1319 H   0  0  0  0  0  0  0  0  0  0  0  0
    0.9760   -1.2593   -1.1295 H   0  0  0  0  0  0  0  0  0  0  0  0
    3.2900   -0.2532   -1.1373 H   0  0  0  0  0  0  0  0  0  0  0  0
    2.4180    1.0681    1.4718 H   0  0  0  0  0  0  0  0  0  0  0  0
    2.8220    1.9115   -0.0288 H   0  0  0  0  0  0  0  0  0  0  0  0
    4.5664    3.1338    1.3765 H   0  0  0  0  0  0  0  0  0  0  0  0
    6.9657    3.1669    2.0097 H   0  0  0  0  0  0  0  0  0  0  0  0
   11.8529   -1.5137    1.9900 H   0  0  0  0  0  0  0  0  0  0  0  0
   12.9445   -0.1426    2.3085 H   0  0  0  0  0  0  0  0  0  0  0  0
   11.9429   -0.1733    0.8291 H   0  0  0  0  0  0  0  0  0  0  0  0
   10.5429   -1.3540    4.0510 H   0  0  0  0  0  0  0  0  0  0  0  0
    9.9529    0.2065    4.6648 H   0  0  0  0  0  0  0  0  0  0  0  0
   11.7057   -0.1333    4.6346 H   0  0  0  0  0  0  0  0  0  0  0  0
   12.5836    2.2635    1.3126 H   0  0  0  0  0  0  0  0  0  0  0  0
   11.2780    3.4770    1.2379 H   0  0  0  0  0  0  0  0  0  0  0  0
   11.0806    1.9136    0.4144 H   0  0  0  0  0  0  0  0  0  0  0  0
   12.4994    2.2769    3.9471 H   0  0  0  0  0  0  0  0  0  0  0  0
   10.8938    2.3000    4.7308 H   0  0  0  0  0  0  0  0  0  0  0  0
   11.3867    3.6415    3.6771 H   0  0  0  0  0  0  0  0  0  0  0  0
    7.2056   -1.0687    1.2630 H   0  0  0  0  0  0  0  0  0  0  0  0
    4.9527   -2.3046    1.1635 H   0  0  0  0  0  0  0  0  0  0  0  0
    4.9712   -1.7515   -0.5220 H   0  0  0  0  0  0  0  0  0  0  0  0
    1.0223   -1.1209    4.2975 H   0  0  0  0  0  0  0  0  0  0  0  0
    1.8558   -2.7007    4.2292 H   0  0  0  0  0  0  0  0  0  0  0  0
    0.1644   -2.5989    4.8033 H   0  0  0  0  0  0  0  0  0  0  0  0
   -0.8400   -0.5872    2.6714 H   0  0  0  0  0  0  0  0  0  0  0  0
   -1.7154   -2.0702    3.1394 H   0  0  0  0  0  0  0  0  0  0  0  0
   -1.3132   -1.7751    1.4257 H   0  0  0  0  0  0  0  0  0  0  0  0
    1.1800   -4.4105    2.4249 H   0  0  0  0  0  0  0  0  0  0  0  0
   -0.1038   -3.9884    1.2539 H   0  0  0  0  0  0  0  0  0  0  0  0
   -0.5282   -4.3419    2.9481 H   0  0  0  0  0  0  0  0  0  0  0  0
  1  2  1  0
  1 28  1  0
  1 29  1  0
  1 30  1  0
  2  3  1  0
  2 20  1  0
  2 31  1  6
  3  4  1  0
  3 32  1  0
  3 33  1  0
  4  5  1  0
  4 18  2  0
  5  6  2  0
  5 34  1  0
  6  7  1  0
  6 35  1  0
  7  8  1  0
  7 17  2  0
  8  9  1  0
  8 16  1  0
  9 10  1  0
 10 11  1  6
 10 12  1  0
 10 13  1  0
 11 36  1  0
 11 37  1  0
 11 38  1  0
 12 39  1  0
 12 40  1  0
 12 41  1  0
 13 14  1  6
 13 15  1  0
 13 16  1  0
 14 42  1  0
 14 43  1  0
 14 44  1  0
 15 45  1  0
 15 46  1  0
 15 47  1  0
 17 18  1  0
 17 48  1  0
 18 19  1  0
 19 20  1  0
 19 49  1  0
 19 50  1  0
 20 21  1  0
 21 22  2  0
 21 23  1  0
 24 23  1  6
 24 25  1  0
 24 26  1  0
 24 27  1  0
 25 51  1  0
 25 52  1  0
 25 53  1  0
 26 54  1  0
 26 55  1  0
 26 56  1  0
 27 57  1  0
 27 58  1  0
 27 59  1  0
M  END

