
     RDKit          3D

 54 59  0  0  0  0  0  0  0  0999 V2000
    1.6139   -0.3708    0.7003 F   0  0  0  0  0  0  0  0  0  0  0  0
    2.8658   -0.3267    0.1074 B   0  0  1  0  0  0  0  0  0  0  0  0
    2.8166   -0.1812   -1.2480 F   0  0  0  0  0  0  0  0  0  0  0  0
    3.6962    0.8507    0.7639 N   0  0  0  0  0  0  0  0  0  0  0  0
    3.4515    2.1584    0.5973 C   0  0  0  0  0  0  0  0  0  0  0  0
    2.5907    2.5925   -0.3229 O   0  0  0  0  0  0  0  0  0  0  0  0
    1.4971    3.3727    0.0580 C   0  0  0  0  0  0  0  0  0  0  0  0
    1.2422    4.5314   -0.6739 C   0  0  0  0  0  0  0  0  0  0  0  0
    0.1214    5.3002   -0.3513 C   0  0  0  0  0  0  0  0  0  0  0  0
   -0.7257    4.9124    0.6925 C   0  0  0  0  0  0  0  0  0  0  0  0
   -0.4564    3.7414    1.4080 C   0  0  0  0  0  0  0  0  0  0  0  0
    0.6553    2.9559    1.0904 C   0  0  0  0  0  0  0  0  0  0  0  0
    4.2747    2.9248    1.4648 C   0  0  0  0  0  0  0  0  0  0  0  0
    4.3267    4.6390    1.5271 Cl  0  0  0  0  0  0  0  0  0  0  0  0
    5.0495    2.0167    2.1849 C   0  0  0  0  0  0  0  0  0  0  0  0
    6.3611    2.5032    3.4241 Br  0  0  0  0  0  0  0  0  0  0  0  0
    4.6787    0.7100    1.7451 C   0  0  0  0  0  0  0  0  0  0  0  0
    5.1336   -0.5691    2.1100 C   0  0  0  0  0  0  0  0  0  0  0  0
    6.0867   -0.6815    3.0620 O   0  0  0  0  0  0  0  0  0  0  0  0
    5.7682   -0.8528    4.4013 C   0  0  0  0  0  0  0  0  0  0  0  0
    6.8531   -0.9709    5.2745 C   0  0  0  0  0  0  0  0  0  0  0  0
    6.6147   -1.1434    6.6377 C   0  0  0  0  0  0  0  0  0  0  0  0
    5.3048   -1.1982    7.1289 C   0  0  0  0  0  0  0  0  0  0  0  0
    4.2331   -1.0779    6.2420 C   0  0  0  0  0  0  0  0  0  0  0  0
    4.4542   -0.9041    4.8710 C   0  0  0  0  0  0  0  0  0  0  0  0
    4.6658   -1.7281    1.4659 C   0  0  0  0  0  0  0  0  0  0  0  0
    5.0362   -3.1012    1.5835 C   0  0  0  0  0  0  0  0  0  0  0  0
    6.3662   -3.8637    2.6521 Br  0  0  0  0  0  0  0  0  0  0  0  0
    4.2472   -3.8178    0.6843 C   0  0  0  0  0  0  0  0  0  0  0  0
    4.3058   -5.4996    0.3458 Cl  0  0  0  0  0  0  0  0  0  0  0  0
    3.4103   -2.8693    0.0358 C   0  0  0  0  0  0  0  0  0  0  0  0
    2.5291   -3.0581   -0.9441 O   0  0  0  0  0  0  0  0  0  0  0  0
    1.5332   -4.0249   -0.8435 C   0  0  0  0  0  0  0  0  0  0  0  0
    0.8559   -4.2512    0.3560 C   0  0  0  0  0  0  0  0  0  0  0  0
   -0.1719   -5.1978    0.3810 C   0  0  0  0  0  0  0  0  0  0  0  0
   -0.5232   -5.8953   -0.7787 C   0  0  0  0  0  0  0  0  0  0  0  0
    0.1576   -5.6411   -1.9743 C   0  0  0  0  0  0  0  0  0  0  0  0
    1.1918   -4.7037   -2.0133 C   0  0  0  0  0  0  0  0  0  0  0  0
    3.6670   -1.6362    0.4952 N   0  0  0  0  0  0  0  0  0  0  0  0
    1.9232    4.8148   -1.4782 H   0  0  0  0  0  0  0  0  0  0  0  0
   -0.0874    6.2112   -0.9176 H   0  0  0  0  0  0  0  0  0  0  0  0
   -1.5991    5.5189    0.9431 H   0  0  0  0  0  0  0  0  0  0  0  0
   -1.1242    3.4246    2.2130 H   0  0  0  0  0  0  0  0  0  0  0  0
    0.8539    2.0146    1.6062 H   0  0  0  0  0  0  0  0  0  0  0  0
    7.8651   -0.9251    4.8688 H   0  0  0  0  0  0  0  0  0  0  0  0
    7.4615   -1.2360    7.3225 H   0  0  0  0  0  0  0  0  0  0  0  0
    5.1224   -1.3334    8.1973 H   0  0  0  0  0  0  0  0  0  0  0  0
    3.2062   -1.1181    6.6137 H   0  0  0  0  0  0  0  0  0  0  0  0
    3.6115   -0.8093    4.1843 H   0  0  0  0  0  0  0  0  0  0  0  0
    1.1178   -3.6813    1.2497 H   0  0  0  0  0  0  0  0  0  0  0  0
   -0.7078   -5.3816    1.3155 H   0  0  0  0  0  0  0  0  0  0  0  0
   -1.3300   -6.6313   -0.7525 H   0  0  0  0  0  0  0  0  0  0  0  0
   -0.1155   -6.1782   -2.8859 H   0  0  0  0  0  0  0  0  0  0  0  0
    1.7394   -4.4880   -2.9324 H   0  0  0  0  0  0  0  0  0  0  0  0
  2  1  1  1
  2  3  1  0
  2  4  1  0
  2 39  1  0
  4  5  1  0
  4 17  1  0
  5  6  1  0
  5 13  2  0
  6  7  1  0
  7  8  2  0
  7 12  1  0
  8  9  1  0
  8 40  1  0
  9 10  2  0
  9 41  1  0
 10 11  1  0
 10 42  1  0
 11 12  2  0
 11 43  1  0
 12 44  1  0
 13 14  1  0
 13 15  1  0
 15 16  1  0
 15 17  2  0
 17 18  1  0
 18 19  1  0
 18 26  2  0
 19 20  1  0
 20 21  2  0
 20 25  1  0
 21 22  1  0
 21 45  1  0
 22 23  2  0
 22 46  1  0
 23 24  1  0
 23 47  1  0
 24 25  2  0
 24 48  1  0
 25 49  1  0
 26 27  1  0
 26 39  1  0
 27 28  1  0
 27 29  2  0
 29 30  1  0
 29 31  1  0
 31 32  1  0
 31 39  2  0
 32 33  1  0
 33 34  2  0
 33 38  1  0
 34 35  1  0
 34 50  1  0
 35 36  2  0
 35 51  1  0
 36 37  1  0
 36 52  1  0
 37 38  2  0
 37 53  1  0
 38 54  1  0
M  CHG  2   2  -1  39   1
M  END

