
     RDKit          3D

 61 65  0  0  0  0  0  0  0  0999 V2000
    6.5383    0.4301   -4.6627 C   0  0  0  0  0  0  0  0  0  0  0  0
    6.3692    0.5020   -3.2266 N   0  0  0  0  0  0  0  0  0  0  0  0
    6.6259    1.5585   -2.4068 C   0  0  0  0  0  0  0  0  0  0  0  0
    6.2685    1.1734   -1.1203 C   0  0  0  0  0  0  0  0  0  0  0  0
    6.3821    1.9599    0.1618 C   0  0  0  0  0  0  0  0  0  0  0  0
    5.8169    3.3683    0.0951 C   0  0  0  0  0  0  0  0  0  0  0  0
    6.6388    4.4895    0.2731 C   0  0  0  0  0  0  0  0  0  0  0  0
    6.1450    5.8007    0.2146 C   0  0  0  0  0  0  0  0  0  0  0  0
    4.7815    5.9732   -0.0327 C   0  0  0  0  0  0  0  0  0  0  0  0
    3.9331    4.8659   -0.2011 C   0  0  0  0  0  0  0  0  0  0  0  0
    4.4440    3.5759   -0.1422 C   0  0  0  0  0  0  0  0  0  0  0  0
    2.4881    5.3239   -0.3606 C   0  0  1  0  0  0  0  0  0  0  0  0
    1.7427    4.6239   -1.5056 C   0  0  0  0  0  0  0  0  0  0  0  0
    1.7300    5.1243    0.9700 C   0  0  0  0  0  0  0  0  0  0  0  0
    2.6810    6.8403   -0.6535 C   0  0  0  0  0  0  0  0  0  0  0  0
    4.0344    7.1731   -0.1663 N   0  0  0  0  0  0  0  0  0  0  0  0
    4.5314    8.4377    0.0221 C   0  0  0  0  0  0  0  0  0  0  0  0
    5.6811    8.6494    0.3794 O   0  0  0  0  0  0  0  0  0  0  0  0
    3.5564    9.6009   -0.1973 C   0  0  1  0  0  0  0  0  0  0  0  0
    2.8380    9.3629   -0.9953 H   0  0  0  0  0  0  0  0  0  0  0  0
    2.7795    9.9943    1.0717 C   0  0  0  0  0  0  0  0  0  0  0  0
    2.5444   11.4937    0.9269 C   0  0  0  0  0  0  0  0  0  0  0  0
    1.7333   12.1424    1.5516 O   0  0  0  0  0  0  0  0  0  0  0  0
    3.4453   11.9690   -0.0208 N   0  0  0  0  0  0  0  0  0  0  0  0
    3.6574   13.3211   -0.3594 C   0  0  0  0  0  0  0  0  0  0  0  0
    2.7547   14.3378    0.0229 C   0  0  0  0  0  0  0  0  0  0  0  0
    2.9948   15.6621   -0.3426 C   0  0  0  0  0  0  0  0  0  0  0  0
    4.1172   16.0193   -1.0894 C   0  0  0  0  0  0  0  0  0  0  0  0
    5.0210   15.0141   -1.4703 C   0  0  0  0  0  0  0  0  0  0  0  0
    6.1900   15.3466   -2.2384 C   0  0  0  0  0  0  0  0  0  0  0  0
    7.1327   15.6145   -2.8612 N   0  0  0  0  0  0  0  0  0  0  0  0
    4.7953   13.6753   -1.1054 C   0  0  0  0  0  0  0  0  0  0  0  0
    4.2908   10.9017   -0.5669 C   0  0  0  0  0  0  0  0  0  0  0  0
    5.7986   -0.1537   -1.2941 C   0  0  0  0  0  0  0  0  0  0  0  0
    5.8630   -0.5461   -2.5645 N   0  0  0  0  0  0  0  0  0  0  0  0
    7.0990    1.3096   -5.0065 H   0  0  0  0  0  0  0  0  0  0  0  0
    5.5615    0.4029   -5.1713 H   0  0  0  0  0  0  0  0  0  0  0  0
    7.0957   -0.4805   -4.9256 H   0  0  0  0  0  0  0  0  0  0  0  0
    7.0313    2.4939   -2.7882 H   0  0  0  0  0  0  0  0  0  0  0  0
    7.4377    2.0177    0.4776 H   0  0  0  0  0  0  0  0  0  0  0  0
    5.8639    1.3952    0.9558 H   0  0  0  0  0  0  0  0  0  0  0  0
    7.7054    4.3416    0.4656 H   0  0  0  0  0  0  0  0  0  0  0  0
    6.7940    6.6609    0.3569 H   0  0  0  0  0  0  0  0  0  0  0  0
    3.7856    2.7134   -0.2805 H   0  0  0  0  0  0  0  0  0  0  0  0
    1.6148    3.5508   -1.2945 H   0  0  0  0  0  0  0  0  0  0  0  0
    2.2893    4.7175   -2.4569 H   0  0  0  0  0  0  0  0  0  0  0  0
    0.7366    5.0545   -1.6413 H   0  0  0  0  0  0  0  0  0  0  0  0
    1.6953    4.0579    1.2412 H   0  0  0  0  0  0  0  0  0  0  0  0
    0.6925    5.4905    0.8906 H   0  0  0  0  0  0  0  0  0  0  0  0
    2.2250    5.6621    1.7938 H   0  0  0  0  0  0  0  0  0  0  0  0
    1.9153    7.4473   -0.1520 H   0  0  0  0  0  0  0  0  0  0  0  0
    2.6169    7.0347   -1.7391 H   0  0  0  0  0  0  0  0  0  0  0  0
    3.3899    9.8390    1.9785 H   0  0  0  0  0  0  0  0  0  0  0  0
    1.8239    9.4727    1.2192 H   0  0  0  0  0  0  0  0  0  0  0  0
    1.8802   14.0751    0.6124 H   0  0  0  0  0  0  0  0  0  0  0  0
    2.2826   16.4319   -0.0361 H   0  0  0  0  0  0  0  0  0  0  0  0
    4.2993   17.0560   -1.3763 H   0  0  0  0  0  0  0  0  0  0  0  0
    5.5274   12.9277   -1.4050 H   0  0  0  0  0  0  0  0  0  0  0  0
    5.2962   10.9080   -0.1159 H   0  0  0  0  0  0  0  0  0  0  0  0
    4.3987   11.0147   -1.6562 H   0  0  0  0  0  0  0  0  0  0  0  0
    5.4207   -0.8356   -0.5309 H   0  0  0  0  0  0  0  0  0  0  0  0
  1  2  1  0
  1 36  1  0
  1 37  1  0
  1 38  1  0
  2  3  1  0
  2 35  1  0
  3  4  2  0
  3 39  1  0
  4  5  1  0
  4 34  1  0
  5  6  1  0
  5 40  1  0
  5 41  1  0
  6  7  2  0
  6 11  1  0
  7  8  1  0
  7 42  1  0
  8  9  2  0
  8 43  1  0
  9 10  1  0
  9 16  1  0
 10 11  2  0
 10 12  1  0
 11 44  1  0
 12 13  1  6
 12 14  1  0
 12 15  1  0
 13 45  1  0
 13 46  1  0
 13 47  1  0
 14 48  1  0
 14 49  1  0
 14 50  1  0
 15 16  1  0
 15 51  1  0
 15 52  1  0
 16 17  1  0
 17 18  2  0
 17 19  1  0
 19 20  1  6
 19 21  1  0
 19 33  1  0
 21 22  1  0
 21 53  1  0
 21 54  1  0
 22 23  2  0
 22 24  1  0
 24 25  1  0
 24 33  1  0
 25 26  2  0
 25 32  1  0
 26 27  1  0
 26 55  1  0
 27 28  2  0
 27 56  1  0
 28 29  1  0
 28 57  1  0
 29 30  1  0
 29 32  2  0
 30 31  3  0
 32 58  1  0
 33 59  1  0
 33 60  1  0
 34 35  2  0
 34 61  1  0
M  END

