
     RDKit          3D

 51 51  0  0  0  0  0  0  0  0999 V2000
    4.8017   -2.5817   -2.7562 C   0  0  0  0  0  0  0  0  0  0  0  0
    3.8081   -2.4537   -1.5990 C   0  0  0  0  0  0  0  0  0  0  0  0
    2.3762   -2.9346   -1.9167 C   0  0  1  0  0  0  0  0  0  0  0  0
    1.4814   -2.9773   -0.6606 C   0  0  0  0  0  0  0  0  0  0  0  0
    1.0509   -1.5825   -0.1888 C   0  0  0  0  0  0  0  0  0  0  0  0
    0.3672   -0.7883   -1.3096 C   0  0  0  0  0  0  0  0  0  0  0  0
    1.2339   -0.7087   -2.5781 C   0  0  2  0  0  0  0  0  0  0  0  0
    0.5363   -0.0019   -3.7534 C   0  0  0  0  0  0  0  0  0  0  0  0
    0.0864    1.3711   -3.4846 N   0  0  0  0  0  0  0  0  0  0  0  0
    1.1628    2.3563   -3.3432 C   0  0  0  0  0  0  0  0  0  0  0  0
    0.8319    3.4036   -2.2654 C   0  0  0  0  0  0  0  0  0  0  0  0
    1.6887    4.5732   -2.3190 N   0  0  0  0  0  0  0  0  0  0  0  0
    1.4410    5.5818   -3.2109 C   0  0  0  0  0  0  0  0  0  0  0  0
    2.3981    6.7610   -3.1653 C   0  0  0  0  0  0  0  0  0  0  0  0
    0.5004    5.5381   -3.9878 O   0  0  0  0  0  0  0  0  0  0  0  0
   -0.9973    1.8375   -4.3787 C   0  0  1  0  0  0  0  0  0  0  0  0
   -0.8210    1.5850   -5.8781 C   0  0  0  0  0  0  0  0  0  0  0  0
   -2.3554    1.3093   -3.8663 C   0  0  0  0  0  0  0  0  0  0  0  0
   -3.3419    1.2244   -4.5485 O   0  0  0  0  0  0  0  0  0  0  0  0
   -2.3360    1.0017   -2.5629 O   0  0  0  0  0  0  0  0  0  0  0  0
    1.6668   -2.1210   -3.0201 C   0  0  0  0  0  0  0  0  0  0  0  0
    5.8190   -2.3031   -2.4377 H   0  0  0  0  0  0  0  0  0  0  0  0
    4.5390   -1.9325   -3.6069 H   0  0  0  0  0  0  0  0  0  0  0  0
    4.8452   -3.6172   -3.1338 H   0  0  0  0  0  0  0  0  0  0  0  0
    3.7953   -1.4079   -1.2455 H   0  0  0  0  0  0  0  0  0  0  0  0
    4.1802   -3.0466   -0.7446 H   0  0  0  0  0  0  0  0  0  0  0  0
    2.4731   -3.9708   -2.2897 H   0  0  0  0  0  0  0  0  0  0  0  0
    1.9975   -3.5149    0.1532 H   0  0  0  0  0  0  0  0  0  0  0  0
    0.5754   -3.5654   -0.8936 H   0  0  0  0  0  0  0  0  0  0  0  0
    1.9301   -1.0209    0.1746 H   0  0  0  0  0  0  0  0  0  0  0  0
    0.3707   -1.6709    0.6748 H   0  0  0  0  0  0  0  0  0  0  0  0
    0.1257    0.2254   -0.9493 H   0  0  0  0  0  0  0  0  0  0  0  0
   -0.5976   -1.2646   -1.5643 H   0  0  0  0  0  0  0  0  0  0  0  0
    2.1488   -0.1406   -2.3259 H   0  0  0  0  0  0  0  0  0  0  0  0
   -0.3534   -0.5948   -4.0244 H   0  0  0  0  0  0  0  0  0  0  0  0
    1.2081   -0.0380   -4.6358 H   0  0  0  0  0  0  0  0  0  0  0  0
    1.3570    2.8806   -4.2974 H   0  0  0  0  0  0  0  0  0  0  0  0
    2.0964    1.8409   -3.0726 H   0  0  0  0  0  0  0  0  0  0  0  0
    0.9029    2.9523   -1.2636 H   0  0  0  0  0  0  0  0  0  0  0  0
   -0.2056    3.7439   -2.4007 H   0  0  0  0  0  0  0  0  0  0  0  0
    2.4946    4.6307   -1.7101 H   0  0  0  0  0  0  0  0  0  0  0  0
    3.2183    6.6450   -2.4416 H   0  0  0  0  0  0  0  0  0  0  0  0
    1.8254    7.6676   -2.9167 H   0  0  0  0  0  0  0  0  0  0  0  0
    2.8196    6.9125   -4.1701 H   0  0  0  0  0  0  0  0  0  0  0  0
   -1.0589    2.9315   -4.2393 H   0  0  0  0  0  0  0  0  0  0  0  0
   -0.8156    0.5124   -6.1213 H   0  0  0  0  0  0  0  0  0  0  0  0
    0.1125    2.0366   -6.2474 H   0  0  0  0  0  0  0  0  0  0  0  0
   -1.6630    2.0384   -6.4182 H   0  0  0  0  0  0  0  0  0  0  0  0
   -1.3913    1.1168   -2.3021 H   0  0  0  0  0  0  0  0  0  0  0  0
    2.3022   -2.0541   -3.9189 H   0  0  0  0  0  0  0  0  0  0  0  0
    0.7631   -2.6764   -3.3321 H   0  0  0  0  0  0  0  0  0  0  0  0
  1  2  1  0
  1 22  1  0
  1 23  1  0
  1 24  1  0
  2  3  1  0
  2 25  1  0
  2 26  1  0
  3  4  1  0
  3 21  1  0
  3 27  1  6
  4  5  1  0
  4 28  1  0
  4 29  1  0
  5  6  1  0
  5 30  1  0
  5 31  1  0
  6  7  1  0
  6 32  1  0
  6 33  1  0
  7  8  1  0
  7 21  1  0
  7 34  1  1
  8  9  1  0
  8 35  1  0
  8 36  1  0
  9 10  1  0
  9 16  1  0
 10 11  1  0
 10 37  1  0
 10 38  1  0
 11 12  1  0
 11 39  1  0
 11 40  1  0
 12 13  1  0
 12 41  1  0
 13 14  1  0
 13 15  2  0
 14 42  1  0
 14 43  1  0
 14 44  1  0
 16 17  1  0
 16 18  1  0
 16 45  1  6
 17 46  1  0
 17 47  1  0
 17 48  1  0
 18 19  2  0
 18 20  1  0
 20 49  1  0
 21 50  1  0
 21 51  1  0
M  END

