
     RDKit          3D

 33 34  0  0  0  0  0  0  0  0999 V2000
    5.7816   -0.0206   -4.2969 C   0  0  0  0  0  0  0  0  0  0  0  0
    5.3877   -0.2492   -2.9244 N   0  0  0  0  0  0  0  0  0  0  0  0
    4.2799    0.2839   -2.2652 C   0  0  0  0  0  0  0  0  0  0  0  0
    4.2818   -0.2016   -0.9986 C   0  0  0  0  0  0  0  0  0  0  0  0
    5.3951   -1.0304   -0.8687 N   0  0  0  0  0  0  0  0  0  0  0  0
    5.8251   -1.7498    0.3183 C   0  0  0  0  0  0  0  0  0  0  0  0
    5.5128   -3.2600    0.3059 C   0  0  0  0  0  0  0  0  0  0  0  0
    4.8374   -3.7678    1.1893 O   0  0  0  0  0  0  0  0  0  0  0  0
    6.0616   -3.9372   -0.7331 N   0  0  0  0  0  0  0  0  0  0  0  0
    5.8772   -5.3719   -0.9065 C   0  0  0  0  0  0  0  0  0  0  0  0
    7.0100   -6.2120   -0.3422 C   0  0  0  0  0  0  0  0  0  0  0  0
    7.1623   -6.3493    1.0485 C   0  0  0  0  0  0  0  0  0  0  0  0
    8.2098   -7.1077    1.5749 C   0  0  0  0  0  0  0  0  0  0  0  0
    9.1195   -7.7430    0.7214 C   0  0  0  0  0  0  0  0  0  0  0  0
    8.9747   -7.6145   -0.6620 C   0  0  0  0  0  0  0  0  0  0  0  0
    7.9256   -6.8524   -1.1879 C   0  0  0  0  0  0  0  0  0  0  0  0
    6.0898   -1.0775   -2.0665 C   0  0  0  0  0  0  0  0  0  0  0  0
    7.1026   -1.7355   -2.3079 O   0  0  0  0  0  0  0  0  0  0  0  0
    4.9897   -0.3355   -4.9958 H   0  0  0  0  0  0  0  0  0  0  0  0
    6.6837   -0.6178   -4.4854 H   0  0  0  0  0  0  0  0  0  0  0  0
    6.0124    1.0425   -4.4748 H   0  0  0  0  0  0  0  0  0  0  0  0
    3.5873    0.9616   -2.7562 H   0  0  0  0  0  0  0  0  0  0  0  0
    3.5940   -0.0289   -0.1757 H   0  0  0  0  0  0  0  0  0  0  0  0
    5.3202   -1.3264    1.1946 H   0  0  0  0  0  0  0  0  0  0  0  0
    6.9133   -1.6117    0.4318 H   0  0  0  0  0  0  0  0  0  0  0  0
    6.6634   -3.4198   -1.3806 H   0  0  0  0  0  0  0  0  0  0  0  0
    5.7603   -5.5794   -1.9818 H   0  0  0  0  0  0  0  0  0  0  0  0
    4.9347   -5.6348   -0.4042 H   0  0  0  0  0  0  0  0  0  0  0  0
    6.4482   -5.8536    1.7115 H   0  0  0  0  0  0  0  0  0  0  0  0
    8.3154   -7.2087    2.6585 H   0  0  0  0  0  0  0  0  0  0  0  0
    9.9375   -8.3384    1.1353 H   0  0  0  0  0  0  0  0  0  0  0  0
    9.6796   -8.1085   -1.3360 H   0  0  0  0  0  0  0  0  0  0  0  0
    7.8170   -6.7559   -2.2726 H   0  0  0  0  0  0  0  0  0  0  0  0
  1  2  1  0
  1 19  1  0
  1 20  1  0
  1 21  1  0
  2  3  1  0
  2 17  1  0
  3  4  2  0
  3 22  1  0
  4  5  1  0
  4 23  1  0
  5  6  1  0
  5 17  1  0
  6  7  1  0
  6 24  1  0
  6 25  1  0
  7  8  2  0
  7  9  1  0
  9 10  1  0
  9 26  1  0
 10 11  1  0
 10 27  1  0
 10 28  1  0
 11 12  2  0
 11 16  1  0
 12 13  1  0
 12 29  1  0
 13 14  2  0
 13 30  1  0
 14 15  1  0
 14 31  1  0
 15 16  2  0
 15 32  1  0
 16 33  1  0
 17 18  2  0
M  END

