
     RDKit          3D

 32 34  0  0  0  0  0  0  0  0999 V2000
    1.1645    0.5284    0.9324 C   0  0  0  0  0  0  0  0  0  0  0  0
    2.3559    0.0784    0.0703 C   0  0  1  0  0  0  0  0  0  0  0  0
    3.1823    1.1997   -0.3722 N   0  0  0  0  0  0  0  0  0  0  0  0
    2.9080    2.0352   -1.4173 C   0  0  0  0  0  0  0  0  0  0  0  0
    1.7787    1.8735   -2.2485 C   0  0  0  0  0  0  0  0  0  0  0  0
    1.5429    2.7460   -3.3124 C   0  0  0  0  0  0  0  0  0  0  0  0
    0.3891    2.5335   -4.1202 N   0  0  0  0  0  0  0  0  0  0  0  0
    0.1279    2.8973   -5.3993 C   0  0  0  0  0  0  0  0  0  0  0  0
   -1.0709    2.4703   -5.7235 N   0  0  0  0  0  0  0  0  0  0  0  0
   -1.5468    1.8351   -4.6270 N   0  0  0  0  0  0  0  0  0  0  0  0
   -0.6931    1.8619   -3.6668 N   0  0  0  0  0  0  0  0  0  0  0  0
    2.4039    3.8107   -3.5950 C   0  0  0  0  0  0  0  0  0  0  0  0
    3.5321    3.9776   -2.7877 C   0  0  0  0  0  0  0  0  0  0  0  0
    3.7812    3.1161   -1.7266 C   0  0  0  0  0  0  0  0  0  0  0  0
    5.2074    3.3629   -0.7336 Cl  0  0  0  0  0  0  0  0  0  0  0  0
    3.2319   -0.9417    0.7560 C   0  0  0  0  0  0  0  0  0  0  0  0
    3.6948   -0.7695    2.4331 S   0  0  0  0  0  0  0  0  0  0  0  0
    4.6737   -2.1927    2.3836 C   0  0  0  0  0  0  0  0  0  0  0  0
    4.6523   -2.7854    1.1499 C   0  0  0  0  0  0  0  0  0  0  0  0
    3.8328   -2.0627    0.2288 C   0  0  0  0  0  0  0  0  0  0  0  0
    3.6175   -2.6285   -1.5694 Br  0  0  0  0  0  0  0  0  0  0  0  0
    0.5414    1.2485    0.3817 H   0  0  0  0  0  0  0  0  0  0  0  0
    1.5097    1.0214    1.8552 H   0  0  0  0  0  0  0  0  0  0  0  0
    0.5363   -0.3316    1.2102 H   0  0  0  0  0  0  0  0  0  0  0  0
    1.9665   -0.4254   -0.8295 H   0  0  0  0  0  0  0  0  0  0  0  0
    4.0090    1.4146    0.1728 H   0  0  0  0  0  0  0  0  0  0  0  0
    1.0661    1.0707   -2.0734 H   0  0  0  0  0  0  0  0  0  0  0  0
    0.8195    3.4346   -6.0434 H   0  0  0  0  0  0  0  0  0  0  0  0
    2.1991    4.5136   -4.4024 H   0  0  0  0  0  0  0  0  0  0  0  0
    4.2271    4.7974   -2.9760 H   0  0  0  0  0  0  0  0  0  0  0  0
    5.2045   -2.5212    3.2761 H   0  0  0  0  0  0  0  0  0  0  0  0
    5.1894   -3.6983    0.8936 H   0  0  0  0  0  0  0  0  0  0  0  0
  1  2  1  0
  1 22  1  0
  1 23  1  0
  1 24  1  0
  2  3  1  0
  2 16  1  0
  2 25  1  6
  3  4  1  0
  3 26  1  0
  4  5  2  0
  4 14  1  0
  5  6  1  0
  5 27  1  0
  6  7  1  0
  6 12  2  0
  7  8  1  0
  7 11  1  0
  8  9  2  0
  8 28  1  0
  9 10  1  0
 10 11  2  0
 12 13  1  0
 12 29  1  0
 13 14  2  0
 13 30  1  0
 14 15  1  0
 16 17  1  0
 16 20  2  0
 17 18  1  0
 18 19  2  0
 18 31  1  0
 19 20  1  0
 19 32  1  0
 20 21  1  0
M  END

