
     RDKit          3D

 49 51  0  0  0  0  0  0  0  0999 V2000
    3.9562    0.7304    0.5932 C   0  0  0  0  0  0  0  0  0  0  0  0
    2.8429    0.1087   -0.2535 C   0  0  1  0  0  0  0  0  0  0  0  0
    1.4781    0.7570   -0.0103 C   0  0  0  0  0  0  0  0  0  0  0  0
    3.1943    0.1746   -1.6823 N   0  0  0  0  0  0  0  0  0  0  0  0
    3.3498    1.3579   -2.2666 N   0  0  0  0  0  0  0  0  0  0  0  0
    3.6720    1.1133   -3.5402 C   0  0  0  0  0  0  0  0  0  0  0  0
    3.9546    2.2605   -4.4720 C   0  0  0  0  0  0  0  0  0  0  0  0
    2.9899    3.3116   -4.3748 O   0  0  0  0  0  0  0  0  0  0  0  0
    1.8059    3.1078   -4.9995 C   0  0  0  0  0  0  0  0  0  0  0  0
    0.9618    4.1447   -4.7622 N   0  0  0  0  0  0  0  0  0  0  0  0
    1.5525    2.1433   -5.6902 O   0  0  0  0  0  0  0  0  0  0  0  0
    3.7314   -0.2807   -3.7962 C   0  0  0  0  0  0  0  0  0  0  0  0
    4.0864   -0.9979   -5.0748 C   0  0  0  0  0  0  0  0  0  0  0  0
    2.9505   -1.7694   -5.7288 C   0  0  0  0  0  0  0  0  0  0  0  0
    1.7820   -1.1258   -6.1637 C   0  0  0  0  0  0  0  0  0  0  0  0
    0.7828   -1.8874   -6.7767 C   0  0  0  0  0  0  0  0  0  0  0  0
    0.8666   -3.2062   -6.9807 N   0  0  0  0  0  0  0  0  0  0  0  0
    1.9790   -3.8156   -6.5671 C   0  0  0  0  0  0  0  0  0  0  0  0
    3.0390   -3.1504   -5.9421 C   0  0  0  0  0  0  0  0  0  0  0  0
    3.4132   -0.8583   -2.5620 C   0  0  0  0  0  0  0  0  0  0  0  0
    3.4321   -2.5557   -2.1024 S   0  0  0  0  0  0  0  0  0  0  0  0
    1.7070   -3.0531   -2.1406 C   0  0  0  0  0  0  0  0  0  0  0  0
    1.4235   -4.3224   -1.6144 C   0  0  0  0  0  0  0  0  0  0  0  0
    0.1057   -4.7812   -1.6229 C   0  0  0  0  0  0  0  0  0  0  0  0
   -0.2513   -6.3622   -0.9702 Cl  0  0  0  0  0  0  0  0  0  0  0  0
   -0.9391   -4.0037   -2.1322 C   0  0  0  0  0  0  0  0  0  0  0  0
   -0.6255   -2.7440   -2.6459 C   0  0  0  0  0  0  0  0  0  0  0  0
   -2.0280   -1.6570   -3.3421 Br  0  0  0  0  0  0  0  0  0  0  0  0
    0.6832   -2.2553   -2.6659 C   0  0  0  0  0  0  0  0  0  0  0  0
    3.7102    0.6427    1.6627 H   0  0  0  0  0  0  0  0  0  0  0  0
    4.0791    1.7955    0.3468 H   0  0  0  0  0  0  0  0  0  0  0  0
    4.9161    0.2205    0.4184 H   0  0  0  0  0  0  0  0  0  0  0  0
    2.7808   -0.9664   -0.0298 H   0  0  0  0  0  0  0  0  0  0  0  0
    1.5065    1.8236   -0.2790 H   0  0  0  0  0  0  0  0  0  0  0  0
    1.2037    0.6691    1.0522 H   0  0  0  0  0  0  0  0  0  0  0  0
    0.6941    0.2684   -0.6083 H   0  0  0  0  0  0  0  0  0  0  0  0
    4.0149    1.9036   -5.5097 H   0  0  0  0  0  0  0  0  0  0  0  0
    4.9061    2.7448   -4.2071 H   0  0  0  0  0  0  0  0  0  0  0  0
    1.2110    4.8740   -4.1081 H   0  0  0  0  0  0  0  0  0  0  0  0
    0.0227    4.0904   -5.1306 H   0  0  0  0  0  0  0  0  0  0  0  0
    4.9185   -1.6934   -4.8812 H   0  0  0  0  0  0  0  0  0  0  0  0
    4.4676   -0.2584   -5.7971 H   0  0  0  0  0  0  0  0  0  0  0  0
    1.6489   -0.0488   -6.0322 H   0  0  0  0  0  0  0  0  0  0  0  0
   -0.1362   -1.3980   -7.1209 H   0  0  0  0  0  0  0  0  0  0  0  0
    2.0386   -4.8978   -6.7380 H   0  0  0  0  0  0  0  0  0  0  0  0
    3.9223   -3.7094   -5.6221 H   0  0  0  0  0  0  0  0  0  0  0  0
    2.2142   -4.9491   -1.1986 H   0  0  0  0  0  0  0  0  0  0  0  0
   -1.9630   -4.3752   -2.1256 H   0  0  0  0  0  0  0  0  0  0  0  0
    0.8995   -1.2779   -3.0959 H   0  0  0  0  0  0  0  0  0  0  0  0
  1  2  1  0
  1 30  1  0
  1 31  1  0
  1 32  1  0
  2  3  1  0
  2  4  1  0
  2 33  1  1
  3 34  1  0
  3 35  1  0
  3 36  1  0
  4  5  1  0
  4 20  1  0
  5  6  2  0
  6  7  1  0
  6 12  1  0
  7  8  1  0
  7 37  1  0
  7 38  1  0
  8  9  1  0
  9 10  1  0
  9 11  2  0
 10 39  1  0
 10 40  1  0
 12 13  1  0
 12 20  2  0
 13 14  1  0
 13 41  1  0
 13 42  1  0
 14 15  2  0
 14 19  1  0
 15 16  1  0
 15 43  1  0
 16 17  2  0
 16 44  1  0
 17 18  1  0
 18 19  2  0
 18 45  1  0
 19 46  1  0
 20 21  1  0
 21 22  1  0
 22 23  2  0
 22 29  1  0
 23 24  1  0
 23 47  1  0
 24 25  1  0
 24 26  2  0
 26 27  1  0
 26 48  1  0
 27 28  1  0
 27 29  2  0
 29 49  1  0
M  END

