
     RDKit          3D

 35 36  0  0  0  0  0  0  0  0999 V2000
    3.1177   -4.0096    0.3665 C   0  0  0  0  0  0  0  0  0  0  0  0
    2.5846   -2.7222   -0.0345 N   0  0  0  0  0  0  0  0  0  0  0  0
    1.1405   -2.6711    0.0457 C   0  0  0  0  0  0  0  0  0  0  0  0
    3.2194   -1.5962    0.6386 C   0  0  0  0  0  0  0  0  0  0  0  0
    4.6829   -1.4603    0.3226 C   0  0  0  0  0  0  0  0  0  0  0  0
    5.5737   -1.3977    1.3048 N   0  0  0  0  0  0  0  0  0  0  0  0
    6.7755   -1.2730    0.7011 N   0  0  0  0  0  0  0  0  0  0  0  0
    7.9849   -1.1596    1.4826 C   0  0  0  0  0  0  0  0  0  0  0  0
    6.6742   -1.3025   -0.6574 C   0  0  0  0  0  0  0  0  0  0  0  0
    7.7935   -1.1356   -1.4720 N   0  0  0  0  0  0  0  0  0  0  0  0
    5.3155   -1.4169   -0.9585 C   0  0  0  0  0  0  0  0  0  0  0  0
    4.7011   -1.4751   -2.2999 C   0  0  0  0  0  0  0  0  0  0  0  0
    3.7623   -0.5012   -2.6965 C   0  0  0  0  0  0  0  0  0  0  0  0
    3.1588   -0.5206   -3.9532 C   0  0  0  0  0  0  0  0  0  0  0  0
    3.4887   -1.5245   -4.8685 C   0  0  0  0  0  0  0  0  0  0  0  0
    4.4152   -2.5053   -4.5137 C   0  0  0  0  0  0  0  0  0  0  0  0
    5.0040   -2.4776   -3.2455 C   0  0  0  0  0  0  0  0  0  0  0  0
    6.1257   -3.7738   -2.8448 Cl  0  0  0  0  0  0  0  0  0  0  0  0
    2.6624   -4.8075   -0.2418 H   0  0  0  0  0  0  0  0  0  0  0  0
    2.9278   -4.2483    1.4395 H   0  0  0  0  0  0  0  0  0  0  0  0
    4.2045   -4.0406    0.2014 H   0  0  0  0  0  0  0  0  0  0  0  0
    0.6998   -3.4851   -0.5521 H   0  0  0  0  0  0  0  0  0  0  0  0
    0.7695   -1.7162   -0.3609 H   0  0  0  0  0  0  0  0  0  0  0  0
    0.7483   -2.7691    1.0861 H   0  0  0  0  0  0  0  0  0  0  0  0
    3.1256   -1.6468    1.7471 H   0  0  0  0  0  0  0  0  0  0  0  0
    2.6869   -0.6824    0.3213 H   0  0  0  0  0  0  0  0  0  0  0  0
    7.7445   -0.6383    2.4183 H   0  0  0  0  0  0  0  0  0  0  0  0
    8.7271   -0.5803    0.9145 H   0  0  0  0  0  0  0  0  0  0  0  0
    8.4115   -2.1476    1.7302 H   0  0  0  0  0  0  0  0  0  0  0  0
    8.4655   -1.8991   -1.3947 H   0  0  0  0  0  0  0  0  0  0  0  0
    7.5288   -1.0444   -2.4492 H   0  0  0  0  0  0  0  0  0  0  0  0
    3.5178    0.2939   -1.9884 H   0  0  0  0  0  0  0  0  0  0  0  0
    2.4355    0.2533   -4.2216 H   0  0  0  0  0  0  0  0  0  0  0  0
    3.0266   -1.5488   -5.8585 H   0  0  0  0  0  0  0  0  0  0  0  0
    4.6807   -3.3047   -5.2076 H   0  0  0  0  0  0  0  0  0  0  0  0
  1  2  1  0
  1 19  1  0
  1 20  1  0
  1 21  1  0
  2  3  1  0
  2  4  1  0
  3 22  1  0
  3 23  1  0
  3 24  1  0
  4  5  1  0
  4 25  1  0
  4 26  1  0
  5  6  2  0
  5 11  1  0
  6  7  1  0
  7  8  1  0
  7  9  1  0
  8 27  1  0
  8 28  1  0
  8 29  1  0
  9 10  1  0
  9 11  2  0
 10 30  1  0
 10 31  1  0
 11 12  1  0
 12 13  2  0
 12 17  1  0
 13 14  1  0
 13 32  1  0
 14 15  2  0
 14 33  1  0
 15 16  1  0
 15 34  1  0
 16 17  2  0
 16 35  1  0
 17 18  1  0
M  END

