
     RDKit          3D

 42 44  0  0  0  0  0  0  0  0999 V2000
    1.3434   -0.9017    0.9155 C   0  0  0  0  0  0  0  0  0  0  0  0
    2.7860   -0.7749    0.4408 C   0  0  0  0  0  0  0  0  0  0  0  0
    2.8101   -0.1053   -1.2855 S   0  0  0  0  0  0  0  0  0  0  0  0
    4.5643   -0.1910   -1.6531 C   0  0  0  0  0  0  0  0  0  0  0  0
    5.3085    0.9966   -1.6649 C   0  0  0  0  0  0  0  0  0  0  0  0
    6.6853    0.9713   -1.9184 C   0  0  0  0  0  0  0  0  0  0  0  0
    7.6106    2.5091   -1.9717 S   0  0  0  0  0  0  0  0  0  0  0  0
    8.0964    2.6057   -0.2089 C   0  0  1  0  0  0  0  0  0  0  0  0
    8.8427    1.5645    0.1762 F   0  0  0  0  0  0  0  0  0  0  0  0
    8.8118    3.7209   -0.0488 F   0  0  0  0  0  0  0  0  0  0  0  0
    7.0414    2.6577    0.6123 F   0  0  0  0  0  0  0  0  0  0  0  0
    7.3342   -0.2482   -2.1476 C   0  0  0  0  0  0  0  0  0  0  0  0
    6.5967   -1.4324   -2.1405 C   0  0  0  0  0  0  0  0  0  0  0  0
    5.2098   -1.4189   -1.9227 C   0  0  0  0  0  0  0  0  0  0  0  0
    4.4787   -2.7131   -1.9539 C   0  0  0  0  0  0  0  0  0  0  0  0
    4.6325   -3.6587   -1.0505 N   0  0  0  0  0  0  0  0  0  0  0  0
    3.8319   -4.6944   -1.4776 C   0  0  0  0  0  0  0  0  0  0  0  0
    3.5631   -5.9600   -0.9503 C   0  0  0  0  0  0  0  0  0  0  0  0
    2.6819   -6.7657   -1.6832 C   0  0  0  0  0  0  0  0  0  0  0  0
    2.2319   -8.3920   -1.0874 S   0  0  0  0  0  0  0  0  0  0  0  0
    3.5613   -9.3703   -1.8786 C   0  0  1  0  0  0  0  0  0  0  0  0
    4.7831   -8.9936   -1.4816 F   0  0  0  0  0  0  0  0  0  0  0  0
    3.3831  -10.6490   -1.5363 F   0  0  0  0  0  0  0  0  0  0  0  0
    3.5403   -9.2837   -3.2139 F   0  0  0  0  0  0  0  0  0  0  0  0
    2.1068   -6.2908   -2.8885 C   0  0  0  0  0  0  0  0  0  0  0  0
    2.3503   -5.0861   -3.4015 N   0  0  0  0  0  0  0  0  0  0  0  0
    3.1876   -4.3400   -2.6928 C   0  0  0  0  0  0  0  0  0  0  0  0
    3.6220   -3.0649   -2.9836 N   0  0  0  0  0  0  0  0  0  0  0  0
    3.2214   -2.2881   -4.1429 C   0  0  0  0  0  0  0  0  0  0  0  0
    1.3232   -1.2774    1.9509 H   0  0  0  0  0  0  0  0  0  0  0  0
    0.7742   -1.6055    0.2883 H   0  0  0  0  0  0  0  0  0  0  0  0
    0.8236    0.0695    0.8993 H   0  0  0  0  0  0  0  0  0  0  0  0
    3.2982   -1.7482    0.4454 H   0  0  0  0  0  0  0  0  0  0  0  0
    3.3556   -0.0798    1.0762 H   0  0  0  0  0  0  0  0  0  0  0  0
    4.8084    1.9433   -1.4552 H   0  0  0  0  0  0  0  0  0  0  0  0
    8.4104   -0.2662   -2.3280 H   0  0  0  0  0  0  0  0  0  0  0  0
    7.0959   -2.3879   -2.3144 H   0  0  0  0  0  0  0  0  0  0  0  0
    4.0183   -6.3071   -0.0212 H   0  0  0  0  0  0  0  0  0  0  0  0
    1.4223   -6.9415   -3.4416 H   0  0  0  0  0  0  0  0  0  0  0  0
    2.6824   -2.9619   -4.8217 H   0  0  0  0  0  0  0  0  0  0  0  0
    4.1031   -1.8774   -4.6558 H   0  0  0  0  0  0  0  0  0  0  0  0
    2.5573   -1.4636   -3.8431 H   0  0  0  0  0  0  0  0  0  0  0  0
  1  2  1  0
  1 30  1  0
  1 31  1  0
  1 32  1  0
  2  3  1  0
  2 33  1  0
  2 34  1  0
  3  4  1  0
  4  5  2  0
  4 14  1  0
  5  6  1  0
  5 35  1  0
  6  7  1  0
  6 12  2  0
  7  8  1  0
  8  9  1  1
  8 10  1  0
  8 11  1  0
 12 13  1  0
 12 36  1  0
 13 14  2  0
 13 37  1  0
 14 15  1  0
 15 16  2  0
 15 28  1  0
 16 17  1  0
 17 18  2  0
 17 27  1  0
 18 19  1  0
 18 38  1  0
 19 20  1  0
 19 25  2  0
 20 21  1  0
 21 22  1  1
 21 23  1  0
 21 24  1  0
 25 26  1  0
 25 39  1  0
 26 27  2  0
 27 28  1  0
 28 29  1  0
 29 40  1  0
 29 41  1  0
 29 42  1  0
M  END

