
     RDKit          3D

 53 57  0  0  0  0  0  0  0  0999 V2000
    1.4282   -1.9007    4.7030 O   0  0  0  0  0  0  0  0  0  0  0  0
    1.7292   -1.3863    3.6392 N   0  0  0  0  0  0  0  0  0  0  0  0
    1.4131   -1.8083    2.5399 O   0  0  0  0  0  0  0  0  0  0  0  0
    2.5445   -0.1494    3.6866 C   0  0  0  0  0  0  0  0  0  0  0  0
    2.9193    0.3608    4.9307 C   0  0  0  0  0  0  0  0  0  0  0  0
    3.6867    1.5229    4.9752 C   0  0  0  0  0  0  0  0  0  0  0  0
    4.0651    2.1372    3.7765 C   0  0  0  0  0  0  0  0  0  0  0  0
    5.0483    3.6472    3.8374 S   0  0  1  0  0  0  0  0  0  0  0  0
    4.9647    4.2496    2.5033 O   0  0  0  0  0  0  0  0  0  0  0  0
    4.6428    4.3857    5.0372 O   0  0  0  0  0  0  0  0  0  0  0  0
    6.6212    3.1013    4.1062 N   0  0  0  0  0  0  0  0  0  0  0  0
    7.4361    2.7530    2.9287 C   0  0  0  0  0  0  0  0  0  0  0  0
    8.3665    3.9081    2.5675 C   0  0  2  0  0  0  0  0  0  0  0  0
    9.4647    3.6219    1.5337 C   0  0  0  0  0  0  0  0  0  0  0  0
   10.6294    4.5663    1.9466 C   0  0  0  0  0  0  0  0  0  0  0  0
   10.1531    5.2283    3.2586 C   0  0  0  0  0  0  0  0  0  0  0  0
    9.1301    4.3164    3.7477 N   0  0  0  0  0  0  0  0  0  0  0  0
    8.2968    4.7630    4.8426 C   0  0  0  0  0  0  0  0  0  0  0  0
    7.3604    3.6153    5.2697 C   0  0  2  0  0  0  0  0  0  0  0  0
    8.1810    2.4973    5.9509 C   0  0  0  0  0  0  0  0  0  0  0  0
    7.4368    1.2940    6.2455 N   0  0  0  0  0  0  0  0  0  0  0  0
    7.5205    0.2214    5.4140 N   0  0  0  0  0  0  0  0  0  0  0  0
    6.7709   -0.7275    5.8471 N   0  0  0  0  0  0  0  0  0  0  0  0
    6.1534   -0.3042    7.0026 C   0  0  0  0  0  0  0  0  0  0  0  0
    5.2472   -0.9579    7.8575 C   0  0  0  0  0  0  0  0  0  0  0  0
    4.7880   -0.2520    8.9617 C   0  0  0  0  0  0  0  0  0  0  0  0
    5.2173    1.0752    9.2217 C   0  0  0  0  0  0  0  0  0  0  0  0
    6.1148    1.7356    8.3900 C   0  0  0  0  0  0  0  0  0  0  0  0
    6.5755    1.0182    7.2717 C   0  0  0  0  0  0  0  0  0  0  0  0
    3.6700    1.6303    2.5348 C   0  0  0  0  0  0  0  0  0  0  0  0
    2.9022    0.4658    2.4874 C   0  0  0  0  0  0  0  0  0  0  0  0
    2.6087   -0.1542    5.8389 H   0  0  0  0  0  0  0  0  0  0  0  0
    3.9815    1.9553    5.9321 H   0  0  0  0  0  0  0  0  0  0  0  0
    6.7708    2.5147    2.0888 H   0  0  0  0  0  0  0  0  0  0  0  0
    8.0102    1.8432    3.1674 H   0  0  0  0  0  0  0  0  0  0  0  0
    7.7272    4.7491    2.2123 H   0  0  0  0  0  0  0  0  0  0  0  0
    9.1132    3.7999    0.5069 H   0  0  0  0  0  0  0  0  0  0  0  0
    9.7786    2.5682    1.5995 H   0  0  0  0  0  0  0  0  0  0  0  0
   10.8483    5.3211    1.1774 H   0  0  0  0  0  0  0  0  0  0  0  0
   11.5534    3.9933    2.1120 H   0  0  0  0  0  0  0  0  0  0  0  0
    9.7301    6.2377    3.0512 H   0  0  0  0  0  0  0  0  0  0  0  0
   10.9574    5.3559    4.0016 H   0  0  0  0  0  0  0  0  0  0  0  0
    7.6717    5.6432    4.5681 H   0  0  0  0  0  0  0  0  0  0  0  0
    8.9326    5.0666    5.6917 H   0  0  0  0  0  0  0  0  0  0  0  0
    6.6160    4.0066    5.9745 H   0  0  0  0  0  0  0  0  0  0  0  0
    8.5994    2.8928    6.8900 H   0  0  0  0  0  0  0  0  0  0  0  0
    9.0239    2.2081    5.3108 H   0  0  0  0  0  0  0  0  0  0  0  0
    4.9266   -1.9800    7.6475 H   0  0  0  0  0  0  0  0  0  0  0  0
    4.0827   -0.7229    9.6504 H   0  0  0  0  0  0  0  0  0  0  0  0
    4.8298    1.5923   10.1031 H   0  0  0  0  0  0  0  0  0  0  0  0
    6.4360    2.7576    8.5999 H   0  0  0  0  0  0  0  0  0  0  0  0
    3.9491    2.1569    1.6212 H   0  0  0  0  0  0  0  0  0  0  0  0
    2.5726    0.0326    1.5436 H   0  0  0  0  0  0  0  0  0  0  0  0
  1  2  2  0
  2  3  1  0
  2  4  1  0
  4  5  2  0
  4 31  1  0
  5  6  1  0
  5 32  1  0
  6  7  2  0
  6 33  1  0
  8  7  1  6
  7 30  1  0
  8  9  2  0
  8 10  2  0
  8 11  1  0
 11 12  1  0
 11 19  1  0
 12 13  1  0
 12 34  1  0
 12 35  1  0
 13 14  1  0
 13 17  1  0
 13 36  1  6
 14 15  1  0
 14 37  1  0
 14 38  1  0
 15 16  1  0
 15 39  1  0
 15 40  1  0
 16 17  1  0
 16 41  1  0
 16 42  1  0
 17 18  1  0
 18 19  1  0
 18 43  1  0
 18 44  1  0
 19 20  1  0
 19 45  1  1
 20 21  1  0
 20 46  1  0
 20 47  1  0
 21 22  1  0
 21 29  1  0
 22 23  2  0
 23 24  1  0
 24 25  1  0
 24 29  2  0
 25 26  2  0
 25 48  1  0
 26 27  1  0
 26 49  1  0
 27 28  2  0
 27 50  1  0
 28 29  1  0
 28 51  1  0
 30 31  2  0
 30 52  1  0
 31 53  1  0
M  CHG  2   2   1   3  -1
M  END

