
     RDKit          3D

 43 44  0  0  0  0  0  0  0  0999 V2000
    0.9217    2.7050   -0.9429 C   0  0  0  0  0  0  0  0  0  0  0  0
    2.4271    2.5527   -1.0653 C   0  0  0  0  0  0  0  0  0  0  0  0
    2.8633    1.5695   -0.1520 O   0  0  0  0  0  0  0  0  0  0  0  0
    4.2395    1.3133   -0.1812 C   0  0  1  0  0  0  0  0  0  0  0  0
    5.2043    2.3021    0.5273 C   0  0  0  0  0  0  0  0  0  0  0  0
    5.9616    1.0807    1.1172 C   0  0  2  0  0  0  0  0  0  0  0  0
    7.1386    0.7591    0.3284 N   0  0  0  0  0  0  0  0  0  0  0  0
    8.0952   -0.1677    0.9163 C   0  0  1  0  0  0  0  0  0  0  0  0
    7.6072   -1.6185    0.9106 C   0  0  0  0  0  0  0  0  0  0  0  0
    9.4156   -0.0497    0.1308 C   0  0  0  0  0  0  0  0  0  0  0  0
    9.9179    1.3213    0.0810 N   0  0  0  0  0  0  0  0  0  0  0  0
   10.6592    1.7645    1.2649 C   0  0  0  0  0  0  0  0  0  0  0  0
   12.1328    1.3463    1.2210 C   0  0  0  0  0  0  0  0  0  0  0  0
   12.7529    1.7914    0.0285 O   0  0  0  0  0  0  0  0  0  0  0  0
   12.0994    1.2966   -1.1263 C   0  0  0  0  0  0  0  0  0  0  0  0
   10.6269    1.7161   -1.1365 C   0  0  0  0  0  0  0  0  0  0  0  0
    4.7061    0.2144    0.7855 C   0  0  0  0  0  0  0  0  0  0  0  0
    0.5481    3.4631   -1.6491 H   0  0  0  0  0  0  0  0  0  0  0  0
    0.6461    3.0127    0.0779 H   0  0  0  0  0  0  0  0  0  0  0  0
    0.4191    1.7489   -1.1571 H   0  0  0  0  0  0  0  0  0  0  0  0
    2.9286    3.5224   -0.8641 H   0  0  0  0  0  0  0  0  0  0  0  0
    2.7054    2.2623   -2.1008 H   0  0  0  0  0  0  0  0  0  0  0  0
    4.5780    1.1134   -1.2164 H   0  0  0  0  0  0  0  0  0  0  0  0
    4.6696    2.8621    1.3094 H   0  0  0  0  0  0  0  0  0  0  0  0
    5.7909    3.0024   -0.0892 H   0  0  0  0  0  0  0  0  0  0  0  0
    6.1926    1.1532    2.2020 H   0  0  0  0  0  0  0  0  0  0  0  0
    7.6611    1.6141    0.1282 H   0  0  0  0  0  0  0  0  0  0  0  0
    8.3025    0.1015    1.9805 H   0  0  0  0  0  0  0  0  0  0  0  0
    7.3490   -1.9346   -0.1132 H   0  0  0  0  0  0  0  0  0  0  0  0
    6.7155   -1.7494    1.5411 H   0  0  0  0  0  0  0  0  0  0  0  0
    8.3878   -2.2923    1.3004 H   0  0  0  0  0  0  0  0  0  0  0  0
    9.2155   -0.3751   -0.9029 H   0  0  0  0  0  0  0  0  0  0  0  0
   10.1437   -0.7710    0.5563 H   0  0  0  0  0  0  0  0  0  0  0  0
   10.1756    1.3764    2.1752 H   0  0  0  0  0  0  0  0  0  0  0  0
   10.6115    2.8673    1.3157 H   0  0  0  0  0  0  0  0  0  0  0  0
   12.2233    0.2426    1.3080 H   0  0  0  0  0  0  0  0  0  0  0  0
   12.6908    1.7934    2.0590 H   0  0  0  0  0  0  0  0  0  0  0  0
   12.1844    0.1895   -1.1704 H   0  0  0  0  0  0  0  0  0  0  0  0
   12.6325    1.7095   -1.9976 H   0  0  0  0  0  0  0  0  0  0  0  0
   10.1087    1.3006   -2.0155 H   0  0  0  0  0  0  0  0  0  0  0  0
   10.5852    2.8179   -1.2193 H   0  0  0  0  0  0  0  0  0  0  0  0
    4.0151    0.1570    1.6407 H   0  0  0  0  0  0  0  0  0  0  0  0
    4.8714   -0.7901    0.3736 H   0  0  0  0  0  0  0  0  0  0  0  0
  1  2  1  0
  1 18  1  0
  1 19  1  0
  1 20  1  0
  2  3  1  0
  2 21  1  0
  2 22  1  0
  3  4  1  0
  4  5  1  0
  4 17  1  0
  4 23  1  6
  5  6  1  0
  5 24  1  0
  5 25  1  0
  6  7  1  0
  6 17  1  0
  6 26  1  1
  7  8  1  0
  7 27  1  0
  8  9  1  0
  8 10  1  0
  8 28  1  1
  9 29  1  0
  9 30  1  0
  9 31  1  0
 10 11  1  0
 10 32  1  0
 10 33  1  0
 11 12  1  0
 11 16  1  0
 12 13  1  0
 12 34  1  0
 12 35  1  0
 13 14  1  0
 13 36  1  0
 13 37  1  0
 14 15  1  0
 15 16  1  0
 15 38  1  0
 15 39  1  0
 16 40  1  0
 16 41  1  0
 17 42  1  0
 17 43  1  0
M  END

