
     RDKit          3D

 27 26  0  0  0  0  0  0  0  0999 V2000
    2.9247    1.8099   -6.6087 C   0  0  0  0  0  0  0  0  0  0  0  0
    2.6036    0.9454   -5.4023 C   0  0  0  0  0  0  0  0  0  0  0  0
    3.2030    1.4779   -4.2004 O   0  0  0  0  0  0  0  0  0  0  0  0
    4.4660    1.1244   -3.9323 C   0  0  0  0  0  0  0  0  0  0  0  0
    5.1290    0.3729   -4.5996 O   0  0  0  0  0  0  0  0  0  0  0  0
    4.9364    1.7337   -2.6025 C   0  0  2  0  0  0  0  0  0  0  0  0
    4.6192    1.0164   -1.8273 H   0  0  0  0  0  0  0  0  0  0  0  0
    4.3751    3.1108   -2.2644 C   0  0  0  0  0  0  0  0  0  0  0  0
    6.3685    1.6737   -2.5354 O   0  0  0  0  0  0  0  0  0  0  0  0
    7.0798    2.2971   -3.4835 C   0  0  0  0  0  0  0  0  0  0  0  0
    6.6089    3.0105   -4.3406 O   0  0  0  0  0  0  0  0  0  0  0  0
    8.5723    2.0025   -3.3905 C   0  0  1  0  0  0  0  0  0  0  0  0
    8.8843    2.2361   -2.3537 H   0  0  0  0  0  0  0  0  0  0  0  0
    8.8442    0.5173   -3.6631 C   0  0  0  0  0  0  0  0  0  0  0  0
    9.2627    2.8325   -4.2846 O   0  0  0  0  0  0  0  0  0  0  0  0
    2.4072    1.4154   -7.4978 H   0  0  0  0  0  0  0  0  0  0  0  0
    4.0056    1.8107   -6.8118 H   0  0  0  0  0  0  0  0  0  0  0  0
    2.5946    2.8479   -6.4494 H   0  0  0  0  0  0  0  0  0  0  0  0
    2.9584   -0.0856   -5.5461 H   0  0  0  0  0  0  0  0  0  0  0  0
    1.5249    0.9307   -5.1906 H   0  0  0  0  0  0  0  0  0  0  0  0
    4.7925    3.4493   -1.3042 H   0  0  0  0  0  0  0  0  0  0  0  0
    3.2826    3.0491   -2.1691 H   0  0  0  0  0  0  0  0  0  0  0  0
    4.6226    3.8435   -3.0427 H   0  0  0  0  0  0  0  0  0  0  0  0
    8.3621   -0.1206   -2.9081 H   0  0  0  0  0  0  0  0  0  0  0  0
    9.9302    0.3440   -3.6442 H   0  0  0  0  0  0  0  0  0  0  0  0
    8.4615    0.2379   -4.6565 H   0  0  0  0  0  0  0  0  0  0  0  0
    8.5872    3.2412   -4.8518 H   0  0  0  0  0  0  0  0  0  0  0  0
  1  2  1  0
  1 16  1  0
  1 17  1  0
  1 18  1  0
  2  3  1  0
  2 19  1  0
  2 20  1  0
  3  4  1  0
  4  5  2  0
  4  6  1  0
  6  7  1  1
  6  8  1  0
  6  9  1  0
  8 21  1  0
  8 22  1  0
  8 23  1  0
  9 10  1  0
 10 11  2  0
 10 12  1  0
 12 13  1  1
 12 14  1  0
 12 15  1  0
 14 24  1  0
 14 25  1  0
 14 26  1  0
 15 27  1  0
M  END

