
     RDKit          3D

 46 47  0  0  0  0  0  0  0  0999 V2000
    1.3842   -0.2371    1.4531 C   0  0  0  0  0  0  0  0  0  0  0  0
    2.6330   -0.0101    0.6431 C   0  0  0  0  0  0  0  0  0  0  0  0
    3.0057    1.2811    0.2318 C   0  0  0  0  0  0  0  0  0  0  0  0
    4.1632    1.5057   -0.5189 C   0  0  0  0  0  0  0  0  0  0  0  0
    4.5540    2.7527   -0.9295 O   0  0  0  0  0  0  0  0  0  0  0  0
    3.8076    3.8945   -0.5825 C   0  0  0  0  0  0  0  0  0  0  0  0
    4.5140    5.1463   -1.0835 C   0  0  0  0  0  0  0  0  0  0  0  0
    4.0507    6.2663   -0.9172 O   0  0  0  0  0  0  0  0  0  0  0  0
    5.6895    4.9254   -1.7116 N   0  0  0  0  0  0  0  0  0  0  0  0
    6.4115    5.9966   -2.1819 N   0  0  0  0  0  0  0  0  0  0  0  0
    7.6594    5.7638   -2.6837 C   0  0  0  0  0  0  0  0  0  0  0  0
    8.1032    4.6215   -2.7411 O   0  0  0  0  0  0  0  0  0  0  0  0
    8.4225    6.9646   -3.1458 C   0  0  0  0  0  0  0  0  0  0  0  0
    9.8020    6.8050   -3.3565 C   0  0  0  0  0  0  0  0  0  0  0  0
   10.5865    7.8740   -3.7839 C   0  0  0  0  0  0  0  0  0  0  0  0
    9.9762    9.1074   -4.0096 C   0  0  0  0  0  0  0  0  0  0  0  0
   10.7218   10.1382   -4.4222 F   0  0  0  0  0  0  0  0  0  0  0  0
    8.6068    9.2939   -3.8247 C   0  0  0  0  0  0  0  0  0  0  0  0
    7.8334    8.2161   -3.3935 C   0  0  0  0  0  0  0  0  0  0  0  0
    5.0050    0.4372   -0.9058 C   0  0  0  0  0  0  0  0  0  0  0  0
    6.2674    0.7131   -1.7148 C   0  0  1  0  0  0  0  0  0  0  0  0
    7.3842    1.2977   -0.8258 C   0  0  0  0  0  0  0  0  0  0  0  0
    6.7783   -0.4994   -2.5013 C   0  0  0  0  0  0  0  0  0  0  0  0
    4.6286   -0.8440   -0.4971 C   0  0  0  0  0  0  0  0  0  0  0  0
    3.4739   -1.0627    0.2614 C   0  0  0  0  0  0  0  0  0  0  0  0
    3.0815   -2.7094    0.7312 Cl  0  0  0  0  0  0  0  0  0  0  0  0
    0.8599    0.7089    1.6505 H   0  0  0  0  0  0  0  0  0  0  0  0
    1.6183   -0.7131    2.4193 H   0  0  0  0  0  0  0  0  0  0  0  0
    0.6905   -0.9169    0.9321 H   0  0  0  0  0  0  0  0  0  0  0  0
    2.3617    2.1147    0.5138 H   0  0  0  0  0  0  0  0  0  0  0  0
    3.6915    3.9952    0.5122 H   0  0  0  0  0  0  0  0  0  0  0  0
    2.7942    3.8772   -1.0238 H   0  0  0  0  0  0  0  0  0  0  0  0
    6.1245    4.0155   -1.8424 H   0  0  0  0  0  0  0  0  0  0  0  0
    6.0097    6.8951   -1.9308 H   0  0  0  0  0  0  0  0  0  0  0  0
   10.2416    5.8222   -3.1780 H   0  0  0  0  0  0  0  0  0  0  0  0
   11.6608    7.7697   -3.9477 H   0  0  0  0  0  0  0  0  0  0  0  0
    8.1655   10.2711   -4.0287 H   0  0  0  0  0  0  0  0  0  0  0  0
    6.7562    8.3608   -3.2813 H   0  0  0  0  0  0  0  0  0  0  0  0
    5.9985    1.4898   -2.4511 H   0  0  0  0  0  0  0  0  0  0  0  0
    7.7356    0.5477   -0.0981 H   0  0  0  0  0  0  0  0  0  0  0  0
    7.0335    2.1750   -0.2627 H   0  0  0  0  0  0  0  0  0  0  0  0
    8.2416    1.6173   -1.4389 H   0  0  0  0  0  0  0  0  0  0  0  0
    7.1509   -1.2950   -1.8353 H   0  0  0  0  0  0  0  0  0  0  0  0
    7.6183   -0.2008   -3.1477 H   0  0  0  0  0  0  0  0  0  0  0  0
    5.9948   -0.9327   -3.1427 H   0  0  0  0  0  0  0  0  0  0  0  0
    5.2373   -1.7061   -0.7692 H   0  0  0  0  0  0  0  0  0  0  0  0
  1  2  1  0
  1 27  1  0
  1 28  1  0
  1 29  1  0
  2  3  2  0
  2 25  1  0
  3  4  1  0
  3 30  1  0
  4  5  1  0
  4 20  2  0
  5  6  1  0
  6  7  1  0
  6 31  1  0
  6 32  1  0
  7  8  2  0
  7  9  1  0
  9 10  1  0
  9 33  1  0
 10 11  1  0
 10 34  1  0
 11 12  2  0
 11 13  1  0
 13 14  2  0
 13 19  1  0
 14 15  1  0
 14 35  1  0
 15 16  2  0
 15 36  1  0
 16 17  1  0
 16 18  1  0
 18 19  2  0
 18 37  1  0
 19 38  1  0
 20 21  1  0
 20 24  1  0
 21 22  1  0
 21 23  1  0
 21 39  1  6
 22 40  1  0
 22 41  1  0
 22 42  1  0
 23 43  1  0
 23 44  1  0
 23 45  1  0
 24 25  2  0
 24 46  1  0
 25 26  1  0
M  END

