
     RDKit          3D

 50 53  0  0  0  0  0  0  0  0999 V2000
    3.5359    1.1347    1.1942 C   0  0  0  0  0  0  0  0  0  0  0  0
    3.5243    0.0428    0.3010 O   0  0  0  0  0  0  0  0  0  0  0  0
    3.6898    0.2817   -1.0205 C   0  0  0  0  0  0  0  0  0  0  0  0
    3.8835    1.5411   -1.5889 C   0  0  0  0  0  0  0  0  0  0  0  0
    4.0457    1.6845   -2.9785 C   0  0  0  0  0  0  0  0  0  0  0  0
    4.2340    3.0886   -3.4891 C   0  0  0  0  0  0  0  0  0  0  0  0
    3.9775    4.0623   -2.7933 O   0  0  0  0  0  0  0  0  0  0  0  0
    4.7128    3.2109   -4.7667 N   0  0  0  0  0  0  0  0  0  0  0  0
    4.9450    4.4989   -5.3931 C   0  0  0  0  0  0  0  0  0  0  0  0
    4.4757    4.5499   -6.8327 C   0  0  0  0  0  0  0  0  0  0  0  0
    3.2099    4.0717   -7.2082 C   0  0  0  0  0  0  0  0  0  0  0  0
    2.7559    4.1427   -8.5229 C   0  0  0  0  0  0  0  0  0  0  0  0
    3.5717    4.7093   -9.5257 C   0  0  0  0  0  0  0  0  0  0  0  0
    3.1431    4.8133  -10.8688 N   0  0  0  0  0  0  0  0  0  0  0  0
    3.9125    5.5701  -11.8597 C   0  0  0  0  0  0  0  0  0  0  0  0
    2.9638    5.6848  -13.0627 C   0  0  0  0  0  0  0  0  0  0  0  0
    2.0886    4.4377  -12.9418 C   0  0  0  0  0  0  0  0  0  0  0  0
    2.0724    4.1338  -11.4458 C   0  0  0  0  0  0  0  0  0  0  0  0
    1.2816    3.4102  -10.8786 O   0  0  0  0  0  0  0  0  0  0  0  0
    4.8443    5.1853   -9.1584 C   0  0  0  0  0  0  0  0  0  0  0  0
    5.2815    5.1010   -7.8345 C   0  0  0  0  0  0  0  0  0  0  0  0
    4.0062    0.5572   -3.8032 C   0  0  0  0  0  0  0  0  0  0  0  0
    3.8169   -0.7108   -3.2410 C   0  0  0  0  0  0  0  0  0  0  0  0
    3.6482   -0.8615   -1.8556 C   0  0  0  0  0  0  0  0  0  0  0  0
    3.4339   -2.0775   -1.2791 O   0  0  0  0  0  0  0  0  0  0  0  0
    3.0508   -3.0954   -2.1897 C   0  0  0  0  0  0  0  0  0  0  0  0
    3.9272   -3.0474   -3.4298 C   0  0  0  0  0  0  0  0  0  0  0  0
    3.7896   -1.7926   -4.0779 O   0  0  0  0  0  0  0  0  0  0  0  0
    3.3822    0.7167    2.1981 H   0  0  0  0  0  0  0  0  0  0  0  0
    2.7263    1.8533    0.9748 H   0  0  0  0  0  0  0  0  0  0  0  0
    4.5004    1.6730    1.1720 H   0  0  0  0  0  0  0  0  0  0  0  0
    3.9011    2.4478   -0.9869 H   0  0  0  0  0  0  0  0  0  0  0  0
    5.0331    2.3839   -5.2538 H   0  0  0  0  0  0  0  0  0  0  0  0
    6.0154    4.7731   -5.3484 H   0  0  0  0  0  0  0  0  0  0  0  0
    4.4107    5.2353   -4.7719 H   0  0  0  0  0  0  0  0  0  0  0  0
    2.5588    3.6289   -6.4498 H   0  0  0  0  0  0  0  0  0  0  0  0
    1.7757    3.7566   -8.7899 H   0  0  0  0  0  0  0  0  0  0  0  0
    4.8437    5.0334  -12.1231 H   0  0  0  0  0  0  0  0  0  0  0  0
    4.2016    6.5527  -11.4569 H   0  0  0  0  0  0  0  0  0  0  0  0
    3.5101    5.7584  -14.0138 H   0  0  0  0  0  0  0  0  0  0  0  0
    2.3461    6.5914  -12.9618 H   0  0  0  0  0  0  0  0  0  0  0  0
    2.5320    3.5651  -13.4539 H   0  0  0  0  0  0  0  0  0  0  0  0
    1.0615    4.5471  -13.3166 H   0  0  0  0  0  0  0  0  0  0  0  0
    5.5155    5.6143   -9.9023 H   0  0  0  0  0  0  0  0  0  0  0  0
    6.2786    5.4743   -7.5823 H   0  0  0  0  0  0  0  0  0  0  0  0
    4.0924    0.6099   -4.8898 H   0  0  0  0  0  0  0  0  0  0  0  0
    1.9900   -2.9665   -2.4761 H   0  0  0  0  0  0  0  0  0  0  0  0
    3.1586   -4.0543   -1.6620 H   0  0  0  0  0  0  0  0  0  0  0  0
    3.6318   -3.8181   -4.1568 H   0  0  0  0  0  0  0  0  0  0  0  0
    4.9840   -3.2142   -3.1477 H   0  0  0  0  0  0  0  0  0  0  0  0
  1  2  1  0
  1 29  1  0
  1 30  1  0
  1 31  1  0
  2  3  1  0
  3  4  2  0
  3 24  1  0
  4  5  1  0
  4 32  1  0
  5  6  1  0
  5 22  2  0
  6  7  2  0
  6  8  1  0
  8  9  1  0
  8 33  1  0
  9 10  1  0
  9 34  1  0
  9 35  1  0
 10 11  2  0
 10 21  1  0
 11 12  1  0
 11 36  1  0
 12 13  2  0
 12 37  1  0
 13 14  1  0
 13 20  1  0
 14 15  1  0
 14 18  1  0
 15 16  1  0
 15 38  1  0
 15 39  1  0
 16 17  1  0
 16 40  1  0
 16 41  1  0
 17 18  1  0
 17 42  1  0
 17 43  1  0
 18 19  2  0
 20 21  2  0
 20 44  1  0
 21 45  1  0
 22 23  1  0
 22 46  1  0
 23 24  2  0
 23 28  1  0
 24 25  1  0
 25 26  1  0
 26 27  1  0
 26 47  1  0
 26 48  1  0
 27 28  1  0
 27 49  1  0
 27 50  1  0
M  END

