
     RDKit          3D

 36 37  0  0  0  0  0  0  0  0999 V2000
    2.8782    1.2781   -1.9876 C   0  0  0  0  0  0  0  0  0  0  0  0
    4.1808    0.8049   -1.3636 C   0  0  0  0  0  0  0  0  0  0  0  0
    4.5916   -0.4683   -1.8927 O   0  0  0  0  0  0  0  0  0  0  0  0
    4.0904   -1.5634   -1.3177 C   0  0  0  0  0  0  0  0  0  0  0  0
    3.3197   -1.5553   -0.3826 O   0  0  0  0  0  0  0  0  0  0  0  0
    4.5878   -2.8416   -1.9499 C   0  0  0  0  0  0  0  0  0  0  0  0
    4.1253   -4.0602   -1.3913 C   0  0  0  0  0  0  0  0  0  0  0  0
    4.5468   -5.2626   -1.9312 C   0  0  0  0  0  0  0  0  0  0  0  0
    4.0480   -6.5504   -1.3338 C   0  0  0  0  0  0  0  0  0  0  0  0
    4.3090   -7.6620   -1.7392 O   0  0  0  0  0  0  0  0  0  0  0  0
    3.2596   -6.3322   -0.2676 O   0  0  0  0  0  0  0  0  0  0  0  0
    2.7022   -7.4790    0.4014 C   0  0  0  0  0  0  0  0  0  0  0  0
    1.4090   -7.9382   -0.2511 C   0  0  0  0  0  0  0  0  0  0  0  0
    5.4467   -5.2334   -3.0492 C   0  0  0  0  0  0  0  0  0  0  0  0
    5.9722   -6.3762   -3.7159 C   0  0  0  0  0  0  0  0  0  0  0  0
    6.8342   -6.2387   -4.7825 C   0  0  0  0  0  0  0  0  0  0  0  0
    7.2281   -4.9568   -5.2540 C   0  0  0  0  0  0  0  0  0  0  0  0
    8.0748   -4.8158   -6.3020 O   0  0  0  0  0  0  0  0  0  0  0  0
    6.7387   -3.8242   -4.6325 C   0  0  0  0  0  0  0  0  0  0  0  0
    5.8500   -3.9337   -3.5318 C   0  0  0  0  0  0  0  0  0  0  0  0
    5.4115   -2.7761   -2.9720 N   0  0  0  0  0  0  0  0  0  0  0  0
    2.6362    2.2902   -1.6251 H   0  0  0  0  0  0  0  0  0  0  0  0
    2.0480    0.6101   -1.7147 H   0  0  0  0  0  0  0  0  0  0  0  0
    2.9591    1.3148   -3.0851 H   0  0  0  0  0  0  0  0  0  0  0  0
    4.0872    0.7260   -0.2701 H   0  0  0  0  0  0  0  0  0  0  0  0
    5.0094    1.4856   -1.6068 H   0  0  0  0  0  0  0  0  0  0  0  0
    3.4434   -4.0278   -0.5447 H   0  0  0  0  0  0  0  0  0  0  0  0
    2.5306   -7.1387    1.4326 H   0  0  0  0  0  0  0  0  0  0  0  0
    3.4499   -8.2855    0.4070 H   0  0  0  0  0  0  0  0  0  0  0  0
    0.6752   -7.1183   -0.2918 H   0  0  0  0  0  0  0  0  0  0  0  0
    0.9708   -8.7635    0.3327 H   0  0  0  0  0  0  0  0  0  0  0  0
    1.5923   -8.3026   -1.2726 H   0  0  0  0  0  0  0  0  0  0  0  0
    5.6810   -7.3654   -3.3705 H   0  0  0  0  0  0  0  0  0  0  0  0
    7.2251   -7.1331   -5.2791 H   0  0  0  0  0  0  0  0  0  0  0  0
    8.3332   -5.6861   -6.6326 H   0  0  0  0  0  0  0  0  0  0  0  0
    7.0247   -2.8292   -4.9735 H   0  0  0  0  0  0  0  0  0  0  0  0
  1  2  1  0
  1 22  1  0
  1 23  1  0
  1 24  1  0
  2  3  1  0
  2 25  1  0
  2 26  1  0
  3  4  1  0
  4  5  2  0
  4  6  1  0
  6  7  2  0
  6 21  1  0
  7  8  1  0
  7 27  1  0
  8  9  1  0
  8 14  2  0
  9 10  2  0
  9 11  1  0
 11 12  1  0
 12 13  1  0
 12 28  1  0
 12 29  1  0
 13 30  1  0
 13 31  1  0
 13 32  1  0
 14 15  1  0
 14 20  1  0
 15 16  2  0
 15 33  1  0
 16 17  1  0
 16 34  1  0
 17 18  1  0
 17 19  2  0
 18 35  1  0
 19 20  1  0
 19 36  1  0
 20 21  2  0
M  END

