
     RDKit          3D

 46 50  0  0  0  0  0  0  0  0999 V2000
    2.4831   -3.4206   -0.8485 O   0  0  0  0  0  0  0  0  0  0  0  0
    2.1616   -2.3094   -0.4777 C   0  0  0  0  0  0  0  0  0  0  0  0
    0.6927   -1.9721   -0.1560 C   0  0  0  0  0  0  0  0  0  0  0  0
    0.1292   -0.8988   -0.9552 N   0  0  0  0  0  0  0  0  0  0  0  0
    0.2866    0.4319   -0.6156 C   0  0  0  0  0  0  0  0  0  0  0  0
    0.9344    0.8817    0.2973 O   0  0  0  0  0  0  0  0  0  0  0  0
   -0.4115    1.1829   -1.5292 O   0  0  0  0  0  0  0  0  0  0  0  0
   -0.9830    0.3270   -2.4424 C   0  0  0  0  0  0  0  0  0  0  0  0
   -1.7696    0.6463   -3.5352 C   0  0  0  0  0  0  0  0  0  0  0  0
   -2.2237   -0.4290   -4.3168 C   0  0  0  0  0  0  0  0  0  0  0  0
   -1.8891   -1.7518   -3.9980 C   0  0  0  0  0  0  0  0  0  0  0  0
   -1.0906   -2.0615   -2.8856 C   0  0  0  0  0  0  0  0  0  0  0  0
   -0.6483   -0.9932   -2.1113 C   0  0  0  0  0  0  0  0  0  0  0  0
    3.0329   -1.2667   -0.2788 N   0  0  0  0  0  0  0  0  0  0  0  0
    4.4213   -1.3683   -0.4334 C   0  0  0  0  0  0  0  0  0  0  0  0
    5.3054   -2.4097   -0.2246 C   0  0  0  0  0  0  0  0  0  0  0  0
    6.5743   -1.8388   -0.4667 C   0  0  0  0  0  0  0  0  0  0  0  0
    6.5250   -0.5621   -0.7933 N   0  0  0  0  0  0  0  0  0  0  0  0
    5.1925   -0.2708   -0.7987 N   0  0  0  0  0  0  0  0  0  0  0  0
    4.7774    1.0445   -1.1399 C   0  0  0  0  0  0  0  0  0  0  0  0
    3.6548    1.2645   -1.9509 C   0  0  0  0  0  0  0  0  0  0  0  0
    3.2706    2.5704   -2.2660 C   0  0  0  0  0  0  0  0  0  0  0  0
    4.0139    3.6580   -1.8018 C   0  0  0  0  0  0  0  0  0  0  0  0
    5.1504    3.4327   -1.0171 C   0  0  0  0  0  0  0  0  0  0  0  0
    5.5319    2.1345   -0.6795 C   0  0  0  0  0  0  0  0  0  0  0  0
    7.6843   -2.8278   -0.2481 C   0  0  0  0  0  0  0  0  0  0  0  0
    6.9002   -4.1751   -0.2085 C   0  0  0  0  0  0  0  0  0  0  0  0
    5.4258   -3.8464    0.1930 C   0  0  0  0  0  0  0  0  0  0  0  0
    0.6065   -1.6844    0.9041 H   0  0  0  0  0  0  0  0  0  0  0  0
    0.1131   -2.8878   -0.3224 H   0  0  0  0  0  0  0  0  0  0  0  0
   -2.0178    1.6824   -3.7697 H   0  0  0  0  0  0  0  0  0  0  0  0
   -2.8462   -0.2270   -5.1911 H   0  0  0  0  0  0  0  0  0  0  0  0
   -2.2531   -2.5642   -4.6309 H   0  0  0  0  0  0  0  0  0  0  0  0
   -0.8197   -3.0920   -2.6503 H   0  0  0  0  0  0  0  0  0  0  0  0
    2.6487   -0.3831    0.0643 H   0  0  0  0  0  0  0  0  0  0  0  0
    3.0966    0.4171   -2.3505 H   0  0  0  0  0  0  0  0  0  0  0  0
    2.3877    2.7338   -2.8885 H   0  0  0  0  0  0  0  0  0  0  0  0
    3.7125    4.6774   -2.0542 H   0  0  0  0  0  0  0  0  0  0  0  0
    5.7430    4.2772   -0.6562 H   0  0  0  0  0  0  0  0  0  0  0  0
    6.4163    1.9413   -0.0720 H   0  0  0  0  0  0  0  0  0  0  0  0
    8.1967   -2.6278    0.7104 H   0  0  0  0  0  0  0  0  0  0  0  0
    8.4561   -2.8049   -1.0329 H   0  0  0  0  0  0  0  0  0  0  0  0
    7.3647   -4.9133    0.4625 H   0  0  0  0  0  0  0  0  0  0  0  0
    6.8992   -4.6148   -1.2193 H   0  0  0  0  0  0  0  0  0  0  0  0
    5.2754   -3.9568    1.2830 H   0  0  0  0  0  0  0  0  0  0  0  0
    4.6906   -4.5004   -0.2963 H   0  0  0  0  0  0  0  0  0  0  0  0
  1  2  2  0
  2  3  1  0
  2 14  1  0
  3  4  1  0
  3 29  1  0
  3 30  1  0
  4  5  1  0
  4 13  1  0
  5  6  2  0
  5  7  1  0
  7  8  1  0
  8  9  1  0
  8 13  2  0
  9 10  2  0
  9 31  1  0
 10 11  1  0
 10 32  1  0
 11 12  2  0
 11 33  1  0
 12 13  1  0
 12 34  1  0
 14 15  1  0
 14 35  1  0
 15 16  2  0
 15 19  1  0
 16 17  1  0
 16 28  1  0
 17 18  2  0
 17 26  1  0
 18 19  1  0
 19 20  1  0
 20 21  2  0
 20 25  1  0
 21 22  1  0
 21 36  1  0
 22 23  2  0
 22 37  1  0
 23 24  1  0
 23 38  1  0
 24 25  2  0
 24 39  1  0
 25 40  1  0
 26 27  1  0
 26 41  1  0
 26 42  1  0
 27 28  1  0
 27 43  1  0
 27 44  1  0
 28 45  1  0
 28 46  1  0
M  END

