
     RDKit          3D

 40 42  0  0  0  0  0  0  0  0999 V2000
    0.4916    0.3935    0.3484 C   0  0  0  0  0  0  0  0  0  0  0  0
    1.8857   -0.1231   -0.0237 C   0  0  1  0  0  0  0  0  0  0  0  0
    1.8242   -0.7115   -1.3661 N   0  0  0  0  0  0  0  0  0  0  0  0
    2.3015   -1.9425   -1.6658 C   0  0  0  0  0  0  0  0  0  0  0  0
    2.9566   -2.7327   -0.8317 N   0  0  0  0  0  0  0  0  0  0  0  0
    3.2306   -3.8756   -1.5481 C   0  0  0  0  0  0  0  0  0  0  0  0
    3.9014   -5.0467   -1.1631 C   0  0  0  0  0  0  0  0  0  0  0  0
    4.0485   -6.0690   -2.0977 C   0  0  0  0  0  0  0  0  0  0  0  0
    3.5332   -5.9202   -3.3962 C   0  0  0  0  0  0  0  0  0  0  0  0
    3.7018   -7.0160   -4.3581 N   0  0  0  0  0  0  0  0  0  0  0  0
    4.2897   -8.0211   -3.9856 O   0  0  0  0  0  0  0  0  0  0  0  0
    3.2424   -6.8613   -5.4828 O   0  0  0  0  0  0  0  0  0  0  0  0
    2.8597   -4.7667   -3.8220 C   0  0  0  0  0  0  0  0  0  0  0  0
    2.7248   -3.7638   -2.8759 C   0  0  0  0  0  0  0  0  0  0  0  0
    2.1343   -2.5051   -2.9161 N   0  0  0  0  0  0  0  0  0  0  0  0
    1.6486   -2.0970   -3.7040 H   0  0  0  0  0  0  0  0  0  0  0  0
    2.9940    0.9592    0.0875 C   0  0  1  0  0  0  0  0  0  0  0  0
    3.1729    1.4877    1.5299 C   0  0  0  0  0  0  0  0  0  0  0  0
    3.8267    0.4455    2.4519 C   0  0  0  0  0  0  0  0  0  0  0  0
    5.1349   -0.0824    1.8348 C   0  0  0  0  0  0  0  0  0  0  0  0
    5.0083   -0.5256    0.4545 N   0  0  0  0  0  0  0  0  0  0  0  0
    4.3762    0.4589   -0.4053 C   0  0  0  0  0  0  0  0  0  0  0  0
   -0.2565   -0.4075    0.2480 H   0  0  0  0  0  0  0  0  0  0  0  0
    0.1902    1.2310   -0.3054 H   0  0  0  0  0  0  0  0  0  0  0  0
    0.4576    0.7572    1.3846 H   0  0  0  0  0  0  0  0  0  0  0  0
    2.1401   -0.9627    0.6378 H   0  0  0  0  0  0  0  0  0  0  0  0
    1.3989   -0.1642   -2.1044 H   0  0  0  0  0  0  0  0  0  0  0  0
    4.2961   -5.1465   -0.1506 H   0  0  0  0  0  0  0  0  0  0  0  0
    4.5603   -6.9978   -1.8485 H   0  0  0  0  0  0  0  0  0  0  0  0
    2.4813   -4.7036   -4.8414 H   0  0  0  0  0  0  0  0  0  0  0  0
    2.6862    1.8043   -0.5594 H   0  0  0  0  0  0  0  0  0  0  0  0
    2.2196    1.8415    1.9539 H   0  0  0  0  0  0  0  0  0  0  0  0
    3.8266    2.3770    1.4817 H   0  0  0  0  0  0  0  0  0  0  0  0
    3.1356   -0.3985    2.6276 H   0  0  0  0  0  0  0  0  0  0  0  0
    4.0256    0.8902    3.4426 H   0  0  0  0  0  0  0  0  0  0  0  0
    5.5428   -0.9086    2.4399 H   0  0  0  0  0  0  0  0  0  0  0  0
    5.8894    0.7281    1.8686 H   0  0  0  0  0  0  0  0  0  0  0  0
    4.5258   -1.4226    0.3796 H   0  0  0  0  0  0  0  0  0  0  0  0
    4.3012    0.0492   -1.4243 H   0  0  0  0  0  0  0  0  0  0  0  0
    5.0417    1.3402   -0.4769 H   0  0  0  0  0  0  0  0  0  0  0  0
  1  2  1  0
  1 23  1  0
  1 24  1  0
  1 25  1  0
  2  3  1  0
  2 17  1  0
  2 26  1  1
  3  4  1  0
  3 27  1  0
  4  5  2  0
  4 15  1  0
  5  6  1  0
  6  7  2  0
  6 14  1  0
  7  8  1  0
  7 28  1  0
  8  9  2  0
  8 29  1  0
  9 10  1  0
  9 13  1  0
 10 11  2  0
 10 12  1  0
 13 14  2  0
 13 30  1  0
 14 15  1  0
 15 16  1  0
 17 18  1  0
 17 22  1  0
 17 31  1  6
 18 19  1  0
 18 32  1  0
 18 33  1  0
 19 20  1  0
 19 34  1  0
 19 35  1  0
 20 21  1  0
 20 36  1  0
 20 37  1  0
 21 22  1  0
 21 38  1  0
 22 39  1  0
 22 40  1  0
M  CHG  2  10   1  12  -1
M  END

