
     RDKit          3D

 46 48  0  0  0  0  0  0  0  0999 V2000
    3.9591   -1.0612   -4.4451 C   0  0  0  0  0  0  0  0  0  0  0  0
    4.6151   -1.4602   -3.1478 C   0  0  0  0  0  0  0  0  0  0  0  0
    4.6657   -0.5319   -2.0927 C   0  0  0  0  0  0  0  0  0  0  0  0
    5.2476   -0.7959   -0.8550 C   0  0  0  0  0  0  0  0  0  0  0  0
    5.8231   -2.0571   -0.6130 C   0  0  0  0  0  0  0  0  0  0  0  0
    6.4303   -2.4162    0.6001 N   0  0  0  0  0  0  0  0  0  0  0  0
    6.6016   -1.6551    1.7239 C   0  0  0  0  0  0  0  0  0  0  0  0
    6.2081   -0.5142    1.8687 O   0  0  0  0  0  0  0  0  0  0  0  0
    7.3068   -2.3413    2.9045 C   0  0  0  0  0  0  0  0  0  0  0  0
    8.1129   -3.9621    2.6430 S   0  0  0  0  0  0  0  0  0  0  0  0
    9.5932   -3.4189    1.8405 C   0  0  0  0  0  0  0  0  0  0  0  0
    9.8813   -2.1953    1.5437 N   0  0  0  0  0  0  0  0  0  0  0  0
   11.0939   -2.0364    0.9473 N   0  0  0  0  0  0  0  0  0  0  0  0
   11.7305   -3.1633    0.7735 C   0  0  0  0  0  0  0  0  0  0  0  0
   12.9365   -3.2817    0.1621 N   0  0  0  0  0  0  0  0  0  0  0  0
   13.6769   -2.1273   -0.3262 C   0  0  0  0  0  0  0  0  0  0  0  0
   14.4997   -1.4127    0.7505 C   0  0  1  0  0  0  0  0  0  0  0  0
   15.6245   -2.2351    1.3931 C   0  0  0  0  0  0  0  0  0  0  0  0
   16.6266   -1.1401    1.7788 C   0  0  0  0  0  0  0  0  0  0  0  0
   16.4800   -0.1555    0.6114 C   0  0  0  0  0  0  0  0  0  0  0  0
   15.1472   -0.3043    0.1297 O   0  0  0  0  0  0  0  0  0  0  0  0
   10.8457   -4.5814    1.3786 S   0  0  0  0  0  0  0  0  0  0  0  0
    5.7893   -3.0104   -1.6358 C   0  0  0  0  0  0  0  0  0  0  0  0
    5.2020   -2.7129   -2.8673 C   0  0  0  0  0  0  0  0  0  0  0  0
    5.2348   -3.8050   -3.8677 N   0  0  0  0  0  0  0  0  0  0  0  0
    4.8381   -3.5658   -4.9980 O   0  0  0  0  0  0  0  0  0  0  0  0
    5.6620   -4.8925   -3.5097 O   0  0  0  0  0  0  0  0  0  0  0  0
    3.5415   -0.0482   -4.3523 H   0  0  0  0  0  0  0  0  0  0  0  0
    3.1533   -1.7540   -4.7276 H   0  0  0  0  0  0  0  0  0  0  0  0
    4.6729   -1.0760   -5.2818 H   0  0  0  0  0  0  0  0  0  0  0  0
    4.2229    0.4540   -2.2555 H   0  0  0  0  0  0  0  0  0  0  0  0
    5.2653   -0.0422   -0.0710 H   0  0  0  0  0  0  0  0  0  0  0  0
    6.8197   -3.3549    0.6468 H   0  0  0  0  0  0  0  0  0  0  0  0
    6.5558   -2.5200    3.6898 H   0  0  0  0  0  0  0  0  0  0  0  0
    8.0469   -1.6298    3.2930 H   0  0  0  0  0  0  0  0  0  0  0  0
   13.4032   -4.1774    0.1997 H   0  0  0  0  0  0  0  0  0  0  0  0
   12.9621   -1.4123   -0.7569 H   0  0  0  0  0  0  0  0  0  0  0  0
   14.3507   -2.4603   -1.1317 H   0  0  0  0  0  0  0  0  0  0  0  0
   13.8041   -1.0466    1.5311 H   0  0  0  0  0  0  0  0  0  0  0  0
   16.0716   -2.9174    0.6474 H   0  0  0  0  0  0  0  0  0  0  0  0
   15.2840   -2.8387    2.2473 H   0  0  0  0  0  0  0  0  0  0  0  0
   17.6558   -1.5084    1.9041 H   0  0  0  0  0  0  0  0  0  0  0  0
   16.3217   -0.6646    2.7253 H   0  0  0  0  0  0  0  0  0  0  0  0
   17.1948   -0.3870   -0.2017 H   0  0  0  0  0  0  0  0  0  0  0  0
   16.6457    0.8930    0.9119 H   0  0  0  0  0  0  0  0  0  0  0  0
    6.2161   -4.0040   -1.5008 H   0  0  0  0  0  0  0  0  0  0  0  0
  1  2  1  0
  1 28  1  0
  1 29  1  0
  1 30  1  0
  2  3  2  0
  2 24  1  0
  3  4  1  0
  3 31  1  0
  4  5  2  0
  4 32  1  0
  5  6  1  0
  5 23  1  0
  6  7  1  0
  6 33  1  0
  7  8  2  0
  7  9  1  0
  9 10  1  0
  9 34  1  0
  9 35  1  0
 10 11  2  0
 11 12  1  0
 11 22  1  0
 12 13  2  0
 13 14  1  0
 14 15  1  0
 14 22  2  0
 15 16  1  0
 15 36  1  0
 16 17  1  0
 16 37  1  0
 16 38  1  0
 17 18  1  0
 17 21  1  0
 17 39  1  1
 18 19  1  0
 18 40  1  0
 18 41  1  0
 19 20  1  0
 19 42  1  0
 19 43  1  0
 20 21  1  0
 20 44  1  0
 20 45  1  0
 23 24  2  0
 23 46  1  0
 24 25  1  0
 25 26  1  0
 25 27  1  0
M  CHG  4  10   1  22   1  26  -1  27  -1
M  END

