
     RDKit          3D

 33 35  0  0  0  0  0  0  0  0999 V2000
    1.9928   -1.5299   -1.5593 C   0  0  0  0  0  0  0  0  0  0  0  0
    2.7532   -0.5832   -0.7728 N   0  0  0  0  0  0  0  0  0  0  0  0
    4.0314   -0.1594   -0.9734 C   0  0  0  0  0  0  0  0  0  0  0  0
    4.3230    0.7504    0.0331 C   0  0  0  0  0  0  0  0  0  0  0  0
    5.6241    1.4632    0.2518 C   0  0  0  0  0  0  0  0  0  0  0  0
    5.4907    2.9822    0.3703 C   0  0  0  0  0  0  0  0  0  0  0  0
    4.4210    3.5273    0.5744 O   0  0  0  0  0  0  0  0  0  0  0  0
    6.6324    3.7569    0.2335 N   0  0  0  0  0  0  0  0  0  0  0  0
    6.4646    5.2279    0.2506 C   0  0  0  0  0  0  0  0  0  0  0  0
    7.7803    5.7828   -0.3250 C   0  0  0  0  0  0  0  0  0  0  0  0
    8.7187    4.6104   -0.2165 C   0  0  0  0  0  0  0  0  0  0  0  0
   10.0951    4.5534   -0.3951 C   0  0  0  0  0  0  0  0  0  0  0  0
   10.9708    6.0140   -0.7995 Cl  0  0  0  0  0  0  0  0  0  0  0  0
   10.7861    3.3418   -0.2529 C   0  0  0  0  0  0  0  0  0  0  0  0
   10.0648    2.1944    0.0743 C   0  0  0  0  0  0  0  0  0  0  0  0
    8.6750    2.2186    0.2573 C   0  0  0  0  0  0  0  0  0  0  0  0
    7.9998    3.4360    0.0967 C   0  0  0  0  0  0  0  0  0  0  0  0
    3.1250    0.8012    0.7940 C   0  0  0  0  0  0  0  0  0  0  0  0
    2.1920   -0.0053    0.2992 N   0  0  0  0  0  0  0  0  0  0  0  0
    2.6138   -1.8932   -2.3890 H   0  0  0  0  0  0  0  0  0  0  0  0
    1.0897   -1.0507   -1.9673 H   0  0  0  0  0  0  0  0  0  0  0  0
    1.6847   -2.3847   -0.9379 H   0  0  0  0  0  0  0  0  0  0  0  0
    4.6333   -0.5268   -1.8031 H   0  0  0  0  0  0  0  0  0  0  0  0
    6.3245    1.2171   -0.5602 H   0  0  0  0  0  0  0  0  0  0  0  0
    6.1051    1.1088    1.1829 H   0  0  0  0  0  0  0  0  0  0  0  0
    6.2944    5.5632    1.2879 H   0  0  0  0  0  0  0  0  0  0  0  0
    5.5709    5.5001   -0.3244 H   0  0  0  0  0  0  0  0  0  0  0  0
    8.1432    6.6633    0.2253 H   0  0  0  0  0  0  0  0  0  0  0  0
    7.6698    6.0922   -1.3794 H   0  0  0  0  0  0  0  0  0  0  0  0
   11.8676    3.3130   -0.3897 H   0  0  0  0  0  0  0  0  0  0  0  0
   10.5973    1.2485    0.2013 H   0  0  0  0  0  0  0  0  0  0  0  0
    8.1624    1.3031    0.5380 H   0  0  0  0  0  0  0  0  0  0  0  0
    2.9141    1.4130    1.6694 H   0  0  0  0  0  0  0  0  0  0  0  0
  1  2  1  0
  1 20  1  0
  1 21  1  0
  1 22  1  0
  2  3  1  0
  2 19  1  0
  3  4  2  0
  3 23  1  0
  4  5  1  0
  4 18  1  0
  5  6  1  0
  5 24  1  0
  5 25  1  0
  6  7  2  0
  6  8  1  0
  8  9  1  0
  8 17  1  0
  9 10  1  0
  9 26  1  0
  9 27  1  0
 10 11  1  0
 10 28  1  0
 10 29  1  0
 11 12  1  0
 11 17  2  0
 12 13  1  0
 12 14  2  0
 14 15  1  0
 14 30  1  0
 15 16  2  0
 15 31  1  0
 16 17  1  0
 16 32  1  0
 18 19  2  0
 18 33  1  0
M  END

