
     RDKit          3D

 33 33  0  0  0  0  0  0  0  0999 V2000
    2.7271   -0.7599   -1.7265 C   0  0  0  0  0  0  0  0  0  0  0  0
    2.2788    0.6929   -1.5328 C   0  0  1  0  0  0  0  0  0  0  0  0
    0.8233    0.7738   -1.0601 C   0  0  0  0  0  0  0  0  0  0  0  0
    3.1921    1.4562   -0.5535 C   0  0  0  0  0  0  0  0  0  0  0  0
    4.5847    1.5282   -0.9566 N   0  0  0  0  0  0  0  0  0  0  0  0
    5.1169    2.6160   -1.5746 C   0  0  0  0  0  0  0  0  0  0  0  0
    4.4994    3.6315   -1.8444 O   0  0  0  0  0  0  0  0  0  0  0  0
    6.6181    2.5175   -1.8798 C   0  0  0  0  0  0  0  0  0  0  0  0
    7.1096    1.1423   -1.9779 N   0  0  0  0  0  0  0  0  0  0  0  0
    8.4362    0.8144   -1.6969 C   0  0  0  0  0  0  0  0  0  0  0  0
    9.0944    1.1954   -0.5134 C   0  0  0  0  0  0  0  0  0  0  0  0
    8.4565    1.9437    0.3959 F   0  0  0  0  0  0  0  0  0  0  0  0
   10.4148    0.8228   -0.2545 C   0  0  0  0  0  0  0  0  0  0  0  0
   11.0041    1.2186    0.8692 F   0  0  0  0  0  0  0  0  0  0  0  0
   11.1038   -0.0009   -1.1480 C   0  0  0  0  0  0  0  0  0  0  0  0
   12.3537   -0.3750   -0.8916 F   0  0  0  0  0  0  0  0  0  0  0  0
   10.4686   -0.4142   -2.3218 C   0  0  0  0  0  0  0  0  0  0  0  0
   11.1115   -1.1885   -3.1899 F   0  0  0  0  0  0  0  0  0  0  0  0
    9.1601   -0.0091   -2.5794 C   0  0  0  0  0  0  0  0  0  0  0  0
    8.5645   -0.4070   -3.7138 F   0  0  0  0  0  0  0  0  0  0  0  0
    2.0884   -1.2803   -2.4580 H   0  0  0  0  0  0  0  0  0  0  0  0
    2.6713   -1.3233   -0.7781 H   0  0  0  0  0  0  0  0  0  0  0  0
    3.7638   -0.8202   -2.0951 H   0  0  0  0  0  0  0  0  0  0  0  0
    2.3545    1.2116   -2.5058 H   0  0  0  0  0  0  0  0  0  0  0  0
    0.6956    0.2832   -0.0793 H   0  0  0  0  0  0  0  0  0  0  0  0
    0.1456    0.2738   -1.7702 H   0  0  0  0  0  0  0  0  0  0  0  0
    0.4897    1.8189   -0.9570 H   0  0  0  0  0  0  0  0  0  0  0  0
    3.1367    0.9864    0.4451 H   0  0  0  0  0  0  0  0  0  0  0  0
    2.8359    2.4923   -0.4562 H   0  0  0  0  0  0  0  0  0  0  0  0
    5.2123    0.7497   -0.7864 H   0  0  0  0  0  0  0  0  0  0  0  0
    7.1414    3.0356   -1.0652 H   0  0  0  0  0  0  0  0  0  0  0  0
    6.7941    3.1021   -2.7997 H   0  0  0  0  0  0  0  0  0  0  0  0
    6.7999    0.6880   -2.8328 H   0  0  0  0  0  0  0  0  0  0  0  0
  1  2  1  0
  1 21  1  0
  1 22  1  0
  1 23  1  0
  2  3  1  0
  2  4  1  0
  2 24  1  6
  3 25  1  0
  3 26  1  0
  3 27  1  0
  4  5  1  0
  4 28  1  0
  4 29  1  0
  5  6  1  0
  5 30  1  0
  6  7  2  0
  6  8  1  0
  8  9  1  0
  8 31  1  0
  8 32  1  0
  9 10  1  0
  9 33  1  0
 10 11  2  0
 10 19  1  0
 11 12  1  0
 11 13  1  0
 13 14  1  0
 13 15  2  0
 15 16  1  0
 15 17  1  0
 17 18  1  0
 17 19  2  0
 19 20  1  0
M  END

