
     RDKit          3D

 45 46  0  0  0  0  0  0  0  0999 V2000
    4.2172   -0.2272    0.9754 C   0  0  0  0  0  0  0  0  0  0  0  0
    2.8280   -0.5453    0.4657 C   0  0  2  0  0  0  0  0  0  0  0  0
    2.5790   -1.6088    0.6072 H   0  0  0  0  0  0  0  0  0  0  0  0
    2.8121   -0.2770   -0.9621 O   0  0  0  0  0  0  0  0  0  0  0  0
    2.0451   -1.0430   -1.7516 C   0  0  0  0  0  0  0  0  0  0  0  0
    1.2846   -1.8897   -1.3413 O   0  0  0  0  0  0  0  0  0  0  0  0
    2.2445   -0.6752   -3.2145 C   0  0  0  0  0  0  0  0  0  0  0  0
    1.4275   -1.4531   -4.1093 N   0  0  0  0  0  0  0  0  0  0  0  0
   -0.0091   -1.1955   -4.1930 C   0  0  0  0  0  0  0  0  0  0  0  0
   -0.4305   -0.4716   -5.4872 C   0  0  0  0  0  0  0  0  0  0  0  0
    0.3569   -0.9213   -6.7257 C   0  0  0  0  0  0  0  0  0  0  0  0
    0.4589   -2.4399   -6.9351 C   0  0  0  0  0  0  0  0  0  0  0  0
    1.1166   -3.2427   -5.7761 C   0  0  0  0  0  0  0  0  0  0  0  0
    2.0382   -2.4419   -4.8596 C   0  0  0  0  0  0  0  0  0  0  0  0
    3.2375   -2.6576   -4.7904 O   0  0  0  0  0  0  0  0  0  0  0  0
    1.7466    0.3214    1.1545 C   0  0  0  0  0  0  0  0  0  0  0  0
    2.0511    1.2457    1.8854 O   0  0  0  0  0  0  0  0  0  0  0  0
    0.4609   -0.0597    0.8577 N   0  0  0  0  0  0  0  0  0  0  0  0
   -0.7354    0.5487    1.2725 C   0  0  0  0  0  0  0  0  0  0  0  0
   -0.7807    1.6384    2.1648 C   0  0  0  0  0  0  0  0  0  0  0  0
   -1.9947    2.2071    2.5489 C   0  0  0  0  0  0  0  0  0  0  0  0
   -3.1845    1.6909    2.0458 C   0  0  0  0  0  0  0  0  0  0  0  0
   -4.3542    2.2325    2.4126 F   0  0  0  0  0  0  0  0  0  0  0  0
   -3.1869    0.6163    1.1620 C   0  0  0  0  0  0  0  0  0  0  0  0
   -1.9670    0.0571    0.7820 C   0  0  0  0  0  0  0  0  0  0  0  0
   -1.9862   -1.2921   -0.3382 Cl  0  0  0  0  0  0  0  0  0  0  0  0
    4.4470    0.8370    0.8297 H   0  0  0  0  0  0  0  0  0  0  0  0
    4.9602   -0.8398    0.4448 H   0  0  0  0  0  0  0  0  0  0  0  0
    4.2799   -0.4415    2.0518 H   0  0  0  0  0  0  0  0  0  0  0  0
    3.2997   -0.8535   -3.4704 H   0  0  0  0  0  0  0  0  0  0  0  0
    2.0576    0.4079   -3.3186 H   0  0  0  0  0  0  0  0  0  0  0  0
   -0.3061   -0.6140   -3.3091 H   0  0  0  0  0  0  0  0  0  0  0  0
   -0.5500   -2.1491   -4.0983 H   0  0  0  0  0  0  0  0  0  0  0  0
   -0.3026    0.6179   -5.3673 H   0  0  0  0  0  0  0  0  0  0  0  0
   -1.5115   -0.6395   -5.6357 H   0  0  0  0  0  0  0  0  0  0  0  0
    1.3769   -0.5042   -6.6698 H   0  0  0  0  0  0  0  0  0  0  0  0
   -0.0978   -0.4684   -7.6225 H   0  0  0  0  0  0  0  0  0  0  0  0
    1.0437   -2.6102   -7.8532 H   0  0  0  0  0  0  0  0  0  0  0  0
   -0.5435   -2.8561   -7.1338 H   0  0  0  0  0  0  0  0  0  0  0  0
    1.7354   -4.0551   -6.1780 H   0  0  0  0  0  0  0  0  0  0  0  0
    0.3405   -3.7150   -5.1523 H   0  0  0  0  0  0  0  0  0  0  0  0
    0.3604   -0.8710    0.2450 H   0  0  0  0  0  0  0  0  0  0  0  0
    0.1587    2.0294    2.5478 H   0  0  0  0  0  0  0  0  0  0  0  0
   -2.0235    3.0510    3.2404 H   0  0  0  0  0  0  0  0  0  0  0  0
   -4.1265    0.2225    0.7746 H   0  0  0  0  0  0  0  0  0  0  0  0
  1  2  1  0
  1 27  1  0
  1 28  1  0
  1 29  1  0
  2  3  1  6
  2  4  1  0
  2 16  1  0
  4  5  1  0
  5  6  2  0
  5  7  1  0
  7  8  1  0
  7 30  1  0
  7 31  1  0
  8  9  1  0
  8 14  1  0
  9 10  1  0
  9 32  1  0
  9 33  1  0
 10 11  1  0
 10 34  1  0
 10 35  1  0
 11 12  1  0
 11 36  1  0
 11 37  1  0
 12 13  1  0
 12 38  1  0
 12 39  1  0
 13 14  1  0
 13 40  1  0
 13 41  1  0
 14 15  2  0
 16 17  2  0
 16 18  1  0
 18 19  1  0
 18 42  1  0
 19 20  2  0
 19 25  1  0
 20 21  1  0
 20 43  1  0
 21 22  2  0
 21 44  1  0
 22 23  1  0
 22 24  1  0
 24 25  2  0
 24 45  1  0
 25 26  1  0
M  END

