
     RDKit          3D

 15 15  0  0  0  0  0  0  0  0999 V2000
    2.3199    1.1504   -2.5819 O   0  0  0  0  0  0  0  0  0  0  0  0
    2.1311    2.0684   -1.5561 C   0  0  0  0  0  0  0  0  0  0  0  0
    3.0396    1.9060   -0.4886 O   0  0  0  0  0  0  0  0  0  0  0  0
    4.3855    1.8908   -0.8415 C   0  0  1  0  0  0  0  0  0  0  0  0
    5.3190    1.9682    0.3740 C   0  0  0  0  0  0  0  0  0  0  0  0
    5.8056    0.5822   -0.0861 C   0  0  0  0  0  0  0  0  0  0  0  0
    4.8702    0.5834   -1.1809 O   0  0  0  0  0  0  0  0  0  0  0  0
    2.4035    0.2705   -2.1847 H   0  0  0  0  0  0  0  0  0  0  0  0
    1.1343    1.9983   -1.0809 H   0  0  0  0  0  0  0  0  0  0  0  0
    2.2405    3.0686   -2.0174 H   0  0  0  0  0  0  0  0  0  0  0  0
    4.5709    2.6033   -1.6690 H   0  0  0  0  0  0  0  0  0  0  0  0
    4.7632    1.9795    1.3211 H   0  0  0  0  0  0  0  0  0  0  0  0
    6.0593    2.7799    0.3603 H   0  0  0  0  0  0  0  0  0  0  0  0
    5.6316   -0.2544    0.6131 H   0  0  0  0  0  0  0  0  0  0  0  0
    6.8511    0.5391   -0.4381 H   0  0  0  0  0  0  0  0  0  0  0  0
  1  2  1  0
  1  8  1  0
  2  3  1  0
  2  9  1  0
  2 10  1  0
  3  4  1  0
  4  5  1  0
  4  7  1  0
  4 11  1  6
  5  6  1  0
  5 12  1  0
  5 13  1  0
  6  7  1  0
  6 14  1  0
  6 15  1  0
M  END

