
     RDKit          3D

 37 38  0  0  0  0  0  0  0  0999 V2000
    2.0631    1.0994   -0.6271 C   0  0  0  0  0  0  0  0  0  0  0  0
    2.5906   -0.2091   -0.0347 C   0  0  0  0  0  0  0  0  0  0  0  0
    3.0921   -1.2623   -1.0409 C   0  0  1  0  0  0  0  0  0  0  0  0
    4.3087   -0.7970   -1.8565 C   0  0  0  0  0  0  0  0  0  0  0  0
    5.5451   -0.4484   -1.0245 C   0  0  0  0  0  0  0  0  0  0  0  0
    3.5571   -2.4157   -0.2320 O   0  0  0  0  0  0  0  0  0  0  0  0
    2.5585   -3.3731   -0.3785 C   0  0  2  0  0  0  0  0  0  0  0  0
    1.6935   -3.1209    0.2768 H   0  0  0  0  0  0  0  0  0  0  0  0
    2.8567   -4.7346   -0.2288 O   0  0  0  0  0  0  0  0  0  0  0  0
    1.9039   -5.4053   -1.1052 C   0  0  2  0  0  0  0  0  0  0  0  0
    0.7938   -6.0418   -0.2832 C   0  0  0  0  0  0  0  0  0  0  0  0
    2.6733   -6.4050   -1.9563 C   0  0  0  0  0  0  0  0  0  0  0  0
    1.3001   -4.3798   -1.9499 O   0  0  0  0  0  0  0  0  0  0  0  0
    2.1872   -3.2935   -1.8232 C   0  0  1  0  0  0  0  0  0  0  0  0
    3.1103   -3.4998   -2.4021 H   0  0  0  0  0  0  0  0  0  0  0  0
    1.8879   -1.8143   -1.9667 C   0  0  2  0  0  0  0  0  0  0  0  0
    1.7992   -1.2867   -3.3964 C   0  0  0  0  0  0  0  0  0  0  0  0
    1.7229    1.7725    0.1754 H   0  0  0  0  0  0  0  0  0  0  0  0
    1.2047    0.9362   -1.2982 H   0  0  0  0  0  0  0  0  0  0  0  0
    2.8356    1.6388   -1.1978 H   0  0  0  0  0  0  0  0  0  0  0  0
    1.7994   -0.6808    0.5719 H   0  0  0  0  0  0  0  0  0  0  0  0
    3.4132    0.0030    0.6664 H   0  0  0  0  0  0  0  0  0  0  0  0
    4.0173    0.0672   -2.4754 H   0  0  0  0  0  0  0  0  0  0  0  0
    4.5718   -1.6020   -2.5614 H   0  0  0  0  0  0  0  0  0  0  0  0
    5.3865    0.4381   -0.3905 H   0  0  0  0  0  0  0  0  0  0  0  0
    6.4007   -0.2302   -1.6827 H   0  0  0  0  0  0  0  0  0  0  0  0
    5.8210   -1.2885   -0.3708 H   0  0  0  0  0  0  0  0  0  0  0  0
    1.2030   -6.8338    0.3610 H   0  0  0  0  0  0  0  0  0  0  0  0
    0.0353   -6.4792   -0.9495 H   0  0  0  0  0  0  0  0  0  0  0  0
    0.3065   -5.2861    0.3490 H   0  0  0  0  0  0  0  0  0  0  0  0
    3.2071   -7.1177   -1.3103 H   0  0  0  0  0  0  0  0  0  0  0  0
    3.4139   -5.8857   -2.5810 H   0  0  0  0  0  0  0  0  0  0  0  0
    1.9835   -6.9606   -2.6086 H   0  0  0  0  0  0  0  0  0  0  0  0
    0.9409   -1.5883   -1.4482 H   0  0  0  0  0  0  0  0  0  0  0  0
    2.6849   -1.5541   -3.9922 H   0  0  0  0  0  0  0  0  0  0  0  0
    1.6864   -0.1924   -3.4298 H   0  0  0  0  0  0  0  0  0  0  0  0
    0.9219   -1.7261   -3.8971 H   0  0  0  0  0  0  0  0  0  0  0  0
  1  2  1  0
  1 18  1  0
  1 19  1  0
  1 20  1  0
  3  2  1  1
  2 21  1  0
  2 22  1  0
  3  4  1  0
  3  6  1  0
  3 16  1  0
  4  5  1  0
  4 23  1  0
  4 24  1  0
  5 25  1  0
  5 26  1  0
  5 27  1  0
  6  7  1  0
  7  8  1  1
  7  9  1  0
  7 14  1  0
  9 10  1  0
 10 11  1  1
 10 12  1  0
 10 13  1  0
 11 28  1  0
 11 29  1  0
 11 30  1  0
 12 31  1  0
 12 32  1  0
 12 33  1  0
 13 14  1  0
 14 15  1  6
 14 16  1  0
 16 17  1  0
 16 34  1  1
 17 35  1  0
 17 36  1  0
 17 37  1  0
M  END

