
     RDKit          3D

 32 33  0  0  0  0  0  0  0  0999 V2000
    4.3471   -0.4629   -3.6157 C   0  0  0  0  0  0  0  0  0  0  0  0
    4.1164    0.3653   -2.4740 O   0  0  0  0  0  0  0  0  0  0  0  0
    5.0689    0.3667   -1.5295 C   0  0  0  0  0  0  0  0  0  0  0  0
    6.0716   -0.3070   -1.5870 O   0  0  0  0  0  0  0  0  0  0  0  0
    4.7439    1.3368   -0.3862 C   0  0  1  0  0  0  0  0  0  0  0  0
    5.3277    0.9371    0.8869 N   0  0  0  0  0  0  0  0  0  0  0  0
    5.1938    2.7442   -0.7683 C   0  0  0  0  0  0  0  0  0  0  0  0
    4.3683    3.8481   -0.5171 C   0  0  0  0  0  0  0  0  0  0  0  0
    4.7993    5.1447   -0.8085 C   0  0  0  0  0  0  0  0  0  0  0  0
    6.0622    5.3527   -1.3620 C   0  0  0  0  0  0  0  0  0  0  0  0
    6.8990    4.2524   -1.6271 C   0  0  0  0  0  0  0  0  0  0  0  0
    6.4644    2.9594   -1.3235 C   0  0  0  0  0  0  0  0  0  0  0  0
    8.1353    4.5126   -2.2348 N   0  0  0  0  0  0  0  0  0  0  0  0
    8.6918    5.7627   -2.3325 C   0  0  0  0  0  0  0  0  0  0  0  0
    9.7605    5.9704   -2.8705 O   0  0  0  0  0  0  0  0  0  0  0  0
    7.8747    6.8641   -1.6365 C   0  0  1  0  0  0  0  0  0  0  0  0
    8.1327    8.2325   -2.2337 C   0  0  0  0  0  0  0  0  0  0  0  0
    6.4666    6.6080   -1.6995 O   0  0  0  0  0  0  0  0  0  0  0  0
    3.4666   -0.3494   -4.2598 H   0  0  0  0  0  0  0  0  0  0  0  0
    4.4705   -1.5148   -3.3172 H   0  0  0  0  0  0  0  0  0  0  0  0
    5.2542   -0.1443   -4.1515 H   0  0  0  0  0  0  0  0  0  0  0  0
    3.6480    1.3548   -0.2824 H   0  0  0  0  0  0  0  0  0  0  0  0
    6.3390    0.8443    0.7771 H   0  0  0  0  0  0  0  0  0  0  0  0
    4.9948    0.0060    1.1429 H   0  0  0  0  0  0  0  0  0  0  0  0
    3.3798    3.6954   -0.0777 H   0  0  0  0  0  0  0  0  0  0  0  0
    4.1649    6.0128   -0.6193 H   0  0  0  0  0  0  0  0  0  0  0  0
    7.1223    2.1124   -1.5374 H   0  0  0  0  0  0  0  0  0  0  0  0
    8.6855    3.7454   -2.6102 H   0  0  0  0  0  0  0  0  0  0  0  0
    8.1860    6.8520   -0.5703 H   0  0  0  0  0  0  0  0  0  0  0  0
    7.7934    8.2613   -3.2799 H   0  0  0  0  0  0  0  0  0  0  0  0
    9.2091    8.4475   -2.2116 H   0  0  0  0  0  0  0  0  0  0  0  0
    7.5914    9.0007   -1.6635 H   0  0  0  0  0  0  0  0  0  0  0  0
  1  2  1  0
  1 19  1  0
  1 20  1  0
  1 21  1  0
  2  3  1  0
  3  4  2  0
  3  5  1  0
  5  6  1  0
  5  7  1  0
  5 22  1  1
  6 23  1  0
  6 24  1  0
  7  8  2  0
  7 12  1  0
  8  9  1  0
  8 25  1  0
  9 10  2  0
  9 26  1  0
 10 11  1  0
 10 18  1  0
 11 12  2  0
 11 13  1  0
 12 27  1  0
 13 14  1  0
 13 28  1  0
 14 15  2  0
 14 16  1  0
 16 17  1  0
 16 18  1  0
 16 29  1  1
 17 30  1  0
 17 31  1  0
 17 32  1  0
M  END

