
     RDKit          3D

 46 48  0  0  0  0  0  0  0  0999 V2000
    0.6475    0.2617   -0.2112 C   0  0  0  0  0  0  0  0  0  0  0  0
    2.0876   -0.0939   -0.6108 C   0  0  1  0  0  0  0  0  0  0  0  0
    2.1422   -0.4791   -2.0952 C   0  0  0  0  0  0  0  0  0  0  0  0
    3.0678    1.0704   -0.3045 C   0  0  1  0  0  0  0  0  0  0  0  0
    3.0969    1.4596    1.1740 C   0  0  0  0  0  0  0  0  0  0  0  0
    3.9130    2.6449    1.2854 O   0  0  0  0  0  0  0  0  0  0  0  0
    4.2727    3.1411    2.8109 S   0  0  1  0  0  0  0  0  0  0  0  0
    4.7358    4.8147    2.3846 C   0  0  0  0  0  0  0  0  0  0  0  0
    3.0453    3.1426    3.6021 O   0  0  0  0  0  0  0  0  0  0  0  0
    5.4475    2.4200    3.2921 O   0  0  0  0  0  0  0  0  0  0  0  0
    4.4298    0.7948   -0.7744 N   0  0  0  0  0  0  0  0  0  0  0  0
    5.2584   -0.1982   -0.2523 C   0  0  0  0  0  0  0  0  0  0  0  0
    4.9348   -0.9907    0.6041 O   0  0  0  0  0  0  0  0  0  0  0  0
    6.6145   -0.1012   -0.9383 C   0  0  2  0  0  0  0  0  0  0  0  0
    7.7736    0.2203    0.0522 C   0  0  2  0  0  0  0  0  0  0  0  0
    7.5355    1.5925    0.6440 C   0  0  0  0  0  0  0  0  0  0  0  0
    7.4478    2.5752   -0.2655 C   0  0  0  0  0  0  0  0  0  0  0  0
    7.5728    2.1185   -1.7009 C   0  0  1  0  0  0  0  0  0  0  0  0
    8.9405    1.4015   -1.8673 C   0  0  0  0  0  0  0  0  0  0  0  0
    9.0717    0.2804   -0.7984 C   0  0  0  0  0  0  0  0  0  0  0  0
    6.4706    1.0486   -1.9559 C   0  0  2  0  0  0  0  0  0  0  0  0
    5.0578    1.5843   -1.7458 C   0  0  0  0  0  0  0  0  0  0  0  0
    4.5403    2.5181   -2.3109 O   0  0  0  0  0  0  0  0  0  0  0  0
   -0.0386   -0.5459   -0.5101 H   0  0  0  0  0  0  0  0  0  0  0  0
    0.3103    1.1847   -0.7139 H   0  0  0  0  0  0  0  0  0  0  0  0
    0.5249    0.4024    0.8730 H   0  0  0  0  0  0  0  0  0  0  0  0
    2.4117   -0.9639   -0.0157 H   0  0  0  0  0  0  0  0  0  0  0  0
    1.8551    0.3697   -2.7385 H   0  0  0  0  0  0  0  0  0  0  0  0
    1.4475   -1.3082   -2.3010 H   0  0  0  0  0  0  0  0  0  0  0  0
    3.1458   -0.8083   -2.4029 H   0  0  0  0  0  0  0  0  0  0  0  0
    2.7551    1.9559   -0.8814 H   0  0  0  0  0  0  0  0  0  0  0  0
    3.5244    0.6479    1.7812 H   0  0  0  0  0  0  0  0  0  0  0  0
    2.0866    1.6924    1.5359 H   0  0  0  0  0  0  0  0  0  0  0  0
    3.8556    5.3256    1.9765 H   0  0  0  0  0  0  0  0  0  0  0  0
    5.5516    4.7711    1.6531 H   0  0  0  0  0  0  0  0  0  0  0  0
    5.0707    5.2861    3.3181 H   0  0  0  0  0  0  0  0  0  0  0  0
    6.8156   -1.0733   -1.4163 H   0  0  0  0  0  0  0  0  0  0  0  0
    7.8318   -0.5638    0.8194 H   0  0  0  0  0  0  0  0  0  0  0  0
    7.4155    1.7459    1.7188 H   0  0  0  0  0  0  0  0  0  0  0  0
    7.2815    3.6259   -0.0139 H   0  0  0  0  0  0  0  0  0  0  0  0
    7.4620    2.9434   -2.4179 H   0  0  0  0  0  0  0  0  0  0  0  0
    9.7495    2.1399   -1.7645 H   0  0  0  0  0  0  0  0  0  0  0  0
    9.0149    0.9880   -2.8865 H   0  0  0  0  0  0  0  0  0  0  0  0
    9.9281    0.4685   -0.1341 H   0  0  0  0  0  0  0  0  0  0  0  0
    9.2447   -0.6996   -1.2725 H   0  0  0  0  0  0  0  0  0  0  0  0
    6.5413    0.6993   -2.9991 H   0  0  0  0  0  0  0  0  0  0  0  0
  1  2  1  0
  1 24  1  0
  1 25  1  0
  1 26  1  0
  2  3  1  0
  2  4  1  0
  2 27  1  1
  3 28  1  0
  3 29  1  0
  3 30  1  0
  4  5  1  0
  4 11  1  0
  4 31  1  6
  5  6  1  0
  5 32  1  0
  5 33  1  0
  7  6  1  6
  7  8  1  0
  7  9  2  0
  7 10  2  0
  8 34  1  0
  8 35  1  0
  8 36  1  0
 11 12  1  0
 11 22  1  0
 12 13  2  0
 12 14  1  0
 14 15  1  0
 14 21  1  0
 14 37  1  6
 15 16  1  0
 15 20  1  0
 15 38  1  1
 16 17  2  0
 16 39  1  0
 17 18  1  0
 17 40  1  0
 18 19  1  0
 18 21  1  0
 18 41  1  6
 19 20  1  0
 19 42  1  0
 19 43  1  0
 20 44  1  0
 20 45  1  0
 21 22  1  0
 21 46  1  6
 22 23  2  0
M  END

