
     RDKit          3D

 74 78  0  0  0  0  0  0  0  0999 V2000
    6.7314   -2.0675   -1.4475 C   0  0  0  0  0  0  0  0  0  0  0  0
    7.6040   -0.8956   -0.9965 C   0  0  0  0  0  0  0  0  0  0  0  0
    9.0073   -1.3278   -0.5598 C   0  0  0  0  0  0  0  0  0  0  0  0
    9.9114   -0.2128   -0.1148 C   0  0  0  0  0  0  0  0  0  0  0  0
    9.6341    1.1287   -0.0250 C   0  0  0  0  0  0  0  0  0  0  0  0
   10.8338    1.7702    0.4776 C   0  0  0  0  0  0  0  0  0  0  0  0
   11.8171    0.8676    0.6538 N   0  0  0  0  0  0  0  0  0  0  0  0
   11.3002   -0.3614    0.3466 C   0  0  0  0  0  0  0  0  0  0  0  0
   11.9256   -1.6074    0.5802 C   0  0  0  0  0  0  0  0  0  0  0  0
   13.1421   -1.9493    1.1957 C   0  0  0  0  0  0  0  0  0  0  0  0
   14.2249   -1.1261    1.5530 C   0  0  0  0  0  0  0  0  0  0  0  0
   14.3619    0.1586    1.1013 N   0  0  0  0  0  0  0  0  0  0  0  0
   13.5170    0.6528    0.7268 H   0  0  0  0  0  0  0  0  0  0  0  0
   15.3159    0.8227    1.8199 C   0  0  0  0  0  0  0  0  0  0  0  0
   15.8860   -0.1130    2.7345 C   0  0  0  0  0  0  0  0  0  0  0  0
   15.2671   -1.3421    2.5378 C   0  0  0  0  0  0  0  0  0  0  0  0
   15.6135   -2.6379    3.2160 C   0  0  0  0  0  0  0  0  0  0  0  0
   16.8171   -3.3842    2.5988 C   0  0  0  0  0  0  0  0  0  0  0  0
   16.5897   -3.8915    1.1748 C   0  0  0  0  0  0  0  0  0  0  0  0
   15.4339    2.2223    1.5869 C   0  0  0  0  0  0  0  0  0  0  0  0
   15.3973    3.1409    2.5908 N   0  0  0  0  0  0  0  0  0  0  0  0
   14.9426    4.2676    1.9954 C   0  0  0  0  0  0  0  0  0  0  0  0
   14.2878    5.3027    2.7563 C   0  0  0  0  0  0  0  0  0  0  0  0
   12.9888    5.6912    2.5056 C   0  0  0  0  0  0  0  0  0  0  0  0
   12.0104    4.9479    1.7616 C   0  0  0  0  0  0  0  0  0  0  0  0
   12.1095    3.6061    1.4689 N   0  0  0  0  0  0  0  0  0  0  0  0
   12.8884    3.0101    1.7218 H   0  0  0  0  0  0  0  0  0  0  0  0
   10.9848    3.1398    0.8475 C   0  0  0  0  0  0  0  0  0  0  0  0
   10.1035    4.2466    0.7339 C   0  0  0  0  0  0  0  0  0  0  0  0
   10.7197    5.3659    1.2997 C   0  0  0  0  0  0  0  0  0  0  0  0
   10.1357    6.7500    1.4028 C   0  0  0  0  0  0  0  0  0  0  0  0
    8.9378    6.8703    2.3676 C   0  0  0  0  0  0  0  0  0  0  0  0
    9.2845    6.6165    3.8348 C   0  0  0  0  0  0  0  0  0  0  0  0
   14.8870    4.1428    0.5326 C   0  0  0  0  0  0  0  0  0  0  0  0
   14.6685    5.2532   -0.4566 C   0  0  0  0  0  0  0  0  0  0  0  0
   14.1345    4.8105   -1.8246 C   0  0  0  0  0  0  0  0  0  0  0  0
   13.9065    5.9808   -2.7821 C   0  0  0  0  0  0  0  0  0  0  0  0
   15.1708    2.8239    0.2927 C   0  0  0  0  0  0  0  0  0  0  0  0
    5.7295   -1.7289   -1.7551 H   0  0  0  0  0  0  0  0  0  0  0  0
    6.5990   -2.8050   -0.6381 H   0  0  0  0  0  0  0  0  0  0  0  0
    7.1810   -2.5969   -2.3043 H   0  0  0  0  0  0  0  0  0  0  0  0
    7.1106   -0.3664   -0.1625 H   0  0  0  0  0  0  0  0  0  0  0  0
    7.6890   -0.1604   -1.8158 H   0  0  0  0  0  0  0  0  0  0  0  0
    9.4903   -1.8759   -1.3907 H   0  0  0  0  0  0  0  0  0  0  0  0
    8.9161   -2.0694    0.2564 H   0  0  0  0  0  0  0  0  0  0  0  0
    8.6951    1.6280   -0.2556 H   0  0  0  0  0  0  0  0  0  0  0  0
   11.2910   -2.4668    0.3453 H   0  0  0  0  0  0  0  0  0  0  0  0
   13.2381   -2.9978    1.4904 H   0  0  0  0  0  0  0  0  0  0  0  0
   16.6966    0.1098    3.4263 H   0  0  0  0  0  0  0  0  0  0  0  0
   14.7365   -3.3069    3.2178 H   0  0  0  0  0  0  0  0  0  0  0  0
   15.8399   -2.4281    4.2745 H   0  0  0  0  0  0  0  0  0  0  0  0
   17.0643   -4.2355    3.2571 H   0  0  0  0  0  0  0  0  0  0  0  0
   17.6960   -2.7165    2.6191 H   0  0  0  0  0  0  0  0  0  0  0  0
   15.7420   -4.5963    1.1300 H   0  0  0  0  0  0  0  0  0  0  0  0
   17.4790   -4.4202    0.7963 H   0  0  0  0  0  0  0  0  0  0  0  0
   16.3719   -3.0664    0.4780 H   0  0  0  0  0  0  0  0  0  0  0  0
   14.7990    5.7222    3.6311 H   0  0  0  0  0  0  0  0  0  0  0  0
   12.6045    6.5797    3.0157 H   0  0  0  0  0  0  0  0  0  0  0  0
    9.1188    4.2149    0.2706 H   0  0  0  0  0  0  0  0  0  0  0  0
    9.8094    7.0727    0.3988 H   0  0  0  0  0  0  0  0  0  0  0  0
   10.9193    7.4640    1.7048 H   0  0  0  0  0  0  0  0  0  0  0  0
    8.1474    6.1687    2.0474 H   0  0  0  0  0  0  0  0  0  0  0  0
    8.5075    7.8813    2.2593 H   0  0  0  0  0  0  0  0  0  0  0  0
    9.6992    5.6065    3.9836 H   0  0  0  0  0  0  0  0  0  0  0  0
    8.3937    6.7085    4.4765 H   0  0  0  0  0  0  0  0  0  0  0  0
   10.0318    7.3407    4.2011 H   0  0  0  0  0  0  0  0  0  0  0  0
   15.6299    5.7834   -0.6058 H   0  0  0  0  0  0  0  0  0  0  0  0
   13.9939    6.0082   -0.0217 H   0  0  0  0  0  0  0  0  0  0  0  0
   13.1924    4.2534   -1.6824 H   0  0  0  0  0  0  0  0  0  0  0  0
   14.8421    4.0977   -2.2828 H   0  0  0  0  0  0  0  0  0  0  0  0
   13.1716    6.6952   -2.3742 H   0  0  0  0  0  0  0  0  0  0  0  0
   13.5286    5.6365   -3.7581 H   0  0  0  0  0  0  0  0  0  0  0  0
   14.8402    6.5390   -2.9650 H   0  0  0  0  0  0  0  0  0  0  0  0
   15.2313    2.3107   -0.6656 H   0  0  0  0  0  0  0  0  0  0  0  0
  1  2  1  0
  1 39  1  0
  1 40  1  0
  1 41  1  0
  2  3  1  0
  2 42  1  0
  2 43  1  0
  3  4  1  0
  3 44  1  0
  3 45  1  0
  4  5  2  0
  4  8  1  0
  5  6  1  0
  5 46  1  0
  6  7  2  0
  6 28  1  0
  7  8  1  0
  8  9  2  0
  9 10  1  0
  9 47  1  0
 10 11  2  0
 10 48  1  0
 11 12  1  0
 11 16  1  0
 12 13  1  0
 12 14  1  0
 14 15  1  0
 14 20  2  0
 15 16  2  0
 15 49  1  0
 16 17  1  0
 17 18  1  0
 17 50  1  0
 17 51  1  0
 18 19  1  0
 18 52  1  0
 18 53  1  0
 19 54  1  0
 19 55  1  0
 19 56  1  0
 20 21  1  0
 20 38  1  0
 21 22  2  0
 22 23  1  0
 22 34  1  0
 23 24  2  0
 23 57  1  0
 24 25  1  0
 24 58  1  0
 25 26  1  0
 25 30  2  0
 26 27  1  0
 26 28  1  0
 28 29  2  0
 29 30  1  0
 29 59  1  0
 30 31  1  0
 31 32  1  0
 31 60  1  0
 31 61  1  0
 32 33  1  0
 32 62  1  0
 32 63  1  0
 33 64  1  0
 33 65  1  0
 33 66  1  0
 34 35  1  0
 34 38  2  0
 35 36  1  0
 35 67  1  0
 35 68  1  0
 36 37  1  0
 36 69  1  0
 36 70  1  0
 37 71  1  0
 37 72  1  0
 37 73  1  0
 38 74  1  0
M  END

