
     RDKit          3D

 55 55  0  0  0  0  0  0  0  0999 V2000
    5.4093   -1.6615    2.3775 C   0  0  0  0  0  0  0  0  0  0  0  0
    5.3735   -0.4018    1.5177 C   0  0  0  0  0  0  0  0  0  0  0  0
    4.0120    0.1263    1.4447 N   0  0  0  0  0  0  0  0  0  0  0  0
    3.7909    1.4191    0.7642 C   0  0  1  0  0  0  0  0  0  0  0  0
    4.4001    2.6054    1.5482 C   0  0  0  0  0  0  0  0  0  0  0  0
    4.3774    1.4341   -0.6732 C   0  0  0  0  0  0  0  0  0  0  0  0
    4.0414    0.2818   -1.6583 C   0  0  1  0  0  0  0  0  0  0  0  0
    2.5879    0.2908   -2.1514 C   0  0  0  0  0  0  0  0  0  0  0  0
    4.9533    0.2606   -2.7989 N   0  0  0  0  0  0  0  0  0  0  0  0
    4.9734    1.3524   -3.7581 C   0  0  0  0  0  0  0  0  0  0  0  0
    6.1100    0.9428   -4.6922 C   0  0  0  0  0  0  0  0  0  0  0  0
    7.1654    0.3974   -3.7140 C   0  0  2  0  0  0  0  0  0  0  0  0
    8.1427   -0.5126   -4.3061 N   0  0  0  0  0  0  0  0  0  0  0  0
    8.7327   -0.0526   -5.5643 C   0  0  0  0  0  0  0  0  0  0  0  0
    9.6409    1.1870   -5.5034 C   0  0  0  0  0  0  0  0  0  0  0  0
    9.1125   -1.0028   -3.3283 C   0  0  0  0  0  0  0  0  0  0  0  0
    9.9451   -2.1893   -3.8121 C   0  0  0  0  0  0  0  0  0  0  0  0
    6.2986   -0.2689   -2.6107 C   0  0  0  0  0  0  0  0  0  0  0  0
    2.2623    1.6973    0.6852 C   0  0  0  0  0  0  0  0  0  0  0  0
    1.4571    0.6902    1.1253 N   0  0  0  0  0  0  0  0  0  0  0  0
    1.8378    2.7661    0.2827 O   0  0  0  0  0  0  0  0  0  0  0  0
    6.4253   -2.0844    2.4134 H   0  0  0  0  0  0  0  0  0  0  0  0
    4.7271   -2.4280    1.9774 H   0  0  0  0  0  0  0  0  0  0  0  0
    5.1042   -1.4465    3.4163 H   0  0  0  0  0  0  0  0  0  0  0  0
    5.7175   -0.6506    0.5021 H   0  0  0  0  0  0  0  0  0  0  0  0
    6.1020    0.3337    1.9194 H   0  0  0  0  0  0  0  0  0  0  0  0
    3.6658    0.2197    2.4013 H   0  0  0  0  0  0  0  0  0  0  0  0
    5.4971    2.5262    1.5945 H   0  0  0  0  0  0  0  0  0  0  0  0
    4.0109    2.6318    2.5799 H   0  0  0  0  0  0  0  0  0  0  0  0
    4.1355    3.5565    1.0672 H   0  0  0  0  0  0  0  0  0  0  0  0
    5.4746    1.4862   -0.5771 H   0  0  0  0  0  0  0  0  0  0  0  0
    4.0648    2.3914   -1.1188 H   0  0  0  0  0  0  0  0  0  0  0  0
    4.1970   -0.6755   -1.1321 H   0  0  0  0  0  0  0  0  0  0  0  0
    2.2987    1.2719   -2.5593 H   0  0  0  0  0  0  0  0  0  0  0  0
    1.8871    0.0557   -1.3402 H   0  0  0  0  0  0  0  0  0  0  0  0
    2.4674   -0.4654   -2.9420 H   0  0  0  0  0  0  0  0  0  0  0  0
    5.1890    2.3489   -3.3076 H   0  0  0  0  0  0  0  0  0  0  0  0
    4.0109    1.4445   -4.2877 H   0  0  0  0  0  0  0  0  0  0  0  0
    6.4731    1.7764   -5.3115 H   0  0  0  0  0  0  0  0  0  0  0  0
    5.7722    0.1297   -5.3549 H   0  0  0  0  0  0  0  0  0  0  0  0
    7.6689    1.2784   -3.2508 H   0  0  0  0  0  0  0  0  0  0  0  0
    7.9147    0.1353   -6.2762 H   0  0  0  0  0  0  0  0  0  0  0  0
    9.3011   -0.8911   -5.9970 H   0  0  0  0  0  0  0  0  0  0  0  0
    9.1078    2.0732   -5.1229 H   0  0  0  0  0  0  0  0  0  0  0  0
   10.0111    1.4329   -6.5121 H   0  0  0  0  0  0  0  0  0  0  0  0
   10.5216    1.0272   -4.8609 H   0  0  0  0  0  0  0  0  0  0  0  0
    8.5509   -1.3258   -2.4388 H   0  0  0  0  0  0  0  0  0  0  0  0
    9.7940   -0.1958   -2.9705 H   0  0  0  0  0  0  0  0  0  0  0  0
    9.2910   -2.9861   -4.2005 H   0  0  0  0  0  0  0  0  0  0  0  0
   10.5340   -2.6007   -2.9770 H   0  0  0  0  0  0  0  0  0  0  0  0
   10.6572   -1.9157   -4.6060 H   0  0  0  0  0  0  0  0  0  0  0  0
    6.7128   -0.0454   -1.6059 H   0  0  0  0  0  0  0  0  0  0  0  0
    6.3115   -1.3696   -2.7306 H   0  0  0  0  0  0  0  0  0  0  0  0
    1.8646   -0.2307    1.2487 H   0  0  0  0  0  0  0  0  0  0  0  0
    0.4571    0.7974    1.0014 H   0  0  0  0  0  0  0  0  0  0  0  0
  1  2  1  0
  1 22  1  0
  1 23  1  0
  1 24  1  0
  2  3  1  0
  2 25  1  0
  2 26  1  0
  3  4  1  0
  3 27  1  0
  4  5  1  0
  4  6  1  0
  4 19  1  6
  5 28  1  0
  5 29  1  0
  5 30  1  0
  6  7  1  0
  6 31  1  0
  6 32  1  0
  7  8  1  0
  7  9  1  0
  7 33  1  1
  8 34  1  0
  8 35  1  0
  8 36  1  0
  9 10  1  0
  9 18  1  0
 10 11  1  0
 10 37  1  0
 10 38  1  0
 11 12  1  0
 11 39  1  0
 11 40  1  0
 12 13  1  0
 12 18  1  0
 12 41  1  1
 13 14  1  0
 13 16  1  0
 14 15  1  0
 14 42  1  0
 14 43  1  0
 15 44  1  0
 15 45  1  0
 15 46  1  0
 16 17  1  0
 16 47  1  0
 16 48  1  0
 17 49  1  0
 17 50  1  0
 17 51  1  0
 18 52  1  0
 18 53  1  0
 19 20  1  0
 19 21  2  0
 20 54  1  0
 20 55  1  0
M  END

