
     RDKit          3D

 50 51  0  0  0  0  0  0  0  0999 V2000
    1.4537   -0.2867    0.9802 C   0  0  0  0  0  0  0  0  0  0  0  0
    1.8561   -0.1773   -0.5050 C   0  0  1  0  0  0  0  0  0  0  0  0
    0.7472   -0.7360   -1.4101 C   0  0  0  0  0  0  0  0  0  0  0  0
    2.2858    1.1485   -0.9524 N   0  0  0  0  0  0  0  0  0  0  0  0
    1.3824    2.2851   -0.8411 C   0  0  0  0  0  0  0  0  0  0  0  0
    1.6436    3.1774    0.3852 C   0  0  0  0  0  0  0  0  0  0  0  0
    3.1203    3.6190    0.4661 C   0  0  2  0  0  0  0  0  0  0  0  0
    3.4766    4.5993   -0.5588 N   0  0  0  0  0  0  0  0  0  0  0  0
    3.2054    5.9388   -0.3875 C   0  0  0  0  0  0  0  0  0  0  0  0
    2.7529    6.3964    0.6548 O   0  0  0  0  0  0  0  0  0  0  0  0
    3.4851    6.7219   -1.4942 N   0  0  0  0  0  0  0  0  0  0  0  0
    3.4430    8.1638   -1.4101 C   0  0  0  0  0  0  0  0  0  0  0  0
    4.8473    8.8117   -1.4354 C   0  0  1  0  0  0  0  0  0  0  0  0
    5.5058    8.3774   -2.6323 O   0  0  0  0  0  0  0  0  0  0  0  0
    4.7447   10.3472   -1.3961 C   0  0  0  0  0  0  0  0  0  0  0  0
    4.3937   10.8726    0.0020 C   0  0  0  0  0  0  0  0  0  0  0  0
    5.2943   10.4016    0.9775 O   0  0  0  0  0  0  0  0  0  0  0  0
    5.3213    8.9864    1.0567 C   0  0  0  0  0  0  0  0  0  0  0  0
    5.7415    8.3569   -0.2728 C   0  0  0  0  0  0  0  0  0  0  0  0
    4.0358    2.3865    0.3677 C   0  0  0  0  0  0  0  0  0  0  0  0
    3.6861    1.5151   -0.8551 C   0  0  0  0  0  0  0  0  0  0  0  0
    1.2190   -1.3311    1.2446 H   0  0  0  0  0  0  0  0  0  0  0  0
    0.5566    0.3156    1.1993 H   0  0  0  0  0  0  0  0  0  0  0  0
    2.2621    0.0532    1.6457 H   0  0  0  0  0  0  0  0  0  0  0  0
    2.7379   -0.8256   -0.6490 H   0  0  0  0  0  0  0  0  0  0  0  0
   -0.1898   -0.1638   -1.3083 H   0  0  0  0  0  0  0  0  0  0  0  0
    0.5183   -1.7818   -1.1490 H   0  0  0  0  0  0  0  0  0  0  0  0
    1.0559   -0.6962   -2.4655 H   0  0  0  0  0  0  0  0  0  0  0  0
    0.3417    1.9286   -0.8362 H   0  0  0  0  0  0  0  0  0  0  0  0
    1.4774    2.9094   -1.7542 H   0  0  0  0  0  0  0  0  0  0  0  0
    1.3950    2.6260    1.3073 H   0  0  0  0  0  0  0  0  0  0  0  0
    1.0006    4.0720    0.3618 H   0  0  0  0  0  0  0  0  0  0  0  0
    3.2789    4.1306    1.4258 H   0  0  0  0  0  0  0  0  0  0  0  0
    3.6398    4.2644   -1.5009 H   0  0  0  0  0  0  0  0  0  0  0  0
    4.1237    6.3571   -2.1941 H   0  0  0  0  0  0  0  0  0  0  0  0
    2.8896    8.4173   -0.4964 H   0  0  0  0  0  0  0  0  0  0  0  0
    2.8701    8.5732   -2.2645 H   0  0  0  0  0  0  0  0  0  0  0  0
    5.0729    8.8092   -3.3826 H   0  0  0  0  0  0  0  0  0  0  0  0
    3.9978   10.7051   -2.1290 H   0  0  0  0  0  0  0  0  0  0  0  0
    5.7246   10.7529   -1.6971 H   0  0  0  0  0  0  0  0  0  0  0  0
    3.3528   10.5925    0.2689 H   0  0  0  0  0  0  0  0  0  0  0  0
    4.4493   11.9720    0.0216 H   0  0  0  0  0  0  0  0  0  0  0  0
    4.3356    8.5923    1.3739 H   0  0  0  0  0  0  0  0  0  0  0  0
    6.0465    8.7330    1.8445 H   0  0  0  0  0  0  0  0  0  0  0  0
    5.7398    7.2583   -0.1948 H   0  0  0  0  0  0  0  0  0  0  0  0
    6.7713    8.6637   -0.5163 H   0  0  0  0  0  0  0  0  0  0  0  0
    3.9146    1.7905    1.2871 H   0  0  0  0  0  0  0  0  0  0  0  0
    5.0906    2.7061    0.3223 H   0  0  0  0  0  0  0  0  0  0  0  0
    4.2993    0.6002   -0.8545 H   0  0  0  0  0  0  0  0  0  0  0  0
    3.9800    2.0649   -1.7768 H   0  0  0  0  0  0  0  0  0  0  0  0
  1  2  1  0
  1 22  1  0
  1 23  1  0
  1 24  1  0
  2  3  1  0
  2  4  1  0
  2 25  1  1
  3 26  1  0
  3 27  1  0
  3 28  1  0
  4  5  1  0
  4 21  1  0
  5  6  1  0
  5 29  1  0
  5 30  1  0
  6  7  1  0
  6 31  1  0
  6 32  1  0
  7  8  1  0
  7 20  1  0
  7 33  1  1
  8  9  1  0
  8 34  1  0
  9 10  2  0
  9 11  1  0
 11 12  1  0
 11 35  1  0
 12 13  1  0
 12 36  1  0
 12 37  1  0
 13 14  1  6
 13 15  1  0
 13 19  1  0
 14 38  1  0
 15 16  1  0
 15 39  1  0
 15 40  1  0
 16 17  1  0
 16 41  1  0
 16 42  1  0
 17 18  1  0
 18 19  1  0
 18 43  1  0
 18 44  1  0
 19 45  1  0
 19 46  1  0
 20 21  1  0
 20 47  1  0
 20 48  1  0
 21 49  1  0
 21 50  1  0
M  END

