
     RDKit          3D

 37 38  0  0  0  0  0  0  0  0999 V2000
    1.0479    1.4517    2.0442 C   0  0  0  0  0  0  0  0  0  0  0  0
    2.4545    0.9261    2.2683 C   0  0  0  0  0  0  0  0  0  0  0  0
    3.1649    1.0349    1.0481 O   0  0  0  0  0  0  0  0  0  0  0  0
    4.5735    0.8478    1.0659 C   0  0  1  0  0  0  0  0  0  0  0  0
    4.9713   -0.5206    1.6404 C   0  0  0  0  0  0  0  0  0  0  0  0
    5.0189    0.9281   -0.4164 C   0  0  0  0  0  0  0  0  0  0  0  0
    4.5584    2.1637   -1.1886 C   0  0  0  0  0  0  0  0  0  0  0  0
    5.2317    1.9641    1.8705 C   0  0  0  0  0  0  0  0  0  0  0  0
    6.3081    1.7777    2.5922 N   0  0  0  0  0  0  0  0  0  0  0  0
    6.5911    3.0342    3.1143 O   0  0  0  0  0  0  0  0  0  0  0  0
    5.6472    3.8696    2.6644 C   0  0  0  0  0  0  0  0  0  0  0  0
    5.6652    5.2793    3.0456 C   0  0  0  0  0  0  0  0  0  0  0  0
    6.6529    5.6710    3.8634 N   0  0  0  0  0  0  0  0  0  0  0  0
    6.7279    6.9349    4.2435 C   0  0  0  0  0  0  0  0  0  0  0  0
    5.7965    7.9004    3.8154 C   0  0  0  0  0  0  0  0  0  0  0  0
    4.7684    7.5194    2.9714 C   0  0  0  0  0  0  0  0  0  0  0  0
    4.6607    6.1712    2.5471 C   0  0  0  0  0  0  0  0  0  0  0  0
    3.6652    5.7648    1.7212 N   0  0  0  0  0  0  0  0  0  0  0  0
    4.7794    3.2595    1.8885 N   0  0  0  0  0  0  0  0  0  0  0  0
    0.4463    1.3499    2.9612 H   0  0  0  0  0  0  0  0  0  0  0  0
    0.5505    0.8911    1.2374 H   0  0  0  0  0  0  0  0  0  0  0  0
    1.0729    2.5144    1.7578 H   0  0  0  0  0  0  0  0  0  0  0  0
    2.4167   -0.1269    2.6074 H   0  0  0  0  0  0  0  0  0  0  0  0
    2.9536    1.5073    3.0675 H   0  0  0  0  0  0  0  0  0  0  0  0
    4.4379   -1.3119    1.0926 H   0  0  0  0  0  0  0  0  0  0  0  0
    4.7334   -0.6036    2.7100 H   0  0  0  0  0  0  0  0  0  0  0  0
    6.0533   -0.6807    1.5363 H   0  0  0  0  0  0  0  0  0  0  0  0
    4.6216    0.0238   -0.9076 H   0  0  0  0  0  0  0  0  0  0  0  0
    6.1180    0.8448   -0.4400 H   0  0  0  0  0  0  0  0  0  0  0  0
    3.4624    2.2467   -1.1669 H   0  0  0  0  0  0  0  0  0  0  0  0
    4.8782    2.0936   -2.2405 H   0  0  0  0  0  0  0  0  0  0  0  0
    4.9747    3.0927   -0.7713 H   0  0  0  0  0  0  0  0  0  0  0  0
    7.5516    7.2089    4.9118 H   0  0  0  0  0  0  0  0  0  0  0  0
    5.8860    8.9378    4.1469 H   0  0  0  0  0  0  0  0  0  0  0  0
    4.0305    8.2476    2.6230 H   0  0  0  0  0  0  0  0  0  0  0  0
    2.9863    6.4307    1.3813 H   0  0  0  0  0  0  0  0  0  0  0  0
    3.6254    4.7853    1.4408 H   0  0  0  0  0  0  0  0  0  0  0  0
  1  2  1  0
  1 20  1  0
  1 21  1  0
  1 22  1  0
  2  3  1  0
  2 23  1  0
  2 24  1  0
  4  3  1  6
  4  5  1  0
  4  6  1  0
  4  8  1  0
  5 25  1  0
  5 26  1  0
  5 27  1  0
  6  7  1  0
  6 28  1  0
  6 29  1  0
  7 30  1  0
  7 31  1  0
  7 32  1  0
  8  9  2  0
  8 19  1  0
  9 10  1  0
 10 11  1  0
 11 12  1  0
 11 19  2  0
 12 13  2  0
 12 17  1  0
 13 14  1  0
 14 15  2  0
 14 33  1  0
 15 16  1  0
 15 34  1  0
 16 17  2  0
 16 35  1  0
 17 18  1  0
 18 36  1  0
 18 37  1  0
M  END

