
     RDKit          3D

 76 82  0  0  0  0  0  0  0  0999 V2000
    3.6349   -2.9144    5.7228 C   0  0  0  0  0  0  0  0  0  0  0  0
    4.6987   -2.8061    4.6733 C   0  0  0  0  0  0  0  0  0  0  0  0
    6.0628   -2.7889    4.8410 C   0  0  0  0  0  0  0  0  0  0  0  0
    6.8168   -2.6647    3.6351 C   0  0  0  0  0  0  0  0  0  0  0  0
    8.3227   -2.6434    3.6658 C   0  0  0  0  0  0  0  0  0  0  0  0
    5.9884   -2.5919    2.5132 C   0  0  0  0  0  0  0  0  0  0  0  0
    6.3109   -2.4119    1.1047 C   0  0  0  0  0  0  0  0  0  0  0  0
    5.5492   -2.7217    0.0140 C   0  0  0  0  0  0  0  0  0  0  0  0
    4.2630   -3.4463   -0.0449 C   0  0  0  0  0  0  0  0  0  0  0  0
    4.1839   -4.8143    0.1428 C   0  0  0  0  0  0  0  0  0  0  0  0
    5.2874   -5.7763    0.4642 C   0  0  0  0  0  0  0  0  0  0  0  0
    2.5477   -5.3516   -0.0100 S   0  0  0  0  0  0  0  0  0  0  0  0
    1.9531   -3.7349   -0.3314 C   0  0  0  0  0  0  0  0  0  0  0  0
    0.5132   -3.5314   -0.5568 C   0  0  0  0  0  0  0  0  0  0  0  0
   -0.4502   -4.2549    0.1804 C   0  0  0  0  0  0  0  0  0  0  0  0
   -1.8115   -4.0767   -0.0332 C   0  0  0  0  0  0  0  0  0  0  0  0
   -2.2774   -3.1599   -0.9955 C   0  0  0  0  0  0  0  0  0  0  0  0
   -3.7200   -2.9943   -1.1842 C   0  0  0  0  0  0  0  0  0  0  0  0
   -4.6591   -3.6927   -0.5718 N   0  0  0  0  0  0  0  0  0  0  0  0
   -5.8693   -3.2323   -1.0228 C   0  0  0  0  0  0  0  0  0  0  0  0
   -7.1209   -3.8602   -0.5534 C   0  0  0  0  0  0  0  0  0  0  0  0
   -7.1501   -4.4602    0.7201 C   0  0  0  0  0  0  0  0  0  0  0  0
   -8.3076   -5.0808    1.1914 C   0  0  0  0  0  0  0  0  0  0  0  0
   -9.4591   -5.1232    0.3985 C   0  0  0  0  0  0  0  0  0  0  0  0
   -9.4374   -4.5465   -0.8752 C   0  0  0  0  0  0  0  0  0  0  0  0
   -8.2801   -3.9249   -1.3491 C   0  0  0  0  0  0  0  0  0  0  0  0
   -5.6640   -2.1930   -1.9406 C   0  0  0  0  0  0  0  0  0  0  0  0
   -6.5410   -1.2815   -2.6909 C   0  0  0  0  0  0  0  0  0  0  0  0
   -7.6895   -0.7187   -2.0991 C   0  0  0  0  0  0  0  0  0  0  0  0
   -8.4926    0.1730   -2.8103 C   0  0  0  0  0  0  0  0  0  0  0  0
   -8.1643    0.5326   -4.1223 C   0  0  0  0  0  0  0  0  0  0  0  0
   -7.0245   -0.0122   -4.7199 C   0  0  0  0  0  0  0  0  0  0  0  0
   -6.2233   -0.9123   -4.0140 C   0  0  0  0  0  0  0  0  0  0  0  0
   -4.2896   -2.0830   -2.0338 N   0  0  0  0  0  0  0  0  0  0  0  0
   -3.8091   -1.3616   -2.5564 H   0  0  0  0  0  0  0  0  0  0  0  0
   -1.3237   -2.4448   -1.7421 C   0  0  0  0  0  0  0  0  0  0  0  0
    0.0412   -2.6281   -1.5304 C   0  0  0  0  0  0  0  0  0  0  0  0
    2.9922   -2.8194   -0.3250 C   0  0  0  0  0  0  0  0  0  0  0  0
    2.8415   -1.3321   -0.5075 C   0  0  0  0  0  0  0  0  0  0  0  0
    6.2330   -2.3225   -1.2695 C   0  0  2  0  0  0  0  0  0  0  0  0
    5.3967   -1.7669   -2.1782 F   0  0  0  0  0  0  0  0  0  0  0  0
    6.8126   -3.3952   -1.8793 F   0  0  0  0  0  0  0  0  0  0  0  0
    7.3220   -1.3275   -0.8173 C   0  0  1  0  0  0  0  0  0  0  0  0
    8.4200   -1.3487   -1.5859 F   0  0  0  0  0  0  0  0  0  0  0  0
    6.8168   -0.0762   -0.8191 F   0  0  0  0  0  0  0  0  0  0  0  0
    7.6071   -1.7620    0.6444 C   0  0  2  0  0  0  0  0  0  0  0  0
    8.6467   -2.6429    0.6372 F   0  0  0  0  0  0  0  0  0  0  0  0
    7.9804   -0.7027    1.3947 F   0  0  0  0  0  0  0  0  0  0  0  0
    4.2954   -2.6916    2.9937 S   0  0  0  0  0  0  0  0  0  0  0  0
    4.0949   -3.0119    6.7169 H   0  0  0  0  0  0  0  0  0  0  0  0
    2.9866   -3.7911    5.5596 H   0  0  0  0  0  0  0  0  0  0  0  0
    2.9829   -2.0250    5.7360 H   0  0  0  0  0  0  0  0  0  0  0  0
    6.5353   -2.8678    5.8224 H   0  0  0  0  0  0  0  0  0  0  0  0
    8.6846   -3.0136    4.6357 H   0  0  0  0  0  0  0  0  0  0  0  0
    8.7127   -1.6233    3.5276 H   0  0  0  0  0  0  0  0  0  0  0  0
    8.7640   -3.2631    2.8749 H   0  0  0  0  0  0  0  0  0  0  0  0
    6.2332   -5.4357    0.0185 H   0  0  0  0  0  0  0  0  0  0  0  0
    5.0717   -6.7838    0.0780 H   0  0  0  0  0  0  0  0  0  0  0  0
    5.4401   -5.8623    1.5543 H   0  0  0  0  0  0  0  0  0  0  0  0
   -0.1178   -4.9594    0.9468 H   0  0  0  0  0  0  0  0  0  0  0  0
   -2.5465   -4.6384    0.5454 H   0  0  0  0  0  0  0  0  0  0  0  0
   -6.2454   -4.4336    1.3299 H   0  0  0  0  0  0  0  0  0  0  0  0
   -8.3108   -5.5365    2.1853 H   0  0  0  0  0  0  0  0  0  0  0  0
  -10.3655   -5.6102    0.7674 H   0  0  0  0  0  0  0  0  0  0  0  0
  -10.3255   -4.5898   -1.5114 H   0  0  0  0  0  0  0  0  0  0  0  0
   -8.2718   -3.5024   -2.3553 H   0  0  0  0  0  0  0  0  0  0  0  0
   -7.9425   -0.9781   -1.0696 H   0  0  0  0  0  0  0  0  0  0  0  0
   -9.3776    0.5999   -2.3315 H   0  0  0  0  0  0  0  0  0  0  0  0
   -8.7941    1.2340   -4.6751 H   0  0  0  0  0  0  0  0  0  0  0  0
   -6.7618    0.2556   -5.7466 H   0  0  0  0  0  0  0  0  0  0  0  0
   -5.3525   -1.3557   -4.5048 H   0  0  0  0  0  0  0  0  0  0  0  0
   -1.6361   -1.7448   -2.5219 H   0  0  0  0  0  0  0  0  0  0  0  0
    0.7526   -2.0837   -2.1524 H   0  0  0  0  0  0  0  0  0  0  0  0
    1.8514   -0.9849   -0.1796 H   0  0  0  0  0  0  0  0  0  0  0  0
    2.9750   -1.0324   -1.5596 H   0  0  0  0  0  0  0  0  0  0  0  0
    3.6032   -0.7894    0.0726 H   0  0  0  0  0  0  0  0  0  0  0  0
  1  2  1  0
  1 50  1  0
  1 51  1  0
  1 52  1  0
  2  3  2  0
  2 49  1  0
  3  4  1  0
  3 53  1  0
  4  5  1  0
  4  6  2  0
  5 54  1  0
  5 55  1  0
  5 56  1  0
  6  7  1  0
  6 49  1  0
  7  8  2  0
  7 46  1  0
  8  9  1  0
  8 40  1  0
  9 10  2  0
  9 38  1  0
 10 11  1  0
 10 12  1  0
 11 57  1  0
 11 58  1  0
 11 59  1  0
 12 13  1  0
 13 14  1  0
 13 38  2  0
 14 15  2  0
 14 37  1  0
 15 16  1  0
 15 60  1  0
 16 17  2  0
 16 61  1  0
 17 18  1  0
 17 36  1  0
 18 19  2  0
 18 34  1  0
 19 20  1  0
 20 21  1  0
 20 27  2  0
 21 22  2  0
 21 26  1  0
 22 23  1  0
 22 62  1  0
 23 24  2  0
 23 63  1  0
 24 25  1  0
 24 64  1  0
 25 26  2  0
 25 65  1  0
 26 66  1  0
 27 28  1  0
 27 34  1  0
 28 29  2  0
 28 33  1  0
 29 30  1  0
 29 67  1  0
 30 31  2  0
 30 68  1  0
 31 32  1  0
 31 69  1  0
 32 33  2  0
 32 70  1  0
 33 71  1  0
 34 35  1  0
 36 37  2  0
 36 72  1  0
 37 73  1  0
 38 39  1  0
 39 74  1  0
 39 75  1  0
 39 76  1  0
 40 41  1  6
 40 42  1  0
 40 43  1  0
 43 44  1  6
 43 45  1  0
 43 46  1  0
 46 47  1  6
 46 48  1  0
M  END

