
     RDKit          3D

 63 66  0  0  0  0  0  0  0  0999 V2000
    0.6417    4.1876   -0.8364 C   0  0  0  0  0  0  0  0  0  0  0  0
    2.0558    4.2166   -1.0120 O   0  0  0  0  0  0  0  0  0  0  0  0
    2.7657    3.3427   -0.2653 C   0  0  0  0  0  0  0  0  0  0  0  0
    2.2548    2.5707    0.5153 O   0  0  0  0  0  0  0  0  0  0  0  0
    4.2143    3.4708   -0.5395 C   0  0  0  0  0  0  0  0  0  0  0  0
    5.1004    2.6826    0.1020 C   0  0  0  0  0  0  0  0  0  0  0  0
    6.5560    2.6697   -0.0412 C   0  0  0  0  0  0  0  0  0  0  0  0
    7.2576    3.5308   -0.9102 C   0  0  0  0  0  0  0  0  0  0  0  0
    8.6428    3.4759   -1.0093 C   0  0  0  0  0  0  0  0  0  0  0  0
    9.3975    2.5597   -0.2427 C   0  0  0  0  0  0  0  0  0  0  0  0
   10.8625    2.5492   -0.3249 C   0  0  0  0  0  0  0  0  0  0  0  0
   11.5707    3.7308   -0.4175 N   0  0  0  0  0  0  0  0  0  0  0  0
   11.1625    4.6555   -0.3532 H   0  0  0  0  0  0  0  0  0  0  0  0
   12.9137    3.4458   -0.3826 C   0  0  0  0  0  0  0  0  0  0  0  0
   13.9374    4.5009   -0.4799 C   0  0  0  0  0  0  0  0  0  0  0  0
   13.6140    5.6702   -1.2037 C   0  0  0  0  0  0  0  0  0  0  0  0
   14.5351    6.7011   -1.3318 C   0  0  0  0  0  0  0  0  0  0  0  0
   15.8013    6.5867   -0.7523 C   0  0  0  0  0  0  0  0  0  0  0  0
   16.1353    5.4267   -0.0403 C   0  0  0  0  0  0  0  0  0  0  0  0
   17.3508    5.2417    0.5411 O   0  0  0  0  0  0  0  0  0  0  0  0
   18.3294    6.2517    0.4589 C   0  0  0  0  0  0  0  0  0  0  0  0
   15.2081    4.3657    0.1233 C   0  0  0  0  0  0  0  0  0  0  0  0
   15.6175    3.1588    0.9282 C   0  0  0  0  0  0  0  0  0  0  0  0
   13.0945    2.1411   -0.3005 N   0  0  0  0  0  0  0  0  0  0  0  0
   11.8517    1.5561   -0.2784 C   0  0  0  0  0  0  0  0  0  0  0  0
   11.7365    0.0882   -0.2661 C   0  0  0  0  0  0  0  0  0  0  0  0
   12.8023   -0.6790    0.2530 C   0  0  0  0  0  0  0  0  0  0  0  0
   12.7481   -2.0660    0.2680 C   0  0  0  0  0  0  0  0  0  0  0  0
   11.6304   -2.7590   -0.2455 C   0  0  0  0  0  0  0  0  0  0  0  0
   11.5167   -4.2150   -0.2554 C   0  0  0  0  0  0  0  0  0  0  0  0
   12.3974   -5.1273    0.2064 C   0  0  0  0  0  0  0  0  0  0  0  0
   12.0890   -6.5786    0.1017 C   0  0  0  0  0  0  0  0  0  0  0  0
   11.0796   -7.0329   -0.3746 O   0  0  0  0  0  0  0  0  0  0  0  0
   13.0425   -7.4124    0.5911 O   0  0  0  0  0  0  0  0  0  0  0  0
   10.5787   -1.9898   -0.7830 C   0  0  0  0  0  0  0  0  0  0  0  0
   10.6292   -0.5985   -0.7983 C   0  0  0  0  0  0  0  0  0  0  0  0
    8.6997    1.7027    0.6307 C   0  0  0  0  0  0  0  0  0  0  0  0
    7.3124    1.7569    0.7228 C   0  0  0  0  0  0  0  0  0  0  0  0
    0.2322    4.9508   -1.5100 H   0  0  0  0  0  0  0  0  0  0  0  0
    0.3700    4.4140    0.2063 H   0  0  0  0  0  0  0  0  0  0  0  0
    0.2340    3.1969   -1.0903 H   0  0  0  0  0  0  0  0  0  0  0  0
    4.5061    4.2235   -1.2749 H   0  0  0  0  0  0  0  0  0  0  0  0
    4.6795    1.9655    0.8158 H   0  0  0  0  0  0  0  0  0  0  0  0
    6.7104    4.2477   -1.5258 H   0  0  0  0  0  0  0  0  0  0  0  0
    9.1525    4.1380   -1.7142 H   0  0  0  0  0  0  0  0  0  0  0  0
   12.6462    5.7505   -1.7037 H   0  0  0  0  0  0  0  0  0  0  0  0
   14.2795    7.5982   -1.9009 H   0  0  0  0  0  0  0  0  0  0  0  0
   16.5207    7.3968   -0.8673 H   0  0  0  0  0  0  0  0  0  0  0  0
   19.2073    5.8803    1.0046 H   0  0  0  0  0  0  0  0  0  0  0  0
   17.9908    7.1941    0.9264 H   0  0  0  0  0  0  0  0  0  0  0  0
   18.6213    6.4590   -0.5865 H   0  0  0  0  0  0  0  0  0  0  0  0
   16.4403    3.4115    1.6080 H   0  0  0  0  0  0  0  0  0  0  0  0
   15.9579    2.3430    0.2694 H   0  0  0  0  0  0  0  0  0  0  0  0
   14.7743    2.7545    1.5026 H   0  0  0  0  0  0  0  0  0  0  0  0
   13.6776   -0.1565    0.6412 H   0  0  0  0  0  0  0  0  0  0  0  0
   13.5907   -2.6228    0.6844 H   0  0  0  0  0  0  0  0  0  0  0  0
   10.5992   -4.6259   -0.6924 H   0  0  0  0  0  0  0  0  0  0  0  0
   13.3457   -4.8238    0.6625 H   0  0  0  0  0  0  0  0  0  0  0  0
   13.7898   -6.9046    0.9358 H   0  0  0  0  0  0  0  0  0  0  0  0
    9.7100   -2.5010   -1.2068 H   0  0  0  0  0  0  0  0  0  0  0  0
    9.8069   -0.0413   -1.2489 H   0  0  0  0  0  0  0  0  0  0  0  0
    9.2562    0.9999    1.2530 H   0  0  0  0  0  0  0  0  0  0  0  0
    6.7942    1.0851    1.4123 H   0  0  0  0  0  0  0  0  0  0  0  0
  1  2  1  0
  1 39  1  0
  1 40  1  0
  1 41  1  0
  2  3  1  0
  3  4  2  0
  3  5  1  0
  5  6  2  0
  5 42  1  0
  6  7  1  0
  6 43  1  0
  7  8  2  0
  7 38  1  0
  8  9  1  0
  8 44  1  0
  9 10  2  0
  9 45  1  0
 10 11  1  0
 10 37  1  0
 11 12  1  0
 11 25  2  0
 12 13  1  0
 12 14  1  0
 14 15  1  0
 14 24  2  0
 15 16  2  0
 15 22  1  0
 16 17  1  0
 16 46  1  0
 17 18  2  0
 17 47  1  0
 18 19  1  0
 18 48  1  0
 19 20  1  0
 19 22  2  0
 20 21  1  0
 21 49  1  0
 21 50  1  0
 21 51  1  0
 22 23  1  0
 23 52  1  0
 23 53  1  0
 23 54  1  0
 24 25  1  0
 25 26  1  0
 26 27  2  0
 26 36  1  0
 27 28  1  0
 27 55  1  0
 28 29  2  0
 28 56  1  0
 29 30  1  0
 29 35  1  0
 30 31  2  0
 30 57  1  0
 31 32  1  0
 31 58  1  0
 32 33  2  0
 32 34  1  0
 34 59  1  0
 35 36  2  0
 35 60  1  0
 36 61  1  0
 37 38  2  0
 37 62  1  0
 38 63  1  0
M  END

