
     RDKit          3D

 24 26  0  0  0  0  0  0  0  0999 V2000
    2.8554    0.9660   -0.0702 C   0  0  0  0  0  0  0  0  0  0  0  0
    2.8494   -0.4268    0.0577 C   0  0  0  0  0  0  0  0  0  0  0  0
    1.6340   -1.1286   -0.0153 C   0  0  0  0  0  0  0  0  0  0  0  0
    0.4493   -0.4298   -0.2116 C   0  0  0  0  0  0  0  0  0  0  0  0
    0.4633    0.9745   -0.3306 C   0  0  0  0  0  0  0  0  0  0  0  0
    1.6681    1.6847   -0.2639 C   0  0  0  0  0  0  0  0  0  0  0  0
   -0.8204    1.4669   -0.4926 N   0  0  0  0  0  0  0  0  0  0  0  0
   -1.7957    0.3850   -0.6291 C   0  0  2  0  0  0  0  0  0  0  0  0
   -2.8755    0.3884    0.4711 C   0  0  0  0  0  0  0  0  0  0  0  0
   -2.2353   -0.3413    1.5520 N   0  0  0  0  0  0  0  0  0  0  0  0
   -1.6151   -1.5062    0.9397 C   0  0  0  0  0  0  0  0  0  0  0  0
   -0.9735   -0.9307   -0.3496 C   0  0  2  0  0  0  0  0  0  0  0  0
    3.8030    1.5094   -0.0175 H   0  0  0  0  0  0  0  0  0  0  0  0
    3.7864   -0.9678    0.2082 H   0  0  0  0  0  0  0  0  0  0  0  0
    1.6245   -2.2194    0.0718 H   0  0  0  0  0  0  0  0  0  0  0  0
    1.6834    2.7738   -0.3551 H   0  0  0  0  0  0  0  0  0  0  0  0
   -0.9689    2.3354   -0.9907 H   0  0  0  0  0  0  0  0  0  0  0  0
   -2.2575    0.3934   -1.6316 H   0  0  0  0  0  0  0  0  0  0  0  0
   -3.7928   -0.1088    0.0763 H   0  0  0  0  0  0  0  0  0  0  0  0
   -3.1477    1.4117    0.7752 H   0  0  0  0  0  0  0  0  0  0  0  0
   -2.8613   -0.5684    2.3212 H   0  0  0  0  0  0  0  0  0  0  0  0
   -2.3457   -2.2996    0.6596 H   0  0  0  0  0  0  0  0  0  0  0  0
   -0.8677   -1.9618    1.6086 H   0  0  0  0  0  0  0  0  0  0  0  0
   -1.0599   -1.6588   -1.1715 H   0  0  0  0  0  0  0  0  0  0  0  0
  1  2  2  0
  1  6  1  0
  1 13  1  0
  2  3  1  0
  2 14  1  0
  3  4  2  0
  3 15  1  0
  4  5  1  0
  4 12  1  0
  5  6  2  0
  5  7  1  0
  6 16  1  0
  7  8  1  0
  7 17  1  0
  8  9  1  0
  8 12  1  0
  8 18  1  6
  9 10  1  0
  9 19  1  0
  9 20  1  0
 10 11  1  0
 10 21  1  0
 11 12  1  0
 11 22  1  0
 11 23  1  0
 12 24  1  6
M  END

