
     RDKit          3D

 71 79  0  0  0  0  0  0  0  0999 V2000
    0.8981    0.6518    4.2663 C   0  0  0  0  0  0  0  0  0  0  0  0
    0.5237    1.9537    3.8268 C   0  0  0  0  0  0  0  0  0  0  0  0
    0.2360    2.1963    2.5059 C   0  0  0  0  0  0  0  0  0  0  0  0
    0.2923    1.1604    1.5112 C   0  0  0  0  0  0  0  0  0  0  0  0
    0.0015    1.3835    0.1313 C   0  0  0  0  0  0  0  0  0  0  0  0
   -0.2156    3.2082   -0.4325 Si  0  0  1  0  0  4  0  0  0  0  0  0
    0.8368    3.9237    0.3335 H   0  0  0  0  0  0  0  0  0  0  0  0
    0.2649    3.5571   -2.2605 C   0  0  0  0  0  0  0  0  0  0  0  0
   -0.6682    3.9279   -3.2718 C   0  0  0  0  0  0  0  0  0  0  0  0
   -2.0915    3.8727   -3.0898 C   0  0  0  0  0  0  0  0  0  0  0  0
   -2.9685    4.2288   -4.0851 C   0  0  0  0  0  0  0  0  0  0  0  0
   -2.4942    4.6803   -5.3496 C   0  0  0  0  0  0  0  0  0  0  0  0
   -1.1449    4.7392   -5.5831 C   0  0  0  0  0  0  0  0  0  0  0  0
   -0.2003    4.3576   -4.5761 C   0  0  0  0  0  0  0  0  0  0  0  0
    1.1729    4.3822   -4.8398 C   0  0  0  0  0  0  0  0  0  0  0  0
    2.1113    3.9689   -3.8885 C   0  0  0  0  0  0  0  0  0  0  0  0
    3.5103    3.9617   -4.1963 C   0  0  0  0  0  0  0  0  0  0  0  0
    4.4358    3.5328   -3.2810 C   0  0  0  0  0  0  0  0  0  0  0  0
    4.0016    3.0817   -2.0020 C   0  0  0  0  0  0  0  0  0  0  0  0
    2.6695    3.0864   -1.6675 C   0  0  0  0  0  0  0  0  0  0  0  0
    1.6560    3.5371   -2.5815 C   0  0  0  0  0  0  0  0  0  0  0  0
   -1.8359    4.0556    0.1595 C   0  0  0  0  0  0  0  0  0  0  0  0
   -3.0240    3.3479    0.5038 C   0  0  0  0  0  0  0  0  0  0  0  0
   -3.2114    1.9483    0.2437 C   0  0  0  0  0  0  0  0  0  0  0  0
   -4.3711    1.2929    0.5790 C   0  0  0  0  0  0  0  0  0  0  0  0
   -5.4431    1.9831    1.2131 C   0  0  0  0  0  0  0  0  0  0  0  0
   -5.3239    3.3237    1.4721 C   0  0  0  0  0  0  0  0  0  0  0  0
   -4.1374    4.0449    1.1197 C   0  0  0  0  0  0  0  0  0  0  0  0
   -4.0434    5.4209    1.3513 C   0  0  0  0  0  0  0  0  0  0  0  0
   -2.9145    6.1545    0.9723 C   0  0  0  0  0  0  0  0  0  0  0  0
   -2.8585    7.5706    1.1806 C   0  0  0  0  0  0  0  0  0  0  0  0
   -1.7685    8.3028    0.7881 C   0  0  0  0  0  0  0  0  0  0  0  0
   -0.6725    7.6475    0.1576 C   0  0  0  0  0  0  0  0  0  0  0  0
   -0.6861    6.2895   -0.0471 C   0  0  0  0  0  0  0  0  0  0  0  0
   -1.7955    5.4693    0.3555 C   0  0  0  0  0  0  0  0  0  0  0  0
   -0.0115    0.2692   -0.7570 C   0  0  0  0  0  0  0  0  0  0  0  0
   -0.4017    0.3642   -2.1355 C   0  0  0  0  0  0  0  0  0  0  0  0
   -0.4122   -0.7286   -2.9677 C   0  0  0  0  0  0  0  0  0  0  0  0
   -0.0237   -2.0131   -2.4916 C   0  0  0  0  0  0  0  0  0  0  0  0
    0.3441   -2.1644   -1.1799 C   0  0  0  0  0  0  0  0  0  0  0  0
    0.3487   -1.0518   -0.2775 C   0  0  0  0  0  0  0  0  0  0  0  0
    0.6851   -1.2264    1.0686 C   0  0  0  0  0  0  0  0  0  0  0  0
    0.6502   -0.1647    1.9784 C   0  0  0  0  0  0  0  0  0  0  0  0
    0.9559   -0.3762    3.3618 C   0  0  0  0  0  0  0  0  0  0  0  0
    1.1288    0.4782    5.3203 H   0  0  0  0  0  0  0  0  0  0  0  0
    0.4603    2.7698    4.5511 H   0  0  0  0  0  0  0  0  0  0  0  0
   -0.0598    3.2043    2.2174 H   0  0  0  0  0  0  0  0  0  0  0  0
   -2.4931    3.5319   -2.1382 H   0  0  0  0  0  0  0  0  0  0  0  0
   -4.0443    4.1647   -3.9031 H   0  0  0  0  0  0  0  0  0  0  0  0
   -3.2057    4.9685   -6.1274 H   0  0  0  0  0  0  0  0  0  0  0  0
   -0.7609    5.0703   -6.5520 H   0  0  0  0  0  0  0  0  0  0  0  0
    1.5211    4.7160   -5.8217 H   0  0  0  0  0  0  0  0  0  0  0  0
    3.8227    4.3013   -5.1877 H   0  0  0  0  0  0  0  0  0  0  0  0
    5.5003    3.5272   -3.5280 H   0  0  0  0  0  0  0  0  0  0  0  0
    4.7379    2.7226   -1.2783 H   0  0  0  0  0  0  0  0  0  0  0  0
    2.3818    2.7186   -0.6832 H   0  0  0  0  0  0  0  0  0  0  0  0
   -2.4161    1.3861   -0.2403 H   0  0  0  0  0  0  0  0  0  0  0  0
   -4.4712    0.2276    0.3559 H   0  0  0  0  0  0  0  0  0  0  0  0
   -6.3553    1.4444    1.4814 H   0  0  0  0  0  0  0  0  0  0  0  0
   -6.1410    3.8747    1.9460 H   0  0  0  0  0  0  0  0  0  0  0  0
   -4.8821    5.9401    1.8244 H   0  0  0  0  0  0  0  0  0  0  0  0
   -3.7149    8.0567    1.6562 H   0  0  0  0  0  0  0  0  0  0  0  0
   -1.7382    9.3834    0.9479 H   0  0  0  0  0  0  0  0  0  0  0  0
    0.1890    8.2338   -0.1719 H   0  0  0  0  0  0  0  0  0  0  0  0
    0.1678    5.8329   -0.5464 H   0  0  0  0  0  0  0  0  0  0  0  0
   -0.7067    1.3280   -2.5367 H   0  0  0  0  0  0  0  0  0  0  0  0
   -0.7229   -0.6094   -4.0087 H   0  0  0  0  0  0  0  0  0  0  0  0
   -0.0290   -2.8703   -3.1695 H   0  0  0  0  0  0  0  0  0  0  0  0
    0.6326   -3.1451   -0.7914 H   0  0  0  0  0  0  0  0  0  0  0  0
    0.9649   -2.2229    1.4230 H   0  0  0  0  0  0  0  0  0  0  0  0
    1.2306   -1.3852    3.6815 H   0  0  0  0  0  0  0  0  0  0  0  0
  1  2  2  0
  1 44  1  0
  1 45  1  0
  2  3  1  0
  2 46  1  0
  3  4  2  0
  3 47  1  0
  4  5  1  0
  4 43  1  0
  5  6  1  0
  5 36  2  0
  6  7  1  1
  6  8  1  0
  6 22  1  0
  8  9  1  0
  8 21  2  0
  9 10  2  0
  9 14  1  0
 10 11  1  0
 10 48  1  0
 11 12  2  0
 11 49  1  0
 12 13  1  0
 12 50  1  0
 13 14  2  0
 13 51  1  0
 14 15  1  0
 15 16  2  0
 15 52  1  0
 16 17  1  0
 16 21  1  0
 17 18  2  0
 17 53  1  0
 18 19  1  0
 18 54  1  0
 19 20  2  0
 19 55  1  0
 20 21  1  0
 20 56  1  0
 22 23  1  0
 22 35  2  0
 23 24  2  0
 23 28  1  0
 24 25  1  0
 24 57  1  0
 25 26  2  0
 25 58  1  0
 26 27  1  0
 26 59  1  0
 27 28  2  0
 27 60  1  0
 28 29  1  0
 29 30  2  0
 29 61  1  0
 30 31  1  0
 30 35  1  0
 31 32  2  0
 31 62  1  0
 32 33  1  0
 32 63  1  0
 33 34  2  0
 33 64  1  0
 34 35  1  0
 34 65  1  0
 36 37  1  0
 36 41  1  0
 37 38  2  0
 37 66  1  0
 38 39  1  0
 38 67  1  0
 39 40  2  0
 39 68  1  0
 40 41  1  0
 40 69  1  0
 41 42  2  0
 42 43  1  0
 42 70  1  0
 43 44  2  0
 44 71  1  0
M  END

