
     RDKit          3D

 39 40  0  0  0  0  0  0  0  0999 V2000
    2.2573    0.4895   -1.8143 F   0  0  0  0  0  0  0  0  0  0  0  0
    2.0540    1.4138   -0.8303 C   0  0  1  0  0  0  0  0  0  0  0  0
    0.7164    1.6658   -0.7840 F   0  0  0  0  0  0  0  0  0  0  0  0
    2.5138    0.8817    0.5179 C   0  0  0  0  0  0  0  0  0  0  0  0
    3.9541    0.7220    0.5770 N   0  0  0  0  0  0  0  0  0  0  0  0
    4.6047    1.1149    1.8275 C   0  0  0  0  0  0  0  0  0  0  0  0
    4.5458    0.0166    2.9049 C   0  0  0  0  0  0  0  0  0  0  0  0
    5.0615   -1.2654    2.4224 N   0  0  0  0  0  0  0  0  0  0  0  0
    6.5083   -1.4183    2.4878 C   0  0  0  0  0  0  0  0  0  0  0  0
    6.9222   -2.0315    3.8242 C   0  0  0  0  0  0  0  0  0  0  0  0
    8.3381   -2.1009    3.8422 O   0  0  0  0  0  0  0  0  0  0  0  0
    8.9832   -2.6174    4.9092 C   0  0  0  0  0  0  0  0  0  0  0  0
    8.3420   -3.1212    6.0531 C   0  0  0  0  0  0  0  0  0  0  0  0
    9.0879   -3.6395    7.1166 C   0  0  0  0  0  0  0  0  0  0  0  0
   10.4811   -3.6658    7.0604 C   0  0  0  0  0  0  0  0  0  0  0  0
   11.1330   -3.1674    5.9268 C   0  0  0  0  0  0  0  0  0  0  0  0
   10.3949   -2.6496    4.8645 C   0  0  0  0  0  0  0  0  0  0  0  0
   11.2971   -1.9751    3.3294 Br  0  0  0  0  0  0  0  0  0  0  0  0
    4.4126   -1.6569    1.1709 C   0  0  0  0  0  0  0  0  0  0  0  0
    4.4725   -0.5627    0.0916 C   0  0  0  0  0  0  0  0  0  0  0  0
    2.5845    2.3378   -1.1187 H   0  0  0  0  0  0  0  0  0  0  0  0
    1.9298   -0.0408    0.7195 H   0  0  0  0  0  0  0  0  0  0  0  0
    2.1934    1.6239    1.2656 H   0  0  0  0  0  0  0  0  0  0  0  0
    4.1526    2.0492    2.1987 H   0  0  0  0  0  0  0  0  0  0  0  0
    5.6621    1.3461    1.6022 H   0  0  0  0  0  0  0  0  0  0  0  0
    3.4969   -0.1256    3.2267 H   0  0  0  0  0  0  0  0  0  0  0  0
    5.1075    0.3270    3.8014 H   0  0  0  0  0  0  0  0  0  0  0  0
    7.0683   -0.4717    2.3504 H   0  0  0  0  0  0  0  0  0  0  0  0
    6.8493   -2.0897    1.6844 H   0  0  0  0  0  0  0  0  0  0  0  0
    6.4742   -3.0358    3.9286 H   0  0  0  0  0  0  0  0  0  0  0  0
    6.5566   -1.4127    4.6649 H   0  0  0  0  0  0  0  0  0  0  0  0
    7.2537   -3.1111    6.1154 H   0  0  0  0  0  0  0  0  0  0  0  0
    8.5654   -4.0258    7.9952 H   0  0  0  0  0  0  0  0  0  0  0  0
   11.0654   -4.0702    7.8897 H   0  0  0  0  0  0  0  0  0  0  0  0
   12.2225   -3.1780    5.8614 H   0  0  0  0  0  0  0  0  0  0  0  0
    3.3547   -1.8917    1.3939 H   0  0  0  0  0  0  0  0  0  0  0  0
    4.8666   -2.5906    0.8018 H   0  0  0  0  0  0  0  0  0  0  0  0
    3.9129   -0.8631   -0.8053 H   0  0  0  0  0  0  0  0  0  0  0  0
    5.5220   -0.4129   -0.2226 H   0  0  0  0  0  0  0  0  0  0  0  0
  1  2  1  0
  2  3  1  0
  2  4  1  0
  2 21  1  6
  4  5  1  0
  4 22  1  0
  4 23  1  0
  5  6  1  0
  5 20  1  0
  6  7  1  0
  6 24  1  0
  6 25  1  0
  7  8  1  0
  7 26  1  0
  7 27  1  0
  8  9  1  0
  8 19  1  0
  9 10  1  0
  9 28  1  0
  9 29  1  0
 10 11  1  0
 10 30  1  0
 10 31  1  0
 11 12  1  0
 12 13  2  0
 12 17  1  0
 13 14  1  0
 13 32  1  0
 14 15  2  0
 14 33  1  0
 15 16  1  0
 15 34  1  0
 16 17  2  0
 16 35  1  0
 17 18  1  0
 19 20  1  0
 19 36  1  0
 19 37  1  0
 20 38  1  0
 20 39  1  0
M  END

