
     RDKit          3D

 55 58  0  0  0  0  0  0  0  0999 V2000
    8.8975   -3.5845    2.7839 C   0  0  0  0  0  0  0  0  0  0  0  0
    8.0738   -2.3192    2.6571 C   0  0  0  0  0  0  0  0  0  0  0  0
    6.7306   -2.6974    2.3259 O   0  0  0  0  0  0  0  0  0  0  0  0
    5.8303   -1.7136    2.1343 C   0  0  0  0  0  0  0  0  0  0  0  0
    6.1874   -0.4760    2.2711 N   0  0  0  0  0  0  0  0  0  0  0  0
    5.2836    0.5131    1.9876 C   0  0  0  0  0  0  0  0  0  0  0  0
    5.6352    1.8752    2.1280 C   0  0  0  0  0  0  0  0  0  0  0  0
    4.7199    2.8647    1.8089 C   0  0  0  0  0  0  0  0  0  0  0  0
    3.4323    2.5197    1.3373 C   0  0  0  0  0  0  0  0  0  0  0  0
    3.0687    1.1917    1.1918 C   0  0  0  0  0  0  0  0  0  0  0  0
    3.9843    0.1607    1.5191 C   0  0  0  0  0  0  0  0  0  0  0  0
    3.6194   -1.1485    1.4095 N   0  0  0  0  0  0  0  0  0  0  0  0
    4.4720   -2.0990    1.7194 C   0  0  0  0  0  0  0  0  0  0  0  0
    4.1012   -3.4190    1.5506 N   0  0  0  0  0  0  0  0  0  0  0  0
    2.8502   -3.6996    0.8460 C   0  0  0  0  0  0  0  0  0  0  0  0
    2.9745   -5.0086    0.0622 C   0  0  0  0  0  0  0  0  0  0  0  0
    3.3890   -6.2077    0.9500 C   0  0  2  0  0  0  0  0  0  0  0  0
    2.2051   -6.6870    1.7953 C   0  0  0  0  0  0  0  0  0  0  0  0
    1.9412   -6.2367    2.9026 O   0  0  0  0  0  0  0  0  0  0  0  0
    1.4400   -7.6562    1.2074 N   0  0  0  0  0  0  0  0  0  0  0  0
    0.1948   -8.1153    1.8047 C   0  0  0  0  0  0  0  0  0  0  0  0
   -1.0220   -7.3283    1.3547 C   0  0  0  0  0  0  0  0  0  0  0  0
   -1.5944   -6.3572    2.1909 C   0  0  0  0  0  0  0  0  0  0  0  0
   -2.7084   -5.6158    1.7901 C   0  0  0  0  0  0  0  0  0  0  0  0
   -3.2727   -5.8327    0.5304 C   0  0  0  0  0  0  0  0  0  0  0  0
   -2.7188   -6.7851   -0.3286 C   0  0  0  0  0  0  0  0  0  0  0  0
   -1.6036   -7.5143    0.0892 C   0  0  0  0  0  0  0  0  0  0  0  0
   -0.9125   -8.6939   -1.0239 Cl  0  0  0  0  0  0  0  0  0  0  0  0
    4.6114   -5.8230    1.8047 C   0  0  0  0  0  0  0  0  0  0  0  0
    4.4563   -4.4736    2.5113 C   0  0  0  0  0  0  0  0  0  0  0  0
    9.9420   -3.3281    3.0205 H   0  0  0  0  0  0  0  0  0  0  0  0
    8.8880   -4.1578    1.8439 H   0  0  0  0  0  0  0  0  0  0  0  0
    8.5137   -4.2323    3.5875 H   0  0  0  0  0  0  0  0  0  0  0  0
    8.4620   -1.6505    1.8715 H   0  0  0  0  0  0  0  0  0  0  0  0
    8.0658   -1.7346    3.5916 H   0  0  0  0  0  0  0  0  0  0  0  0
    6.6384    2.1133    2.4883 H   0  0  0  0  0  0  0  0  0  0  0  0
    4.9927    3.9174    1.9190 H   0  0  0  0  0  0  0  0  0  0  0  0
    2.7192    3.3097    1.0875 H   0  0  0  0  0  0  0  0  0  0  0  0
    2.0780    0.9021    0.8348 H   0  0  0  0  0  0  0  0  0  0  0  0
    2.6365   -2.8633    0.1702 H   0  0  0  0  0  0  0  0  0  0  0  0
    2.0074   -3.7538    1.5614 H   0  0  0  0  0  0  0  0  0  0  0  0
    3.7404   -4.8778   -0.7209 H   0  0  0  0  0  0  0  0  0  0  0  0
    2.0211   -5.2203   -0.4501 H   0  0  0  0  0  0  0  0  0  0  0  0
    3.6752   -7.0408    0.2852 H   0  0  0  0  0  0  0  0  0  0  0  0
    1.6383   -7.9370    0.2543 H   0  0  0  0  0  0  0  0  0  0  0  0
    0.3073   -8.0183    2.8920 H   0  0  0  0  0  0  0  0  0  0  0  0
    0.0646   -9.1802    1.5612 H   0  0  0  0  0  0  0  0  0  0  0  0
   -1.1398   -6.1814    3.1688 H   0  0  0  0  0  0  0  0  0  0  0  0
   -3.1338   -4.8664    2.4616 H   0  0  0  0  0  0  0  0  0  0  0  0
   -4.1451   -5.2589    0.2080 H   0  0  0  0  0  0  0  0  0  0  0  0
   -3.1416   -6.9658   -1.3183 H   0  0  0  0  0  0  0  0  0  0  0  0
    5.4922   -5.7710    1.1424 H   0  0  0  0  0  0  0  0  0  0  0  0
    4.8121   -6.6018    2.5576 H   0  0  0  0  0  0  0  0  0  0  0  0
    5.3911   -4.2114    3.0124 H   0  0  0  0  0  0  0  0  0  0  0  0
    3.6592   -4.5536    3.2704 H   0  0  0  0  0  0  0  0  0  0  0  0
  1  2  1  0
  1 31  1  0
  1 32  1  0
  1 33  1  0
  2  3  1  0
  2 34  1  0
  2 35  1  0
  3  4  1  0
  4  5  2  0
  4 13  1  0
  5  6  1  0
  6  7  2  0
  6 11  1  0
  7  8  1  0
  7 36  1  0
  8  9  2  0
  8 37  1  0
  9 10  1  0
  9 38  1  0
 10 11  2  0
 10 39  1  0
 11 12  1  0
 12 13  2  0
 13 14  1  0
 14 15  1  0
 14 30  1  0
 15 16  1  0
 15 40  1  0
 15 41  1  0
 16 17  1  0
 16 42  1  0
 16 43  1  0
 17 18  1  0
 17 29  1  0
 17 44  1  6
 18 19  2  0
 18 20  1  0
 20 21  1  0
 20 45  1  0
 21 22  1  0
 21 46  1  0
 21 47  1  0
 22 23  2  0
 22 27  1  0
 23 24  1  0
 23 48  1  0
 24 25  2  0
 24 49  1  0
 25 26  1  0
 25 50  1  0
 26 27  2  0
 26 51  1  0
 27 28  1  0
 29 30  1  0
 29 52  1  0
 29 53  1  0
 30 54  1  0
 30 55  1  0
M  END

