
     RDKit          3D

 54 56  0  0  0  0  0  0  0  0999 V2000
    1.7779    1.7541   -0.4645 C   0  0  0  0  0  0  0  0  0  0  0  0
    1.3307    0.4708   -1.1842 C   0  0  0  0  0  0  0  0  0  0  0  0
    2.3711   -0.6270   -1.1854 C   0  0  0  0  0  0  0  0  0  0  0  0
    2.3556   -1.6403   -0.2473 C   0  0  0  0  0  0  0  0  0  0  0  0
    3.3473   -2.6571   -0.2348 C   0  0  0  0  0  0  0  0  0  0  0  0
    3.3853   -3.7200    0.7044 C   0  0  0  0  0  0  0  0  0  0  0  0
    4.3765   -4.6855    0.6751 C   0  0  0  0  0  0  0  0  0  0  0  0
    4.3905   -5.8019    1.6887 C   0  0  0  0  0  0  0  0  0  0  0  0
    5.3984   -4.6138   -0.3344 C   0  0  0  0  0  0  0  0  0  0  0  0
    6.4894   -5.6538   -0.3815 C   0  0  0  0  0  0  0  0  0  0  0  0
    5.3722   -3.5846   -1.2590 C   0  0  0  0  0  0  0  0  0  0  0  0
    4.3602   -2.5909   -1.2372 C   0  0  0  0  0  0  0  0  0  0  0  0
    4.3716   -1.5963   -2.1658 N   0  0  0  0  0  0  0  0  0  0  0  0
    3.4444   -0.6763   -2.1427 C   0  0  0  0  0  0  0  0  0  0  0  0
    3.5127    0.6031   -3.4076 S   0  0  0  0  0  0  0  0  0  0  0  0
    4.8718   -0.0321   -4.4435 C   0  0  0  0  0  0  0  0  0  0  0  0
    6.3133    0.0369   -3.9139 C   0  0  0  0  0  0  0  0  0  0  0  0
    7.1639   -0.6593   -4.4345 O   0  0  0  0  0  0  0  0  0  0  0  0
    6.5319    0.9530   -2.9217 N   0  0  0  0  0  0  0  0  0  0  0  0
    7.7302    1.2703   -2.2578 C   0  0  0  0  0  0  0  0  0  0  0  0
    8.9698    0.6914   -2.5821 C   0  0  0  0  0  0  0  0  0  0  0  0
   10.1000    1.0817   -1.8621 C   0  0  0  0  0  0  0  0  0  0  0  0
   10.0488    2.0239   -0.8330 C   0  0  0  0  0  0  0  0  0  0  0  0
    8.8084    2.6012   -0.5104 C   0  0  0  0  0  0  0  0  0  0  0  0
    8.6413    3.5608    0.5089 N   0  0  0  0  0  0  0  0  0  0  0  0
    9.5836    4.1067    1.3543 C   0  0  0  0  0  0  0  0  0  0  0  0
    9.0300    5.1348    2.3323 C   0  0  0  0  0  0  0  0  0  0  0  0
   10.7650    3.8179    1.3416 O   0  0  0  0  0  0  0  0  0  0  0  0
    7.6622    2.2186   -1.2250 C   0  0  0  0  0  0  0  0  0  0  0  0
    0.9815    2.5148   -0.4932 H   0  0  0  0  0  0  0  0  0  0  0  0
    2.6727    2.1879   -0.9370 H   0  0  0  0  0  0  0  0  0  0  0  0
    2.0180    1.5518    0.5915 H   0  0  0  0  0  0  0  0  0  0  0  0
    1.0502    0.7133   -2.2233 H   0  0  0  0  0  0  0  0  0  0  0  0
    0.4176    0.0856   -0.7018 H   0  0  0  0  0  0  0  0  0  0  0  0
    1.5586   -1.6677    0.5030 H   0  0  0  0  0  0  0  0  0  0  0  0
    2.6058   -3.7689    1.4708 H   0  0  0  0  0  0  0  0  0  0  0  0
    3.5472   -5.7168    2.3891 H   0  0  0  0  0  0  0  0  0  0  0  0
    5.3216   -5.8023    2.2805 H   0  0  0  0  0  0  0  0  0  0  0  0
    4.3282   -6.7914    1.2048 H   0  0  0  0  0  0  0  0  0  0  0  0
    7.0696   -5.6754    0.5566 H   0  0  0  0  0  0  0  0  0  0  0  0
    7.1893   -5.4592   -1.2062 H   0  0  0  0  0  0  0  0  0  0  0  0
    6.0776   -6.6682   -0.5183 H   0  0  0  0  0  0  0  0  0  0  0  0
    6.1370   -3.5049   -2.0349 H   0  0  0  0  0  0  0  0  0  0  0  0
    4.8187    0.5633   -5.3698 H   0  0  0  0  0  0  0  0  0  0  0  0
    4.6805   -1.0818   -4.6972 H   0  0  0  0  0  0  0  0  0  0  0  0
    5.6947    1.4235   -2.5870 H   0  0  0  0  0  0  0  0  0  0  0  0
    9.0253   -0.0446   -3.3799 H   0  0  0  0  0  0  0  0  0  0  0  0
   11.0642    0.6319   -2.1138 H   0  0  0  0  0  0  0  0  0  0  0  0
   10.9376    2.3177   -0.2813 H   0  0  0  0  0  0  0  0  0  0  0  0
    7.6924    3.8920    0.6304 H   0  0  0  0  0  0  0  0  0  0  0  0
    7.9392    5.2698    2.2855 H   0  0  0  0  0  0  0  0  0  0  0  0
    9.5189    6.1016    2.1366 H   0  0  0  0  0  0  0  0  0  0  0  0
    9.3124    4.8322    3.3517 H   0  0  0  0  0  0  0  0  0  0  0  0
    6.6952    2.6669   -0.9731 H   0  0  0  0  0  0  0  0  0  0  0  0
  1  2  1  0
  1 30  1  0
  1 31  1  0
  1 32  1  0
  2  3  1  0
  2 33  1  0
  2 34  1  0
  3  4  2  0
  3 14  1  0
  4  5  1  0
  4 35  1  0
  5  6  2  0
  5 12  1  0
  6  7  1  0
  6 36  1  0
  7  8  1  0
  7  9  2  0
  8 37  1  0
  8 38  1  0
  8 39  1  0
  9 10  1  0
  9 11  1  0
 10 40  1  0
 10 41  1  0
 10 42  1  0
 11 12  2  0
 11 43  1  0
 12 13  1  0
 13 14  2  0
 14 15  1  0
 15 16  1  0
 16 17  1  0
 16 44  1  0
 16 45  1  0
 17 18  2  0
 17 19  1  0
 19 20  1  0
 19 46  1  0
 20 21  2  0
 20 29  1  0
 21 22  1  0
 21 47  1  0
 22 23  2  0
 22 48  1  0
 23 24  1  0
 23 49  1  0
 24 25  1  0
 24 29  2  0
 25 26  1  0
 25 50  1  0
 26 27  1  0
 26 28  2  0
 27 51  1  0
 27 52  1  0
 27 53  1  0
 29 54  1  0
M  END

