
     RDKit          3D

 95 96  0  0  0  0  0  0  0  0999 V2000
    5.0710   -0.5406   -1.3184 C   0  0  0  0  0  0  0  0  0  0  0  0
    5.8821   -0.0299   -0.2227 N   0  0  0  0  0  0  0  0  0  0  0  0
    7.2634   -0.4689   -0.2265 C   0  0  0  0  0  0  0  0  0  0  0  0
    8.1893    0.4141   -1.0700 C   0  0  0  0  0  0  0  0  0  0  0  0
    9.3164    0.0266   -1.3861 O   0  0  0  0  0  0  0  0  0  0  0  0
    7.6766    1.6153   -1.4011 N   0  0  0  0  0  0  0  0  0  0  0  0
    8.4452    2.6903   -1.9935 C   0  0  1  0  0  0  0  0  0  0  0  0
    9.5128    2.4536   -1.8633 H   0  0  0  0  0  0  0  0  0  0  0  0
    8.1753    2.9204   -3.4991 C   0  0  0  0  0  0  0  0  0  0  0  0
    8.4746    1.7676   -4.4168 C   0  0  0  0  0  0  0  0  0  0  0  0
    8.1416    1.5783   -5.7462 C   0  0  0  0  0  0  0  0  0  0  0  0
    8.7189    0.4358   -6.2387 N   0  0  0  0  0  0  0  0  0  0  0  0
    9.3850   -0.0794   -5.2260 C   0  0  0  0  0  0  0  0  0  0  0  0
    9.2848    0.6950   -4.1026 N   0  0  0  0  0  0  0  0  0  0  0  0
    9.5777    0.4308   -3.1503 H   0  0  0  0  0  0  0  0  0  0  0  0
    8.1184    3.9751   -1.2027 C   0  0  0  0  0  0  0  0  0  0  0  0
    7.0746    4.0831   -0.5744 O   0  0  0  0  0  0  0  0  0  0  0  0
    9.0549    4.9575   -1.2827 N   0  0  0  0  0  0  0  0  0  0  0  0
    8.9541    6.1634   -0.4715 C   0  0  1  0  0  0  0  0  0  0  0  0
    7.8798    6.4029   -0.3958 H   0  0  0  0  0  0  0  0  0  0  0  0
    9.4782    5.9798    0.9761 C   0  0  0  0  0  0  0  0  0  0  0  0
   10.8626    5.3768    1.1025 C   0  0  0  0  0  0  0  0  0  0  0  0
   12.0119    6.1824    1.1886 C   0  0  0  0  0  0  0  0  0  0  0  0
   13.2831    5.6094    1.2971 C   0  0  0  0  0  0  0  0  0  0  0  0
   13.4323    4.2184    1.3164 C   0  0  0  0  0  0  0  0  0  0  0  0
   12.2982    3.4053    1.2385 C   0  0  0  0  0  0  0  0  0  0  0  0
   11.0284    3.9817    1.1385 C   0  0  0  0  0  0  0  0  0  0  0  0
    9.6440    7.3319   -1.1975 C   0  0  0  0  0  0  0  0  0  0  0  0
   10.3757    8.1250   -0.6162 O   0  0  0  0  0  0  0  0  0  0  0  0
    9.3938    7.4211   -2.5333 N   0  0  0  0  0  0  0  0  0  0  0  0
   10.2296    8.2465   -3.3950 C   0  0  0  0  0  0  0  0  0  0  0  0
   11.4707    7.4465   -3.8234 C   0  0  0  0  0  0  0  0  0  0  0  0
   11.6339    7.0556   -4.9670 O   0  0  0  0  0  0  0  0  0  0  0  0
   12.3161    7.1212   -2.8000 N   0  0  0  0  0  0  0  0  0  0  0  0
   13.2393    6.0227   -2.9559 C   0  0  0  0  0  0  0  0  0  0  0  0
   12.5072    4.7215   -3.3353 C   0  0  0  0  0  0  0  0  0  0  0  0
   11.3743    4.4721   -2.9150 O   0  0  0  0  0  0  0  0  0  0  0  0
   13.1899    3.8887   -4.1356 N   0  0  0  0  0  0  0  0  0  0  0  0
   12.6358    2.6502   -4.6523 C   0  0  1  0  0  0  0  0  0  0  0  0
   12.0078    2.2148   -3.8600 H   0  0  0  0  0  0  0  0  0  0  0  0
   11.7218    2.8491   -5.8899 C   0  0  0  0  0  0  0  0  0  0  0  0
   12.3739    3.1569   -7.2517 C   0  0  1  0  0  0  0  0  0  0  0  0
   11.2702    3.2392   -8.3176 C   0  0  0  0  0  0  0  0  0  0  0  0
   13.2443    4.4232   -7.2633 C   0  0  0  0  0  0  0  0  0  0  0  0
   13.8092    1.7058   -4.9417 C   0  0  0  0  0  0  0  0  0  0  0  0
   14.9481    2.1302   -5.1079 O   0  0  0  0  0  0  0  0  0  0  0  0
   13.4799    0.3956   -5.0224 N   0  0  0  0  0  0  0  0  0  0  0  0
   14.4112   -0.6396   -5.4191 C   0  0  1  0  0  0  0  0  0  0  0  0
   14.9407   -0.3203   -6.3367 H   0  0  0  0  0  0  0  0  0  0  0  0
   15.4743   -0.9293   -4.3418 C   0  0  0  0  0  0  0  0  0  0  0  0
   13.5983   -1.8958   -5.7618 C   0  0  0  0  0  0  0  0  0  0  0  0
   14.3494   -3.0870   -6.3118 C   0  0  0  0  0  0  0  0  0  0  0  0
   12.4009   -1.9271   -5.5702 O   0  0  0  0  0  0  0  0  0  0  0  0
    4.0397   -0.1680   -1.2237 H   0  0  0  0  0  0  0  0  0  0  0  0
    5.0372   -1.6495   -1.3734 H   0  0  0  0  0  0  0  0  0  0  0  0
    5.4656   -0.1747   -2.2800 H   0  0  0  0  0  0  0  0  0  0  0  0
    5.4426   -0.2211    0.6733 H   0  0  0  0  0  0  0  0  0  0  0  0
    7.4140   -1.5083   -0.5828 H   0  0  0  0  0  0  0  0  0  0  0  0
    7.6671   -0.4329    0.7994 H   0  0  0  0  0  0  0  0  0  0  0  0
    6.7718    1.8509   -0.9869 H   0  0  0  0  0  0  0  0  0  0  0  0
    8.7940    3.7840   -3.7978 H   0  0  0  0  0  0  0  0  0  0  0  0
    7.1227    3.2230   -3.6289 H   0  0  0  0  0  0  0  0  0  0  0  0
    7.5248    2.2251   -6.3707 H   0  0  0  0  0  0  0  0  0  0  0  0
    9.9629   -1.0043   -5.2431 H   0  0  0  0  0  0  0  0  0  0  0  0
    9.9562    4.7542   -1.7334 H   0  0  0  0  0  0  0  0  0  0  0  0
    8.7511    5.3302    1.4864 H   0  0  0  0  0  0  0  0  0  0  0  0
    9.4450    6.9638    1.4649 H   0  0  0  0  0  0  0  0  0  0  0  0
   11.8985    7.2678    1.1675 H   0  0  0  0  0  0  0  0  0  0  0  0
   14.1624    6.2548    1.3773 H   0  0  0  0  0  0  0  0  0  0  0  0
   14.4259    3.7711    1.4039 H   0  0  0  0  0  0  0  0  0  0  0  0
   12.3990    2.3171    1.2633 H   0  0  0  0  0  0  0  0  0  0  0  0
   10.1475    3.3346    1.1011 H   0  0  0  0  0  0  0  0  0  0  0  0
    8.9196    6.6333   -2.9630 H   0  0  0  0  0  0  0  0  0  0  0  0
   10.5079    9.1503   -2.8348 H   0  0  0  0  0  0  0  0  0  0  0  0
    9.6796    8.5279   -4.3017 H   0  0  0  0  0  0  0  0  0  0  0  0
   12.0818    7.4383   -1.8628 H   0  0  0  0  0  0  0  0  0  0  0  0
   13.7504    5.8607   -1.9943 H   0  0  0  0  0  0  0  0  0  0  0  0
   14.0032    6.2520   -3.7160 H   0  0  0  0  0  0  0  0  0  0  0  0
   14.1317    4.1107   -4.4471 H   0  0  0  0  0  0  0  0  0  0  0  0
   11.0139    3.6537   -5.6320 H   0  0  0  0  0  0  0  0  0  0  0  0
   11.1127    1.9380   -5.9992 H   0  0  0  0  0  0  0  0  0  0  0  0
   13.0217    2.2999   -7.5184 H   0  0  0  0  0  0  0  0  0  0  0  0
   10.6098    4.1030   -8.1296 H   0  0  0  0  0  0  0  0  0  0  0  0
   10.6417    2.3342   -8.3212 H   0  0  0  0  0  0  0  0  0  0  0  0
   11.7006    3.3635   -9.3244 H   0  0  0  0  0  0  0  0  0  0  0  0
   12.7081    5.2877   -6.8380 H   0  0  0  0  0  0  0  0  0  0  0  0
   13.5358    4.6778   -8.2956 H   0  0  0  0  0  0  0  0  0  0  0  0
   14.1758    4.2792   -6.6954 H   0  0  0  0  0  0  0  0  0  0  0  0
   12.5114    0.0938   -4.9313 H   0  0  0  0  0  0  0  0  0  0  0  0
   16.0109    0.0027   -4.1186 H   0  0  0  0  0  0  0  0  0  0  0  0
   16.2065   -1.6729   -4.6909 H   0  0  0  0  0  0  0  0  0  0  0  0
   15.0020   -1.2996   -3.4183 H   0  0  0  0  0  0  0  0  0  0  0  0
   14.8159   -3.6400   -5.4790 H   0  0  0  0  0  0  0  0  0  0  0  0
   15.1542   -2.7865   -6.9995 H   0  0  0  0  0  0  0  0  0  0  0  0
   13.6426   -3.7584   -6.8168 H   0  0  0  0  0  0  0  0  0  0  0  0
  1  2  1  0
  1 54  1  0
  1 55  1  0
  1 56  1  0
  2  3  1  0
  2 57  1  0
  3  4  1  0
  3 58  1  0
  3 59  1  0
  4  5  2  0
  4  6  1  0
  6  7  1  0
  6 60  1  0
  7  8  1  6
  7  9  1  0
  7 16  1  0
  9 10  1  0
  9 61  1  0
  9 62  1  0
 10 11  2  0
 10 14  1  0
 11 12  1  0
 11 63  1  0
 12 13  2  0
 13 14  1  0
 13 64  1  0
 14 15  1  0
 16 17  2  0
 16 18  1  0
 18 19  1  0
 18 65  1  0
 19 20  1  1
 19 21  1  0
 19 28  1  0
 21 22  1  0
 21 66  1  0
 21 67  1  0
 22 23  2  0
 22 27  1  0
 23 24  1  0
 23 68  1  0
 24 25  2  0
 24 69  1  0
 25 26  1  0
 25 70  1  0
 26 27  2  0
 26 71  1  0
 27 72  1  0
 28 29  2  0
 28 30  1  0
 30 31  1  0
 30 73  1  0
 31 32  1  0
 31 74  1  0
 31 75  1  0
 32 33  2  0
 32 34  1  0
 34 35  1  0
 34 76  1  0
 35 36  1  0
 35 77  1  0
 35 78  1  0
 36 37  2  0
 36 38  1  0
 38 39  1  0
 38 79  1  0
 39 40  1  1
 39 41  1  0
 39 45  1  0
 41 42  1  0
 41 80  1  0
 41 81  1  0
 42 43  1  0
 42 44  1  0
 42 82  1  6
 43 83  1  0
 43 84  1  0
 43 85  1  0
 44 86  1  0
 44 87  1  0
 44 88  1  0
 45 46  2  0
 45 47  1  0
 47 48  1  0
 47 89  1  0
 48 49  1  6
 48 50  1  0
 48 51  1  0
 50 90  1  0
 50 91  1  0
 50 92  1  0
 51 52  1  0
 51 53  2  0
 52 93  1  0
 52 94  1  0
 52 95  1  0
M  END

