
     RDKit          3D

 49 52  0  0  0  0  0  0  0  0999 V2000
    6.0833   14.3964    1.1240 N   0  0  0  0  0  0  0  0  0  0  0  0
    6.8916   12.9868    1.5979 S   0  0  1  0  0  0  0  0  0  0  0  0
    8.3304   13.1862    1.4069 O   0  0  0  0  0  0  0  0  0  0  0  0
    6.3150   12.6242    2.8952 O   0  0  0  0  0  0  0  0  0  0  0  0
    6.3539   11.7760    0.3946 C   0  0  0  0  0  0  0  0  0  0  0  0
    7.1648   11.4787   -0.7018 C   0  0  0  0  0  0  0  0  0  0  0  0
    6.7538   10.5346   -1.6433 C   0  0  0  0  0  0  0  0  0  0  0  0
    5.5202    9.8789   -1.4765 C   0  0  0  0  0  0  0  0  0  0  0  0
    5.0369    8.9137   -2.3768 N   0  0  0  0  0  0  0  0  0  0  0  0
    5.6142    8.4410   -3.5323 C   0  0  0  0  0  0  0  0  0  0  0  0
    6.6719    8.8163   -3.9903 O   0  0  0  0  0  0  0  0  0  0  0  0
    4.7850    7.3278   -4.1996 C   0  0  0  0  0  0  0  0  0  0  0  0
    5.3000    7.0317   -5.4792 O   0  0  0  0  0  0  0  0  0  0  0  0
    5.0266    7.9454   -6.4484 C   0  0  0  0  0  0  0  0  0  0  0  0
    4.2854    8.8757   -6.2807 O   0  0  0  0  0  0  0  0  0  0  0  0
    5.7631    7.5963   -7.7453 C   0  0  1  0  0  0  0  0  0  0  0  0
    4.8034    6.9077   -8.7026 C   0  0  0  0  0  0  0  0  0  0  0  0
    4.3150    5.6176   -8.4450 C   0  0  0  0  0  0  0  0  0  0  0  0
    3.3991    5.0050   -9.2999 C   0  0  0  0  0  0  0  0  0  0  0  0
    2.9548    5.6879  -10.4394 C   0  0  0  0  0  0  0  0  0  0  0  0
    3.4343    6.9646  -10.7204 C   0  0  0  0  0  0  0  0  0  0  0  0
    4.3568    7.5692   -9.8557 C   0  0  0  0  0  0  0  0  0  0  0  0
    4.7963    8.8123  -10.2104 O   0  0  0  0  0  0  0  0  0  0  0  0
    5.8375    9.3895   -9.5332 C   0  0  0  0  0  0  0  0  0  0  0  0
    6.3638   10.5637  -10.0863 C   0  0  0  0  0  0  0  0  0  0  0  0
    7.4289   11.2043   -9.4580 C   0  0  0  0  0  0  0  0  0  0  0  0
    7.9718   10.6758   -8.2798 C   0  0  0  0  0  0  0  0  0  0  0  0
    7.4378    9.5067   -7.7390 C   0  0  0  0  0  0  0  0  0  0  0  0
    6.3650    8.8458   -8.3558 C   0  0  0  0  0  0  0  0  0  0  0  0
    4.7186   10.1818   -0.3573 C   0  0  0  0  0  0  0  0  0  0  0  0
    5.1308   11.1238    0.5779 C   0  0  0  0  0  0  0  0  0  0  0  0
    6.7259   15.0407    0.6626 H   0  0  0  0  0  0  0  0  0  0  0  0
    5.6528   14.8195    1.9470 H   0  0  0  0  0  0  0  0  0  0  0  0
    8.1274   11.9814   -0.8107 H   0  0  0  0  0  0  0  0  0  0  0  0
    7.3750   10.2969   -2.5032 H   0  0  0  0  0  0  0  0  0  0  0  0
    4.1259    8.5331   -2.1434 H   0  0  0  0  0  0  0  0  0  0  0  0
    3.7255    7.6261   -4.2580 H   0  0  0  0  0  0  0  0  0  0  0  0
    4.8740    6.4032   -3.6085 H   0  0  0  0  0  0  0  0  0  0  0  0
    6.5639    6.8934   -7.4676 H   0  0  0  0  0  0  0  0  0  0  0  0
    4.6611    5.0952   -7.5489 H   0  0  0  0  0  0  0  0  0  0  0  0
    3.0321    3.9999   -9.0800 H   0  0  0  0  0  0  0  0  0  0  0  0
    2.2359    5.2199  -11.1164 H   0  0  0  0  0  0  0  0  0  0  0  0
    3.1159    7.5162  -11.6070 H   0  0  0  0  0  0  0  0  0  0  0  0
    5.9223   10.9493  -11.0073 H   0  0  0  0  0  0  0  0  0  0  0  0
    7.8385   12.1208   -9.8901 H   0  0  0  0  0  0  0  0  0  0  0  0
    8.8043   11.1777   -7.7818 H   0  0  0  0  0  0  0  0  0  0  0  0
    7.8373    9.1032   -6.8041 H   0  0  0  0  0  0  0  0  0  0  0  0
    3.7640    9.6660   -0.2177 H   0  0  0  0  0  0  0  0  0  0  0  0
    4.5187   11.3464    1.4534 H   0  0  0  0  0  0  0  0  0  0  0  0
  2  1  1  6
  1 32  1  0
  1 33  1  0
  2  3  2  0
  2  4  2  0
  2  5  1  0
  5  6  2  0
  5 31  1  0
  6  7  1  0
  6 34  1  0
  7  8  2  0
  7 35  1  0
  8  9  1  0
  8 30  1  0
  9 10  1  0
  9 36  1  0
 10 11  2  0
 10 12  1  0
 12 13  1  0
 12 37  1  0
 12 38  1  0
 13 14  1  0
 14 15  2  0
 14 16  1  0
 16 17  1  0
 16 29  1  0
 16 39  1  1
 17 18  2  0
 17 22  1  0
 18 19  1  0
 18 40  1  0
 19 20  2  0
 19 41  1  0
 20 21  1  0
 20 42  1  0
 21 22  2  0
 21 43  1  0
 22 23  1  0
 23 24  1  0
 24 25  2  0
 24 29  1  0
 25 26  1  0
 25 44  1  0
 26 27  2  0
 26 45  1  0
 27 28  1  0
 27 46  1  0
 28 29  2  0
 28 47  1  0
 30 31  2  0
 30 48  1  0
 31 49  1  0
M  END

