
     RDKit          3D

 67 70  0  0  0  0  0  0  0  0999 V2000
    6.8886   -0.6091   -8.2010 C   0  0  0  0  0  0  0  0  0  0  0  0
    7.0467   -1.8887   -7.6257 O   0  0  0  0  0  0  0  0  0  0  0  0
    6.2814   -2.2381   -6.5621 C   0  0  0  0  0  0  0  0  0  0  0  0
    6.5172   -3.5159   -6.0214 C   0  0  0  0  0  0  0  0  0  0  0  0
    5.7711   -3.9673   -4.9382 C   0  0  0  0  0  0  0  0  0  0  0  0
    4.7696   -3.1656   -4.3587 C   0  0  0  0  0  0  0  0  0  0  0  0
    3.9144   -3.6711   -3.2093 C   0  0  2  0  0  0  0  0  0  0  0  0
    3.2949   -2.8405   -2.8440 H   0  0  0  0  0  0  0  0  0  0  0  0
    4.6788   -4.3721   -2.0608 C   0  0  0  0  0  0  0  0  0  0  0  0
    4.2398   -5.8215   -2.1977 C   0  0  0  0  0  0  0  0  0  0  0  0
    4.8125   -6.8743   -1.3938 C   0  0  0  0  0  0  0  0  0  0  0  0
    5.8244   -6.7484   -0.4355 C   0  0  0  0  0  0  0  0  0  0  0  0
    6.0666   -8.0289    0.1082 C   0  0  0  0  0  0  0  0  0  0  0  0
    5.2004   -8.9041   -0.5294 C   0  0  0  0  0  0  0  0  0  0  0  0
    4.4433   -8.2127   -1.4345 N   0  0  0  0  0  0  0  0  0  0  0  0
    3.4283   -8.8133   -2.2828 C   0  0  0  0  0  0  0  0  0  0  0  0
    3.3011   -5.9832   -3.0773 N   0  0  0  0  0  0  0  0  0  0  0  0
    3.0055   -4.7679   -3.6438 N   0  0  0  0  0  0  0  0  0  0  0  0
    1.9575   -4.5741   -4.5020 C   0  0  0  0  0  0  0  0  0  0  0  0
    1.6683   -3.4565   -4.9005 O   0  0  0  0  0  0  0  0  0  0  0  0
    1.1675   -5.8289   -4.9166 C   0  0  0  0  0  0  0  0  0  0  0  0
    0.4741   -5.6703   -6.1740 N   0  0  0  0  0  0  0  0  0  0  0  0
    1.2064   -5.9866   -7.3989 C   0  0  0  0  0  0  0  0  0  0  0  0
    2.1524   -4.8696   -7.8778 C   0  0  0  0  0  0  0  0  0  0  0  0
    2.6713   -5.1797   -9.2062 N   0  0  0  0  0  0  0  0  0  0  0  0
    1.8203   -4.7366  -10.3127 C   0  0  0  0  0  0  0  0  0  0  0  0
    2.0653   -3.2694  -10.6826 C   0  0  0  0  0  0  0  0  0  0  0  0
    3.4378   -3.0268  -10.9463 O   0  0  0  0  0  0  0  0  0  0  0  0
    4.2557   -3.3666   -9.8411 C   0  0  0  0  0  0  0  0  0  0  0  0
    4.0674   -4.8383   -9.4631 C   0  0  0  0  0  0  0  0  0  0  0  0
   -0.7326   -5.0085   -6.3064 C   0  0  0  0  0  0  0  0  0  0  0  0
   -1.4624   -4.6180   -5.0310 C   0  0  0  0  0  0  0  0  0  0  0  0
   -1.2043   -4.7658   -7.4064 O   0  0  0  0  0  0  0  0  0  0  0  0
    4.5460   -1.8993   -4.9054 C   0  0  0  0  0  0  0  0  0  0  0  0
    5.2911   -1.4255   -5.9909 C   0  0  0  0  0  0  0  0  0  0  0  0
    7.6171   -0.5432   -9.0200 H   0  0  0  0  0  0  0  0  0  0  0  0
    7.0945    0.1953   -7.4722 H   0  0  0  0  0  0  0  0  0  0  0  0
    5.8742   -0.4669   -8.6140 H   0  0  0  0  0  0  0  0  0  0  0  0
    7.2948   -4.1349   -6.4737 H   0  0  0  0  0  0  0  0  0  0  0  0
    5.9714   -4.9682   -4.5453 H   0  0  0  0  0  0  0  0  0  0  0  0
    4.3926   -3.9833   -1.0700 H   0  0  0  0  0  0  0  0  0  0  0  0
    5.7681   -4.2559   -2.1520 H   0  0  0  0  0  0  0  0  0  0  0  0
    6.3260   -5.8207   -0.1678 H   0  0  0  0  0  0  0  0  0  0  0  0
    6.7896   -8.2920    0.8772 H   0  0  0  0  0  0  0  0  0  0  0  0
    5.0668   -9.9771   -0.4046 H   0  0  0  0  0  0  0  0  0  0  0  0
    3.3849   -9.8888   -2.0649 H   0  0  0  0  0  0  0  0  0  0  0  0
    3.6662   -8.6677   -3.3460 H   0  0  0  0  0  0  0  0  0  0  0  0
    2.4425   -8.3647   -2.0966 H   0  0  0  0  0  0  0  0  0  0  0  0
    0.4664   -6.0672   -4.1013 H   0  0  0  0  0  0  0  0  0  0  0  0
    1.8498   -6.6875   -4.9809 H   0  0  0  0  0  0  0  0  0  0  0  0
    0.4612   -6.1818   -8.1801 H   0  0  0  0  0  0  0  0  0  0  0  0
    1.7815   -6.9137   -7.2429 H   0  0  0  0  0  0  0  0  0  0  0  0
    3.0009   -4.7768   -7.1821 H   0  0  0  0  0  0  0  0  0  0  0  0
    1.6110   -3.9062   -7.8238 H   0  0  0  0  0  0  0  0  0  0  0  0
    0.7612   -4.8858  -10.0490 H   0  0  0  0  0  0  0  0  0  0  0  0
    2.0348   -5.3634  -11.1979 H   0  0  0  0  0  0  0  0  0  0  0  0
    1.7138   -2.6065   -9.8643 H   0  0  0  0  0  0  0  0  0  0  0  0
    1.5114   -2.9970  -11.5951 H   0  0  0  0  0  0  0  0  0  0  0  0
    4.0151   -2.7190   -8.9707 H   0  0  0  0  0  0  0  0  0  0  0  0
    5.2985   -3.1637  -10.1337 H   0  0  0  0  0  0  0  0  0  0  0  0
    4.6802   -5.0910   -8.5827 H   0  0  0  0  0  0  0  0  0  0  0  0
    4.4283   -5.4572  -10.3060 H   0  0  0  0  0  0  0  0  0  0  0  0
   -1.6470   -5.4851   -4.3766 H   0  0  0  0  0  0  0  0  0  0  0  0
   -2.4242   -4.1797   -5.3231 H   0  0  0  0  0  0  0  0  0  0  0  0
   -0.8795   -3.8746   -4.4676 H   0  0  0  0  0  0  0  0  0  0  0  0
    3.7545   -1.2698   -4.4918 H   0  0  0  0  0  0  0  0  0  0  0  0
    5.0791   -0.4330   -6.3885 H   0  0  0  0  0  0  0  0  0  0  0  0
  1  2  1  0
  1 36  1  0
  1 37  1  0
  1 38  1  0
  2  3  1  0
  3  4  2  0
  3 35  1  0
  4  5  1  0
  4 39  1  0
  5  6  2  0
  5 40  1  0
  6  7  1  0
  6 34  1  0
  7  8  1  1
  7  9  1  0
  7 18  1  0
  9 10  1  0
  9 41  1  0
  9 42  1  0
 10 11  1  0
 10 17  2  0
 11 12  2  0
 11 15  1  0
 12 13  1  0
 12 43  1  0
 13 14  2  0
 13 44  1  0
 14 15  1  0
 14 45  1  0
 15 16  1  0
 16 46  1  0
 16 47  1  0
 16 48  1  0
 17 18  1  0
 18 19  1  0
 19 20  2  0
 19 21  1  0
 21 22  1  0
 21 49  1  0
 21 50  1  0
 22 23  1  0
 22 31  1  0
 23 24  1  0
 23 51  1  0
 23 52  1  0
 24 25  1  0
 24 53  1  0
 24 54  1  0
 25 26  1  0
 25 30  1  0
 26 27  1  0
 26 55  1  0
 26 56  1  0
 27 28  1  0
 27 57  1  0
 27 58  1  0
 28 29  1  0
 29 30  1  0
 29 59  1  0
 29 60  1  0
 30 61  1  0
 30 62  1  0
 31 32  1  0
 31 33  2  0
 32 63  1  0
 32 64  1  0
 32 65  1  0
 34 35  2  0
 34 66  1  0
 35 67  1  0
M  END

