
     RDKit          3D

 20 21  0  0  0  0  0  0  0  0999 V2000
    1.0921    1.3651    0.3725 O   0  0  0  0  0  0  0  0  0  0  0  0
    2.5000    1.3518    0.4916 C   0  0  0  0  0  0  0  0  0  0  0  0
    3.0859    1.2107   -0.9113 C   0  0  0  0  0  0  0  0  0  0  0  0
    4.5788    1.1359   -0.9098 C   0  0  0  0  0  0  0  0  0  0  0  0
    5.2713    0.1685   -0.2155 N   0  0  0  0  0  0  0  0  0  0  0  0
    6.5191    0.4656   -0.4913 C   0  0  0  0  0  0  0  0  0  0  0  0
    6.5860    1.5356   -1.3156 N   0  0  0  0  0  0  0  0  0  0  0  0
    5.3444    1.9930   -1.5794 N   0  0  0  0  0  0  0  0  0  0  0  0
    7.8822    2.1138   -1.5965 C   0  0  0  0  0  0  0  0  0  0  0  0
    8.8699    0.9643   -1.3109 C   0  0  0  0  0  0  0  0  0  0  0  0
    8.1066   -0.1291   -0.0079 S   0  0  0  0  0  0  0  0  0  0  0  0
    0.7119    1.4112    1.2579 H   0  0  0  0  0  0  0  0  0  0  0  0
    2.8576    0.5085    1.1138 H   0  0  0  0  0  0  0  0  0  0  0  0
    2.8823    2.2849    0.9554 H   0  0  0  0  0  0  0  0  0  0  0  0
    2.7712    2.0599   -1.5349 H   0  0  0  0  0  0  0  0  0  0  0  0
    2.6667    0.2945   -1.3612 H   0  0  0  0  0  0  0  0  0  0  0  0
    8.0611    2.9819   -0.9373 H   0  0  0  0  0  0  0  0  0  0  0  0
    7.9430    2.4506   -2.6417 H   0  0  0  0  0  0  0  0  0  0  0  0
    9.8383    1.3264   -0.9426 H   0  0  0  0  0  0  0  0  0  0  0  0
    9.0352    0.3521   -2.2097 H   0  0  0  0  0  0  0  0  0  0  0  0
  1  2  1  0
  1 12  1  0
  2  3  1  0
  2 13  1  0
  2 14  1  0
  3  4  1  0
  3 15  1  0
  3 16  1  0
  4  5  1  0
  4  8  2  0
  5  6  2  0
  6  7  1  0
  6 11  1  0
  7  8  1  0
  7  9  1  0
  9 10  1  0
  9 17  1  0
  9 18  1  0
 10 11  1  0
 10 19  1  0
 10 20  1  0
M  END

