
     RDKit          3D

 47 50  0  0  0  0  0  0  0  0999 V2000
    0.9556    0.4610    0.3922 C   0  0  0  0  0  0  0  0  0  0  0  0
    2.4266    0.3377    0.1051 C   0  0  0  0  0  0  0  0  0  0  0  0
    2.8606   -0.9105   -0.2235 N   0  0  0  0  0  0  0  0  0  0  0  0
    4.1391   -1.0907   -0.4882 C   0  0  0  0  0  0  0  0  0  0  0  0
    4.6117   -2.3387   -0.8145 N   0  0  0  0  0  0  0  0  0  0  0  0
    3.9692   -3.5760   -0.9526 C   0  0  0  0  0  0  0  0  0  0  0  0
    2.5905   -3.7857   -0.7682 C   0  0  0  0  0  0  0  0  0  0  0  0
    2.0556   -5.0642   -0.9352 C   0  0  0  0  0  0  0  0  0  0  0  0
    2.8646   -6.1485   -1.2828 C   0  0  0  0  0  0  0  0  0  0  0  0
    2.2955   -7.5282   -1.4743 C   0  0  1  0  0  0  0  0  0  0  0  0
    0.9813   -7.5816   -1.2005 F   0  0  0  0  0  0  0  0  0  0  0  0
    2.4573   -7.9621   -2.7413 F   0  0  0  0  0  0  0  0  0  0  0  0
    2.9076   -8.4326   -0.6831 F   0  0  0  0  0  0  0  0  0  0  0  0
    4.2399   -5.9432   -1.4655 C   0  0  0  0  0  0  0  0  0  0  0  0
    4.7829   -4.6760   -1.3030 C   0  0  0  0  0  0  0  0  0  0  0  0
    5.0744    0.0163   -0.4408 C   0  0  0  0  0  0  0  0  0  0  0  0
    6.4613   -0.0484   -0.7189 C   0  0  0  0  0  0  0  0  0  0  0  0
    7.2581    1.0762   -0.6317 C   0  0  0  0  0  0  0  0  0  0  0  0
    6.7046    2.3331   -0.2624 C   0  0  0  0  0  0  0  0  0  0  0  0
    7.5394    3.5733   -0.2245 C   0  0  0  0  0  0  0  0  0  0  0  0
    7.1459    4.6489   -1.0409 C   0  0  0  0  0  0  0  0  0  0  0  0
    7.8641    5.8446   -1.0792 C   0  0  0  0  0  0  0  0  0  0  0  0
    9.0028    5.9958   -0.2875 C   0  0  0  0  0  0  0  0  0  0  0  0
    9.4053    4.9489    0.5419 C   0  0  0  0  0  0  0  0  0  0  0  0
    8.6893    3.7451    0.5836 C   0  0  0  0  0  0  0  0  0  0  0  0
    9.1850    2.6659    1.5252 C   0  0  1  0  0  0  0  0  0  0  0  0
    8.1872    2.0745    2.1996 F   0  0  0  0  0  0  0  0  0  0  0  0
    9.8511    1.6888    0.8665 F   0  0  0  0  0  0  0  0  0  0  0  0
   10.0415    3.1564    2.4378 F   0  0  0  0  0  0  0  0  0  0  0  0
    5.3439    2.4119   -0.0020 C   0  0  0  0  0  0  0  0  0  0  0  0
    4.5047    1.2712   -0.0800 C   0  0  0  0  0  0  0  0  0  0  0  0
    3.1746    1.4140    0.1910 N   0  0  0  0  0  0  0  0  0  0  0  0
    0.6741   -0.2025    1.2259 H   0  0  0  0  0  0  0  0  0  0  0  0
    0.3689    0.1398   -0.4838 H   0  0  0  0  0  0  0  0  0  0  0  0
    0.7031    1.4979    0.6451 H   0  0  0  0  0  0  0  0  0  0  0  0
    5.6081   -2.3816   -0.9807 H   0  0  0  0  0  0  0  0  0  0  0  0
    1.9605   -2.9440   -0.4956 H   0  0  0  0  0  0  0  0  0  0  0  0
    0.9849   -5.2159   -0.7893 H   0  0  0  0  0  0  0  0  0  0  0  0
    4.8891   -6.7792   -1.7349 H   0  0  0  0  0  0  0  0  0  0  0  0
    5.8575   -4.5292   -1.4483 H   0  0  0  0  0  0  0  0  0  0  0  0
    6.9357   -0.9874   -1.0174 H   0  0  0  0  0  0  0  0  0  0  0  0
    8.3222    1.0015   -0.8552 H   0  0  0  0  0  0  0  0  0  0  0  0
    6.2615    4.5283   -1.6701 H   0  0  0  0  0  0  0  0  0  0  0  0
    7.5321    6.6561   -1.7315 H   0  0  0  0  0  0  0  0  0  0  0  0
    9.5746    6.9264   -0.3068 H   0  0  0  0  0  0  0  0  0  0  0  0
   10.2808    5.0680    1.1809 H   0  0  0  0  0  0  0  0  0  0  0  0
    4.8734    3.3532    0.2867 H   0  0  0  0  0  0  0  0  0  0  0  0
  1  2  1  0
  1 33  1  0
  1 34  1  0
  1 35  1  0
  2  3  2  0
  2 32  1  0
  3  4  1  0
  4  5  1  0
  4 16  2  0
  5  6  1  0
  5 36  1  0
  6  7  2  0
  6 15  1  0
  7  8  1  0
  7 37  1  0
  8  9  2  0
  8 38  1  0
  9 10  1  0
  9 14  1  0
 10 11  1  1
 10 12  1  0
 10 13  1  0
 14 15  2  0
 14 39  1  0
 15 40  1  0
 16 17  1  0
 16 31  1  0
 17 18  2  0
 17 41  1  0
 18 19  1  0
 18 42  1  0
 19 20  1  0
 19 30  2  0
 20 21  2  0
 20 25  1  0
 21 22  1  0
 21 43  1  0
 22 23  2  0
 22 44  1  0
 23 24  1  0
 23 45  1  0
 24 25  2  0
 24 46  1  0
 25 26  1  0
 26 27  1  1
 26 28  1  0
 26 29  1  0
 30 31  1  0
 30 47  1  0
 31 32  2  0
M  END

