
     RDKit          3D

 48 51  0  0  0  0  0  0  0  0999 V2000
    3.0974   -1.0364   -0.3770 C   0  0  0  0  0  0  0  0  0  0  0  0
    2.7423   -0.1112    0.7852 C   0  0  0  0  0  0  0  0  0  0  0  0
    3.2008    1.2589    0.5864 N   0  0  0  0  0  0  0  0  0  0  0  0
    2.3901    2.2652    0.0630 C   0  0  0  0  0  0  0  0  0  0  0  0
    1.2303    2.1454   -0.2719 O   0  0  0  0  0  0  0  0  0  0  0  0
    3.2716    3.4661   -0.0063 C   0  0  0  0  0  0  0  0  0  0  0  0
    2.8259    4.6362   -0.5291 C   0  0  0  0  0  0  0  0  0  0  0  0
    3.5245    5.8650   -0.8815 C   0  0  0  0  0  0  0  0  0  0  0  0
    3.0240    7.1406   -0.6856 C   0  0  0  0  0  0  0  0  0  0  0  0
    3.8845    8.0902   -1.1871 N   0  0  0  0  0  0  0  0  0  0  0  0
    3.6706    9.5292   -1.1282 C   0  0  0  0  0  0  0  0  0  0  0  0
    4.5065   10.2548   -0.0870 C   0  0  0  0  0  0  0  0  0  0  0  0
    4.3164    9.9763    1.2750 C   0  0  0  0  0  0  0  0  0  0  0  0
    3.3732    9.0784    1.6050 F   0  0  0  0  0  0  0  0  0  0  0  0
    5.0360   10.5857    2.2957 C   0  0  0  0  0  0  0  0  0  0  0  0
    5.9965   11.5396    1.9535 C   0  0  0  0  0  0  0  0  0  0  0  0
    6.2134   11.8734    0.6166 C   0  0  0  0  0  0  0  0  0  0  0  0
    5.4699   11.2360   -0.3828 C   0  0  0  0  0  0  0  0  0  0  0  0
    5.7636   11.7249   -2.0430 Cl  0  0  0  0  0  0  0  0  0  0  0  0
    4.9679    7.4410   -1.7647 C   0  0  0  0  0  0  0  0  0  0  0  0
    6.0742    7.9640   -2.4502 C   0  0  0  0  0  0  0  0  0  0  0  0
    6.9834    7.0594   -2.9933 C   0  0  0  0  0  0  0  0  0  0  0  0
    6.7924    5.6672   -2.8707 C   0  0  0  0  0  0  0  0  0  0  0  0
    5.6965    5.1519   -2.1848 C   0  0  0  0  0  0  0  0  0  0  0  0
    4.7751    6.0398   -1.5991 C   0  0  0  0  0  0  0  0  0  0  0  0
    4.5015    3.0681    0.5375 N   0  0  0  0  0  0  0  0  0  0  0  0
    5.5782    3.9555    0.9519 C   0  0  0  0  0  0  0  0  0  0  0  0
    4.4653    1.7369    0.9031 C   0  0  0  0  0  0  0  0  0  0  0  0
    5.6836    0.8741    1.6230 S   0  0  0  0  0  0  0  0  0  0  0  0
    2.7188   -2.0512   -0.1764 H   0  0  0  0  0  0  0  0  0  0  0  0
    4.1885   -1.0980   -0.5065 H   0  0  0  0  0  0  0  0  0  0  0  0
    2.6451   -0.6835   -1.3167 H   0  0  0  0  0  0  0  0  0  0  0  0
    3.1935   -0.4737    1.7201 H   0  0  0  0  0  0  0  0  0  0  0  0
    1.6518   -0.0498    0.9134 H   0  0  0  0  0  0  0  0  0  0  0  0
    1.7490    4.6058   -0.7325 H   0  0  0  0  0  0  0  0  0  0  0  0
    2.1063    7.4425   -0.1851 H   0  0  0  0  0  0  0  0  0  0  0  0
    2.6038    9.6877   -0.9118 H   0  0  0  0  0  0  0  0  0  0  0  0
    3.8688    9.9626   -2.1174 H   0  0  0  0  0  0  0  0  0  0  0  0
    4.8303   10.3101    3.3312 H   0  0  0  0  0  0  0  0  0  0  0  0
    6.5773   12.0332    2.7358 H   0  0  0  0  0  0  0  0  0  0  0  0
    6.9526   12.6247    0.3371 H   0  0  0  0  0  0  0  0  0  0  0  0
    6.2200    9.0387   -2.5658 H   0  0  0  0  0  0  0  0  0  0  0  0
    7.8546    7.4373   -3.5340 H   0  0  0  0  0  0  0  0  0  0  0  0
    7.5137    4.9847   -3.3269 H   0  0  0  0  0  0  0  0  0  0  0  0
    5.5472    4.0723   -2.1128 H   0  0  0  0  0  0  0  0  0  0  0  0
    5.1704    4.9613    1.1116 H   0  0  0  0  0  0  0  0  0  0  0  0
    6.3779    4.0113    0.1997 H   0  0  0  0  0  0  0  0  0  0  0  0
    6.0079    3.5673    1.8848 H   0  0  0  0  0  0  0  0  0  0  0  0
  1  2  1  0
  1 30  1  0
  1 31  1  0
  1 32  1  0
  2  3  1  0
  2 33  1  0
  2 34  1  0
  3  4  1  0
  3 28  1  0
  4  5  2  0
  4  6  1  0
  6  7  2  0
  6 26  1  0
  7  8  1  0
  7 35  1  0
  8  9  2  0
  8 25  1  0
  9 10  1  0
  9 36  1  0
 10 11  1  0
 10 20  1  0
 11 12  1  0
 11 37  1  0
 11 38  1  0
 12 13  2  0
 12 18  1  0
 13 14  1  0
 13 15  1  0
 15 16  2  0
 15 39  1  0
 16 17  1  0
 16 40  1  0
 17 18  2  0
 17 41  1  0
 18 19  1  0
 20 21  1  0
 20 25  2  0
 21 22  2  0
 21 42  1  0
 22 23  1  0
 22 43  1  0
 23 24  2  0
 23 44  1  0
 24 25  1  0
 24 45  1  0
 26 27  1  0
 26 28  1  0
 27 46  1  0
 27 47  1  0
 27 48  1  0
 28 29  2  0
M  END

