
     RDKit          3D

 29 29  0  0  0  0  0  0  0  0999 V2000
    1.4500    2.2821    1.2130 C   0  0  0  0  0  0  0  0  0  0  0  0
    2.7606    1.6668    1.0074 N   0  0  0  0  0  0  0  0  0  0  0  0
    3.3446    1.0264    2.1826 C   0  0  0  0  0  0  0  0  0  0  0  0
    2.9632    0.8219   -0.4335 S   0  0  1  0  0  0  0  0  0  0  0  0
    2.7733   -0.6192   -0.2532 O   0  0  0  0  0  0  0  0  0  0  0  0
    2.1700    1.5411   -1.4358 O   0  0  0  0  0  0  0  0  0  0  0  0
    4.6149    1.0454   -0.6877 N   0  0  0  0  0  0  0  0  0  0  0  0
    5.3834   -0.0743   -1.2532 C   0  0  0  0  0  0  0  0  0  0  0  0
    5.4978    0.0497   -2.7711 C   0  0  0  0  0  0  0  0  0  0  0  0
    5.9776    1.3312   -3.1434 O   0  0  0  0  0  0  0  0  0  0  0  0
    5.1209    2.3662   -2.6989 C   0  0  0  0  0  0  0  0  0  0  0  0
    5.0249    2.3801   -1.1604 C   0  0  2  0  0  0  0  0  0  0  0  0
    6.3654    2.8161   -0.5621 C   0  0  0  0  0  0  0  0  0  0  0  0
    6.3948    2.8103    1.2388 Cl  0  0  0  0  0  0  0  0  0  0  0  0
    1.5556    3.0613    1.9837 H   0  0  0  0  0  0  0  0  0  0  0  0
    0.6854    1.5566    1.5515 H   0  0  0  0  0  0  0  0  0  0  0  0
    1.1096    2.7483    0.2814 H   0  0  0  0  0  0  0  0  0  0  0  0
    3.4167    1.7776    2.9837 H   0  0  0  0  0  0  0  0  0  0  0  0
    4.3620    0.6878    1.9513 H   0  0  0  0  0  0  0  0  0  0  0  0
    2.7431    0.1706    2.5404 H   0  0  0  0  0  0  0  0  0  0  0  0
    4.8945   -1.0136   -0.9660 H   0  0  0  0  0  0  0  0  0  0  0  0
    6.3852   -0.0624   -0.7909 H   0  0  0  0  0  0  0  0  0  0  0  0
    4.5082   -0.1373   -3.2352 H   0  0  0  0  0  0  0  0  0  0  0  0
    6.2109   -0.6883   -3.1695 H   0  0  0  0  0  0  0  0  0  0  0  0
    4.1007    2.2375   -3.1056 H   0  0  0  0  0  0  0  0  0  0  0  0
    5.5357    3.3121   -3.0807 H   0  0  0  0  0  0  0  0  0  0  0  0
    4.2523    3.0971   -0.8487 H   0  0  0  0  0  0  0  0  0  0  0  0
    6.5842    3.8444   -0.8805 H   0  0  0  0  0  0  0  0  0  0  0  0
    7.1835    2.1714   -0.9066 H   0  0  0  0  0  0  0  0  0  0  0  0
  1  2  1  0
  1 15  1  0
  1 16  1  0
  1 17  1  0
  2  3  1  0
  4  2  1  1
  3 18  1  0
  3 19  1  0
  3 20  1  0
  4  5  2  0
  4  6  2  0
  4  7  1  0
  7  8  1  0
  7 12  1  0
  8  9  1  0
  8 21  1  0
  8 22  1  0
  9 10  1  0
  9 23  1  0
  9 24  1  0
 10 11  1  0
 11 12  1  0
 11 25  1  0
 11 26  1  0
 12 13  1  0
 12 27  1  6
 13 14  1  0
 13 28  1  0
 13 29  1  0
M  END

