
     RDKit          3D

 38 39  0  0  0  0  0  0  0  0999 V2000
    1.3193    0.5265   -0.3606 C   0  0  0  0  0  0  0  0  0  0  0  0
    2.7508    0.4993   -0.5947 N   0  0  0  0  0  0  0  0  0  0  0  0
    3.3546   -0.6978   -0.9380 C   0  0  0  0  0  0  0  0  0  0  0  0
    2.7072   -1.7176   -1.1236 O   0  0  0  0  0  0  0  0  0  0  0  0
    4.7361   -0.6607   -1.0901 N   0  0  0  0  0  0  0  0  0  0  0  0
    5.4658   -1.9196   -1.1996 C   0  0  0  0  0  0  0  0  0  0  0  0
    6.4347   -1.8948   -2.3793 C   0  0  0  0  0  0  0  0  0  0  0  0
    7.2903   -0.7121   -2.3119 N   0  0  0  0  0  0  0  0  0  0  0  0
    8.6599   -0.8506   -2.3941 C   0  0  0  0  0  0  0  0  0  0  0  0
    9.1843   -1.9493   -2.4956 O   0  0  0  0  0  0  0  0  0  0  0  0
    9.5057    0.4249   -2.3542 C   0  0  0  0  0  0  0  0  0  0  0  0
   10.9988    0.1352   -2.4032 C   0  0  1  0  0  0  0  0  0  0  0  0
   11.9891    1.3290   -2.3211 C   0  0  0  0  0  0  0  0  0  0  0  0
   12.9095    0.4559   -1.4290 C   0  0  0  0  0  0  0  0  0  0  0  0
   11.7025   -0.4808   -1.1652 C   0  0  0  0  0  0  0  0  0  0  0  0
    6.5509    0.5361   -2.2458 C   0  0  0  0  0  0  0  0  0  0  0  0
    5.5618    0.5324   -1.0674 C   0  0  0  0  0  0  0  0  0  0  0  0
    0.9572    1.5639   -0.4212 H   0  0  0  0  0  0  0  0  0  0  0  0
    1.0319    0.1061    0.6211 H   0  0  0  0  0  0  0  0  0  0  0  0
    0.8184   -0.0720   -1.1324 H   0  0  0  0  0  0  0  0  0  0  0  0
    3.3008    1.1726   -0.0763 H   0  0  0  0  0  0  0  0  0  0  0  0
    4.7263   -2.7209   -1.3182 H   0  0  0  0  0  0  0  0  0  0  0  0
    6.0366   -2.1025   -0.2676 H   0  0  0  0  0  0  0  0  0  0  0  0
    5.8626   -1.8800   -3.3262 H   0  0  0  0  0  0  0  0  0  0  0  0
    7.0849   -2.7780   -2.3781 H   0  0  0  0  0  0  0  0  0  0  0  0
    9.2672    1.0013   -1.4420 H   0  0  0  0  0  0  0  0  0  0  0  0
    9.2221    1.0724   -3.2045 H   0  0  0  0  0  0  0  0  0  0  0  0
   11.2140   -0.4823   -3.2889 H   0  0  0  0  0  0  0  0  0  0  0  0
   11.5597    2.1744   -1.7571 H   0  0  0  0  0  0  0  0  0  0  0  0
   12.4010    1.7190   -3.2658 H   0  0  0  0  0  0  0  0  0  0  0  0
   13.3833    0.9394   -0.5607 H   0  0  0  0  0  0  0  0  0  0  0  0
   13.6955   -0.0435   -2.0173 H   0  0  0  0  0  0  0  0  0  0  0  0
   11.1785   -0.2174   -0.2306 H   0  0  0  0  0  0  0  0  0  0  0  0
   11.8689   -1.5673   -1.1737 H   0  0  0  0  0  0  0  0  0  0  0  0
    5.9772    0.6769   -3.1828 H   0  0  0  0  0  0  0  0  0  0  0  0
    7.2331    1.3877   -2.1429 H   0  0  0  0  0  0  0  0  0  0  0  0
    4.9307    1.4266   -1.1552 H   0  0  0  0  0  0  0  0  0  0  0  0
    6.1338    0.6018   -0.1189 H   0  0  0  0  0  0  0  0  0  0  0  0
  1  2  1  0
  1 18  1  0
  1 19  1  0
  1 20  1  0
  2  3  1  0
  2 21  1  0
  3  4  2  0
  3  5  1  0
  5  6  1  0
  5 17  1  0
  6  7  1  0
  6 22  1  0
  6 23  1  0
  7  8  1  0
  7 24  1  0
  7 25  1  0
  8  9  1  0
  8 16  1  0
  9 10  2  0
  9 11  1  0
 11 12  1  0
 11 26  1  0
 11 27  1  0
 12 13  1  0
 12 15  1  0
 12 28  1  6
 13 14  1  0
 13 29  1  0
 13 30  1  0
 14 15  1  0
 14 31  1  0
 14 32  1  0
 15 33  1  0
 15 34  1  0
 16 17  1  0
 16 35  1  0
 16 36  1  0
 17 37  1  0
 17 38  1  0
M  END

