
     RDKit          3D

 86 92  0  0  0  0  0  0  0  0999 V2000
    3.0212   -1.7943   10.2851 C   0  0  0  0  0  0  0  0  0  0  0  0
    4.0471   -2.6222    9.7909 O   0  0  0  0  0  0  0  0  0  0  0  0
    4.2895   -2.6503    8.4532 C   0  0  0  0  0  0  0  0  0  0  0  0
    5.3309   -3.4932    8.0282 C   0  0  0  0  0  0  0  0  0  0  0  0
    5.6502   -3.5879    6.6776 C   0  0  0  0  0  0  0  0  0  0  0  0
    4.9503   -2.8524    5.7017 C   0  0  0  0  0  0  0  0  0  0  0  0
    5.2918   -2.9565    4.2208 C   0  0  2  0  0  0  0  0  0  0  0  0
    4.5543   -2.3489    3.6766 H   0  0  0  0  0  0  0  0  0  0  0  0
    5.1841   -4.4110    3.7317 C   0  0  0  0  0  0  0  0  0  0  0  0
    5.5082   -4.5700    2.2397 C   0  0  2  0  0  0  0  0  0  0  0  0
    4.5713   -3.8175    1.4444 O   0  0  0  0  0  0  0  0  0  0  0  0
    5.4799   -6.0451    1.8235 C   0  0  0  0  0  0  0  0  0  0  0  0
    4.8041   -6.4704    0.6701 C   0  0  0  0  0  0  0  0  0  0  0  0
    4.8350   -7.8260    0.3356 C   0  0  0  0  0  0  0  0  0  0  0  0
    5.5397   -8.7095    1.1543 C   0  0  0  0  0  0  0  0  0  0  0  0
    6.1898   -8.1865    2.2768 C   0  0  0  0  0  0  0  0  0  0  0  0
    6.1619   -6.8943    2.6027 N   0  0  0  0  0  0  0  0  0  0  0  0
    6.8990   -3.9860    1.9469 C   0  0  0  0  0  0  0  0  0  0  0  0
    7.0562   -2.5053    2.3671 C   0  0  2  0  0  0  0  0  0  0  0  0
    6.2651   -1.6769    1.5456 O   0  0  0  0  0  0  0  0  0  0  0  0
    8.5208   -2.1115    2.1386 C   0  0  0  0  0  0  0  0  0  0  0  0
    8.8627   -1.0685    1.2661 C   0  0  0  0  0  0  0  0  0  0  0  0
   10.2137   -0.7777    1.0704 C   0  0  0  0  0  0  0  0  0  0  0  0
   11.1759   -1.5347    1.7420 C   0  0  0  0  0  0  0  0  0  0  0  0
   10.7332   -2.5532    2.5910 C   0  0  0  0  0  0  0  0  0  0  0  0
    9.4440   -2.8337    2.7864 N   0  0  0  0  0  0  0  0  0  0  0  0
    6.6778   -2.3378    3.8932 C   0  0  1  0  0  0  0  0  0  0  0  0
    7.4502   -2.8795    4.4549 H   0  0  0  0  0  0  0  0  0  0  0  0
    6.6630   -0.8495    4.2775 C   0  0  0  0  0  0  0  0  0  0  0  0
    5.6795   -0.1774    4.0166 O   0  0  0  0  0  0  0  0  0  0  0  0
    7.8318   -0.2213    4.9709 C   0  0  0  0  0  0  0  0  0  0  0  0
    7.8012    1.1742    5.1658 C   0  0  0  0  0  0  0  0  0  0  0  0
    8.8303    1.8392    5.8167 C   0  0  0  0  0  0  0  0  0  0  0  0
    9.9385    1.1244    6.3219 C   0  0  0  0  0  0  0  0  0  0  0  0
   10.9879    1.7936    6.9868 N   0  0  0  0  0  0  0  0  0  0  0  0
   10.7160    2.9288    7.8015 C   0  0  0  0  0  0  0  0  0  0  0  0
    9.6494    2.9137    8.7179 C   0  0  0  0  0  0  0  0  0  0  0  0
    9.3874    4.0310    9.5126 C   0  0  0  0  0  0  0  0  0  0  0  0
   10.1912    5.1721    9.4219 C   0  0  0  0  0  0  0  0  0  0  0  0
   11.2590    5.1870    8.5189 C   0  0  0  0  0  0  0  0  0  0  0  0
   11.5178    4.0801    7.7086 C   0  0  0  0  0  0  0  0  0  0  0  0
   12.3315    1.3458    6.8526 C   0  0  0  0  0  0  0  0  0  0  0  0
   12.8482    0.9925    5.5928 C   0  0  0  0  0  0  0  0  0  0  0  0
   14.1688    0.5578    5.4696 C   0  0  0  0  0  0  0  0  0  0  0  0
   15.0013    0.4830    6.5911 C   0  0  0  0  0  0  0  0  0  0  0  0
   14.4940    0.8419    7.8438 C   0  0  0  0  0  0  0  0  0  0  0  0
   13.1698    1.2626    7.9788 C   0  0  0  0  0  0  0  0  0  0  0  0
    9.9691   -0.2723    6.1430 C   0  0  0  0  0  0  0  0  0  0  0  0
    8.9390   -0.9275    5.4728 C   0  0  0  0  0  0  0  0  0  0  0  0
    3.9203   -2.0147    6.1440 C   0  0  0  0  0  0  0  0  0  0  0  0
    3.5821   -1.9067    7.4986 C   0  0  0  0  0  0  0  0  0  0  0  0
    3.0058   -1.9290   11.3754 H   0  0  0  0  0  0  0  0  0  0  0  0
    2.0319   -2.0731    9.8778 H   0  0  0  0  0  0  0  0  0  0  0  0
    3.2059   -0.7277   10.0604 H   0  0  0  0  0  0  0  0  0  0  0  0
    5.8755   -4.0654    8.7822 H   0  0  0  0  0  0  0  0  0  0  0  0
    6.4652   -4.2540    6.3808 H   0  0  0  0  0  0  0  0  0  0  0  0
    4.1642   -4.7903    3.9266 H   0  0  0  0  0  0  0  0  0  0  0  0
    5.8631   -5.0723    4.2882 H   0  0  0  0  0  0  0  0  0  0  0  0
    3.6784   -3.9858    1.7778 H   0  0  0  0  0  0  0  0  0  0  0  0
    4.2787   -5.7435    0.0510 H   0  0  0  0  0  0  0  0  0  0  0  0
    4.3171   -8.1858   -0.5576 H   0  0  0  0  0  0  0  0  0  0  0  0
    5.5910   -9.7775    0.9315 H   0  0  0  0  0  0  0  0  0  0  0  0
    6.7598   -8.8455    2.9427 H   0  0  0  0  0  0  0  0  0  0  0  0
    7.1038   -4.0556    0.8665 H   0  0  0  0  0  0  0  0  0  0  0  0
    7.6473   -4.5956    2.4699 H   0  0  0  0  0  0  0  0  0  0  0  0
    5.4255   -2.1420    1.3914 H   0  0  0  0  0  0  0  0  0  0  0  0
    8.0714   -0.5150    0.7634 H   0  0  0  0  0  0  0  0  0  0  0  0
   10.5115    0.0310    0.3973 H   0  0  0  0  0  0  0  0  0  0  0  0
   12.2442   -1.3465    1.6128 H   0  0  0  0  0  0  0  0  0  0  0  0
   11.4562   -3.1700    3.1383 H   0  0  0  0  0  0  0  0  0  0  0  0
    6.9430    1.7241    4.7754 H   0  0  0  0  0  0  0  0  0  0  0  0
    8.7891    2.9231    5.9358 H   0  0  0  0  0  0  0  0  0  0  0  0
    9.0270    2.0208    8.8027 H   0  0  0  0  0  0  0  0  0  0  0  0
    8.5539    4.0026   10.2193 H   0  0  0  0  0  0  0  0  0  0  0  0
    9.9872    6.0424   10.0501 H   0  0  0  0  0  0  0  0  0  0  0  0
   11.8919    6.0742    8.4334 H   0  0  0  0  0  0  0  0  0  0  0  0
   12.3450    4.1012    6.9965 H   0  0  0  0  0  0  0  0  0  0  0  0
   12.2074    1.0592    4.7115 H   0  0  0  0  0  0  0  0  0  0  0  0
   14.5544    0.2881    4.4828 H   0  0  0  0  0  0  0  0  0  0  0  0
   16.0365    0.1488    6.4894 H   0  0  0  0  0  0  0  0  0  0  0  0
   15.1309    0.7830    8.7303 H   0  0  0  0  0  0  0  0  0  0  0  0
   12.7758    1.5306    8.9610 H   0  0  0  0  0  0  0  0  0  0  0  0
   10.8084   -0.8476    6.5367 H   0  0  0  0  0  0  0  0  0  0  0  0
    9.0078   -2.0082    5.3494 H   0  0  0  0  0  0  0  0  0  0  0  0
    3.3747   -1.4127    5.4132 H   0  0  0  0  0  0  0  0  0  0  0  0
    2.7733   -1.2370    7.7922 H   0  0  0  0  0  0  0  0  0  0  0  0
  1  2  1  0
  1 52  1  0
  1 53  1  0
  1 54  1  0
  2  3  1  0
  3  4  2  0
  3 51  1  0
  4  5  1  0
  4 55  1  0
  5  6  2  0
  5 56  1  0
  6  7  1  0
  6 50  1  0
  7  8  1  6
  7  9  1  0
  7 27  1  0
  9 10  1  0
  9 57  1  0
  9 58  1  0
 10 11  1  6
 10 12  1  0
 10 18  1  0
 11 59  1  0
 12 13  2  0
 12 17  1  0
 13 14  1  0
 13 60  1  0
 14 15  2  0
 14 61  1  0
 15 16  1  0
 15 62  1  0
 16 17  2  0
 16 63  1  0
 18 19  1  0
 18 64  1  0
 18 65  1  0
 19 20  1  6
 19 21  1  0
 19 27  1  0
 20 66  1  0
 21 22  2  0
 21 26  1  0
 22 23  1  0
 22 67  1  0
 23 24  2  0
 23 68  1  0
 24 25  1  0
 24 69  1  0
 25 26  2  0
 25 70  1  0
 27 28  1  1
 27 29  1  0
 29 30  2  0
 29 31  1  0
 31 32  2  0
 31 49  1  0
 32 33  1  0
 32 71  1  0
 33 34  2  0
 33 72  1  0
 34 35  1  0
 34 48  1  0
 35 36  1  0
 35 42  1  0
 36 37  2  0
 36 41  1  0
 37 38  1  0
 37 73  1  0
 38 39  2  0
 38 74  1  0
 39 40  1  0
 39 75  1  0
 40 41  2  0
 40 76  1  0
 41 77  1  0
 42 43  2  0
 42 47  1  0
 43 44  1  0
 43 78  1  0
 44 45  2  0
 44 79  1  0
 45 46  1  0
 45 80  1  0
 46 47  2  0
 46 81  1  0
 47 82  1  0
 48 49  2  0
 48 83  1  0
 49 84  1  0
 50 51  2  0
 50 85  1  0
 51 86  1  0
M  END

