
     RDKit          3D

 43 44  0  0  0  0  0  0  0  0999 V2000
    2.6797   -1.3636    0.2774 C   0  0  0  0  0  0  0  0  0  0  0  0
    2.8153    0.1593    0.2688 C   0  0  0  0  0  0  0  0  0  0  0  0
    3.0283    0.7386   -1.0698 N   0  0  0  0  0  0  0  0  0  0  0  0
    1.8955    1.4037   -1.7261 C   0  0  0  0  0  0  0  0  0  0  0  0
    1.0171    0.4628   -2.5747 C   0  0  0  0  0  0  0  0  0  0  0  0
   -0.0821    1.2161   -3.2864 C   0  0  0  0  0  0  0  0  0  0  0  0
    0.1904    1.9765   -4.4344 C   0  0  0  0  0  0  0  0  0  0  0  0
   -0.8490    2.6826   -5.0455 C   0  0  0  0  0  0  0  0  0  0  0  0
   -2.1089    2.6825   -4.5987 N   0  0  0  0  0  0  0  0  0  0  0  0
   -2.3702    1.9614   -3.5069 C   0  0  0  0  0  0  0  0  0  0  0  0
   -1.4033    1.2198   -2.8200 C   0  0  0  0  0  0  0  0  0  0  0  0
    4.2851    0.6341   -1.5662 C   0  0  0  0  0  0  0  0  0  0  0  0
    5.2126    0.1360   -0.9272 O   0  0  0  0  0  0  0  0  0  0  0  0
    4.6010    1.1390   -3.0065 C   0  0  0  0  0  0  0  0  0  0  0  0
    3.7719    1.4890   -3.8306 O   0  0  0  0  0  0  0  0  0  0  0  0
    5.9481    1.0930   -3.1993 N   0  0  0  0  0  0  0  0  0  0  0  0
    6.6926    1.4268   -4.3363 C   0  0  0  0  0  0  0  0  0  0  0  0
    8.0907    1.2608   -4.2791 C   0  0  0  0  0  0  0  0  0  0  0  0
    8.8921    1.5777   -5.3749 C   0  0  0  0  0  0  0  0  0  0  0  0
    8.3238    2.0677   -6.5527 C   0  0  0  0  0  0  0  0  0  0  0  0
    6.9392    2.2246   -6.5881 C   0  0  0  0  0  0  0  0  0  0  0  0
    6.3140    2.7438   -7.8296 N   0  0  0  0  0  0  0  0  0  0  0  0
    7.0551    3.0072   -8.7625 O   0  0  0  0  0  0  0  0  0  0  0  0
    5.1021    2.8750   -7.8404 O   0  0  0  0  0  0  0  0  0  0  0  0
    6.1062    1.9179   -5.5145 C   0  0  0  0  0  0  0  0  0  0  0  0
    2.5221   -1.7172    1.3089 H   0  0  0  0  0  0  0  0  0  0  0  0
    3.5965   -1.8350   -0.1046 H   0  0  0  0  0  0  0  0  0  0  0  0
    1.8275   -1.7031   -0.3314 H   0  0  0  0  0  0  0  0  0  0  0  0
    3.6677    0.4513    0.9004 H   0  0  0  0  0  0  0  0  0  0  0  0
    1.9119    0.6303    0.6829 H   0  0  0  0  0  0  0  0  0  0  0  0
    2.2680    2.2144   -2.3591 H   0  0  0  0  0  0  0  0  0  0  0  0
    1.2863    1.8608   -0.9307 H   0  0  0  0  0  0  0  0  0  0  0  0
    0.5811   -0.3201   -1.9340 H   0  0  0  0  0  0  0  0  0  0  0  0
    1.6661   -0.0304   -3.3136 H   0  0  0  0  0  0  0  0  0  0  0  0
    1.2022    2.0128   -4.8466 H   0  0  0  0  0  0  0  0  0  0  0  0
   -0.6495    3.2767   -5.9455 H   0  0  0  0  0  0  0  0  0  0  0  0
   -3.4084    1.9671   -3.1525 H   0  0  0  0  0  0  0  0  0  0  0  0
   -1.6848    0.6443   -1.9334 H   0  0  0  0  0  0  0  0  0  0  0  0
    6.4376    0.7113   -2.3876 H   0  0  0  0  0  0  0  0  0  0  0  0
    8.5478    0.8789   -3.3623 H   0  0  0  0  0  0  0  0  0  0  0  0
    9.9737    1.4409   -5.3089 H   0  0  0  0  0  0  0  0  0  0  0  0
    8.9199    2.3253   -7.4267 H   0  0  0  0  0  0  0  0  0  0  0  0
    5.0322    2.0563   -5.5959 H   0  0  0  0  0  0  0  0  0  0  0  0
  1  2  1  0
  1 26  1  0
  1 27  1  0
  1 28  1  0
  2  3  1  0
  2 29  1  0
  2 30  1  0
  3  4  1  0
  3 12  1  0
  4  5  1  0
  4 31  1  0
  4 32  1  0
  5  6  1  0
  5 33  1  0
  5 34  1  0
  6  7  2  0
  6 11  1  0
  7  8  1  0
  7 35  1  0
  8  9  2  0
  8 36  1  0
  9 10  1  0
 10 11  2  0
 10 37  1  0
 11 38  1  0
 12 13  2  0
 12 14  1  0
 14 15  2  0
 14 16  1  0
 16 17  1  0
 16 39  1  0
 17 18  2  0
 17 25  1  0
 18 19  1  0
 18 40  1  0
 19 20  2  0
 19 41  1  0
 20 21  1  0
 20 42  1  0
 21 22  1  0
 21 25  2  0
 22 23  2  0
 22 24  1  0
 25 43  1  0
M  CHG  2  22   1  24  -1
M  END

