
     RDKit          3D

 21 22  0  0  0  0  0  0  0  0999 V2000
    1.4956    0.3737    1.2762 N   0  0  0  0  0  0  0  0  0  0  0  0
    2.7065    0.1389    0.7687 C   0  0  0  0  0  0  0  0  0  0  0  0
    3.7367    0.9777    0.6893 N   0  0  0  0  0  0  0  0  0  0  0  0
    4.5317   -0.0486    0.1140 C   0  0  0  0  0  0  0  0  0  0  0  0
    6.0774   -0.1113   -0.3763 S   0  0  0  0  0  0  0  0  0  0  0  0
    3.3895   -1.0272    0.1596 C   0  0  0  0  0  0  0  0  0  0  0  0
    3.2265   -2.3148   -0.1833 C   0  0  0  0  0  0  0  0  0  0  0  0
    2.0120   -3.1353   -0.1107 C   0  0  0  0  0  0  0  0  0  0  0  0
    0.7166   -2.5912   -0.2414 C   0  0  0  0  0  0  0  0  0  0  0  0
   -0.4195   -3.3956   -0.1541 C   0  0  0  0  0  0  0  0  0  0  0  0
   -0.2626   -4.7651    0.0570 C   0  0  0  0  0  0  0  0  0  0  0  0
   -1.3493   -5.5414    0.1407 F   0  0  0  0  0  0  0  0  0  0  0  0
    1.0005   -5.3447    0.1636 C   0  0  0  0  0  0  0  0  0  0  0  0
    2.1271   -4.5290    0.0696 C   0  0  0  0  0  0  0  0  0  0  0  0
    1.3130    1.2732    1.7087 H   0  0  0  0  0  0  0  0  0  0  0  0
    0.8274   -0.3752    1.3992 H   0  0  0  0  0  0  0  0  0  0  0  0
    4.1382   -2.8056   -0.5459 H   0  0  0  0  0  0  0  0  0  0  0  0
    0.5980   -1.5282   -0.4631 H   0  0  0  0  0  0  0  0  0  0  0  0
   -1.4243   -2.9840   -0.2691 H   0  0  0  0  0  0  0  0  0  0  0  0
    1.0846   -6.4229    0.3131 H   0  0  0  0  0  0  0  0  0  0  0  0
    3.1207   -4.9771    0.1495 H   0  0  0  0  0  0  0  0  0  0  0  0
  1  2  1  0
  1 15  1  0
  1 16  1  0
  2  3  2  0
  2  6  1  0
  3  4  1  0
  4  5  2  0
  4  6  1  0
  6  7  2  0
  7  8  1  0
  7 17  1  0
  8  9  2  0
  8 14  1  0
  9 10  1  0
  9 18  1  0
 10 11  2  0
 10 19  1  0
 11 12  1  0
 11 13  1  0
 13 14  2  0
 13 20  1  0
 14 21  1  0
M  END

