
     RDKit          3D

 37 36  0  0  0  0  0  0  0  0999 V2000
    1.9036   -0.9312    0.9633 C   0  0  0  0  0  0  0  0  0  0  0  0
    2.5780   -0.0507    0.2182 C   0  0  0  0  0  0  0  0  0  0  0  0
    3.2508   -0.3454   -1.0937 C   0  0  0  0  0  0  0  0  0  0  0  0
    4.7625   -0.0701   -1.0763 C   0  0  0  0  0  0  0  0  0  0  0  0
    5.4443   -0.3298   -2.4196 C   0  0  0  0  0  0  0  0  0  0  0  0
    6.8613   -0.0216   -2.3571 N   0  0  0  0  0  0  0  0  0  0  0  0
    7.6305   -0.2611   -3.5703 C   0  0  1  0  0  0  0  0  0  0  0  0
    7.3926    0.8254   -4.6222 C   0  0  0  0  0  0  0  0  0  0  0  0
    9.1162   -0.3371   -3.1921 C   0  0  0  0  0  0  0  0  0  0  0  0
    9.3580   -1.3966   -2.2226 N   0  0  0  0  0  0  0  0  0  0  0  0
   10.7102   -1.4802   -1.6626 C   0  0  1  0  0  0  0  0  0  0  0  0
   10.9613   -0.3570   -0.6515 C   0  0  0  0  0  0  0  0  0  0  0  0
   10.8930   -2.8524   -1.0112 C   0  0  0  0  0  0  0  0  0  0  0  0
    1.4421   -0.6448    1.9127 H   0  0  0  0  0  0  0  0  0  0  0  0
    1.7839   -1.9742    0.6499 H   0  0  0  0  0  0  0  0  0  0  0  0
    2.6720    0.9830    0.5786 H   0  0  0  0  0  0  0  0  0  0  0  0
    2.7897    0.2805   -1.8820 H   0  0  0  0  0  0  0  0  0  0  0  0
    3.0613   -1.3946   -1.3803 H   0  0  0  0  0  0  0  0  0  0  0  0
    5.2351   -0.6972   -0.2984 H   0  0  0  0  0  0  0  0  0  0  0  0
    4.9562    0.9765   -0.7840 H   0  0  0  0  0  0  0  0  0  0  0  0
    4.9672    0.3042   -3.1881 H   0  0  0  0  0  0  0  0  0  0  0  0
    5.2458   -1.3827   -2.7355 H   0  0  0  0  0  0  0  0  0  0  0  0
    7.3027   -0.5650   -1.6130 H   0  0  0  0  0  0  0  0  0  0  0  0
    7.3579   -1.2430   -4.0339 H   0  0  0  0  0  0  0  0  0  0  0  0
    7.6667    1.8135   -4.2185 H   0  0  0  0  0  0  0  0  0  0  0  0
    6.3359    0.8686   -4.9271 H   0  0  0  0  0  0  0  0  0  0  0  0
    7.9896    0.6349   -5.5288 H   0  0  0  0  0  0  0  0  0  0  0  0
    9.3996    0.6279   -2.7414 H   0  0  0  0  0  0  0  0  0  0  0  0
    9.7226   -0.4496   -4.1179 H   0  0  0  0  0  0  0  0  0  0  0  0
    9.1199   -2.2923   -2.6491 H   0  0  0  0  0  0  0  0  0  0  0  0
   11.4735   -1.3841   -2.4695 H   0  0  0  0  0  0  0  0  0  0  0  0
   10.2483   -0.4295    0.1857 H   0  0  0  0  0  0  0  0  0  0  0  0
   10.8496    0.6397   -1.1048 H   0  0  0  0  0  0  0  0  0  0  0  0
   11.9844   -0.4219   -0.2480 H   0  0  0  0  0  0  0  0  0  0  0  0
   10.1524   -2.9978   -0.2077 H   0  0  0  0  0  0  0  0  0  0  0  0
   11.8994   -2.9535   -0.5771 H   0  0  0  0  0  0  0  0  0  0  0  0
   10.7633   -3.6654   -1.7457 H   0  0  0  0  0  0  0  0  0  0  0  0
  1  2  2  0
  1 14  1  0
  1 15  1  0
  2  3  1  0
  2 16  1  0
  3  4  1  0
  3 17  1  0
  3 18  1  0
  4  5  1  0
  4 19  1  0
  4 20  1  0
  5  6  1  0
  5 21  1  0
  5 22  1  0
  6  7  1  0
  6 23  1  0
  7  8  1  0
  7  9  1  0
  7 24  1  6
  8 25  1  0
  8 26  1  0
  8 27  1  0
  9 10  1  0
  9 28  1  0
  9 29  1  0
 10 11  1  0
 10 30  1  0
 11 12  1  0
 11 13  1  0
 11 31  1  6
 12 32  1  0
 12 33  1  0
 12 34  1  0
 13 35  1  0
 13 36  1  0
 13 37  1  0
M  END

