
     RDKit          3D

 28 28  0  0  0  0  0  0  0  0999 V2000
    3.2354    1.2356    0.2265 C   0  0  0  0  0  0  0  0  0  0  0  0
    2.6349   -0.0729    0.3369 N   0  0  0  0  0  0  0  0  0  0  0  0
    3.1399   -1.1782   -0.2418 C   0  0  0  0  0  0  0  0  0  0  0  0
    4.5890   -1.1460   -1.2155 S   0  0  0  0  0  0  0  0  0  0  0  0
    4.5629   -2.8012   -1.5572 N   0  0  0  0  0  0  0  0  0  0  0  0
    3.5301   -3.3670   -0.9789 C   0  0  0  0  0  0  0  0  0  0  0  0
    3.3274   -4.8436   -1.1611 C   0  0  0  0  0  0  0  0  0  0  0  0
    2.6641   -2.5023   -0.2042 C   0  0  0  0  0  0  0  0  0  0  0  0
    1.4721   -2.9669    0.5043 C   0  0  0  0  0  0  0  0  0  0  0  0
    1.0632   -4.1083    0.5334 O   0  0  0  0  0  0  0  0  0  0  0  0
    0.8255   -1.9514    1.1627 O   0  0  0  0  0  0  0  0  0  0  0  0
   -0.3743   -2.2857    1.9064 C   0  0  1  0  0  0  0  0  0  0  0  0
    0.0003   -2.7918    3.2945 C   0  0  0  0  0  0  0  0  0  0  0  0
   -1.2373   -1.0329    1.9249 C   0  0  0  0  0  0  0  0  0  0  0  0
    2.6241    1.9628    0.7773 H   0  0  0  0  0  0  0  0  0  0  0  0
    3.2979    1.5675   -0.8262 H   0  0  0  0  0  0  0  0  0  0  0  0
    4.2578    1.2558    0.6473 H   0  0  0  0  0  0  0  0  0  0  0  0
    1.7948   -0.2230    0.8878 H   0  0  0  0  0  0  0  0  0  0  0  0
    4.1330   -5.2421   -1.7918 H   0  0  0  0  0  0  0  0  0  0  0  0
    2.3512   -5.0518   -1.6244 H   0  0  0  0  0  0  0  0  0  0  0  0
    3.3204   -5.3618   -0.1904 H   0  0  0  0  0  0  0  0  0  0  0  0
   -0.8825   -3.0911    1.3551 H   0  0  0  0  0  0  0  0  0  0  0  0
    0.5655   -2.0268    3.8514 H   0  0  0  0  0  0  0  0  0  0  0  0
    0.6110   -3.7027    3.2203 H   0  0  0  0  0  0  0  0  0  0  0  0
   -0.9080   -3.0354    3.8683 H   0  0  0  0  0  0  0  0  0  0  0  0
   -0.7372   -0.2133    2.4674 H   0  0  0  0  0  0  0  0  0  0  0  0
   -2.1932   -1.2374    2.4314 H   0  0  0  0  0  0  0  0  0  0  0  0
   -1.4564   -0.6923    0.9014 H   0  0  0  0  0  0  0  0  0  0  0  0
  1  2  1  0
  1 15  1  0
  1 16  1  0
  1 17  1  0
  2  3  1  0
  2 18  1  0
  3  4  2  0
  3  8  1  0
  4  5  1  0
  5  6  2  0
  6  7  1  0
  6  8  1  0
  7 19  1  0
  7 20  1  0
  7 21  1  0
  8  9  2  0
  9 10  1  0
  9 11  1  0
 11 12  1  0
 12 13  1  0
 12 14  1  0
 12 22  1  6
 13 23  1  0
 13 24  1  0
 13 25  1  0
 14 26  1  0
 14 27  1  0
 14 28  1  0
M  CHG  2   4   1  10  -1
M  END

