
     RDKit          3D

 38 38  0  0  0  0  0  0  0  0999 V2000
    8.5597   -2.3159   -4.4631 C   0  0  0  0  0  0  0  0  0  0  0  0
    7.6551   -0.9178   -5.1964 S   0  0  0  0  0  0  0  0  0  0  0  0
    7.2035   -0.0133   -3.6667 C   0  0  0  0  0  0  0  0  0  0  0  0
    6.5564    1.3223   -4.0350 C   0  0  0  0  0  0  0  0  0  0  0  0
    5.9998    2.1132   -2.8354 C   0  0  2  0  0  0  0  0  0  0  0  0
    5.4276    1.4310   -2.1835 H   0  0  0  0  0  0  0  0  0  0  0  0
    5.0392    3.1224   -3.2537 N   0  0  0  0  0  0  0  0  0  0  0  0
    3.7736    3.1796   -2.7525 C   0  0  0  0  0  0  0  0  0  0  0  0
    3.2923    2.3525   -2.0027 O   0  0  0  0  0  0  0  0  0  0  0  0
    2.9585    4.4115   -3.1816 C   0  0  0  0  0  0  0  0  0  0  0  0
    2.3820    5.0556   -2.0082 N   0  0  0  0  0  0  0  0  0  0  0  0
    1.0260    5.0944   -1.7799 C   0  0  0  0  0  0  0  0  0  0  0  0
    0.5028    5.6611   -0.6713 C   0  0  0  0  0  0  0  0  0  0  0  0
    1.3683    6.2415    0.3472 C   0  0  0  0  0  0  0  0  0  0  0  0
    0.9868    6.7809    1.3650 O   0  0  0  0  0  0  0  0  0  0  0  0
    2.7642    6.1217    0.0602 N   0  0  0  0  0  0  0  0  0  0  0  0
    3.7271    6.6307    1.0400 C   0  0  0  0  0  0  0  0  0  0  0  0
    3.2904    5.5325   -1.0656 C   0  0  0  0  0  0  0  0  0  0  0  0
    4.4986    5.4268   -1.2562 O   0  0  0  0  0  0  0  0  0  0  0  0
    7.1123    2.7225   -1.9466 C   0  0  0  0  0  0  0  0  0  0  0  0
    8.1979    2.2086   -1.8526 O   0  0  0  0  0  0  0  0  0  0  0  0
    6.8140    3.8251   -1.2578 O   0  0  0  0  0  0  0  0  0  0  0  0
    8.9046   -2.9461   -5.2954 H   0  0  0  0  0  0  0  0  0  0  0  0
    7.9103   -2.9192   -3.8095 H   0  0  0  0  0  0  0  0  0  0  0  0
    9.4356   -1.9701   -3.8926 H   0  0  0  0  0  0  0  0  0  0  0  0
    8.1032    0.1579   -3.0611 H   0  0  0  0  0  0  0  0  0  0  0  0
    6.4994   -0.6269   -3.0778 H   0  0  0  0  0  0  0  0  0  0  0  0
    5.7092    1.1355   -4.7154 H   0  0  0  0  0  0  0  0  0  0  0  0
    7.2840    1.9420   -4.5865 H   0  0  0  0  0  0  0  0  0  0  0  0
    5.3737    3.8941   -3.8203 H   0  0  0  0  0  0  0  0  0  0  0  0
    2.1336    4.0759   -3.8247 H   0  0  0  0  0  0  0  0  0  0  0  0
    3.5691    5.1357   -3.7420 H   0  0  0  0  0  0  0  0  0  0  0  0
    0.4052    4.6445   -2.5566 H   0  0  0  0  0  0  0  0  0  0  0  0
   -0.5714    5.6978   -0.4986 H   0  0  0  0  0  0  0  0  0  0  0  0
    3.1523    7.0640    1.8646 H   0  0  0  0  0  0  0  0  0  0  0  0
    4.3715    7.3919    0.5780 H   0  0  0  0  0  0  0  0  0  0  0  0
    4.3660    5.8135    1.4036 H   0  0  0  0  0  0  0  0  0  0  0  0
    5.9186    4.1924   -1.4084 H   0  0  0  0  0  0  0  0  0  0  0  0
  1  2  1  0
  1 23  1  0
  1 24  1  0
  1 25  1  0
  2  3  1  0
  3  4  1  0
  3 26  1  0
  3 27  1  0
  4  5  1  0
  4 28  1  0
  4 29  1  0
  5  6  1  1
  5  7  1  0
  5 20  1  0
  7  8  1  0
  7 30  1  0
  8  9  2  0
  8 10  1  0
 10 11  1  0
 10 31  1  0
 10 32  1  0
 11 12  1  0
 11 18  1  0
 12 13  2  0
 12 33  1  0
 13 14  1  0
 13 34  1  0
 14 15  2  0
 14 16  1  0
 16 17  1  0
 16 18  1  0
 17 35  1  0
 17 36  1  0
 17 37  1  0
 18 19  2  0
 20 21  2  0
 20 22  1  0
 22 38  1  0
M  END

