
     RDKit          3D

 40 41  0  0  0  0  0  0  0  0999 V2000
    0.7113    2.5000   -0.9585 C   0  0  0  0  0  0  0  0  0  0  0  0
    2.1703    2.0569   -1.0977 C   0  0  0  0  0  0  0  0  0  0  0  0
    2.9103    1.7961    0.2354 C   0  0  1  0  0  0  0  0  0  0  0  0
    2.2705    0.6527    1.0349 C   0  0  0  0  0  0  0  0  0  0  0  0
    4.3376    1.4989    0.0999 N   0  0  0  0  0  0  0  0  0  0  0  0
    5.3512    2.5222   -0.1866 C   0  0  2  0  0  0  0  0  0  0  0  0
    5.4269    3.6204    0.9083 C   0  0  0  0  0  0  0  0  0  0  0  0
    4.6273    4.9014    0.6151 C   0  0  0  0  0  0  0  0  0  0  0  0
    5.0797    5.5900   -0.6854 C   0  0  0  0  0  0  0  0  0  0  0  0
    5.2098    4.5558   -1.7596 C   0  0  0  0  0  0  0  0  0  0  0  0
    5.3219    3.1855   -1.5523 C   0  0  0  0  0  0  0  0  0  0  0  0
    5.4427    2.6460   -2.8556 C   0  0  0  0  0  0  0  0  0  0  0  0
    5.3987    3.5996   -3.7813 N   0  0  0  0  0  0  0  0  0  0  0  0
    5.2675    4.7621   -3.1064 N   0  0  0  0  0  0  0  0  0  0  0  0
    5.1687    6.0148   -3.8478 C   0  0  0  0  0  0  0  0  0  0  0  0
    6.1527    6.0689   -5.0204 C   0  0  0  0  0  0  0  0  0  0  0  0
    5.8341    5.1646   -6.0382 O   0  0  0  0  0  0  0  0  0  0  0  0
    0.2798    2.7519   -1.9406 H   0  0  0  0  0  0  0  0  0  0  0  0
    0.6245    3.3981   -0.3225 H   0  0  0  0  0  0  0  0  0  0  0  0
    0.0741    1.7195   -0.5138 H   0  0  0  0  0  0  0  0  0  0  0  0
    2.7248    2.8229   -1.6603 H   0  0  0  0  0  0  0  0  0  0  0  0
    2.2242    1.1367   -1.7101 H   0  0  0  0  0  0  0  0  0  0  0  0
    2.8285    2.7094    0.8499 H   0  0  0  0  0  0  0  0  0  0  0  0
    2.3248   -0.2936    0.4679 H   0  0  0  0  0  0  0  0  0  0  0  0
    1.2104    0.8444    1.2597 H   0  0  0  0  0  0  0  0  0  0  0  0
    2.8090    0.5058    1.9824 H   0  0  0  0  0  0  0  0  0  0  0  0
    4.4745    0.6871   -0.5001 H   0  0  0  0  0  0  0  0  0  0  0  0
    6.3008    1.9624   -0.1249 H   0  0  0  0  0  0  0  0  0  0  0  0
    6.4868    3.9031    1.0348 H   0  0  0  0  0  0  0  0  0  0  0  0
    5.1093    3.1759    1.8640 H   0  0  0  0  0  0  0  0  0  0  0  0
    4.7329    5.6028    1.4584 H   0  0  0  0  0  0  0  0  0  0  0  0
    3.5525    4.6699    0.5370 H   0  0  0  0  0  0  0  0  0  0  0  0
    6.0516    6.0948   -0.5259 H   0  0  0  0  0  0  0  0  0  0  0  0
    4.3646    6.3806   -0.9680 H   0  0  0  0  0  0  0  0  0  0  0  0
    5.5545    1.6045   -3.1592 H   0  0  0  0  0  0  0  0  0  0  0  0
    5.3683    6.8365   -3.1444 H   0  0  0  0  0  0  0  0  0  0  0  0
    4.1419    6.1350   -4.2363 H   0  0  0  0  0  0  0  0  0  0  0  0
    7.1807    5.9226   -4.6229 H   0  0  0  0  0  0  0  0  0  0  0  0
    6.1154    7.0860   -5.4472 H   0  0  0  0  0  0  0  0  0  0  0  0
    5.7369    4.2983   -5.5965 H   0  0  0  0  0  0  0  0  0  0  0  0
  1  2  1  0
  1 18  1  0
  1 19  1  0
  1 20  1  0
  2  3  1  0
  2 21  1  0
  2 22  1  0
  3  4  1  0
  3  5  1  0
  3 23  1  1
  4 24  1  0
  4 25  1  0
  4 26  1  0
  5  6  1  0
  5 27  1  0
  6  7  1  0
  6 11  1  0
  6 28  1  6
  7  8  1  0
  7 29  1  0
  7 30  1  0
  8  9  1  0
  8 31  1  0
  8 32  1  0
  9 10  1  0
  9 33  1  0
  9 34  1  0
 10 11  2  0
 10 14  1  0
 11 12  1  0
 12 13  2  0
 12 35  1  0
 13 14  1  0
 14 15  1  0
 15 16  1  0
 15 36  1  0
 15 37  1  0
 16 17  1  0
 16 38  1  0
 16 39  1  0
 17 40  1  0
M  END

