
     RDKit          3D

 34 36  0  0  0  0  0  0  0  0999 V2000
    0.8709    0.0562   -0.4242 N   0  0  0  0  0  0  0  0  0  0  0  0
    2.2540    0.1664   -0.2909 C   0  0  0  0  0  0  0  0  0  0  0  0
    3.1055    1.2600   -0.3339 C   0  0  0  0  0  0  0  0  0  0  0  0
    4.3950    0.7318   -0.0370 C   0  0  0  0  0  0  0  0  0  0  0  0
    5.6954    1.4206    0.0521 C   0  0  0  0  0  0  0  0  0  0  0  0
    6.8681    0.6960    0.3481 C   0  0  0  0  0  0  0  0  0  0  0  0
    8.1153    1.3072    0.4436 C   0  0  0  0  0  0  0  0  0  0  0  0
    8.2050    2.6838    0.2384 C   0  0  0  0  0  0  0  0  0  0  0  0
    9.3963    3.2883    0.3258 F   0  0  0  0  0  0  0  0  0  0  0  0
    7.0813    3.4484   -0.0568 C   0  0  0  0  0  0  0  0  0  0  0  0
    5.8504    2.8024   -0.1439 C   0  0  0  0  0  0  0  0  0  0  0  0
    4.7794    3.5636   -0.4307 F   0  0  0  0  0  0  0  0  0  0  0  0
    4.3312   -0.5865    0.1633 N   0  0  0  0  0  0  0  0  0  0  0  0
    3.0316   -0.9169    0.0224 N   0  0  0  0  0  0  0  0  0  0  0  0
    2.5999   -2.2802    0.2590 C   0  0  1  0  0  0  0  0  0  0  0  0
    3.2490   -3.2828   -0.7302 C   0  0  0  0  0  0  0  0  0  0  0  0
    3.0389   -4.7157   -0.2174 C   0  0  0  0  0  0  0  0  0  0  0  0
    2.5912   -4.5653    1.5688 S   0  0  2  0  0  0  0  0  0  0  0  0
    3.4999   -5.3415    2.4168 O   0  0  0  0  0  0  0  0  0  0  0  0
    1.1312   -4.7205    1.6682 O   0  0  0  0  0  0  0  0  0  0  0  0
    2.9462   -2.7784    1.6669 C   0  0  0  0  0  0  0  0  0  0  0  0
    0.4184    0.9619   -0.5021 H   0  0  0  0  0  0  0  0  0  0  0  0
    0.5655   -0.5416   -1.1906 H   0  0  0  0  0  0  0  0  0  0  0  0
    2.8390    2.2857   -0.5628 H   0  0  0  0  0  0  0  0  0  0  0  0
    6.7727   -0.3790    0.5047 H   0  0  0  0  0  0  0  0  0  0  0  0
    9.0168    0.7372    0.6741 H   0  0  0  0  0  0  0  0  0  0  0  0
    7.1534    4.5244   -0.2166 H   0  0  0  0  0  0  0  0  0  0  0  0
    1.5053   -2.2857    0.1539 H   0  0  0  0  0  0  0  0  0  0  0  0
    4.3215   -3.0428   -0.7710 H   0  0  0  0  0  0  0  0  0  0  0  0
    2.8411   -3.1488   -1.7434 H   0  0  0  0  0  0  0  0  0  0  0  0
    3.9353   -5.3461   -0.2777 H   0  0  0  0  0  0  0  0  0  0  0  0
    2.1849   -5.2353   -0.6723 H   0  0  0  0  0  0  0  0  0  0  0  0
    4.0131   -2.6427    1.8916 H   0  0  0  0  0  0  0  0  0  0  0  0
    2.3186   -2.3613    2.4651 H   0  0  0  0  0  0  0  0  0  0  0  0
  1  2  1  0
  1 22  1  0
  1 23  1  0
  2  3  2  0
  2 14  1  0
  3  4  1  0
  3 24  1  0
  4  5  1  0
  4 13  2  0
  5  6  2  0
  5 11  1  0
  6  7  1  0
  6 25  1  0
  7  8  2  0
  7 26  1  0
  8  9  1  0
  8 10  1  0
 10 11  2  0
 10 27  1  0
 11 12  1  0
 13 14  1  0
 14 15  1  0
 15 16  1  0
 15 21  1  0
 15 28  1  1
 16 17  1  0
 16 29  1  0
 16 30  1  0
 18 17  1  6
 17 31  1  0
 17 32  1  0
 18 19  2  0
 18 20  2  0
 18 21  1  0
 21 33  1  0
 21 34  1  0
M  END

