
     RDKit          3D

 70 74  0  0  0  0  0  0  0  0999 V2000
   10.6155    4.7235   -4.4906 C   0  0  0  0  0  0  0  0  0  0  0  0
    9.9507    3.4225   -4.0385 C   0  0  0  0  0  0  0  0  0  0  0  0
   10.9344    2.2630   -3.8521 C   0  0  0  0  0  0  0  0  0  0  0  0
   10.2768    0.9562   -3.3992 C   0  0  0  0  0  0  0  0  0  0  0  0
   11.2606   -0.2026   -3.2127 C   0  0  0  0  0  0  0  0  0  0  0  0
   10.6023   -1.5091   -2.7592 C   0  0  0  0  0  0  0  0  0  0  0  0
   11.5864   -2.6676   -2.5722 C   0  0  0  0  0  0  0  0  0  0  0  0
   10.9278   -3.9735   -2.1176 C   0  0  0  0  0  0  0  0  0  0  0  0
   11.9117   -5.1330   -1.9325 C   0  0  0  0  0  0  0  0  0  0  0  0
   11.2415   -6.4337   -1.4735 C   0  0  0  0  0  0  0  0  0  0  0  0
   12.1742   -7.6460   -1.3604 C   0  0  0  0  0  0  0  0  0  0  0  0
   13.2336   -7.5257   -0.2635 C   0  0  0  0  0  0  0  0  0  0  0  0
   14.0267   -8.7376   -0.1964 N   0  0  0  0  0  0  0  0  0  0  0  0
   15.1043   -8.9056    0.6033 C   0  0  0  0  0  0  0  0  0  0  0  0
   15.5417   -7.8904    1.4786 C   0  0  0  0  0  0  0  0  0  0  0  0
   16.6565   -8.1134    2.2805 C   0  0  0  0  0  0  0  0  0  0  0  0
   17.3236   -9.3290    2.2331 C   0  0  0  0  0  0  0  0  0  0  0  0
   16.8804  -10.3346    1.3556 C   0  0  0  0  0  0  0  0  0  0  0  0
   15.7890  -10.1024    0.5322 N   0  0  0  0  0  0  0  0  0  0  0  0
   15.4127  -11.1387   -0.6358 B   0  0  2  0  0  0  0  0  0  0  0  0
   15.7962  -10.5914   -1.8485 F   0  0  0  0  0  0  0  0  0  0  0  0
   14.0222  -11.3682   -0.6439 F   0  0  0  0  0  0  0  0  0  0  0  0
   16.1406  -12.4352   -0.3175 N   0  0  0  0  0  0  0  0  0  0  0  0
   17.1654  -12.4965    0.5943 C   0  0  0  0  0  0  0  0  0  0  0  0
   17.7329  -13.8605    0.5591 C   0  0  0  0  0  0  0  0  0  0  0  0
   18.7480  -14.5327    1.2196 C   0  0  0  0  0  0  0  0  0  0  0  0
   18.9631  -15.8949    0.8780 C   0  0  0  0  0  0  0  0  0  0  0  0
   18.1976  -16.5627   -0.0771 C   0  0  0  0  0  0  0  0  0  0  0  0
   17.1461  -15.8914   -0.7641 C   0  0  0  0  0  0  0  0  0  0  0  0
   16.2474  -16.3848   -1.7607 C   0  0  0  0  0  0  0  0  0  0  0  0
   15.2830  -15.5403   -2.2910 C   0  0  0  0  0  0  0  0  0  0  0  0
   15.1233  -14.1751   -1.8986 C   0  0  0  0  0  0  0  0  0  0  0  0
   15.9903  -13.6845   -0.9421 C   0  0  0  0  0  0  0  0  0  0  0  0
   16.9706  -14.5473   -0.4012 C   0  0  0  0  0  0  0  0  0  0  0  0
   17.5500  -11.5171    1.3660 N   0  0  0  0  0  0  0  0  0  0  0  0
    9.8794    5.5340   -4.6143 H   0  0  0  0  0  0  0  0  0  0  0  0
   11.1335    4.5949   -5.4560 H   0  0  0  0  0  0  0  0  0  0  0  0
   11.3666    5.0656   -3.7587 H   0  0  0  0  0  0  0  0  0  0  0  0
    9.1786    3.1282   -4.7728 H   0  0  0  0  0  0  0  0  0  0  0  0
    9.4097    3.5948   -3.0901 H   0  0  0  0  0  0  0  0  0  0  0  0
   11.7076    2.5564   -3.1173 H   0  0  0  0  0  0  0  0  0  0  0  0
   11.4762    2.0894   -4.8009 H   0  0  0  0  0  0  0  0  0  0  0  0
    9.5039    0.6633   -4.1342 H   0  0  0  0  0  0  0  0  0  0  0  0
    9.7349    1.1305   -2.4508 H   0  0  0  0  0  0  0  0  0  0  0  0
   12.0337    0.0901   -2.4778 H   0  0  0  0  0  0  0  0  0  0  0  0
   11.8023   -0.3775   -4.1610 H   0  0  0  0  0  0  0  0  0  0  0  0
    9.8296   -1.8023   -3.4942 H   0  0  0  0  0  0  0  0  0  0  0  0
   10.0603   -1.3344   -1.8110 H   0  0  0  0  0  0  0  0  0  0  0  0
   12.3597   -2.3741   -1.8378 H   0  0  0  0  0  0  0  0  0  0  0  0
   12.1278   -2.8433   -3.5204 H   0  0  0  0  0  0  0  0  0  0  0  0
   10.1537   -4.2668   -2.8509 H   0  0  0  0  0  0  0  0  0  0  0  0
   10.3878   -3.7987   -1.1683 H   0  0  0  0  0  0  0  0  0  0  0  0
   12.6883   -4.8284   -1.2078 H   0  0  0  0  0  0  0  0  0  0  0  0
   12.4448   -5.3161   -2.8840 H   0  0  0  0  0  0  0  0  0  0  0  0
   10.4356   -6.6858   -2.1846 H   0  0  0  0  0  0  0  0  0  0  0  0
   10.7390   -6.2653   -0.5027 H   0  0  0  0  0  0  0  0  0  0  0  0
   12.6812   -7.8223   -2.3255 H   0  0  0  0  0  0  0  0  0  0  0  0
   11.5673   -8.5466   -1.1597 H   0  0  0  0  0  0  0  0  0  0  0  0
   12.7394   -7.3200    0.7077 H   0  0  0  0  0  0  0  0  0  0  0  0
   13.8964   -6.6670   -0.4666 H   0  0  0  0  0  0  0  0  0  0  0  0
   13.6594   -9.5753   -0.6423 H   0  0  0  0  0  0  0  0  0  0  0  0
   14.9966   -6.9509    1.5289 H   0  0  0  0  0  0  0  0  0  0  0  0
   16.9968   -7.3282    2.9606 H   0  0  0  0  0  0  0  0  0  0  0  0
   18.1871   -9.5579    2.8551 H   0  0  0  0  0  0  0  0  0  0  0  0
   19.3642  -14.0399    1.9747 H   0  0  0  0  0  0  0  0  0  0  0  0
   19.7618  -16.4412    1.3863 H   0  0  0  0  0  0  0  0  0  0  0  0
   18.4083  -17.6128   -0.2985 H   0  0  0  0  0  0  0  0  0  0  0  0
   16.3175  -17.4209   -2.1010 H   0  0  0  0  0  0  0  0  0  0  0  0
   14.6012  -15.9337   -3.0498 H   0  0  0  0  0  0  0  0  0  0  0  0
   14.3393  -13.5584   -2.3391 H   0  0  0  0  0  0  0  0  0  0  0  0
  1  2  1  0
  1 36  1  0
  1 37  1  0
  1 38  1  0
  2  3  1  0
  2 39  1  0
  2 40  1  0
  3  4  1  0
  3 41  1  0
  3 42  1  0
  4  5  1  0
  4 43  1  0
  4 44  1  0
  5  6  1  0
  5 45  1  0
  5 46  1  0
  6  7  1  0
  6 47  1  0
  6 48  1  0
  7  8  1  0
  7 49  1  0
  7 50  1  0
  8  9  1  0
  8 51  1  0
  8 52  1  0
  9 10  1  0
  9 53  1  0
  9 54  1  0
 10 11  1  0
 10 55  1  0
 10 56  1  0
 11 12  1  0
 11 57  1  0
 11 58  1  0
 12 13  1  0
 12 59  1  0
 12 60  1  0
 13 14  1  0
 13 61  1  0
 14 15  2  0
 14 19  1  0
 15 16  1  0
 15 62  1  0
 16 17  2  0
 16 63  1  0
 17 18  1  0
 17 64  1  0
 18 19  1  0
 18 35  2  0
 19 20  1  0
 20 21  1  6
 20 22  1  0
 20 23  1  0
 23 24  2  0
 23 33  1  0
 24 25  1  0
 24 35  1  0
 25 26  2  0
 25 34  1  0
 26 27  1  0
 26 65  1  0
 27 28  2  0
 27 66  1  0
 28 29  1  0
 28 67  1  0
 29 30  1  0
 29 34  2  0
 30 31  2  0
 30 68  1  0
 31 32  1  0
 31 69  1  0
 32 33  2  0
 32 70  1  0
 33 34  1  0
M  CHG  2  20  -1  23   1
M  END

