
     RDKit          3D

 27 28  0  0  0  0  0  0  0  0999 V2000
    1.2239    0.3789   -0.4232 C   0  0  0  0  0  0  0  0  0  0  0  0
    2.6498    0.1514    0.0493 C   0  0  1  0  0  0  0  0  0  0  0  0
    3.2708    1.0421    1.1552 C   0  0  0  0  0  0  0  0  0  0  0  0
    4.0035   -0.2060    1.7069 C   0  0  0  0  0  0  0  0  0  0  0  0
    2.9987   -1.1210    0.9203 C   0  0  1  0  0  0  0  0  0  0  0  0
    1.8455   -1.5320    1.7172 N   0  0  0  0  0  0  0  0  0  0  0  0
    3.5423   -2.3203    0.1524 C   0  0  0  0  0  0  0  0  0  0  0  0
    4.8372   -2.3234   -0.3982 C   0  0  0  0  0  0  0  0  0  0  0  0
    5.3006   -3.4127   -1.1402 C   0  0  0  0  0  0  0  0  0  0  0  0
    4.4879   -4.5289   -1.3557 C   0  0  0  0  0  0  0  0  0  0  0  0
    3.2069   -4.5156   -0.8119 C   0  0  0  0  0  0  0  0  0  0  0  0
    2.4051   -5.5758   -1.0087 F   0  0  0  0  0  0  0  0  0  0  0  0
    2.7248   -3.4406   -0.0703 C   0  0  0  0  0  0  0  0  0  0  0  0
    1.1387    1.3513   -0.9366 H   0  0  0  0  0  0  0  0  0  0  0  0
    0.5042    0.3761    0.4100 H   0  0  0  0  0  0  0  0  0  0  0  0
    0.9102   -0.4045   -1.1315 H   0  0  0  0  0  0  0  0  0  0  0  0
    3.3252    0.1456   -0.8215 H   0  0  0  0  0  0  0  0  0  0  0  0
    2.5098    1.4306    1.8521 H   0  0  0  0  0  0  0  0  0  0  0  0
    3.8929    1.8890    0.8276 H   0  0  0  0  0  0  0  0  0  0  0  0
    4.0091   -0.3567    2.7982 H   0  0  0  0  0  0  0  0  0  0  0  0
    5.0393   -0.2685    1.3452 H   0  0  0  0  0  0  0  0  0  0  0  0
    1.4401   -0.7348    2.2057 H   0  0  0  0  0  0  0  0  0  0  0  0
    2.1413   -2.1912    2.4392 H   0  0  0  0  0  0  0  0  0  0  0  0
    5.4995   -1.4685   -0.2528 H   0  0  0  0  0  0  0  0  0  0  0  0
    6.3112   -3.3941   -1.5560 H   0  0  0  0  0  0  0  0  0  0  0  0
    4.8261   -5.3941   -1.9289 H   0  0  0  0  0  0  0  0  0  0  0  0
    1.7113   -3.4686    0.3291 H   0  0  0  0  0  0  0  0  0  0  0  0
  1  2  1  0
  1 14  1  0
  1 15  1  0
  1 16  1  0
  2  3  1  0
  2  5  1  0
  2 17  1  6
  3  4  1  0
  3 18  1  0
  3 19  1  0
  4  5  1  0
  4 20  1  0
  4 21  1  0
  5  6  1  1
  5  7  1  0
  6 22  1  0
  6 23  1  0
  7  8  2  0
  7 13  1  0
  8  9  1  0
  8 24  1  0
  9 10  2  0
  9 25  1  0
 10 11  1  0
 10 26  1  0
 11 12  1  0
 11 13  2  0
 13 27  1  0
M  END

