
     RDKit          3D

 61 62  0  0  0  0  0  0  0  0999 V2000
    4.5119   -6.1618   -5.0842 C   0  0  0  0  0  0  0  0  0  0  0  0
    3.9341   -4.7450   -5.1425 C   0  0  0  0  0  0  0  0  0  0  0  0
    2.4018   -4.5833   -4.9520 C   0  0  1  0  0  0  0  0  0  0  0  0
    1.8626   -5.3973   -3.7379 C   0  0  0  0  0  0  0  0  0  0  0  0
    2.4333   -5.0205   -2.3676 C   0  0  0  0  0  0  0  0  0  0  0  0
    2.1237   -3.0633   -4.7784 C   0  0  0  0  0  0  0  0  0  0  0  0
    0.7067   -2.7512   -4.5598 N   0  0  0  0  0  0  0  0  0  0  0  0
    0.3593   -1.3333   -4.7185 C   0  0  0  0  0  0  0  0  0  0  0  0
   -1.0910   -1.0849   -4.4154 C   0  0  0  0  0  0  0  0  0  0  0  0
   -2.1385   -1.9758   -4.6138 C   0  0  0  0  0  0  0  0  0  0  0  0
   -3.2720   -1.3767   -4.1594 N   0  0  0  0  0  0  0  0  0  0  0  0
   -4.6713   -1.8840   -4.1517 C   0  0  1  0  0  0  0  0  0  0  0  0
   -4.7069   -3.3017   -4.7337 C   0  0  0  0  0  0  0  0  0  0  0  0
   -5.1679   -1.8950   -2.6961 C   0  0  0  0  0  0  0  0  0  0  0  0
   -5.5273   -0.9356   -5.0086 C   0  0  0  0  0  0  0  0  0  0  0  0
   -3.0276   -0.1519   -3.6824 N   0  0  0  0  0  0  0  0  0  0  0  0
   -1.7149    0.0583   -3.8272 C   0  0  0  0  0  0  0  0  0  0  0  0
   -1.1173    1.3325   -3.3745 C   0  0  0  0  0  0  0  0  0  0  0  0
   -1.6514    1.9964   -2.2589 C   0  0  0  0  0  0  0  0  0  0  0  0
   -1.0940    3.2052   -1.8325 C   0  0  0  0  0  0  0  0  0  0  0  0
   -0.0092    3.7679   -2.5003 C   0  0  0  0  0  0  0  0  0  0  0  0
    0.5276    3.1186   -3.6244 C   0  0  0  0  0  0  0  0  0  0  0  0
    1.5725    3.7419   -4.2306 O   0  0  0  0  0  0  0  0  0  0  0  0
    2.1540    3.1671   -5.3766 C   0  0  0  0  0  0  0  0  0  0  0  0
   -0.0267    1.9060   -4.0596 C   0  0  0  0  0  0  0  0  0  0  0  0
    1.6519   -5.1139   -6.2094 C   0  0  0  0  0  0  0  0  0  0  0  0
    2.1256   -5.9194   -6.9728 O   0  0  0  0  0  0  0  0  0  0  0  0
    0.4113   -4.6453   -6.3762 O   0  0  0  0  0  0  0  0  0  0  0  0
    5.5934   -6.1319   -5.2929 H   0  0  0  0  0  0  0  0  0  0  0  0
    4.0363   -6.8089   -5.8321 H   0  0  0  0  0  0  0  0  0  0  0  0
    4.3894   -6.6232   -4.0912 H   0  0  0  0  0  0  0  0  0  0  0  0
    4.1952   -4.2964   -6.1156 H   0  0  0  0  0  0  0  0  0  0  0  0
    4.4377   -4.1233   -4.3813 H   0  0  0  0  0  0  0  0  0  0  0  0
    2.0574   -6.4633   -3.9338 H   0  0  0  0  0  0  0  0  0  0  0  0
    0.7630   -5.3107   -3.7135 H   0  0  0  0  0  0  0  0  0  0  0  0
    3.5275   -5.1346   -2.3289 H   0  0  0  0  0  0  0  0  0  0  0  0
    2.0084   -5.6702   -1.5862 H   0  0  0  0  0  0  0  0  0  0  0  0
    2.2020   -3.9807   -2.0827 H   0  0  0  0  0  0  0  0  0  0  0  0
    2.4393   -2.5429   -5.6984 H   0  0  0  0  0  0  0  0  0  0  0  0
    2.7614   -2.6632   -3.9670 H   0  0  0  0  0  0  0  0  0  0  0  0
    0.4169   -3.0560   -3.6296 H   0  0  0  0  0  0  0  0  0  0  0  0
    0.6014   -1.0534   -5.7607 H   0  0  0  0  0  0  0  0  0  0  0  0
    0.9867   -0.6874   -4.0739 H   0  0  0  0  0  0  0  0  0  0  0  0
   -2.1341   -2.9757   -5.0359 H   0  0  0  0  0  0  0  0  0  0  0  0
   -4.1005   -4.0041   -4.1415 H   0  0  0  0  0  0  0  0  0  0  0  0
   -4.3581   -3.3269   -5.7772 H   0  0  0  0  0  0  0  0  0  0  0  0
   -5.7444   -3.6664   -4.7215 H   0  0  0  0  0  0  0  0  0  0  0  0
   -4.5563   -2.5724   -2.0795 H   0  0  0  0  0  0  0  0  0  0  0  0
   -6.2128   -2.2390   -2.6552 H   0  0  0  0  0  0  0  0  0  0  0  0
   -5.1103   -0.8871   -2.2630 H   0  0  0  0  0  0  0  0  0  0  0  0
   -5.1765   -0.9292   -6.0525 H   0  0  0  0  0  0  0  0  0  0  0  0
   -5.4689    0.0898   -4.6187 H   0  0  0  0  0  0  0  0  0  0  0  0
   -6.5792   -1.2607   -4.9989 H   0  0  0  0  0  0  0  0  0  0  0  0
   -2.5003    1.5558   -1.7349 H   0  0  0  0  0  0  0  0  0  0  0  0
   -1.5112    3.7167   -0.9610 H   0  0  0  0  0  0  0  0  0  0  0  0
    0.4387    4.7106   -2.1801 H   0  0  0  0  0  0  0  0  0  0  0  0
    2.9681    3.8369   -5.6852 H   0  0  0  0  0  0  0  0  0  0  0  0
    1.4312    3.0793   -6.2083 H   0  0  0  0  0  0  0  0  0  0  0  0
    2.5767    2.1667   -5.1691 H   0  0  0  0  0  0  0  0  0  0  0  0
    0.3560    1.4194   -4.9551 H   0  0  0  0  0  0  0  0  0  0  0  0
    0.2544   -3.9058   -5.7161 H   0  0  0  0  0  0  0  0  0  0  0  0
  1  2  1  0
  1 29  1  0
  1 30  1  0
  1 31  1  0
  2  3  1  0
  2 32  1  0
  2 33  1  0
  3  4  1  0
  3  6  1  0
  3 26  1  6
  4  5  1  0
  4 34  1  0
  4 35  1  0
  5 36  1  0
  5 37  1  0
  5 38  1  0
  6  7  1  0
  6 39  1  0
  6 40  1  0
  7  8  1  0
  7 41  1  0
  8  9  1  0
  8 42  1  0
  8 43  1  0
  9 10  2  0
  9 17  1  0
 10 11  1  0
 10 44  1  0
 11 12  1  0
 11 16  1  0
 12 13  1  6
 12 14  1  0
 12 15  1  0
 13 45  1  0
 13 46  1  0
 13 47  1  0
 14 48  1  0
 14 49  1  0
 14 50  1  0
 15 51  1  0
 15 52  1  0
 15 53  1  0
 16 17  2  0
 17 18  1  0
 18 19  2  0
 18 25  1  0
 19 20  1  0
 19 54  1  0
 20 21  2  0
 20 55  1  0
 21 22  1  0
 21 56  1  0
 22 23  1  0
 22 25  2  0
 23 24  1  0
 24 57  1  0
 24 58  1  0
 24 59  1  0
 25 60  1  0
 26 27  2  0
 26 28  1  0
 28 61  1  0
M  END

