
     RDKit          3D

 58 62  0  0  0  0  0  0  0  0999 V2000
   -1.1081   -1.1534    4.5211 O   0  0  0  0  0  0  0  0  0  0  0  0
   -1.0135   -0.9270    3.3371 C   0  0  0  0  0  0  0  0  0  0  0  0
   -2.0874   -0.8220    2.5755 O   0  0  0  0  0  0  0  0  0  0  0  0
    0.3828   -0.6965    2.7270 C   0  0  0  0  0  0  0  0  0  0  0  0
    1.3278   -0.4107    3.6985 C   0  0  0  0  0  0  0  0  0  0  0  0
    2.6971   -0.1736    3.4214 C   0  0  0  0  0  0  0  0  0  0  0  0
    3.6392    0.1438    4.4380 C   0  0  0  0  0  0  0  0  0  0  0  0
    4.9640    0.3595    4.1182 C   0  0  0  0  0  0  0  0  0  0  0  0
    5.4057    0.2662    2.7724 C   0  0  0  0  0  0  0  0  0  0  0  0
    4.5149   -0.0425    1.7659 C   0  0  0  0  0  0  0  0  0  0  0  0
    3.1425   -0.2694    2.0670 C   0  0  0  0  0  0  0  0  0  0  0  0
    2.1870   -0.5975    1.0765 C   0  0  0  0  0  0  0  0  0  0  0  0
    0.8341   -0.7930    1.3487 C   0  0  0  0  0  0  0  0  0  0  0  0
   -0.0443   -1.0507    0.1645 C   0  0  0  0  0  0  0  0  0  0  0  0
   -1.2525   -0.8493    0.1771 O   0  0  0  0  0  0  0  0  0  0  0  0
    0.5897   -1.5547   -1.1374 C   0  0  0  0  0  0  0  0  0  0  0  0
   -0.4076   -2.1298   -2.1173 C   0  0  0  0  0  0  0  0  0  0  0  0
   -1.2780   -1.2832   -2.8584 C   0  0  0  0  0  0  0  0  0  0  0  0
   -2.1583   -1.8447   -3.7548 C   0  0  0  0  0  0  0  0  0  0  0  0
   -2.1907   -3.2538   -3.9308 C   0  0  0  0  0  0  0  0  0  0  0  0
   -3.0576   -3.9206   -4.8369 C   0  0  0  0  0  0  0  0  0  0  0  0
   -3.0108   -5.2957   -4.9379 C   0  0  0  0  0  0  0  0  0  0  0  0
   -2.1201   -6.0709   -4.1571 C   0  0  0  0  0  0  0  0  0  0  0  0
   -1.2621   -5.4489   -3.2612 C   0  0  0  0  0  0  0  0  0  0  0  0
   -0.3474   -6.1029   -2.4339 N   0  0  0  0  0  0  0  0  0  0  0  0
   -0.0854   -7.4411   -2.3535 C   0  0  0  0  0  0  0  0  0  0  0  0
   -0.6612   -8.3168   -2.9622 O   0  0  0  0  0  0  0  0  0  0  0  0
    1.0011   -7.7977   -1.3357 C   0  0  0  0  0  0  0  0  0  0  0  0
    0.6011   -8.4126   -0.1395 C   0  0  0  0  0  0  0  0  0  0  0  0
   -1.0866   -8.5890    0.2207 Cl  0  0  0  0  0  0  0  0  0  0  0  0
    1.5524   -8.8730    0.7887 C   0  0  0  0  0  0  0  0  0  0  0  0
    1.0496   -9.6344    2.2541 Cl  0  0  0  0  0  0  0  0  0  0  0  0
    2.9226   -8.7069    0.5160 C   0  0  0  0  0  0  0  0  0  0  0  0
    4.1021   -9.2948    1.6363 Cl  0  0  0  0  0  0  0  0  0  0  0  0
    3.3186   -8.0575   -0.6654 C   0  0  0  0  0  0  0  0  0  0  0  0
    5.0376   -7.8690   -0.9543 Cl  0  0  0  0  0  0  0  0  0  0  0  0
    2.3726   -7.5946   -1.5999 C   0  0  0  0  0  0  0  0  0  0  0  0
    2.7355   -6.9173   -2.9159 C   0  0  0  0  0  0  0  0  0  0  0  0
    2.1107   -7.1224   -3.9194 O   0  0  0  0  0  0  0  0  0  0  0  0
    3.7338   -6.0205   -2.9018 O   0  0  0  0  0  0  0  0  0  0  0  0
   -1.2815   -4.0161   -3.1350 C   0  0  0  0  0  0  0  0  0  0  0  0
   -0.4194   -3.4411   -2.2568 N   0  0  0  0  0  0  0  0  0  0  0  0
   -1.8564   -0.6963    1.6189 H   0  0  0  0  0  0  0  0  0  0  0  0
    0.9793   -0.3830    4.7322 H   0  0  0  0  0  0  0  0  0  0  0  0
    3.2967    0.2137    5.4734 H   0  0  0  0  0  0  0  0  0  0  0  0
    5.6830    0.6042    4.9040 H   0  0  0  0  0  0  0  0  0  0  0  0
    6.4584    0.4408    2.5375 H   0  0  0  0  0  0  0  0  0  0  0  0
    4.8525   -0.1153    0.7285 H   0  0  0  0  0  0  0  0  0  0  0  0
    2.5503   -0.6761    0.0519 H   0  0  0  0  0  0  0  0  0  0  0  0
    1.3424   -2.3231   -0.9155 H   0  0  0  0  0  0  0  0  0  0  0  0
    1.1204   -0.7042   -1.6010 H   0  0  0  0  0  0  0  0  0  0  0  0
   -1.2444   -0.2030   -2.7062 H   0  0  0  0  0  0  0  0  0  0  0  0
   -2.8375   -1.2170   -4.3382 H   0  0  0  0  0  0  0  0  0  0  0  0
   -3.7514   -3.3342   -5.4441 H   0  0  0  0  0  0  0  0  0  0  0  0
   -3.6747   -5.8123   -5.6355 H   0  0  0  0  0  0  0  0  0  0  0  0
   -2.0961   -7.1544   -4.2487 H   0  0  0  0  0  0  0  0  0  0  0  0
    0.1812   -5.4500   -1.8557 H   0  0  0  0  0  0  0  0  0  0  0  0
    4.2364   -6.0601   -2.0727 H   0  0  0  0  0  0  0  0  0  0  0  0
  1  2  2  0
  2  3  1  0
  2  4  1  0
  3 43  1  0
  4  5  2  0
  4 13  1  0
  5  6  1  0
  5 44  1  0
  6  7  2  0
  6 11  1  0
  7  8  1  0
  7 45  1  0
  8  9  2  0
  8 46  1  0
  9 10  1  0
  9 47  1  0
 10 11  2  0
 10 48  1  0
 11 12  1  0
 12 13  2  0
 12 49  1  0
 13 14  1  0
 14 15  2  0
 14 16  1  0
 16 17  1  0
 16 50  1  0
 16 51  1  0
 17 18  2  0
 17 42  1  0
 18 19  1  0
 18 52  1  0
 19 20  2  0
 19 53  1  0
 20 21  1  0
 20 41  1  0
 21 22  2  0
 21 54  1  0
 22 23  1  0
 22 55  1  0
 23 24  2  0
 23 56  1  0
 24 25  1  0
 24 41  1  0
 25 26  1  0
 25 57  1  0
 26 27  2  0
 26 28  1  0
 28 29  2  0
 28 37  1  0
 29 30  1  0
 29 31  1  0
 31 32  1  0
 31 33  2  0
 33 34  1  0
 33 35  1  0
 35 36  1  0
 35 37  2  0
 37 38  1  0
 38 39  2  0
 38 40  1  0
 40 58  1  0
 41 42  2  0
M  END

