
     RDKit          3D

 38 38  0  0  0  0  0  0  0  0999 V2000
    9.5701    3.7969    5.0494 C   0  0  0  0  0  0  0  0  0  0  0  0
    8.1260    3.6669    5.5054 C   0  0  0  0  0  0  0  0  0  0  0  0
    7.2655    3.2157    4.4454 O   0  0  0  0  0  0  0  0  0  0  0  0
    6.7695    4.1586    3.5911 C   0  0  0  0  0  0  0  0  0  0  0  0
    7.0415    5.3425    3.7204 O   0  0  0  0  0  0  0  0  0  0  0  0
    5.9086    3.6000    2.5656 C   0  0  0  0  0  0  0  0  0  0  0  0
    5.2578    4.4122    1.5437 C   0  0  0  0  0  0  0  0  0  0  0  0
    5.4672    5.7512    1.4536 N   0  0  0  0  0  0  0  0  0  0  0  0
    4.4663    3.7879    0.6953 N   0  0  0  0  0  0  0  0  0  0  0  0
    4.4440    2.1354    1.0558 S   0  0  0  0  0  0  0  0  0  0  0  0
    5.5464    2.2514    2.4054 C   0  0  0  0  0  0  0  0  0  0  0  0
    5.9369    1.1786    3.1164 N   0  0  0  0  0  0  0  0  0  0  0  0
    5.4090   -0.1555    2.9354 C   0  0  0  0  0  0  0  0  0  0  0  0
    6.2927   -1.1826    3.6726 C   0  0  1  0  0  0  0  0  0  0  0  0
    7.6189   -1.3675    2.9244 C   0  0  0  0  0  0  0  0  0  0  0  0
    6.4835   -0.7644    5.0712 N   0  0  0  0  0  0  0  0  0  0  0  0
    5.2404   -0.7354    5.8297 C   0  0  0  0  0  0  0  0  0  0  0  0
    7.5099   -1.4981    5.7968 C   0  0  0  0  0  0  0  0  0  0  0  0
   10.2103    4.0707    5.9037 H   0  0  0  0  0  0  0  0  0  0  0  0
    9.6659    4.5809    4.2842 H   0  0  0  0  0  0  0  0  0  0  0  0
    9.9404    2.8471    4.6327 H   0  0  0  0  0  0  0  0  0  0  0  0
    7.7485    4.6271    5.8858 H   0  0  0  0  0  0  0  0  0  0  0  0
    8.0229    2.9036    6.2909 H   0  0  0  0  0  0  0  0  0  0  0  0
    5.9964    6.1988    2.1940 H   0  0  0  0  0  0  0  0  0  0  0  0
    4.9086    6.2839    0.8020 H   0  0  0  0  0  0  0  0  0  0  0  0
    6.4981    1.3474    3.9506 H   0  0  0  0  0  0  0  0  0  0  0  0
    5.3952   -0.4083    1.8609 H   0  0  0  0  0  0  0  0  0  0  0  0
    4.3585   -0.2186    3.2779 H   0  0  0  0  0  0  0  0  0  0  0  0
    5.7436   -2.1528    3.6328 H   0  0  0  0  0  0  0  0  0  0  0  0
    8.2296   -0.4522    2.9652 H   0  0  0  0  0  0  0  0  0  0  0  0
    7.4154   -1.5906    1.8666 H   0  0  0  0  0  0  0  0  0  0  0  0
    8.2114   -2.2020    3.3238 H   0  0  0  0  0  0  0  0  0  0  0  0
    4.5167   -0.0368    5.3870 H   0  0  0  0  0  0  0  0  0  0  0  0
    5.4420   -0.3870    6.8538 H   0  0  0  0  0  0  0  0  0  0  0  0
    4.7518   -1.7337    5.9021 H   0  0  0  0  0  0  0  0  0  0  0  0
    8.4983   -1.3688    5.3370 H   0  0  0  0  0  0  0  0  0  0  0  0
    7.3032   -2.5905    5.8694 H   0  0  0  0  0  0  0  0  0  0  0  0
    7.5741   -1.1065    6.8234 H   0  0  0  0  0  0  0  0  0  0  0  0
  1  2  1  0
  1 19  1  0
  1 20  1  0
  1 21  1  0
  2  3  1  0
  2 22  1  0
  2 23  1  0
  3  4  1  0
  4  5  2  0
  4  6  1  0
  6  7  1  0
  6 11  2  0
  7  8  1  0
  7  9  2  0
  8 24  1  0
  8 25  1  0
  9 10  1  0
 10 11  1  0
 11 12  1  0
 12 13  1  0
 12 26  1  0
 13 14  1  0
 13 27  1  0
 13 28  1  0
 14 15  1  0
 14 16  1  0
 14 29  1  1
 15 30  1  0
 15 31  1  0
 15 32  1  0
 16 17  1  0
 16 18  1  0
 17 33  1  0
 17 34  1  0
 17 35  1  0
 18 36  1  0
 18 37  1  0
 18 38  1  0
M  END

