
     RDKit          3D

 45 46  0  0  0  0  0  0  0  0999 V2000
    0.9471    0.0797    0.4224 C   0  0  0  0  0  0  0  0  0  0  0  0
    2.1402    0.1357   -0.3141 O   0  0  0  0  0  0  0  0  0  0  0  0
    3.1411    1.0073    0.1988 C   0  0  1  0  0  0  0  0  0  0  0  0
    4.5121    0.4355   -0.1712 C   0  0  0  0  0  0  0  0  0  0  0  0
    4.7544    0.4469   -1.6854 C   0  0  0  0  0  0  0  0  0  0  0  0
    4.5745    1.8561   -2.2634 C   0  0  0  0  0  0  0  0  0  0  0  0
    3.2005    2.4292   -1.8893 C   0  0  0  0  0  0  0  0  0  0  0  0
    2.9455    2.4375   -0.3728 C   0  0  2  0  0  0  0  0  0  0  0  0
    3.8367    3.3863    0.2984 N   0  0  0  0  0  0  0  0  0  0  0  0
    3.3772    3.8907    1.5807 C   0  0  0  0  0  0  0  0  0  0  0  0
    4.4168    4.8343    2.2067 C   0  0  0  0  0  0  0  0  0  0  0  0
    4.0040    5.3520    3.5645 C   0  0  0  0  0  0  0  0  0  0  0  0
    4.3363    4.6445    4.7324 C   0  0  0  0  0  0  0  0  0  0  0  0
    3.9260    5.0900    5.9893 C   0  0  0  0  0  0  0  0  0  0  0  0
    3.1746    6.2641    6.0798 C   0  0  0  0  0  0  0  0  0  0  0  0
    2.6462    6.8495    7.6901 S   0  0  1  0  0  0  0  0  0  0  0  0
    3.9132    7.8553    8.1861 N   0  0  0  0  0  0  0  0  0  0  0  0
    1.4750    7.7065    7.4882 O   0  0  0  0  0  0  0  0  0  0  0  0
    2.6356    5.7003    8.5989 O   0  0  0  0  0  0  0  0  0  0  0  0
    2.8174    6.9837    4.9373 C   0  0  0  0  0  0  0  0  0  0  0  0
    3.2374    6.5230    3.6888 C   0  0  0  0  0  0  0  0  0  0  0  0
    0.2771   -0.6328   -0.0817 H   0  0  0  0  0  0  0  0  0  0  0  0
    0.4277    1.0565    0.4807 H   0  0  0  0  0  0  0  0  0  0  0  0
    1.1180   -0.2756    1.4590 H   0  0  0  0  0  0  0  0  0  0  0  0
    3.0564    1.0427    1.3026 H   0  0  0  0  0  0  0  0  0  0  0  0
    4.5851   -0.5888    0.2290 H   0  0  0  0  0  0  0  0  0  0  0  0
    5.2771    1.0475    0.3332 H   0  0  0  0  0  0  0  0  0  0  0  0
    4.0391   -0.2416   -2.1669 H   0  0  0  0  0  0  0  0  0  0  0  0
    5.7642    0.0641   -1.9095 H   0  0  0  0  0  0  0  0  0  0  0  0
    4.6849    1.8395   -3.3609 H   0  0  0  0  0  0  0  0  0  0  0  0
    5.3711    2.5159   -1.8773 H   0  0  0  0  0  0  0  0  0  0  0  0
    2.4129    1.8151   -2.3541 H   0  0  0  0  0  0  0  0  0  0  0  0
    3.0781    3.4531   -2.2868 H   0  0  0  0  0  0  0  0  0  0  0  0
    1.8820    2.7190   -0.2104 H   0  0  0  0  0  0  0  0  0  0  0  0
    4.0254    4.1709   -0.3245 H   0  0  0  0  0  0  0  0  0  0  0  0
    3.2144    3.0417    2.2656 H   0  0  0  0  0  0  0  0  0  0  0  0
    2.3969    4.4166    1.5166 H   0  0  0  0  0  0  0  0  0  0  0  0
    4.5833    5.6854    1.5230 H   0  0  0  0  0  0  0  0  0  0  0  0
    5.3733    4.2925    2.2762 H   0  0  0  0  0  0  0  0  0  0  0  0
    4.9274    3.7275    4.6556 H   0  0  0  0  0  0  0  0  0  0  0  0
    4.1719    4.5323    6.8946 H   0  0  0  0  0  0  0  0  0  0  0  0
    3.5708    8.8087    8.3051 H   0  0  0  0  0  0  0  0  0  0  0  0
    4.3271    7.4901    9.0438 H   0  0  0  0  0  0  0  0  0  0  0  0
    2.2087    7.8846    5.0321 H   0  0  0  0  0  0  0  0  0  0  0  0
    2.9631    7.0848    2.7913 H   0  0  0  0  0  0  0  0  0  0  0  0
  1  2  1  0
  1 22  1  0
  1 23  1  0
  1 24  1  0
  2  3  1  0
  3  4  1  0
  3  8  1  0
  3 25  1  1
  4  5  1  0
  4 26  1  0
  4 27  1  0
  5  6  1  0
  5 28  1  0
  5 29  1  0
  6  7  1  0
  6 30  1  0
  6 31  1  0
  7  8  1  0
  7 32  1  0
  7 33  1  0
  8  9  1  0
  8 34  1  6
  9 10  1  0
  9 35  1  0
 10 11  1  0
 10 36  1  0
 10 37  1  0
 11 12  1  0
 11 38  1  0
 11 39  1  0
 12 13  2  0
 12 21  1  0
 13 14  1  0
 13 40  1  0
 14 15  2  0
 14 41  1  0
 15 16  1  0
 15 20  1  0
 16 17  1  1
 16 18  2  0
 16 19  2  0
 17 42  1  0
 17 43  1  0
 20 21  2  0
 20 44  1  0
 21 45  1  0
M  END

