
     RDKit          3D

 54 56  0  0  0  0  0  0  0  0999 V2000
    1.5610    2.0233    0.2440 C   0  0  0  0  0  0  0  0  0  0  0  0
    1.5158    0.9907    1.2010 O   0  0  0  0  0  0  0  0  0  0  0  0
    2.5978    0.7707    1.9918 C   0  0  0  0  0  0  0  0  0  0  0  0
    2.4811   -0.2766    2.9250 C   0  0  0  0  0  0  0  0  0  0  0  0
    3.5357   -0.5771    3.7782 C   0  0  0  0  0  0  0  0  0  0  0  0
    4.7411    0.1494    3.7354 C   0  0  0  0  0  0  0  0  0  0  0  0
    5.8666   -0.1589    4.7029 C   0  0  0  0  0  0  0  0  0  0  0  0
    6.2375   -1.5731    4.7539 N   0  0  0  0  0  0  0  0  0  0  0  0
    6.8873   -2.0096    3.5158 C   0  0  0  0  0  0  0  0  0  0  0  0
    6.9235   -3.5073    3.3424 C   0  0  0  0  0  0  0  0  0  0  0  0
    5.7586   -4.2909    3.3170 C   0  0  0  0  0  0  0  0  0  0  0  0
    5.7622   -5.6057    3.1499 N   0  0  0  0  0  0  0  0  0  0  0  0
    6.9640   -6.2052    2.9953 C   0  0  0  0  0  0  0  0  0  0  0  0
    6.9815   -7.5645    2.8187 N   0  0  0  0  0  0  0  0  0  0  0  0
    5.7647   -8.3492    2.7896 C   0  0  0  0  0  0  0  0  0  0  0  0
    8.2189   -8.2955    2.6401 C   0  0  0  0  0  0  0  0  0  0  0  0
    8.1441   -5.5536    3.0055 N   0  0  0  0  0  0  0  0  0  0  0  0
    8.1060   -4.2372    3.1785 C   0  0  0  0  0  0  0  0  0  0  0  0
    7.0030   -1.9142    5.9497 C   0  0  0  0  0  0  0  0  0  0  0  0
    6.1471   -2.0760    7.2076 C   0  0  1  0  0  0  0  0  0  0  0  0
    5.1510   -3.2438    7.1876 C   0  0  0  0  0  0  0  0  0  0  0  0
    5.0947   -3.6416    8.6676 C   0  0  0  0  0  0  0  0  0  0  0  0
    6.5446   -3.4095    9.1035 C   0  0  0  0  0  0  0  0  0  0  0  0
    7.0268   -2.3329    8.3074 O   0  0  0  0  0  0  0  0  0  0  0  0
    4.8444    1.1827    2.8002 C   0  0  0  0  0  0  0  0  0  0  0  0
    3.7909    1.5033    1.9327 C   0  0  0  0  0  0  0  0  0  0  0  0
    0.5900    2.0184   -0.2696 H   0  0  0  0  0  0  0  0  0  0  0  0
    2.3599    1.8600   -0.5023 H   0  0  0  0  0  0  0  0  0  0  0  0
    1.7121    3.0134    0.7118 H   0  0  0  0  0  0  0  0  0  0  0  0
    1.5449   -0.8380    2.9569 H   0  0  0  0  0  0  0  0  0  0  0  0
    3.4353   -1.3958    4.4950 H   0  0  0  0  0  0  0  0  0  0  0  0
    5.5507    0.1392    5.7158 H   0  0  0  0  0  0  0  0  0  0  0  0
    6.7436    0.4837    4.4602 H   0  0  0  0  0  0  0  0  0  0  0  0
    7.9244   -1.6096    3.4344 H   0  0  0  0  0  0  0  0  0  0  0  0
    6.3232   -1.5621    2.6813 H   0  0  0  0  0  0  0  0  0  0  0  0
    4.7783   -3.8142    3.4420 H   0  0  0  0  0  0  0  0  0  0  0  0
    4.9024   -7.6914    2.9379 H   0  0  0  0  0  0  0  0  0  0  0  0
    5.7769   -9.1179    3.5845 H   0  0  0  0  0  0  0  0  0  0  0  0
    5.6593   -8.8721    1.8208 H   0  0  0  0  0  0  0  0  0  0  0  0
    9.0630   -7.5998    2.6822 H   0  0  0  0  0  0  0  0  0  0  0  0
    8.2274   -8.8180    1.6654 H   0  0  0  0  0  0  0  0  0  0  0  0
    8.3383   -9.0599    3.4303 H   0  0  0  0  0  0  0  0  0  0  0  0
    9.0756   -3.7199    3.1884 H   0  0  0  0  0  0  0  0  0  0  0  0
    7.8019   -1.1695    6.1600 H   0  0  0  0  0  0  0  0  0  0  0  0
    7.5125   -2.8748    5.7805 H   0  0  0  0  0  0  0  0  0  0  0  0
    5.6030   -1.1324    7.4148 H   0  0  0  0  0  0  0  0  0  0  0  0
    5.5499   -4.0717    6.5775 H   0  0  0  0  0  0  0  0  0  0  0  0
    4.1745   -2.9634    6.7684 H   0  0  0  0  0  0  0  0  0  0  0  0
    4.7551   -4.6752    8.8337 H   0  0  0  0  0  0  0  0  0  0  0  0
    4.4159   -2.9708    9.2202 H   0  0  0  0  0  0  0  0  0  0  0  0
    7.1606   -4.3141    8.9296 H   0  0  0  0  0  0  0  0  0  0  0  0
    6.6406   -3.1414   10.1693 H   0  0  0  0  0  0  0  0  0  0  0  0
    5.7711    1.7613    2.7389 H   0  0  0  0  0  0  0  0  0  0  0  0
    3.9177    2.3173    1.2187 H   0  0  0  0  0  0  0  0  0  0  0  0
  1  2  1  0
  1 27  1  0
  1 28  1  0
  1 29  1  0
  2  3  1  0
  3  4  2  0
  3 26  1  0
  4  5  1  0
  4 30  1  0
  5  6  2  0
  5 31  1  0
  6  7  1  0
  6 25  1  0
  7  8  1  0
  7 32  1  0
  7 33  1  0
  8  9  1  0
  8 19  1  0
  9 10  1  0
  9 34  1  0
  9 35  1  0
 10 11  2  0
 10 18  1  0
 11 12  1  0
 11 36  1  0
 12 13  2  0
 13 14  1  0
 13 17  1  0
 14 15  1  0
 14 16  1  0
 15 37  1  0
 15 38  1  0
 15 39  1  0
 16 40  1  0
 16 41  1  0
 16 42  1  0
 17 18  2  0
 18 43  1  0
 19 20  1  0
 19 44  1  0
 19 45  1  0
 20 21  1  0
 20 24  1  0
 20 46  1  1
 21 22  1  0
 21 47  1  0
 21 48  1  0
 22 23  1  0
 22 49  1  0
 22 50  1  0
 23 24  1  0
 23 51  1  0
 23 52  1  0
 25 26  2  0
 25 53  1  0
 26 54  1  0
M  END

