
     RDKit          3D

 45 46  0  0  0  0  0  0  0  0999 V2000
    1.5616   -0.0698   -1.7585 C   0  0  0  0  0  0  0  0  0  0  0  0
    1.5971   -1.0473   -0.7425 O   0  0  0  0  0  0  0  0  0  0  0  0
    2.6296   -1.9249   -0.7107 C   0  0  0  0  0  0  0  0  0  0  0  0
    3.6883   -1.9515   -1.6098 C   0  0  0  0  0  0  0  0  0  0  0  0
    4.7256   -2.9114   -1.4964 C   0  0  0  0  0  0  0  0  0  0  0  0
    5.8532   -2.9743   -2.4195 C   0  0  0  0  0  0  0  0  0  0  0  0
    6.1099   -2.1824   -3.4848 C   0  0  0  0  0  0  0  0  0  0  0  0
    7.3293   -2.4089   -4.2890 C   0  0  0  0  0  0  0  0  0  0  0  0
    8.1650   -3.2793   -3.9793 O   0  0  0  0  0  0  0  0  0  0  0  0
    7.5279   -1.6315   -5.3882 N   0  0  0  0  0  0  0  0  0  0  0  0
    6.6196   -0.6030   -5.9200 C   0  0  0  0  0  0  0  0  0  0  0  0
    7.3023   -0.1588   -7.2196 C   0  0  0  0  0  0  0  0  0  0  0  0
    8.7944   -0.3569   -6.9234 C   0  0  0  0  0  0  0  0  0  0  0  0
    8.8201   -1.6531   -6.1099 C   0  0  2  0  0  0  0  0  0  0  0  0
    9.6354   -1.6812   -5.3671 H   0  0  0  0  0  0  0  0  0  0  0  0
    8.9770   -2.9161   -7.0011 C   0  0  0  0  0  0  0  0  0  0  0  0
    9.1284   -2.8494   -8.1960 O   0  0  0  0  0  0  0  0  0  0  0  0
    8.9561   -4.0663   -6.3414 O   0  0  0  0  0  0  0  0  0  0  0  0
    4.6593   -3.8402   -0.4487 C   0  0  0  0  0  0  0  0  0  0  0  0
    3.6005   -3.8269    0.4662 C   0  0  0  0  0  0  0  0  0  0  0  0
    2.5837   -2.8799    0.3482 C   0  0  0  0  0  0  0  0  0  0  0  0
    1.5189   -2.7773    1.1730 O   0  0  0  0  0  0  0  0  0  0  0  0
    1.3518   -3.6684    2.2578 C   0  0  0  0  0  0  0  0  0  0  0  0
    0.0659   -3.3373    3.0204 C   0  0  0  0  0  0  0  0  0  0  0  0
   -0.6438   -2.2979    2.5197 N   0  0  0  0  0  0  0  0  0  0  0  0
   -0.2440   -3.9949    3.9950 O   0  0  0  0  0  0  0  0  0  0  0  0
    0.6511    0.5213   -1.5930 H   0  0  0  0  0  0  0  0  0  0  0  0
    1.5145   -0.5254   -2.7641 H   0  0  0  0  0  0  0  0  0  0  0  0
    2.4377    0.6019   -1.7119 H   0  0  0  0  0  0  0  0  0  0  0  0
    3.7229   -1.2225   -2.4180 H   0  0  0  0  0  0  0  0  0  0  0  0
    6.5882   -3.7626   -2.2251 H   0  0  0  0  0  0  0  0  0  0  0  0
    5.4400   -1.3677   -3.7628 H   0  0  0  0  0  0  0  0  0  0  0  0
    6.5301    0.2394   -5.2098 H   0  0  0  0  0  0  0  0  0  0  0  0
    5.6120   -1.0123   -6.0896 H   0  0  0  0  0  0  0  0  0  0  0  0
    7.0411    0.8736   -7.4941 H   0  0  0  0  0  0  0  0  0  0  0  0
    7.0041   -0.8181   -8.0495 H   0  0  0  0  0  0  0  0  0  0  0  0
    9.1844    0.4744   -6.3139 H   0  0  0  0  0  0  0  0  0  0  0  0
    9.4024   -0.4499   -7.8317 H   0  0  0  0  0  0  0  0  0  0  0  0
    8.7816   -3.9017   -5.3708 H   0  0  0  0  0  0  0  0  0  0  0  0
    5.4481   -4.5885   -0.3436 H   0  0  0  0  0  0  0  0  0  0  0  0
    3.5755   -4.5614    1.2712 H   0  0  0  0  0  0  0  0  0  0  0  0
    2.1931   -3.6027    2.9705 H   0  0  0  0  0  0  0  0  0  0  0  0
    1.2805   -4.7160    1.9148 H   0  0  0  0  0  0  0  0  0  0  0  0
   -0.3151   -1.7969    1.7029 H   0  0  0  0  0  0  0  0  0  0  0  0
   -1.5038   -2.0302    2.9824 H   0  0  0  0  0  0  0  0  0  0  0  0
  1  2  1  0
  1 27  1  0
  1 28  1  0
  1 29  1  0
  2  3  1  0
  3  4  2  0
  3 21  1  0
  4  5  1  0
  4 30  1  0
  5  6  1  0
  5 19  2  0
  6  7  2  0
  6 31  1  0
  7  8  1  0
  7 32  1  0
  8  9  2  0
  8 10  1  0
 10 11  1  0
 10 14  1  0
 11 12  1  0
 11 33  1  0
 11 34  1  0
 12 13  1  0
 12 35  1  0
 12 36  1  0
 13 14  1  0
 13 37  1  0
 13 38  1  0
 14 15  1  1
 14 16  1  0
 16 17  2  0
 16 18  1  0
 18 39  1  0
 19 20  1  0
 19 40  1  0
 20 21  2  0
 20 41  1  0
 21 22  1  0
 22 23  1  0
 23 24  1  0
 23 42  1  0
 23 43  1  0
 24 25  1  0
 24 26  2  0
 25 44  1  0
 25 45  1  0
M  END

