
     RDKit          3D

102103  0  0  0  0  0  0  0  0999 V2000
    9.3539    5.8358   -1.8323 C   0  0  0  0  0  0  0  0  0  0  0  0
    8.9454    4.4016   -2.1840 C   0  0  1  0  0  0  0  0  0  0  0  0
    7.8097    4.3612   -3.2114 C   0  0  0  0  0  0  0  0  0  0  0  0
   10.1511    3.5979   -2.6742 C   0  0  0  0  0  0  0  0  0  0  0  0
    8.5464    3.6818   -0.9685 O   0  0  0  0  0  0  0  0  0  0  0  0
    7.4989    4.0760   -0.2173 C   0  0  0  0  0  0  0  0  0  0  0  0
    6.7778    5.0294   -0.4230 O   0  0  0  0  0  0  0  0  0  0  0  0
    7.3637    3.2368    0.8642 N   0  0  0  0  0  0  0  0  0  0  0  0
    6.1699    3.2830    1.6988 C   0  0  1  0  0  0  0  0  0  0  0  0
    5.2828    3.4232    1.0606 H   0  0  0  0  0  0  0  0  0  0  0  0
    6.0639    1.9509    2.4735 C   0  0  0  0  0  0  0  0  0  0  0  0
    4.9041    1.8097    3.4668 C   0  0  0  0  0  0  0  0  0  0  0  0
    3.5278    2.0268    2.8441 C   0  0  0  0  0  0  0  0  0  0  0  0
    2.4773    1.7046    3.7729 O   0  0  0  0  0  0  0  0  0  0  0  0
    2.0864    0.4188    3.8575 C   0  0  0  0  0  0  0  0  0  0  0  0
    2.5808   -0.4676    3.1995 O   0  0  0  0  0  0  0  0  0  0  0  0
    0.9240    0.2479    4.8342 C   0  0  1  0  0  0  0  0  0  0  0  0
    0.5906   -1.2371    5.0601 C   0  0  0  0  0  0  0  0  0  0  0  0
    1.6228   -1.9412    5.9531 C   0  0  0  0  0  0  0  0  0  0  0  0
    1.8326   -1.2002    7.2804 C   0  0  0  0  0  0  0  0  0  0  0  0
    2.1948    0.2730    7.0492 C   0  0  0  0  0  0  0  0  0  0  0  0
    1.1510    0.9802    6.1753 C   0  0  0  0  0  0  0  0  0  0  0  0
    6.1497    4.4855    2.6570 C   0  0  0  0  0  0  0  0  0  0  0  0
    5.0939    4.9064    3.1105 O   0  0  0  0  0  0  0  0  0  0  0  0
    7.3575    4.9863    3.0107 N   0  0  0  0  0  0  0  0  0  0  0  0
    7.4862    6.0669    3.9759 C   0  0  1  0  0  0  0  0  0  0  0  0
    8.5588    6.1170    4.2336 H   0  0  0  0  0  0  0  0  0  0  0  0
    7.0550    7.4327    3.4050 C   0  0  0  0  0  0  0  0  0  0  0  0
    7.6980    8.6398    4.0945 C   0  0  0  0  0  0  0  0  0  0  0  0
    7.2144    9.9775    3.5289 C   0  0  0  0  0  0  0  0  0  0  0  0
    7.8841   11.1834    4.1980 C   0  0  0  0  0  0  0  0  0  0  0  0
    7.4315   12.4636    3.6892 N   0  0  0  0  0  0  0  0  0  0  0  0
    6.5447   13.2492    4.3585 C   0  0  0  0  0  0  0  0  0  0  0  0
    6.1008   13.0265    5.4677 O   0  0  0  0  0  0  0  0  0  0  0  0
    6.2263   14.3335    3.6052 O   0  0  0  0  0  0  0  0  0  0  0  0
    5.3305   15.2963    4.1906 C   0  0  0  0  0  0  0  0  0  0  0  0
    6.0674   16.4053    4.9054 C   0  0  0  0  0  0  0  0  0  0  0  0
    6.3061   17.6302    4.2653 C   0  0  0  0  0  0  0  0  0  0  0  0
    6.9984   18.6548    4.9174 C   0  0  0  0  0  0  0  0  0  0  0  0
    7.4633   18.4628    6.2214 C   0  0  0  0  0  0  0  0  0  0  0  0
    7.2316   17.2442    6.8687 C   0  0  0  0  0  0  0  0  0  0  0  0
    6.5374   16.2221    6.2170 C   0  0  0  0  0  0  0  0  0  0  0  0
    6.7941    5.6235    5.2897 C   0  0  0  0  0  0  0  0  0  0  0  0
    6.8981    4.4989    5.7180 O   0  0  0  0  0  0  0  0  0  0  0  0
    6.1460    6.6270    5.8789 O   0  0  0  0  0  0  0  0  0  0  0  0
    5.3550    6.4496    7.1117 C   0  0  1  0  0  0  0  0  0  0  0  0
    6.2817    6.0660    8.2687 C   0  0  0  0  0  0  0  0  0  0  0  0
    4.7499    7.8366    7.3309 C   0  0  0  0  0  0  0  0  0  0  0  0
    4.2569    5.4090    6.8725 C   0  0  0  0  0  0  0  0  0  0  0  0
    9.7558    6.3368   -2.7267 H   0  0  0  0  0  0  0  0  0  0  0  0
   10.1415    5.8323   -1.0622 H   0  0  0  0  0  0  0  0  0  0  0  0
    8.4960    6.4111   -1.4618 H   0  0  0  0  0  0  0  0  0  0  0  0
    8.1510    4.8057   -4.1593 H   0  0  0  0  0  0  0  0  0  0  0  0
    6.9343    4.9192   -2.8556 H   0  0  0  0  0  0  0  0  0  0  0  0
    7.5109    3.3203   -3.4118 H   0  0  0  0  0  0  0  0  0  0  0  0
   10.5535    4.0398   -3.5982 H   0  0  0  0  0  0  0  0  0  0  0  0
    9.8638    2.5561   -2.8824 H   0  0  0  0  0  0  0  0  0  0  0  0
   10.9478    3.5909   -1.9149 H   0  0  0  0  0  0  0  0  0  0  0  0
    7.9081    2.3812    0.8411 H   0  0  0  0  0  0  0  0  0  0  0  0
    7.0092    1.8007    3.0236 H   0  0  0  0  0  0  0  0  0  0  0  0
    6.0005    1.1438    1.7216 H   0  0  0  0  0  0  0  0  0  0  0  0
    5.0358    2.5067    4.3082 H   0  0  0  0  0  0  0  0  0  0  0  0
    4.9462    0.7875    3.8748 H   0  0  0  0  0  0  0  0  0  0  0  0
    3.4055    1.4086    1.9408 H   0  0  0  0  0  0  0  0  0  0  0  0
    3.3783    3.0866    2.6026 H   0  0  0  0  0  0  0  0  0  0  0  0
    0.0718    0.7359    4.3257 H   0  0  0  0  0  0  0  0  0  0  0  0
    0.5139   -1.7521    4.0908 H   0  0  0  0  0  0  0  0  0  0  0  0
   -0.4040   -1.2929    5.5371 H   0  0  0  0  0  0  0  0  0  0  0  0
    2.5808   -2.0030    5.4093 H   0  0  0  0  0  0  0  0  0  0  0  0
    1.3046   -2.9806    6.1412 H   0  0  0  0  0  0  0  0  0  0  0  0
    2.6153   -1.6983    7.8774 H   0  0  0  0  0  0  0  0  0  0  0  0
    0.9046   -1.2529    7.8807 H   0  0  0  0  0  0  0  0  0  0  0  0
    3.1854    0.3357    6.5615 H   0  0  0  0  0  0  0  0  0  0  0  0
    2.2955    0.8013    8.0123 H   0  0  0  0  0  0  0  0  0  0  0  0
    1.4391    2.0245    5.9869 H   0  0  0  0  0  0  0  0  0  0  0  0
    0.1869    1.0058    6.7137 H   0  0  0  0  0  0  0  0  0  0  0  0
    8.1822    4.5886    2.5793 H   0  0  0  0  0  0  0  0  0  0  0  0
    5.9582    7.5030    3.4413 H   0  0  0  0  0  0  0  0  0  0  0  0
    7.3331    7.4345    2.3378 H   0  0  0  0  0  0  0  0  0  0  0  0
    8.7986    8.5754    3.9922 H   0  0  0  0  0  0  0  0  0  0  0  0
    7.4854    8.6059    5.1750 H   0  0  0  0  0  0  0  0  0  0  0  0
    6.1218   10.0629    3.6588 H   0  0  0  0  0  0  0  0  0  0  0  0
    7.4002   10.0121    2.4392 H   0  0  0  0  0  0  0  0  0  0  0  0
    8.9809   11.1169    4.0818 H   0  0  0  0  0  0  0  0  0  0  0  0
    7.6716   11.1810    5.2770 H   0  0  0  0  0  0  0  0  0  0  0  0
    7.6733   12.7462    2.7467 H   0  0  0  0  0  0  0  0  0  0  0  0
    4.6517   14.7713    4.8771 H   0  0  0  0  0  0  0  0  0  0  0  0
    4.7551   15.6992    3.3454 H   0  0  0  0  0  0  0  0  0  0  0  0
    5.9428   17.7846    3.2449 H   0  0  0  0  0  0  0  0  0  0  0  0
    7.1739   19.6053    4.4066 H   0  0  0  0  0  0  0  0  0  0  0  0
    8.0037   19.2628    6.7344 H   0  0  0  0  0  0  0  0  0  0  0  0
    7.5910   17.0906    7.8896 H   0  0  0  0  0  0  0  0  0  0  0  0
    6.3596   15.2658    6.7145 H   0  0  0  0  0  0  0  0  0  0  0  0
    7.0779    6.8171    8.3919 H   0  0  0  0  0  0  0  0  0  0  0  0
    6.7413    5.0840    8.0992 H   0  0  0  0  0  0  0  0  0  0  0  0
    5.7039    6.0278    9.2055 H   0  0  0  0  0  0  0  0  0  0  0  0
    5.5383    8.5956    7.4473 H   0  0  0  0  0  0  0  0  0  0  0  0
    4.1299    7.8396    8.2402 H   0  0  0  0  0  0  0  0  0  0  0  0
    4.1173    8.1233    6.4776 H   0  0  0  0  0  0  0  0  0  0  0  0
    4.6759    4.4005    6.7694 H   0  0  0  0  0  0  0  0  0  0  0  0
    3.6981    5.6480    5.9554 H   0  0  0  0  0  0  0  0  0  0  0  0
    3.5559    5.4158    7.7219 H   0  0  0  0  0  0  0  0  0  0  0  0
  1  2  1  0
  1 50  1  0
  1 51  1  0
  1 52  1  0
  2  3  1  0
  2  4  1  0
  2  5  1  1
  3 53  1  0
  3 54  1  0
  3 55  1  0
  4 56  1  0
  4 57  1  0
  4 58  1  0
  5  6  1  0
  6  7  2  0
  6  8  1  0
  8  9  1  0
  8 59  1  0
  9 10  1  6
  9 11  1  0
  9 23  1  0
 11 12  1  0
 11 60  1  0
 11 61  1  0
 12 13  1  0
 12 62  1  0
 12 63  1  0
 13 14  1  0
 13 64  1  0
 13 65  1  0
 14 15  1  0
 15 16  2  0
 15 17  1  0
 17 18  1  0
 17 22  1  0
 17 66  1  6
 18 19  1  0
 18 67  1  0
 18 68  1  0
 19 20  1  0
 19 69  1  0
 19 70  1  0
 20 21  1  0
 20 71  1  0
 20 72  1  0
 21 22  1  0
 21 73  1  0
 21 74  1  0
 22 75  1  0
 22 76  1  0
 23 24  2  0
 23 25  1  0
 25 26  1  0
 25 77  1  0
 26 27  1  1
 26 28  1  0
 26 43  1  0
 28 29  1  0
 28 78  1  0
 28 79  1  0
 29 30  1  0
 29 80  1  0
 29 81  1  0
 30 31  1  0
 30 82  1  0
 30 83  1  0
 31 32  1  0
 31 84  1  0
 31 85  1  0
 32 33  1  0
 32 86  1  0
 33 34  2  0
 33 35  1  0
 35 36  1  0
 36 37  1  0
 36 87  1  0
 36 88  1  0
 37 38  2  0
 37 42  1  0
 38 39  1  0
 38 89  1  0
 39 40  2  0
 39 90  1  0
 40 41  1  0
 40 91  1  0
 41 42  2  0
 41 92  1  0
 42 93  1  0
 43 44  2  0
 43 45  1  0
 46 45  1  6
 46 47  1  0
 46 48  1  0
 46 49  1  0
 47 94  1  0
 47 95  1  0
 47 96  1  0
 48 97  1  0
 48 98  1  0
 48 99  1  0
 49100  1  0
 49101  1  0
 49102  1  0
M  END

