
     RDKit          3D

 68 73  0  0  0  0  0  0  0  0999 V2000
    4.6121   -0.8976    1.0478 C   0  0  0  0  0  0  0  0  0  0  0  0
    6.0080   -0.3770    1.2362 C   0  0  0  0  0  0  0  0  0  0  0  0
    6.7098    0.3829    0.2908 C   0  0  0  0  0  0  0  0  0  0  0  0
    6.2274    0.8686   -1.0491 C   0  0  0  0  0  0  0  0  0  0  0  0
    6.7456    0.1164   -2.2711 C   0  0  0  0  0  0  0  0  0  0  0  0
    7.1272   -1.2318   -2.2072 C   0  0  0  0  0  0  0  0  0  0  0  0
    7.5560   -1.9109   -3.3523 C   0  0  0  0  0  0  0  0  0  0  0  0
    7.6139   -1.2521   -4.5830 C   0  0  0  0  0  0  0  0  0  0  0  0
    7.2407    0.0936   -4.6594 C   0  0  0  0  0  0  0  0  0  0  0  0
    6.8128    0.7683   -3.5137 C   0  0  0  0  0  0  0  0  0  0  0  0
    8.0038    0.6289    0.8254 C   0  0  0  0  0  0  0  0  0  0  0  0
    9.1244    1.3991    0.2083 C   0  0  0  0  0  0  0  0  0  0  0  0
    8.1050    0.0515    2.0350 N   0  0  0  0  0  0  0  0  0  0  0  0
    6.8988   -0.5752    2.3488 C   0  0  0  0  0  0  0  0  0  0  0  0
    6.7432   -1.2598    3.5731 C   0  0  0  0  0  0  0  0  0  0  0  0
    5.4028   -1.8418    3.9417 C   0  0  0  0  0  0  0  0  0  0  0  0
    7.8338   -1.3938    4.4624 C   0  0  0  0  0  0  0  0  0  0  0  0
    7.9812   -2.1211    5.6897 C   0  0  0  0  0  0  0  0  0  0  0  0
    6.9919   -3.0235    6.3663 C   0  0  0  0  0  0  0  0  0  0  0  0
    9.2989   -1.8976    6.1299 C   0  0  0  0  0  0  0  0  0  0  0  0
    9.9372   -2.4385    7.3403 C   0  0  0  0  0  0  0  0  0  0  0  0
   11.2358   -2.8837    7.4179 C   0  0  0  0  0  0  0  0  0  0  0  0
   11.6053   -3.4163    9.0348 S   0  0  0  0  0  0  0  0  0  0  0  0
    9.9373   -3.0246    9.4916 C   0  0  0  0  0  0  0  0  0  0  0  0
    9.4729   -3.2417   10.7630 N   0  0  0  0  0  0  0  0  0  0  0  0
    8.2379   -2.5773   11.1791 C   0  0  0  0  0  0  0  0  0  0  0  0
    7.5771   -3.3748   12.2973 C   0  0  0  0  0  0  0  0  0  0  0  0
    8.4742   -3.6067   13.3661 O   0  0  0  0  0  0  0  0  0  0  0  0
    9.6034   -4.3366   12.9416 C   0  0  0  0  0  0  0  0  0  0  0  0
   10.3754   -3.5976   11.8481 C   0  0  0  0  0  0  0  0  0  0  0  0
    9.2219   -2.5277    8.5215 N   0  0  0  0  0  0  0  0  0  0  0  0
    9.9221   -1.0402    5.1778 C   0  0  0  0  0  0  0  0  0  0  0  0
   11.2992   -0.4619    5.1996 C   0  0  0  0  0  0  0  0  0  0  0  0
    9.0501   -0.7648    4.1927 N   0  0  0  0  0  0  0  0  0  0  0  0
    9.3617    0.1204    2.9509 B   0  0  1  0  0  0  0  0  0  0  0  0
   10.4688   -0.3907    2.2774 F   0  0  0  0  0  0  0  0  0  0  0  0
    9.5985    1.4398    3.3363 F   0  0  0  0  0  0  0  0  0  0  0  0
    4.5380   -1.9770    1.2492 H   0  0  0  0  0  0  0  0  0  0  0  0
    4.2765   -0.7389    0.0136 H   0  0  0  0  0  0  0  0  0  0  0  0
    3.8817   -0.3940    1.7044 H   0  0  0  0  0  0  0  0  0  0  0  0
    6.4810    1.9357   -1.1660 H   0  0  0  0  0  0  0  0  0  0  0  0
    5.1244    0.8393   -1.0673 H   0  0  0  0  0  0  0  0  0  0  0  0
    7.0964   -1.7542   -1.2480 H   0  0  0  0  0  0  0  0  0  0  0  0
    7.8512   -2.9611   -3.2793 H   0  0  0  0  0  0  0  0  0  0  0  0
    7.9531   -1.7816   -5.4771 H   0  0  0  0  0  0  0  0  0  0  0  0
    7.2879    0.6223   -5.6152 H   0  0  0  0  0  0  0  0  0  0  0  0
    6.5260    1.8223   -3.5834 H   0  0  0  0  0  0  0  0  0  0  0  0
    9.4479    2.2098    0.8796 H   0  0  0  0  0  0  0  0  0  0  0  0
   10.0006    0.7496    0.0587 H   0  0  0  0  0  0  0  0  0  0  0  0
    8.8291    1.8236   -0.7594 H   0  0  0  0  0  0  0  0  0  0  0  0
    4.5824   -1.2701    3.4984 H   0  0  0  0  0  0  0  0  0  0  0  0
    5.2539   -1.8447    5.0255 H   0  0  0  0  0  0  0  0  0  0  0  0
    5.3071   -2.8849    3.5926 H   0  0  0  0  0  0  0  0  0  0  0  0
    6.5277   -3.7300    5.6616 H   0  0  0  0  0  0  0  0  0  0  0  0
    6.1768   -2.4563    6.8484 H   0  0  0  0  0  0  0  0  0  0  0  0
    7.4844   -3.5958    7.1609 H   0  0  0  0  0  0  0  0  0  0  0  0
   11.9784   -2.9589    6.6279 H   0  0  0  0  0  0  0  0  0  0  0  0
    7.5769   -2.4927   10.3072 H   0  0  0  0  0  0  0  0  0  0  0  0
    8.4598   -1.5510   11.5356 H   0  0  0  0  0  0  0  0  0  0  0  0
    7.2033   -4.3393   11.8960 H   0  0  0  0  0  0  0  0  0  0  0  0
    6.7229   -2.8162   12.7083 H   0  0  0  0  0  0  0  0  0  0  0  0
    9.2972   -5.3328   12.5603 H   0  0  0  0  0  0  0  0  0  0  0  0
   10.2463   -4.4853   13.8223 H   0  0  0  0  0  0  0  0  0  0  0  0
   11.1725   -4.2542   11.4657 H   0  0  0  0  0  0  0  0  0  0  0  0
   10.8567   -2.6937   12.2753 H   0  0  0  0  0  0  0  0  0  0  0  0
   11.7176   -0.4961    6.2138 H   0  0  0  0  0  0  0  0  0  0  0  0
   11.2776    0.5782    4.8459 H   0  0  0  0  0  0  0  0  0  0  0  0
   11.9716   -1.0164    4.5237 H   0  0  0  0  0  0  0  0  0  0  0  0
  1  2  1  0
  1 38  1  0
  1 39  1  0
  1 40  1  0
  2  3  1  0
  2 14  2  0
  3  4  1  0
  3 11  2  0
  4  5  1  0
  4 41  1  0
  4 42  1  0
  5  6  2  0
  5 10  1  0
  6  7  1  0
  6 43  1  0
  7  8  2  0
  7 44  1  0
  8  9  1  0
  8 45  1  0
  9 10  2  0
  9 46  1  0
 10 47  1  0
 11 12  1  0
 11 13  1  0
 12 48  1  0
 12 49  1  0
 12 50  1  0
 13 14  1  0
 13 35  1  0
 14 15  1  0
 15 16  1  0
 15 17  2  0
 16 51  1  0
 16 52  1  0
 16 53  1  0
 17 18  1  0
 17 34  1  0
 18 19  1  0
 18 20  2  0
 19 54  1  0
 19 55  1  0
 19 56  1  0
 20 21  1  0
 20 32  1  0
 21 22  2  0
 21 31  1  0
 22 23  1  0
 22 57  1  0
 23 24  1  0
 24 25  1  0
 24 31  2  0
 25 26  1  0
 25 30  1  0
 26 27  1  0
 26 58  1  0
 26 59  1  0
 27 28  1  0
 27 60  1  0
 27 61  1  0
 28 29  1  0
 29 30  1  0
 29 62  1  0
 29 63  1  0
 30 64  1  0
 30 65  1  0
 32 33  1  0
 32 34  2  0
 33 66  1  0
 33 67  1  0
 33 68  1  0
 34 35  1  0
 35 36  1  6
 35 37  1  0
M  CHG  2  34   1  35  -1
M  END

