
     RDKit          3D

 52 54  0  0  0  0  0  0  0  0999 V2000
    1.3880   -1.3992   -0.4787 C   0  0  0  0  0  0  0  0  0  0  0  0
    2.3881   -0.5735   -0.1598 C   0  0  0  0  0  0  0  0  0  0  0  0
    3.4687   -0.9011    0.8395 C   0  0  0  0  0  0  0  0  0  0  0  0
    4.8043   -1.0395    0.2089 N   0  0  0  0  0  0  0  0  0  0  0  0
    5.4540    0.1423   -0.1568 C   0  0  0  0  0  0  0  0  0  0  0  0
    4.9919    1.2430    0.0173 O   0  0  0  0  0  0  0  0  0  0  0  0
    6.7828   -0.1031   -0.8713 C   0  0  1  0  0  0  0  0  0  0  0  0
    6.6423    0.2481   -1.9058 H   0  0  0  0  0  0  0  0  0  0  0  0
    7.9316    0.6919   -0.2458 C   0  0  0  0  0  0  0  0  0  0  0  0
    8.1764    0.3125    1.2164 C   0  0  0  0  0  0  0  0  0  0  0  0
    7.2656   -0.1010    1.9151 O   0  0  0  0  0  0  0  0  0  0  0  0
    9.4562    0.5232    1.6474 N   0  0  0  0  0  0  0  0  0  0  0  0
   10.0020    0.3538    2.9421 C   0  0  0  0  0  0  0  0  0  0  0  0
    9.2537   -0.1013    4.0453 C   0  0  0  0  0  0  0  0  0  0  0  0
    9.8653   -0.2403    5.2863 C   0  0  0  0  0  0  0  0  0  0  0  0
   11.2247    0.0638    5.4703 C   0  0  0  0  0  0  0  0  0  0  0  0
   11.7182   -0.1086    6.7236 O   0  0  0  0  0  0  0  0  0  0  0  0
   13.0738    0.1785    6.9753 C   0  0  0  0  0  0  0  0  0  0  0  0
   11.9720    0.5163    4.3733 C   0  0  0  0  0  0  0  0  0  0  0  0
   11.3575    0.6565    3.1258 C   0  0  0  0  0  0  0  0  0  0  0  0
    7.0171   -1.9146   -0.8969 S   0  0  0  0  0  0  0  0  0  0  0  0
    5.4861   -2.2176   -0.0263 C   0  0  0  0  0  0  0  0  0  0  0  0
    5.2460   -3.4486    0.2307 N   0  0  0  0  0  0  0  0  0  0  0  0
    4.0137   -4.2086    1.0592 S   0  0  1  0  0  0  0  0  0  0  0  0
    3.9105   -3.6838    2.4296 O   0  0  0  0  0  0  0  0  0  0  0  0
    2.8141   -4.2739    0.2147 O   0  0  0  0  0  0  0  0  0  0  0  0
    4.7045   -5.8590    1.1600 C   0  0  0  0  0  0  0  0  0  0  0  0
    5.4933   -6.1985    2.2618 C   0  0  0  0  0  0  0  0  0  0  0  0
    6.0190   -7.4904    2.3398 C   0  0  0  0  0  0  0  0  0  0  0  0
    5.7497   -8.4209    1.3302 C   0  0  0  0  0  0  0  0  0  0  0  0
    4.9487   -8.0667    0.2392 C   0  0  0  0  0  0  0  0  0  0  0  0
    4.4165   -6.7781    0.1484 C   0  0  0  0  0  0  0  0  0  0  0  0
    0.6180   -1.0950   -1.1943 H   0  0  0  0  0  0  0  0  0  0  0  0
    1.3170   -2.4043   -0.0544 H   0  0  0  0  0  0  0  0  0  0  0  0
    2.4542    0.4205   -0.6158 H   0  0  0  0  0  0  0  0  0  0  0  0
    3.2523   -1.8074    1.4103 H   0  0  0  0  0  0  0  0  0  0  0  0
    3.5751   -0.0762    1.5601 H   0  0  0  0  0  0  0  0  0  0  0  0
    8.8425    0.5897   -0.8569 H   0  0  0  0  0  0  0  0  0  0  0  0
    7.6393    1.7572   -0.2710 H   0  0  0  0  0  0  0  0  0  0  0  0
   10.1127    0.8565    0.9515 H   0  0  0  0  0  0  0  0  0  0  0  0
    8.2010   -0.3415    3.9155 H   0  0  0  0  0  0  0  0  0  0  0  0
    9.2941   -0.5923    6.1478 H   0  0  0  0  0  0  0  0  0  0  0  0
   13.2470   -0.0303    8.0396 H   0  0  0  0  0  0  0  0  0  0  0  0
   13.3153    1.2389    6.7765 H   0  0  0  0  0  0  0  0  0  0  0  0
   13.7493   -0.4568    6.3732 H   0  0  0  0  0  0  0  0  0  0  0  0
   13.0290    0.7633    4.4714 H   0  0  0  0  0  0  0  0  0  0  0  0
   11.9549    1.0112    2.2799 H   0  0  0  0  0  0  0  0  0  0  0  0
    5.6775   -5.4600    3.0439 H   0  0  0  0  0  0  0  0  0  0  0  0
    6.6370   -7.7727    3.1956 H   0  0  0  0  0  0  0  0  0  0  0  0
    6.1617   -9.4310    1.3974 H   0  0  0  0  0  0  0  0  0  0  0  0
    4.7320   -8.7985   -0.5429 H   0  0  0  0  0  0  0  0  0  0  0  0
    3.7772   -6.4821   -0.6849 H   0  0  0  0  0  0  0  0  0  0  0  0
  1  2  2  0
  1 33  1  0
  1 34  1  0
  2  3  1  0
  2 35  1  0
  3  4  1  0
  3 36  1  0
  3 37  1  0
  4  5  1  0
  4 22  1  0
  5  6  2  0
  5  7  1  0
  7  8  1  6
  7  9  1  0
  7 21  1  0
  9 10  1  0
  9 38  1  0
  9 39  1  0
 10 11  2  0
 10 12  1  0
 12 13  1  0
 12 40  1  0
 13 14  2  0
 13 20  1  0
 14 15  1  0
 14 41  1  0
 15 16  2  0
 15 42  1  0
 16 17  1  0
 16 19  1  0
 17 18  1  0
 18 43  1  0
 18 44  1  0
 18 45  1  0
 19 20  2  0
 19 46  1  0
 20 47  1  0
 21 22  2  0
 22 23  1  0
 23 24  3  0
 24 25  1  1
 24 26  1  0
 24 27  1  0
 27 28  2  0
 27 32  1  0
 28 29  1  0
 28 48  1  0
 29 30  2  0
 29 49  1  0
 30 31  1  0
 30 50  1  0
 31 32  2  0
 31 51  1  0
 32 52  1  0
M  CHG  4  21   1  23   1  25  -1  26  -1
M  END

