
     RDKit          3D

 59 63  0  0  0  0  0  0  0  0999 V2000
    4.7191   -1.1489    1.7302 C   0  0  0  0  0  0  0  0  0  0  0  0
    4.2611    0.1995    2.1985 C   0  0  0  0  0  0  0  0  0  0  0  0
    3.6140    1.1820    1.4722 C   0  0  0  0  0  0  0  0  0  0  0  0
    3.1961    1.2489    0.0311 C   0  0  0  0  0  0  0  0  0  0  0  0
    1.9280    1.9607   -0.1262 N   0  0  0  0  0  0  0  0  0  0  0  0
    1.6743    2.5197   -1.4539 C   0  0  0  0  0  0  0  0  0  0  0  0
    1.2026    1.4822   -2.4924 C   0  0  0  0  0  0  0  0  0  0  0  0
    0.0341    0.6055   -1.9980 C   0  0  2  0  0  0  0  0  0  0  0  0
   -1.2651    1.2789   -2.1206 N   0  0  0  0  0  0  0  0  0  0  0  0
   -1.3829    2.6226   -2.0202 N   0  0  0  0  0  0  0  0  0  0  0  0
   -2.6800    2.8746   -2.1401 C   0  0  0  0  0  0  0  0  0  0  0  0
   -3.4416    1.6971   -2.3138 C   0  0  0  0  0  0  0  0  0  0  0  0
   -2.4901    0.6855   -2.2894 C   0  0  0  0  0  0  0  0  0  0  0  0
   -2.6135   -0.6997   -2.4062 N   0  0  0  0  0  0  0  0  0  0  0  0
   -3.7947   -1.3812   -2.6273 C   0  0  0  0  0  0  0  0  0  0  0  0
   -4.8698   -0.8250   -2.7411 O   0  0  0  0  0  0  0  0  0  0  0  0
   -3.6412   -2.8920   -2.7533 C   0  0  1  0  0  0  0  0  0  0  0  0
   -2.6197   -3.2094   -2.4872 H   0  0  0  0  0  0  0  0  0  0  0  0
   -4.6777   -3.6837   -1.9182 C   0  0  0  0  0  0  0  0  0  0  0  0
   -5.1078   -4.8391   -2.8608 C   0  0  0  0  0  0  0  0  0  0  0  0
   -4.2781   -4.7552   -4.0095 O   0  0  0  0  0  0  0  0  0  0  0  0
   -3.9545   -3.3976   -4.1827 C   0  0  0  0  0  0  0  0  0  0  0  0
    0.2990    0.1060   -0.5588 C   0  0  0  0  0  0  0  0  0  0  0  0
    0.7533    1.2438    0.3720 C   0  0  0  0  0  0  0  0  0  0  0  0
    3.3914    2.2843    2.2780 N   0  0  0  0  0  0  0  0  0  0  0  0
    2.8453    3.0776    1.9654 H   0  0  0  0  0  0  0  0  0  0  0  0
    3.8699    2.0404    3.5432 C   0  0  0  0  0  0  0  0  0  0  0  0
    3.8581    2.8346    4.6981 C   0  0  0  0  0  0  0  0  0  0  0  0
    4.4355    2.3080    5.8517 C   0  0  0  0  0  0  0  0  0  0  0  0
    5.0116    1.0191    5.8584 C   0  0  0  0  0  0  0  0  0  0  0  0
    5.0188    0.2303    4.7108 C   0  0  0  0  0  0  0  0  0  0  0  0
    4.4403    0.7332    3.5297 C   0  0  0  0  0  0  0  0  0  0  0  0
    4.3627   -1.3767    0.7141 H   0  0  0  0  0  0  0  0  0  0  0  0
    4.3561   -1.9509    2.3959 H   0  0  0  0  0  0  0  0  0  0  0  0
    5.8208   -1.2262    1.7134 H   0  0  0  0  0  0  0  0  0  0  0  0
    3.2068    0.2223   -0.3907 H   0  0  0  0  0  0  0  0  0  0  0  0
    3.9531    1.8149   -0.5422 H   0  0  0  0  0  0  0  0  0  0  0  0
    2.5927    3.0103   -1.8147 H   0  0  0  0  0  0  0  0  0  0  0  0
    0.8975    3.2913   -1.3604 H   0  0  0  0  0  0  0  0  0  0  0  0
    2.0340    0.7982   -2.7354 H   0  0  0  0  0  0  0  0  0  0  0  0
    0.9172    1.9872   -3.4277 H   0  0  0  0  0  0  0  0  0  0  0  0
   -0.0246   -0.2668   -2.6721 H   0  0  0  0  0  0  0  0  0  0  0  0
   -3.0366    3.9038   -2.0986 H   0  0  0  0  0  0  0  0  0  0  0  0
   -4.5097    1.5710   -2.4446 H   0  0  0  0  0  0  0  0  0  0  0  0
   -1.7737   -1.2550   -2.3047 H   0  0  0  0  0  0  0  0  0  0  0  0
   -5.5295   -3.0345   -1.6718 H   0  0  0  0  0  0  0  0  0  0  0  0
   -4.2403   -4.0496   -0.9779 H   0  0  0  0  0  0  0  0  0  0  0  0
   -6.1718   -4.7275   -3.1454 H   0  0  0  0  0  0  0  0  0  0  0  0
   -4.9766   -5.8390   -2.4202 H   0  0  0  0  0  0  0  0  0  0  0  0
   -4.8050   -2.8179   -4.5953 H   0  0  0  0  0  0  0  0  0  0  0  0
   -3.1033   -3.3233   -4.8760 H   0  0  0  0  0  0  0  0  0  0  0  0
    1.0788   -0.6737   -0.6046 H   0  0  0  0  0  0  0  0  0  0  0  0
   -0.6044   -0.3780   -0.1516 H   0  0  0  0  0  0  0  0  0  0  0  0
    0.9714    0.8438    1.3744 H   0  0  0  0  0  0  0  0  0  0  0  0
   -0.0691    1.9701    0.4834 H   0  0  0  0  0  0  0  0  0  0  0  0
    3.4143    3.8335    4.6942 H   0  0  0  0  0  0  0  0  0  0  0  0
    4.4440    2.9047    6.7675 H   0  0  0  0  0  0  0  0  0  0  0  0
    5.4583    0.6383    6.7805 H   0  0  0  0  0  0  0  0  0  0  0  0
    5.4682   -0.7663    4.7280 H   0  0  0  0  0  0  0  0  0  0  0  0
  1  2  1  0
  1 33  1  0
  1 34  1  0
  1 35  1  0
  2  3  2  0
  2 32  1  0
  3  4  1  0
  3 25  1  0
  4  5  1  0
  4 36  1  0
  4 37  1  0
  5  6  1  0
  5 24  1  0
  6  7  1  0
  6 38  1  0
  6 39  1  0
  7  8  1  0
  7 40  1  0
  7 41  1  0
  8  9  1  0
  8 23  1  0
  8 42  1  6
  9 10  1  0
  9 13  1  0
 10 11  2  0
 11 12  1  0
 11 43  1  0
 12 13  2  0
 12 44  1  0
 13 14  1  0
 14 15  1  0
 14 45  1  0
 15 16  2  0
 15 17  1  0
 17 18  1  1
 17 19  1  0
 17 22  1  0
 19 20  1  0
 19 46  1  0
 19 47  1  0
 20 21  1  0
 20 48  1  0
 20 49  1  0
 21 22  1  0
 22 50  1  0
 22 51  1  0
 23 24  1  0
 23 52  1  0
 23 53  1  0
 24 54  1  0
 24 55  1  0
 25 26  1  0
 25 27  1  0
 27 28  1  0
 27 32  2  0
 28 29  2  0
 28 56  1  0
 29 30  1  0
 29 57  1  0
 30 31  2  0
 30 58  1  0
 31 32  1  0
 31 59  1  0
M  END

