
     RDKit          3D

 35 36  0  0  0  0  0  0  0  0999 V2000
    1.6644   -0.5256    1.1046 C   0  0  0  0  0  0  0  0  0  0  0  0
    2.2274    0.2765   -0.0707 C   0  0  0  0  0  0  0  0  0  0  0  0
    2.8700    1.5195    0.3204 N   0  0  0  0  0  0  0  0  0  0  0  0
    4.2074    1.5815    0.6193 C   0  0  0  0  0  0  0  0  0  0  0  0
    4.9374    0.6011    0.5330 O   0  0  0  0  0  0  0  0  0  0  0  0
    4.7294    2.9190    1.0535 C   0  0  0  0  0  0  0  0  0  0  0  0
    4.0877    4.1396    0.8036 C   0  0  0  0  0  0  0  0  0  0  0  0
    4.6557    5.3428    1.2246 C   0  0  0  0  0  0  0  0  0  0  0  0
    5.8852    5.3681    1.9046 C   0  0  0  0  0  0  0  0  0  0  0  0
    6.4539    6.5264    2.3811 N   0  0  0  0  0  0  0  0  0  0  0  0
    6.5388    4.1268    2.1319 C   0  0  0  0  0  0  0  0  0  0  0  0
    7.7421    4.2428    2.7981 O   0  0  0  0  0  0  0  0  0  0  0  0
    8.6204    3.2012    2.8952 C   0  0  0  0  0  0  0  0  0  0  0  0
    9.2617    2.7919    4.0866 C   0  0  0  0  0  0  0  0  0  0  0  0
   10.1299    1.8133    3.8416 N   0  0  0  0  0  0  0  0  0  0  0  0
   10.0588    1.5880    2.5245 N   0  0  0  0  0  0  0  0  0  0  0  0
   10.8096    0.4958    1.9395 C   0  0  0  0  0  0  0  0  0  0  0  0
    9.1609    2.3993    1.8974 C   0  0  0  0  0  0  0  0  0  0  0  0
    5.9721    2.9333    1.7148 C   0  0  0  0  0  0  0  0  0  0  0  0
    1.1818   -1.4501    0.7476 H   0  0  0  0  0  0  0  0  0  0  0  0
    0.9108    0.0529    1.6648 H   0  0  0  0  0  0  0  0  0  0  0  0
    2.4706   -0.8059    1.7996 H   0  0  0  0  0  0  0  0  0  0  0  0
    1.4272    0.5107   -0.7937 H   0  0  0  0  0  0  0  0  0  0  0  0
    2.9862   -0.3201   -0.5968 H   0  0  0  0  0  0  0  0  0  0  0  0
    2.2807    2.2922    0.6032 H   0  0  0  0  0  0  0  0  0  0  0  0
    3.1500    4.1734    0.2436 H   0  0  0  0  0  0  0  0  0  0  0  0
    4.1471    6.2886    1.0185 H   0  0  0  0  0  0  0  0  0  0  0  0
    6.1477    7.4048    1.9839 H   0  0  0  0  0  0  0  0  0  0  0  0
    7.4296    6.4741    2.6465 H   0  0  0  0  0  0  0  0  0  0  0  0
    9.1257    3.1878    5.0922 H   0  0  0  0  0  0  0  0  0  0  0  0
   11.7550    0.3935    2.4878 H   0  0  0  0  0  0  0  0  0  0  0  0
   11.0207    0.7143    0.8834 H   0  0  0  0  0  0  0  0  0  0  0  0
   10.2525   -0.4533    2.0061 H   0  0  0  0  0  0  0  0  0  0  0  0
    8.9683    2.3423    0.8291 H   0  0  0  0  0  0  0  0  0  0  0  0
    6.4758    1.9815    1.8813 H   0  0  0  0  0  0  0  0  0  0  0  0
  1  2  1  0
  1 20  1  0
  1 21  1  0
  1 22  1  0
  2  3  1  0
  2 23  1  0
  2 24  1  0
  3  4  1  0
  3 25  1  0
  4  5  2  0
  4  6  1  0
  6  7  2  0
  6 19  1  0
  7  8  1  0
  7 26  1  0
  8  9  2  0
  8 27  1  0
  9 10  1  0
  9 11  1  0
 10 28  1  0
 10 29  1  0
 11 12  1  0
 11 19  2  0
 12 13  1  0
 13 14  1  0
 13 18  2  0
 14 15  2  0
 14 30  1  0
 15 16  1  0
 16 17  1  0
 16 18  1  0
 17 31  1  0
 17 32  1  0
 17 33  1  0
 18 34  1  0
 19 35  1  0
M  END

