
     RDKit          3D

 54 57  0  0  0  0  0  0  0  0999 V2000
    3.3033   -1.2269    0.7769 C   0  0  0  0  0  0  0  0  0  0  0  0
    2.5170   -0.0602    0.6420 O   0  0  0  0  0  0  0  0  0  0  0  0
    3.1177    1.1210    0.3711 C   0  0  0  0  0  0  0  0  0  0  0  0
    4.5035    1.2971    0.2346 C   0  0  0  0  0  0  0  0  0  0  0  0
    5.0360    2.5458   -0.0806 C   0  0  0  0  0  0  0  0  0  0  0  0
    4.2036    3.6613   -0.2692 C   0  0  0  0  0  0  0  0  0  0  0  0
    4.8021    4.9691   -0.6150 C   0  0  0  0  0  0  0  0  0  0  0  0
    3.9825    6.1334   -0.8496 C   0  0  0  0  0  0  0  0  0  0  0  0
    4.5658    7.3268   -1.1710 C   0  0  0  0  0  0  0  0  0  0  0  0
    3.7836    8.6029   -1.4183 C   0  0  1  0  0  0  0  0  0  0  0  0
    4.1273    9.5583   -0.5460 F   0  0  0  0  0  0  0  0  0  0  0  0
    3.9821    9.0704   -2.6526 F   0  0  0  0  0  0  0  0  0  0  0  0
    2.4694    8.3713   -1.2725 F   0  0  0  0  0  0  0  0  0  0  0  0
    5.9304    7.3765   -1.2640 N   0  0  0  0  0  0  0  0  0  0  0  0
    6.6815    8.4390   -1.5615 N   0  0  0  0  0  0  0  0  0  0  0  0
    7.9507    7.9962   -1.5206 C   0  0  0  0  0  0  0  0  0  0  0  0
    9.1155    8.8570   -1.9301 C   0  0  0  0  0  0  0  0  0  0  0  0
    9.9756    8.3614   -2.6441 O   0  0  0  0  0  0  0  0  0  0  0  0
    9.1560   10.1593   -1.5055 N   0  0  0  0  0  0  0  0  0  0  0  0
    8.2593   10.8145   -0.5535 C   0  0  0  0  0  0  0  0  0  0  0  0
    9.0769   11.4271    0.5997 C   0  0  0  0  0  0  0  0  0  0  0  0
   10.1554   12.3020    0.1617 N   0  0  0  0  0  0  0  0  0  0  0  0
    9.7514   13.6445   -0.2124 C   0  0  0  0  0  0  0  0  0  0  0  0
   11.0114   11.6180   -0.8013 C   0  0  0  0  0  0  0  0  0  0  0  0
   10.2419   11.0155   -1.9877 C   0  0  0  0  0  0  0  0  0  0  0  0
    8.0155    6.6218   -1.1963 C   0  0  0  0  0  0  0  0  0  0  0  0
    9.3885    5.6113   -1.0078 Cl  0  0  0  0  0  0  0  0  0  0  0  0
    6.6868    6.2141   -1.0216 C   0  0  0  0  0  0  0  0  0  0  0  0
    6.1193    5.0477   -0.7044 N   0  0  0  0  0  0  0  0  0  0  0  0
    2.8145    3.4807   -0.1151 C   0  0  0  0  0  0  0  0  0  0  0  0
    2.2639    2.2422    0.2015 C   0  0  0  0  0  0  0  0  0  0  0  0
    0.9065    2.1336    0.2687 O   0  0  0  0  0  0  0  0  0  0  0  0
    0.3291    1.7685    1.5152 C   0  0  0  0  0  0  0  0  0  0  0  0
    2.6045   -2.0511    0.9715 H   0  0  0  0  0  0  0  0  0  0  0  0
    4.0112   -1.1486    1.6209 H   0  0  0  0  0  0  0  0  0  0  0  0
    3.8682   -1.4447   -0.1462 H   0  0  0  0  0  0  0  0  0  0  0  0
    5.1791    0.4512    0.3622 H   0  0  0  0  0  0  0  0  0  0  0  0
    6.1132    2.6729   -0.1917 H   0  0  0  0  0  0  0  0  0  0  0  0
    2.8994    6.0917   -0.7759 H   0  0  0  0  0  0  0  0  0  0  0  0
    7.5248   10.0997   -0.1697 H   0  0  0  0  0  0  0  0  0  0  0  0
    7.6872   11.6008   -1.0805 H   0  0  0  0  0  0  0  0  0  0  0  0
    9.5166   10.5986    1.1855 H   0  0  0  0  0  0  0  0  0  0  0  0
    8.4045   11.9835    1.2731 H   0  0  0  0  0  0  0  0  0  0  0  0
    9.2086   14.1135    0.6245 H   0  0  0  0  0  0  0  0  0  0  0  0
    9.0982   13.7182   -1.1103 H   0  0  0  0  0  0  0  0  0  0  0  0
   10.6461   14.2571   -0.4098 H   0  0  0  0  0  0  0  0  0  0  0  0
   11.5394   10.7997   -0.2788 H   0  0  0  0  0  0  0  0  0  0  0  0
   11.7783   12.3184   -1.1699 H   0  0  0  0  0  0  0  0  0  0  0  0
   10.8970   10.4034   -2.6196 H   0  0  0  0  0  0  0  0  0  0  0  0
    9.8103   11.8183   -2.6148 H   0  0  0  0  0  0  0  0  0  0  0  0
    2.1031    4.2969   -0.2446 H   0  0  0  0  0  0  0  0  0  0  0  0
   -0.7604    1.8209    1.3813 H   0  0  0  0  0  0  0  0  0  0  0  0
    0.6244    2.4755    2.3121 H   0  0  0  0  0  0  0  0  0  0  0  0
    0.6092    0.7471    1.8149 H   0  0  0  0  0  0  0  0  0  0  0  0
  1  2  1  0
  1 34  1  0
  1 35  1  0
  1 36  1  0
  2  3  1  0
  3  4  2  0
  3 31  1  0
  4  5  1  0
  4 37  1  0
  5  6  2  0
  5 38  1  0
  6  7  1  0
  6 30  1  0
  7  8  1  0
  7 29  2  0
  8  9  2  0
  8 39  1  0
  9 10  1  0
  9 14  1  0
 10 11  1  1
 10 12  1  0
 10 13  1  0
 14 15  1  0
 14 28  1  0
 15 16  2  0
 16 17  1  0
 16 26  1  0
 17 18  2  0
 17 19  1  0
 19 20  1  0
 19 25  1  0
 20 21  1  0
 20 40  1  0
 20 41  1  0
 21 22  1  0
 21 42  1  0
 21 43  1  0
 22 23  1  0
 22 24  1  0
 23 44  1  0
 23 45  1  0
 23 46  1  0
 24 25  1  0
 24 47  1  0
 24 48  1  0
 25 49  1  0
 25 50  1  0
 26 27  1  0
 26 28  2  0
 28 29  1  0
 30 31  2  0
 30 51  1  0
 31 32  1  0
 32 33  1  0
 33 52  1  0
 33 53  1  0
 33 54  1  0
M  END

