
     RDKit          3D

 33 35  0  0  0  0  0  0  0  0999 V2000
    2.2082    0.0039    1.2508 O   0  0  0  0  0  0  0  0  0  0  0  0
    3.1898    0.0000    0.5680 C   0  0  0  0  0  0  0  0  0  0  0  0
    3.6708   -1.1588   -0.0259 O   0  0  0  0  0  0  0  0  0  0  0  0
    4.8082   -0.8498   -0.7373 C   0  0  0  0  0  0  0  0  0  0  0  0
    5.4625   -1.9586   -1.4205 C   0  0  0  0  0  0  0  0  0  0  0  0
    4.9316   -3.2606   -1.3262 C   0  0  0  0  0  0  0  0  0  0  0  0
    5.5555   -4.3246   -1.9780 C   0  0  0  0  0  0  0  0  0  0  0  0
    6.7133   -4.1091   -2.7311 C   0  0  0  0  0  0  0  0  0  0  0  0
    7.2483   -2.8183   -2.8313 C   0  0  0  0  0  0  0  0  0  0  0  0
    6.6307   -1.7519   -2.1835 C   0  0  0  0  0  0  0  0  0  0  0  0
    5.1155    0.4792   -0.6593 C   0  0  0  0  0  0  0  0  0  0  0  0
    4.1175    1.1096    0.1675 C   0  0  0  0  0  0  0  0  0  0  0  0
    3.8693    2.3694    0.6307 C   0  0  0  0  0  0  0  0  0  0  0  0
    4.5683    3.6244    0.4050 C   0  0  0  0  0  0  0  0  0  0  0  0
    5.6112    3.8017   -0.5356 C   0  0  0  0  0  0  0  0  0  0  0  0
    6.2348    5.0337   -0.6943 C   0  0  0  0  0  0  0  0  0  0  0  0
    5.8198    6.1120    0.0913 C   0  0  0  0  0  0  0  0  0  0  0  0
    6.4837    7.4187   -0.0744 N   0  0  0  0  0  0  0  0  0  0  0  0
    7.3822    7.4945   -0.8979 O   0  0  0  0  0  0  0  0  0  0  0  0
    6.0934    8.3418    0.6227 O   0  0  0  0  0  0  0  0  0  0  0  0
    4.7883    5.9847    1.0236 C   0  0  0  0  0  0  0  0  0  0  0  0
    4.1701    4.7482    1.1691 C   0  0  0  0  0  0  0  0  0  0  0  0
    4.0283   -3.4247   -0.7376 H   0  0  0  0  0  0  0  0  0  0  0  0
    5.1342   -5.3296   -1.8971 H   0  0  0  0  0  0  0  0  0  0  0  0
    7.2002   -4.9442   -3.2409 H   0  0  0  0  0  0  0  0  0  0  0  0
    8.1529   -2.6445   -3.4191 H   0  0  0  0  0  0  0  0  0  0  0  0
    7.0574   -0.7507   -2.2709 H   0  0  0  0  0  0  0  0  0  0  0  0
    5.9787    0.9390   -1.1281 H   0  0  0  0  0  0  0  0  0  0  0  0
    2.9993    2.4339    1.2929 H   0  0  0  0  0  0  0  0  0  0  0  0
    5.9266    2.9731   -1.1667 H   0  0  0  0  0  0  0  0  0  0  0  0
    7.0357    5.1816   -1.4182 H   0  0  0  0  0  0  0  0  0  0  0  0
    4.4901    6.8514    1.6127 H   0  0  0  0  0  0  0  0  0  0  0  0
    3.3603    4.6359    1.8939 H   0  0  0  0  0  0  0  0  0  0  0  0
  1  2  2  0
  2  3  1  0
  2 12  1  0
  3  4  1  0
  4  5  1  0
  4 11  2  0
  5  6  2  0
  5 10  1  0
  6  7  1  0
  6 23  1  0
  7  8  2  0
  7 24  1  0
  8  9  1  0
  8 25  1  0
  9 10  2  0
  9 26  1  0
 10 27  1  0
 11 12  1  0
 11 28  1  0
 12 13  2  0
 13 14  1  0
 13 29  1  0
 14 15  2  0
 14 22  1  0
 15 16  1  0
 15 30  1  0
 16 17  2  0
 16 31  1  0
 17 18  1  0
 17 21  1  0
 18 19  2  0
 18 20  1  0
 21 22  2  0
 21 32  1  0
 22 33  1  0
M  CHG  2  18   1  20  -1
M  END

