
     RDKit          3D

 71 77  0  0  0  0  0  0  0  0999 V2000
    1.4355    0.9846   -4.8536 C   0  0  0  0  0  0  0  0  0  0  0  0
    2.8850    0.9843   -4.4985 C   0  0  0  0  0  0  0  0  0  0  0  0
    3.3244    0.9041   -3.2247 N   0  0  0  0  0  0  0  0  0  0  0  0
    4.7176    0.9214   -3.2318 C   0  0  0  0  0  0  0  0  0  0  0  0
    5.4598    0.8223   -2.0386 C   0  0  0  0  0  0  0  0  0  0  0  0
    6.9426    0.8612   -2.0749 C   0  0  0  0  0  0  0  0  0  0  0  0
    7.6259    1.9252   -2.6937 C   0  0  0  0  0  0  0  0  0  0  0  0
    9.0188    1.9619   -2.7172 C   0  0  0  0  0  0  0  0  0  0  0  0
    9.7876    0.9476   -2.1146 C   0  0  0  0  0  0  0  0  0  0  0  0
   11.2807    0.9928   -2.1601 C   0  0  0  0  0  0  0  0  0  0  0  0
   12.0568    0.7741   -1.0530 C   0  0  0  0  0  0  0  0  0  0  0  0
   13.5370    0.5767   -1.1308 C   0  0  0  0  0  0  0  0  0  0  0  0
   14.3971    1.2704   -0.2575 C   0  0  0  0  0  0  0  0  0  0  0  0
   15.7793    1.0803   -0.3093 C   0  0  0  0  0  0  0  0  0  0  0  0
   16.3313    0.1740   -1.2201 C   0  0  0  0  0  0  0  0  0  0  0  0
   15.4884   -0.5394   -2.0779 C   0  0  0  0  0  0  0  0  0  0  0  0
   14.1074   -0.3387   -2.0354 C   0  0  0  0  0  0  0  0  0  0  0  0
   11.4871    0.7187    0.3292 C   0  0  0  0  0  0  0  0  0  0  0  0
   11.8260   -0.3343    1.2009 C   0  0  0  0  0  0  0  0  0  0  0  0
   11.3089   -0.3887    2.4966 C   0  0  0  0  0  0  0  0  0  0  0  0
   10.4599    0.6223    2.9588 C   0  0  0  0  0  0  0  0  0  0  0  0
   10.1345    1.6878    2.1137 C   0  0  0  0  0  0  0  0  0  0  0  0
   10.6410    1.7342    0.8128 C   0  0  0  0  0  0  0  0  0  0  0  0
   11.8575    1.3020   -3.5056 C   0  0  0  0  0  0  0  0  0  0  0  0
   11.4110    0.6141   -4.6505 C   0  0  0  0  0  0  0  0  0  0  0  0
   11.9294    0.9082   -5.9133 C   0  0  0  0  0  0  0  0  0  0  0  0
   12.8907    1.9129   -6.0624 C   0  0  0  0  0  0  0  0  0  0  0  0
   13.3281    2.6194   -4.9378 C   0  0  0  0  0  0  0  0  0  0  0  0
   12.8187    2.3162   -3.6736 C   0  0  0  0  0  0  0  0  0  0  0  0
    9.0998   -0.1248   -1.5165 C   0  0  0  0  0  0  0  0  0  0  0  0
    7.7074   -0.1670   -1.4924 C   0  0  0  0  0  0  0  0  0  0  0  0
    4.7890    0.6870   -0.8073 C   0  0  0  0  0  0  0  0  0  0  0  0
    5.2932    0.6289    0.5215 C   0  0  0  0  0  0  0  0  0  0  0  0
    4.1960    0.5238    1.3673 C   0  0  0  0  0  0  0  0  0  0  0  0
    3.0332    0.5313    0.5562 C   0  0  0  0  0  0  0  0  0  0  0  0
    1.6069    0.4562    0.9887 C   0  0  0  0  0  0  0  0  0  0  0  0
    3.3985    0.6315   -0.7393 N   0  0  0  0  0  0  0  0  0  0  0  0
    2.4246    0.7410   -1.9569 B   0  0  1  0  0  0  0  0  0  0  0  0
    1.6019    1.8536   -1.8085 F   0  0  0  0  0  0  0  0  0  0  0  0
    1.6604   -0.4173   -2.0631 F   0  0  0  0  0  0  0  0  0  0  0  0
    5.1452    1.0057   -4.5856 C   0  0  0  0  0  0  0  0  0  0  0  0
    4.0002    1.0530   -5.3711 C   0  0  0  0  0  0  0  0  0  0  0  0
    0.9127    1.8106   -4.3464 H   0  0  0  0  0  0  0  0  0  0  0  0
    0.9545    0.0542   -4.5127 H   0  0  0  0  0  0  0  0  0  0  0  0
    1.3022    1.0839   -5.9392 H   0  0  0  0  0  0  0  0  0  0  0  0
    7.0557    2.7429   -3.1389 H   0  0  0  0  0  0  0  0  0  0  0  0
    9.5238    2.8021   -3.1994 H   0  0  0  0  0  0  0  0  0  0  0  0
   13.9740    1.9724    0.4651 H   0  0  0  0  0  0  0  0  0  0  0  0
   16.4288    1.6399    0.3691 H   0  0  0  0  0  0  0  0  0  0  0  0
   17.4127    0.0189   -1.2559 H   0  0  0  0  0  0  0  0  0  0  0  0
   15.9083   -1.2603   -2.7843 H   0  0  0  0  0  0  0  0  0  0  0  0
   13.4573   -0.9027   -2.7070 H   0  0  0  0  0  0  0  0  0  0  0  0
   12.4976   -1.1226    0.8521 H   0  0  0  0  0  0  0  0  0  0  0  0
   11.5742   -1.2230    3.1512 H   0  0  0  0  0  0  0  0  0  0  0  0
   10.0618    0.5847    3.9760 H   0  0  0  0  0  0  0  0  0  0  0  0
    9.4863    2.4925    2.4706 H   0  0  0  0  0  0  0  0  0  0  0  0
   10.3855    2.5725    0.1616 H   0  0  0  0  0  0  0  0  0  0  0  0
   10.6542   -0.1672   -4.5452 H   0  0  0  0  0  0  0  0  0  0  0  0
   11.5781    0.3518   -6.7863 H   0  0  0  0  0  0  0  0  0  0  0  0
   13.2920    2.1486   -7.0514 H   0  0  0  0  0  0  0  0  0  0  0  0
   14.0701    3.4150   -5.0450 H   0  0  0  0  0  0  0  0  0  0  0  0
   13.1645    2.8746   -2.8015 H   0  0  0  0  0  0  0  0  0  0  0  0
    9.6675   -0.9429   -1.0700 H   0  0  0  0  0  0  0  0  0  0  0  0
    7.2009   -1.0212   -1.0386 H   0  0  0  0  0  0  0  0  0  0  0  0
    6.3430    0.6738    0.8012 H   0  0  0  0  0  0  0  0  0  0  0  0
    4.2006    0.4559    2.4536 H   0  0  0  0  0  0  0  0  0  0  0  0
    1.5373    0.3493    2.0795 H   0  0  0  0  0  0  0  0  0  0  0  0
    1.1007   -0.3948    0.5067 H   0  0  0  0  0  0  0  0  0  0  0  0
    1.0611    1.3608    0.6771 H   0  0  0  0  0  0  0  0  0  0  0  0
    6.1792    1.0162   -4.9214 H   0  0  0  0  0  0  0  0  0  0  0  0
    3.9428    1.1206   -6.4559 H   0  0  0  0  0  0  0  0  0  0  0  0
  1  2  1  0
  1 43  1  0
  1 44  1  0
  1 45  1  0
  2  3  1  0
  2 42  2  0
  3  4  1  0
  3 38  1  0
  4  5  1  0
  4 41  2  0
  5  6  1  0
  5 32  2  0
  6  7  2  0
  6 31  1  0
  7  8  1  0
  7 46  1  0
  8  9  2  0
  8 47  1  0
  9 10  1  0
  9 30  1  0
 10 11  2  0
 10 24  1  0
 11 12  1  0
 11 18  1  0
 12 13  2  0
 12 17  1  0
 13 14  1  0
 13 48  1  0
 14 15  2  0
 14 49  1  0
 15 16  1  0
 15 50  1  0
 16 17  2  0
 16 51  1  0
 17 52  1  0
 18 19  2  0
 18 23  1  0
 19 20  1  0
 19 53  1  0
 20 21  2  0
 20 54  1  0
 21 22  1  0
 21 55  1  0
 22 23  2  0
 22 56  1  0
 23 57  1  0
 24 25  2  0
 24 29  1  0
 25 26  1  0
 25 58  1  0
 26 27  2  0
 26 59  1  0
 27 28  1  0
 27 60  1  0
 28 29  2  0
 28 61  1  0
 29 62  1  0
 30 31  2  0
 30 63  1  0
 31 64  1  0
 32 33  1  0
 32 37  1  0
 33 34  2  0
 33 65  1  0
 34 35  1  0
 34 66  1  0
 35 36  1  0
 35 37  2  0
 36 67  1  0
 36 68  1  0
 36 69  1  0
 37 38  1  0
 38 39  1  1
 38 40  1  0
 41 42  1  0
 41 70  1  0
 42 71  1  0
M  CHG  2  37   1  38  -1
M  END

