
     RDKit          3D

 53 52  0  0  0  0  0  0  0  0999 V2000
    1.5168    0.4366   -1.2142 C   0  0  0  0  0  0  0  0  0  0  0  0
    2.6419   -0.0214   -0.2820 C   0  0  0  0  0  0  0  0  0  0  0  0
    3.1155   -1.4990   -0.3986 C   0  0  1  0  0  0  0  0  0  0  0  0
    1.9610   -2.4406   -0.0013 C   0  0  0  0  0  0  0  0  0  0  0  0
    3.5408   -1.8451   -1.8515 C   0  0  0  0  0  0  0  0  0  0  0  0
    4.6827   -1.0232   -2.4550 C   0  0  0  0  0  0  0  0  0  0  0  0
    4.2934   -1.6636    0.6046 C   0  0  0  0  0  0  0  0  0  0  0  0
    4.9816   -3.0325    0.6746 C   0  0  0  0  0  0  0  0  0  0  0  0
    6.1420   -3.1198    1.6930 C   0  0  1  0  0  0  0  0  0  0  0  0
    5.6339   -3.0241    3.1408 C   0  0  0  0  0  0  0  0  0  0  0  0
    6.9788   -4.4132    1.4947 C   0  0  0  0  0  0  0  0  0  0  0  0
    8.3238   -4.3168    0.7151 C   0  0  1  0  0  0  0  0  0  0  0  0
    8.0940   -3.7375   -0.6943 C   0  0  0  0  0  0  0  0  0  0  0  0
    9.3395   -3.3966    1.4481 C   0  0  0  0  0  0  0  0  0  0  0  0
    9.7838   -3.8167    2.8520 C   0  0  0  0  0  0  0  0  0  0  0  0
    8.8652   -5.7707    0.5939 C   0  0  0  0  0  0  0  0  0  0  0  0
   10.2346   -5.9613   -0.0643 C   0  0  0  0  0  0  0  0  0  0  0  0
    1.2476    1.4840   -1.0026 H   0  0  0  0  0  0  0  0  0  0  0  0
    0.6011   -0.1633   -1.0918 H   0  0  0  0  0  0  0  0  0  0  0  0
    1.8067    0.3859   -2.2758 H   0  0  0  0  0  0  0  0  0  0  0  0
    2.3265    0.1445    0.7638 H   0  0  0  0  0  0  0  0  0  0  0  0
    3.5133    0.6400   -0.4291 H   0  0  0  0  0  0  0  0  0  0  0  0
    1.0913   -2.3168   -0.6653 H   0  0  0  0  0  0  0  0  0  0  0  0
    1.6251   -2.2459    1.0310 H   0  0  0  0  0  0  0  0  0  0  0  0
    2.2612   -3.4981   -0.0620 H   0  0  0  0  0  0  0  0  0  0  0  0
    2.6537   -1.7546   -2.5016 H   0  0  0  0  0  0  0  0  0  0  0  0
    3.8112   -2.9142   -1.8895 H   0  0  0  0  0  0  0  0  0  0  0  0
    4.4448    0.0517   -2.4988 H   0  0  0  0  0  0  0  0  0  0  0  0
    4.8920   -1.3517   -3.4859 H   0  0  0  0  0  0  0  0  0  0  0  0
    5.6192   -1.1302   -1.8847 H   0  0  0  0  0  0  0  0  0  0  0  0
    3.9085   -1.3949    1.6033 H   0  0  0  0  0  0  0  0  0  0  0  0
    5.0599   -0.9016    0.3753 H   0  0  0  0  0  0  0  0  0  0  0  0
    5.3713   -3.2934   -0.3214 H   0  0  0  0  0  0  0  0  0  0  0  0
    4.2479   -3.8199    0.9246 H   0  0  0  0  0  0  0  0  0  0  0  0
    6.7963   -2.2461    1.5211 H   0  0  0  0  0  0  0  0  0  0  0  0
    4.9819   -3.8808    3.3852 H   0  0  0  0  0  0  0  0  0  0  0  0
    5.0565   -2.1043    3.3217 H   0  0  0  0  0  0  0  0  0  0  0  0
    6.4710   -3.0308    3.8573 H   0  0  0  0  0  0  0  0  0  0  0  0
    6.3493   -5.1673    0.9888 H   0  0  0  0  0  0  0  0  0  0  0  0
    7.2022   -4.8507    2.4816 H   0  0  0  0  0  0  0  0  0  0  0  0
    7.6924   -2.7131   -0.6517 H   0  0  0  0  0  0  0  0  0  0  0  0
    7.3859   -4.3542   -1.2719 H   0  0  0  0  0  0  0  0  0  0  0  0
    9.0345   -3.6871   -1.2648 H   0  0  0  0  0  0  0  0  0  0  0  0
    8.9134   -2.3798    1.4995 H   0  0  0  0  0  0  0  0  0  0  0  0
   10.2338   -3.2954    0.8094 H   0  0  0  0  0  0  0  0  0  0  0  0
    8.9401   -3.8784    3.5573 H   0  0  0  0  0  0  0  0  0  0  0  0
   10.4966   -3.0841    3.2639 H   0  0  0  0  0  0  0  0  0  0  0  0
   10.2879   -4.7963    2.8552 H   0  0  0  0  0  0  0  0  0  0  0  0
    8.1170   -6.3583    0.0324 H   0  0  0  0  0  0  0  0  0  0  0  0
    8.8908   -6.2218    1.6010 H   0  0  0  0  0  0  0  0  0  0  0  0
   10.2635   -5.5661   -1.0922 H   0  0  0  0  0  0  0  0  0  0  0  0
   10.4846   -7.0329   -0.1232 H   0  0  0  0  0  0  0  0  0  0  0  0
   11.0430   -5.4714    0.5015 H   0  0  0  0  0  0  0  0  0  0  0  0
  1  2  1  0
  1 18  1  0
  1 19  1  0
  1 20  1  0
  3  2  1  6
  2 21  1  0
  2 22  1  0
  3  4  1  0
  3  5  1  0
  3  7  1  0
  4 23  1  0
  4 24  1  0
  4 25  1  0
  5  6  1  0
  5 26  1  0
  5 27  1  0
  6 28  1  0
  6 29  1  0
  6 30  1  0
  7  8  1  0
  7 31  1  0
  7 32  1  0
  8  9  1  0
  8 33  1  0
  8 34  1  0
  9 10  1  0
  9 11  1  0
  9 35  1  6
 10 36  1  0
 10 37  1  0
 10 38  1  0
 12 11  1  1
 11 39  1  0
 11 40  1  0
 12 13  1  0
 12 14  1  0
 12 16  1  0
 13 41  1  0
 13 42  1  0
 13 43  1  0
 14 15  1  0
 14 44  1  0
 14 45  1  0
 15 46  1  0
 15 47  1  0
 15 48  1  0
 16 17  1  0
 16 49  1  0
 16 50  1  0
 17 51  1  0
 17 52  1  0
 17 53  1  0
M  END

