
     RDKit          3D

 42 45  0  0  0  0  0  0  0  0999 V2000
    4.0730    1.5350   -0.9308 C   0  0  0  0  0  0  0  0  0  0  0  0
    3.2886    0.4251   -0.5527 O   0  0  0  0  0  0  0  0  0  0  0  0
    3.8078   -0.5027    0.2845 C   0  0  0  0  0  0  0  0  0  0  0  0
    2.9667   -1.5827    0.6159 C   0  0  0  0  0  0  0  0  0  0  0  0
    3.4022   -2.5881    1.4654 C   0  0  0  0  0  0  0  0  0  0  0  0
    4.7033   -2.5645    2.0284 C   0  0  0  0  0  0  0  0  0  0  0  0
    5.2668   -3.5623    2.9325 C   0  0  0  0  0  0  0  0  0  0  0  0
    4.7702   -4.7262    3.4388 C   0  0  0  0  0  0  0  0  0  0  0  0
    3.4168   -5.2969    3.1453 C   0  0  0  0  0  0  0  0  0  0  0  0
    3.2232   -6.1516    2.0464 C   0  0  0  0  0  0  0  0  0  0  0  0
    1.9630   -6.6932    1.7786 C   0  0  0  0  0  0  0  0  0  0  0  0
    0.8787   -6.3931    2.6090 C   0  0  0  0  0  0  0  0  0  0  0  0
    1.0617   -5.5524    3.7112 C   0  0  0  0  0  0  0  0  0  0  0  0
    2.3220   -5.0110    3.9794 C   0  0  0  0  0  0  0  0  0  0  0  0
    5.6319   -5.4982    4.3470 C   0  0  0  0  0  0  0  0  0  0  0  0
    6.8327   -5.1655    4.7201 N   0  0  0  0  0  0  0  0  0  0  0  0
    7.3878   -6.0891    5.5714 C   0  0  0  0  0  0  0  0  0  0  0  0
    8.6717   -6.0090    6.1438 C   0  0  0  0  0  0  0  0  0  0  0  0
    9.1012   -7.0241    6.9920 C   0  0  0  0  0  0  0  0  0  0  0  0
    8.2710   -8.1248    7.2834 C   0  0  0  0  0  0  0  0  0  0  0  0
    6.9955   -8.2267    6.7291 C   0  0  0  0  0  0  0  0  0  0  0  0
    6.5606   -7.2065    5.8747 C   0  0  0  0  0  0  0  0  0  0  0  0
    5.0401   -7.0396    5.0320 S   0  0  0  0  0  0  0  0  0  0  0  0
    5.5252   -1.4709    1.6833 C   0  0  0  0  0  0  0  0  0  0  0  0
    5.1006   -0.4533    0.8291 C   0  0  0  0  0  0  0  0  0  0  0  0
    3.4531    2.1408   -1.6052 H   0  0  0  0  0  0  0  0  0  0  0  0
    4.9889    1.2269   -1.4664 H   0  0  0  0  0  0  0  0  0  0  0  0
    4.3607    2.1505   -0.0596 H   0  0  0  0  0  0  0  0  0  0  0  0
    1.9635   -1.6050    0.1855 H   0  0  0  0  0  0  0  0  0  0  0  0
    2.7209   -3.4044    1.6976 H   0  0  0  0  0  0  0  0  0  0  0  0
    6.2830   -3.3337    3.2694 H   0  0  0  0  0  0  0  0  0  0  0  0
    4.0693   -6.3855    1.3956 H   0  0  0  0  0  0  0  0  0  0  0  0
    1.8280   -7.3531    0.9177 H   0  0  0  0  0  0  0  0  0  0  0  0
   -0.1069   -6.8165    2.3993 H   0  0  0  0  0  0  0  0  0  0  0  0
    0.2193   -5.3167    4.3667 H   0  0  0  0  0  0  0  0  0  0  0  0
    2.4630   -4.3526    4.8402 H   0  0  0  0  0  0  0  0  0  0  0  0
    9.3040   -5.1504    5.9092 H   0  0  0  0  0  0  0  0  0  0  0  0
   10.0964   -6.9694    7.4403 H   0  0  0  0  0  0  0  0  0  0  0  0
    8.6302   -8.9103    7.9528 H   0  0  0  0  0  0  0  0  0  0  0  0
    6.3547   -9.0813    6.9572 H   0  0  0  0  0  0  0  0  0  0  0  0
    6.5343   -1.4189    2.1010 H   0  0  0  0  0  0  0  0  0  0  0  0
    5.7799    0.3671    0.5973 H   0  0  0  0  0  0  0  0  0  0  0  0
  1  2  1  0
  1 26  1  0
  1 27  1  0
  1 28  1  0
  2  3  1  0
  3  4  2  0
  3 25  1  0
  4  5  1  0
  4 29  1  0
  5  6  2  0
  5 30  1  0
  6  7  1  0
  6 24  1  0
  7  8  2  0
  7 31  1  0
  8  9  1  0
  8 15  1  0
  9 10  2  0
  9 14  1  0
 10 11  1  0
 10 32  1  0
 11 12  2  0
 11 33  1  0
 12 13  1  0
 12 34  1  0
 13 14  2  0
 13 35  1  0
 14 36  1  0
 15 16  2  0
 15 23  1  0
 16 17  1  0
 17 18  2  0
 17 22  1  0
 18 19  1  0
 18 37  1  0
 19 20  2  0
 19 38  1  0
 20 21  1  0
 20 39  1  0
 21 22  2  0
 21 40  1  0
 22 23  1  0
 24 25  2  0
 24 41  1  0
 25 42  1  0
M  END

