
     RDKit          3D

 51 53  0  0  0  0  0  0  0  0999 V2000
    0.2049   -0.5438   -0.2247 C   0  0  0  0  0  0  0  0  0  0  0  0
    1.7147   -0.5588   -0.0331 C   0  0  1  0  0  0  0  0  0  0  0  0
    2.1954   -1.1335    1.6731 S   0  0  0  0  0  0  0  0  0  0  0  0
    2.1105    0.3936    2.5332 C   0  0  0  0  0  0  0  0  0  0  0  0
    1.8536    1.5789    2.0116 N   0  0  0  0  0  0  0  0  0  0  0  0
    1.9496    2.4694    3.0238 N   0  0  0  0  0  0  0  0  0  0  0  0
    2.2444    1.8957    4.1271 N   0  0  0  0  0  0  0  0  0  0  0  0
    2.3535    0.5615    3.8640 N   0  0  0  0  0  0  0  0  0  0  0  0
    2.7070   -0.3545    4.8950 C   0  0  0  0  0  0  0  0  0  0  0  0
    3.6427    0.0403    5.8612 C   0  0  0  0  0  0  0  0  0  0  0  0
    3.9835   -0.8353    6.8868 C   0  0  0  0  0  0  0  0  0  0  0  0
    3.4060   -2.1078    6.9405 C   0  0  0  0  0  0  0  0  0  0  0  0
    3.8492   -2.9064    7.9834 O   0  0  0  0  0  0  0  0  0  0  0  0
    3.1504   -3.9801    8.4214 C   0  0  1  0  0  0  0  0  0  0  0  0
    1.8812   -3.6736    8.7139 F   0  0  0  0  0  0  0  0  0  0  0  0
    3.1238   -4.9742    7.5176 F   0  0  0  0  0  0  0  0  0  0  0  0
    3.7482   -4.4273    9.5138 F   0  0  0  0  0  0  0  0  0  0  0  0
    2.4759   -2.5104    5.9784 C   0  0  0  0  0  0  0  0  0  0  0  0
    2.1178   -1.6205    4.9631 C   0  0  0  0  0  0  0  0  0  0  0  0
    2.4335   -1.4141   -1.1011 C   0  0  0  0  0  0  0  0  0  0  0  0
    1.8465   -1.7553   -2.1133 O   0  0  0  0  0  0  0  0  0  0  0  0
    3.7435   -1.7007   -0.8685 N   0  0  0  0  0  0  0  0  0  0  0  0
    4.5493   -2.4323   -1.8332 C   0  0  0  0  0  0  0  0  0  0  0  0
    5.1626   -1.5481   -2.9492 C   0  0  1  0  0  0  0  0  0  0  0  0
    6.0801   -0.4606   -2.3775 C   0  0  0  0  0  0  0  0  0  0  0  0
    5.8242   -2.4381   -3.9929 C   0  0  0  0  0  0  0  0  0  0  0  0
    5.0822   -2.8742   -5.1040 C   0  0  0  0  0  0  0  0  0  0  0  0
    5.6434   -3.7255   -6.0590 C   0  0  0  0  0  0  0  0  0  0  0  0
    6.9643   -4.1621   -5.9203 C   0  0  0  0  0  0  0  0  0  0  0  0
    7.7143   -3.7401   -4.8195 C   0  0  0  0  0  0  0  0  0  0  0  0
    7.1489   -2.8874   -3.8660 C   0  0  0  0  0  0  0  0  0  0  0  0
   -0.2620    0.1520    0.4858 H   0  0  0  0  0  0  0  0  0  0  0  0
   -0.2261   -1.5470   -0.0927 H   0  0  0  0  0  0  0  0  0  0  0  0
   -0.0235   -0.2141   -1.2484 H   0  0  0  0  0  0  0  0  0  0  0  0
    2.1112    0.4669   -0.0983 H   0  0  0  0  0  0  0  0  0  0  0  0
    4.0843    1.0357    5.8080 H   0  0  0  0  0  0  0  0  0  0  0  0
    4.7038   -0.5496    7.6550 H   0  0  0  0  0  0  0  0  0  0  0  0
    2.0218   -3.4996    6.0087 H   0  0  0  0  0  0  0  0  0  0  0  0
    1.3712   -1.9228    4.2275 H   0  0  0  0  0  0  0  0  0  0  0  0
    4.1637   -1.3821   -0.0031 H   0  0  0  0  0  0  0  0  0  0  0  0
    3.9060   -3.1934   -2.2975 H   0  0  0  0  0  0  0  0  0  0  0  0
    5.3513   -2.9562   -1.2879 H   0  0  0  0  0  0  0  0  0  0  0  0
    4.3107   -1.0517   -3.4424 H   0  0  0  0  0  0  0  0  0  0  0  0
    6.9164   -0.8854   -1.7978 H   0  0  0  0  0  0  0  0  0  0  0  0
    5.5183    0.2061   -1.7049 H   0  0  0  0  0  0  0  0  0  0  0  0
    6.5101    0.1588   -3.1794 H   0  0  0  0  0  0  0  0  0  0  0  0
    4.0475   -2.5378   -5.2194 H   0  0  0  0  0  0  0  0  0  0  0  0
    5.0467   -4.0465   -6.9170 H   0  0  0  0  0  0  0  0  0  0  0  0
    7.4072   -4.8258   -6.6673 H   0  0  0  0  0  0  0  0  0  0  0  0
    8.7489   -4.0736   -4.7015 H   0  0  0  0  0  0  0  0  0  0  0  0
    7.7567   -2.5673   -3.0162 H   0  0  0  0  0  0  0  0  0  0  0  0
  1  2  1  0
  1 32  1  0
  1 33  1  0
  1 34  1  0
  2  3  1  0
  2 20  1  0
  2 35  1  1
  3  4  1  0
  4  5  2  0
  4  8  1  0
  5  6  1  0
  6  7  2  0
  7  8  1  0
  8  9  1  0
  9 10  2  0
  9 19  1  0
 10 11  1  0
 10 36  1  0
 11 12  2  0
 11 37  1  0
 12 13  1  0
 12 18  1  0
 13 14  1  0
 14 15  1  1
 14 16  1  0
 14 17  1  0
 18 19  2  0
 18 38  1  0
 19 39  1  0
 20 21  2  0
 20 22  1  0
 22 23  1  0
 22 40  1  0
 23 24  1  0
 23 41  1  0
 23 42  1  0
 24 25  1  0
 24 26  1  0
 24 43  1  6
 25 44  1  0
 25 45  1  0
 25 46  1  0
 26 27  2  0
 26 31  1  0
 27 28  1  0
 27 47  1  0
 28 29  2  0
 28 48  1  0
 29 30  1  0
 29 49  1  0
 30 31  2  0
 30 50  1  0
 31 51  1  0
M  END

