
     RDKit          3D

 60 63  0  0  0  0  0  0  0  0999 V2000
    1.4772   -0.1176   -4.4244 C   0  0  0  0  0  0  0  0  0  0  0  0
    2.8615   -0.1320   -4.0791 O   0  0  0  0  0  0  0  0  0  0  0  0
    3.3065    0.9122   -3.3520 C   0  0  0  0  0  0  0  0  0  0  0  0
    2.5918    1.8136   -2.9856 O   0  0  0  0  0  0  0  0  0  0  0  0
    4.7904    0.7965   -3.0828 C   0  0  0  0  0  0  0  0  0  0  0  0
    5.3077    1.8509   -2.1013 C   0  0  0  0  0  0  0  0  0  0  0  0
    6.8003    1.8251   -1.9696 C   0  0  0  0  0  0  0  0  0  0  0  0
    7.5659    1.7489   -0.8376 C   0  0  0  0  0  0  0  0  0  0  0  0
    8.8982    1.7981   -1.2573 N   0  0  0  0  0  0  0  0  0  0  0  0
   10.0044    1.7480   -0.3903 C   0  0  0  0  0  0  0  0  0  0  0  0
    9.8925    1.2075    0.9079 C   0  0  0  0  0  0  0  0  0  0  0  0
   11.0221    1.2245    1.6988 C   0  0  0  0  0  0  0  0  0  0  0  0
   12.2159    1.7623    1.1676 C   0  0  0  0  0  0  0  0  0  0  0  0
   13.4891    1.8365    1.9301 C   0  0  0  0  0  0  0  0  0  0  0  0
   13.5653    1.4948    3.2933 C   0  0  0  0  0  0  0  0  0  0  0  0
   14.7718    1.5708    3.9856 C   0  0  0  0  0  0  0  0  0  0  0  0
   15.9459    1.9948    3.3436 C   0  0  0  0  0  0  0  0  0  0  0  0
   17.2420    2.0471    4.0972 C   0  0  0  0  0  0  0  0  0  0  0  0
   17.6022    1.2225    5.0116 N   0  0  0  0  0  0  0  0  0  0  0  0
   18.1039    3.0511    3.7008 N   0  0  0  0  0  0  0  0  0  0  0  0
   15.8705    2.3468    1.9847 C   0  0  0  0  0  0  0  0  0  0  0  0
   14.6666    2.2660    1.2894 C   0  0  0  0  0  0  0  0  0  0  0  0
   12.2395    2.2257   -0.0907 N   0  0  0  0  0  0  0  0  0  0  0  0
   11.1618    2.2281   -0.8450 N   0  0  0  0  0  0  0  0  0  0  0  0
    8.8619    1.8953   -2.6540 C   0  0  0  0  0  0  0  0  0  0  0  0
   10.0454    1.9232   -3.5730 C   0  0  0  0  0  0  0  0  0  0  0  0
   10.7699    0.5619   -3.7082 C   0  0  0  0  0  0  0  0  0  0  0  0
   11.9513    0.6245   -4.6513 C   0  0  0  0  0  0  0  0  0  0  0  0
   13.1828    1.1440   -4.2168 C   0  0  0  0  0  0  0  0  0  0  0  0
   14.2704    1.2326   -5.0891 C   0  0  0  0  0  0  0  0  0  0  0  0
   14.1464    0.8039   -6.4149 C   0  0  0  0  0  0  0  0  0  0  0  0
   12.9270    0.2864   -6.8599 C   0  0  0  0  0  0  0  0  0  0  0  0
   11.8402    0.1994   -5.9841 C   0  0  0  0  0  0  0  0  0  0  0  0
    7.6209    1.9029   -3.0767 N   0  0  0  0  0  0  0  0  0  0  0  0
    1.2965   -1.0294   -5.0073 H   0  0  0  0  0  0  0  0  0  0  0  0
    1.2304    0.7722   -5.0239 H   0  0  0  0  0  0  0  0  0  0  0  0
    0.8465   -0.1111   -3.5222 H   0  0  0  0  0  0  0  0  0  0  0  0
    5.3196    0.8939   -4.0460 H   0  0  0  0  0  0  0  0  0  0  0  0
    5.0037   -0.2278   -2.7352 H   0  0  0  0  0  0  0  0  0  0  0  0
    4.8405    1.7178   -1.1131 H   0  0  0  0  0  0  0  0  0  0  0  0
    4.9860    2.8432   -2.4594 H   0  0  0  0  0  0  0  0  0  0  0  0
    7.2880    1.7227    0.2112 H   0  0  0  0  0  0  0  0  0  0  0  0
    8.9610    0.7704    1.2666 H   0  0  0  0  0  0  0  0  0  0  0  0
   10.9868    0.8072    2.7054 H   0  0  0  0  0  0  0  0  0  0  0  0
   12.6751    1.1784    3.8397 H   0  0  0  0  0  0  0  0  0  0  0  0
   14.8018    1.3168    5.0478 H   0  0  0  0  0  0  0  0  0  0  0  0
   16.9156    0.4726    5.1119 H   0  0  0  0  0  0  0  0  0  0  0  0
   17.7008    3.9254    3.3849 H   0  0  0  0  0  0  0  0  0  0  0  0
   18.9340    3.1398    4.2786 H   0  0  0  0  0  0  0  0  0  0  0  0
   16.7759    2.6660    1.4640 H   0  0  0  0  0  0  0  0  0  0  0  0
   14.6165    2.5310    0.2332 H   0  0  0  0  0  0  0  0  0  0  0  0
   10.7659    2.6837   -3.2459 H   0  0  0  0  0  0  0  0  0  0  0  0
    9.6491    2.2191   -4.5549 H   0  0  0  0  0  0  0  0  0  0  0  0
   10.0470   -0.1919   -4.0596 H   0  0  0  0  0  0  0  0  0  0  0  0
   11.1179    0.2364   -2.7149 H   0  0  0  0  0  0  0  0  0  0  0  0
   13.2862    1.4809   -3.1809 H   0  0  0  0  0  0  0  0  0  0  0  0
   15.2216    1.6363   -4.7315 H   0  0  0  0  0  0  0  0  0  0  0  0
   14.9979    0.8709   -7.0972 H   0  0  0  0  0  0  0  0  0  0  0  0
   12.8203   -0.0539   -7.8934 H   0  0  0  0  0  0  0  0  0  0  0  0
   10.8897   -0.2098   -6.3396 H   0  0  0  0  0  0  0  0  0  0  0  0
  1  2  1  0
  1 35  1  0
  1 36  1  0
  1 37  1  0
  2  3  1  0
  3  4  2  0
  3  5  1  0
  5  6  1  0
  5 38  1  0
  5 39  1  0
  6  7  1  0
  6 40  1  0
  6 41  1  0
  7  8  2  0
  7 34  1  0
  8  9  1  0
  8 42  1  0
  9 10  1  0
  9 25  1  0
 10 11  2  0
 10 24  1  0
 11 12  1  0
 11 43  1  0
 12 13  2  0
 12 44  1  0
 13 14  1  0
 13 23  1  0
 14 15  2  0
 14 22  1  0
 15 16  1  0
 15 45  1  0
 16 17  2  0
 16 46  1  0
 17 18  1  0
 17 21  1  0
 18 19  2  0
 18 20  1  0
 19 47  1  0
 20 48  1  0
 20 49  1  0
 21 22  2  0
 21 50  1  0
 22 51  1  0
 23 24  2  0
 25 26  1  0
 25 34  2  0
 26 27  1  0
 26 52  1  0
 26 53  1  0
 27 28  1  0
 27 54  1  0
 27 55  1  0
 28 29  2  0
 28 33  1  0
 29 30  1  0
 29 56  1  0
 30 31  2  0
 30 57  1  0
 31 32  1  0
 31 58  1  0
 32 33  2  0
 32 59  1  0
 33 60  1  0
M  END

