
     RDKit          3D

 40 42  0  0  0  0  0  0  0  0999 V2000
    0.9590    0.4225    0.5752 C   0  0  0  0  0  0  0  0  0  0  0  0
    2.4667    0.4671    0.3970 C   0  0  0  0  0  0  0  0  0  0  0  0
    2.9532   -0.8633    0.5152 O   0  0  0  0  0  0  0  0  0  0  0  0
    4.3574   -1.1110    0.6448 C   0  0  1  0  0  0  0  0  0  0  0  0
    4.8216   -0.6718    2.0227 C   0  0  0  0  0  0  0  0  0  0  0  0
    5.0770   -1.5205    2.9849 N   0  0  0  0  0  0  0  0  0  0  0  0
    5.4390   -0.7072    4.0547 O   0  0  0  0  0  0  0  0  0  0  0  0
    5.3680    0.5628    3.6306 C   0  0  0  0  0  0  0  0  0  0  0  0
    5.7139    1.6758    4.5808 C   0  0  1  0  0  0  0  0  0  0  0  0
    5.5805    2.9901    3.9827 N   0  0  0  0  0  0  0  0  0  0  0  0
    5.0211    1.6324    5.9828 C   0  0  0  0  0  0  0  0  0  0  0  0
    6.3799    1.9740    6.6394 C   0  0  0  0  0  0  0  0  0  0  0  0
    7.0821    1.5443    5.3293 C   0  0  0  0  0  0  0  0  0  0  0  0
    4.9967    0.6479    2.3855 N   0  0  0  0  0  0  0  0  0  0  0  0
    4.5021   -2.6339    0.4699 C   0  0  0  0  0  0  0  0  0  0  0  0
    4.1890   -3.0443   -0.9681 C   0  0  0  0  0  0  0  0  0  0  0  0
    5.0115   -2.3639   -1.8992 O   0  0  0  0  0  0  0  0  0  0  0  0
    4.8482   -0.9637   -1.8374 C   0  0  0  0  0  0  0  0  0  0  0  0
    5.1902   -0.4110   -0.4516 C   0  0  0  0  0  0  0  0  0  0  0  0
    0.5284    1.4305    0.4654 H   0  0  0  0  0  0  0  0  0  0  0  0
    0.6970    0.0358    1.5722 H   0  0  0  0  0  0  0  0  0  0  0  0
    0.4974   -0.2361   -0.1769 H   0  0  0  0  0  0  0  0  0  0  0  0
    2.9288    1.1242    1.1531 H   0  0  0  0  0  0  0  0  0  0  0  0
    2.7158    0.8869   -0.5970 H   0  0  0  0  0  0  0  0  0  0  0  0
    4.6222    3.1275    3.6575 H   0  0  0  0  0  0  0  0  0  0  0  0
    6.1647    3.0514    3.1472 H   0  0  0  0  0  0  0  0  0  0  0  0
    4.6774    0.6189    6.2345 H   0  0  0  0  0  0  0  0  0  0  0  0
    4.1912    2.3435    6.1103 H   0  0  0  0  0  0  0  0  0  0  0  0
    6.6459    1.4221    7.5525 H   0  0  0  0  0  0  0  0  0  0  0  0
    6.4849    3.0515    6.8249 H   0  0  0  0  0  0  0  0  0  0  0  0
    7.4284    0.5013    5.3625 H   0  0  0  0  0  0  0  0  0  0  0  0
    7.8855    2.1860    4.9378 H   0  0  0  0  0  0  0  0  0  0  0  0
    3.8255   -3.1422    1.1728 H   0  0  0  0  0  0  0  0  0  0  0  0
    5.5306   -2.9307    0.7246 H   0  0  0  0  0  0  0  0  0  0  0  0
    3.1208   -2.8498   -1.1852 H   0  0  0  0  0  0  0  0  0  0  0  0
    4.3770   -4.1192   -1.1105 H   0  0  0  0  0  0  0  0  0  0  0  0
    3.8098   -0.6852   -2.1102 H   0  0  0  0  0  0  0  0  0  0  0  0
    5.5188   -0.5321   -2.5966 H   0  0  0  0  0  0  0  0  0  0  0  0
    5.0480    0.6798   -0.4159 H   0  0  0  0  0  0  0  0  0  0  0  0
    6.2565   -0.5986   -0.2439 H   0  0  0  0  0  0  0  0  0  0  0  0
  1  2  1  0
  1 20  1  0
  1 21  1  0
  1 22  1  0
  2  3  1  0
  2 23  1  0
  2 24  1  0
  4  3  1  6
  4  5  1  0
  4 15  1  0
  4 19  1  0
  5  6  2  0
  5 14  1  0
  6  7  1  0
  7  8  1  0
  8  9  1  0
  8 14  2  0
  9 10  1  6
  9 11  1  0
  9 13  1  0
 10 25  1  0
 10 26  1  0
 11 12  1  0
 11 27  1  0
 11 28  1  0
 12 13  1  0
 12 29  1  0
 12 30  1  0
 13 31  1  0
 13 32  1  0
 15 16  1  0
 15 33  1  0
 15 34  1  0
 16 17  1  0
 16 35  1  0
 16 36  1  0
 17 18  1  0
 18 19  1  0
 18 37  1  0
 18 38  1  0
 19 39  1  0
 19 40  1  0
M  END

