
     RDKit          3D

 38 40  0  0  0  0  0  0  0  0999 V2000
   10.6903   -4.4900   -3.4903 C   0  0  0  0  0  0  0  0  0  0  0  0
    9.2821   -4.0284   -3.2701 C   0  0  0  0  0  0  0  0  0  0  0  0
    8.4477   -3.7395   -4.2234 N   0  0  0  0  0  0  0  0  0  0  0  0
    7.2030   -3.3864   -3.7548 C   0  0  0  0  0  0  0  0  0  0  0  0
    6.1217   -3.0174   -4.7248 C   0  0  0  0  0  0  0  0  0  0  0  0
    7.0696   -3.4016   -2.3837 C   0  0  0  0  0  0  0  0  0  0  0  0
    5.9583   -2.9897   -1.6384 N   0  0  0  0  0  0  0  0  0  0  0  0
    5.4083   -3.6052   -0.5001 C   0  0  0  0  0  0  0  0  0  0  0  0
    4.8955   -2.9157    0.3665 O   0  0  0  0  0  0  0  0  0  0  0  0
    5.5058   -4.9772   -0.4307 N   0  0  0  0  0  0  0  0  0  0  0  0
    4.8642   -5.6742    0.6984 C   0  0  1  0  0  0  0  0  0  0  0  0
    3.5281   -6.1697    0.0866 C   0  0  0  0  0  0  0  0  0  0  0  0
    3.8382   -6.3319   -1.4272 C   0  0  0  0  0  0  0  0  0  0  0  0
    5.3286   -5.9157   -1.5608 C   0  0  2  0  0  0  0  0  0  0  0  0
    6.3171   -7.0773   -1.3558 C   0  0  0  0  0  0  0  0  0  0  0  0
    6.1366   -7.7960   -0.0094 C   0  0  2  0  0  0  0  0  0  0  0  0
    5.1043   -8.7652   -0.1822 O   0  0  0  0  0  0  0  0  0  0  0  0
    5.8160   -6.8033    1.1283 C   0  0  0  0  0  0  0  0  0  0  0  0
    8.6108   -3.8656   -1.6544 S   0  0  0  0  0  0  0  0  0  0  0  0
   10.8952   -4.4709   -4.5694 H   0  0  0  0  0  0  0  0  0  0  0  0
   10.8419   -5.5173   -3.1200 H   0  0  0  0  0  0  0  0  0  0  0  0
   11.4182   -3.8414   -2.9770 H   0  0  0  0  0  0  0  0  0  0  0  0
    6.0335   -3.7869   -5.5081 H   0  0  0  0  0  0  0  0  0  0  0  0
    6.3576   -2.0681   -5.2350 H   0  0  0  0  0  0  0  0  0  0  0  0
    5.1534   -2.9068   -4.2176 H   0  0  0  0  0  0  0  0  0  0  0  0
    5.8060   -1.9847   -1.5838 H   0  0  0  0  0  0  0  0  0  0  0  0
    4.7114   -4.9619    1.5173 H   0  0  0  0  0  0  0  0  0  0  0  0
    2.7532   -5.4056    0.2472 H   0  0  0  0  0  0  0  0  0  0  0  0
    3.1836   -7.1063    0.5444 H   0  0  0  0  0  0  0  0  0  0  0  0
    3.2122   -5.6546   -2.0282 H   0  0  0  0  0  0  0  0  0  0  0  0
    3.6706   -7.3569   -1.7822 H   0  0  0  0  0  0  0  0  0  0  0  0
    5.5388   -5.4197   -2.5148 H   0  0  0  0  0  0  0  0  0  0  0  0
    7.3372   -6.6669   -1.4107 H   0  0  0  0  0  0  0  0  0  0  0  0
    6.2124   -7.8229   -2.1597 H   0  0  0  0  0  0  0  0  0  0  0  0
    7.0839   -8.3162    0.2357 H   0  0  0  0  0  0  0  0  0  0  0  0
    4.9820   -9.2284    0.6564 H   0  0  0  0  0  0  0  0  0  0  0  0
    6.7545   -6.3424    1.4789 H   0  0  0  0  0  0  0  0  0  0  0  0
    5.3944   -7.3556    1.9871 H   0  0  0  0  0  0  0  0  0  0  0  0
  1  2  1  0
  1 20  1  0
  1 21  1  0
  1 22  1  0
  2  3  2  0
  2 19  1  0
  3  4  1  0
  4  5  1  0
  4  6  2  0
  5 23  1  0
  5 24  1  0
  5 25  1  0
  6  7  1  0
  6 19  1  0
  7  8  1  0
  7 26  1  0
  8  9  2  0
  8 10  1  0
 10 11  1  0
 10 14  1  0
 11 12  1  0
 11 18  1  0
 11 27  1  1
 12 13  1  0
 12 28  1  0
 12 29  1  0
 13 14  1  0
 13 30  1  0
 13 31  1  0
 14 15  1  0
 14 32  1  6
 15 16  1  0
 15 33  1  0
 15 34  1  0
 16 17  1  0
 16 18  1  0
 16 35  1  1
 17 36  1  0
 18 37  1  0
 18 38  1  0
M  END

