
     RDKit          3D

 54 58  0  0  0  0  0  0  0  0999 V2000
    0.9635   -0.4538    0.0741 C   0  0  0  0  0  0  0  0  0  0  0  0
    2.1721   -0.4581    0.7954 O   0  0  0  0  0  0  0  0  0  0  0  0
    3.1154   -1.3817    0.4911 C   0  0  0  0  0  0  0  0  0  0  0  0
    3.0025   -2.3429   -0.5158 C   0  0  0  0  0  0  0  0  0  0  0  0
    4.0519   -3.2443   -0.7527 C   0  0  0  0  0  0  0  0  0  0  0  0
    5.2027   -3.1981    0.0237 C   0  0  0  0  0  0  0  0  0  0  0  0
    5.3317   -2.2493    1.0543 C   0  0  0  0  0  0  0  0  0  0  0  0
    4.2987   -1.3304    1.2774 C   0  0  0  0  0  0  0  0  0  0  0  0
    4.3505   -0.3673    2.2342 O   0  0  0  0  0  0  0  0  0  0  0  0
    5.6604   -0.0312    2.7526 C   0  0  1  0  0  0  0  0  0  0  0  0
    6.4128    0.8189    1.7141 C   0  0  0  0  0  0  0  0  0  0  0  0
    7.6217    1.5081    2.3434 C   0  0  0  0  0  0  0  0  0  0  0  0
    7.2478    2.3175    3.4359 O   0  0  0  0  0  0  0  0  0  0  0  0
    6.5904    1.6442    4.5228 C   0  0  1  0  0  0  0  0  0  0  0  0
    7.6000    0.7897    5.3071 C   0  0  0  0  0  0  0  0  0  0  0  0
    6.0742    2.7751    5.4161 C   0  0  0  0  0  0  0  0  0  0  0  0
    5.3841    0.8316    3.9896 C   0  0  0  0  0  0  0  0  0  0  0  0
    6.4014   -1.2437    3.0485 N   0  0  0  0  0  0  0  0  0  0  0  0
    6.0131   -1.9293    4.1782 N   0  0  0  0  0  0  0  0  0  0  0  0
    6.2385   -3.1911    4.0422 C   0  0  0  0  0  0  0  0  0  0  0  0
    6.0687   -4.0998    5.1956 C   0  0  0  0  0  0  0  0  0  0  0  0
    6.3702   -3.6052    6.4835 C   0  0  0  0  0  0  0  0  0  0  0  0
    6.2478   -4.3921    7.6254 C   0  0  0  0  0  0  0  0  0  0  0  0
    5.8201   -5.7186    7.5128 C   0  0  0  0  0  0  0  0  0  0  0  0
    5.5035   -6.2367    6.2575 C   0  0  0  0  0  0  0  0  0  0  0  0
    5.6201   -5.4353    5.1169 C   0  0  0  0  0  0  0  0  0  0  0  0
    5.1125   -6.1542    3.5962 Cl  0  0  0  0  0  0  0  0  0  0  0  0
    6.8631   -3.5089    2.6940 C   0  0  0  0  0  0  0  0  0  0  0  0
    6.5776   -2.2013    1.9264 C   0  0  1  0  0  0  0  0  0  0  0  0
    7.4493   -1.9099    1.3188 H   0  0  0  0  0  0  0  0  0  0  0  0
    0.3544    0.3608    0.4887 H   0  0  0  0  0  0  0  0  0  0  0  0
    0.4121   -1.4053    0.1869 H   0  0  0  0  0  0  0  0  0  0  0  0
    1.1253   -0.2657   -1.0034 H   0  0  0  0  0  0  0  0  0  0  0  0
    2.1028   -2.3925   -1.1292 H   0  0  0  0  0  0  0  0  0  0  0  0
    3.9548   -3.9843   -1.5504 H   0  0  0  0  0  0  0  0  0  0  0  0
    6.0162   -3.9051   -0.1607 H   0  0  0  0  0  0  0  0  0  0  0  0
    5.7065    1.5817    1.3527 H   0  0  0  0  0  0  0  0  0  0  0  0
    6.7188    0.2209    0.8427 H   0  0  0  0  0  0  0  0  0  0  0  0
    8.0969    2.1809    1.6125 H   0  0  0  0  0  0  0  0  0  0  0  0
    8.3773    0.7537    2.6365 H   0  0  0  0  0  0  0  0  0  0  0  0
    8.4358    1.4258    5.6376 H   0  0  0  0  0  0  0  0  0  0  0  0
    8.0012   -0.0378    4.7081 H   0  0  0  0  0  0  0  0  0  0  0  0
    7.1218    0.3492    6.1952 H   0  0  0  0  0  0  0  0  0  0  0  0
    6.9174    3.3727    5.7943 H   0  0  0  0  0  0  0  0  0  0  0  0
    5.5139    2.3735    6.2743 H   0  0  0  0  0  0  0  0  0  0  0  0
    5.4130    3.4412    4.8418 H   0  0  0  0  0  0  0  0  0  0  0  0
    4.6034    1.5388    3.6734 H   0  0  0  0  0  0  0  0  0  0  0  0
    4.9610    0.2020    4.7824 H   0  0  0  0  0  0  0  0  0  0  0  0
    6.7154   -2.5730    6.5586 H   0  0  0  0  0  0  0  0  0  0  0  0
    6.4952   -3.9729    8.6035 H   0  0  0  0  0  0  0  0  0  0  0  0
    5.7275   -6.3515    8.3987 H   0  0  0  0  0  0  0  0  0  0  0  0
    5.1489   -7.2628    6.1476 H   0  0  0  0  0  0  0  0  0  0  0  0
    6.4557   -4.3987    2.2035 H   0  0  0  0  0  0  0  0  0  0  0  0
    7.9489   -3.6652    2.8304 H   0  0  0  0  0  0  0  0  0  0  0  0
  1  2  1  0
  1 31  1  0
  1 32  1  0
  1 33  1  0
  2  3  1  0
  3  4  2  0
  3  8  1  0
  4  5  1  0
  4 34  1  0
  5  6  2  0
  5 35  1  0
  6  7  1  0
  6 36  1  0
  7  8  2  0
  7 29  1  0
  8  9  1  0
 10  9  1  6
 10 11  1  0
 10 17  1  0
 10 18  1  0
 11 12  1  0
 11 37  1  0
 11 38  1  0
 12 13  1  0
 12 39  1  0
 12 40  1  0
 13 14  1  0
 14 15  1  1
 14 16  1  0
 14 17  1  0
 15 41  1  0
 15 42  1  0
 15 43  1  0
 16 44  1  0
 16 45  1  0
 16 46  1  0
 17 47  1  0
 17 48  1  0
 18 19  1  0
 18 29  1  0
 19 20  2  0
 20 21  1  0
 20 28  1  0
 21 22  2  0
 21 26  1  0
 22 23  1  0
 22 49  1  0
 23 24  2  0
 23 50  1  0
 24 25  1  0
 24 51  1  0
 25 26  2  0
 25 52  1  0
 26 27  1  0
 28 29  1  0
 28 53  1  0
 28 54  1  0
 29 30  1  6
M  END

