
     RDKit          3D

 30 30  0  0  0  0  0  0  0  0999 V2000
    4.0138    0.3484    0.8235 C   0  0  0  0  0  0  0  0  0  0  0  0
    2.7945    0.3146   -0.1145 C   0  0  0  0  0  0  0  0  0  0  0  0
    3.1316   -0.0844   -1.5247 C   0  0  0  0  0  0  0  0  0  0  0  0
    3.3723    0.7561   -2.5931 C   0  0  0  0  0  0  0  0  0  0  0  0
    3.7550    0.0404   -3.7631 C   0  0  0  0  0  0  0  0  0  0  0  0
    4.1101    0.5890   -4.9733 O   0  0  0  0  0  0  0  0  0  0  0  0
    3.8114    1.9552   -5.2241 C   0  0  0  0  0  0  0  0  0  0  0  0
    4.7779    2.9466   -4.5674 C   0  0  0  0  0  0  0  0  0  0  0  0
    4.4725    4.1154   -4.4406 O   0  0  0  0  0  0  0  0  0  0  0  0
    5.9835    2.4224   -4.1912 N   0  0  0  0  0  0  0  0  0  0  0  0
    6.9275    3.2065   -3.4239 C   0  0  0  0  0  0  0  0  0  0  0  0
    6.8711    2.9030   -1.9807 C   0  0  0  0  0  0  0  0  0  0  0  0
    6.8005    2.6315   -0.8572 N   0  0  0  0  0  0  0  0  0  0  0  0
    3.7935   -1.3345   -3.5924 C   0  0  0  0  0  0  0  0  0  0  0  0
    4.1119   -2.4160   -4.5523 C   0  0  0  0  0  0  0  0  0  0  0  0
    4.1052   -3.5822   -4.2473 O   0  0  0  0  0  0  0  0  0  0  0  0
    4.4156   -2.0175   -5.8045 O   0  0  0  0  0  0  0  0  0  0  0  0
    3.3617   -1.7471   -1.9589 S   0  0  0  0  0  0  0  0  0  0  0  0
    3.7092    0.6584    1.8355 H   0  0  0  0  0  0  0  0  0  0  0  0
    4.7783    1.0537    0.4625 H   0  0  0  0  0  0  0  0  0  0  0  0
    4.4812   -0.6458    0.9001 H   0  0  0  0  0  0  0  0  0  0  0  0
    2.3248    1.3113   -0.1484 H   0  0  0  0  0  0  0  0  0  0  0  0
    2.0334   -0.3731    0.2913 H   0  0  0  0  0  0  0  0  0  0  0  0
    3.2873    1.8404   -2.5177 H   0  0  0  0  0  0  0  0  0  0  0  0
    2.7910    2.2159   -4.9037 H   0  0  0  0  0  0  0  0  0  0  0  0
    3.8703    2.0889   -6.3150 H   0  0  0  0  0  0  0  0  0  0  0  0
    6.1196    1.4199   -4.2685 H   0  0  0  0  0  0  0  0  0  0  0  0
    6.6740    4.2673   -3.5744 H   0  0  0  0  0  0  0  0  0  0  0  0
    7.9566    3.0462   -3.7835 H   0  0  0  0  0  0  0  0  0  0  0  0
    4.3578   -1.0480   -5.8731 H   0  0  0  0  0  0  0  0  0  0  0  0
  1  2  1  0
  1 19  1  0
  1 20  1  0
  1 21  1  0
  2  3  1  0
  2 22  1  0
  2 23  1  0
  3  4  2  0
  3 18  1  0
  4  5  1  0
  4 24  1  0
  5  6  1  0
  5 14  2  0
  6  7  1  0
  7  8  1  0
  7 25  1  0
  7 26  1  0
  8  9  2  0
  8 10  1  0
 10 11  1  0
 10 27  1  0
 11 12  1  0
 11 28  1  0
 11 29  1  0
 12 13  3  0
 14 15  1  0
 14 18  1  0
 15 16  2  0
 15 17  1  0
 17 30  1  0
M  END

