
     RDKit          3D

 45 47  0  0  0  0  0  0  0  0999 V2000
    3.0053    0.9590   -1.1584 O   0  0  0  0  0  0  0  0  0  0  0  0
    2.6780   -0.3457   -0.5740 S   0  0  1  0  0  0  0  0  0  0  0  0
    3.2942   -0.8252    0.6652 O   0  0  0  0  0  0  0  0  0  0  0  0
    1.0175   -0.4441   -0.3154 N   0  0  0  0  0  0  0  0  0  0  0  0
    0.1202    0.5752   -0.8753 C   0  0  0  0  0  0  0  0  0  0  0  0
   -0.2299    0.3130   -2.3482 C   0  0  0  0  0  0  0  0  0  0  0  0
   -1.2116    1.3215   -2.8959 C   0  0  0  0  0  0  0  0  0  0  0  0
   -0.8267    2.3666   -3.7493 C   0  0  0  0  0  0  0  0  0  0  0  0
   -1.7547    3.2938   -4.2333 C   0  0  0  0  0  0  0  0  0  0  0  0
   -3.0997    3.1917   -3.8670 C   0  0  0  0  0  0  0  0  0  0  0  0
   -3.5140    2.1637   -3.0153 C   0  0  0  0  0  0  0  0  0  0  0  0
   -2.5671    1.2582   -2.5481 C   0  0  0  0  0  0  0  0  0  0  0  0
   -2.9687    0.2710   -1.7202 F   0  0  0  0  0  0  0  0  0  0  0  0
    3.0065   -1.5858   -1.8398 C   0  0  0  0  0  0  0  0  0  0  0  0
    3.5091   -1.1783   -3.0762 C   0  0  0  0  0  0  0  0  0  0  0  0
    3.8094   -2.1442   -4.0420 C   0  0  0  0  0  0  0  0  0  0  0  0
    3.6100   -3.4933   -3.7409 C   0  0  0  0  0  0  0  0  0  0  0  0
    4.0237   -4.7486   -4.9719 S   0  0  1  0  0  0  0  0  0  0  0  0
    3.2341   -5.9392   -4.6610 O   0  0  0  0  0  0  0  0  0  0  0  0
    3.9870   -4.0889   -6.2752 O   0  0  0  0  0  0  0  0  0  0  0  0
    5.6129   -5.1993   -4.6754 N   0  0  0  0  0  0  0  0  0  0  0  0
    6.7079   -4.2770   -4.7877 C   0  0  1  0  0  0  0  0  0  0  0  0
    7.9915   -4.8086   -5.3843 C   0  0  0  0  0  0  0  0  0  0  0  0
    7.1412   -3.8512   -6.1675 C   0  0  0  0  0  0  0  0  0  0  0  0
    3.1016   -3.9002   -2.5005 C   0  0  0  0  0  0  0  0  0  0  0  0
    2.8054   -2.9377   -1.5375 C   0  0  0  0  0  0  0  0  0  0  0  0
    0.8788   -0.6492    0.6727 H   0  0  0  0  0  0  0  0  0  0  0  0
    0.5466    1.5864   -0.7661 H   0  0  0  0  0  0  0  0  0  0  0  0
   -0.7996    0.5321   -0.2737 H   0  0  0  0  0  0  0  0  0  0  0  0
   -0.6429   -0.7050   -2.4305 H   0  0  0  0  0  0  0  0  0  0  0  0
    0.6908    0.3447   -2.9499 H   0  0  0  0  0  0  0  0  0  0  0  0
    0.2243    2.4467   -4.0403 H   0  0  0  0  0  0  0  0  0  0  0  0
   -1.4263    4.0954   -4.8988 H   0  0  0  0  0  0  0  0  0  0  0  0
   -3.8311    3.9110   -4.2429 H   0  0  0  0  0  0  0  0  0  0  0  0
   -4.5553    2.0507   -2.7071 H   0  0  0  0  0  0  0  0  0  0  0  0
    3.6596   -0.1153   -3.2715 H   0  0  0  0  0  0  0  0  0  0  0  0
    4.1801   -1.8583   -5.0278 H   0  0  0  0  0  0  0  0  0  0  0  0
    5.6592   -5.8822   -3.9207 H   0  0  0  0  0  0  0  0  0  0  0  0
    6.8064   -3.5374   -3.9805 H   0  0  0  0  0  0  0  0  0  0  0  0
    7.9913   -5.8575   -5.6919 H   0  0  0  0  0  0  0  0  0  0  0  0
    8.9313   -4.4549   -4.9516 H   0  0  0  0  0  0  0  0  0  0  0  0
    6.5540   -4.2405   -7.0008 H   0  0  0  0  0  0  0  0  0  0  0  0
    7.4831   -2.8199   -6.2882 H   0  0  0  0  0  0  0  0  0  0  0  0
    2.9297   -4.9608   -2.3073 H   0  0  0  0  0  0  0  0  0  0  0  0
    2.4162   -3.2301   -0.5606 H   0  0  0  0  0  0  0  0  0  0  0  0
  1  2  2  0
  2  3  2  0
  2  4  1  1
  2 14  1  0
  4  5  1  0
  4 27  1  0
  5  6  1  0
  5 28  1  0
  5 29  1  0
  6  7  1  0
  6 30  1  0
  6 31  1  0
  7  8  2  0
  7 12  1  0
  8  9  1  0
  8 32  1  0
  9 10  2  0
  9 33  1  0
 10 11  1  0
 10 34  1  0
 11 12  2  0
 11 35  1  0
 12 13  1  0
 14 15  2  0
 14 26  1  0
 15 16  1  0
 15 36  1  0
 16 17  2  0
 16 37  1  0
 17 18  1  0
 17 25  1  0
 18 19  2  0
 18 20  2  0
 18 21  1  1
 21 22  1  0
 21 38  1  0
 22 23  1  0
 22 24  1  0
 22 39  1  1
 23 24  1  0
 23 40  1  0
 23 41  1  0
 24 42  1  0
 24 43  1  0
 25 26  2  0
 25 44  1  0
 26 45  1  0
M  END

