
     RDKit          3D

 45 45  0  0  0  0  0  0  0  0999 V2000
    8.5861   -5.1562   -3.5777 C   0  0  0  0  0  0  0  0  0  0  0  0
    8.0745   -3.7238   -3.7428 C   0  0  0  0  0  0  0  0  0  0  0  0
    6.7712   -3.4254   -2.9895 C   0  0  0  0  0  0  0  0  0  0  0  0
    6.9060   -3.3686   -1.5420 N   0  0  0  0  0  0  0  0  0  0  0  0
    6.7566   -2.1986   -0.8593 C   0  0  0  0  0  0  0  0  0  0  0  0
    6.5487   -1.1201   -1.3987 O   0  0  0  0  0  0  0  0  0  0  0  0
    6.7832   -2.2810    0.6892 C   0  0  1  0  0  0  0  0  0  0  0  0
    5.3550   -2.0527    1.2021 C   0  0  0  0  0  0  0  0  0  0  0  0
    7.3456   -3.4682    1.3064 N   0  0  0  0  0  0  0  0  0  0  0  0
    8.7610   -3.7201    1.2142 C   0  0  0  0  0  0  0  0  0  0  0  0
    9.0651   -5.0746    0.5503 C   0  0  0  0  0  0  0  0  0  0  0  0
    8.1583   -5.7008   -0.0009 O   0  0  0  0  0  0  0  0  0  0  0  0
   10.3398   -5.5511    0.6096 N   0  0  0  0  0  0  0  0  0  0  0  0
   10.6582   -6.8653    0.0434 C   0  0  0  0  0  0  0  0  0  0  0  0
   11.8008   -6.7381   -0.9769 C   0  0  0  0  0  0  0  0  0  0  0  0
   12.9788   -6.0627   -0.4451 N   0  0  0  0  0  0  0  0  0  0  0  0
   13.8549   -6.8843    0.3697 C   0  0  0  0  0  0  0  0  0  0  0  0
   12.6223   -4.7731    0.1237 C   0  0  0  0  0  0  0  0  0  0  0  0
   11.4918   -4.8464    1.1710 C   0  0  0  0  0  0  0  0  0  0  0  0
    9.5396   -5.3064   -4.1099 H   0  0  0  0  0  0  0  0  0  0  0  0
    7.8630   -5.8835   -3.9845 H   0  0  0  0  0  0  0  0  0  0  0  0
    8.7431   -5.4145   -2.5185 H   0  0  0  0  0  0  0  0  0  0  0  0
    7.8995   -3.5199   -4.8142 H   0  0  0  0  0  0  0  0  0  0  0  0
    8.8410   -3.0003   -3.4145 H   0  0  0  0  0  0  0  0  0  0  0  0
    6.0113   -4.1842   -3.2538 H   0  0  0  0  0  0  0  0  0  0  0  0
    6.3828   -2.4436   -3.2946 H   0  0  0  0  0  0  0  0  0  0  0  0
    7.1075   -4.2239   -1.0246 H   0  0  0  0  0  0  0  0  0  0  0  0
    7.3893   -1.4113    0.9953 H   0  0  0  0  0  0  0  0  0  0  0  0
    4.7030   -2.8968    0.9193 H   0  0  0  0  0  0  0  0  0  0  0  0
    4.9369   -1.1363    0.7636 H   0  0  0  0  0  0  0  0  0  0  0  0
    5.3558   -1.9717    2.2991 H   0  0  0  0  0  0  0  0  0  0  0  0
    6.8068   -4.3125    1.1283 H   0  0  0  0  0  0  0  0  0  0  0  0
    9.2419   -3.7067    2.2128 H   0  0  0  0  0  0  0  0  0  0  0  0
    9.2659   -2.9309    0.6260 H   0  0  0  0  0  0  0  0  0  0  0  0
    9.7464   -7.2634   -0.4179 H   0  0  0  0  0  0  0  0  0  0  0  0
   10.9493   -7.5447    0.8661 H   0  0  0  0  0  0  0  0  0  0  0  0
   11.4288   -6.1638   -1.8444 H   0  0  0  0  0  0  0  0  0  0  0  0
   12.0870   -7.7365   -1.3446 H   0  0  0  0  0  0  0  0  0  0  0  0
   14.1653   -7.7724   -0.2040 H   0  0  0  0  0  0  0  0  0  0  0  0
   13.4205   -7.2475    1.3277 H   0  0  0  0  0  0  0  0  0  0  0  0
   14.7667   -6.3176    0.6185 H   0  0  0  0  0  0  0  0  0  0  0  0
   12.2860   -4.1098   -0.6945 H   0  0  0  0  0  0  0  0  0  0  0  0
   13.5145   -4.3102    0.5754 H   0  0  0  0  0  0  0  0  0  0  0  0
   11.2118   -3.8339    1.4834 H   0  0  0  0  0  0  0  0  0  0  0  0
   11.8410   -5.3819    2.0741 H   0  0  0  0  0  0  0  0  0  0  0  0
  1  2  1  0
  1 20  1  0
  1 21  1  0
  1 22  1  0
  2  3  1  0
  2 23  1  0
  2 24  1  0
  3  4  1  0
  3 25  1  0
  3 26  1  0
  4  5  1  0
  4 27  1  0
  5  6  2  0
  5  7  1  0
  7  8  1  0
  7  9  1  0
  7 28  1  1
  8 29  1  0
  8 30  1  0
  8 31  1  0
  9 10  1  0
  9 32  1  0
 10 11  1  0
 10 33  1  0
 10 34  1  0
 11 12  2  0
 11 13  1  0
 13 14  1  0
 13 19  1  0
 14 15  1  0
 14 35  1  0
 14 36  1  0
 15 16  1  0
 15 37  1  0
 15 38  1  0
 16 17  1  0
 16 18  1  0
 17 39  1  0
 17 40  1  0
 17 41  1  0
 18 19  1  0
 18 42  1  0
 18 43  1  0
 19 44  1  0
 19 45  1  0
M  END

