
     RDKit          3D

 44 46  0  0  0  0  0  0  0  0999 V2000
    5.6698   -3.5898   -5.1361 C   0  0  0  0  0  0  0  0  0  0  0  0
    6.0986   -2.4721   -4.2053 C   0  0  0  0  0  0  0  0  0  0  0  0
    5.4643   -2.6702   -2.9499 O   0  0  0  0  0  0  0  0  0  0  0  0
    5.7066   -1.8120   -1.9194 C   0  0  0  0  0  0  0  0  0  0  0  0
    6.5275   -0.6801   -2.0250 C   0  0  0  0  0  0  0  0  0  0  0  0
    6.7059    0.1578   -0.9190 C   0  0  0  0  0  0  0  0  0  0  0  0
    6.0751   -0.1269    0.2910 C   0  0  0  0  0  0  0  0  0  0  0  0
    5.2634   -1.2617    0.3929 C   0  0  0  0  0  0  0  0  0  0  0  0
    5.0674   -2.1183   -0.6934 C   0  0  0  0  0  0  0  0  0  0  0  0
    4.1577   -3.3278   -0.6389 C   0  0  1  0  0  0  0  0  0  0  0  0
    4.1396   -4.0981    1.0140 Cl  0  0  0  0  0  0  0  0  0  0  0  0
    2.7166   -2.9899   -1.0562 C   0  0  0  0  0  0  0  0  0  0  0  0
    1.8665   -4.1527   -1.2062 N   0  0  0  0  0  0  0  0  0  0  0  0
    1.9900   -4.8322   -2.4856 C   0  0  0  0  0  0  0  0  0  0  0  0
    1.4253   -6.2466   -2.3761 C   0  0  0  0  0  0  0  0  0  0  0  0
    0.0426   -6.2521   -1.7612 C   0  0  0  0  0  0  0  0  0  0  0  0
   -0.8147   -7.3534   -1.9175 C   0  0  0  0  0  0  0  0  0  0  0  0
   -2.0826   -7.3708   -1.3373 C   0  0  0  0  0  0  0  0  0  0  0  0
   -2.5140   -6.2721   -0.5855 C   0  0  0  0  0  0  0  0  0  0  0  0
   -1.6711   -5.1729   -0.4256 C   0  0  0  0  0  0  0  0  0  0  0  0
   -0.3925   -5.1495   -1.0043 C   0  0  0  0  0  0  0  0  0  0  0  0
    0.4820   -3.9225   -0.8340 C   0  0  0  0  0  0  0  0  0  0  0  0
    6.1454   -3.4656   -6.1213 H   0  0  0  0  0  0  0  0  0  0  0  0
    4.5779   -3.5856   -5.2755 H   0  0  0  0  0  0  0  0  0  0  0  0
    5.9634   -4.5702   -4.7306 H   0  0  0  0  0  0  0  0  0  0  0  0
    5.8129   -1.4869   -4.6192 H   0  0  0  0  0  0  0  0  0  0  0  0
    7.1969   -2.4703   -4.0746 H   0  0  0  0  0  0  0  0  0  0  0  0
    7.0291   -0.4432   -2.9630 H   0  0  0  0  0  0  0  0  0  0  0  0
    7.3483    1.0373   -1.0133 H   0  0  0  0  0  0  0  0  0  0  0  0
    6.2165    0.5237    1.1569 H   0  0  0  0  0  0  0  0  0  0  0  0
    4.7853   -1.5108    1.3421 H   0  0  0  0  0  0  0  0  0  0  0  0
    4.5573   -4.1039   -1.3016 H   0  0  0  0  0  0  0  0  0  0  0  0
    2.7767   -2.3919   -1.9923 H   0  0  0  0  0  0  0  0  0  0  0  0
    2.2928   -2.3243   -0.2883 H   0  0  0  0  0  0  0  0  0  0  0  0
    3.0518   -4.8734   -2.7721 H   0  0  0  0  0  0  0  0  0  0  0  0
    1.4658   -4.2732   -3.2982 H   0  0  0  0  0  0  0  0  0  0  0  0
    2.1050   -6.8468   -1.7454 H   0  0  0  0  0  0  0  0  0  0  0  0
    1.4022   -6.7276   -3.3684 H   0  0  0  0  0  0  0  0  0  0  0  0
   -0.4756   -8.2106   -2.5074 H   0  0  0  0  0  0  0  0  0  0  0  0
   -2.7348   -8.2377   -1.4710 H   0  0  0  0  0  0  0  0  0  0  0  0
   -3.5049   -6.2740   -0.1241 H   0  0  0  0  0  0  0  0  0  0  0  0
   -2.0069   -4.3132    0.1628 H   0  0  0  0  0  0  0  0  0  0  0  0
    0.4512   -3.6006    0.2206 H   0  0  0  0  0  0  0  0  0  0  0  0
    0.0278   -3.0891   -1.4264 H   0  0  0  0  0  0  0  0  0  0  0  0
  1  2  1  0
  1 23  1  0
  1 24  1  0
  1 25  1  0
  2  3  1  0
  2 26  1  0
  2 27  1  0
  3  4  1  0
  4  5  2  0
  4  9  1  0
  5  6  1  0
  5 28  1  0
  6  7  2  0
  6 29  1  0
  7  8  1  0
  7 30  1  0
  8  9  2  0
  8 31  1  0
  9 10  1  0
 10 11  1  0
 10 12  1  0
 10 32  1  6
 12 13  1  0
 12 33  1  0
 12 34  1  0
 13 14  1  0
 13 22  1  0
 14 15  1  0
 14 35  1  0
 14 36  1  0
 15 16  1  0
 15 37  1  0
 15 38  1  0
 16 17  2  0
 16 21  1  0
 17 18  1  0
 17 39  1  0
 18 19  2  0
 18 40  1  0
 19 20  1  0
 19 41  1  0
 20 21  2  0
 20 42  1  0
 21 22  1  0
 22 43  1  0
 22 44  1  0
M  END

