
     RDKit          3D

 58 58  0  0  0  0  0  0  0  0999 V2000
    0.0291   -0.3916    2.7888 C   0  0  0  0  0  0  0  0  0  0  0  0
    1.3679    0.3273    2.5989 C   0  0  0  0  0  0  0  0  0  0  0  0
    2.4023   -0.4454    1.7367 C   0  0  1  0  0  0  0  0  0  0  0  0
    2.0070   -0.4449    0.2475 C   0  0  0  0  0  0  0  0  0  0  0  0
    2.8921   -1.3059   -0.6530 C   0  0  0  0  0  0  0  0  0  0  0  0
    3.7974   -0.0479    1.9483 N   0  0  0  0  0  0  0  0  0  0  0  0
    4.2881    1.2266    1.4599 C   0  0  0  0  0  0  0  0  0  0  0  0
    4.0111    2.4883    2.3039 C   0  0  0  0  0  0  0  0  0  0  0  0
    4.7622    3.6140    1.7710 N   0  0  0  0  0  0  0  0  0  0  0  0
    4.5526    4.9059    2.4274 C   0  0  1  0  0  0  0  0  0  0  0  0
    5.2382    4.9569    3.8072 C   0  0  0  0  0  0  0  0  0  0  0  0
    6.7663    4.9136    3.6953 C   0  0  0  0  0  0  0  0  0  0  0  0
    7.2940    6.0316    2.7876 C   0  0  0  0  0  0  0  0  0  0  0  0
    6.6367    6.0133    1.3967 C   0  0  2  0  0  0  0  0  0  0  0  0
    7.1356    7.1585    0.5122 C   0  0  0  0  0  0  0  0  0  0  0  0
    5.1036    6.0334    1.5370 C   0  0  0  0  0  0  0  0  0  0  0  0
    4.4335   -0.5819    3.1433 C   0  0  0  0  0  0  0  0  0  0  0  0
    5.0138   -2.0052    2.9868 C   0  0  1  0  0  0  0  0  0  0  0  0
    6.1306   -2.0462    1.9399 C   0  0  0  0  0  0  0  0  0  0  0  0
    5.4913   -2.5382    4.3425 C   0  0  0  0  0  0  0  0  0  0  0  0
   -0.6399    0.1819    3.4503 H   0  0  0  0  0  0  0  0  0  0  0  0
    0.1705   -1.3863    3.2449 H   0  0  0  0  0  0  0  0  0  0  0  0
   -0.5055   -0.5395    1.8367 H   0  0  0  0  0  0  0  0  0  0  0  0
    1.8134    0.5114    3.5911 H   0  0  0  0  0  0  0  0  0  0  0  0
    1.1923    1.3229    2.1555 H   0  0  0  0  0  0  0  0  0  0  0  0
    2.3540   -1.5002    2.0655 H   0  0  0  0  0  0  0  0  0  0  0  0
    1.9845    0.5938   -0.1290 H   0  0  0  0  0  0  0  0  0  0  0  0
    0.9655   -0.7989    0.1764 H   0  0  0  0  0  0  0  0  0  0  0  0
    3.9300   -0.9416   -0.6704 H   0  0  0  0  0  0  0  0  0  0  0  0
    2.5166   -1.3115   -1.6890 H   0  0  0  0  0  0  0  0  0  0  0  0
    2.9186   -2.3514   -0.3030 H   0  0  0  0  0  0  0  0  0  0  0  0
    3.8960    1.3944    0.4415 H   0  0  0  0  0  0  0  0  0  0  0  0
    5.3843    1.1610    1.3456 H   0  0  0  0  0  0  0  0  0  0  0  0
    4.3333    2.2992    3.3416 H   0  0  0  0  0  0  0  0  0  0  0  0
    2.9189    2.6908    2.3533 H   0  0  0  0  0  0  0  0  0  0  0  0
    4.5566    3.7120    0.7766 H   0  0  0  0  0  0  0  0  0  0  0  0
    3.4653    5.0946    2.5832 H   0  0  0  0  0  0  0  0  0  0  0  0
    4.8735    4.1371    4.4477 H   0  0  0  0  0  0  0  0  0  0  0  0
    4.9270    5.8923    4.3060 H   0  0  0  0  0  0  0  0  0  0  0  0
    7.0670    3.9364    3.2822 H   0  0  0  0  0  0  0  0  0  0  0  0
    7.2209    4.9906    4.6977 H   0  0  0  0  0  0  0  0  0  0  0  0
    8.3904    5.9553    2.6837 H   0  0  0  0  0  0  0  0  0  0  0  0
    7.0967    7.0131    3.2613 H   0  0  0  0  0  0  0  0  0  0  0  0
    6.9112    5.0580    0.9146 H   0  0  0  0  0  0  0  0  0  0  0  0
    6.8812    8.1394    0.9502 H   0  0  0  0  0  0  0  0  0  0  0  0
    6.6862    7.1181   -0.4939 H   0  0  0  0  0  0  0  0  0  0  0  0
    8.2308    7.1237    0.3909 H   0  0  0  0  0  0  0  0  0  0  0  0
    4.6308    5.9809    0.5385 H   0  0  0  0  0  0  0  0  0  0  0  0
    4.7930    7.0019    1.9692 H   0  0  0  0  0  0  0  0  0  0  0  0
    3.7374   -0.5814    4.0085 H   0  0  0  0  0  0  0  0  0  0  0  0
    5.2594    0.0896    3.4356 H   0  0  0  0  0  0  0  0  0  0  0  0
    4.1951   -2.6610    2.6360 H   0  0  0  0  0  0  0  0  0  0  0  0
    6.9987   -1.4466    2.2665 H   0  0  0  0  0  0  0  0  0  0  0  0
    5.7814   -1.6401    0.9790 H   0  0  0  0  0  0  0  0  0  0  0  0
    6.4844   -3.0760    1.7681 H   0  0  0  0  0  0  0  0  0  0  0  0
    6.3009   -1.9093    4.7529 H   0  0  0  0  0  0  0  0  0  0  0  0
    5.8842   -3.5639    4.2547 H   0  0  0  0  0  0  0  0  0  0  0  0
    4.6759   -2.5545    5.0847 H   0  0  0  0  0  0  0  0  0  0  0  0
  1  2  1  0
  1 21  1  0
  1 22  1  0
  1 23  1  0
  2  3  1  0
  2 24  1  0
  2 25  1  0
  3  4  1  0
  3  6  1  0
  3 26  1  1
  4  5  1  0
  4 27  1  0
  4 28  1  0
  5 29  1  0
  5 30  1  0
  5 31  1  0
  6  7  1  0
  6 17  1  0
  7  8  1  0
  7 32  1  0
  7 33  1  0
  8  9  1  0
  8 34  1  0
  8 35  1  0
  9 10  1  0
  9 36  1  0
 10 11  1  0
 10 16  1  0
 10 37  1  1
 11 12  1  0
 11 38  1  0
 11 39  1  0
 12 13  1  0
 12 40  1  0
 12 41  1  0
 13 14  1  0
 13 42  1  0
 13 43  1  0
 14 15  1  0
 14 16  1  0
 14 44  1  6
 15 45  1  0
 15 46  1  0
 15 47  1  0
 16 48  1  0
 16 49  1  0
 17 18  1  0
 17 50  1  0
 17 51  1  0
 18 19  1  0
 18 20  1  0
 18 52  1  6
 19 53  1  0
 19 54  1  0
 19 55  1  0
 20 56  1  0
 20 57  1  0
 20 58  1  0
M  END

