
     RDKit          3D

 36 36  0  0  0  0  0  0  0  0999 V2000
    0.9530    0.4283    0.2949 C   0  0  0  0  0  0  0  0  0  0  0  0
    2.2176   -0.1553   -0.0981 N   0  0  0  0  0  0  0  0  0  0  0  0
    2.6273   -1.3497    0.6317 C   0  0  1  0  0  0  0  0  0  0  0  0
    1.9632   -2.5892   -0.0346 C   0  0  0  0  0  0  0  0  0  0  0  0
    2.4542   -2.9455   -1.4142 C   0  0  0  0  0  0  0  0  0  0  0  0
    2.5706   -2.1547   -2.5334 C   0  0  0  0  0  0  0  0  0  0  0  0
    3.0554   -2.8798   -3.6652 C   0  0  0  0  0  0  0  0  0  0  0  0
    3.3247   -2.0683   -5.3598 Br  0  0  0  0  0  0  0  0  0  0  0  0
    3.3016   -4.2053   -3.4213 C   0  0  0  0  0  0  0  0  0  0  0  0
    2.9390   -4.5858   -1.7724 S   0  0  0  0  0  0  0  0  0  0  0  0
    4.1880   -1.4051    0.7032 C   0  0  1  0  0  0  0  0  0  0  0  0
    4.7254   -0.0763    0.7681 O   0  0  0  0  0  0  0  0  0  0  0  0
    4.5735    0.6473    1.9702 C   0  0  0  0  0  0  0  0  0  0  0  0
    4.8101   -2.2894    1.8149 C   0  0  1  0  0  0  0  0  0  0  0  0
    4.3200   -3.7435    1.8590 C   0  0  0  0  0  0  0  0  0  0  0  0
    6.3421   -2.2669    1.6862 C   0  0  0  0  0  0  0  0  0  0  0  0
    0.7828    1.3598   -0.2669 H   0  0  0  0  0  0  0  0  0  0  0  0
    0.8770    0.6653    1.3810 H   0  0  0  0  0  0  0  0  0  0  0  0
    0.1114   -0.2447    0.0562 H   0  0  0  0  0  0  0  0  0  0  0  0
    2.9728    0.5245   -0.0895 H   0  0  0  0  0  0  0  0  0  0  0  0
    2.2376   -1.3203    1.6759 H   0  0  0  0  0  0  0  0  0  0  0  0
    0.8840   -2.3654   -0.0926 H   0  0  0  0  0  0  0  0  0  0  0  0
    2.0382   -3.4679    0.6176 H   0  0  0  0  0  0  0  0  0  0  0  0
    2.3282   -1.0940   -2.5310 H   0  0  0  0  0  0  0  0  0  0  0  0
    3.6655   -4.9636   -4.1110 H   0  0  0  0  0  0  0  0  0  0  0  0
    4.5505   -1.7685   -0.2720 H   0  0  0  0  0  0  0  0  0  0  0  0
    4.8576    1.6878    1.7508 H   0  0  0  0  0  0  0  0  0  0  0  0
    5.2337    0.2796    2.7765 H   0  0  0  0  0  0  0  0  0  0  0  0
    3.5341    0.6454    2.3487 H   0  0  0  0  0  0  0  0  0  0  0  0
    4.5391   -1.8339    2.7846 H   0  0  0  0  0  0  0  0  0  0  0  0
    4.4240   -4.2402    0.8809 H   0  0  0  0  0  0  0  0  0  0  0  0
    3.2726   -3.8302    2.1817 H   0  0  0  0  0  0  0  0  0  0  0  0
    4.9238   -4.3138    2.5828 H   0  0  0  0  0  0  0  0  0  0  0  0
    6.6592   -2.7883    0.7671 H   0  0  0  0  0  0  0  0  0  0  0  0
    6.8141   -2.7789    2.5398 H   0  0  0  0  0  0  0  0  0  0  0  0
    6.7361   -1.2428    1.6329 H   0  0  0  0  0  0  0  0  0  0  0  0
  1  2  1  0
  1 17  1  0
  1 18  1  0
  1 19  1  0
  2  3  1  0
  2 20  1  0
  3  4  1  0
  3 11  1  0
  3 21  1  1
  4  5  1  0
  4 22  1  0
  4 23  1  0
  5  6  2  0
  5 10  1  0
  6  7  1  0
  6 24  1  0
  7  8  1  0
  7  9  2  0
  9 10  1  0
  9 25  1  0
 11 12  1  0
 11 14  1  0
 11 26  1  6
 12 13  1  0
 13 27  1  0
 13 28  1  0
 13 29  1  0
 14 15  1  0
 14 16  1  0
 14 30  1  1
 15 31  1  0
 15 32  1  0
 15 33  1  0
 16 34  1  0
 16 35  1  0
 16 36  1  0
M  END

