
     RDKit          3D

 45 47  0  0  0  0  0  0  0  0999 V2000
    1.7001    1.4748    1.3388 C   0  0  0  0  0  0  0  0  0  0  0  0
    3.0352    1.0069    0.8128 C   0  0  0  0  0  0  0  0  0  0  0  0
    4.2061    1.1148    1.5772 C   0  0  0  0  0  0  0  0  0  0  0  0
    5.4407    0.6862    1.0827 C   0  0  0  0  0  0  0  0  0  0  0  0
    5.5536    0.1199   -0.1967 C   0  0  0  0  0  0  0  0  0  0  0  0
    6.9156   -0.2945   -0.7687 C   0  0  1  0  0  0  0  0  0  0  0  0
    7.8429   -0.8680    0.3473 C   0  0  0  0  0  0  0  0  0  0  0  0
    7.3211   -1.9081    1.0556 N   0  0  0  0  0  0  0  0  0  0  0  0
    8.9760   -0.4594    0.5439 O   0  0  0  0  0  0  0  0  0  0  0  0
    6.7797   -1.4235   -1.7945 C   0  0  0  0  0  0  0  0  0  0  0  0
    7.6167   -1.5539   -2.8390 C   0  0  0  0  0  0  0  0  0  0  0  0
    8.6928   -0.5897   -3.0777 C   0  0  0  0  0  0  0  0  0  0  0  0
    8.7113    0.5671   -2.3973 C   0  0  0  0  0  0  0  0  0  0  0  0
    7.5893    0.9519   -1.4449 C   0  0  2  0  0  0  0  0  0  0  0  0
    7.9432    1.9662   -0.4625 N   0  0  0  0  0  0  0  0  0  0  0  0
    8.1250    3.3094   -0.9785 C   0  0  0  0  0  0  0  0  0  0  0  0
    8.3664    4.3240    0.1211 C   0  0  0  0  0  0  0  0  0  0  0  0
    9.2746    5.3771   -0.0442 C   0  0  0  0  0  0  0  0  0  0  0  0
    9.4355    6.3112    0.9843 C   0  0  0  0  0  0  0  0  0  0  0  0
    8.7700    6.2593    2.1399 N   0  0  0  0  0  0  0  0  0  0  0  0
    7.9070    5.2514    2.3008 C   0  0  0  0  0  0  0  0  0  0  0  0
    7.6697    4.2690    1.3364 C   0  0  0  0  0  0  0  0  0  0  0  0
    4.3814    0.0156   -0.9644 C   0  0  0  0  0  0  0  0  0  0  0  0
    3.1497    0.4495   -0.4701 C   0  0  0  0  0  0  0  0  0  0  0  0
    1.7758    1.8309    2.3768 H   0  0  0  0  0  0  0  0  0  0  0  0
    0.9512    0.6657    1.3130 H   0  0  0  0  0  0  0  0  0  0  0  0
    1.2984    2.3021    0.7295 H   0  0  0  0  0  0  0  0  0  0  0  0
    4.1544    1.5471    2.5807 H   0  0  0  0  0  0  0  0  0  0  0  0
    6.3302    0.7997    1.7046 H   0  0  0  0  0  0  0  0  0  0  0  0
    6.3444   -2.1623    0.9909 H   0  0  0  0  0  0  0  0  0  0  0  0
    7.8836   -2.3042    1.7996 H   0  0  0  0  0  0  0  0  0  0  0  0
    6.0237   -2.1886   -1.5996 H   0  0  0  0  0  0  0  0  0  0  0  0
    7.5197   -2.4145   -3.5074 H   0  0  0  0  0  0  0  0  0  0  0  0
    9.4760   -0.8357   -3.7998 H   0  0  0  0  0  0  0  0  0  0  0  0
    9.5127    1.2952   -2.5524 H   0  0  0  0  0  0  0  0  0  0  0  0
    6.7916    1.3908   -2.0781 H   0  0  0  0  0  0  0  0  0  0  0  0
    8.7516    1.6468    0.0706 H   0  0  0  0  0  0  0  0  0  0  0  0
    7.2003    3.5943   -1.5166 H   0  0  0  0  0  0  0  0  0  0  0  0
    8.9429    3.4067   -1.7260 H   0  0  0  0  0  0  0  0  0  0  0  0
    9.8582    5.4713   -0.9644 H   0  0  0  0  0  0  0  0  0  0  0  0
   10.1448    7.1395    0.8639 H   0  0  0  0  0  0  0  0  0  0  0  0
    7.3678    5.2198    3.2558 H   0  0  0  0  0  0  0  0  0  0  0  0
    6.9553    3.4646    1.5190 H   0  0  0  0  0  0  0  0  0  0  0  0
    4.4298   -0.4046   -1.9718 H   0  0  0  0  0  0  0  0  0  0  0  0
    2.2584    0.3514   -1.0973 H   0  0  0  0  0  0  0  0  0  0  0  0
  1  2  1  0
  1 25  1  0
  1 26  1  0
  1 27  1  0
  2  3  2  0
  2 24  1  0
  3  4  1  0
  3 28  1  0
  4  5  2  0
  4 29  1  0
  5  6  1  0
  5 23  1  0
  6  7  1  1
  6 10  1  0
  6 14  1  0
  7  8  1  0
  7  9  2  0
  8 30  1  0
  8 31  1  0
 10 11  2  0
 10 32  1  0
 11 12  1  0
 11 33  1  0
 12 13  2  0
 12 34  1  0
 13 14  1  0
 13 35  1  0
 14 15  1  0
 14 36  1  6
 15 16  1  0
 15 37  1  0
 16 17  1  0
 16 38  1  0
 16 39  1  0
 17 18  2  0
 17 22  1  0
 18 19  1  0
 18 40  1  0
 19 20  2  0
 19 41  1  0
 20 21  1  0
 21 22  2  0
 21 42  1  0
 22 43  1  0
 23 24  2  0
 23 44  1  0
 24 45  1  0
M  END

