
     RDKit          3D

 63 67  0  0  0  0  0  0  0  0999 V2000
    0.5369    0.2959    1.3284 C   0  0  0  0  0  0  0  0  0  0  0  0
    1.6139    0.4826    2.2204 O   0  0  0  0  0  0  0  0  0  0  0  0
    2.4001    1.5776    2.0973 C   0  0  0  0  0  0  0  0  0  0  0  0
    2.2283    2.5768    1.1248 C   0  0  0  0  0  0  0  0  0  0  0  0
    3.0985    3.6669    1.0868 C   0  0  0  0  0  0  0  0  0  0  0  0
    4.1570    3.7943    2.0079 C   0  0  0  0  0  0  0  0  0  0  0  0
    5.0423    4.9110    1.9628 C   0  0  0  0  0  0  0  0  0  0  0  0
    5.8020    5.8663    1.9263 C   0  0  0  0  0  0  0  0  0  0  0  0
    6.6884    6.9807    1.8834 C   0  0  0  0  0  0  0  0  0  0  0  0
    6.5342    7.9938    0.9091 C   0  0  0  0  0  0  0  0  0  0  0  0
    7.3985    9.0801    0.8672 C   0  0  0  0  0  0  0  0  0  0  0  0
    8.4555    9.2018    1.7978 C   0  0  0  0  0  0  0  0  0  0  0  0
    9.3426   10.3164    1.7549 C   0  0  0  0  0  0  0  0  0  0  0  0
   10.1031   11.2705    1.7188 C   0  0  0  0  0  0  0  0  0  0  0  0
   10.9916   12.3856    1.6776 C   0  0  0  0  0  0  0  0  0  0  0  0
   10.8427   13.3897    0.6952 C   0  0  0  0  0  0  0  0  0  0  0  0
   11.7119   14.4779    0.6560 C   0  0  0  0  0  0  0  0  0  0  0  0
   12.7461   14.5995    1.5984 C   0  0  0  0  0  0  0  0  0  0  0  0
   13.9490   15.9823    1.6544 P   0  0  1  0  0  0  0  0  0  0  0  0
   15.2309   15.5846    2.3402 O   0  0  0  0  0  0  0  0  0  0  0  0
   14.2286   16.5089   -0.0800 C   0  0  0  0  0  0  0  0  0  0  0  0
   13.3741   17.3596   -0.7990 C   0  0  0  0  0  0  0  0  0  0  0  0
   13.6731   17.7005   -2.1216 C   0  0  0  0  0  0  0  0  0  0  0  0
   14.8295   17.2019   -2.7297 C   0  0  0  0  0  0  0  0  0  0  0  0
   15.6923   16.3674   -2.0117 C   0  0  0  0  0  0  0  0  0  0  0  0
   15.3967   16.0238   -0.6904 C   0  0  0  0  0  0  0  0  0  0  0  0
   13.1151   17.3755    2.5074 C   0  0  0  0  0  0  0  0  0  0  0  0
   11.7408   17.6499    2.4238 C   0  0  0  0  0  0  0  0  0  0  0  0
   11.1995   18.7402    3.1115 C   0  0  0  0  0  0  0  0  0  0  0  0
   12.0244   19.5560    3.8923 C   0  0  0  0  0  0  0  0  0  0  0  0
   13.3912   19.2767    3.9918 C   0  0  0  0  0  0  0  0  0  0  0  0
   13.9361   18.1885    3.3056 C   0  0  0  0  0  0  0  0  0  0  0  0
   12.9108   13.5952    2.5672 C   0  0  0  0  0  0  0  0  0  0  0  0
   12.0455   12.5054    2.6108 C   0  0  0  0  0  0  0  0  0  0  0  0
    8.6103    8.1895    2.7721 C   0  0  0  0  0  0  0  0  0  0  0  0
    7.7461    7.1031    2.8139 C   0  0  0  0  0  0  0  0  0  0  0  0
    4.3146    2.7776    2.9808 C   0  0  0  0  0  0  0  0  0  0  0  0
    3.4537    1.6916    3.0245 C   0  0  0  0  0  0  0  0  0  0  0  0
    0.0513   -0.6455    1.6179 H   0  0  0  0  0  0  0  0  0  0  0  0
    0.8801    0.2142    0.2814 H   0  0  0  0  0  0  0  0  0  0  0  0
   -0.2010    1.1153    1.3983 H   0  0  0  0  0  0  0  0  0  0  0  0
    1.4220    2.5162    0.3938 H   0  0  0  0  0  0  0  0  0  0  0  0
    2.9583    4.4393    0.3278 H   0  0  0  0  0  0  0  0  0  0  0  0
    5.7224    7.9136    0.1834 H   0  0  0  0  0  0  0  0  0  0  0  0
    7.2664    9.8540    0.1084 H   0  0  0  0  0  0  0  0  0  0  0  0
   10.0419   13.2997   -0.0416 H   0  0  0  0  0  0  0  0  0  0  0  0
   11.5897   15.2264   -0.1306 H   0  0  0  0  0  0  0  0  0  0  0  0
   12.4818   17.7765   -0.3253 H   0  0  0  0  0  0  0  0  0  0  0  0
   13.0054   18.3654   -2.6755 H   0  0  0  0  0  0  0  0  0  0  0  0
   15.0634   17.4725   -3.7627 H   0  0  0  0  0  0  0  0  0  0  0  0
   16.6036   15.9877   -2.4810 H   0  0  0  0  0  0  0  0  0  0  0  0
   16.0717   15.3904   -0.1097 H   0  0  0  0  0  0  0  0  0  0  0  0
   11.0819   17.0038    1.8384 H   0  0  0  0  0  0  0  0  0  0  0  0
   10.1283   18.9469    3.0450 H   0  0  0  0  0  0  0  0  0  0  0  0
   11.5986   20.4057    4.4323 H   0  0  0  0  0  0  0  0  0  0  0  0
   14.0351   19.9051    4.6126 H   0  0  0  0  0  0  0  0  0  0  0  0
   14.9977   17.9443    3.3910 H   0  0  0  0  0  0  0  0  0  0  0  0
   13.7386   13.6766    3.2756 H   0  0  0  0  0  0  0  0  0  0  0  0
   12.1794   11.7280    3.3659 H   0  0  0  0  0  0  0  0  0  0  0  0
    9.4224    8.2695    3.4976 H   0  0  0  0  0  0  0  0  0  0  0  0
    7.8786    6.3290    3.5724 H   0  0  0  0  0  0  0  0  0  0  0  0
    5.1282    2.8554    3.7049 H   0  0  0  0  0  0  0  0  0  0  0  0
    3.5711    0.9051    3.7726 H   0  0  0  0  0  0  0  0  0  0  0  0
  1  2  1  0
  1 39  1  0
  1 40  1  0
  1 41  1  0
  2  3  1  0
  3  4  2  0
  3 38  1  0
  4  5  1  0
  4 42  1  0
  5  6  2  0
  5 43  1  0
  6  7  1  0
  6 37  1  0
  7  8  3  0
  8  9  1  0
  9 10  2  0
  9 36  1  0
 10 11  1  0
 10 44  1  0
 11 12  2  0
 11 45  1  0
 12 13  1  0
 12 35  1  0
 13 14  3  0
 14 15  1  0
 15 16  2  0
 15 34  1  0
 16 17  1  0
 16 46  1  0
 17 18  2  0
 17 47  1  0
 19 18  1  6
 18 33  1  0
 19 20  2  0
 19 21  1  0
 19 27  1  0
 21 22  2  0
 21 26  1  0
 22 23  1  0
 22 48  1  0
 23 24  2  0
 23 49  1  0
 24 25  1  0
 24 50  1  0
 25 26  2  0
 25 51  1  0
 26 52  1  0
 27 28  2  0
 27 32  1  0
 28 29  1  0
 28 53  1  0
 29 30  2  0
 29 54  1  0
 30 31  1  0
 30 55  1  0
 31 32  2  0
 31 56  1  0
 32 57  1  0
 33 34  2  0
 33 58  1  0
 34 59  1  0
 35 36  2  0
 35 60  1  0
 36 61  1  0
 37 38  2  0
 37 62  1  0
 38 63  1  0
M  END

