
     RDKit          3D

 63 70  0  0  0  0  0  0  0  0999 V2000
    2.1150    0.2731   -3.2580 C   0  0  0  0  0  0  0  0  0  0  0  0
    3.2030    1.1573   -2.6053 C   0  0  1  0  0  0  0  0  0  0  0  0
    4.2695    0.2555   -1.9414 C   0  0  0  0  0  0  0  0  0  0  0  0
    3.8891    1.9711   -3.7173 C   0  0  0  0  0  0  0  0  0  0  0  0
    2.5568    2.0627   -1.5361 C   0  0  0  0  0  0  0  0  0  0  0  0
    1.8814    1.4688   -0.4405 C   0  0  0  0  0  0  0  0  0  0  0  0
    1.2696    2.2123    0.5696 C   0  0  0  0  0  0  0  0  0  0  0  0
    1.3449    3.5956    0.4653 C   0  0  0  0  0  0  0  0  0  0  0  0
    0.8097    4.4980    1.3519 O   0  0  0  0  0  0  0  0  0  0  0  0
    1.1114    5.7350    0.8752 C   0  0  0  0  0  0  0  0  0  0  0  0
    0.7312    6.8256    1.5101 N   0  0  0  0  0  0  0  0  0  0  0  0
    1.1147    7.9262    0.8976 C   0  0  0  0  0  0  0  0  0  0  0  0
    0.8145    9.1595    1.4029 O   0  0  0  0  0  0  0  0  0  0  0  0
    1.3484   10.0771    0.5421 C   0  0  0  0  0  0  0  0  0  0  0  0
    1.2687   11.4576    0.6881 C   0  0  0  0  0  0  0  0  0  0  0  0
    1.8783   12.2366   -0.2984 C   0  0  0  0  0  0  0  0  0  0  0  0
    2.5427   11.6428   -1.3893 C   0  0  0  0  0  0  0  0  0  0  0  0
    3.1578   12.4814   -2.3839 N   0  0  0  0  0  0  0  0  0  0  0  0
    2.4116   12.8849   -3.4960 C   0  0  0  0  0  0  0  0  0  0  0  0
    1.0628   12.4866   -3.6521 C   0  0  0  0  0  0  0  0  0  0  0  0
    0.3341   12.8944   -4.7621 C   0  0  0  0  0  0  0  0  0  0  0  0
    0.9122   13.7066   -5.7524 C   0  0  0  0  0  0  0  0  0  0  0  0
    2.2331   14.1019   -5.6077 C   0  0  0  0  0  0  0  0  0  0  0  0
    2.9962   13.7048   -4.4935 C   0  0  0  0  0  0  0  0  0  0  0  0
    4.3994   14.1574   -4.3920 C   0  0  0  0  0  0  0  0  0  0  0  0
    4.9264   14.8643   -5.2443 O   0  0  0  0  0  0  0  0  0  0  0  0
    5.1206   13.6958   -3.1875 C   0  0  0  0  0  0  0  0  0  0  0  0
    6.4617   14.0841   -3.0080 C   0  0  0  0  0  0  0  0  0  0  0  0
    7.1848   13.6799   -1.8964 C   0  0  0  0  0  0  0  0  0  0  0  0
    6.5573   12.8674   -0.9368 C   0  0  0  0  0  0  0  0  0  0  0  0
    5.2355   12.4682   -1.0875 C   0  0  0  0  0  0  0  0  0  0  0  0
    4.4896   12.8759   -2.2188 C   0  0  0  0  0  0  0  0  0  0  0  0
    2.6136   10.2526   -1.5209 C   0  0  0  0  0  0  0  0  0  0  0  0
    2.0081    9.4551   -0.5421 C   0  0  0  0  0  0  0  0  0  0  0  0
    1.8562    8.0305   -0.3117 C   0  0  0  0  0  0  0  0  0  0  0  0
    2.2412    6.8483   -0.9559 C   0  0  0  0  0  0  0  0  0  0  0  0
    1.8545    5.6548   -0.3397 C   0  0  0  0  0  0  0  0  0  0  0  0
    2.0030    4.2343   -0.6013 C   0  0  0  0  0  0  0  0  0  0  0  0
    2.6094    3.4614   -1.6031 C   0  0  0  0  0  0  0  0  0  0  0  0
    2.5607   -0.3817   -4.0246 H   0  0  0  0  0  0  0  0  0  0  0  0
    1.3433    0.8906   -3.7445 H   0  0  0  0  0  0  0  0  0  0  0  0
    1.6118   -0.3728   -2.5223 H   0  0  0  0  0  0  0  0  0  0  0  0
    4.7411   -0.3991   -2.6927 H   0  0  0  0  0  0  0  0  0  0  0  0
    3.8368   -0.3914   -1.1631 H   0  0  0  0  0  0  0  0  0  0  0  0
    5.0615    0.8603   -1.4718 H   0  0  0  0  0  0  0  0  0  0  0  0
    4.3351    1.2883   -4.4572 H   0  0  0  0  0  0  0  0  0  0  0  0
    4.6998    2.6044   -3.3240 H   0  0  0  0  0  0  0  0  0  0  0  0
    3.1769    2.6173   -4.2541 H   0  0  0  0  0  0  0  0  0  0  0  0
    1.8307    0.3802   -0.3724 H   0  0  0  0  0  0  0  0  0  0  0  0
    0.7545    1.7352    1.4048 H   0  0  0  0  0  0  0  0  0  0  0  0
    0.7512   11.9050    1.5379 H   0  0  0  0  0  0  0  0  0  0  0  0
    1.8458   13.3259   -0.2330 H   0  0  0  0  0  0  0  0  0  0  0  0
    0.5893   11.8581   -2.8992 H   0  0  0  0  0  0  0  0  0  0  0  0
   -0.7066   12.5734   -4.8582 H   0  0  0  0  0  0  0  0  0  0  0  0
    0.3280   14.0201   -6.6204 H   0  0  0  0  0  0  0  0  0  0  0  0
    2.7333   14.7328   -6.3453 H   0  0  0  0  0  0  0  0  0  0  0  0
    6.8979   14.7156   -3.7847 H   0  0  0  0  0  0  0  0  0  0  0  0
    8.2248   13.9868   -1.7655 H   0  0  0  0  0  0  0  0  0  0  0  0
    7.1111   12.5393   -0.0531 H   0  0  0  0  0  0  0  0  0  0  0  0
    4.7738   11.8390   -0.3279 H   0  0  0  0  0  0  0  0  0  0  0  0
    3.1339    9.8148   -2.3750 H   0  0  0  0  0  0  0  0  0  0  0  0
    2.8115    6.8584   -1.8875 H   0  0  0  0  0  0  0  0  0  0  0  0
    3.1172    3.9632   -2.4263 H   0  0  0  0  0  0  0  0  0  0  0  0
  2  1  1  6
  1 40  1  0
  1 41  1  0
  1 42  1  0
  2  3  1  0
  2  4  1  0
  2  5  1  0
  3 43  1  0
  3 44  1  0
  3 45  1  0
  4 46  1  0
  4 47  1  0
  4 48  1  0
  5  6  2  0
  5 39  1  0
  6  7  1  0
  6 49  1  0
  7  8  2  0
  7 50  1  0
  8  9  1  0
  8 38  1  0
  9 10  1  0
 10 11  1  0
 10 37  2  0
 11 12  2  0
 12 13  1  0
 12 35  1  0
 13 14  1  0
 14 15  1  0
 14 34  2  0
 15 16  2  0
 15 51  1  0
 16 17  1  0
 16 52  1  0
 17 18  1  0
 17 33  2  0
 18 19  1  0
 18 32  1  0
 19 20  2  0
 19 24  1  0
 20 21  1  0
 20 53  1  0
 21 22  2  0
 21 54  1  0
 22 23  1  0
 22 55  1  0
 23 24  2  0
 23 56  1  0
 24 25  1  0
 25 26  2  0
 25 27  1  0
 27 28  1  0
 27 32  2  0
 28 29  2  0
 28 57  1  0
 29 30  1  0
 29 58  1  0
 30 31  2  0
 30 59  1  0
 31 32  1  0
 31 60  1  0
 33 34  1  0
 33 61  1  0
 34 35  1  0
 35 36  2  0
 36 37  1  0
 36 62  1  0
 37 38  1  0
 38 39  2  0
 39 63  1  0
M  END

