
     RDKit          3D

 53 53  0  0  0  0  0  0  0  0999 V2000
    1.5779    0.6630   -2.8499 C   0  0  0  0  0  0  0  0  0  0  0  0
    2.3390    0.8891   -1.5435 C   0  0  0  0  0  0  0  0  0  0  0  0
    3.5691    1.7632   -1.7269 C   0  0  0  0  0  0  0  0  0  0  0  0
    4.2211    1.9099   -0.4693 O   0  0  0  0  0  0  0  0  0  0  0  0
    5.3862    2.6766   -0.4816 C   0  0  1  0  0  0  0  0  0  0  0  0
    5.1394    4.0392   -0.7424 O   0  0  0  0  0  0  0  0  0  0  0  0
    4.3340    4.7046    0.2254 C   0  0  2  0  0  0  0  0  0  0  0  0
    4.1492    6.1219   -0.3113 C   0  0  0  0  0  0  0  0  0  0  0  0
    3.3883    6.9283    0.5917 O   0  0  0  0  0  0  0  0  0  0  0  0
    2.0369    6.8588    0.5051 C   0  0  0  0  0  0  0  0  0  0  0  0
    1.3868    7.7730    1.5115 C   0  0  0  0  0  0  0  0  0  0  0  0
    1.4608    6.1481   -0.2795 O   0  0  0  0  0  0  0  0  0  0  0  0
    4.9645    4.6484    1.6216 C   0  0  2  0  0  0  0  0  0  0  0  0
    6.1517    5.4538    1.6202 O   0  0  0  0  0  0  0  0  0  0  0  0
    6.4953    6.1050    2.7517 C   0  0  0  0  0  0  0  0  0  0  0  0
    7.7571    6.9038    2.5390 C   0  0  0  0  0  0  0  0  0  0  0  0
    5.8670    6.0528    3.7805 O   0  0  0  0  0  0  0  0  0  0  0  0
    5.2739    3.1851    1.9704 C   0  0  2  0  0  0  0  0  0  0  0  0
    5.9890    3.0853    3.1985 O   0  0  0  0  0  0  0  0  0  0  0  0
    5.2492    3.0320    4.3416 C   0  0  0  0  0  0  0  0  0  0  0  0
    6.1334    3.0947    5.5556 C   0  0  0  0  0  0  0  0  0  0  0  0
    4.0471    2.9698    4.3413 O   0  0  0  0  0  0  0  0  0  0  0  0
    6.0641    2.4633    0.8814 C   0  0  2  0  0  0  0  0  0  0  0  0
    7.3993    2.9693    0.8042 O   0  0  0  0  0  0  0  0  0  0  0  0
    8.4171    2.1458    1.1602 C   0  0  0  0  0  0  0  0  0  0  0  0
    9.7301    2.8869    1.1255 C   0  0  0  0  0  0  0  0  0  0  0  0
    8.2759    0.9903    1.4663 O   0  0  0  0  0  0  0  0  0  0  0  0
    0.6917    0.0307   -2.6867 H   0  0  0  0  0  0  0  0  0  0  0  0
    2.2072    0.1623   -3.6048 H   0  0  0  0  0  0  0  0  0  0  0  0
    1.2302    1.6146   -3.2851 H   0  0  0  0  0  0  0  0  0  0  0  0
    2.6565   -0.0745   -1.1101 H   0  0  0  0  0  0  0  0  0  0  0  0
    1.6815    1.3645   -0.7960 H   0  0  0  0  0  0  0  0  0  0  0  0
    3.2894    2.7546   -2.1274 H   0  0  0  0  0  0  0  0  0  0  0  0
    4.2710    1.3034   -2.4522 H   0  0  0  0  0  0  0  0  0  0  0  0
    6.0703    2.3582   -1.2891 H   0  0  0  0  0  0  0  0  0  0  0  0
    3.3461    4.2166    0.2913 H   0  0  0  0  0  0  0  0  0  0  0  0
    3.6536    6.0713   -1.2902 H   0  0  0  0  0  0  0  0  0  0  0  0
    5.1278    6.6078   -0.4083 H   0  0  0  0  0  0  0  0  0  0  0  0
    1.6456    7.4460    2.5308 H   0  0  0  0  0  0  0  0  0  0  0  0
    0.2987    7.7513    1.3791 H   0  0  0  0  0  0  0  0  0  0  0  0
    1.7673    8.7986    1.3934 H   0  0  0  0  0  0  0  0  0  0  0  0
    4.2651    5.0525    2.3664 H   0  0  0  0  0  0  0  0  0  0  0  0
    8.5539    6.2472    2.1587 H   0  0  0  0  0  0  0  0  0  0  0  0
    8.0624    7.3722    3.4820 H   0  0  0  0  0  0  0  0  0  0  0  0
    7.5837    7.6786    1.7760 H   0  0  0  0  0  0  0  0  0  0  0  0
    4.3051    2.6734    2.0704 H   0  0  0  0  0  0  0  0  0  0  0  0
    7.0459    2.4994    5.4120 H   0  0  0  0  0  0  0  0  0  0  0  0
    5.5765    2.7533    6.4366 H   0  0  0  0  0  0  0  0  0  0  0  0
    6.4278    4.1472    5.6975 H   0  0  0  0  0  0  0  0  0  0  0  0
    6.1039    1.3882    1.0992 H   0  0  0  0  0  0  0  0  0  0  0  0
    9.8082    3.4961    0.2137 H   0  0  0  0  0  0  0  0  0  0  0  0
   10.5592    2.1719    1.1887 H   0  0  0  0  0  0  0  0  0  0  0  0
    9.7770    3.5725    1.9869 H   0  0  0  0  0  0  0  0  0  0  0  0
  1  2  1  0
  1 28  1  0
  1 29  1  0
  1 30  1  0
  2  3  1  0
  2 31  1  0
  2 32  1  0
  3  4  1  0
  3 33  1  0
  3 34  1  0
  4  5  1  0
  5  6  1  0
  5 23  1  0
  5 35  1  6
  6  7  1  0
  7  8  1  0
  7 13  1  0
  7 36  1  1
  8  9  1  0
  8 37  1  0
  8 38  1  0
  9 10  1  0
 10 11  1  0
 10 12  2  0
 11 39  1  0
 11 40  1  0
 11 41  1  0
 13 14  1  0
 13 18  1  0
 13 42  1  1
 14 15  1  0
 15 16  1  0
 15 17  2  0
 16 43  1  0
 16 44  1  0
 16 45  1  0
 18 19  1  0
 18 23  1  0
 18 46  1  1
 19 20  1  0
 20 21  1  0
 20 22  2  0
 21 47  1  0
 21 48  1  0
 21 49  1  0
 23 24  1  0
 23 50  1  1
 24 25  1  0
 25 26  1  0
 25 27  2  0
 26 51  1  0
 26 52  1  0
 26 53  1  0
M  END

