
     RDKit          3D

 38 40  0  0  0  0  0  0  0  0999 V2000
    8.2120   -2.7545   -1.0669 C   0  0  0  0  0  0  0  0  0  0  0  0
    7.4676   -1.9301   -0.0366 C   0  0  0  0  0  0  0  0  0  0  0  0
    6.5049   -1.1243   -0.7283 O   0  0  0  0  0  0  0  0  0  0  0  0
    5.7458   -0.2665    0.0068 C   0  0  0  0  0  0  0  0  0  0  0  0
    5.8691    1.1022   -0.1942 C   0  0  0  0  0  0  0  0  0  0  0  0
    5.0616    2.0475    0.4895 C   0  0  0  0  0  0  0  0  0  0  0  0
    5.2876    3.4418    0.1878 C   0  0  0  0  0  0  0  0  0  0  0  0
    4.7673    4.6246    0.6410 C   0  0  0  0  0  0  0  0  0  0  0  0
    5.2805    5.8992    0.0592 C   0  0  0  0  0  0  0  0  0  0  0  0
    6.1258    6.0339   -0.8028 O   0  0  0  0  0  0  0  0  0  0  0  0
    4.5493    7.0108    0.7466 C   0  0  0  0  0  0  0  0  0  0  0  0
    4.6568    8.3811    0.5168 C   0  0  0  0  0  0  0  0  0  0  0  0
    3.8512    9.2417    1.2693 C   0  0  0  0  0  0  0  0  0  0  0  0
    2.9764    8.7319    2.2378 C   0  0  0  0  0  0  0  0  0  0  0  0
    2.9146    7.3555    2.4728 C   0  0  0  0  0  0  0  0  0  0  0  0
    2.0447    6.8936    3.5751 N   0  0  0  0  0  0  0  0  0  0  0  0
    0.9284    7.3840    3.6328 O   0  0  0  0  0  0  0  0  0  0  0  0
    2.5213    6.1016    4.3629 O   0  0  0  0  0  0  0  0  0  0  0  0
    3.6855    6.4742    1.7121 C   0  0  0  0  0  0  0  0  0  0  0  0
    3.7243    4.9611    1.6454 C   0  0  0  0  0  0  0  0  0  0  0  0
    2.9863    4.2221    2.2667 O   0  0  0  0  0  0  0  0  0  0  0  0
    4.1057    1.5582    1.4115 C   0  0  0  0  0  0  0  0  0  0  0  0
    3.9746    0.1914    1.6194 C   0  0  0  0  0  0  0  0  0  0  0  0
    4.7728   -0.7332    0.9273 C   0  0  0  0  0  0  0  0  0  0  0  0
    4.6477   -2.0675    1.0889 O   0  0  0  0  0  0  0  0  0  0  0  0
    8.9686   -3.3855   -0.5748 H   0  0  0  0  0  0  0  0  0  0  0  0
    8.7194   -2.1048   -1.7966 H   0  0  0  0  0  0  0  0  0  0  0  0
    7.5158   -3.4084   -1.6142 H   0  0  0  0  0  0  0  0  0  0  0  0
    8.1609   -1.2694    0.5175 H   0  0  0  0  0  0  0  0  0  0  0  0
    6.9607   -2.5806    0.6949 H   0  0  0  0  0  0  0  0  0  0  0  0
    6.6166    1.4362   -0.9172 H   0  0  0  0  0  0  0  0  0  0  0  0
    6.0592    3.6105   -0.5759 H   0  0  0  0  0  0  0  0  0  0  0  0
    5.3499    8.7529   -0.2408 H   0  0  0  0  0  0  0  0  0  0  0  0
    3.8985   10.3213    1.1091 H   0  0  0  0  0  0  0  0  0  0  0  0
    2.3401    9.3951    2.8255 H   0  0  0  0  0  0  0  0  0  0  0  0
    3.4700    2.2618    1.9485 H   0  0  0  0  0  0  0  0  0  0  0  0
    3.2266   -0.1812    2.3270 H   0  0  0  0  0  0  0  0  0  0  0  0
    3.9471   -2.2546    1.7291 H   0  0  0  0  0  0  0  0  0  0  0  0
  1  2  1  0
  1 26  1  0
  1 27  1  0
  1 28  1  0
  2  3  1  0
  2 29  1  0
  2 30  1  0
  3  4  1  0
  4  5  2  0
  4 24  1  0
  5  6  1  0
  5 31  1  0
  6  7  1  0
  6 22  2  0
  7  8  2  0
  7 32  1  0
  8  9  1  0
  8 20  1  0
  9 10  2  0
  9 11  1  0
 11 12  1  0
 11 19  2  0
 12 13  2  0
 12 33  1  0
 13 14  1  0
 13 34  1  0
 14 15  2  0
 14 35  1  0
 15 16  1  0
 15 19  1  0
 16 17  2  0
 16 18  1  0
 19 20  1  0
 20 21  2  0
 22 23  1  0
 22 36  1  0
 23 24  2  0
 23 37  1  0
 24 25  1  0
 25 38  1  0
M  CHG  2  16   1  18  -1
M  END

