
     RDKit          3D

 48 49  0  0  0  0  0  0  0  0999 V2000
    2.5742    0.6119    0.1111 C   0  0  0  0  0  0  0  0  0  0  0  0
    2.9820    0.2869    1.5482 C   0  0  0  0  0  0  0  0  0  0  0  0
    3.2670   -1.1359    1.7889 N   0  0  0  0  0  0  0  0  0  0  0  0
    2.2813   -1.9028    2.5493 C   0  0  0  0  0  0  0  0  0  0  0  0
    0.9541   -2.1278    1.8219 C   0  0  0  0  0  0  0  0  0  0  0  0
    4.4883   -1.5919    1.3826 C   0  0  0  0  0  0  0  0  0  0  0  0
    5.2934   -0.8497    0.8246 O   0  0  0  0  0  0  0  0  0  0  0  0
    4.8590   -3.0762    1.5823 C   0  0  1  0  0  0  0  0  0  0  0  0
    4.1848   -3.9708    0.5241 C   0  0  0  0  0  0  0  0  0  0  0  0
    6.3032   -3.1446    1.5060 N   0  0  0  0  0  0  0  0  0  0  0  0
    7.0106   -4.1616    2.0657 C   0  0  0  0  0  0  0  0  0  0  0  0
    6.4616   -5.1131    2.6128 O   0  0  0  0  0  0  0  0  0  0  0  0
    8.5114   -4.0685    1.9700 C   0  0  0  0  0  0  0  0  0  0  0  0
    9.2095   -2.8941    1.6418 C   0  0  0  0  0  0  0  0  0  0  0  0
   10.6006   -2.8830    1.5764 C   0  0  0  0  0  0  0  0  0  0  0  0
   11.3254   -4.0543    1.8464 C   0  0  0  0  0  0  0  0  0  0  0  0
   12.7431   -4.0144    1.7751 N   0  0  0  0  0  0  0  0  0  0  0  0
   13.3739   -2.8694    2.1324 N   0  0  0  0  0  0  0  0  0  0  0  0
   14.6603   -3.0970    1.9260 C   0  0  0  0  0  0  0  0  0  0  0  0
   14.8839   -4.3983    1.4162 C   0  0  0  0  0  0  0  0  0  0  0  0
   13.6273   -4.9731    1.3213 C   0  0  0  0  0  0  0  0  0  0  0  0
   13.2489   -6.3195    0.7889 C   0  0  0  0  0  0  0  0  0  0  0  0
   10.6401   -5.2233    2.2093 C   0  0  0  0  0  0  0  0  0  0  0  0
    9.2476   -5.2239    2.2652 C   0  0  0  0  0  0  0  0  0  0  0  0
    2.3745    1.6911    0.0114 H   0  0  0  0  0  0  0  0  0  0  0  0
    1.6658    0.0680   -0.1910 H   0  0  0  0  0  0  0  0  0  0  0  0
    3.3872    0.3521   -0.5818 H   0  0  0  0  0  0  0  0  0  0  0  0
    2.1887    0.5834    2.2523 H   0  0  0  0  0  0  0  0  0  0  0  0
    3.8858    0.8602    1.8047 H   0  0  0  0  0  0  0  0  0  0  0  0
    2.0904   -1.3729    3.5008 H   0  0  0  0  0  0  0  0  0  0  0  0
    2.7173   -2.8699    2.8258 H   0  0  0  0  0  0  0  0  0  0  0  0
    0.4457   -1.1782    1.5947 H   0  0  0  0  0  0  0  0  0  0  0  0
    0.2766   -2.7231    2.4545 H   0  0  0  0  0  0  0  0  0  0  0  0
    1.1022   -2.6680    0.8739 H   0  0  0  0  0  0  0  0  0  0  0  0
    4.5673   -3.4393    2.5795 H   0  0  0  0  0  0  0  0  0  0  0  0
    4.4606   -3.6375   -0.4883 H   0  0  0  0  0  0  0  0  0  0  0  0
    3.0879   -3.9525    0.6098 H   0  0  0  0  0  0  0  0  0  0  0  0
    4.5254   -5.0061    0.6661 H   0  0  0  0  0  0  0  0  0  0  0  0
    6.7373   -2.3643    1.0213 H   0  0  0  0  0  0  0  0  0  0  0  0
    8.6755   -1.9603    1.4490 H   0  0  0  0  0  0  0  0  0  0  0  0
   11.1467   -1.9721    1.3328 H   0  0  0  0  0  0  0  0  0  0  0  0
   15.3909   -2.3196    2.1510 H   0  0  0  0  0  0  0  0  0  0  0  0
   15.8282   -4.8608    1.1373 H   0  0  0  0  0  0  0  0  0  0  0  0
   14.0803   -6.7165    0.1895 H   0  0  0  0  0  0  0  0  0  0  0  0
   12.3555   -6.2740    0.1475 H   0  0  0  0  0  0  0  0  0  0  0  0
   13.0447   -7.0503    1.5893 H   0  0  0  0  0  0  0  0  0  0  0  0
   11.1901   -6.1239    2.4791 H   0  0  0  0  0  0  0  0  0  0  0  0
    8.6990   -6.1206    2.5588 H   0  0  0  0  0  0  0  0  0  0  0  0
  1  2  1  0
  1 25  1  0
  1 26  1  0
  1 27  1  0
  2  3  1  0
  2 28  1  0
  2 29  1  0
  3  4  1  0
  3  6  1  0
  4  5  1  0
  4 30  1  0
  4 31  1  0
  5 32  1  0
  5 33  1  0
  5 34  1  0
  6  7  2  0
  6  8  1  0
  8  9  1  0
  8 10  1  0
  8 35  1  1
  9 36  1  0
  9 37  1  0
  9 38  1  0
 10 11  1  0
 10 39  1  0
 11 12  2  0
 11 13  1  0
 13 14  2  0
 13 24  1  0
 14 15  1  0
 14 40  1  0
 15 16  2  0
 15 41  1  0
 16 17  1  0
 16 23  1  0
 17 18  1  0
 17 21  1  0
 18 19  2  0
 19 20  1  0
 19 42  1  0
 20 21  2  0
 20 43  1  0
 21 22  1  0
 22 44  1  0
 22 45  1  0
 22 46  1  0
 23 24  2  0
 23 47  1  0
 24 48  1  0
M  END

