
     RDKit          3D

 39 41  0  0  0  0  0  0  0  0999 V2000
    0.6624    0.0285    0.3238 C   0  0  0  0  0  0  0  0  0  0  0  0
    2.1607   -0.3510    0.2601 C   0  0  1  0  0  0  0  0  0  0  0  0
    3.0056    0.6016    1.0746 C   0  0  0  0  0  0  0  0  0  0  0  0
    3.2673    1.9529    0.9044 C   0  0  0  0  0  0  0  0  0  0  0  0
    4.0918    2.3675    1.9893 C   0  0  0  0  0  0  0  0  0  0  0  0
    4.3037    1.2590    2.7874 C   0  0  0  0  0  0  0  0  0  0  0  0
    3.6346    0.1946    2.2302 N   0  0  0  0  0  0  0  0  0  0  0  0
    3.6690   -1.1852    2.6893 C   0  0  0  0  0  0  0  0  0  0  0  0
    2.4849   -1.9435    2.1024 C   0  0  0  0  0  0  0  0  0  0  0  0
    2.4568   -1.7310    0.6643 N   0  0  0  0  0  0  0  0  0  0  0  0
    1.8547   -2.7656   -0.1267 C   0  0  0  0  0  0  0  0  0  0  0  0
    2.7141   -4.0434   -0.2050 C   0  0  0  0  0  0  0  0  0  0  0  0
    3.6993   -4.2269    0.4820 O   0  0  0  0  0  0  0  0  0  0  0  0
    2.2135   -4.9533   -1.1127 N   0  0  0  0  0  0  0  0  0  0  0  0
    2.6805   -6.2344   -1.4340 C   0  0  0  0  0  0  0  0  0  0  0  0
    3.8205   -6.8074   -0.8347 C   0  0  0  0  0  0  0  0  0  0  0  0
    4.2422   -8.0879   -1.1910 C   0  0  0  0  0  0  0  0  0  0  0  0
    3.5496   -8.8330   -2.1481 C   0  0  0  0  0  0  0  0  0  0  0  0
    2.4184   -8.2840   -2.7551 C   0  0  0  0  0  0  0  0  0  0  0  0
    1.9939   -7.0040   -2.4005 C   0  0  0  0  0  0  0  0  0  0  0  0
    0.4321   -6.2961   -3.2652 Br  0  0  0  0  0  0  0  0  0  0  0  0
    0.5197    1.0670   -0.0103 H   0  0  0  0  0  0  0  0  0  0  0  0
    0.2712   -0.0442    1.3506 H   0  0  0  0  0  0  0  0  0  0  0  0
    0.0544   -0.6206   -0.3279 H   0  0  0  0  0  0  0  0  0  0  0  0
    2.4788   -0.2574   -0.7945 H   0  0  0  0  0  0  0  0  0  0  0  0
    2.9014    2.5738    0.0879 H   0  0  0  0  0  0  0  0  0  0  0  0
    4.4835    3.3673    2.1679 H   0  0  0  0  0  0  0  0  0  0  0  0
    4.8784    1.1371    3.7034 H   0  0  0  0  0  0  0  0  0  0  0  0
    3.6396   -1.2006    3.7905 H   0  0  0  0  0  0  0  0  0  0  0  0
    4.6010   -1.6722    2.3560 H   0  0  0  0  0  0  0  0  0  0  0  0
    1.5426   -1.6246    2.6018 H   0  0  0  0  0  0  0  0  0  0  0  0
    2.6251   -3.0126    2.3034 H   0  0  0  0  0  0  0  0  0  0  0  0
    1.7199   -2.3923   -1.1563 H   0  0  0  0  0  0  0  0  0  0  0  0
    0.8382   -3.0753    0.2158 H   0  0  0  0  0  0  0  0  0  0  0  0
    1.3832   -4.6715   -1.6268 H   0  0  0  0  0  0  0  0  0  0  0  0
    4.3578   -6.2227   -0.0918 H   0  0  0  0  0  0  0  0  0  0  0  0
    5.1297   -8.5051   -0.7091 H   0  0  0  0  0  0  0  0  0  0  0  0
    3.8823   -9.8355   -2.4261 H   0  0  0  0  0  0  0  0  0  0  0  0
    1.8600   -8.8452   -3.5060 H   0  0  0  0  0  0  0  0  0  0  0  0
  1  2  1  0
  1 22  1  0
  1 23  1  0
  1 24  1  0
  2  3  1  0
  2 10  1  0
  2 25  1  6
  3  4  2  0
  3  7  1  0
  4  5  1  0
  4 26  1  0
  5  6  2  0
  5 27  1  0
  6  7  1  0
  6 28  1  0
  7  8  1  0
  8  9  1  0
  8 29  1  0
  8 30  1  0
  9 10  1  0
  9 31  1  0
  9 32  1  0
 10 11  1  0
 11 12  1  0
 11 33  1  0
 11 34  1  0
 12 13  2  0
 12 14  1  0
 14 15  1  0
 14 35  1  0
 15 16  2  0
 15 20  1  0
 16 17  1  0
 16 36  1  0
 17 18  2  0
 17 37  1  0
 18 19  1  0
 18 38  1  0
 19 20  2  0
 19 39  1  0
 20 21  1  0
M  END

