
     RDKit          3D

 61 63  0  0  0  0  0  0  0  0999 V2000
   13.9237    4.9076    3.7555 C   0  0  0  0  0  0  0  0  0  0  0  0
   13.6287    3.4990    3.8988 N   0  0  0  0  0  0  0  0  0  0  0  0
   13.6620    2.6310    2.8537 C   0  0  0  0  0  0  0  0  0  0  0  0
   13.8984    2.9112    1.6974 O   0  0  0  0  0  0  0  0  0  0  0  0
   13.3761    1.3701    3.2898 O   0  0  0  0  0  0  0  0  0  0  0  0
   13.4175    0.3309    2.3060 C   0  0  0  0  0  0  0  0  0  0  0  0
   12.0894    0.2069    1.5639 C   0  0  0  0  0  0  0  0  0  0  0  0
   10.9652   -0.0822    2.4383 N   0  0  0  0  0  0  0  0  0  0  0  0
   10.4247   -1.2999    2.7052 C   0  0  0  0  0  0  0  0  0  0  0  0
    9.5708   -1.5141    3.5410 O   0  0  0  0  0  0  0  0  0  0  0  0
   10.9521   -2.2708    1.9021 O   0  0  0  0  0  0  0  0  0  0  0  0
   10.4201   -3.5818    2.0677 C   0  0  0  0  0  0  0  0  0  0  0  0
   11.0227   -4.2711    3.2976 C   0  0  1  0  0  0  0  0  0  0  0  0
   10.4792   -5.5999    3.3572 O   0  0  0  0  0  0  0  0  0  0  0  0
    9.8640   -5.9841    4.5180 C   0  0  0  0  0  0  0  0  0  0  0  0
   10.3644   -7.0484    5.2701 C   0  0  0  0  0  0  0  0  0  0  0  0
    9.7093   -7.4603    6.4315 C   0  0  0  0  0  0  0  0  0  0  0  0
    8.5535   -6.8014    6.8438 C   0  0  0  0  0  0  0  0  0  0  0  0
    7.9769   -7.1950    7.9765 F   0  0  0  0  0  0  0  0  0  0  0  0
    8.0063   -5.7263    6.1192 C   0  0  0  0  0  0  0  0  0  0  0  0
    6.7063   -5.0780    6.5607 C   0  0  0  0  0  0  0  0  0  0  0  0
    6.6380   -3.7260    6.3964 N   0  0  0  0  0  0  0  0  0  0  0  0
    5.8103   -5.7319    7.0562 O   0  0  0  0  0  0  0  0  0  0  0  0
    8.6866   -5.3590    4.9533 C   0  0  0  0  0  0  0  0  0  0  0  0
    8.2080   -4.3504    4.1999 F   0  0  0  0  0  0  0  0  0  0  0  0
   12.5175   -4.3477    3.2542 C   0  0  0  0  0  0  0  0  0  0  0  0
   13.3687   -3.9267    4.1310 N   0  0  0  0  0  0  0  0  0  0  0  0
   14.6321   -4.2486    3.6409 C   0  0  0  0  0  0  0  0  0  0  0  0
   15.8401   -3.9038    4.4070 C   0  0  0  0  0  0  0  0  0  0  0  0
   17.1450   -4.1412    3.9362 C   0  0  0  0  0  0  0  0  0  0  0  0
   18.2537   -3.7924    4.7058 C   0  0  0  0  0  0  0  0  0  0  0  0
   18.0831   -3.1992    5.9613 C   0  0  0  0  0  0  0  0  0  0  0  0
   19.2817   -2.7712    6.7698 C   0  0  1  0  0  0  0  0  0  0  0  0
   20.3625   -3.5253    6.5030 F   0  0  0  0  0  0  0  0  0  0  0  0
   19.6230   -1.4929    6.5110 F   0  0  0  0  0  0  0  0  0  0  0  0
   19.0472   -2.8510    8.0917 F   0  0  0  0  0  0  0  0  0  0  0  0
   16.7901   -2.9607    6.4427 C   0  0  0  0  0  0  0  0  0  0  0  0
   15.6825   -3.3078    5.6742 C   0  0  0  0  0  0  0  0  0  0  0  0
   14.4357   -4.8802    2.4318 C   0  0  0  0  0  0  0  0  0  0  0  0
   15.5349   -5.6413    1.1349 Br  0  0  0  0  0  0  0  0  0  0  0  0
   13.1009   -4.9418    2.1825 O   0  0  0  0  0  0  0  0  0  0  0  0
   13.1005    5.5323    4.1409 H   0  0  0  0  0  0  0  0  0  0  0  0
   14.0549    5.1190    2.6864 H   0  0  0  0  0  0  0  0  0  0  0  0
   14.8514    5.1891    4.2832 H   0  0  0  0  0  0  0  0  0  0  0  0
   13.4691    3.1052    4.8183 H   0  0  0  0  0  0  0  0  0  0  0  0
   13.6355   -0.5906    2.8652 H   0  0  0  0  0  0  0  0  0  0  0  0
   14.2261    0.5314    1.5875 H   0  0  0  0  0  0  0  0  0  0  0  0
   12.1670   -0.5948    0.8179 H   0  0  0  0  0  0  0  0  0  0  0  0
   11.8947    1.1460    1.0225 H   0  0  0  0  0  0  0  0  0  0  0  0
   10.6664    0.6411    3.0825 H   0  0  0  0  0  0  0  0  0  0  0  0
   10.6866   -4.1385    1.1591 H   0  0  0  0  0  0  0  0  0  0  0  0
    9.3301   -3.5501    2.1857 H   0  0  0  0  0  0  0  0  0  0  0  0
   10.7623   -3.6985    4.1978 H   0  0  0  0  0  0  0  0  0  0  0  0
   11.2740   -7.5453    4.9283 H   0  0  0  0  0  0  0  0  0  0  0  0
   10.0882   -8.2840    7.0384 H   0  0  0  0  0  0  0  0  0  0  0  0
    7.3103   -3.2137    5.8391 H   0  0  0  0  0  0  0  0  0  0  0  0
    5.7465   -3.2880    6.6003 H   0  0  0  0  0  0  0  0  0  0  0  0
   17.3040   -4.6017    2.9617 H   0  0  0  0  0  0  0  0  0  0  0  0
   19.2592   -3.9883    4.3293 H   0  0  0  0  0  0  0  0  0  0  0  0
   16.6508   -2.5082    7.4264 H   0  0  0  0  0  0  0  0  0  0  0  0
   14.6737   -3.1258    6.0457 H   0  0  0  0  0  0  0  0  0  0  0  0
  1  2  1  0
  1 42  1  0
  1 43  1  0
  1 44  1  0
  2  3  1  0
  2 45  1  0
  3  4  2  0
  3  5  1  0
  5  6  1  0
  6  7  1  0
  6 46  1  0
  6 47  1  0
  7  8  1  0
  7 48  1  0
  7 49  1  0
  8  9  1  0
  8 50  1  0
  9 10  2  0
  9 11  1  0
 11 12  1  0
 12 13  1  0
 12 51  1  0
 12 52  1  0
 13 14  1  0
 13 26  1  0
 13 53  1  1
 14 15  1  0
 15 16  2  0
 15 24  1  0
 16 17  1  0
 16 54  1  0
 17 18  2  0
 17 55  1  0
 18 19  1  0
 18 20  1  0
 20 21  1  0
 20 24  2  0
 21 22  1  0
 21 23  2  0
 22 56  1  0
 22 57  1  0
 24 25  1  0
 26 27  2  0
 26 41  1  0
 27 28  1  0
 28 29  1  0
 28 39  2  0
 29 30  2  0
 29 38  1  0
 30 31  1  0
 30 58  1  0
 31 32  2  0
 31 59  1  0
 32 33  1  0
 32 37  1  0
 33 34  1  1
 33 35  1  0
 33 36  1  0
 37 38  2  0
 37 60  1  0
 38 61  1  0
 39 40  1  0
 39 41  1  0
M  END

