
     RDKit          3D

 39 40  0  0  0  0  0  0  0  0999 V2000
    1.0686    0.5431    0.9803 C   0  0  0  0  0  0  0  0  0  0  0  0
    2.5172    0.3418    0.6265 C   0  0  0  0  0  0  0  0  0  0  0  0
    3.3229    1.4219    0.2446 C   0  0  0  0  0  0  0  0  0  0  0  0
    4.6610    1.2441   -0.1000 C   0  0  0  0  0  0  0  0  0  0  0  0
    5.2224   -0.0320   -0.0502 C   0  0  0  0  0  0  0  0  0  0  0  0
    6.9712   -0.1257   -0.5588 S   0  0  1  0  0  0  0  0  0  0  0  0
    6.9118   -1.0024   -2.1345 C   0  0  0  0  0  0  0  0  0  0  0  0
    7.4166    1.2480   -0.8330 O   0  0  0  0  0  0  0  0  0  0  0  0
    7.7201   -0.9560    0.3978 O   0  0  0  0  0  0  0  0  0  0  0  0
    4.4750   -1.1571    0.3549 C   0  0  0  0  0  0  0  0  0  0  0  0
    5.0577   -2.5522    0.4387 C   0  0  0  0  0  0  0  0  0  0  0  0
    4.7904   -3.2357   -0.7785 O   0  0  0  0  0  0  0  0  0  0  0  0
    4.9921   -4.6313   -0.7001 C   0  0  0  0  0  0  0  0  0  0  0  0
    4.5949   -5.2578   -2.0290 C   0  0  1  0  0  0  0  0  0  0  0  0
    5.4823   -4.9027   -3.2298 C   0  0  0  0  0  0  0  0  0  0  0  0
    5.3720   -6.1685   -4.0889 C   0  0  0  0  0  0  0  0  0  0  0  0
    5.3185   -7.2625   -3.0179 C   0  0  0  0  0  0  0  0  0  0  0  0
    4.6790   -6.6757   -1.8884 O   0  0  0  0  0  0  0  0  0  0  0  0
    3.1197   -0.9321    0.6633 C   0  0  0  0  0  0  0  0  0  0  0  0
    2.1095   -2.2932    1.1259 Cl  0  0  0  0  0  0  0  0  0  0  0  0
    0.7890    1.6029    0.9014 H   0  0  0  0  0  0  0  0  0  0  0  0
    0.8591    0.2008    2.0065 H   0  0  0  0  0  0  0  0  0  0  0  0
    0.4125   -0.0429    0.3166 H   0  0  0  0  0  0  0  0  0  0  0  0
    2.8862    2.4233    0.2114 H   0  0  0  0  0  0  0  0  0  0  0  0
    5.2843    2.0840   -0.4096 H   0  0  0  0  0  0  0  0  0  0  0  0
    6.4043   -0.3597   -2.8652 H   0  0  0  0  0  0  0  0  0  0  0  0
    6.3817   -1.9547   -1.9991 H   0  0  0  0  0  0  0  0  0  0  0  0
    7.9633   -1.1580   -2.4139 H   0  0  0  0  0  0  0  0  0  0  0  0
    4.5826   -3.0860    1.2795 H   0  0  0  0  0  0  0  0  0  0  0  0
    6.1399   -2.5047    0.6326 H   0  0  0  0  0  0  0  0  0  0  0  0
    4.3706   -5.0700    0.1044 H   0  0  0  0  0  0  0  0  0  0  0  0
    6.0498   -4.8761   -0.4717 H   0  0  0  0  0  0  0  0  0  0  0  0
    3.5455   -4.9684   -2.2382 H   0  0  0  0  0  0  0  0  0  0  0  0
    6.5245   -4.7526   -2.8981 H   0  0  0  0  0  0  0  0  0  0  0  0
    5.1549   -3.9877   -3.7436 H   0  0  0  0  0  0  0  0  0  0  0  0
    6.2068   -6.2968   -4.7943 H   0  0  0  0  0  0  0  0  0  0  0  0
    4.4364   -6.1546   -4.6721 H   0  0  0  0  0  0  0  0  0  0  0  0
    6.3369   -7.5991   -2.7409 H   0  0  0  0  0  0  0  0  0  0  0  0
    4.7474   -8.1516   -3.3336 H   0  0  0  0  0  0  0  0  0  0  0  0
  1  2  1  0
  1 21  1  0
  1 22  1  0
  1 23  1  0
  2  3  2  0
  2 19  1  0
  3  4  1  0
  3 24  1  0
  4  5  2  0
  4 25  1  0
  5  6  1  0
  5 10  1  0
  6  7  1  6
  6  8  2  0
  6  9  2  0
  7 26  1  0
  7 27  1  0
  7 28  1  0
 10 11  1  0
 10 19  2  0
 11 12  1  0
 11 29  1  0
 11 30  1  0
 12 13  1  0
 13 14  1  0
 13 31  1  0
 13 32  1  0
 14 15  1  0
 14 18  1  0
 14 33  1  6
 15 16  1  0
 15 34  1  0
 15 35  1  0
 16 17  1  0
 16 36  1  0
 16 37  1  0
 17 18  1  0
 17 38  1  0
 17 39  1  0
 19 20  1  0
M  END

