
     RDKit          3D

 36 37  0  0  0  0  0  0  0  0999 V2000
    1.1017   -0.2798    0.3267 N   0  0  0  0  0  0  0  0  0  0  0  0
    2.4770   -0.0131    0.1497 N   0  0  0  0  0  0  0  0  0  0  0  0
    2.8506    0.1218   -1.2555 C   0  0  1  0  0  0  0  0  0  0  0  0
    2.1251    1.3340   -1.9132 C   0  0  0  0  0  0  0  0  0  0  0  0
    2.4273    2.6827   -1.3069 C   0  0  0  0  0  0  0  0  0  0  0  0
    3.4077    3.5269   -1.8505 C   0  0  0  0  0  0  0  0  0  0  0  0
    3.6961    4.7736   -1.2872 C   0  0  0  0  0  0  0  0  0  0  0  0
    2.9917    5.1865   -0.1551 C   0  0  0  0  0  0  0  0  0  0  0  0
    3.3724    6.8890    0.6273 Br  0  0  0  0  0  0  0  0  0  0  0  0
    2.0068    4.3715    0.4087 C   0  0  0  0  0  0  0  0  0  0  0  0
    1.7334    3.1305   -0.1705 C   0  0  0  0  0  0  0  0  0  0  0  0
    4.3623    0.1822   -1.4040 C   0  0  0  0  0  0  0  0  0  0  0  0
    5.1609    0.6459   -0.4257 C   0  0  0  0  0  0  0  0  0  0  0  0
    6.6589    0.7744   -0.5388 C   0  0  0  0  0  0  0  0  0  0  0  0
    7.1586    0.6404   -1.9824 C   0  0  0  0  0  0  0  0  0  0  0  0
    6.4415   -0.5064   -2.6995 C   0  0  0  0  0  0  0  0  0  0  0  0
    4.9263   -0.2708   -2.7371 C   0  0  0  0  0  0  0  0  0  0  0  0
    0.8273    0.0022    1.2663 H   0  0  0  0  0  0  0  0  0  0  0  0
    0.8746   -1.2747    0.2182 H   0  0  0  0  0  0  0  0  0  0  0  0
    3.0747   -0.7224    0.5799 H   0  0  0  0  0  0  0  0  0  0  0  0
    2.5041   -0.7635   -1.8381 H   0  0  0  0  0  0  0  0  0  0  0  0
    1.0469    1.1299   -1.8382 H   0  0  0  0  0  0  0  0  0  0  0  0
    2.3816    1.3377   -2.9845 H   0  0  0  0  0  0  0  0  0  0  0  0
    3.9586    3.2104   -2.7405 H   0  0  0  0  0  0  0  0  0  0  0  0
    4.4590    5.4185   -1.7268 H   0  0  0  0  0  0  0  0  0  0  0  0
    1.4562    4.7059    1.2898 H   0  0  0  0  0  0  0  0  0  0  0  0
    0.9600    2.4931    0.2631 H   0  0  0  0  0  0  0  0  0  0  0  0
    4.7033    0.9669    0.5148 H   0  0  0  0  0  0  0  0  0  0  0  0
    7.1388    0.0079    0.1018 H   0  0  0  0  0  0  0  0  0  0  0  0
    6.9740    1.7422   -0.1106 H   0  0  0  0  0  0  0  0  0  0  0  0
    8.2508    0.4909   -1.9988 H   0  0  0  0  0  0  0  0  0  0  0  0
    6.9634    1.5831   -2.5249 H   0  0  0  0  0  0  0  0  0  0  0  0
    6.6497   -1.4522   -2.1671 H   0  0  0  0  0  0  0  0  0  0  0  0
    6.8300   -0.6325   -3.7236 H   0  0  0  0  0  0  0  0  0  0  0  0
    4.4074   -1.1901   -3.0630 H   0  0  0  0  0  0  0  0  0  0  0  0
    4.6862    0.4837   -3.5120 H   0  0  0  0  0  0  0  0  0  0  0  0
  1  2  1  0
  1 18  1  0
  1 19  1  0
  2  3  1  0
  2 20  1  0
  3  4  1  0
  3 12  1  0
  3 21  1  6
  4  5  1  0
  4 22  1  0
  4 23  1  0
  5  6  2  0
  5 11  1  0
  6  7  1  0
  6 24  1  0
  7  8  2  0
  7 25  1  0
  8  9  1  0
  8 10  1  0
 10 11  2  0
 10 26  1  0
 11 27  1  0
 12 13  2  0
 12 17  1  0
 13 14  1  0
 13 28  1  0
 14 15  1  0
 14 29  1  0
 14 30  1  0
 15 16  1  0
 15 31  1  0
 15 32  1  0
 16 17  1  0
 16 33  1  0
 16 34  1  0
 17 35  1  0
 17 36  1  0
M  END

