
     RDKit          3D

 36 38  0  0  0  0  0  0  0  0999 V2000
   -2.0838    7.1424    0.5964 O   0  0  0  0  0  0  0  0  0  0  0  0
   -2.4148    5.9635    0.5137 C   0  0  0  0  0  0  0  0  0  0  0  0
   -1.5419    4.9537    0.7605 N   0  0  0  0  0  0  0  0  0  0  0  0
   -0.2594    5.2779    1.1314 N   0  0  0  0  0  0  0  0  0  0  0  0
    0.6471    4.2953    1.3577 C   0  0  0  0  0  0  0  0  0  0  0  0
    0.3554    3.1146    1.2255 O   0  0  0  0  0  0  0  0  0  0  0  0
    2.0508    4.7820    1.7544 C   0  0  2  0  0  0  0  0  0  0  0  0
    2.4317    5.3984    0.9223 H   0  0  0  0  0  0  0  0  0  0  0  0
    2.9935    3.5795    1.9934 C   0  0  0  0  0  0  0  0  0  0  0  0
    2.6502    2.9620    3.3518 C   0  0  0  0  0  0  0  0  0  0  0  0
    2.0563    4.3536    4.4067 S   0  0  2  0  0  0  0  0  0  0  0  0
    3.0688    4.7093    5.4085 O   0  0  0  0  0  0  0  0  0  0  0  0
    0.6599    4.1071    4.7924 O   0  0  0  0  0  0  0  0  0  0  0  0
    2.0706    5.6045    3.0505 C   0  0  0  0  0  0  0  0  0  0  0  0
   -3.7766    5.4983    0.1397 C   0  0  0  0  0  0  0  0  0  0  0  0
   -4.8110    6.3531   -0.1530 C   0  0  0  0  0  0  0  0  0  0  0  0
   -6.2228    5.4437   -0.5340 S   0  0  0  0  0  0  0  0  0  0  0  0
   -5.3095    3.9509   -0.2712 C   0  0  0  0  0  0  0  0  0  0  0  0
   -5.9022    2.6325   -0.4206 C   0  0  0  0  0  0  0  0  0  0  0  0
   -5.2712    1.4216   -0.2001 C   0  0  0  0  0  0  0  0  0  0  0  0
   -6.1195    0.3050   -0.4308 C   0  0  0  0  0  0  0  0  0  0  0  0
   -7.3845    0.6718   -0.8238 C   0  0  0  0  0  0  0  0  0  0  0  0
   -7.5582    2.3870   -0.9186 S   0  0  0  0  0  0  0  0  0  0  0  0
   -4.0653    4.1618    0.0702 N   0  0  0  0  0  0  0  0  0  0  0  0
   -1.7702    3.9632    0.7232 H   0  0  0  0  0  0  0  0  0  0  0  0
   -0.1079    6.2828    1.1862 H   0  0  0  0  0  0  0  0  0  0  0  0
    4.0337    3.9407    1.9877 H   0  0  0  0  0  0  0  0  0  0  0  0
    2.8809    2.8376    1.1917 H   0  0  0  0  0  0  0  0  0  0  0  0
    3.5006    2.5092    3.8772 H   0  0  0  0  0  0  0  0  0  0  0  0
    1.8073    2.2625    3.2870 H   0  0  0  0  0  0  0  0  0  0  0  0
    3.0030    6.1748    3.1625 H   0  0  0  0  0  0  0  0  0  0  0  0
    1.2045    6.2572    3.2205 H   0  0  0  0  0  0  0  0  0  0  0  0
   -4.7882    7.4406   -0.1547 H   0  0  0  0  0  0  0  0  0  0  0  0
   -4.2311    1.3605    0.1194 H   0  0  0  0  0  0  0  0  0  0  0  0
   -5.8072   -0.7332   -0.3099 H   0  0  0  0  0  0  0  0  0  0  0  0
   -8.2303    0.0292   -1.0646 H   0  0  0  0  0  0  0  0  0  0  0  0
  1  2  2  0
  2  3  1  0
  2 15  1  0
  3  4  1  0
  3 25  1  0
  4  5  1  0
  4 26  1  0
  5  6  2  0
  5  7  1  0
  7  8  1  6
  7  9  1  0
  7 14  1  0
  9 10  1  0
  9 27  1  0
  9 28  1  0
 11 10  1  6
 10 29  1  0
 10 30  1  0
 11 12  2  0
 11 13  2  0
 11 14  1  0
 14 31  1  0
 14 32  1  0
 15 16  2  0
 15 24  1  0
 16 17  1  0
 16 33  1  0
 17 18  1  0
 18 19  1  0
 18 24  2  0
 19 20  2  0
 19 23  1  0
 20 21  1  0
 20 34  1  0
 21 22  2  0
 21 35  1  0
 22 23  1  0
 22 36  1  0
M  END

