
     RDKit          3D

 46 46  0  0  0  0  0  0  0  0999 V2000
    2.1697   -5.5735    0.9075 C   0  0  0  0  0  0  0  0  0  0  0  0
    3.4901   -4.8480    0.6498 C   0  0  0  0  0  0  0  0  0  0  0  0
    3.4465   -3.9183   -0.5630 C   0  0  0  0  0  0  0  0  0  0  0  0
    4.7114   -3.2250   -0.7481 N   0  0  0  0  0  0  0  0  0  0  0  0
    4.7913   -2.3156   -1.8941 C   0  0  1  0  0  0  0  0  0  0  0  0
    4.0485   -1.0080   -1.5952 C   0  0  0  0  0  0  0  0  0  0  0  0
    6.2654   -2.0299   -2.2237 C   0  0  0  0  0  0  0  0  0  0  0  0
    7.0582   -3.1910   -2.8746 C   0  0  1  0  0  0  0  0  0  0  0  0
    6.7041   -3.2881   -4.3613 C   0  0  0  0  0  0  0  0  0  0  0  0
    8.4991   -2.9897   -2.6349 N   0  0  0  0  0  0  0  0  0  0  0  0
    8.9349   -3.3152   -1.2780 C   0  0  0  0  0  0  0  0  0  0  0  0
    9.2209   -4.8129   -1.0647 C   0  0  0  0  0  0  0  0  0  0  0  0
   10.2321   -5.3264   -2.0960 C   0  0  0  0  0  0  0  0  0  0  0  0
    9.7990   -4.9771   -3.5296 C   0  0  2  0  0  0  0  0  0  0  0  0
   10.8483   -5.3786   -4.5674 C   0  0  0  0  0  0  0  0  0  0  0  0
    9.4743   -3.4680   -3.6080 C   0  0  0  0  0  0  0  0  0  0  0  0
    2.2397   -6.2365    1.7842 H   0  0  0  0  0  0  0  0  0  0  0  0
    1.8738   -6.1942    0.0450 H   0  0  0  0  0  0  0  0  0  0  0  0
    1.3500   -4.8601    1.0963 H   0  0  0  0  0  0  0  0  0  0  0  0
    4.2964   -5.5915    0.5040 H   0  0  0  0  0  0  0  0  0  0  0  0
    3.7819   -4.2530    1.5318 H   0  0  0  0  0  0  0  0  0  0  0  0
    2.6481   -3.1716   -0.4089 H   0  0  0  0  0  0  0  0  0  0  0  0
    3.1402   -4.5023   -1.4639 H   0  0  0  0  0  0  0  0  0  0  0  0
    5.4561   -3.9174   -0.8102 H   0  0  0  0  0  0  0  0  0  0  0  0
    4.3099   -2.7723   -2.7906 H   0  0  0  0  0  0  0  0  0  0  0  0
    4.5182   -0.4907   -0.7431 H   0  0  0  0  0  0  0  0  0  0  0  0
    2.9923   -1.1856   -1.3405 H   0  0  0  0  0  0  0  0  0  0  0  0
    4.0697   -0.3376   -2.4692 H   0  0  0  0  0  0  0  0  0  0  0  0
    6.7537   -1.7235   -1.2855 H   0  0  0  0  0  0  0  0  0  0  0  0
    6.3318   -1.1599   -2.8978 H   0  0  0  0  0  0  0  0  0  0  0  0
    6.7198   -4.1464   -2.4109 H   0  0  0  0  0  0  0  0  0  0  0  0
    7.0546   -2.3982   -4.9090 H   0  0  0  0  0  0  0  0  0  0  0  0
    5.6116   -3.3415   -4.4783 H   0  0  0  0  0  0  0  0  0  0  0  0
    7.1262   -4.1823   -4.8430 H   0  0  0  0  0  0  0  0  0  0  0  0
    8.1838   -2.9649   -0.5540 H   0  0  0  0  0  0  0  0  0  0  0  0
    9.8589   -2.7443   -1.0648 H   0  0  0  0  0  0  0  0  0  0  0  0
    8.2805   -5.3869   -1.1526 H   0  0  0  0  0  0  0  0  0  0  0  0
    9.5906   -4.9798   -0.0383 H   0  0  0  0  0  0  0  0  0  0  0  0
   10.3809   -6.4154   -1.9921 H   0  0  0  0  0  0  0  0  0  0  0  0
   11.2174   -4.8595   -1.9025 H   0  0  0  0  0  0  0  0  0  0  0  0
    8.8674   -5.5345   -3.7467 H   0  0  0  0  0  0  0  0  0  0  0  0
   11.7927   -4.8296   -4.4083 H   0  0  0  0  0  0  0  0  0  0  0  0
   10.5075   -5.1617   -5.5934 H   0  0  0  0  0  0  0  0  0  0  0  0
   11.0787   -6.4551   -4.5119 H   0  0  0  0  0  0  0  0  0  0  0  0
    9.1596   -3.1983   -4.6254 H   0  0  0  0  0  0  0  0  0  0  0  0
   10.4164   -2.9122   -3.4295 H   0  0  0  0  0  0  0  0  0  0  0  0
  1  2  1  0
  1 17  1  0
  1 18  1  0
  1 19  1  0
  2  3  1  0
  2 20  1  0
  2 21  1  0
  3  4  1  0
  3 22  1  0
  3 23  1  0
  4  5  1  0
  4 24  1  0
  5  6  1  0
  5  7  1  0
  5 25  1  6
  6 26  1  0
  6 27  1  0
  6 28  1  0
  7  8  1  0
  7 29  1  0
  7 30  1  0
  8  9  1  0
  8 10  1  0
  8 31  1  1
  9 32  1  0
  9 33  1  0
  9 34  1  0
 10 11  1  0
 10 16  1  0
 11 12  1  0
 11 35  1  0
 11 36  1  0
 12 13  1  0
 12 37  1  0
 12 38  1  0
 13 14  1  0
 13 39  1  0
 13 40  1  0
 14 15  1  0
 14 16  1  0
 14 41  1  6
 15 42  1  0
 15 43  1  0
 15 44  1  0
 16 45  1  0
 16 46  1  0
M  END

