
     RDKit          3D

 41 42  0  0  0  0  0  0  0  0999 V2000
    4.8113   -0.2128    0.1241 O   0  0  0  0  0  0  0  0  0  0  0  0
    4.1178    0.7731    0.0831 C   0  0  0  0  0  0  0  0  0  0  0  0
    2.8403    0.6763   -0.3436 O   0  0  0  0  0  0  0  0  0  0  0  0
    4.5802    2.1436    0.5519 C   0  0  0  0  0  0  0  0  0  0  0  0
    4.4368    2.3332    2.0789 C   0  0  0  0  0  0  0  0  0  0  0  0
    5.0514    1.1987    2.9199 C   0  0  0  0  0  0  0  0  0  0  0  0
    6.3891    0.8087    2.5223 N   0  0  0  0  0  0  0  0  0  0  0  0
    7.4729    1.5831    2.8843 C   0  0  0  0  0  0  0  0  0  0  0  0
    7.3713    2.5628    3.6156 O   0  0  0  0  0  0  0  0  0  0  0  0
    8.6871    1.1741    2.3827 N   0  0  0  0  0  0  0  0  0  0  0  0
    9.9040    1.9298    2.6953 C   0  0  0  0  0  0  0  0  0  0  0  0
   10.9636    1.2631    1.8147 C   0  0  0  0  0  0  0  0  0  0  0  0
   10.4831   -0.1835    1.7201 C   0  0  2  0  0  0  0  0  0  0  0  0
   11.0536   -0.8306    0.5860 O   0  0  0  0  0  0  0  0  0  0  0  0
   11.1976   -2.1875    0.6165 C   0  0  0  0  0  0  0  0  0  0  0  0
   10.3515   -2.9882   -0.1624 C   0  0  0  0  0  0  0  0  0  0  0  0
   10.5111   -4.3747   -0.2009 C   0  0  0  0  0  0  0  0  0  0  0  0
   11.5224   -4.9822    0.5487 C   0  0  0  0  0  0  0  0  0  0  0  0
   12.3789   -4.1999    1.3269 C   0  0  0  0  0  0  0  0  0  0  0  0
   12.2199   -2.8120    1.3583 C   0  0  0  0  0  0  0  0  0  0  0  0
   13.3257   -1.8419    2.3061 Cl  0  0  0  0  0  0  0  0  0  0  0  0
    8.9497   -0.0455    1.6320 C   0  0  0  0  0  0  0  0  0  0  0  0
    2.4137    1.5447   -0.3300 H   0  0  0  0  0  0  0  0  0  0  0  0
    4.0406    2.9476    0.0232 H   0  0  0  0  0  0  0  0  0  0  0  0
    5.6408    2.2288    0.2752 H   0  0  0  0  0  0  0  0  0  0  0  0
    3.3711    2.4337    2.3506 H   0  0  0  0  0  0  0  0  0  0  0  0
    4.9289    3.2806    2.3475 H   0  0  0  0  0  0  0  0  0  0  0  0
    4.4163    0.3004    2.8709 H   0  0  0  0  0  0  0  0  0  0  0  0
    5.0843    1.5252    3.9694 H   0  0  0  0  0  0  0  0  0  0  0  0
    6.4433    0.1902    1.7189 H   0  0  0  0  0  0  0  0  0  0  0  0
   10.1500    1.8505    3.7700 H   0  0  0  0  0  0  0  0  0  0  0  0
    9.7662    3.0004    2.4817 H   0  0  0  0  0  0  0  0  0  0  0  0
   11.9836    1.3407    2.2156 H   0  0  0  0  0  0  0  0  0  0  0  0
   10.9612    1.6907    0.7985 H   0  0  0  0  0  0  0  0  0  0  0  0
   10.7551   -0.7321    2.6369 H   0  0  0  0  0  0  0  0  0  0  0  0
    9.5725   -2.4917   -0.7450 H   0  0  0  0  0  0  0  0  0  0  0  0
    9.8419   -4.9803   -0.8166 H   0  0  0  0  0  0  0  0  0  0  0  0
   11.6532   -6.0666    0.5260 H   0  0  0  0  0  0  0  0  0  0  0  0
   13.1819   -4.6540    1.9100 H   0  0  0  0  0  0  0  0  0  0  0  0
    8.4231   -0.9122    2.0650 H   0  0  0  0  0  0  0  0  0  0  0  0
    8.6561    0.0350    0.5665 H   0  0  0  0  0  0  0  0  0  0  0  0
  1  2  2  0
  2  3  1  0
  2  4  1  0
  3 23  1  0
  4  5  1  0
  4 24  1  0
  4 25  1  0
  5  6  1  0
  5 26  1  0
  5 27  1  0
  6  7  1  0
  6 28  1  0
  6 29  1  0
  7  8  1  0
  7 30  1  0
  8  9  2  0
  8 10  1  0
 10 11  1  0
 10 22  1  0
 11 12  1  0
 11 31  1  0
 11 32  1  0
 12 13  1  0
 12 33  1  0
 12 34  1  0
 13 14  1  0
 13 22  1  0
 13 35  1  1
 14 15  1  0
 15 16  2  0
 15 20  1  0
 16 17  1  0
 16 36  1  0
 17 18  2  0
 17 37  1  0
 18 19  1  0
 18 38  1  0
 19 20  2  0
 19 39  1  0
 20 21  1  0
 22 40  1  0
 22 41  1  0
M  END

