
     RDKit          3D

 30 31  0  0  0  0  0  0  0  0999 V2000
    1.0977   -0.2062   -0.5702 N   0  0  0  0  0  0  0  0  0  0  0  0
    2.2407   -0.1087   -0.3842 C   0  0  0  0  0  0  0  0  0  0  0  0
    3.6473   -0.0640   -0.1243 C   0  0  0  0  0  0  0  0  0  0  0  0
    4.3845    1.0906   -0.5342 C   0  0  0  0  0  0  0  0  0  0  0  0
    4.9958    2.0171   -0.8773 N   0  0  0  0  0  0  0  0  0  0  0  0
    4.2672   -1.1263    0.5015 C   0  0  0  0  0  0  0  0  0  0  0  0
    3.5690   -2.2393    0.8712 N   0  0  0  0  0  0  0  0  0  0  0  0
    4.0538   -3.4546    1.3956 C   0  0  0  0  0  0  0  0  0  0  0  0
    3.2739   -4.3503    1.6050 O   0  0  0  0  0  0  0  0  0  0  0  0
    5.5516   -3.5458    1.6507 C   0  0  2  0  0  0  0  0  0  0  0  0
    5.8931   -3.4867    3.1419 C   0  0  0  0  0  0  0  0  0  0  0  0
    5.0302   -2.9444    4.1034 C   0  0  0  0  0  0  0  0  0  0  0  0
    5.4016   -2.9022    5.4504 C   0  0  0  0  0  0  0  0  0  0  0  0
    6.6397   -3.4040    5.8556 C   0  0  0  0  0  0  0  0  0  0  0  0
    7.5054   -3.9552    4.9057 C   0  0  0  0  0  0  0  0  0  0  0  0
    7.1318   -3.9985    3.5618 C   0  0  0  0  0  0  0  0  0  0  0  0
    6.3338   -2.5451    0.7736 C   0  0  0  0  0  0  0  0  0  0  0  0
    5.7582   -1.1137    0.8084 C   0  0  2  0  0  0  0  0  0  0  0  0
    6.0179   -0.3943    2.0690 C   0  0  0  0  0  0  0  0  0  0  0  0
    6.2379    0.2059    3.0345 N   0  0  0  0  0  0  0  0  0  0  0  0
    2.5631   -2.2566    0.6904 H   0  0  0  0  0  0  0  0  0  0  0  0
    5.8130   -4.5604    1.3105 H   0  0  0  0  0  0  0  0  0  0  0  0
    4.0548   -2.5465    3.8142 H   0  0  0  0  0  0  0  0  0  0  0  0
    4.7169   -2.4711    6.1845 H   0  0  0  0  0  0  0  0  0  0  0  0
    6.9289   -3.3696    6.9087 H   0  0  0  0  0  0  0  0  0  0  0  0
    8.4729   -4.3598    5.2130 H   0  0  0  0  0  0  0  0  0  0  0  0
    7.8118   -4.4442    2.8293 H   0  0  0  0  0  0  0  0  0  0  0  0
    6.3006   -2.8810   -0.2756 H   0  0  0  0  0  0  0  0  0  0  0  0
    7.3907   -2.5218    1.0723 H   0  0  0  0  0  0  0  0  0  0  0  0
    6.2499   -0.5172    0.0231 H   0  0  0  0  0  0  0  0  0  0  0  0
  1  2  3  0
  2  3  1  0
  3  4  1  0
  3  6  2  0
  4  5  3  0
  6  7  1  0
  6 18  1  0
  7  8  1  0
  7 21  1  0
  8  9  2  0
  8 10  1  0
 10 11  1  0
 10 17  1  0
 10 22  1  6
 11 12  2  0
 11 16  1  0
 12 13  1  0
 12 23  1  0
 13 14  2  0
 13 24  1  0
 14 15  1  0
 14 25  1  0
 15 16  2  0
 15 26  1  0
 16 27  1  0
 17 18  1  0
 17 28  1  0
 17 29  1  0
 18 19  1  0
 18 30  1  6
 19 20  3  0
M  END

