
     RDKit          3D

 50 53  0  0  0  0  0  0  0  0999 V2000
    2.9183    0.8981   -1.4362 O   0  0  0  0  0  0  0  0  0  0  0  0
    2.5392    0.2812   -0.4443 C   0  0  0  0  0  0  0  0  0  0  0  0
    1.9980   -0.9607   -0.5105 N   0  0  0  0  0  0  0  0  0  0  0  0
    1.9171   -1.6863   -1.7623 C   0  0  0  0  0  0  0  0  0  0  0  0
    3.1254   -2.5783   -2.0114 C   0  0  0  0  0  0  0  0  0  0  0  0
    4.2102   -2.0693   -2.7412 C   0  0  0  0  0  0  0  0  0  0  0  0
    5.3622   -2.8292   -2.9618 C   0  0  0  0  0  0  0  0  0  0  0  0
    5.4601   -4.1248   -2.4494 C   0  0  0  0  0  0  0  0  0  0  0  0
    4.3997   -4.6571   -1.7139 C   0  0  0  0  0  0  0  0  0  0  0  0
    3.2479   -3.8896   -1.5061 C   0  0  0  0  0  0  0  0  0  0  0  0
    1.9687   -4.6420   -0.4822 S   0  0  1  0  0  0  0  0  0  0  0  0
    2.4727   -5.9399   -0.0198 O   0  0  0  0  0  0  0  0  0  0  0  0
    1.4856   -3.6608    0.5010 O   0  0  0  0  0  0  0  0  0  0  0  0
    0.6819   -4.8631   -1.5819 N   0  0  0  0  0  0  0  0  0  0  0  0
   -0.6540   -4.9113   -0.9607 C   0  0  0  0  0  0  0  0  0  0  0  0
   -1.6997   -4.8780   -2.0721 C   0  0  0  0  0  0  0  0  0  0  0  0
   -1.5093   -5.9287   -2.9958 O   0  0  0  0  0  0  0  0  0  0  0  0
   -0.2347   -5.8727   -3.5974 C   0  0  0  0  0  0  0  0  0  0  0  0
    0.8817   -5.9460   -2.5562 C   0  0  0  0  0  0  0  0  0  0  0  0
    2.6279    0.8547    0.9590 C   0  0  0  0  0  0  0  0  0  0  0  0
    2.2976    0.0248    1.9072 N   0  0  0  0  0  0  0  0  0  0  0  0
    2.3493    0.4164    3.1764 N   0  0  0  0  0  0  0  0  0  0  0  0
    2.0840   -0.2850    3.8650 H   0  0  0  0  0  0  0  0  0  0  0  0
    2.7254    1.6649    3.6737 C   0  0  0  0  0  0  0  0  0  0  0  0
    2.7252    1.8821    4.8719 O   0  0  0  0  0  0  0  0  0  0  0  0
    3.0967    2.6165    2.6109 C   0  0  0  0  0  0  0  0  0  0  0  0
    3.4900    3.9140    2.9762 C   0  0  0  0  0  0  0  0  0  0  0  0
    3.8435    4.8317    1.9960 C   0  0  0  0  0  0  0  0  0  0  0  0
    3.8057    4.4545    0.6424 C   0  0  0  0  0  0  0  0  0  0  0  0
    3.4198    3.1738    0.2642 C   0  0  0  0  0  0  0  0  0  0  0  0
    3.0549    2.2234    1.2464 C   0  0  0  0  0  0  0  0  0  0  0  0
    1.8056   -1.4662    0.3516 H   0  0  0  0  0  0  0  0  0  0  0  0
    1.8582   -0.9432   -2.5684 H   0  0  0  0  0  0  0  0  0  0  0  0
    0.9958   -2.2817   -1.7726 H   0  0  0  0  0  0  0  0  0  0  0  0
    4.1441   -1.0471   -3.1211 H   0  0  0  0  0  0  0  0  0  0  0  0
    6.1899   -2.4022   -3.5337 H   0  0  0  0  0  0  0  0  0  0  0  0
    6.3604   -4.7211   -2.6149 H   0  0  0  0  0  0  0  0  0  0  0  0
    4.4512   -5.6601   -1.2878 H   0  0  0  0  0  0  0  0  0  0  0  0
   -0.7705   -4.0480   -0.2920 H   0  0  0  0  0  0  0  0  0  0  0  0
   -0.7814   -5.8348   -0.3628 H   0  0  0  0  0  0  0  0  0  0  0  0
   -1.6585   -3.8967   -2.5879 H   0  0  0  0  0  0  0  0  0  0  0  0
   -2.7055   -5.0025   -1.6434 H   0  0  0  0  0  0  0  0  0  0  0  0
   -0.1244   -4.9397   -4.1873 H   0  0  0  0  0  0  0  0  0  0  0  0
   -0.1627   -6.7289   -4.2849 H   0  0  0  0  0  0  0  0  0  0  0  0
    1.8572   -5.8207   -3.0508 H   0  0  0  0  0  0  0  0  0  0  0  0
    0.8719   -6.9333   -2.0578 H   0  0  0  0  0  0  0  0  0  0  0  0
    3.5054    4.1663    4.0382 H   0  0  0  0  0  0  0  0  0  0  0  0
    4.1499    5.8430    2.2747 H   0  0  0  0  0  0  0  0  0  0  0  0
    4.0843    5.1774   -0.1288 H   0  0  0  0  0  0  0  0  0  0  0  0
    3.3937    2.8758   -0.7817 H   0  0  0  0  0  0  0  0  0  0  0  0
  1  2  2  0
  2  3  1  0
  2 20  1  0
  3  4  1  0
  3 32  1  0
  4  5  1  0
  4 33  1  0
  4 34  1  0
  5  6  2  0
  5 10  1  0
  6  7  1  0
  6 35  1  0
  7  8  2  0
  7 36  1  0
  8  9  1  0
  8 37  1  0
  9 10  2  0
  9 38  1  0
 11 10  1  6
 11 12  2  0
 11 13  2  0
 11 14  1  0
 14 15  1  0
 14 19  1  0
 15 16  1  0
 15 39  1  0
 15 40  1  0
 16 17  1  0
 16 41  1  0
 16 42  1  0
 17 18  1  0
 18 19  1  0
 18 43  1  0
 18 44  1  0
 19 45  1  0
 19 46  1  0
 20 21  2  0
 20 31  1  0
 21 22  1  0
 22 23  1  0
 22 24  1  0
 24 25  2  0
 24 26  1  0
 26 27  1  0
 26 31  2  0
 27 28  2  0
 27 47  1  0
 28 29  1  0
 28 48  1  0
 29 30  2  0
 29 49  1  0
 30 31  1  0
 30 50  1  0
M  END

