
     RDKit          3D

 45 48  0  0  0  0  0  0  0  0999 V2000
    2.5051   -1.3077   -1.0925 O   0  0  0  0  0  0  0  0  0  0  0  0
    2.0090   -0.3211   -0.5673 C   0  0  0  0  0  0  0  0  0  0  0  0
    0.9274   -0.3616    0.2763 N   0  0  0  0  0  0  0  0  0  0  0  0
    0.2433   -1.5016    0.7163 C   0  0  0  0  0  0  0  0  0  0  0  0
    0.3997   -2.7760    0.1339 C   0  0  0  0  0  0  0  0  0  0  0  0
   -0.3123   -3.8790    0.6018 C   0  0  0  0  0  0  0  0  0  0  0  0
   -1.2030   -3.7360    1.6670 C   0  0  0  0  0  0  0  0  0  0  0  0
   -2.1007   -5.1157    2.2559 Cl  0  0  0  0  0  0  0  0  0  0  0  0
   -1.3805   -2.4910    2.2717 C   0  0  0  0  0  0  0  0  0  0  0  0
   -0.6602   -1.3945    1.7994 C   0  0  0  0  0  0  0  0  0  0  0  0
   -0.8911    0.1481    2.5988 Cl  0  0  0  0  0  0  0  0  0  0  0  0
    2.6344    1.0381   -0.7889 C   0  0  0  0  0  0  0  0  0  0  0  0
    3.8616    1.0428   -1.3852 C   0  0  0  0  0  0  0  0  0  0  0  0
    4.5887    2.2605   -1.6274 C   0  0  0  0  0  0  0  0  0  0  0  0
    5.8554    2.3242   -2.2359 C   0  0  0  0  0  0  0  0  0  0  0  0
    6.5066    3.5394   -2.4216 C   0  0  0  0  0  0  0  0  0  0  0  0
    5.8952    4.7325   -1.9931 C   0  0  0  0  0  0  0  0  0  0  0  0
    6.4768    5.9425   -2.1439 O   0  0  0  0  0  0  0  0  0  0  0  0
    4.6321    4.7001   -1.3824 C   0  0  0  0  0  0  0  0  0  0  0  0
    3.9997    3.4748   -1.2114 C   0  0  0  0  0  0  0  0  0  0  0  0
    2.7720    3.4703   -0.6180 O   0  0  0  0  0  0  0  0  0  0  0  0
    2.0311    2.3128   -0.4238 C   0  0  0  0  0  0  0  0  0  0  0  0
    0.8438    2.4525    0.0579 N   0  0  0  0  0  0  0  0  0  0  0  0
    0.4078    3.6886    0.3535 N   0  0  0  0  0  0  0  0  0  0  0  0
   -0.9206    3.9659    0.6581 C   0  0  0  0  0  0  0  0  0  0  0  0
   -1.2628    5.2817    1.0293 C   0  0  0  0  0  0  0  0  0  0  0  0
   -2.5832    5.6050    1.3369 C   0  0  0  0  0  0  0  0  0  0  0  0
   -3.5856    4.6299    1.2874 C   0  0  0  0  0  0  0  0  0  0  0  0
   -3.2439    3.3253    0.9169 C   0  0  0  0  0  0  0  0  0  0  0  0
   -1.9284    2.9867    0.5970 C   0  0  0  0  0  0  0  0  0  0  0  0
    0.6028    0.5445    0.6259 H   0  0  0  0  0  0  0  0  0  0  0  0
    1.1013   -2.8836   -0.6891 H   0  0  0  0  0  0  0  0  0  0  0  0
   -0.1754   -4.8552    0.1342 H   0  0  0  0  0  0  0  0  0  0  0  0
   -2.0680   -2.3690    3.1082 H   0  0  0  0  0  0  0  0  0  0  0  0
    4.2890    0.0807   -1.6747 H   0  0  0  0  0  0  0  0  0  0  0  0
    6.3295    1.3964   -2.5651 H   0  0  0  0  0  0  0  0  0  0  0  0
    7.4909    3.5722   -2.8973 H   0  0  0  0  0  0  0  0  0  0  0  0
    7.3362    5.8430   -2.5753 H   0  0  0  0  0  0  0  0  0  0  0  0
    4.1597    5.6256   -1.0526 H   0  0  0  0  0  0  0  0  0  0  0  0
    1.0464    4.4671    0.2174 H   0  0  0  0  0  0  0  0  0  0  0  0
   -0.4839    6.0485    1.0795 H   0  0  0  0  0  0  0  0  0  0  0  0
   -2.8294    6.6312    1.6226 H   0  0  0  0  0  0  0  0  0  0  0  0
   -4.6191    4.8847    1.5321 H   0  0  0  0  0  0  0  0  0  0  0  0
   -4.0154    2.5520    0.8686 H   0  0  0  0  0  0  0  0  0  0  0  0
   -1.6724    1.9710    0.3010 H   0  0  0  0  0  0  0  0  0  0  0  0
  1  2  2  0
  2  3  1  0
  2 12  1  0
  3  4  1  0
  3 31  1  0
  4  5  2  0
  4 10  1  0
  5  6  1  0
  5 32  1  0
  6  7  2  0
  6 33  1  0
  7  8  1  0
  7  9  1  0
  9 10  2  0
  9 34  1  0
 10 11  1  0
 12 13  2  0
 12 22  1  0
 13 14  1  0
 13 35  1  0
 14 15  2  0
 14 20  1  0
 15 16  1  0
 15 36  1  0
 16 17  2  0
 16 37  1  0
 17 18  1  0
 17 19  1  0
 18 38  1  0
 19 20  2  0
 19 39  1  0
 20 21  1  0
 21 22  1  0
 22 23  2  0
 23 24  1  0
 24 25  1  0
 24 40  1  0
 25 26  2  0
 25 30  1  0
 26 27  1  0
 26 41  1  0
 27 28  2  0
 27 42  1  0
 28 29  1  0
 28 43  1  0
 29 30  2  0
 29 44  1  0
 30 45  1  0
M  END

