
     RDKit          3D

 38 38  0  0  0  0  0  0  0  0999 V2000
    0.9429   -1.2745    2.2291 C   0  0  0  0  0  0  0  0  0  0  0  0
    2.3804   -0.7525    2.2263 C   0  0  0  0  0  0  0  0  0  0  0  0
    3.1995   -1.1025    0.9676 C   0  0  1  0  0  0  0  0  0  0  0  0
    2.7388   -0.2894   -0.2603 C   0  0  0  0  0  0  0  0  0  0  0  0
    3.1733   -0.8789   -1.5957 C   0  0  0  0  0  0  0  0  0  0  0  0
    2.5734    0.1153   -2.9877 Cl  0  0  0  0  0  0  0  0  0  0  0  0
    4.7055   -0.9194    1.2305 C   0  0  0  0  0  0  0  0  0  0  0  0
    5.1971   -1.8335    2.2437 N   0  0  0  0  0  0  0  0  0  0  0  0
    6.5892   -1.6476    2.6046 C   0  0  0  0  0  0  0  0  0  0  0  0
    7.0911   -2.7892    3.4624 C   0  0  0  0  0  0  0  0  0  0  0  0
    7.8470   -2.5770    4.6150 C   0  0  0  0  0  0  0  0  0  0  0  0
    8.3070   -3.6949    5.3289 C   0  0  0  0  0  0  0  0  0  0  0  0
    7.9967   -4.9699    4.8819 C   0  0  0  0  0  0  0  0  0  0  0  0
    7.2190   -5.0758    3.7095 C   0  0  0  0  0  0  0  0  0  0  0  0
    6.9212   -6.3177    3.2848 O   0  0  0  0  0  0  0  0  0  0  0  0
    6.1436   -6.4586    2.1061 C   0  0  0  0  0  0  0  0  0  0  0  0
    6.7879   -4.0258    3.0266 N   0  0  0  0  0  0  0  0  0  0  0  0
    0.4237   -0.9958    3.1600 H   0  0  0  0  0  0  0  0  0  0  0  0
    0.9181   -2.3750    2.1552 H   0  0  0  0  0  0  0  0  0  0  0  0
    0.3458   -0.8742    1.3933 H   0  0  0  0  0  0  0  0  0  0  0  0
    2.9215   -1.1619    3.0935 H   0  0  0  0  0  0  0  0  0  0  0  0
    2.3800    0.3465    2.3511 H   0  0  0  0  0  0  0  0  0  0  0  0
    3.0325   -2.1770    0.7490 H   0  0  0  0  0  0  0  0  0  0  0  0
    3.1149    0.7456   -0.1819 H   0  0  0  0  0  0  0  0  0  0  0  0
    1.6400   -0.2165   -0.2678 H   0  0  0  0  0  0  0  0  0  0  0  0
    2.7674   -1.8907   -1.7392 H   0  0  0  0  0  0  0  0  0  0  0  0
    4.2651   -0.9252   -1.7029 H   0  0  0  0  0  0  0  0  0  0  0  0
    4.8763    0.1156    1.5823 H   0  0  0  0  0  0  0  0  0  0  0  0
    5.2725   -1.0059    0.2750 H   0  0  0  0  0  0  0  0  0  0  0  0
    5.0746   -2.8032    1.9503 H   0  0  0  0  0  0  0  0  0  0  0  0
    6.7116   -0.6952    3.1478 H   0  0  0  0  0  0  0  0  0  0  0  0
    7.2572   -1.5801    1.7108 H   0  0  0  0  0  0  0  0  0  0  0  0
    8.0699   -1.5630    4.9520 H   0  0  0  0  0  0  0  0  0  0  0  0
    8.9024   -3.5624    6.2361 H   0  0  0  0  0  0  0  0  0  0  0  0
    8.3243   -5.8741    5.3963 H   0  0  0  0  0  0  0  0  0  0  0  0
    6.0490   -7.5390    1.9343 H   0  0  0  0  0  0  0  0  0  0  0  0
    6.6315   -5.9806    1.2418 H   0  0  0  0  0  0  0  0  0  0  0  0
    5.1441   -6.0109    2.2282 H   0  0  0  0  0  0  0  0  0  0  0  0
  1  2  1  0
  1 18  1  0
  1 19  1  0
  1 20  1  0
  2  3  1  0
  2 21  1  0
  2 22  1  0
  3  4  1  0
  3  7  1  0
  3 23  1  6
  4  5  1  0
  4 24  1  0
  4 25  1  0
  5  6  1  0
  5 26  1  0
  5 27  1  0
  7  8  1  0
  7 28  1  0
  7 29  1  0
  8  9  1  0
  8 30  1  0
  9 10  1  0
  9 31  1  0
  9 32  1  0
 10 11  2  0
 10 17  1  0
 11 12  1  0
 11 33  1  0
 12 13  2  0
 12 34  1  0
 13 14  1  0
 13 35  1  0
 14 15  1  0
 14 17  2  0
 15 16  1  0
 16 36  1  0
 16 37  1  0
 16 38  1  0
M  END

