
     RDKit          3D

 40 39  0  0  0  0  0  0  0  0999 V2000
    1.7874   -0.3803    2.0728 C   0  0  0  0  0  0  0  0  0  0  0  0
    2.6682   -0.2033    1.0737 C   0  0  0  0  0  0  0  0  0  0  0  0
    3.4278   -1.2707    0.4357 C   0  0  0  0  0  0  0  0  0  0  0  0
    4.3064   -1.0855   -0.5676 C   0  0  0  0  0  0  0  0  0  0  0  0
    5.1074   -2.1625   -1.2374 C   0  0  0  0  0  0  0  0  0  0  0  0
    6.6287   -1.9691   -1.1051 C   0  0  0  0  0  0  0  0  0  0  0  0
    7.4464   -3.0427   -1.8284 C   0  0  0  0  0  0  0  0  0  0  0  0
    8.9611   -2.8573   -1.6994 C   0  0  0  0  0  0  0  0  0  0  0  0
    9.7807   -3.9314   -2.4205 C   0  0  0  0  0  0  0  0  0  0  0  0
   11.2951   -3.7448   -2.2919 C   0  0  0  0  0  0  0  0  0  0  0  0
   12.1155   -4.8187   -3.0122 C   0  0  0  0  0  0  0  0  0  0  0  0
   13.6275   -4.6231   -2.8780 C   0  0  0  0  0  0  0  0  0  0  0  0
   14.4424   -5.6955   -3.5969 C   0  0  0  0  0  0  0  0  0  0  0  0
   15.9488   -5.5060   -3.4673 C   0  0  0  0  0  0  0  0  0  0  0  0
   16.4762   -4.6122   -2.8661 O   0  0  0  0  0  0  0  0  0  0  0  0
   16.7013   -6.4436   -4.0957 O   0  0  0  0  0  0  0  0  0  0  0  0
    1.2455    0.4596    2.5143 H   0  0  0  0  0  0  0  0  0  0  0  0
    1.5808   -1.3750    2.4811 H   0  0  0  0  0  0  0  0  0  0  0  0
    2.8459    0.8106    0.6933 H   0  0  0  0  0  0  0  0  0  0  0  0
    3.2548   -2.2879    0.8117 H   0  0  0  0  0  0  0  0  0  0  0  0
    4.4720   -0.0618   -0.9317 H   0  0  0  0  0  0  0  0  0  0  0  0
    4.8534   -2.1866   -2.3151 H   0  0  0  0  0  0  0  0  0  0  0  0
    4.8211   -3.1481   -0.8311 H   0  0  0  0  0  0  0  0  0  0  0  0
    6.8978   -1.9559   -0.0337 H   0  0  0  0  0  0  0  0  0  0  0  0
    6.9044   -0.9724   -1.4964 H   0  0  0  0  0  0  0  0  0  0  0  0
    7.1690   -3.0529   -2.8991 H   0  0  0  0  0  0  0  0  0  0  0  0
    7.1662   -4.0391   -1.4385 H   0  0  0  0  0  0  0  0  0  0  0  0
    9.2373   -2.8454   -0.6287 H   0  0  0  0  0  0  0  0  0  0  0  0
    9.2414   -1.8614   -2.0901 H   0  0  0  0  0  0  0  0  0  0  0  0
    9.5040   -3.9437   -3.4914 H   0  0  0  0  0  0  0  0  0  0  0  0
    9.5009   -4.9274   -2.0292 H   0  0  0  0  0  0  0  0  0  0  0  0
   11.5728   -3.7326   -1.2217 H   0  0  0  0  0  0  0  0  0  0  0  0
   11.5760   -2.7497   -2.6835 H   0  0  0  0  0  0  0  0  0  0  0  0
   11.8385   -4.8316   -4.0832 H   0  0  0  0  0  0  0  0  0  0  0  0
   11.8359   -5.8148   -2.6202 H   0  0  0  0  0  0  0  0  0  0  0  0
   13.9157   -4.6122   -1.8135 H   0  0  0  0  0  0  0  0  0  0  0  0
   13.9183   -3.6340   -3.2698 H   0  0  0  0  0  0  0  0  0  0  0  0
   14.1926   -5.7198   -4.6747 H   0  0  0  0  0  0  0  0  0  0  0  0
   14.1902   -6.7020   -3.2121 H   0  0  0  0  0  0  0  0  0  0  0  0
   16.1349   -7.0946   -4.5338 H   0  0  0  0  0  0  0  0  0  0  0  0
  1  2  2  0
  1 17  1  0
  1 18  1  0
  2  3  1  0
  2 19  1  0
  3  4  2  0
  3 20  1  0
  4  5  1  0
  4 21  1  0
  5  6  1  0
  5 22  1  0
  5 23  1  0
  6  7  1  0
  6 24  1  0
  6 25  1  0
  7  8  1  0
  7 26  1  0
  7 27  1  0
  8  9  1  0
  8 28  1  0
  8 29  1  0
  9 10  1  0
  9 30  1  0
  9 31  1  0
 10 11  1  0
 10 32  1  0
 10 33  1  0
 11 12  1  0
 11 34  1  0
 11 35  1  0
 12 13  1  0
 12 36  1  0
 12 37  1  0
 13 14  1  0
 13 38  1  0
 13 39  1  0
 14 15  2  0
 14 16  1  0
 16 40  1  0
M  END

