
     RDKit          3D

 44 46  0  0  0  0  0  0  0  0999 V2000
    2.4469    0.2729   -1.2221 C   0  0  0  0  0  0  0  0  0  0  0  0
    2.5102    0.2376    0.3089 C   0  0  0  0  0  0  0  0  0  0  0  0
    3.0499   -1.0006    0.8645 N   0  0  0  0  0  0  0  0  0  0  0  0
    2.1530   -2.1363    1.1102 C   0  0  0  0  0  0  0  0  0  0  0  0
    0.6788   -1.7922    1.2955 C   0  0  0  0  0  0  0  0  0  0  0  0
    4.4152   -1.2158    0.8858 C   0  0  0  0  0  0  0  0  0  0  0  0
    5.3463   -0.1806    0.5883 C   0  0  0  0  0  0  0  0  0  0  0  0
    6.7123   -0.4042    0.6519 C   0  0  0  0  0  0  0  0  0  0  0  0
    7.2380   -1.6642    0.9981 C   0  0  0  0  0  0  0  0  0  0  0  0
    8.6247   -1.7743    1.0281 N   0  0  0  0  0  0  0  0  0  0  0  0
    9.0783   -2.9124    1.3440 N   0  0  0  0  0  0  0  0  0  0  0  0
   10.4609   -3.0122    1.3712 C   0  0  0  0  0  0  0  0  0  0  0  0
   11.3714   -2.1216    1.1261 N   0  0  0  0  0  0  0  0  0  0  0  0
   12.6302   -2.6459    1.2710 C   0  0  0  0  0  0  0  0  0  0  0  0
   13.8357   -1.9496    1.0797 C   0  0  0  0  0  0  0  0  0  0  0  0
   15.0528   -2.5988    1.2588 C   0  0  0  0  0  0  0  0  0  0  0  0
   15.0923   -3.9628    1.6344 C   0  0  0  0  0  0  0  0  0  0  0  0
   16.2416   -4.6606    1.8269 O   0  0  0  0  0  0  0  0  0  0  0  0
   17.4850   -4.0214    1.6510 C   0  0  0  0  0  0  0  0  0  0  0  0
   13.9047   -4.6812    1.8318 C   0  0  0  0  0  0  0  0  0  0  0  0
   12.6897   -4.0224    1.6501 C   0  0  0  0  0  0  0  0  0  0  0  0
   11.0644   -4.6331    1.8182 S   0  0  0  0  0  0  0  0  0  0  0  0
    6.3269   -2.7069    1.2742 C   0  0  0  0  0  0  0  0  0  0  0  0
    4.9610   -2.4943    1.2147 C   0  0  0  0  0  0  0  0  0  0  0  0
    2.0378    1.2361   -1.5679 H   0  0  0  0  0  0  0  0  0  0  0  0
    1.7995   -0.5283   -1.6134 H   0  0  0  0  0  0  0  0  0  0  0  0
    3.4447    0.1463   -1.6692 H   0  0  0  0  0  0  0  0  0  0  0  0
    1.5064    0.3940    0.7233 H   0  0  0  0  0  0  0  0  0  0  0  0
    3.1050    1.0831    0.6842 H   0  0  0  0  0  0  0  0  0  0  0  0
    2.4932   -2.6425    2.0276 H   0  0  0  0  0  0  0  0  0  0  0  0
    2.2497   -2.8834    0.2967 H   0  0  0  0  0  0  0  0  0  0  0  0
    0.5219   -1.0827    2.1231 H   0  0  0  0  0  0  0  0  0  0  0  0
    0.1358   -2.7167    1.5454 H   0  0  0  0  0  0  0  0  0  0  0  0
    0.2142   -1.3782    0.3880 H   0  0  0  0  0  0  0  0  0  0  0  0
    5.0003    0.8119    0.3064 H   0  0  0  0  0  0  0  0  0  0  0  0
    7.4196    0.3977    0.4290 H   0  0  0  0  0  0  0  0  0  0  0  0
   13.7978   -0.8977    0.7901 H   0  0  0  0  0  0  0  0  0  0  0  0
   15.9776   -2.0427    1.1060 H   0  0  0  0  0  0  0  0  0  0  0  0
   18.2557   -4.7761    1.8586 H   0  0  0  0  0  0  0  0  0  0  0  0
   17.6177   -3.1755    2.3497 H   0  0  0  0  0  0  0  0  0  0  0  0
   17.6177   -3.6520    0.6179 H   0  0  0  0  0  0  0  0  0  0  0  0
   13.9668   -5.7314    2.1211 H   0  0  0  0  0  0  0  0  0  0  0  0
    6.7254   -3.6900    1.5294 H   0  0  0  0  0  0  0  0  0  0  0  0
    4.3039   -3.3364    1.4219 H   0  0  0  0  0  0  0  0  0  0  0  0
  1  2  1  0
  1 25  1  0
  1 26  1  0
  1 27  1  0
  2  3  1  0
  2 28  1  0
  2 29  1  0
  3  4  1  0
  3  6  1  0
  4  5  1  0
  4 30  1  0
  4 31  1  0
  5 32  1  0
  5 33  1  0
  5 34  1  0
  6  7  2  0
  6 24  1  0
  7  8  1  0
  7 35  1  0
  8  9  2  0
  8 36  1  0
  9 10  1  0
  9 23  1  0
 10 11  2  0
 11 12  1  0
 12 13  2  0
 12 22  1  0
 13 14  1  0
 14 15  2  0
 14 21  1  0
 15 16  1  0
 15 37  1  0
 16 17  2  0
 16 38  1  0
 17 18  1  0
 17 20  1  0
 18 19  1  0
 19 39  1  0
 19 40  1  0
 19 41  1  0
 20 21  2  0
 20 42  1  0
 21 22  1  0
 23 24  2  0
 23 43  1  0
 24 44  1  0
M  END

