
     RDKit          3D

 41 43  0  0  0  0  0  0  0  0999 V2000
    1.7716   -1.7549    0.5933 C   0  0  0  0  0  0  0  0  0  0  0  0
    2.7113   -0.8683    0.2175 C   0  0  0  0  0  0  0  0  0  0  0  0
    3.5130   -0.2466    1.1597 N   0  0  0  0  0  0  0  0  0  0  0  0
    4.4130    0.6376    0.8778 C   0  0  0  0  0  0  0  0  0  0  0  0
    4.7213    1.1785   -0.4560 C   0  0  0  0  0  0  0  0  0  0  0  0
    5.7077    2.0423   -0.7420 C   0  0  0  0  0  0  0  0  0  0  0  0
    5.1342    1.1695    2.0864 C   0  0  0  0  0  0  0  0  0  0  0  0
    5.0637    2.4660    2.2949 N   0  0  0  0  0  0  0  0  0  0  0  0
    5.5148    2.9615    3.4768 C   0  0  0  0  0  0  0  0  0  0  0  0
    5.4509    4.3559    3.7389 C   0  0  0  0  0  0  0  0  0  0  0  0
    5.8582    4.8719    4.9564 C   0  0  0  0  0  0  0  0  0  0  0  0
    5.7941    6.3486    5.2546 C   0  0  0  0  0  0  0  0  0  0  0  0
    6.3473    3.9717    5.9523 C   0  0  0  0  0  0  0  0  0  0  0  0
    6.4316    2.6160    5.7257 C   0  0  0  0  0  0  0  0  0  0  0  0
    6.0248    2.0761    4.4747 C   0  0  0  0  0  0  0  0  0  0  0  0
    6.1522    0.7524    4.2193 N   0  0  0  0  0  0  0  0  0  0  0  0
    5.7552    0.2844    3.0522 C   0  0  0  0  0  0  0  0  0  0  0  0
    6.0089   -1.1519    2.7649 C   0  0  0  0  0  0  0  0  0  0  0  0
    6.1750   -2.0588    3.7539 C   0  0  0  0  0  0  0  0  0  0  0  0
    6.4631   -3.4953    3.4201 C   0  0  0  0  0  0  0  0  0  0  0  0
    5.9000   -3.8389    2.0358 C   0  0  0  0  0  0  0  0  0  0  0  0
    6.1903   -2.7162    1.0669 C   0  0  0  0  0  0  0  0  0  0  0  0
    6.2096   -1.4848    1.4039 N   0  0  0  0  0  0  0  0  0  0  0  0
    1.1349   -2.2491   -0.1438 H   0  0  0  0  0  0  0  0  0  0  0  0
    1.6281   -1.9861    1.6520 H   0  0  0  0  0  0  0  0  0  0  0  0
    2.8353   -0.6495   -0.8536 H   0  0  0  0  0  0  0  0  0  0  0  0
    4.0895    0.8296   -1.2761 H   0  0  0  0  0  0  0  0  0  0  0  0
    6.3726    2.4424    0.0253 H   0  0  0  0  0  0  0  0  0  0  0  0
    5.8710    2.3803   -1.7691 H   0  0  0  0  0  0  0  0  0  0  0  0
    5.0574    4.9995    2.9486 H   0  0  0  0  0  0  0  0  0  0  0  0
    5.3835    6.9160    4.4071 H   0  0  0  0  0  0  0  0  0  0  0  0
    6.7956    6.7526    5.4809 H   0  0  0  0  0  0  0  0  0  0  0  0
    5.1628    6.5496    6.1367 H   0  0  0  0  0  0  0  0  0  0  0  0
    6.6654    4.3779    6.9172 H   0  0  0  0  0  0  0  0  0  0  0  0
    6.8151    1.9270    6.4813 H   0  0  0  0  0  0  0  0  0  0  0  0
    6.1497   -1.7227    4.7923 H   0  0  0  0  0  0  0  0  0  0  0  0
    6.0431   -4.1663    4.1861 H   0  0  0  0  0  0  0  0  0  0  0  0
    7.5605   -3.6620    3.4442 H   0  0  0  0  0  0  0  0  0  0  0  0
    4.7986   -3.9463    2.0964 H   0  0  0  0  0  0  0  0  0  0  0  0
    6.2903   -4.7957    1.6565 H   0  0  0  0  0  0  0  0  0  0  0  0
    6.3797   -2.9592    0.0101 H   0  0  0  0  0  0  0  0  0  0  0  0
  1  2  2  0
  1 24  1  0
  1 25  1  0
  2  3  1  0
  2 26  1  0
  3  4  2  0
  4  5  1  0
  4  7  1  0
  5  6  2  0
  5 27  1  0
  6 28  1  0
  6 29  1  0
  7  8  2  0
  7 17  1  0
  8  9  1  0
  9 10  2  0
  9 15  1  0
 10 11  1  0
 10 30  1  0
 11 12  1  0
 11 13  2  0
 12 31  1  0
 12 32  1  0
 12 33  1  0
 13 14  1  0
 13 34  1  0
 14 15  2  0
 14 35  1  0
 15 16  1  0
 16 17  2  0
 17 18  1  0
 18 19  2  0
 18 23  1  0
 19 20  1  0
 19 36  1  0
 20 21  1  0
 20 37  1  0
 20 38  1  0
 21 22  1  0
 21 39  1  0
 21 40  1  0
 22 23  2  0
 22 41  1  0
M  END

