
     RDKit          3D

 27 29  0  0  0  0  0  0  0  0999 V2000
    1.1797    0.2104   -0.1444 O   0  0  0  0  0  0  0  0  0  0  0  0
    2.3850    0.1463   -0.1249 C   0  0  0  0  0  0  0  0  0  0  0  0
    3.1515   -1.0178   -0.2091 N   0  0  0  0  0  0  0  0  0  0  0  0
    4.5346   -0.7912   -0.1569 C   0  0  0  0  0  0  0  0  0  0  0  0
    5.3687   -1.6631   -0.2109 O   0  0  0  0  0  0  0  0  0  0  0  0
    4.6835    0.7023   -0.0160 C   0  0  0  0  0  0  0  0  0  0  0  0
    3.3901    1.2507   -0.0119 C   0  0  0  0  0  0  0  0  0  0  0  0
    3.1511    2.6152    0.0492 C   0  0  0  0  0  0  0  0  0  0  0  0
    4.2736    3.4535    0.0997 C   0  0  0  0  0  0  0  0  0  0  0  0
    5.5640    2.9205    0.0898 C   0  0  0  0  0  0  0  0  0  0  0  0
    5.8224    1.5284    0.0336 C   0  0  0  0  0  0  0  0  0  0  0  0
    7.2282    1.0503    0.0220 C   0  0  0  0  0  0  0  0  0  0  0  0
    7.6605   -0.0328    0.8070 C   0  0  0  0  0  0  0  0  0  0  0  0
    8.9961   -0.4285    0.8158 C   0  0  0  0  0  0  0  0  0  0  0  0
    9.9414    0.2435    0.0270 C   0  0  0  0  0  0  0  0  0  0  0  0
   11.2497   -0.1063   -0.0088 O   0  0  0  0  0  0  0  0  0  0  0  0
    9.5282    1.3258   -0.7646 C   0  0  0  0  0  0  0  0  0  0  0  0
    8.1939    1.7198   -0.7572 C   0  0  0  0  0  0  0  0  0  0  0  0
    2.7545   -1.9469   -0.3003 H   0  0  0  0  0  0  0  0  0  0  0  0
    2.1305    3.0032    0.0502 H   0  0  0  0  0  0  0  0  0  0  0  0
    4.1444    4.5374    0.1541 H   0  0  0  0  0  0  0  0  0  0  0  0
    6.4164    3.6010    0.1497 H   0  0  0  0  0  0  0  0  0  0  0  0
    6.9467   -0.5742    1.4269 H   0  0  0  0  0  0  0  0  0  0  0  0
    9.3100   -1.2705    1.4412 H   0  0  0  0  0  0  0  0  0  0  0  0
   11.4002   -0.8616    0.5751 H   0  0  0  0  0  0  0  0  0  0  0  0
   10.2678    1.8381   -1.3831 H   0  0  0  0  0  0  0  0  0  0  0  0
    7.8882    2.5560   -1.3910 H   0  0  0  0  0  0  0  0  0  0  0  0
  1  2  2  0
  2  3  1  0
  2  7  1  0
  3  4  1  0
  3 19  1  0
  4  5  2  0
  4  6  1  0
  6  7  2  0
  6 11  1  0
  7  8  1  0
  8  9  2  0
  8 20  1  0
  9 10  1  0
  9 21  1  0
 10 11  2  0
 10 22  1  0
 11 12  1  0
 12 13  2  0
 12 18  1  0
 13 14  1  0
 13 23  1  0
 14 15  2  0
 14 24  1  0
 15 16  1  0
 15 17  1  0
 16 25  1  0
 17 18  2  0
 17 26  1  0
 18 27  1  0
M  END

