
     RDKit          3D

 48 49  0  0  0  0  0  0  0  0999 V2000
    2.7993    1.5294    0.3598 C   0  0  0  0  0  0  0  0  0  0  0  0
    2.4399    0.3183    1.2291 C   0  0  1  0  0  0  0  0  0  0  0  0
    0.9191    0.1710    1.3634 C   0  0  0  0  0  0  0  0  0  0  0  0
    3.0687   -0.9943    0.7170 C   0  0  0  0  0  0  0  0  0  0  0  0
    4.5868   -1.0085    0.7210 C   0  0  1  0  0  0  0  0  0  0  0  0
    5.0260   -0.6805    1.6721 H   0  0  0  0  0  0  0  0  0  0  0  0
    5.3636   -2.1868    0.1438 C   0  0  2  0  0  0  0  0  0  0  0  0
    4.7980   -2.8804   -0.4868 H   0  0  0  0  0  0  0  0  0  0  0  0
    6.4627   -2.8153    0.9280 C   0  0  0  0  0  0  0  0  0  0  0  0
    7.0352   -2.2221    1.8389 O   0  0  0  0  0  0  0  0  0  0  0  0
    7.1072   -4.6181    0.5583 Si  0  0  1  0  0  4  0  0  0  0  0  0
    7.1564   -5.4934    2.2296 C   0  0  0  0  0  0  0  0  0  0  0  0
    6.0006   -5.5486   -0.6603 C   0  0  0  0  0  0  0  0  0  0  0  0
    8.8553   -4.4162   -0.1440 C   0  0  0  0  0  0  0  0  0  0  0  0
    9.7711   -3.5297    0.4602 C   0  0  0  0  0  0  0  0  0  0  0  0
   11.0727   -3.3923   -0.0295 C   0  0  0  0  0  0  0  0  0  0  0  0
   11.4894   -4.1378   -1.1374 C   0  0  0  0  0  0  0  0  0  0  0  0
   10.5964   -5.0181   -1.7541 C   0  0  0  0  0  0  0  0  0  0  0  0
    9.2940   -5.1527   -1.2615 C   0  0  0  0  0  0  0  0  0  0  0  0
    5.4830   -0.7591   -0.4567 C   0  0  1  0  0  0  0  0  0  0  0  0
    4.9057   -0.5871   -1.8519 C   0  0  0  0  0  0  0  0  0  0  0  0
    6.7583    0.0361   -0.2365 C   0  0  0  0  0  0  0  0  0  0  0  0
    2.3595    2.4533    0.7693 H   0  0  0  0  0  0  0  0  0  0  0  0
    2.4152    1.4073   -0.6678 H   0  0  0  0  0  0  0  0  0  0  0  0
    3.8879    1.6802    0.2958 H   0  0  0  0  0  0  0  0  0  0  0  0
    2.8500    0.4997    2.2410 H   0  0  0  0  0  0  0  0  0  0  0  0
    0.4519   -0.0173    0.3811 H   0  0  0  0  0  0  0  0  0  0  0  0
    0.4626    1.0847    1.7772 H   0  0  0  0  0  0  0  0  0  0  0  0
    0.6500   -0.6681    2.0255 H   0  0  0  0  0  0  0  0  0  0  0  0
    2.6782   -1.2162   -0.2914 H   0  0  0  0  0  0  0  0  0  0  0  0
    2.7163   -1.8185    1.3628 H   0  0  0  0  0  0  0  0  0  0  0  0
    6.1400   -5.6734    2.6174 H   0  0  0  0  0  0  0  0  0  0  0  0
    7.6924   -4.8681    2.9604 H   0  0  0  0  0  0  0  0  0  0  0  0
    7.6739   -6.4636    2.1558 H   0  0  0  0  0  0  0  0  0  0  0  0
    4.9699   -5.6180   -0.2750 H   0  0  0  0  0  0  0  0  0  0  0  0
    6.3601   -6.5795   -0.8159 H   0  0  0  0  0  0  0  0  0  0  0  0
    5.9627   -5.0545   -1.6446 H   0  0  0  0  0  0  0  0  0  0  0  0
    9.4544   -2.9305    1.3185 H   0  0  0  0  0  0  0  0  0  0  0  0
   11.7651   -2.6981    0.4545 H   0  0  0  0  0  0  0  0  0  0  0  0
   12.5078   -4.0305   -1.5207 H   0  0  0  0  0  0  0  0  0  0  0  0
   10.9136   -5.6021   -2.6225 H   0  0  0  0  0  0  0  0  0  0  0  0
    8.6132   -5.8469   -1.7628 H   0  0  0  0  0  0  0  0  0  0  0  0
    3.9988   -1.1862   -2.0173 H   0  0  0  0  0  0  0  0  0  0  0  0
    5.6469   -0.8870   -2.6111 H   0  0  0  0  0  0  0  0  0  0  0  0
    4.6493    0.4692   -2.0382 H   0  0  0  0  0  0  0  0  0  0  0  0
    7.1819   -0.1391    0.7608 H   0  0  0  0  0  0  0  0  0  0  0  0
    6.5468    1.1138   -0.3428 H   0  0  0  0  0  0  0  0  0  0  0  0
    7.5238   -0.2285   -0.9850 H   0  0  0  0  0  0  0  0  0  0  0  0
  1  2  1  0
  1 23  1  0
  1 24  1  0
  1 25  1  0
  2  3  1  0
  2  4  1  0
  2 26  1  1
  3 27  1  0
  3 28  1  0
  3 29  1  0
  4  5  1  0
  4 30  1  0
  4 31  1  0
  5  6  1  1
  5  7  1  0
  5 20  1  0
  7  8  1  6
  7  9  1  0
  7 20  1  0
  9 10  2  0
 11  9  1  1
 11 12  1  0
 11 13  1  0
 11 14  1  0
 12 32  1  0
 12 33  1  0
 12 34  1  0
 13 35  1  0
 13 36  1  0
 13 37  1  0
 14 15  2  0
 14 19  1  0
 15 16  1  0
 15 38  1  0
 16 17  2  0
 16 39  1  0
 17 18  1  0
 17 40  1  0
 18 19  2  0
 18 41  1  0
 19 42  1  0
 20 21  1  6
 20 22  1  0
 21 43  1  0
 21 44  1  0
 21 45  1  0
 22 46  1  0
 22 47  1  0
 22 48  1  0
M  END

