
     RDKit          3D

 32 32  0  0  0  0  0  0  0  0999 V2000
    1.0541    0.6927    0.1090 C   0  0  0  0  0  0  0  0  0  0  0  0
    2.1907    1.0227   -0.5098 C   0  0  0  0  0  0  0  0  0  0  0  0
    2.8985    0.1768   -1.5318 C   0  0  0  0  0  0  0  0  0  0  0  0
    4.2943   -0.0177   -1.1745 N   0  0  0  0  0  0  0  0  0  0  0  0
    5.0746   -0.7513   -2.1508 C   0  0  0  0  0  0  0  0  0  0  0  0
    6.5075   -0.9418   -1.6491 C   0  0  1  0  0  0  0  0  0  0  0  0
    6.4105   -1.6972   -0.4486 O   0  0  0  0  0  0  0  0  0  0  0  0
    7.3977   -1.6193   -2.6805 C   0  0  0  0  0  0  0  0  0  0  0  0
    7.6672   -2.9860   -2.5986 C   0  0  0  0  0  0  0  0  0  0  0  0
    8.4826   -3.6106   -3.5484 C   0  0  0  0  0  0  0  0  0  0  0  0
    8.8061   -5.3282   -3.4176 Cl  0  0  0  0  0  0  0  0  0  0  0  0
    9.0395   -2.8766   -4.5926 C   0  0  0  0  0  0  0  0  0  0  0  0
    8.7761   -1.5055   -4.6897 C   0  0  0  0  0  0  0  0  0  0  0  0
    7.9567   -0.8740   -3.7447 C   0  0  0  0  0  0  0  0  0  0  0  0
    7.6432    0.4501   -3.7709 O   0  0  0  0  0  0  0  0  0  0  0  0
    8.1886    1.2766   -4.7751 C   0  0  0  0  0  0  0  0  0  0  0  0
    0.5829    1.3589    0.8373 H   0  0  0  0  0  0  0  0  0  0  0  0
    0.5466   -0.2570   -0.0933 H   0  0  0  0  0  0  0  0  0  0  0  0
    2.6856    1.9738   -0.2767 H   0  0  0  0  0  0  0  0  0  0  0  0
    2.8732    0.7022   -2.5068 H   0  0  0  0  0  0  0  0  0  0  0  0
    2.3381   -0.7740   -1.6847 H   0  0  0  0  0  0  0  0  0  0  0  0
    4.3645   -0.4951   -0.2763 H   0  0  0  0  0  0  0  0  0  0  0  0
    5.1082   -0.1826   -3.0946 H   0  0  0  0  0  0  0  0  0  0  0  0
    4.6582   -1.7566   -2.3911 H   0  0  0  0  0  0  0  0  0  0  0  0
    6.9083    0.0664   -1.4406 H   0  0  0  0  0  0  0  0  0  0  0  0
    7.2639   -1.6661    0.0030 H   0  0  0  0  0  0  0  0  0  0  0  0
    7.2374   -3.5581   -1.7758 H   0  0  0  0  0  0  0  0  0  0  0  0
    9.6773   -3.3688   -5.3286 H   0  0  0  0  0  0  0  0  0  0  0  0
    9.2178   -0.9415   -5.5111 H   0  0  0  0  0  0  0  0  0  0  0  0
    7.8118    2.2897   -4.5824 H   0  0  0  0  0  0  0  0  0  0  0  0
    7.8691    0.9608   -5.7844 H   0  0  0  0  0  0  0  0  0  0  0  0
    9.2928    1.2914   -4.7397 H   0  0  0  0  0  0  0  0  0  0  0  0
  1  2  2  0
  1 17  1  0
  1 18  1  0
  2  3  1  0
  2 19  1  0
  3  4  1  0
  3 20  1  0
  3 21  1  0
  4  5  1  0
  4 22  1  0
  5  6  1  0
  5 23  1  0
  5 24  1  0
  6  7  1  0
  6  8  1  0
  6 25  1  1
  7 26  1  0
  8  9  2  0
  8 14  1  0
  9 10  1  0
  9 27  1  0
 10 11  1  0
 10 12  2  0
 12 13  1  0
 12 28  1  0
 13 14  2  0
 13 29  1  0
 14 15  1  0
 15 16  1  0
 16 30  1  0
 16 31  1  0
 16 32  1  0
M  END

