
     RDKit          3D

 43 45  0  0  0  0  0  0  0  0999 V2000
    0.9181    0.9459    0.8973 O   0  0  0  0  0  0  0  0  0  0  0  0
    2.1148    0.7199    0.8982 C   0  0  0  0  0  0  0  0  0  0  0  0
    3.0146    1.1121   -0.2710 C   0  0  0  0  0  0  0  0  0  0  0  0
    2.2676    1.0726   -1.6104 C   0  0  0  0  0  0  0  0  0  0  0  0
    3.0446    1.6565   -2.6944 N   0  0  0  0  0  0  0  0  0  0  0  0
    2.2871    2.4090   -3.6939 C   0  0  0  0  0  0  0  0  0  0  0  0
    1.6283    1.5499   -4.7990 C   0  0  0  0  0  0  0  0  0  0  0  0
    2.7189    0.6887   -5.4245 C   0  0  2  0  0  0  0  0  0  0  0  0
    2.3175   -0.3407   -6.3711 N   0  0  0  0  0  0  0  0  0  0  0  0
    3.4321   -1.3044   -6.4757 C   0  0  0  0  0  0  0  0  0  0  0  0
    4.2983   -1.0723   -5.2032 C   0  0  0  0  0  0  0  0  0  0  0  0
    3.4271   -0.1413   -4.3513 C   0  0  1  0  0  0  0  0  0  0  0  0
    4.0499    0.7715   -3.2914 C   0  0  0  0  0  0  0  0  0  0  0  0
    2.7822    0.1232    1.9488 N   0  0  0  0  0  0  0  0  0  0  0  0
    2.2835   -0.3002    3.1942 C   0  0  0  0  0  0  0  0  0  0  0  0
    0.9300   -0.1929    3.5635 C   0  0  0  0  0  0  0  0  0  0  0  0
    0.5286   -0.6426    4.8231 C   0  0  0  0  0  0  0  0  0  0  0  0
    1.4332   -1.1984    5.7309 C   0  0  0  0  0  0  0  0  0  0  0  0
    2.7734   -1.2984    5.3495 C   0  0  0  0  0  0  0  0  0  0  0  0
    3.9420   -1.9887    6.4559 Cl  0  0  0  0  0  0  0  0  0  0  0  0
    3.2053   -0.8582    4.0996 C   0  0  0  0  0  0  0  0  0  0  0  0
    3.9183    0.4803   -0.2969 H   0  0  0  0  0  0  0  0  0  0  0  0
    3.3611    2.1467   -0.0995 H   0  0  0  0  0  0  0  0  0  0  0  0
    1.3407    1.6493   -1.4820 H   0  0  0  0  0  0  0  0  0  0  0  0
    1.9444    0.0288   -1.8117 H   0  0  0  0  0  0  0  0  0  0  0  0
    2.9814    3.1210   -4.1795 H   0  0  0  0  0  0  0  0  0  0  0  0
    1.5319    3.0179   -3.1740 H   0  0  0  0  0  0  0  0  0  0  0  0
    1.1490    2.2088   -5.5447 H   0  0  0  0  0  0  0  0  0  0  0  0
    0.8403    0.9003   -4.3814 H   0  0  0  0  0  0  0  0  0  0  0  0
    3.4779    1.3869   -5.8587 H   0  0  0  0  0  0  0  0  0  0  0  0
    2.0379    0.0324   -7.2750 H   0  0  0  0  0  0  0  0  0  0  0  0
    4.0429   -1.1570   -7.3875 H   0  0  0  0  0  0  0  0  0  0  0  0
    3.0431   -2.3368   -6.5201 H   0  0  0  0  0  0  0  0  0  0  0  0
    5.2448   -0.5696   -5.4662 H   0  0  0  0  0  0  0  0  0  0  0  0
    4.5583   -2.0123   -4.6931 H   0  0  0  0  0  0  0  0  0  0  0  0
    2.6467   -0.7535   -3.8644 H   0  0  0  0  0  0  0  0  0  0  0  0
    4.8426    1.3898   -3.7545 H   0  0  0  0  0  0  0  0  0  0  0  0
    4.5377    0.1876   -2.4942 H   0  0  0  0  0  0  0  0  0  0  0  0
    3.7778   -0.0111    1.8185 H   0  0  0  0  0  0  0  0  0  0  0  0
    0.2194    0.2377    2.8629 H   0  0  0  0  0  0  0  0  0  0  0  0
   -0.5241   -0.5565    5.1041 H   0  0  0  0  0  0  0  0  0  0  0  0
    1.1141   -1.5484    6.7132 H   0  0  0  0  0  0  0  0  0  0  0  0
    4.2608   -0.9510    3.8339 H   0  0  0  0  0  0  0  0  0  0  0  0
  1  2  2  0
  2  3  1  0
  2 14  1  0
  3  4  1  0
  3 22  1  0
  3 23  1  0
  4  5  1  0
  4 24  1  0
  4 25  1  0
  5  6  1  0
  5 13  1  0
  6  7  1  0
  6 26  1  0
  6 27  1  0
  7  8  1  0
  7 28  1  0
  7 29  1  0
  8  9  1  0
  8 12  1  0
  8 30  1  6
  9 10  1  0
  9 31  1  0
 10 11  1  0
 10 32  1  0
 10 33  1  0
 11 12  1  0
 11 34  1  0
 11 35  1  0
 12 13  1  0
 12 36  1  1
 13 37  1  0
 13 38  1  0
 14 15  1  0
 14 39  1  0
 15 16  2  0
 15 21  1  0
 16 17  1  0
 16 40  1  0
 17 18  2  0
 17 41  1  0
 18 19  1  0
 18 42  1  0
 19 20  1  0
 19 21  2  0
 21 43  1  0
M  END

