
     RDKit          3D

 46 49  0  0  0  0  0  0  0  0999 V2000
    1.0427   -0.5835    0.3147 C   0  0  0  0  0  0  0  0  0  0  0  0
    2.4922   -0.1062    0.0977 C   0  0  1  0  0  0  0  0  0  0  0  0
    2.7702    0.1909   -1.3826 C   0  0  0  0  0  0  0  0  0  0  0  0
    3.1811    1.4599   -1.8098 C   0  0  0  0  0  0  0  0  0  0  0  0
    3.3908    1.7250   -3.1662 C   0  0  0  0  0  0  0  0  0  0  0  0
    3.2138    0.7213   -4.1272 C   0  0  0  0  0  0  0  0  0  0  0  0
    3.5254    0.9124   -5.5912 C   0  0  0  0  0  0  0  0  0  0  0  0
    4.2114    0.0900   -6.1834 O   0  0  0  0  0  0  0  0  0  0  0  0
    3.0283    2.0217   -6.2273 N   0  0  0  0  0  0  0  0  0  0  0  0
    3.3097    2.1939   -7.6627 C   0  0  0  0  0  0  0  0  0  0  0  0
    2.1915    3.1205   -8.1519 C   0  0  0  0  0  0  0  0  0  0  0  0
    1.7980    3.9276   -6.9052 C   0  0  1  0  0  0  0  0  0  0  0  0
    2.7097    5.1399   -6.6049 C   0  0  0  0  0  0  0  0  0  0  0  0
    1.8242    6.0240   -5.7095 C   0  0  0  0  0  0  0  0  0  0  0  0
    0.4754    5.6302   -5.9532 O   0  0  0  0  0  0  0  0  0  0  0  0
    0.4390    4.6334   -6.9576 C   0  0  0  0  0  0  0  0  0  0  0  0
    1.8999    2.8581   -5.7963 C   0  0  0  0  0  0  0  0  0  0  0  0
    2.8534   -0.5642   -3.6930 C   0  0  0  0  0  0  0  0  0  0  0  0
    2.6171   -0.8229   -2.3448 C   0  0  0  0  0  0  0  0  0  0  0  0
    2.8275    1.0041    0.9795 N   0  0  0  0  0  0  0  0  0  0  0  0
    3.7886    0.7137    1.9145 C   0  0  0  0  0  0  0  0  0  0  0  0
    4.2130    1.4128    2.8011 O   0  0  0  0  0  0  0  0  0  0  0  0
    4.1904   -0.6093    1.6347 N   0  0  0  0  0  0  0  0  0  0  0  0
    3.4757   -1.1975    0.6187 C   0  0  0  0  0  0  0  0  0  0  0  0
    3.5671   -2.3319    0.2195 O   0  0  0  0  0  0  0  0  0  0  0  0
    0.3361    0.1948   -0.0131 H   0  0  0  0  0  0  0  0  0  0  0  0
    0.8645   -0.7992    1.3794 H   0  0  0  0  0  0  0  0  0  0  0  0
    0.8446   -1.4962   -0.2631 H   0  0  0  0  0  0  0  0  0  0  0  0
    3.3558    2.2497   -1.0778 H   0  0  0  0  0  0  0  0  0  0  0  0
    3.7288    2.7191   -3.4673 H   0  0  0  0  0  0  0  0  0  0  0  0
    3.3297    1.2154   -8.1640 H   0  0  0  0  0  0  0  0  0  0  0  0
    4.3092    2.6425   -7.8010 H   0  0  0  0  0  0  0  0  0  0  0  0
    1.3265    2.5245   -8.4903 H   0  0  0  0  0  0  0  0  0  0  0  0
    2.5032    3.7576   -8.9932 H   0  0  0  0  0  0  0  0  0  0  0  0
    2.9517    5.6586   -7.5467 H   0  0  0  0  0  0  0  0  0  0  0  0
    3.6603    4.8603   -6.1262 H   0  0  0  0  0  0  0  0  0  0  0  0
    1.9532    7.0987   -5.9297 H   0  0  0  0  0  0  0  0  0  0  0  0
    2.0456    5.8803   -4.6360 H   0  0  0  0  0  0  0  0  0  0  0  0
    0.2849    5.0806   -7.9622 H   0  0  0  0  0  0  0  0  0  0  0  0
   -0.4103    3.9599   -6.7563 H   0  0  0  0  0  0  0  0  0  0  0  0
    0.9656    2.2680   -5.7432 H   0  0  0  0  0  0  0  0  0  0  0  0
    2.0615    3.2989   -4.8047 H   0  0  0  0  0  0  0  0  0  0  0  0
    2.7720   -1.3660   -4.4297 H   0  0  0  0  0  0  0  0  0  0  0  0
    2.3508   -1.8330   -2.0300 H   0  0  0  0  0  0  0  0  0  0  0  0
    2.2749    1.8477    1.0680 H   0  0  0  0  0  0  0  0  0  0  0  0
    4.9029   -1.0846    2.1784 H   0  0  0  0  0  0  0  0  0  0  0  0
  2  1  1  6
  1 26  1  0
  1 27  1  0
  1 28  1  0
  2  3  1  0
  2 20  1  0
  2 24  1  0
  3  4  2  0
  3 19  1  0
  4  5  1  0
  4 29  1  0
  5  6  2  0
  5 30  1  0
  6  7  1  0
  6 18  1  0
  7  8  2  0
  7  9  1  0
  9 10  1  0
  9 17  1  0
 10 11  1  0
 10 31  1  0
 10 32  1  0
 12 11  1  6
 11 33  1  0
 11 34  1  0
 12 13  1  0
 12 16  1  0
 12 17  1  0
 13 14  1  0
 13 35  1  0
 13 36  1  0
 14 15  1  0
 14 37  1  0
 14 38  1  0
 15 16  1  0
 16 39  1  0
 16 40  1  0
 17 41  1  0
 17 42  1  0
 18 19  2  0
 18 43  1  0
 19 44  1  0
 20 21  1  0
 20 45  1  0
 21 22  2  0
 21 23  1  0
 23 24  1  0
 23 46  1  0
 24 25  2  0
M  END

