
     RDKit          3D

 36 36  0  0  0  0  0  0  0  0999 V2000
    0.9558   -0.0079    0.1668 C   0  0  0  0  0  0  0  0  0  0  0  0
    2.4744   -0.1868    0.0217 C   0  0  1  0  0  0  0  0  0  0  0  0
    2.6355   -1.0598   -0.6415 H   0  0  0  0  0  0  0  0  0  0  0  0
    3.0508    1.0470   -0.5150 N   0  0  0  0  0  0  0  0  0  0  0  0
    3.1157   -0.5334    1.3604 C   0  0  0  0  0  0  0  0  0  0  0  0
    3.7453    0.4447    2.1332 C   0  0  0  0  0  0  0  0  0  0  0  0
    4.3113    0.1144    3.3636 C   0  0  0  0  0  0  0  0  0  0  0  0
    4.9136    1.0758    4.0866 F   0  0  0  0  0  0  0  0  0  0  0  0
    4.2694   -1.1825    3.8549 C   0  0  0  0  0  0  0  0  0  0  0  0
    3.6397   -2.1751    3.0931 C   0  0  0  0  0  0  0  0  0  0  0  0
    3.0625   -1.8582    1.8569 C   0  0  0  0  0  0  0  0  0  0  0  0
    2.4245   -2.7703    1.0623 O   0  0  0  0  0  0  0  0  0  0  0  0
    2.3616   -4.1245    1.4548 C   0  0  0  0  0  0  0  0  0  0  0  0
    1.6269   -4.8890    0.3613 C   0  0  0  0  0  0  0  0  0  0  0  0
    1.5015   -6.3754    0.6856 C   0  0  0  0  0  0  0  0  0  0  0  0
    0.6174   -7.2108   -0.6733 S   0  0  1  0  0  0  0  0  0  0  0  0
    0.5382   -8.9388   -0.1559 C   0  0  0  0  0  0  0  0  0  0  0  0
   -0.7560   -6.6891   -0.6980 O   0  0  0  0  0  0  0  0  0  0  0  0
    1.4704   -7.1416   -1.8678 O   0  0  0  0  0  0  0  0  0  0  0  0
    0.4949    0.1907   -0.8158 H   0  0  0  0  0  0  0  0  0  0  0  0
    0.7331    0.8412    0.8313 H   0  0  0  0  0  0  0  0  0  0  0  0
    0.4933   -0.9158    0.5784 H   0  0  0  0  0  0  0  0  0  0  0  0
    2.5592    1.3161   -1.3668 H   0  0  0  0  0  0  0  0  0  0  0  0
    4.0265    0.9005   -0.7767 H   0  0  0  0  0  0  0  0  0  0  0  0
    3.7923    1.4688    1.7607 H   0  0  0  0  0  0  0  0  0  0  0  0
    4.7243   -1.4130    4.8200 H   0  0  0  0  0  0  0  0  0  0  0  0
    3.6069   -3.1930    3.4811 H   0  0  0  0  0  0  0  0  0  0  0  0
    1.8301   -4.2223    2.4216 H   0  0  0  0  0  0  0  0  0  0  0  0
    3.3814   -4.5328    1.5966 H   0  0  0  0  0  0  0  0  0  0  0  0
    2.1633   -4.7676   -0.5926 H   0  0  0  0  0  0  0  0  0  0  0  0
    0.6221   -4.4595    0.2258 H   0  0  0  0  0  0  0  0  0  0  0  0
    0.9155   -6.5564    1.6005 H   0  0  0  0  0  0  0  0  0  0  0  0
    2.4821   -6.8692    0.7726 H   0  0  0  0  0  0  0  0  0  0  0  0
   -0.0339   -9.0178    0.7777 H   0  0  0  0  0  0  0  0  0  0  0  0
    1.5551   -9.3395   -0.0532 H   0  0  0  0  0  0  0  0  0  0  0  0
    0.0083   -9.4492   -0.9720 H   0  0  0  0  0  0  0  0  0  0  0  0
  1  2  1  0
  1 20  1  0
  1 21  1  0
  1 22  1  0
  2  3  1  6
  2  4  1  0
  2  5  1  0
  4 23  1  0
  4 24  1  0
  5  6  2  0
  5 11  1  0
  6  7  1  0
  6 25  1  0
  7  8  1  0
  7  9  2  0
  9 10  1  0
  9 26  1  0
 10 11  2  0
 10 27  1  0
 11 12  1  0
 12 13  1  0
 13 14  1  0
 13 28  1  0
 13 29  1  0
 14 15  1  0
 14 30  1  0
 14 31  1  0
 16 15  1  1
 15 32  1  0
 15 33  1  0
 16 17  1  0
 16 18  2  0
 16 19  2  0
 17 34  1  0
 17 35  1  0
 17 36  1  0
M  END

