
     RDKit          3D

 53 55  0  0  0  0  0  0  0  0999 V2000
    0.2221    0.4638    0.0424 O   0  0  0  0  0  0  0  0  0  0  0  0
   -0.3147   -0.3051    0.8199 C   0  0  0  0  0  0  0  0  0  0  0  0
    0.4665   -1.3874    1.5602 C   0  0  0  0  0  0  0  0  0  0  0  0
    1.6962   -1.8524    0.7716 C   0  0  0  0  0  0  0  0  0  0  0  0
    2.5653   -2.7094    1.5674 N   0  0  0  0  0  0  0  0  0  0  0  0
    2.1425   -4.1081    1.6788 C   0  0  0  0  0  0  0  0  0  0  0  0
    2.5540   -4.9596    0.4620 C   0  0  0  0  0  0  0  0  0  0  0  0
    3.9834   -4.8671    0.1587 N   0  0  0  0  0  0  0  0  0  0  0  0
    4.8504   -5.7302    0.9554 C   0  0  0  0  0  0  0  0  0  0  0  0
    4.6542   -7.1845    0.6251 C   0  0  0  0  0  0  0  0  0  0  0  0
    4.4770   -8.1569    1.5359 C   0  0  0  0  0  0  0  0  0  0  0  0
    4.3190   -9.6010    1.2939 C   0  0  0  0  0  0  0  0  0  0  0  0
    4.1063  -10.4578    2.3915 C   0  0  0  0  0  0  0  0  0  0  0  0
    3.9450  -11.8341    2.2178 C   0  0  0  0  0  0  0  0  0  0  0  0
    3.9932  -12.3887    0.9365 C   0  0  0  0  0  0  0  0  0  0  0  0
    4.2057  -11.5525   -0.1667 C   0  0  0  0  0  0  0  0  0  0  0  0
    4.3677  -10.1792    0.0085 C   0  0  0  0  0  0  0  0  0  0  0  0
    4.4044   -3.4711    0.0487 C   0  0  0  0  0  0  0  0  0  0  0  0
    3.9949   -2.6238    1.2673 C   0  0  0  0  0  0  0  0  0  0  0  0
   -1.6569   -0.2689    1.1403 N   0  0  0  0  0  0  0  0  0  0  0  0
   -2.6484    0.6197    0.7057 C   0  0  0  0  0  0  0  0  0  0  0  0
   -2.3946    1.6710   -0.1988 C   0  0  0  0  0  0  0  0  0  0  0  0
   -3.4199    2.5273   -0.5988 C   0  0  0  0  0  0  0  0  0  0  0  0
   -4.7208    2.3666   -0.1162 C   0  0  0  0  0  0  0  0  0  0  0  0
   -4.9947    1.3315    0.7799 C   0  0  0  0  0  0  0  0  0  0  0  0
   -3.9716    0.4737    1.1818 C   0  0  0  0  0  0  0  0  0  0  0  0
   -4.4036   -0.9336    2.4151 Br  0  0  0  0  0  0  0  0  0  0  0  0
   -0.1939   -2.2333    1.8142 H   0  0  0  0  0  0  0  0  0  0  0  0
    0.8112   -0.9622    2.5196 H   0  0  0  0  0  0  0  0  0  0  0  0
    2.2557   -0.9522    0.4796 H   0  0  0  0  0  0  0  0  0  0  0  0
    1.3583   -2.3147   -0.1806 H   0  0  0  0  0  0  0  0  0  0  0  0
    1.0507   -4.1544    1.8233 H   0  0  0  0  0  0  0  0  0  0  0  0
    2.5920   -4.5330    2.5952 H   0  0  0  0  0  0  0  0  0  0  0  0
    1.9922   -4.6226   -0.4287 H   0  0  0  0  0  0  0  0  0  0  0  0
    2.2855   -6.0159    0.6233 H   0  0  0  0  0  0  0  0  0  0  0  0
    4.7613   -5.5905    2.0558 H   0  0  0  0  0  0  0  0  0  0  0  0
    5.8905   -5.4538    0.7000 H   0  0  0  0  0  0  0  0  0  0  0  0
    4.6745   -7.4146   -0.4462 H   0  0  0  0  0  0  0  0  0  0  0  0
    4.4447   -7.8646    2.5933 H   0  0  0  0  0  0  0  0  0  0  0  0
    4.0669  -10.0314    3.3980 H   0  0  0  0  0  0  0  0  0  0  0  0
    3.7811  -12.4756    3.0877 H   0  0  0  0  0  0  0  0  0  0  0  0
    3.8680  -13.4652    0.7955 H   0  0  0  0  0  0  0  0  0  0  0  0
    4.2474  -11.9771   -1.1733 H   0  0  0  0  0  0  0  0  0  0  0  0
    4.5366   -9.5464   -0.8655 H   0  0  0  0  0  0  0  0  0  0  0  0
    3.9428   -3.0426   -0.8608 H   0  0  0  0  0  0  0  0  0  0  0  0
    5.4965   -3.4325   -0.1012 H   0  0  0  0  0  0  0  0  0  0  0  0
    4.2695   -1.5672    1.1151 H   0  0  0  0  0  0  0  0  0  0  0  0
    4.5537   -2.9713    2.1567 H   0  0  0  0  0  0  0  0  0  0  0  0
   -1.9808   -0.9700    1.7993 H   0  0  0  0  0  0  0  0  0  0  0  0
   -1.3803    1.7906   -0.5722 H   0  0  0  0  0  0  0  0  0  0  0  0
   -3.1916    3.3329   -1.3009 H   0  0  0  0  0  0  0  0  0  0  0  0
   -5.5223    3.0385   -0.4312 H   0  0  0  0  0  0  0  0  0  0  0  0
   -6.0025    1.1842    1.1714 H   0  0  0  0  0  0  0  0  0  0  0  0
  1  2  2  0
  2  3  1  0
  2 20  1  0
  3  4  1  0
  3 28  1  0
  3 29  1  0
  4  5  1  0
  4 30  1  0
  4 31  1  0
  5  6  1  0
  5 19  1  0
  6  7  1  0
  6 32  1  0
  6 33  1  0
  7  8  1  0
  7 34  1  0
  7 35  1  0
  8  9  1  0
  8 18  1  0
  9 10  1  0
  9 36  1  0
  9 37  1  0
 10 11  2  0
 10 38  1  0
 11 12  1  0
 11 39  1  0
 12 13  2  0
 12 17  1  0
 13 14  1  0
 13 40  1  0
 14 15  2  0
 14 41  1  0
 15 16  1  0
 15 42  1  0
 16 17  2  0
 16 43  1  0
 17 44  1  0
 18 19  1  0
 18 45  1  0
 18 46  1  0
 19 47  1  0
 19 48  1  0
 20 21  1  0
 20 49  1  0
 21 22  2  0
 21 26  1  0
 22 23  1  0
 22 50  1  0
 23 24  2  0
 23 51  1  0
 24 25  1  0
 24 52  1  0
 25 26  2  0
 25 53  1  0
 26 27  1  0
M  END

