
     RDKit          3D

 59 63  0  0  0  0  0  0  0  0999 V2000
   -1.3323    5.3841    2.0044 O   0  0  0  0  0  0  0  0  0  0  0  0
   -0.3465    5.9614    1.5773 N   0  0  0  0  0  0  0  0  0  0  0  0
   -0.3590    7.0189    0.9710 O   0  0  0  0  0  0  0  0  0  0  0  0
    0.9721    5.3277    1.8177 C   0  0  0  0  0  0  0  0  0  0  0  0
    1.0152    4.1058    2.4924 C   0  0  0  0  0  0  0  0  0  0  0  0
    2.2552    3.5134    2.7235 C   0  0  0  0  0  0  0  0  0  0  0  0
    3.4111    4.1693    2.2885 C   0  0  0  0  0  0  0  0  0  0  0  0
    5.0030    3.3637    2.5150 S   0  0  1  0  0  0  0  0  0  0  0  0
    4.7687    1.9258    2.3902 O   0  0  0  0  0  0  0  0  0  0  0  0
    5.9775    4.0588    1.6703 O   0  0  0  0  0  0  0  0  0  0  0  0
    5.4034    3.6586    4.2244 N   0  0  0  0  0  0  0  0  0  0  0  0
    6.3469    4.7350    4.4235 C   0  0  0  0  0  0  0  0  0  0  0  0
    6.0725    6.0488    4.4680 C   0  0  0  0  0  0  0  0  0  0  0  0
    4.7916    6.7731    4.4464 C   0  0  0  0  0  0  0  0  0  0  0  0
    3.5990    6.2342    4.9716 C   0  0  0  0  0  0  0  0  0  0  0  0
    2.4285    6.9922    5.0055 C   0  0  0  0  0  0  0  0  0  0  0  0
    2.4134    8.2993    4.5041 C   0  0  0  0  0  0  0  0  0  0  0  0
    3.5883    8.8489    3.9822 C   0  0  0  0  0  0  0  0  0  0  0  0
    4.7655    8.0978    3.9659 C   0  0  0  0  0  0  0  0  0  0  0  0
    7.7388    4.1311    4.6622 C   0  0  1  0  0  0  0  0  0  0  0  0
    8.6071    4.9644    5.4677 N   0  0  0  0  0  0  0  0  0  0  0  0
   10.0377    4.8550    5.1990 C   0  0  0  0  0  0  0  0  0  0  0  0
   10.7939    6.0500    5.7852 C   0  0  0  0  0  0  0  0  0  0  0  0
   10.5038    6.2060    7.2821 C   0  0  0  0  0  0  0  0  0  0  0  0
    8.9923    6.2535    7.5319 C   0  0  0  0  0  0  0  0  0  0  0  0
    8.2901    5.0536    6.8914 C   0  0  0  0  0  0  0  0  0  0  0  0
    7.3471    2.7359    5.1587 C   0  0  0  0  0  0  0  0  0  0  0  0
    8.0899    1.7485    5.8028 C   0  0  0  0  0  0  0  0  0  0  0  0
    7.4594    0.5497    6.1660 C   0  0  0  0  0  0  0  0  0  0  0  0
    6.1044    0.3451    5.8841 C   0  0  0  0  0  0  0  0  0  0  0  0
    5.3513    1.3292    5.2323 C   0  0  0  0  0  0  0  0  0  0  0  0
    5.9939    2.5106    4.8729 C   0  0  0  0  0  0  0  0  0  0  0  0
    3.3609    5.3824    1.5997 C   0  0  0  0  0  0  0  0  0  0  0  0
    2.1198    5.9737    1.3610 C   0  0  0  0  0  0  0  0  0  0  0  0
    0.0852    3.6388    2.8150 H   0  0  0  0  0  0  0  0  0  0  0  0
    2.3261    2.5445    3.2197 H   0  0  0  0  0  0  0  0  0  0  0  0
    6.9671    6.6716    4.5733 H   0  0  0  0  0  0  0  0  0  0  0  0
    3.6032    5.2173    5.3667 H   0  0  0  0  0  0  0  0  0  0  0  0
    1.5186    6.5617    5.4319 H   0  0  0  0  0  0  0  0  0  0  0  0
    1.4929    8.8877    4.5287 H   0  0  0  0  0  0  0  0  0  0  0  0
    3.5913    9.8718    3.5969 H   0  0  0  0  0  0  0  0  0  0  0  0
    5.6859    8.5408    3.5752 H   0  0  0  0  0  0  0  0  0  0  0  0
    8.2304    4.0149    3.6775 H   0  0  0  0  0  0  0  0  0  0  0  0
   10.1862    4.8106    4.1081 H   0  0  0  0  0  0  0  0  0  0  0  0
   10.4713    3.9171    5.6173 H   0  0  0  0  0  0  0  0  0  0  0  0
   10.4780    6.9627    5.2505 H   0  0  0  0  0  0  0  0  0  0  0  0
   11.8749    5.9254    5.6057 H   0  0  0  0  0  0  0  0  0  0  0  0
   10.9943    7.1093    7.6810 H   0  0  0  0  0  0  0  0  0  0  0  0
   10.9366    5.3474    7.8286 H   0  0  0  0  0  0  0  0  0  0  0  0
    8.5758    7.1819    7.1039 H   0  0  0  0  0  0  0  0  0  0  0  0
    8.7751    6.2700    8.6130 H   0  0  0  0  0  0  0  0  0  0  0  0
    7.1995    5.1469    7.0041 H   0  0  0  0  0  0  0  0  0  0  0  0
    8.5863    4.1280    7.4335 H   0  0  0  0  0  0  0  0  0  0  0  0
    9.1482    1.9000    6.0255 H   0  0  0  0  0  0  0  0  0  0  0  0
    8.0308   -0.2294    6.6764 H   0  0  0  0  0  0  0  0  0  0  0  0
    5.6247   -0.5923    6.1761 H   0  0  0  0  0  0  0  0  0  0  0  0
    4.2968    1.1726    5.0061 H   0  0  0  0  0  0  0  0  0  0  0  0
    4.2846    5.8500    1.2581 H   0  0  0  0  0  0  0  0  0  0  0  0
    2.0285    6.9222    0.8334 H   0  0  0  0  0  0  0  0  0  0  0  0
  1  2  2  0
  2  3  1  0
  2  4  1  0
  4  5  2  0
  4 34  1  0
  5  6  1  0
  5 35  1  0
  6  7  2  0
  6 36  1  0
  8  7  1  6
  7 33  1  0
  8  9  2  0
  8 10  2  0
  8 11  1  0
 11 12  1  0
 11 32  1  0
 12 13  2  0
 12 20  1  0
 13 14  1  0
 13 37  1  0
 14 15  2  0
 14 19  1  0
 15 16  1  0
 15 38  1  0
 16 17  2  0
 16 39  1  0
 17 18  1  0
 17 40  1  0
 18 19  2  0
 18 41  1  0
 19 42  1  0
 20 21  1  0
 20 27  1  0
 20 43  1  6
 21 22  1  0
 21 26  1  0
 22 23  1  0
 22 44  1  0
 22 45  1  0
 23 24  1  0
 23 46  1  0
 23 47  1  0
 24 25  1  0
 24 48  1  0
 24 49  1  0
 25 26  1  0
 25 50  1  0
 25 51  1  0
 26 52  1  0
 26 53  1  0
 27 28  2  0
 27 32  1  0
 28 29  1  0
 28 54  1  0
 29 30  2  0
 29 55  1  0
 30 31  1  0
 30 56  1  0
 31 32  2  0
 31 57  1  0
 33 34  2  0
 33 58  1  0
 34 59  1  0
M  CHG  2   2   1   3  -1
M  END

