
     RDKit          3D

 52 54  0  0  0  0  0  0  0  0999 V2000
    7.1420   -9.0332   -9.0364 C   0  0  0  0  0  0  0  0  0  0  0  0
    7.7756   -8.1251   -8.1595 O   0  0  0  0  0  0  0  0  0  0  0  0
    7.0320   -7.2272   -7.4761 C   0  0  0  0  0  0  0  0  0  0  0  0
    7.7395   -6.3648   -6.6169 C   0  0  0  0  0  0  0  0  0  0  0  0
    7.0636   -5.4103   -5.8676 C   0  0  0  0  0  0  0  0  0  0  0  0
    5.6681   -5.2901   -5.9677 C   0  0  0  0  0  0  0  0  0  0  0  0
    4.9736   -4.3022   -5.2019 N   0  0  0  0  0  0  0  0  0  0  0  0
    4.8742   -2.9387   -5.4466 C   0  0  0  0  0  0  0  0  0  0  0  0
    5.4980   -2.2470   -6.6094 C   0  0  0  0  0  0  0  0  0  0  0  0
    4.1460   -2.3749   -4.5176 N   0  0  0  0  0  0  0  0  0  0  0  0
    3.7487   -3.3481   -3.6334 N   0  0  0  0  0  0  0  0  0  0  0  0
    4.2429   -4.4852   -4.0477 C   0  0  0  0  0  0  0  0  0  0  0  0
    4.0649   -6.0726   -3.2921 S   0  0  0  0  0  0  0  0  0  0  0  0
    2.8335   -5.6314   -1.9690 C   0  0  1  0  0  0  0  0  0  0  0  0
    2.9351   -4.5371   -1.8761 H   0  0  0  0  0  0  0  0  0  0  0  0
    1.4119   -5.9895   -2.3825 C   0  0  0  0  0  0  0  0  0  0  0  0
    3.2171   -6.2521   -0.6083 C   0  0  0  0  0  0  0  0  0  0  0  0
    2.3604   -6.7112    0.1234 O   0  0  0  0  0  0  0  0  0  0  0  0
    4.5454   -6.1691   -0.2773 N   0  0  0  0  0  0  0  0  0  0  0  0
    5.1347   -6.6463    0.9282 C   0  0  0  0  0  0  0  0  0  0  0  0
    6.1590   -7.6153    0.8277 C   0  0  0  0  0  0  0  0  0  0  0  0
    6.5848   -8.1507   -0.5178 C   0  0  0  0  0  0  0  0  0  0  0  0
    6.7667   -8.0741    2.0027 C   0  0  0  0  0  0  0  0  0  0  0  0
    6.3656   -7.5928    3.2497 C   0  0  0  0  0  0  0  0  0  0  0  0
    5.3605   -6.6303    3.3302 C   0  0  0  0  0  0  0  0  0  0  0  0
    4.7337   -6.1283    2.1794 C   0  0  0  0  0  0  0  0  0  0  0  0
    3.6847   -5.0542    2.2945 C   0  0  0  0  0  0  0  0  0  0  0  0
    4.9639   -6.1438   -6.8210 C   0  0  0  0  0  0  0  0  0  0  0  0
    5.6352   -7.1124   -7.5722 C   0  0  0  0  0  0  0  0  0  0  0  0
    7.9370   -9.6556   -9.4674 H   0  0  0  0  0  0  0  0  0  0  0  0
    6.6127   -8.5116   -9.8536 H   0  0  0  0  0  0  0  0  0  0  0  0
    6.4260   -9.6842   -8.5039 H   0  0  0  0  0  0  0  0  0  0  0  0
    8.8239   -6.4721   -6.5525 H   0  0  0  0  0  0  0  0  0  0  0  0
    7.6136   -4.7507   -5.1926 H   0  0  0  0  0  0  0  0  0  0  0  0
    5.1435   -2.6617   -7.5670 H   0  0  0  0  0  0  0  0  0  0  0  0
    6.5966   -2.3325   -6.5995 H   0  0  0  0  0  0  0  0  0  0  0  0
    5.2264   -1.1847   -6.5600 H   0  0  0  0  0  0  0  0  0  0  0  0
    1.1360   -5.4484   -3.2985 H   0  0  0  0  0  0  0  0  0  0  0  0
    0.7165   -5.7092   -1.5783 H   0  0  0  0  0  0  0  0  0  0  0  0
    1.3020   -7.0704   -2.5561 H   0  0  0  0  0  0  0  0  0  0  0  0
    5.1722   -5.9363   -1.0429 H   0  0  0  0  0  0  0  0  0  0  0  0
    5.7268   -8.5376   -1.0914 H   0  0  0  0  0  0  0  0  0  0  0  0
    7.3145   -8.9650   -0.4030 H   0  0  0  0  0  0  0  0  0  0  0  0
    7.0587   -7.3747   -1.1453 H   0  0  0  0  0  0  0  0  0  0  0  0
    7.5572   -8.8265    1.9348 H   0  0  0  0  0  0  0  0  0  0  0  0
    6.8428   -7.9644    4.1601 H   0  0  0  0  0  0  0  0  0  0  0  0
    5.0577   -6.2408    4.3060 H   0  0  0  0  0  0  0  0  0  0  0  0
    3.7057   -4.5902    3.2911 H   0  0  0  0  0  0  0  0  0  0  0  0
    2.6804   -5.4687    2.1154 H   0  0  0  0  0  0  0  0  0  0  0  0
    3.8400   -4.2644    1.5417 H   0  0  0  0  0  0  0  0  0  0  0  0
    3.8783   -6.0532   -6.8953 H   0  0  0  0  0  0  0  0  0  0  0  0
    5.0606   -7.7675   -8.2267 H   0  0  0  0  0  0  0  0  0  0  0  0
  1  2  1  0
  1 30  1  0
  1 31  1  0
  1 32  1  0
  2  3  1  0
  3  4  2  0
  3 29  1  0
  4  5  1  0
  4 33  1  0
  5  6  2  0
  5 34  1  0
  6  7  1  0
  6 28  1  0
  7  8  1  0
  7 12  1  0
  8  9  1  0
  8 10  2  0
  9 35  1  0
  9 36  1  0
  9 37  1  0
 10 11  1  0
 11 12  2  0
 12 13  1  0
 13 14  1  0
 14 15  1  1
 14 16  1  0
 14 17  1  0
 16 38  1  0
 16 39  1  0
 16 40  1  0
 17 18  2  0
 17 19  1  0
 19 20  1  0
 19 41  1  0
 20 21  2  0
 20 26  1  0
 21 22  1  0
 21 23  1  0
 22 42  1  0
 22 43  1  0
 22 44  1  0
 23 24  2  0
 23 45  1  0
 24 25  1  0
 24 46  1  0
 25 26  2  0
 25 47  1  0
 26 27  1  0
 27 48  1  0
 27 49  1  0
 27 50  1  0
 28 29  2  0
 28 51  1  0
 29 52  1  0
M  END

