
     RDKit          3D

 46 49  0  0  0  0  0  0  0  0999 V2000
    2.3153    1.1935   -1.7018 C   0  0  0  0  0  0  0  0  0  0  0  0
    2.5315    0.2483   -0.5154 C   0  0  0  0  0  0  0  0  0  0  0  0
    3.0735   -1.0603   -0.8748 N   0  0  0  0  0  0  0  0  0  0  0  0
    2.1666   -2.1563   -1.2428 C   0  0  0  0  0  0  0  0  0  0  0  0
    0.7207   -2.0101   -0.7825 C   0  0  0  0  0  0  0  0  0  0  0  0
    4.4176   -1.2120   -1.1344 C   0  0  0  0  0  0  0  0  0  0  0  0
    5.3653   -0.1790   -0.8534 C   0  0  0  0  0  0  0  0  0  0  0  0
    6.7095   -0.3410   -1.1222 C   0  0  0  0  0  0  0  0  0  0  0  0
    7.2390   -1.5250   -1.6961 C   0  0  0  0  0  0  0  0  0  0  0  0
    6.3032   -2.5683   -1.8945 C   0  0  0  0  0  0  0  0  0  0  0  0
    4.9383   -2.4158   -1.6606 C   0  0  0  0  0  0  0  0  0  0  0  0
    6.6926   -3.7866   -2.3293 O   0  0  0  0  0  0  0  0  0  0  0  0
    8.0269   -4.1911   -2.4108 C   0  0  0  0  0  0  0  0  0  0  0  0
    8.2273   -5.3442   -2.6597 O   0  0  0  0  0  0  0  0  0  0  0  0
    9.0175   -3.1150   -2.2317 C   0  0  0  0  0  0  0  0  0  0  0  0
   10.4330   -3.5092   -2.2832 C   0  0  0  0  0  0  0  0  0  0  0  0
   10.8992   -4.5998   -2.4439 O   0  0  0  0  0  0  0  0  0  0  0  0
   11.3372   -2.4730   -2.0312 O   0  0  0  0  0  0  0  0  0  0  0  0
   11.0039   -1.1626   -2.0553 C   0  0  0  0  0  0  0  0  0  0  0  0
   12.0687   -0.2288   -2.0844 C   0  0  0  0  0  0  0  0  0  0  0  0
   13.3784   -0.5607   -2.0389 O   0  0  0  0  0  0  0  0  0  0  0  0
   13.8575   -1.6128   -1.2052 C   0  0  0  0  0  0  0  0  0  0  0  0
   11.7580    1.1224   -2.2595 C   0  0  0  0  0  0  0  0  0  0  0  0
   10.4323    1.5406   -2.4115 C   0  0  0  0  0  0  0  0  0  0  0  0
    9.3906    0.6254   -2.3234 C   0  0  0  0  0  0  0  0  0  0  0  0
    9.6548   -0.7453   -2.0972 C   0  0  0  0  0  0  0  0  0  0  0  0
    8.6301   -1.7927   -2.0059 C   0  0  0  0  0  0  0  0  0  0  0  0
    1.9093    2.1579   -1.3557 H   0  0  0  0  0  0  0  0  0  0  0  0
    1.6031    0.7679   -2.4266 H   0  0  0  0  0  0  0  0  0  0  0  0
    3.2578    1.3923   -2.2350 H   0  0  0  0  0  0  0  0  0  0  0  0
    1.5822    0.0939    0.0120 H   0  0  0  0  0  0  0  0  0  0  0  0
    3.1933    0.7162    0.2281 H   0  0  0  0  0  0  0  0  0  0  0  0
    2.5653   -3.0862   -0.8058 H   0  0  0  0  0  0  0  0  0  0  0  0
    2.1847   -2.3046   -2.3406 H   0  0  0  0  0  0  0  0  0  0  0  0
    0.6418   -1.9144    0.3116 H   0  0  0  0  0  0  0  0  0  0  0  0
    0.1724   -2.9191   -1.0736 H   0  0  0  0  0  0  0  0  0  0  0  0
    0.2041   -1.1564   -1.2467 H   0  0  0  0  0  0  0  0  0  0  0  0
    5.0457    0.7573   -0.4011 H   0  0  0  0  0  0  0  0  0  0  0  0
    7.3831    0.4642   -0.8369 H   0  0  0  0  0  0  0  0  0  0  0  0
    4.3159   -3.2788   -1.8803 H   0  0  0  0  0  0  0  0  0  0  0  0
   14.9315   -1.4222   -1.0700 H   0  0  0  0  0  0  0  0  0  0  0  0
   13.7098   -2.6004   -1.6627 H   0  0  0  0  0  0  0  0  0  0  0  0
   13.3637   -1.5971   -0.2189 H   0  0  0  0  0  0  0  0  0  0  0  0
   12.5896    1.8280   -2.3087 H   0  0  0  0  0  0  0  0  0  0  0  0
   10.2156    2.5942   -2.6011 H   0  0  0  0  0  0  0  0  0  0  0  0
    8.3698    0.9626   -2.4843 H   0  0  0  0  0  0  0  0  0  0  0  0
  1  2  1  0
  1 28  1  0
  1 29  1  0
  1 30  1  0
  2  3  1  0
  2 31  1  0
  2 32  1  0
  3  4  1  0
  3  6  1  0
  4  5  1  0
  4 33  1  0
  4 34  1  0
  5 35  1  0
  5 36  1  0
  5 37  1  0
  6  7  2  0
  6 11  1  0
  7  8  1  0
  7 38  1  0
  8  9  2  0
  8 39  1  0
  9 10  1  0
  9 27  1  0
 10 11  2  0
 10 12  1  0
 11 40  1  0
 12 13  1  0
 13 14  2  0
 13 15  1  0
 15 16  1  0
 15 27  2  0
 16 17  2  0
 16 18  1  0
 18 19  1  0
 19 20  1  0
 19 26  2  0
 20 21  1  0
 20 23  2  0
 21 22  1  0
 22 41  1  0
 22 42  1  0
 22 43  1  0
 23 24  1  0
 23 44  1  0
 24 25  2  0
 24 45  1  0
 25 26  1  0
 25 46  1  0
 26 27  1  0
M  END

