
     RDKit          3D

 59 63  0  0  0  0  0  0  0  0999 V2000
    2.8977    0.0419    1.7119 C   0  0  0  0  0  0  0  0  0  0  0  0
    3.9173   -1.0539    1.8856 C   0  0  0  0  0  0  0  0  0  0  0  0
    4.9874   -0.9041    2.7740 C   0  0  0  0  0  0  0  0  0  0  0  0
    5.9284   -1.8284    2.9687 N   0  0  0  0  0  0  0  0  0  0  0  0
    5.8122   -2.9407    2.2467 C   0  0  0  0  0  0  0  0  0  0  0  0
    7.0142   -4.2349    2.3898 S   0  0  0  0  0  0  0  0  0  0  0  0
    8.1458   -3.5797    3.6685 C   0  0  0  0  0  0  0  0  0  0  0  0
    7.6764   -3.8184    5.1016 C   0  0  1  0  0  0  0  0  0  0  0  0
    6.7067   -3.3033    5.2392 H   0  0  0  0  0  0  0  0  0  0  0  0
    7.5628   -5.2842    5.5435 C   0  0  0  0  0  0  0  0  0  0  0  0
    7.8527   -5.1831    7.0449 C   0  0  0  0  0  0  0  0  0  0  0  0
    8.9234   -4.0872    7.0785 C   0  0  0  0  0  0  0  0  0  0  0  0
    8.6426   -3.2281    5.9784 O   0  0  0  0  0  0  0  0  0  0  0  0
    4.8411   -3.1994    1.3650 N   0  0  0  0  0  0  0  0  0  0  0  0
    3.8908   -2.2835    1.1765 C   0  0  0  0  0  0  0  0  0  0  0  0
    2.7791   -2.6008    0.1906 C   0  0  1  0  0  0  0  0  0  0  0  0
    2.4264   -1.6379   -0.2106 H   0  0  0  0  0  0  0  0  0  0  0  0
    3.2083   -3.4772   -1.0089 C   0  0  0  0  0  0  0  0  0  0  0  0
    3.2872   -4.9752   -0.6854 C   0  0  0  0  0  0  0  0  0  0  0  0
    2.0247   -5.4695    0.0214 C   0  0  0  0  0  0  0  0  0  0  0  0
    1.7446   -4.6439    1.1978 N   0  0  0  0  0  0  0  0  0  0  0  0
    1.4210   -5.2722    2.3749 C   0  0  0  0  0  0  0  0  0  0  0  0
    1.2814   -6.4925    2.4409 O   0  0  0  0  0  0  0  0  0  0  0  0
    1.2327   -4.4935    3.6355 C   0  0  0  0  0  0  0  0  0  0  0  0
    1.6615   -3.2767    4.1452 C   0  0  0  0  0  0  0  0  0  0  0  0
    1.2256   -3.2106    5.5092 C   0  0  0  0  0  0  0  0  0  0  0  0
    1.3509   -2.2521    6.5371 C   0  0  0  0  0  0  0  0  0  0  0  0
    0.7959   -2.5230    7.7810 C   0  0  0  0  0  0  0  0  0  0  0  0
    0.1128   -3.7382    8.0275 C   0  0  0  0  0  0  0  0  0  0  0  0
   -0.0292   -4.7032    7.0373 C   0  0  0  0  0  0  0  0  0  0  0  0
    0.5330   -4.4305    5.7791 C   0  0  0  0  0  0  0  0  0  0  0  0
    0.5571   -5.1735    4.6303 N   0  0  0  0  0  0  0  0  0  0  0  0
    0.2583   -6.1331    4.4952 H   0  0  0  0  0  0  0  0  0  0  0  0
    1.5444   -3.2387    0.8842 C   0  0  0  0  0  0  0  0  0  0  0  0
    3.1290    0.8928    2.3699 H   0  0  0  0  0  0  0  0  0  0  0  0
    1.8751   -0.2916    1.9533 H   0  0  0  0  0  0  0  0  0  0  0  0
    2.8748    0.4221    0.6766 H   0  0  0  0  0  0  0  0  0  0  0  0
    5.0846    0.0194    3.3594 H   0  0  0  0  0  0  0  0  0  0  0  0
    8.2792   -2.5042    3.4933 H   0  0  0  0  0  0  0  0  0  0  0  0
    9.1066   -4.0891    3.4944 H   0  0  0  0  0  0  0  0  0  0  0  0
    8.3364   -5.8926    5.0427 H   0  0  0  0  0  0  0  0  0  0  0  0
    6.5845   -5.7250    5.3065 H   0  0  0  0  0  0  0  0  0  0  0  0
    8.1906   -6.1294    7.4938 H   0  0  0  0  0  0  0  0  0  0  0  0
    6.9498   -4.8561    7.5868 H   0  0  0  0  0  0  0  0  0  0  0  0
    9.9384   -4.5183    6.9701 H   0  0  0  0  0  0  0  0  0  0  0  0
    8.9108   -3.4975    8.0111 H   0  0  0  0  0  0  0  0  0  0  0  0
    4.1718   -3.1206   -1.4056 H   0  0  0  0  0  0  0  0  0  0  0  0
    2.4611   -3.3215   -1.8081 H   0  0  0  0  0  0  0  0  0  0  0  0
    4.1561   -5.1631   -0.0401 H   0  0  0  0  0  0  0  0  0  0  0  0
    3.4268   -5.5500   -1.6163 H   0  0  0  0  0  0  0  0  0  0  0  0
    2.1206   -6.5086    0.3558 H   0  0  0  0  0  0  0  0  0  0  0  0
    1.1539   -5.4216   -0.6639 H   0  0  0  0  0  0  0  0  0  0  0  0
    2.2615   -2.5308    3.6330 H   0  0  0  0  0  0  0  0  0  0  0  0
    1.8785   -1.3119    6.3558 H   0  0  0  0  0  0  0  0  0  0  0  0
    0.8857   -1.7898    8.5863 H   0  0  0  0  0  0  0  0  0  0  0  0
   -0.3112   -3.9208    9.0182 H   0  0  0  0  0  0  0  0  0  0  0  0
   -0.5564   -5.6405    7.2305 H   0  0  0  0  0  0  0  0  0  0  0  0
    1.2548   -2.6889    1.7845 H   0  0  0  0  0  0  0  0  0  0  0  0
    0.6953   -3.1585    0.1757 H   0  0  0  0  0  0  0  0  0  0  0  0
  1  2  1  0
  1 35  1  0
  1 36  1  0
  1 37  1  0
  2  3  2  0
  2 15  1  0
  3  4  1  0
  3 38  1  0
  4  5  2  0
  5  6  1  0
  5 14  1  0
  6  7  1  0
  7  8  1  0
  7 39  1  0
  7 40  1  0
  8  9  1  6
  8 10  1  0
  8 13  1  0
 10 11  1  0
 10 41  1  0
 10 42  1  0
 11 12  1  0
 11 43  1  0
 11 44  1  0
 12 13  1  0
 12 45  1  0
 12 46  1  0
 14 15  2  0
 15 16  1  0
 16 17  1  6
 16 18  1  0
 16 34  1  0
 18 19  1  0
 18 47  1  0
 18 48  1  0
 19 20  1  0
 19 49  1  0
 19 50  1  0
 20 21  1  0
 20 51  1  0
 20 52  1  0
 21 22  1  0
 21 34  1  0
 22 23  2  0
 22 24  1  0
 24 25  2  0
 24 32  1  0
 25 26  1  0
 25 53  1  0
 26 27  2  0
 26 31  1  0
 27 28  1  0
 27 54  1  0
 28 29  2  0
 28 55  1  0
 29 30  1  0
 29 56  1  0
 30 31  2  0
 30 57  1  0
 31 32  1  0
 32 33  1  0
 34 58  1  0
 34 59  1  0
M  END

