
     RDKit          3D

 69 74  0  0  0  0  0  0  0  0999 V2000
    1.3175   -0.8402    1.8118 C   0  0  0  0  0  0  0  0  0  0  0  0
    1.9620   -0.2827    0.6847 O   0  0  0  0  0  0  0  0  0  0  0  0
    2.5985   -1.0889   -0.1902 C   0  0  0  0  0  0  0  0  0  0  0  0
    2.6837   -2.4684   -0.0628 C   0  0  0  0  0  0  0  0  0  0  0  0
    3.3742   -3.2211   -1.0279 C   0  0  0  0  0  0  0  0  0  0  0  0
    3.9935   -2.6489   -2.1367 C   0  0  0  0  0  0  0  0  0  0  0  0
    4.7131   -3.4672   -3.1088 C   0  0  0  0  0  0  0  0  0  0  0  0
    4.6677   -4.8217   -3.1994 C   0  0  0  0  0  0  0  0  0  0  0  0
    5.3501   -5.7276   -4.1203 C   0  0  0  0  0  0  0  0  0  0  0  0
    4.9882   -6.9623   -3.9249 O   0  0  0  0  0  0  0  0  0  0  0  0
    5.3319   -8.1027   -4.8381 B   0  0  2  0  0  0  0  0  0  0  0  0
    4.3170   -8.2567   -5.7497 F   0  0  0  0  0  0  0  0  0  0  0  0
    5.5773   -9.2135   -4.0867 F   0  0  0  0  0  0  0  0  0  0  0  0
    6.5852   -7.7241   -5.5726 O   0  0  0  0  0  0  0  0  0  0  0  0
    6.9389   -6.4943   -5.7830 C   0  0  0  0  0  0  0  0  0  0  0  0
    8.0303   -6.2839   -6.7257 C   0  0  0  0  0  0  0  0  0  0  0  0
    8.5783   -7.3262   -7.4076 C   0  0  0  0  0  0  0  0  0  0  0  0
    9.6201   -7.3617   -8.4243 C   0  0  0  0  0  0  0  0  0  0  0  0
    9.6013   -8.4766   -9.2636 C   0  0  0  0  0  0  0  0  0  0  0  0
   10.4469   -8.6200  -10.3779 C   0  0  0  0  0  0  0  0  0  0  0  0
   11.3682   -7.6264  -10.6709 C   0  0  0  0  0  0  0  0  0  0  0  0
   12.2058   -7.6534  -11.7278 O   0  0  0  0  0  0  0  0  0  0  0  0
   12.1676   -8.7447  -12.6248 C   0  0  0  0  0  0  0  0  0  0  0  0
   11.4925   -6.4808   -9.8095 C   0  0  0  0  0  0  0  0  0  0  0  0
   12.4790   -5.4943  -10.0716 C   0  0  0  0  0  0  0  0  0  0  0  0
   12.6469   -4.4185   -9.2235 C   0  0  0  0  0  0  0  0  0  0  0  0
   11.8431   -4.3089   -8.0688 C   0  0  0  0  0  0  0  0  0  0  0  0
   10.8666   -5.2499   -7.7999 C   0  0  0  0  0  0  0  0  0  0  0  0
   10.6324   -6.3523   -8.6668 C   0  0  0  0  0  0  0  0  0  0  0  0
    6.3178   -5.4095   -5.1089 C   0  0  0  0  0  0  0  0  0  0  0  0
    6.7632   -4.0120   -5.4070 C   0  0  0  0  0  0  0  0  0  0  0  0
    6.1409   -3.2643   -6.4222 C   0  0  0  0  0  0  0  0  0  0  0  0
    6.5724   -1.9687   -6.7249 C   0  0  0  0  0  0  0  0  0  0  0  0
    7.6360   -1.3992   -6.0176 C   0  0  0  0  0  0  0  0  0  0  0  0
    8.2663   -2.1329   -5.0069 C   0  0  0  0  0  0  0  0  0  0  0  0
    7.8343   -3.4279   -4.7062 C   0  0  0  0  0  0  0  0  0  0  0  0
    3.9155   -1.2094   -2.2886 C   0  0  0  0  0  0  0  0  0  0  0  0
    4.4957   -0.5094   -3.3838 C   0  0  0  0  0  0  0  0  0  0  0  0
    4.4012    0.8639   -3.4963 C   0  0  0  0  0  0  0  0  0  0  0  0
    3.7145    1.6205   -2.5207 C   0  0  0  0  0  0  0  0  0  0  0  0
    3.1309    0.9812   -1.4470 C   0  0  0  0  0  0  0  0  0  0  0  0
    3.2149   -0.4301   -1.3076 C   0  0  0  0  0  0  0  0  0  0  0  0
    0.8732   -0.0009    2.3625 H   0  0  0  0  0  0  0  0  0  0  0  0
    2.0317   -1.3657    2.4695 H   0  0  0  0  0  0  0  0  0  0  0  0
    0.5182   -1.5420    1.5164 H   0  0  0  0  0  0  0  0  0  0  0  0
    2.2296   -2.9847    0.7823 H   0  0  0  0  0  0  0  0  0  0  0  0
    3.4349   -4.3004   -0.8784 H   0  0  0  0  0  0  0  0  0  0  0  0
    5.3352   -2.9293   -3.8185 H   0  0  0  0  0  0  0  0  0  0  0  0
    4.0187   -5.3874   -2.5266 H   0  0  0  0  0  0  0  0  0  0  0  0
    8.3399   -5.2555   -6.8888 H   0  0  0  0  0  0  0  0  0  0  0  0
    8.1149   -8.2983   -7.2094 H   0  0  0  0  0  0  0  0  0  0  0  0
    8.8688   -9.2636   -9.0672 H   0  0  0  0  0  0  0  0  0  0  0  0
   10.3555   -9.5084  -11.0015 H   0  0  0  0  0  0  0  0  0  0  0  0
   12.9227   -8.5405  -13.3950 H   0  0  0  0  0  0  0  0  0  0  0  0
   11.1781   -8.8407  -13.1048 H   0  0  0  0  0  0  0  0  0  0  0  0
   12.4152   -9.6944  -12.1192 H   0  0  0  0  0  0  0  0  0  0  0  0
   13.1094   -5.6136  -10.9529 H   0  0  0  0  0  0  0  0  0  0  0  0
   13.4111   -3.6663   -9.4338 H   0  0  0  0  0  0  0  0  0  0  0  0
   11.9974   -3.4795   -7.3740 H   0  0  0  0  0  0  0  0  0  0  0  0
   10.2881   -5.1576   -6.8838 H   0  0  0  0  0  0  0  0  0  0  0  0
    5.3116   -3.7088   -6.9782 H   0  0  0  0  0  0  0  0  0  0  0  0
    6.0784   -1.4047   -7.5204 H   0  0  0  0  0  0  0  0  0  0  0  0
    7.9756   -0.3879   -6.2553 H   0  0  0  0  0  0  0  0  0  0  0  0
    9.0986   -1.6949   -4.4497 H   0  0  0  0  0  0  0  0  0  0  0  0
    8.3273   -3.9986   -3.9150 H   0  0  0  0  0  0  0  0  0  0  0  0
    5.0259   -1.0578   -4.1618 H   0  0  0  0  0  0  0  0  0  0  0  0
    4.8610    1.3667   -4.3509 H   0  0  0  0  0  0  0  0  0  0  0  0
    3.6441    2.7065   -2.6191 H   0  0  0  0  0  0  0  0  0  0  0  0
    2.5927    1.5459   -0.6856 H   0  0  0  0  0  0  0  0  0  0  0  0
  1  2  1  0
  1 43  1  0
  1 44  1  0
  1 45  1  0
  2  3  1  0
  3  4  2  0
  3 42  1  0
  4  5  1  0
  4 46  1  0
  5  6  2  0
  5 47  1  0
  6  7  1  0
  6 37  1  0
  7  8  2  0
  7 48  1  0
  8  9  1  0
  8 49  1  0
  9 10  1  0
  9 30  2  0
 10 11  1  0
 11 12  1  6
 11 13  1  0
 11 14  1  0
 14 15  1  0
 15 16  2  0
 15 30  1  0
 16 17  1  0
 16 50  1  0
 17 18  2  0
 17 51  1  0
 18 19  1  0
 18 29  1  0
 19 20  2  0
 19 52  1  0
 20 21  1  0
 20 53  1  0
 21 22  2  0
 21 24  1  0
 22 23  1  0
 23 54  1  0
 23 55  1  0
 23 56  1  0
 24 25  2  0
 24 29  1  0
 25 26  1  0
 25 57  1  0
 26 27  2  0
 26 58  1  0
 27 28  1  0
 27 59  1  0
 28 29  2  0
 28 60  1  0
 30 31  1  0
 31 32  2  0
 31 36  1  0
 32 33  1  0
 32 61  1  0
 33 34  2  0
 33 62  1  0
 34 35  1  0
 34 63  1  0
 35 36  2  0
 35 64  1  0
 36 65  1  0
 37 38  1  0
 37 42  2  0
 38 39  2  0
 38 66  1  0
 39 40  1  0
 39 67  1  0
 40 41  2  0
 40 68  1  0
 41 42  1  0
 41 69  1  0
M  CHG  2  11  -1  22   1
M  END

