
     RDKit          3D

 41 43  0  0  0  0  0  0  0  0999 V2000
    0.6716    0.2922   -0.2039 C   0  0  0  0  0  0  0  0  0  0  0  0
    1.6644    0.8159   -1.1162 N   0  0  0  0  0  0  0  0  0  0  0  0
    2.4762    1.9194   -0.9869 C   0  0  0  0  0  0  0  0  0  0  0  0
    2.4646    2.8406    0.2037 C   0  0  0  0  0  0  0  0  0  0  0  0
    3.6520    3.6863    0.1975 N   0  0  0  0  0  0  0  0  0  0  0  0
    3.5799    4.9990   -0.1697 C   0  0  0  0  0  0  0  0  0  0  0  0
    4.6968    5.7731   -0.3296 C   0  0  0  0  0  0  0  0  0  0  0  0
    4.3720    7.6119   -0.7155 Br  0  0  0  0  0  0  0  0  0  0  0  0
    5.9929    5.1604   -0.1972 C   0  0  0  0  0  0  0  0  0  0  0  0
    7.3324    5.8468   -0.4676 C   0  0  1  0  0  0  0  0  0  0  0  0
    7.2082    7.0811   -0.9623 F   0  0  0  0  0  0  0  0  0  0  0  0
    8.0518    5.9408    0.6604 F   0  0  0  0  0  0  0  0  0  0  0  0
    8.0507    5.1439   -1.3575 F   0  0  0  0  0  0  0  0  0  0  0  0
    6.0516    3.8375    0.1876 C   0  0  0  0  0  0  0  0  0  0  0  0
    7.2460    3.2203    0.3524 O   0  0  0  0  0  0  0  0  0  0  0  0
    7.5688    2.1206   -0.4241 C   0  0  0  0  0  0  0  0  0  0  0  0
    8.6341    1.3475    0.0296 C   0  0  0  0  0  0  0  0  0  0  0  0
    9.0631    0.2360   -0.7193 C   0  0  0  0  0  0  0  0  0  0  0  0
   10.0881   -0.5692   -0.2598 N   0  0  0  0  0  0  0  0  0  0  0  0
    8.3972   -0.0743   -1.9252 C   0  0  0  0  0  0  0  0  0  0  0  0
    7.3398    0.7283   -2.3427 C   0  0  0  0  0  0  0  0  0  0  0  0
    6.5276    0.3294   -3.8520 Cl  0  0  0  0  0  0  0  0  0  0  0  0
    6.9036    1.8401   -1.6218 C   0  0  0  0  0  0  0  0  0  0  0  0
    4.8627    3.0341    0.4915 C   0  0  0  0  0  0  0  0  0  0  0  0
    4.8798    1.8918    0.9151 O   0  0  0  0  0  0  0  0  0  0  0  0
    3.2901    2.0466   -1.9895 N   0  0  0  0  0  0  0  0  0  0  0  0
    3.0031    0.9934   -2.8099 N   0  0  0  0  0  0  0  0  0  0  0  0
    3.6234    0.7731   -3.5810 H   0  0  0  0  0  0  0  0  0  0  0  0
    2.0208    0.1607   -2.3157 C   0  0  0  0  0  0  0  0  0  0  0  0
    1.5554   -0.8642   -2.7652 O   0  0  0  0  0  0  0  0  0  0  0  0
    1.1183    0.0179    0.7654 H   0  0  0  0  0  0  0  0  0  0  0  0
    0.2578   -0.6127   -0.6708 H   0  0  0  0  0  0  0  0  0  0  0  0
   -0.1454    1.0124   -0.0375 H   0  0  0  0  0  0  0  0  0  0  0  0
    2.4670    2.2384    1.1245 H   0  0  0  0  0  0  0  0  0  0  0  0
    1.5702    3.4826    0.2114 H   0  0  0  0  0  0  0  0  0  0  0  0
    2.5805    5.4089   -0.3144 H   0  0  0  0  0  0  0  0  0  0  0  0
    9.1156    1.6147    0.9718 H   0  0  0  0  0  0  0  0  0  0  0  0
   10.7102   -0.1770    0.4361 H   0  0  0  0  0  0  0  0  0  0  0  0
   10.5493   -1.1657   -0.9353 H   0  0  0  0  0  0  0  0  0  0  0  0
    8.7007   -0.9349   -2.5231 H   0  0  0  0  0  0  0  0  0  0  0  0
    6.0697    2.4420   -1.9785 H   0  0  0  0  0  0  0  0  0  0  0  0
  1  2  1  0
  1 31  1  0
  1 32  1  0
  1 33  1  0
  2  3  1  0
  2 29  1  0
  3  4  1  0
  3 26  2  0
  4  5  1  0
  4 34  1  0
  4 35  1  0
  5  6  1  0
  5 24  1  0
  6  7  2  0
  6 36  1  0
  7  8  1  0
  7  9  1  0
  9 10  1  0
  9 14  2  0
 10 11  1  6
 10 12  1  0
 10 13  1  0
 14 15  1  0
 14 24  1  0
 15 16  1  0
 16 17  2  0
 16 23  1  0
 17 18  1  0
 17 37  1  0
 18 19  1  0
 18 20  2  0
 19 38  1  0
 19 39  1  0
 20 21  1  0
 20 40  1  0
 21 22  1  0
 21 23  2  0
 23 41  1  0
 24 25  2  0
 26 27  1  0
 27 28  1  0
 27 29  1  0
 29 30  2  0
M  END

