
     RDKit          3D

 54 54  0  0  0  0  0  0  0  0999 V2000
   23.8381   -2.3891  -10.3053 O   0  0  0  0  0  0  0  0  0  0  0  0
   22.6686   -2.6402  -10.3978 C   0  0  0  0  0  0  0  0  0  0  0  0
   22.0734   -2.9101  -11.5727 O   0  0  0  0  0  0  0  0  0  0  0  0
   21.7177   -2.7319   -9.2018 C   0  0  1  0  0  0  0  0  0  0  0  0
   22.1273   -1.9055   -7.9767 C   0  0  0  0  0  0  0  0  0  0  0  0
   20.6011   -1.8164   -6.9551 S   0  0  0  0  0  0  0  0  0  0  0  0
   19.5065   -2.3798   -8.3997 C   0  0  2  0  0  0  0  0  0  0  0  0
   18.8779   -3.7441   -8.1143 C   0  0  0  0  0  0  0  0  0  0  0  0
   17.8462   -4.1743   -9.1625 C   0  0  0  0  0  0  0  0  0  0  0  0
   17.2207   -5.5402   -8.8682 C   0  0  0  0  0  0  0  0  0  0  0  0
   16.1869   -5.9763   -9.9105 C   0  0  0  0  0  0  0  0  0  0  0  0
   15.5298   -7.3141   -9.6041 C   0  0  0  0  0  0  0  0  0  0  0  0
   14.8092   -7.2184   -8.3918 O   0  0  0  0  0  0  0  0  0  0  0  0
   14.1928   -8.4228   -7.9715 C   0  0  0  0  0  0  0  0  0  0  0  0
   13.3701   -8.0757   -6.7353 C   0  0  1  0  0  0  0  0  0  0  0  0
   14.0620   -7.8211   -5.9054 H   0  0  0  0  0  0  0  0  0  0  0  0
   12.5457   -6.9577   -7.0348 O   0  0  0  0  0  0  0  0  0  0  0  0
   12.3985   -9.1679   -6.2514 C   0  0  2  0  0  0  0  0  0  0  0  0
   11.8649   -9.5763   -7.1344 H   0  0  0  0  0  0  0  0  0  0  0  0
   11.4901   -8.5937   -5.3381 O   0  0  0  0  0  0  0  0  0  0  0  0
   13.0578  -10.3355   -5.5123 C   0  0  2  0  0  0  0  0  0  0  0  0
   13.5656   -9.9205   -4.6214 H   0  0  0  0  0  0  0  0  0  0  0  0
   13.9980  -10.9534   -6.3966 O   0  0  0  0  0  0  0  0  0  0  0  0
   12.0243  -11.3835   -5.0693 C   0  0  1  0  0  0  0  0  0  0  0  0
   11.1524  -10.8679   -4.6412 H   0  0  0  0  0  0  0  0  0  0  0  0
   11.5622  -12.1118   -6.2010 O   0  0  0  0  0  0  0  0  0  0  0  0
   12.5742  -12.3730   -4.0352 C   0  0  0  0  0  0  0  0  0  0  0  0
   11.6711  -13.4233   -3.8273 O   0  0  0  0  0  0  0  0  0  0  0  0
   20.3512   -2.3588   -9.5872 N   0  0  0  0  0  0  0  0  0  0  0  0
   21.1213   -3.0410  -11.3958 H   0  0  0  0  0  0  0  0  0  0  0  0
   21.7002   -3.7981   -8.9113 H   0  0  0  0  0  0  0  0  0  0  0  0
   22.4645   -0.8994   -8.2711 H   0  0  0  0  0  0  0  0  0  0  0  0
   22.9343   -2.3856   -7.4071 H   0  0  0  0  0  0  0  0  0  0  0  0
   18.7108   -1.6298   -8.5219 H   0  0  0  0  0  0  0  0  0  0  0  0
   18.4036   -3.6977   -7.1195 H   0  0  0  0  0  0  0  0  0  0  0  0
   19.6740   -4.5035   -8.0256 H   0  0  0  0  0  0  0  0  0  0  0  0
   18.3246   -4.1874  -10.1572 H   0  0  0  0  0  0  0  0  0  0  0  0
   17.0470   -3.4119   -9.2216 H   0  0  0  0  0  0  0  0  0  0  0  0
   16.7403   -5.5255   -7.8754 H   0  0  0  0  0  0  0  0  0  0  0  0
   18.0186   -6.3038   -8.8074 H   0  0  0  0  0  0  0  0  0  0  0  0
   16.6599   -6.0480  -10.9060 H   0  0  0  0  0  0  0  0  0  0  0  0
   15.3964   -5.2096   -9.9979 H   0  0  0  0  0  0  0  0  0  0  0  0
   16.2987   -8.1104   -9.5219 H   0  0  0  0  0  0  0  0  0  0  0  0
   14.8487   -7.6078  -10.4290 H   0  0  0  0  0  0  0  0  0  0  0  0
   14.9407   -9.2009   -7.7468 H   0  0  0  0  0  0  0  0  0  0  0  0
   13.5255   -8.8088   -8.7687 H   0  0  0  0  0  0  0  0  0  0  0  0
   13.0971   -6.3449   -7.5449 H   0  0  0  0  0  0  0  0  0  0  0  0
   11.2666   -7.7220   -5.7009 H   0  0  0  0  0  0  0  0  0  0  0  0
   14.6223  -11.4704   -5.8714 H   0  0  0  0  0  0  0  0  0  0  0  0
   12.3401  -12.2257   -6.7732 H   0  0  0  0  0  0  0  0  0  0  0  0
   12.7467  -11.8619   -3.0724 H   0  0  0  0  0  0  0  0  0  0  0  0
   13.5653  -12.7539   -4.3814 H   0  0  0  0  0  0  0  0  0  0  0  0
   11.2926  -13.6067   -4.7030 H   0  0  0  0  0  0  0  0  0  0  0  0
   20.3732   -1.4013   -9.9443 H   0  0  0  0  0  0  0  0  0  0  0  0
  1  2  2  0
  2  3  1  0
  2  4  1  0
  3 30  1  0
  4  5  1  0
  4 29  1  0
  4 31  1  1
  5  6  1  0
  5 32  1  0
  5 33  1  0
  6  7  1  0
  7  8  1  0
  7 29  1  0
  7 34  1  6
  8  9  1  0
  8 35  1  0
  8 36  1  0
  9 10  1  0
  9 37  1  0
  9 38  1  0
 10 11  1  0
 10 39  1  0
 10 40  1  0
 11 12  1  0
 11 41  1  0
 11 42  1  0
 12 13  1  0
 12 43  1  0
 12 44  1  0
 13 14  1  0
 14 15  1  0
 14 45  1  0
 14 46  1  0
 15 16  1  1
 15 17  1  0
 15 18  1  0
 17 47  1  0
 18 19  1  6
 18 20  1  0
 18 21  1  0
 20 48  1  0
 21 22  1  1
 21 23  1  0
 21 24  1  0
 23 49  1  0
 24 25  1  1
 24 26  1  0
 24 27  1  0
 26 50  1  0
 27 28  1  0
 27 51  1  0
 27 52  1  0
 28 53  1  0
 29 54  1  0
M  END

