
     RDKit          3D

 61 63  0  0  0  0  0  0  0  0999 V2000
    3.6165    0.6858    1.3298 C   0  0  0  0  0  0  0  0  0  0  0  0
    3.1102    0.3279   -0.0692 C   0  0  2  0  0  0  0  0  0  0  0  0
    2.0258    0.5216   -0.1041 H   0  0  0  0  0  0  0  0  0  0  0  0
    3.3394   -1.1578   -0.3966 C   0  0  0  0  0  0  0  0  0  0  0  0
    2.9759   -1.5331   -1.8463 C   0  0  1  0  0  0  0  0  0  0  0  0
    3.4120   -2.5249   -2.0520 H   0  0  0  0  0  0  0  0  0  0  0  0
    1.4593   -1.6201   -2.1437 C   0  0  0  0  0  0  0  0  0  0  0  0
    0.7320   -2.6775   -1.4284 N   0  0  0  0  0  0  0  0  0  0  0  0
    0.0768   -2.3913   -0.2637 C   0  0  0  0  0  0  0  0  0  0  0  0
   -0.4837   -3.1828    0.4724 O   0  0  0  0  0  0  0  0  0  0  0  0
    0.0858   -1.0600    0.0446 O   0  0  0  0  0  0  0  0  0  0  0  0
    0.7125   -4.1063   -1.9221 C   0  0  1  0  0  0  0  0  0  0  0  0
    1.4872   -5.0054   -0.9382 C   0  0  0  0  0  0  0  0  0  0  0  0
   -0.7462   -4.5887   -2.0708 C   0  0  0  0  0  0  0  0  0  0  0  0
    1.3665   -4.2149   -3.3112 C   0  0  0  0  0  0  0  0  0  0  0  0
    3.6581   -0.5485   -2.8144 C   0  0  0  0  0  0  0  0  0  0  0  0
    3.3477    0.8394   -2.4820 N   0  0  0  0  0  0  0  0  0  0  0  0
    2.7530    1.6831   -3.3836 C   0  0  0  0  0  0  0  0  0  0  0  0
    2.4773    3.0508   -3.0980 C   0  0  0  0  0  0  0  0  0  0  0  0
    1.8684    3.8016   -4.1014 C   0  0  0  0  0  0  0  0  0  0  0  0
    1.5357    5.2478   -3.9123 C   0  0  0  0  0  0  0  0  0  0  0  0
    1.8617    5.9488   -2.7379 C   0  0  0  0  0  0  0  0  0  0  0  0
    1.5276    7.2890   -2.6179 C   0  0  0  0  0  0  0  0  0  0  0  0
    1.8433    7.9425   -1.4998 F   0  0  0  0  0  0  0  0  0  0  0  0
    0.8636    7.9937   -3.6392 C   0  0  0  0  0  0  0  0  0  0  0  0
    0.5261    9.3742   -3.5007 C   0  0  0  0  0  0  0  0  0  0  0  0
    0.2520   10.4963   -3.3872 N   0  0  0  0  0  0  0  0  0  0  0  0
    0.5509    7.2665   -4.8037 C   0  0  0  0  0  0  0  0  0  0  0  0
   -0.0774    7.9024   -5.7912 F   0  0  0  0  0  0  0  0  0  0  0  0
    0.8742    5.9271   -4.9494 C   0  0  0  0  0  0  0  0  0  0  0  0
    1.5430    3.2781   -5.2925 N   0  0  0  0  0  0  0  0  0  0  0  0
    1.8383    1.9826   -5.4702 C   0  0  0  0  0  0  0  0  0  0  0  0
    1.4985    1.4357   -6.6681 N   0  0  0  0  0  0  0  0  0  0  0  0
    2.4248    1.1721   -4.5792 N   0  0  0  0  0  0  0  0  0  0  0  0
    3.7685    1.2163   -1.1398 C   0  0  0  0  0  0  0  0  0  0  0  0
    4.7034    0.5166    1.4202 H   0  0  0  0  0  0  0  0  0  0  0  0
    3.1209    0.0696    2.0966 H   0  0  0  0  0  0  0  0  0  0  0  0
    3.4212    1.7430    1.5744 H   0  0  0  0  0  0  0  0  0  0  0  0
    2.7884   -1.7893    0.3186 H   0  0  0  0  0  0  0  0  0  0  0  0
    4.4103   -1.3878   -0.2421 H   0  0  0  0  0  0  0  0  0  0  0  0
    0.9769   -0.6634   -1.9160 H   0  0  0  0  0  0  0  0  0  0  0  0
    1.3260   -1.7675   -3.2221 H   0  0  0  0  0  0  0  0  0  0  0  0
   -0.4207   -1.0012    0.8699 H   0  0  0  0  0  0  0  0  0  0  0  0
    1.0447   -4.9553    0.0648 H   0  0  0  0  0  0  0  0  0  0  0  0
    2.5435   -4.6983   -0.8758 H   0  0  0  0  0  0  0  0  0  0  0  0
    1.4591   -6.0528   -1.2783 H   0  0  0  0  0  0  0  0  0  0  0  0
   -1.2674   -4.5997   -1.1072 H   0  0  0  0  0  0  0  0  0  0  0  0
   -0.7577   -5.6078   -2.4878 H   0  0  0  0  0  0  0  0  0  0  0  0
   -1.2969   -3.9324   -2.7636 H   0  0  0  0  0  0  0  0  0  0  0  0
    2.4194   -3.9001   -3.3211 H   0  0  0  0  0  0  0  0  0  0  0  0
    0.8198   -3.6432   -4.0759 H   0  0  0  0  0  0  0  0  0  0  0  0
    1.3416   -5.2714   -3.6154 H   0  0  0  0  0  0  0  0  0  0  0  0
    3.3577   -0.7252   -3.8525 H   0  0  0  0  0  0  0  0  0  0  0  0
    4.7547   -0.6862   -2.7488 H   0  0  0  0  0  0  0  0  0  0  0  0
    2.7284    3.4966   -2.1421 H   0  0  0  0  0  0  0  0  0  0  0  0
    2.3786    5.4824   -1.9006 H   0  0  0  0  0  0  0  0  0  0  0  0
    0.6199    5.3928   -5.8635 H   0  0  0  0  0  0  0  0  0  0  0  0
    1.1493    2.0408   -7.3974 H   0  0  0  0  0  0  0  0  0  0  0  0
    1.7999    0.4966   -6.8841 H   0  0  0  0  0  0  0  0  0  0  0  0
    3.5365    2.2686   -0.9430 H   0  0  0  0  0  0  0  0  0  0  0  0
    4.8712    1.1172   -1.0695 H   0  0  0  0  0  0  0  0  0  0  0  0
  1  2  1  0
  1 36  1  0
  1 37  1  0
  1 38  1  0
  2  3  1  1
  2  4  1  0
  2 35  1  0
  4  5  1  0
  4 39  1  0
  4 40  1  0
  5  6  1  6
  5  7  1  0
  5 16  1  0
  7  8  1  0
  7 41  1  0
  7 42  1  0
  8  9  1  0
 12  8  1  1
  9 10  2  0
  9 11  1  0
 11 43  1  0
 12 13  1  0
 12 14  1  0
 12 15  1  0
 13 44  1  0
 13 45  1  0
 13 46  1  0
 14 47  1  0
 14 48  1  0
 14 49  1  0
 15 50  1  0
 15 51  1  0
 15 52  1  0
 16 17  1  0
 16 53  1  0
 16 54  1  0
 17 18  1  0
 17 35  1  0
 18 19  2  0
 18 34  1  0
 19 20  1  0
 19 55  1  0
 20 21  1  0
 20 31  2  0
 21 22  2  0
 21 30  1  0
 22 23  1  0
 22 56  1  0
 23 24  1  0
 23 25  2  0
 25 26  1  0
 25 28  1  0
 26 27  3  0
 28 29  1  0
 28 30  2  0
 30 57  1  0
 31 32  1  0
 32 33  1  0
 32 34  2  0
 33 58  1  0
 33 59  1  0
 35 60  1  0
 35 61  1  0
M  END

