
     RDKit          3D

 42 44  0  0  0  0  0  0  0  0999 V2000
    1.8034   -0.1592    0.8465 N   0  0  0  0  0  0  0  0  0  0  0  0
    3.1079    0.2194    0.6831 C   0  0  0  0  0  0  0  0  0  0  0  0
    3.9743   -0.0753    1.4888 O   0  0  0  0  0  0  0  0  0  0  0  0
    3.4181    1.0348   -0.5485 C   0  0  0  0  0  0  0  0  0  0  0  0
    2.4444    1.6993   -1.3121 C   0  0  0  0  0  0  0  0  0  0  0  0
    2.8100    2.4500   -2.4285 C   0  0  0  0  0  0  0  0  0  0  0  0
    4.1537    2.5311   -2.8238 C   0  0  0  0  0  0  0  0  0  0  0  0
    4.4932    3.4367   -3.9832 C   0  0  0  0  0  0  0  0  0  0  0  0
    3.9597    4.5342   -4.0625 O   0  0  0  0  0  0  0  0  0  0  0  0
    5.4285    3.0079   -4.9007 N   0  0  0  0  0  0  0  0  0  0  0  0
    5.8479    1.6328   -5.1361 C   0  0  0  0  0  0  0  0  0  0  0  0
    5.4473    1.1609   -6.5404 C   0  0  0  0  0  0  0  0  0  0  0  0
    5.9290    2.0786   -7.5576 N   0  0  0  0  0  0  0  0  0  0  0  0
    6.0158    1.6252   -8.8916 C   0  0  0  0  0  0  0  0  0  0  0  0
    5.4524    0.4041   -9.3137 C   0  0  0  0  0  0  0  0  0  0  0  0
    5.5920   -0.0419  -10.6322 C   0  0  0  0  0  0  0  0  0  0  0  0
    6.2807    0.7402  -11.5506 C   0  0  0  0  0  0  0  0  0  0  0  0
    6.4108    0.3191  -12.8202 F   0  0  0  0  0  0  0  0  0  0  0  0
    6.8431    1.9580  -11.1705 C   0  0  0  0  0  0  0  0  0  0  0  0
    6.7164    2.3885   -9.8522 C   0  0  0  0  0  0  0  0  0  0  0  0
    5.4684    3.4489   -7.3248 C   0  0  0  0  0  0  0  0  0  0  0  0
    5.8783    3.9330   -5.9360 C   0  0  0  0  0  0  0  0  0  0  0  0
    5.1305    1.8895   -2.0443 C   0  0  0  0  0  0  0  0  0  0  0  0
    4.7661    1.1592   -0.9141 C   0  0  0  0  0  0  0  0  0  0  0  0
    1.5983   -0.7627    1.6344 H   0  0  0  0  0  0  0  0  0  0  0  0
    1.1343   -0.1219    0.0901 H   0  0  0  0  0  0  0  0  0  0  0  0
    1.3922    1.6698   -1.0185 H   0  0  0  0  0  0  0  0  0  0  0  0
    2.0585    2.9998   -2.9985 H   0  0  0  0  0  0  0  0  0  0  0  0
    5.3939    0.9661   -4.3944 H   0  0  0  0  0  0  0  0  0  0  0  0
    6.9466    1.5610   -5.0356 H   0  0  0  0  0  0  0  0  0  0  0  0
    4.3408    1.0425   -6.5767 H   0  0  0  0  0  0  0  0  0  0  0  0
    5.8918    0.1685   -6.7068 H   0  0  0  0  0  0  0  0  0  0  0  0
    4.8844   -0.2136   -8.6182 H   0  0  0  0  0  0  0  0  0  0  0  0
    5.1554   -0.9894  -10.9548 H   0  0  0  0  0  0  0  0  0  0  0  0
    7.3906    2.5492  -11.9075 H   0  0  0  0  0  0  0  0  0  0  0  0
    7.1929    3.3248   -9.5564 H   0  0  0  0  0  0  0  0  0  0  0  0
    4.3627    3.5112   -7.4203 H   0  0  0  0  0  0  0  0  0  0  0  0
    5.8973    4.1211   -8.0788 H   0  0  0  0  0  0  0  0  0  0  0  0
    5.4379    4.9150   -5.7256 H   0  0  0  0  0  0  0  0  0  0  0  0
    6.9799    4.0093   -5.8883 H   0  0  0  0  0  0  0  0  0  0  0  0
    6.1868    1.9831   -2.3072 H   0  0  0  0  0  0  0  0  0  0  0  0
    5.5158    0.6745   -0.2860 H   0  0  0  0  0  0  0  0  0  0  0  0
  1  2  1  0
  1 25  1  0
  1 26  1  0
  2  3  2  0
  2  4  1  0
  4  5  2  0
  4 24  1  0
  5  6  1  0
  5 27  1  0
  6  7  2  0
  6 28  1  0
  7  8  1  0
  7 23  1  0
  8  9  2  0
  8 10  1  0
 10 11  1  0
 10 22  1  0
 11 12  1  0
 11 29  1  0
 11 30  1  0
 12 13  1  0
 12 31  1  0
 12 32  1  0
 13 14  1  0
 13 21  1  0
 14 15  2  0
 14 20  1  0
 15 16  1  0
 15 33  1  0
 16 17  2  0
 16 34  1  0
 17 18  1  0
 17 19  1  0
 19 20  2  0
 19 35  1  0
 20 36  1  0
 21 22  1  0
 21 37  1  0
 21 38  1  0
 22 39  1  0
 22 40  1  0
 23 24  2  0
 23 41  1  0
 24 42  1  0
M  END

