
     RDKit          3D

 35 37  0  0  0  0  0  0  0  0999 V2000
    1.1073   -0.6510   -0.3417 C   0  0  0  0  0  0  0  0  0  0  0  0
    2.4660    0.0552   -0.1778 C   0  0  1  0  0  0  0  0  0  0  0  0
    3.1163   -0.2849    1.0868 N   0  0  0  0  0  0  0  0  0  0  0  0
    2.8367    0.2811    2.3093 C   0  0  0  0  0  0  0  0  0  0  0  0
    1.7746    1.1915    2.5121 C   0  0  0  0  0  0  0  0  0  0  0  0
    1.5352    1.7416    3.7712 C   0  0  0  0  0  0  0  0  0  0  0  0
    2.3304    1.3886    4.8644 C   0  0  0  0  0  0  0  0  0  0  0  0
    2.0739    1.9319    6.1544 N   0  0  0  0  0  0  0  0  0  0  0  0
    0.9133    2.3248    6.7310 C   0  0  0  0  0  0  0  0  0  0  0  0
    1.1697    2.7572    7.9460 N   0  0  0  0  0  0  0  0  0  0  0  0
    2.5039    2.6198    8.1130 N   0  0  0  0  0  0  0  0  0  0  0  0
    3.0582    2.1325    7.0579 N   0  0  0  0  0  0  0  0  0  0  0  0
    3.3917    0.4893    4.6840 C   0  0  0  0  0  0  0  0  0  0  0  0
    3.6400   -0.0481    3.4298 C   0  0  0  0  0  0  0  0  0  0  0  0
    3.4126   -0.2540   -1.3294 C   0  0  0  0  0  0  0  0  0  0  0  0
    3.8853    0.7672   -2.1655 C   0  0  0  0  0  0  0  0  0  0  0  0
    4.7541    0.4953   -3.2252 C   0  0  0  0  0  0  0  0  0  0  0  0
    5.1656   -0.8202   -3.4525 C   0  0  0  0  0  0  0  0  0  0  0  0
    6.2547   -1.1731   -4.7723 Cl  0  0  0  0  0  0  0  0  0  0  0  0
    4.7123   -1.8579   -2.6322 C   0  0  0  0  0  0  0  0  0  0  0  0
    3.8385   -1.5690   -1.5825 C   0  0  0  0  0  0  0  0  0  0  0  0
    0.4366   -0.4167    0.4985 H   0  0  0  0  0  0  0  0  0  0  0  0
    1.2332   -1.7440   -0.3723 H   0  0  0  0  0  0  0  0  0  0  0  0
    0.6170   -0.3330   -1.2750 H   0  0  0  0  0  0  0  0  0  0  0  0
    2.2863    1.1457   -0.1927 H   0  0  0  0  0  0  0  0  0  0  0  0
    3.9936   -0.7845    1.0172 H   0  0  0  0  0  0  0  0  0  0  0  0
    1.1332    1.4896    1.6831 H   0  0  0  0  0  0  0  0  0  0  0  0
    0.7266    2.4661    3.8892 H   0  0  0  0  0  0  0  0  0  0  0  0
   -0.0632    2.2628    6.2567 H   0  0  0  0  0  0  0  0  0  0  0  0
    4.0185    0.2246    5.5363 H   0  0  0  0  0  0  0  0  0  0  0  0
    4.4714   -0.7470    3.3026 H   0  0  0  0  0  0  0  0  0  0  0  0
    3.5714    1.7995   -1.9883 H   0  0  0  0  0  0  0  0  0  0  0  0
    5.1153    1.2970   -3.8713 H   0  0  0  0  0  0  0  0  0  0  0  0
    5.0391   -2.8817   -2.8219 H   0  0  0  0  0  0  0  0  0  0  0  0
    3.4829   -2.3911   -0.9553 H   0  0  0  0  0  0  0  0  0  0  0  0
  1  2  1  0
  1 22  1  0
  1 23  1  0
  1 24  1  0
  2  3  1  0
  2 15  1  0
  2 25  1  1
  3  4  1  0
  3 26  1  0
  4  5  2  0
  4 14  1  0
  5  6  1  0
  5 27  1  0
  6  7  2  0
  6 28  1  0
  7  8  1  0
  7 13  1  0
  8  9  1  0
  8 12  1  0
  9 10  2  0
  9 29  1  0
 10 11  1  0
 11 12  2  0
 13 14  2  0
 13 30  1  0
 14 31  1  0
 15 16  2  0
 15 21  1  0
 16 17  1  0
 16 32  1  0
 17 18  2  0
 17 33  1  0
 18 19  1  0
 18 20  1  0
 20 21  2  0
 20 34  1  0
 21 35  1  0
M  END

