
     RDKit          3D

 26 26  0  0  0  0  0  0  0  0999 V2000
    1.3687    0.1058   -0.6617 C   0  0  0  0  0  0  0  0  0  0  0  0
    2.6757   -0.0861   -0.0839 N   0  0  0  0  0  0  0  0  0  0  0  0
    2.8637    0.9398    0.9127 O   0  0  0  0  0  0  0  0  0  0  0  0
    4.1758    0.6809    1.3812 C   0  0  0  0  0  0  0  0  0  0  0  0
    4.3159   -0.8579    1.3717 C   0  0  0  0  0  0  0  0  0  0  0  0
    3.0439   -1.3431    0.6159 C   0  0  2  0  0  0  0  0  0  0  0  0
    3.3689   -2.4135   -0.4321 C   0  0  0  0  0  0  0  0  0  0  0  0
    2.0055   -1.9144    1.6309 C   0  0  2  0  0  0  0  0  0  0  0  0
    2.4968   -2.7746    2.1179 H   0  0  0  0  0  0  0  0  0  0  0  0
    0.8617   -2.4898    0.9926 O   0  0  0  0  0  0  0  0  0  0  0  0
    1.5165   -1.0068    2.7675 C   0  0  0  0  0  0  0  0  0  0  0  0
    0.7084   -1.7512    3.6504 O   0  0  0  0  0  0  0  0  0  0  0  0
    1.3544    1.0719   -1.1890 H   0  0  0  0  0  0  0  0  0  0  0  0
    0.5337    0.1261    0.0719 H   0  0  0  0  0  0  0  0  0  0  0  0
    1.1903   -0.6872   -1.4029 H   0  0  0  0  0  0  0  0  0  0  0  0
    4.2572    1.1322    2.3811 H   0  0  0  0  0  0  0  0  0  0  0  0
    4.9231    1.1480    0.7139 H   0  0  0  0  0  0  0  0  0  0  0  0
    4.3737   -1.2893    2.3817 H   0  0  0  0  0  0  0  0  0  0  0  0
    5.2227   -1.1644    0.8315 H   0  0  0  0  0  0  0  0  0  0  0  0
    4.0731   -2.0085   -1.1731 H   0  0  0  0  0  0  0  0  0  0  0  0
    2.4608   -2.7572   -0.9472 H   0  0  0  0  0  0  0  0  0  0  0  0
    3.8219   -3.2953    0.0468 H   0  0  0  0  0  0  0  0  0  0  0  0
    0.3694   -1.7794    0.5602 H   0  0  0  0  0  0  0  0  0  0  0  0
    0.9791   -0.1313    2.3533 H   0  0  0  0  0  0  0  0  0  0  0  0
    2.3603   -0.6073    3.3501 H   0  0  0  0  0  0  0  0  0  0  0  0
    0.1403   -2.2995    3.0877 H   0  0  0  0  0  0  0  0  0  0  0  0
  1  2  1  0
  1 13  1  0
  1 14  1  0
  1 15  1  0
  2  3  1  0
  2  6  1  0
  3  4  1  0
  4  5  1  0
  4 16  1  0
  4 17  1  0
  5  6  1  0
  5 18  1  0
  5 19  1  0
  6  7  1  6
  6  8  1  0
  7 20  1  0
  7 21  1  0
  7 22  1  0
  8  9  1  1
  8 10  1  0
  8 11  1  0
 10 23  1  0
 11 12  1  0
 11 24  1  0
 11 25  1  0
 12 26  1  0
M  END

