
     RDKit          3D

 58 61  0  0  0  0  0  0  0  0999 V2000
    1.3385    1.2610   -0.9539 C   0  0  0  0  0  0  0  0  0  0  0  0
    2.0642    0.1061   -0.2642 C   0  0  0  0  0  0  0  0  0  0  0  0
    2.7254   -0.7937   -1.2077 N   0  0  0  0  0  0  0  0  0  0  0  0
    3.8561   -1.5479   -0.6862 C   0  0  0  0  0  0  0  0  0  0  0  0
    3.4554   -2.7970    0.1126 C   0  0  0  0  0  0  0  0  0  0  0  0
    2.5433   -3.6467   -0.6624 N   0  0  0  0  0  0  0  0  0  0  0  0
    2.5951   -5.0078   -0.5669 C   0  0  0  0  0  0  0  0  0  0  0  0
    3.6607   -5.8521   -0.3390 C   0  0  0  0  0  0  0  0  0  0  0  0
    5.1147   -5.6144   -0.3509 C   0  0  0  0  0  0  0  0  0  0  0  0
    5.9754   -6.2790    0.5515 C   0  0  0  0  0  0  0  0  0  0  0  0
    7.3503   -6.0865    0.5098 C   0  0  0  0  0  0  0  0  0  0  0  0
    7.9248   -5.2278   -0.4441 C   0  0  0  0  0  0  0  0  0  0  0  0
    9.2745   -5.1037   -0.4053 O   0  0  0  0  0  0  0  0  0  0  0  0
    9.9200   -4.2694   -1.3400 C   0  0  0  0  0  0  0  0  0  0  0  0
    7.0896   -4.5687   -1.3600 C   0  0  0  0  0  0  0  0  0  0  0  0
    5.7077   -4.7690   -1.3052 C   0  0  0  0  0  0  0  0  0  0  0  0
    3.1295   -7.2285   -0.2008 C   0  0  0  0  0  0  0  0  0  0  0  0
    3.7412   -8.2515    0.0076 O   0  0  0  0  0  0  0  0  0  0  0  0
    1.7144   -7.1692   -0.3752 N   0  0  0  0  0  0  0  0  0  0  0  0
    0.8346   -8.2872   -0.3057 C   0  0  0  0  0  0  0  0  0  0  0  0
    1.2070   -9.5221   -0.8479 C   0  0  0  0  0  0  0  0  0  0  0  0
    0.3482  -10.6204   -0.7598 C   0  0  0  0  0  0  0  0  0  0  0  0
   -0.9076  -10.5135   -0.1455 C   0  0  0  0  0  0  0  0  0  0  0  0
   -1.7971  -11.5227   -0.0271 O   0  0  0  0  0  0  0  0  0  0  0  0
   -1.4734  -12.7937   -0.5451 C   0  0  0  0  0  0  0  0  0  0  0  0
   -1.2739   -9.2591    0.3899 C   0  0  0  0  0  0  0  0  0  0  0  0
   -2.8293   -9.0846    1.1622 Cl  0  0  0  0  0  0  0  0  0  0  0  0
   -0.4170   -8.1660    0.3208 C   0  0  0  0  0  0  0  0  0  0  0  0
    1.3252   -5.8510   -0.5867 C   0  0  0  0  0  0  0  0  0  0  0  0
    0.1859   -5.4611   -0.7232 O   0  0  0  0  0  0  0  0  0  0  0  0
    1.3819   -2.9193   -1.1910 C   0  0  0  0  0  0  0  0  0  0  0  0
    1.8505   -1.6772   -1.9681 C   0  0  0  0  0  0  0  0  0  0  0  0
    0.9173    1.9512   -0.2056 H   0  0  0  0  0  0  0  0  0  0  0  0
    0.5022    0.9117   -1.5804 H   0  0  0  0  0  0  0  0  0  0  0  0
    2.0326    1.8211   -1.5994 H   0  0  0  0  0  0  0  0  0  0  0  0
    1.3546   -0.4150    0.4167 H   0  0  0  0  0  0  0  0  0  0  0  0
    2.8490    0.5241    0.3877 H   0  0  0  0  0  0  0  0  0  0  0  0
    4.4761   -0.8938   -0.0529 H   0  0  0  0  0  0  0  0  0  0  0  0
    4.4852   -1.8653   -1.5374 H   0  0  0  0  0  0  0  0  0  0  0  0
    2.9410   -2.4961    1.0474 H   0  0  0  0  0  0  0  0  0  0  0  0
    4.3449   -3.3677    0.4004 H   0  0  0  0  0  0  0  0  0  0  0  0
    5.5533   -6.9613    1.2897 H   0  0  0  0  0  0  0  0  0  0  0  0
    8.0131   -6.5974    1.2112 H   0  0  0  0  0  0  0  0  0  0  0  0
   10.9946   -4.3248   -1.1200 H   0  0  0  0  0  0  0  0  0  0  0  0
    9.5911   -3.2180   -1.2505 H   0  0  0  0  0  0  0  0  0  0  0  0
    9.7507   -4.6062   -2.3788 H   0  0  0  0  0  0  0  0  0  0  0  0
    7.5010   -3.9084   -2.1237 H   0  0  0  0  0  0  0  0  0  0  0  0
    5.0743   -4.2639   -2.0381 H   0  0  0  0  0  0  0  0  0  0  0  0
    2.1782   -9.6368   -1.3254 H   0  0  0  0  0  0  0  0  0  0  0  0
    0.6704  -11.5711   -1.1848 H   0  0  0  0  0  0  0  0  0  0  0  0
   -2.3330  -13.4431   -0.3329 H   0  0  0  0  0  0  0  0  0  0  0  0
   -0.5753  -13.2181   -0.0613 H   0  0  0  0  0  0  0  0  0  0  0  0
   -1.3088  -12.7627   -1.6373 H   0  0  0  0  0  0  0  0  0  0  0  0
   -0.7390   -7.2169    0.7429 H   0  0  0  0  0  0  0  0  0  0  0  0
    0.7107   -2.6259   -0.3617 H   0  0  0  0  0  0  0  0  0  0  0  0
    0.8009   -3.5772   -1.8446 H   0  0  0  0  0  0  0  0  0  0  0  0
    0.9674   -1.1215   -2.3175 H   0  0  0  0  0  0  0  0  0  0  0  0
    2.3938   -2.0142   -2.8699 H   0  0  0  0  0  0  0  0  0  0  0  0
  1  2  1  0
  1 33  1  0
  1 34  1  0
  1 35  1  0
  2  3  1  0
  2 36  1  0
  2 37  1  0
  3  4  1  0
  3 32  1  0
  4  5  1  0
  4 38  1  0
  4 39  1  0
  5  6  1  0
  5 40  1  0
  5 41  1  0
  6  7  1  0
  6 31  1  0
  7  8  2  0
  7 29  1  0
  8  9  1  0
  8 17  1  0
  9 10  2  0
  9 16  1  0
 10 11  1  0
 10 42  1  0
 11 12  2  0
 11 43  1  0
 12 13  1  0
 12 15  1  0
 13 14  1  0
 14 44  1  0
 14 45  1  0
 14 46  1  0
 15 16  2  0
 15 47  1  0
 16 48  1  0
 17 18  2  0
 17 19  1  0
 19 20  1  0
 19 29  1  0
 20 21  2  0
 20 28  1  0
 21 22  1  0
 21 49  1  0
 22 23  2  0
 22 50  1  0
 23 24  1  0
 23 26  1  0
 24 25  1  0
 25 51  1  0
 25 52  1  0
 25 53  1  0
 26 27  1  0
 26 28  2  0
 28 54  1  0
 29 30  2  0
 31 32  1  0
 31 55  1  0
 31 56  1  0
 32 57  1  0
 32 58  1  0
M  END

