
     RDKit          3D

 79 83  0  0  0  0  0  0  0  0999 V2000
   -7.4566   -9.1683    0.5142 C   0  0  0  0  0  0  0  0  0  0  0  0
   -7.0297   -8.2503    1.5221 O   0  0  0  0  0  0  0  0  0  0  0  0
   -5.7086   -8.0108    1.5929 C   0  0  0  0  0  0  0  0  0  0  0  0
   -4.9023   -8.5161    0.8480 O   0  0  0  0  0  0  0  0  0  0  0  0
   -5.3803   -7.0575    2.7232 C   0  0  0  0  0  0  0  0  0  0  0  0
   -3.9479   -6.5230    2.6690 C   0  0  2  0  0  0  0  0  0  0  0  0
   -3.8075   -6.0275    1.6907 H   0  0  0  0  0  0  0  0  0  0  0  0
   -2.8553   -7.6117    2.8547 C   0  0  0  0  0  0  0  0  0  0  0  0
   -1.8260   -7.0449    3.6917 O   0  0  0  0  0  0  0  0  0  0  0  0
   -2.3342   -5.9383    4.2889 C   0  0  0  0  0  0  0  0  0  0  0  0
   -1.6754   -5.2280    5.2924 C   0  0  0  0  0  0  0  0  0  0  0  0
   -2.3185   -4.0887    5.8108 C   0  0  0  0  0  0  0  0  0  0  0  0
   -1.8227   -3.3182    6.8130 O   0  0  0  0  0  0  0  0  0  0  0  0
   -0.4914   -3.4947    7.3250 C   0  0  2  0  0  0  0  0  0  0  0  0
   -0.2679   -4.5698    7.4063 H   0  0  0  0  0  0  0  0  0  0  0  0
   -0.4393   -2.7883    8.6905 C   0  0  0  0  0  0  0  0  0  0  0  0
   -0.0372   -1.3302    8.3834 C   0  0  0  0  0  0  0  0  0  0  0  0
    0.7549   -1.4618    7.0991 C   0  0  0  0  0  0  0  0  0  0  0  0
    1.6310   -0.5344    6.5123 C   0  0  0  0  0  0  0  0  0  0  0  0
    1.8741    0.8104    7.1242 C   0  0  0  0  0  0  0  0  0  0  0  0
    0.8431    1.7634    7.0776 C   0  0  0  0  0  0  0  0  0  0  0  0
    1.0064    3.0454    7.6228 C   0  0  0  0  0  0  0  0  0  0  0  0
    0.0431    3.9975    7.5939 O   0  0  0  0  0  0  0  0  0  0  0  0
   -1.5569    4.1023    7.0266 Si  0  0  1  0  0  4  0  0  0  0  0  0
   -1.5909    3.8201    5.1626 C   0  0  0  0  0  0  0  0  0  0  0  0
   -2.6252    2.8224    7.9084 C   0  0  0  0  0  0  0  0  0  0  0  0
   -2.0558    5.8925    7.4889 C   0  0  1  0  0  0  0  0  0  0  0  0
   -1.1119    6.8885    6.7837 C   0  0  0  0  0  0  0  0  0  0  0  0
   -3.5093    6.1627    7.0468 C   0  0  0  0  0  0  0  0  0  0  0  0
   -1.9409    6.0821    9.0156 C   0  0  0  0  0  0  0  0  0  0  0  0
    2.2296    3.3654    8.2295 C   0  0  0  0  0  0  0  0  0  0  0  0
    3.2491    2.4175    8.2823 C   0  0  0  0  0  0  0  0  0  0  0  0
    3.1058    1.1304    7.7389 C   0  0  0  0  0  0  0  0  0  0  0  0
    4.2363    0.1315    7.8335 C   0  0  0  0  0  0  0  0  0  0  0  0
    2.2699   -0.9089    5.3153 C   0  0  0  0  0  0  0  0  0  0  0  0
    2.0429   -2.1556    4.7253 C   0  0  0  0  0  0  0  0  0  0  0  0
    1.1643   -3.0716    5.3154 C   0  0  0  0  0  0  0  0  0  0  0  0
    0.5246   -2.7150    6.5035 C   0  0  0  0  0  0  0  0  0  0  0  0
   -3.5793   -3.6975    5.3166 C   0  0  0  0  0  0  0  0  0  0  0  0
   -4.2066   -4.4315    4.3064 C   0  0  0  0  0  0  0  0  0  0  0  0
   -3.5843   -5.5655    3.7870 C   0  0  0  0  0  0  0  0  0  0  0  0
   -8.5467   -9.2430    0.6103 H   0  0  0  0  0  0  0  0  0  0  0  0
   -6.9918  -10.1552    0.6609 H   0  0  0  0  0  0  0  0  0  0  0  0
   -7.1859   -8.8029   -0.4879 H   0  0  0  0  0  0  0  0  0  0  0  0
   -5.5605   -7.5905    3.6742 H   0  0  0  0  0  0  0  0  0  0  0  0
   -6.1148   -6.2364    2.7038 H   0  0  0  0  0  0  0  0  0  0  0  0
   -2.3986   -7.9391    1.9131 H   0  0  0  0  0  0  0  0  0  0  0  0
   -3.2651   -8.5005    3.3681 H   0  0  0  0  0  0  0  0  0  0  0  0
   -0.7052   -5.5746    5.6426 H   0  0  0  0  0  0  0  0  0  0  0  0
    0.3430   -3.2677    9.3010 H   0  0  0  0  0  0  0  0  0  0  0  0
   -1.3959   -2.8884    9.2226 H   0  0  0  0  0  0  0  0  0  0  0  0
    0.5385   -0.8591    9.1947 H   0  0  0  0  0  0  0  0  0  0  0  0
   -0.9289   -0.6999    8.2228 H   0  0  0  0  0  0  0  0  0  0  0  0
   -0.0970    1.4935    6.5933 H   0  0  0  0  0  0  0  0  0  0  0  0
   -1.3080    2.7881    4.9020 H   0  0  0  0  0  0  0  0  0  0  0  0
   -0.8956    4.4979    4.6423 H   0  0  0  0  0  0  0  0  0  0  0  0
   -2.6017    3.9962    4.7589 H   0  0  0  0  0  0  0  0  0  0  0  0
   -2.3202    1.7955    7.6524 H   0  0  0  0  0  0  0  0  0  0  0  0
   -3.6845    2.9318    7.6230 H   0  0  0  0  0  0  0  0  0  0  0  0
   -2.5564    2.9281    9.0027 H   0  0  0  0  0  0  0  0  0  0  0  0
   -1.1872    6.8243    5.6857 H   0  0  0  0  0  0  0  0  0  0  0  0
   -0.0601    6.7140    7.0592 H   0  0  0  0  0  0  0  0  0  0  0  0
   -1.3665    7.9258    7.0679 H   0  0  0  0  0  0  0  0  0  0  0  0
   -3.6408    6.0570    5.9571 H   0  0  0  0  0  0  0  0  0  0  0  0
   -3.8044    7.1946    7.3098 H   0  0  0  0  0  0  0  0  0  0  0  0
   -4.2277    5.4859    7.5387 H   0  0  0  0  0  0  0  0  0  0  0  0
   -0.9193    5.8790    9.3730 H   0  0  0  0  0  0  0  0  0  0  0  0
   -2.6285    5.4209    9.5683 H   0  0  0  0  0  0  0  0  0  0  0  0
   -2.1943    7.1213    9.2936 H   0  0  0  0  0  0  0  0  0  0  0  0
    2.3599    4.3616    8.6570 H   0  0  0  0  0  0  0  0  0  0  0  0
    4.1925    2.6835    8.7682 H   0  0  0  0  0  0  0  0  0  0  0  0
    5.0288    0.4994    8.5022 H   0  0  0  0  0  0  0  0  0  0  0  0
    4.6979   -0.0677    6.8520 H   0  0  0  0  0  0  0  0  0  0  0  0
    3.8912   -0.8417    8.2177 H   0  0  0  0  0  0  0  0  0  0  0  0
    2.9538   -0.2025    4.8375 H   0  0  0  0  0  0  0  0  0  0  0  0
    2.5558   -2.4148    3.7956 H   0  0  0  0  0  0  0  0  0  0  0  0
    0.9902   -4.0426    4.8478 H   0  0  0  0  0  0  0  0  0  0  0  0
   -4.0451   -2.8096    5.7468 H   0  0  0  0  0  0  0  0  0  0  0  0
   -5.1807   -4.1046    3.9313 H   0  0  0  0  0  0  0  0  0  0  0  0
  1  2  1  0
  1 42  1  0
  1 43  1  0
  1 44  1  0
  2  3  1  0
  3  4  2  0
  3  5  1  0
  5  6  1  0
  5 45  1  0
  5 46  1  0
  6  7  1  6
  6  8  1  0
  6 41  1  0
  8  9  1  0
  8 47  1  0
  8 48  1  0
  9 10  1  0
 10 11  2  0
 10 41  1  0
 11 12  1  0
 11 49  1  0
 12 13  1  0
 12 39  2  0
 13 14  1  0
 14 15  1  1
 14 16  1  0
 14 38  1  0
 16 17  1  0
 16 50  1  0
 16 51  1  0
 17 18  1  0
 17 52  1  0
 17 53  1  0
 18 19  1  0
 18 38  2  0
 19 20  1  0
 19 35  2  0
 20 21  2  0
 20 33  1  0
 21 22  1  0
 21 54  1  0
 22 23  1  0
 22 31  2  0
 24 23  1  1
 24 25  1  0
 24 26  1  0
 24 27  1  0
 25 55  1  0
 25 56  1  0
 25 57  1  0
 26 58  1  0
 26 59  1  0
 26 60  1  0
 27 28  1  6
 27 29  1  0
 27 30  1  0
 28 61  1  0
 28 62  1  0
 28 63  1  0
 29 64  1  0
 29 65  1  0
 29 66  1  0
 30 67  1  0
 30 68  1  0
 30 69  1  0
 31 32  1  0
 31 70  1  0
 32 33  2  0
 32 71  1  0
 33 34  1  0
 34 72  1  0
 34 73  1  0
 34 74  1  0
 35 36  1  0
 35 75  1  0
 36 37  2  0
 36 76  1  0
 37 38  1  0
 37 77  1  0
 39 40  1  0
 39 78  1  0
 40 41  2  0
 40 79  1  0
M  END

