
     RDKit          3D

 34 35  0  0  0  0  0  0  0  0999 V2000
    0.8886    0.7428   -1.0141 C   0  0  0  0  0  0  0  0  0  0  0  0
    2.1817    0.7680   -1.8042 C   0  0  0  0  0  0  0  0  0  0  0  0
    3.2417    0.3164   -0.9599 O   0  0  0  0  0  0  0  0  0  0  0  0
    4.5121    0.1915   -1.5737 C   0  0  1  0  0  0  0  0  0  0  0  0
    5.3926    1.4570   -1.2558 C   0  0  1  0  0  0  0  0  0  0  0  0
    4.6319    2.4638   -0.6644 O   0  0  0  0  0  0  0  0  0  0  0  0
    6.4464    0.9109   -0.4071 N   0  0  0  0  0  0  0  0  0  0  0  0
    7.5855    1.6492   -0.0605 C   0  0  0  0  0  0  0  0  0  0  0  0
    7.4672    3.0022    0.3226 C   0  0  0  0  0  0  0  0  0  0  0  0
    8.6421    3.6644    0.6285 C   0  0  0  0  0  0  0  0  0  0  0  0
    8.6539    5.1260    1.0095 C   0  0  1  0  0  0  0  0  0  0  0  0
    7.4292    5.5686    1.3305 F   0  0  0  0  0  0  0  0  0  0  0  0
    9.4604    5.3476    2.0595 F   0  0  0  0  0  0  0  0  0  0  0  0
    9.1045    5.8840   -0.0050 F   0  0  0  0  0  0  0  0  0  0  0  0
    9.8397    2.9344    0.5622 C   0  0  0  0  0  0  0  0  0  0  0  0
    9.8767    1.6587    0.1885 N   0  0  0  0  0  0  0  0  0  0  0  0
    8.7652    1.0257   -0.1422 N   0  0  0  0  0  0  0  0  0  0  0  0
    6.3166   -0.4816   -0.2129 C   0  0  0  0  0  0  0  0  0  0  0  0
    6.9887   -1.1872    0.4933 O   0  0  0  0  0  0  0  0  0  0  0  0
    5.2382   -0.8840   -0.9879 N   0  0  0  0  0  0  0  0  0  0  0  0
    4.7382   -2.2406   -0.9612 C   0  0  0  0  0  0  0  0  0  0  0  0
    0.0502    1.0722   -1.6470 H   0  0  0  0  0  0  0  0  0  0  0  0
    0.9450    1.4145   -0.1434 H   0  0  0  0  0  0  0  0  0  0  0  0
    0.6731   -0.2734   -0.6501 H   0  0  0  0  0  0  0  0  0  0  0  0
    2.3978    1.7893   -2.1689 H   0  0  0  0  0  0  0  0  0  0  0  0
    2.1128    0.1060   -2.6889 H   0  0  0  0  0  0  0  0  0  0  0  0
    4.3697    0.0568   -2.6630 H   0  0  0  0  0  0  0  0  0  0  0  0
    5.8342    1.8915   -2.1669 H   0  0  0  0  0  0  0  0  0  0  0  0
    3.9561    2.0140   -0.1259 H   0  0  0  0  0  0  0  0  0  0  0  0
    6.4910    3.4828    0.3735 H   0  0  0  0  0  0  0  0  0  0  0  0
   10.8025    3.3881    0.8135 H   0  0  0  0  0  0  0  0  0  0  0  0
    5.4551   -2.8492   -0.3947 H   0  0  0  0  0  0  0  0  0  0  0  0
    4.6521   -2.6458   -1.9840 H   0  0  0  0  0  0  0  0  0  0  0  0
    3.7514   -2.2950   -0.4734 H   0  0  0  0  0  0  0  0  0  0  0  0
  1  2  1  0
  1 22  1  0
  1 23  1  0
  1 24  1  0
  2  3  1  0
  2 25  1  0
  2 26  1  0
  3  4  1  0
  4  5  1  0
  4 20  1  0
  4 27  1  6
  5  6  1  0
  5  7  1  0
  5 28  1  6
  6 29  1  0
  7  8  1  0
  7 18  1  0
  8  9  2  0
  8 17  1  0
  9 10  1  0
  9 30  1  0
 10 11  1  0
 10 15  2  0
 11 12  1  1
 11 13  1  0
 11 14  1  0
 15 16  1  0
 15 31  1  0
 16 17  2  0
 18 19  2  0
 18 20  1  0
 20 21  1  0
 21 32  1  0
 21 33  1  0
 21 34  1  0
M  END

