
     RDKit          3D

 35 36  0  0  0  0  0  0  0  0999 V2000
    3.2103   -0.8238   -3.5000 O   0  0  0  0  0  0  0  0  0  0  0  0
    3.4621   -0.4296   -2.3745 C   0  0  0  0  0  0  0  0  0  0  0  0
    4.1181    0.9335   -2.1396 C   0  0  0  0  0  0  0  0  0  0  0  0
    4.1276    1.4320   -0.7670 N   0  0  0  0  0  0  0  0  0  0  0  0
    4.4624    0.3894    0.2048 C   0  0  2  0  0  0  0  0  0  0  0  0
    5.9335   -0.0705    0.0363 C   0  0  0  0  0  0  0  0  0  0  0  0
    6.1887   -1.2395   -0.2129 O   0  0  0  0  0  0  0  0  0  0  0  0
    6.9143    0.8774    0.1809 N   0  0  0  0  0  0  0  0  0  0  0  0
    8.3104    0.4928   -0.0187 C   0  0  0  0  0  0  0  0  0  0  0  0
    8.9744    1.4040   -1.0547 C   0  0  0  0  0  0  0  0  0  0  0  0
    8.8165    2.8843   -0.6855 C   0  0  0  0  0  0  0  0  0  0  0  0
    7.3373    3.2324   -0.4108 C   0  0  2  0  0  0  0  0  0  0  0  0
    7.1437    4.6725    0.0596 C   0  0  0  0  0  0  0  0  0  0  0  0
    6.5904    4.9787    1.0810 O   0  0  0  0  0  0  0  0  0  0  0  0
    7.6373    5.6286   -0.7599 O   0  0  0  0  0  0  0  0  0  0  0  0
    6.7278    2.2586    0.6090 C   0  0  0  0  0  0  0  0  0  0  0  0
    3.5005   -0.8031    0.1240 C   0  0  0  0  0  0  0  0  0  0  0  0
    3.2157   -1.1677   -1.2558 N   0  0  0  0  0  0  0  0  0  0  0  0
    3.6164    1.6572   -2.7985 H   0  0  0  0  0  0  0  0  0  0  0  0
    5.1530    0.8451   -2.5174 H   0  0  0  0  0  0  0  0  0  0  0  0
    3.2218    1.8358   -0.5325 H   0  0  0  0  0  0  0  0  0  0  0  0
    4.3673    0.8250    1.2138 H   0  0  0  0  0  0  0  0  0  0  0  0
    8.3266   -0.5581   -0.3306 H   0  0  0  0  0  0  0  0  0  0  0  0
    8.8469    0.5687    0.9470 H   0  0  0  0  0  0  0  0  0  0  0  0
    8.5166    1.2161   -2.0413 H   0  0  0  0  0  0  0  0  0  0  0  0
   10.0427    1.1468   -1.1419 H   0  0  0  0  0  0  0  0  0  0  0  0
    9.2347    3.5147   -1.4897 H   0  0  0  0  0  0  0  0  0  0  0  0
    9.4085    3.1068    0.2206 H   0  0  0  0  0  0  0  0  0  0  0  0
    6.7675    3.1217   -1.3531 H   0  0  0  0  0  0  0  0  0  0  0  0
    8.0446    5.2313   -1.5427 H   0  0  0  0  0  0  0  0  0  0  0  0
    5.6681    2.4898    0.7273 H   0  0  0  0  0  0  0  0  0  0  0  0
    7.2202    2.4107    1.5871 H   0  0  0  0  0  0  0  0  0  0  0  0
    2.5641   -0.5295    0.6485 H   0  0  0  0  0  0  0  0  0  0  0  0
    3.9376   -1.6672    0.6454 H   0  0  0  0  0  0  0  0  0  0  0  0
    2.8241   -2.0866   -1.4401 H   0  0  0  0  0  0  0  0  0  0  0  0
  1  2  2  0
  2  3  1  0
  2 18  1  0
  3  4  1  0
  3 19  1  0
  3 20  1  0
  4  5  1  0
  4 21  1  0
  5  6  1  0
  5 17  1  0
  5 22  1  1
  6  7  2  0
  6  8  1  0
  8  9  1  0
  8 16  1  0
  9 10  1  0
  9 23  1  0
  9 24  1  0
 10 11  1  0
 10 25  1  0
 10 26  1  0
 11 12  1  0
 11 27  1  0
 11 28  1  0
 12 13  1  0
 12 16  1  0
 12 29  1  6
 13 14  2  0
 13 15  1  0
 15 30  1  0
 16 31  1  0
 16 32  1  0
 17 18  1  0
 17 33  1  0
 17 34  1  0
 18 35  1  0
M  END

