
     RDKit          3D

 39 40  0  0  0  0  0  0  0  0999 V2000
    4.9284    2.2723   -0.9316 C   0  0  0  0  0  0  0  0  0  0  0  0
    4.3492    0.9046   -0.6796 C   0  0  0  0  0  0  0  0  0  0  0  0
    3.0768    0.7554   -0.0913 C   0  0  0  0  0  0  0  0  0  0  0  0
    2.5809   -0.5240    0.1209 C   0  0  0  0  0  0  0  0  0  0  0  0
    3.2514   -1.6372   -0.2054 N   0  0  0  0  0  0  0  0  0  0  0  0
    4.4575   -1.5051   -0.7627 C   0  0  0  0  0  0  0  0  0  0  0  0
    5.1499   -2.6823   -1.1002 N   0  0  0  0  0  0  0  0  0  0  0  0
    6.3854   -2.5847   -1.6788 N   0  0  0  0  0  0  0  0  0  0  0  0
    6.7674   -3.8308   -1.8772 C   0  0  0  0  0  0  0  0  0  0  0  0
    5.8083   -4.7810   -1.4417 C   0  0  0  0  0  0  0  0  0  0  0  0
    4.7704   -4.0114   -0.9421 C   0  0  0  0  0  0  0  0  0  0  0  0
    3.5586   -4.3375   -0.3723 N   0  0  0  0  0  0  0  0  0  0  0  0
    3.1039   -5.6379   -0.1859 C   0  0  0  0  0  0  0  0  0  0  0  0
    3.7314   -6.6306   -0.5203 O   0  0  0  0  0  0  0  0  0  0  0  0
    1.8658   -5.6937    0.4067 N   0  0  0  0  0  0  0  0  0  0  0  0
    1.2593   -6.9597    0.7592 C   0  0  0  0  0  0  0  0  0  0  0  0
    1.6902   -7.5090    2.1323 C   0  0  0  0  0  0  0  0  0  0  0  0
    1.6558   -6.4680    3.2740 C   0  0  0  0  0  0  0  0  0  0  0  0
    0.3320   -5.7233    3.3554 C   0  0  0  0  0  0  0  0  0  0  0  0
    0.0483   -4.7958    2.6383 O   0  0  0  0  0  0  0  0  0  0  0  0
   -0.5702   -6.1787    4.2500 O   0  0  0  0  0  0  0  0  0  0  0  0
    5.0477   -0.2522   -1.0192 C   0  0  0  0  0  0  0  0  0  0  0  0
    5.0084    2.8440    0.0077 H   0  0  0  0  0  0  0  0  0  0  0  0
    4.2794    2.8543   -1.6068 H   0  0  0  0  0  0  0  0  0  0  0  0
    5.9282    2.2128   -1.3840 H   0  0  0  0  0  0  0  0  0  0  0  0
    2.4842    1.6272    0.1956 H   0  0  0  0  0  0  0  0  0  0  0  0
    1.5957   -0.6715    0.5760 H   0  0  0  0  0  0  0  0  0  0  0  0
    7.7370   -4.0277   -2.3363 H   0  0  0  0  0  0  0  0  0  0  0  0
    5.8349   -5.8634   -1.4759 H   0  0  0  0  0  0  0  0  0  0  0  0
    2.9949   -3.5176   -0.1200 H   0  0  0  0  0  0  0  0  0  0  0  0
    1.4416   -4.8649    0.8137 H   0  0  0  0  0  0  0  0  0  0  0  0
    1.5281   -7.6950   -0.0126 H   0  0  0  0  0  0  0  0  0  0  0  0
    0.1664   -6.8282    0.7282 H   0  0  0  0  0  0  0  0  0  0  0  0
    2.7207   -7.8910    2.0597 H   0  0  0  0  0  0  0  0  0  0  0  0
    1.0462   -8.3701    2.3831 H   0  0  0  0  0  0  0  0  0  0  0  0
    2.4305   -5.7094    3.0905 H   0  0  0  0  0  0  0  0  0  0  0  0
    1.8991   -6.9566    4.2325 H   0  0  0  0  0  0  0  0  0  0  0  0
   -0.2002   -6.9142    4.7582 H   0  0  0  0  0  0  0  0  0  0  0  0
    6.0350   -0.2244   -1.4772 H   0  0  0  0  0  0  0  0  0  0  0  0
  1  2  1  0
  1 23  1  0
  1 24  1  0
  1 25  1  0
  2  3  2  0
  2 22  1  0
  3  4  1  0
  3 26  1  0
  4  5  2  0
  4 27  1  0
  5  6  1  0
  6  7  1  0
  6 22  2  0
  7  8  1  0
  7 11  1  0
  8  9  2  0
  9 10  1  0
  9 28  1  0
 10 11  2  0
 10 29  1  0
 11 12  1  0
 12 13  1  0
 12 30  1  0
 13 14  2  0
 13 15  1  0
 15 16  1  0
 15 31  1  0
 16 17  1  0
 16 32  1  0
 16 33  1  0
 17 18  1  0
 17 34  1  0
 17 35  1  0
 18 19  1  0
 18 36  1  0
 18 37  1  0
 19 20  2  0
 19 21  1  0
 21 38  1  0
 22 39  1  0
M  END

