
     RDKit          3D

 38 40  0  0  0  0  0  0  0  0999 V2000
    1.9374   -1.5496    0.5324 C   0  0  0  0  0  0  0  0  0  0  0  0
    2.5043   -0.1736    0.1946 C   0  0  0  0  0  0  0  0  0  0  0  0
    2.3020    0.2716   -0.9226 O   0  0  0  0  0  0  0  0  0  0  0  0
    3.2345    0.6059    1.2524 C   0  0  0  0  0  0  0  0  0  0  0  0
    4.0293   -0.0374    2.2028 C   0  0  0  0  0  0  0  0  0  0  0  0
    4.7002    0.6864    3.2293 C   0  0  0  0  0  0  0  0  0  0  0  0
    4.5629    2.0512    3.3235 C   0  0  0  0  0  0  0  0  0  0  0  0
    3.7812    2.7576    2.3755 C   0  0  0  0  0  0  0  0  0  0  0  0
    3.6419    4.1698    2.4518 C   0  0  0  0  0  0  0  0  0  0  0  0
    2.9076    4.8818    1.5353 C   0  0  0  0  0  0  0  0  0  0  0  0
    2.2556    4.2096    0.4516 C   0  0  0  0  0  0  0  0  0  0  0  0
    1.5245    4.9241   -0.4800 N   0  0  0  0  0  0  0  0  0  0  0  0
    1.4423    6.3675   -0.4016 C   0  0  0  0  0  0  0  0  0  0  0  0
    0.9099    4.2292   -1.5935 C   0  0  0  0  0  0  0  0  0  0  0  0
    2.3867    2.8170    0.3600 C   0  0  0  0  0  0  0  0  0  0  0  0
    3.1240    2.0569    1.3021 C   0  0  0  0  0  0  0  0  0  0  0  0
    5.5004   -0.2463    4.1114 C   0  0  0  0  0  0  0  0  0  0  0  0
    5.6532   -1.5001    3.2290 C   0  0  0  0  0  0  0  0  0  0  0  0
    4.3848   -1.5115    2.3487 C   0  0  0  0  0  0  0  0  0  0  0  0
    1.0471   -1.6995   -0.0938 H   0  0  0  0  0  0  0  0  0  0  0  0
    1.6775   -1.6668    1.5930 H   0  0  0  0  0  0  0  0  0  0  0  0
    2.6603   -2.3370    0.2670 H   0  0  0  0  0  0  0  0  0  0  0  0
    5.0641    2.6124    4.1184 H   0  0  0  0  0  0  0  0  0  0  0  0
    4.1398    4.6976    3.2702 H   0  0  0  0  0  0  0  0  0  0  0  0
    2.8339    5.9634    1.6418 H   0  0  0  0  0  0  0  0  0  0  0  0
    0.9888    6.7108    0.5464 H   0  0  0  0  0  0  0  0  0  0  0  0
    0.8123    6.7396   -1.2198 H   0  0  0  0  0  0  0  0  0  0  0  0
    2.4310    6.8568   -0.4926 H   0  0  0  0  0  0  0  0  0  0  0  0
    0.1912    3.4616   -1.2537 H   0  0  0  0  0  0  0  0  0  0  0  0
    1.6543    3.7179   -2.2317 H   0  0  0  0  0  0  0  0  0  0  0  0
    0.3640    4.9492   -2.2166 H   0  0  0  0  0  0  0  0  0  0  0  0
    1.9404    2.2864   -0.4720 H   0  0  0  0  0  0  0  0  0  0  0  0
    4.9335   -0.4836    5.0319 H   0  0  0  0  0  0  0  0  0  0  0  0
    6.4635    0.1801    4.4339 H   0  0  0  0  0  0  0  0  0  0  0  0
    5.7805   -2.4289    3.8056 H   0  0  0  0  0  0  0  0  0  0  0  0
    6.5414   -1.3876    2.5850 H   0  0  0  0  0  0  0  0  0  0  0  0
    3.5686   -2.0516    2.8622 H   0  0  0  0  0  0  0  0  0  0  0  0
    4.5461   -2.0245    1.3901 H   0  0  0  0  0  0  0  0  0  0  0  0
  1  2  1  0
  1 20  1  0
  1 21  1  0
  1 22  1  0
  2  3  2  0
  2  4  1  0
  4  5  2  0
  4 16  1  0
  5  6  1  0
  5 19  1  0
  6  7  2  0
  6 17  1  0
  7  8  1  0
  7 23  1  0
  8  9  1  0
  8 16  2  0
  9 10  2  0
  9 24  1  0
 10 11  1  0
 10 25  1  0
 11 12  1  0
 11 15  2  0
 12 13  1  0
 12 14  1  0
 13 26  1  0
 13 27  1  0
 13 28  1  0
 14 29  1  0
 14 30  1  0
 14 31  1  0
 15 16  1  0
 15 32  1  0
 17 18  1  0
 17 33  1  0
 17 34  1  0
 18 19  1  0
 18 35  1  0
 18 36  1  0
 19 37  1  0
 19 38  1  0
M  END

