
     RDKit          3D

 43 45  0  0  0  0  0  0  0  0999 V2000
   -1.9388   -0.9818    3.2517 C   0  0  0  0  0  0  0  0  0  0  0  0
   -0.5331   -0.5937    3.6422 C   0  0  0  0  0  0  0  0  0  0  0  0
   -0.3026    0.2228    4.7560 C   0  0  0  0  0  0  0  0  0  0  0  0
    0.9876    0.5996    5.1377 C   0  0  0  0  0  0  0  0  0  0  0  0
    2.0773    0.1509    4.3897 C   0  0  0  0  0  0  0  0  0  0  0  0
    1.8851   -0.6651    3.2737 C   0  0  0  0  0  0  0  0  0  0  0  0
    0.5846   -1.0419    2.8934 C   0  0  0  0  0  0  0  0  0  0  0  0
    0.3444   -1.8636    1.7767 N   0  0  0  0  0  0  0  0  0  0  0  0
    1.2289   -2.4208    0.8956 C   0  0  0  0  0  0  0  0  0  0  0  0
    2.4410   -2.2974    0.9069 O   0  0  0  0  0  0  0  0  0  0  0  0
    0.5474   -3.3132   -0.1588 C   0  0  0  0  0  0  0  0  0  0  0  0
   -0.8729   -3.0726   -0.3305 N   0  0  0  0  0  0  0  0  0  0  0  0
   -1.2248   -1.9553   -1.2256 C   0  0  0  0  0  0  0  0  0  0  0  0
   -1.8432   -2.5511   -2.5234 C   0  0  1  0  0  0  0  0  0  0  0  0
   -0.9269   -2.4888   -3.7706 C   0  0  0  0  0  0  0  0  0  0  0  0
   -0.0494   -3.6525   -3.7081 N   0  0  0  0  0  0  0  0  0  0  0  0
   -0.8816   -4.7233   -3.1605 C   0  0  0  0  0  0  0  0  0  0  0  0
   -1.9668   -4.0797   -2.2335 C   0  0  1  0  0  0  0  0  0  0  0  0
   -1.7263   -4.2180   -0.7095 C   0  0  2  0  0  0  0  0  0  0  0  0
   -3.0345   -4.2160    0.0890 C   0  0  0  0  0  0  0  0  0  0  0  0
   -2.6731   -0.5429    3.9419 H   0  0  0  0  0  0  0  0  0  0  0  0
   -2.0879   -2.0763    3.2678 H   0  0  0  0  0  0  0  0  0  0  0  0
   -2.1976   -0.6364    2.2349 H   0  0  0  0  0  0  0  0  0  0  0  0
   -1.1621    0.5706    5.3365 H   0  0  0  0  0  0  0  0  0  0  0  0
    1.1367    1.2383    6.0116 H   0  0  0  0  0  0  0  0  0  0  0  0
    3.0942    0.4354    4.6728 H   0  0  0  0  0  0  0  0  0  0  0  0
    2.7264   -1.0211    2.6832 H   0  0  0  0  0  0  0  0  0  0  0  0
   -0.6187   -2.1105    1.5526 H   0  0  0  0  0  0  0  0  0  0  0  0
    0.7039   -4.3508    0.1797 H   0  0  0  0  0  0  0  0  0  0  0  0
    1.1538   -3.1939   -1.0792 H   0  0  0  0  0  0  0  0  0  0  0  0
   -0.3310   -1.3437   -1.4303 H   0  0  0  0  0  0  0  0  0  0  0  0
   -1.9527   -1.2857   -0.7363 H   0  0  0  0  0  0  0  0  0  0  0  0
   -2.8169   -2.0809   -2.7271 H   0  0  0  0  0  0  0  0  0  0  0  0
   -0.3478   -1.5551   -3.8454 H   0  0  0  0  0  0  0  0  0  0  0  0
   -1.5497   -2.5569   -4.6816 H   0  0  0  0  0  0  0  0  0  0  0  0
    0.7431   -3.4653   -3.0958 H   0  0  0  0  0  0  0  0  0  0  0  0
   -0.2625   -5.4752   -2.6469 H   0  0  0  0  0  0  0  0  0  0  0  0
   -1.3887   -5.2432   -3.9924 H   0  0  0  0  0  0  0  0  0  0  0  0
   -2.9604   -4.4714   -2.4984 H   0  0  0  0  0  0  0  0  0  0  0  0
   -1.1857   -5.1506   -0.4791 H   0  0  0  0  0  0  0  0  0  0  0  0
   -3.6191   -3.3006   -0.0997 H   0  0  0  0  0  0  0  0  0  0  0  0
   -2.8297   -4.2707    1.1694 H   0  0  0  0  0  0  0  0  0  0  0  0
   -3.6644   -5.0769   -0.1871 H   0  0  0  0  0  0  0  0  0  0  0  0
  1  2  1  0
  1 21  1  0
  1 22  1  0
  1 23  1  0
  2  3  2  0
  2  7  1  0
  3  4  1  0
  3 24  1  0
  4  5  2  0
  4 25  1  0
  5  6  1  0
  5 26  1  0
  6  7  2  0
  6 27  1  0
  7  8  1  0
  8  9  1  0
  8 28  1  0
  9 10  2  0
  9 11  1  0
 11 12  1  0
 11 29  1  0
 11 30  1  0
 12 13  1  0
 12 19  1  0
 13 14  1  0
 13 31  1  0
 13 32  1  0
 14 15  1  0
 14 18  1  0
 14 33  1  6
 15 16  1  0
 15 34  1  0
 15 35  1  0
 16 17  1  0
 16 36  1  0
 17 18  1  0
 17 37  1  0
 17 38  1  0
 18 19  1  0
 18 39  1  1
 19 20  1  0
 19 40  1  6
 20 41  1  0
 20 42  1  0
 20 43  1  0
M  END

