
     RDKit          3D

 33 34  0  0  0  0  0  0  0  0999 V2000
    1.1261   -0.3078   -0.4791 C   0  0  0  0  0  0  0  0  0  0  0  0
    2.5955   -0.0906   -0.2761 C   0  0  0  0  0  0  0  0  0  0  0  0
    3.2999    1.0432   -0.5917 C   0  0  0  0  0  0  0  0  0  0  0  0
    4.9766    0.8473   -0.1936 S   0  0  0  0  0  0  0  0  0  0  0  0
    4.6141   -0.7636    0.3830 C   0  0  0  0  0  0  0  0  0  0  0  0
    5.6573   -1.6617    1.0017 C   0  0  0  0  0  0  0  0  0  0  0  0
    5.1649   -3.0177    1.1018 N   0  0  0  0  0  0  0  0  0  0  0  0
    5.8891   -4.0588    0.5635 C   0  0  0  0  0  0  0  0  0  0  0  0
    7.0323   -3.9424    0.1446 O   0  0  0  0  0  0  0  0  0  0  0  0
    5.2102   -5.2666    0.5378 N   0  0  0  0  0  0  0  0  0  0  0  0
    5.9385   -6.4738    0.1759 C   0  0  0  0  0  0  0  0  0  0  0  0
    6.7536   -7.0690    1.2844 C   0  0  0  0  0  0  0  0  0  0  0  0
    7.9976   -6.7785    1.7871 C   0  0  0  0  0  0  0  0  0  0  0  0
    8.2063   -7.6524    2.8953 C   0  0  0  0  0  0  0  0  0  0  0  0
    7.0751   -8.4195    2.9996 C   0  0  0  0  0  0  0  0  0  0  0  0
    6.7020   -9.5009    3.9323 C   0  0  0  0  0  0  0  0  0  0  0  0
    7.4141   -9.8689    4.8295 O   0  0  0  0  0  0  0  0  0  0  0  0
    5.4900  -10.0560    3.7090 O   0  0  0  0  0  0  0  0  0  0  0  0
    6.1844   -8.0659    2.0205 O   0  0  0  0  0  0  0  0  0  0  0  0
    3.3617   -1.0962    0.2779 N   0  0  0  0  0  0  0  0  0  0  0  0
    0.6463    0.5763   -0.9216 H   0  0  0  0  0  0  0  0  0  0  0  0
    0.6302   -0.5312    0.4797 H   0  0  0  0  0  0  0  0  0  0  0  0
    0.9493   -1.1699   -1.1429 H   0  0  0  0  0  0  0  0  0  0  0  0
    2.9300    1.9650   -1.0369 H   0  0  0  0  0  0  0  0  0  0  0  0
    5.9247   -1.2598    1.9984 H   0  0  0  0  0  0  0  0  0  0  0  0
    6.5832   -1.6732    0.4065 H   0  0  0  0  0  0  0  0  0  0  0  0
    4.1501   -3.0867    1.1136 H   0  0  0  0  0  0  0  0  0  0  0  0
    4.4189   -5.3748    1.1630 H   0  0  0  0  0  0  0  0  0  0  0  0
    6.6113   -6.2074   -0.6494 H   0  0  0  0  0  0  0  0  0  0  0  0
    5.2232   -7.2254   -0.1916 H   0  0  0  0  0  0  0  0  0  0  0  0
    8.6619   -6.0099    1.3990 H   0  0  0  0  0  0  0  0  0  0  0  0
    9.0755   -7.7250    3.5446 H   0  0  0  0  0  0  0  0  0  0  0  0
    5.0746   -9.6340    2.9406 H   0  0  0  0  0  0  0  0  0  0  0  0
  1  2  1  0
  1 21  1  0
  1 22  1  0
  1 23  1  0
  2  3  2  0
  2 20  1  0
  3  4  1  0
  3 24  1  0
  4  5  1  0
  5  6  1  0
  5 20  2  0
  6  7  1  0
  6 25  1  0
  6 26  1  0
  7  8  1  0
  7 27  1  0
  8  9  2  0
  8 10  1  0
 10 11  1  0
 10 28  1  0
 11 12  1  0
 11 29  1  0
 11 30  1  0
 12 13  2  0
 12 19  1  0
 13 14  1  0
 13 31  1  0
 14 15  2  0
 14 32  1  0
 15 16  1  0
 15 19  1  0
 16 17  2  0
 16 18  1  0
 18 33  1  0
M  END

