
     RDKit          3D

 41 43  0  0  0  0  0  0  0  0999 V2000
    1.5260   -0.2454   -0.3374 O   0  0  0  0  0  0  0  0  0  0  0  0
    2.6273   -0.1120    0.2006 C   0  0  0  0  0  0  0  0  0  0  0  0
    2.9736    1.1427    0.8845 C   0  0  0  0  0  0  0  0  0  0  0  0
    2.3138    2.3484    0.8053 C   0  0  0  0  0  0  0  0  0  0  0  0
    3.0240    3.2428    1.6548 C   0  0  0  0  0  0  0  0  0  0  0  0
    4.0533    2.5139    2.2016 C   0  0  0  0  0  0  0  0  0  0  0  0
    5.1277    2.8502    3.1751 C   0  0  0  0  0  0  0  0  0  0  0  0
    6.3860    2.7200    2.5330 O   0  0  0  0  0  0  0  0  0  0  0  0
    7.5222    2.8479    3.2572 C   0  0  0  0  0  0  0  0  0  0  0  0
    7.5653    3.2760    4.5937 C   0  0  0  0  0  0  0  0  0  0  0  0
    8.7878    3.3894    5.2643 C   0  0  0  0  0  0  0  0  0  0  0  0
    9.9830    3.0807    4.6162 C   0  0  0  0  0  0  0  0  0  0  0  0
    9.9538    2.6525    3.2843 C   0  0  0  0  0  0  0  0  0  0  0  0
    8.7389    2.5348    2.6122 C   0  0  0  0  0  0  0  0  0  0  0  0
    8.7157    1.9417    0.8034 Br  0  0  0  0  0  0  0  0  0  0  0  0
    4.0225    1.2455    1.7410 O   0  0  0  0  0  0  0  0  0  0  0  0
    3.5282   -1.1537    0.1588 N   0  0  0  0  0  0  0  0  0  0  0  0
    4.8690   -1.0150    0.4003 N   0  0  0  0  0  0  0  0  0  0  0  0
    5.4604   -2.0879    0.0296 C   0  0  0  0  0  0  0  0  0  0  0  0
    6.9446   -2.2155    0.1661 C   0  0  1  0  0  0  0  0  0  0  0  0
    7.2403   -3.2861    0.9547 F   0  0  0  0  0  0  0  0  0  0  0  0
    7.4938   -2.4560   -1.0569 F   0  0  0  0  0  0  0  0  0  0  0  0
    4.5581   -3.1425   -0.5507 C   0  0  0  0  0  0  0  0  0  0  0  0
    3.1876   -2.4362   -0.5338 C   0  0  2  0  0  0  0  0  0  0  0  0
    2.7196   -2.2288   -1.8218 O   0  0  0  0  0  0  0  0  0  0  0  0
    2.1486   -3.2071    0.3061 C   0  0  1  0  0  0  0  0  0  0  0  0
    1.9750   -4.4360   -0.2367 F   0  0  0  0  0  0  0  0  0  0  0  0
    2.6175   -3.3727    1.5711 F   0  0  0  0  0  0  0  0  0  0  0  0
    1.4343    2.5468    0.1982 H   0  0  0  0  0  0  0  0  0  0  0  0
    2.8095    4.2931    1.8394 H   0  0  0  0  0  0  0  0  0  0  0  0
    5.0770    2.1674    4.0442 H   0  0  0  0  0  0  0  0  0  0  0  0
    4.9670    3.8804    3.5387 H   0  0  0  0  0  0  0  0  0  0  0  0
    6.6439    3.5290    5.1188 H   0  0  0  0  0  0  0  0  0  0  0  0
    8.7959    3.7249    6.3041 H   0  0  0  0  0  0  0  0  0  0  0  0
   10.9385    3.1687    5.1376 H   0  0  0  0  0  0  0  0  0  0  0  0
   10.8777    2.4030    2.7595 H   0  0  0  0  0  0  0  0  0  0  0  0
    7.3938   -1.3059    0.5963 H   0  0  0  0  0  0  0  0  0  0  0  0
    4.5733   -4.0628    0.0513 H   0  0  0  0  0  0  0  0  0  0  0  0
    4.8333   -3.4000   -1.5839 H   0  0  0  0  0  0  0  0  0  0  0  0
    1.9681   -1.6104   -1.7390 H   0  0  0  0  0  0  0  0  0  0  0  0
    1.1777   -2.6878    0.3461 H   0  0  0  0  0  0  0  0  0  0  0  0
  1  2  2  0
  2  3  1  0
  2 17  1  0
  3  4  2  0
  3 16  1  0
  4  5  1  0
  4 29  1  0
  5  6  2  0
  5 30  1  0
  6  7  1  0
  6 16  1  0
  7  8  1  0
  7 31  1  0
  7 32  1  0
  8  9  1  0
  9 10  2  0
  9 14  1  0
 10 11  1  0
 10 33  1  0
 11 12  2  0
 11 34  1  0
 12 13  1  0
 12 35  1  0
 13 14  2  0
 13 36  1  0
 14 15  1  0
 17 18  1  0
 17 24  1  0
 18 19  2  0
 19 20  1  0
 19 23  1  0
 20 21  1  0
 20 22  1  0
 20 37  1  1
 23 24  1  0
 23 38  1  0
 23 39  1  0
 24 25  1  6
 24 26  1  0
 25 40  1  0
 26 27  1  0
 26 28  1  0
 26 41  1  1
M  END

