
     RDKit          3D

 44 47  0  0  0  0  0  0  0  0999 V2000
    3.4397    0.4564    1.5474 C   0  0  0  0  0  0  0  0  0  0  0  0
    2.7371   -0.1162    0.3068 C   0  0  1  0  0  0  0  0  0  0  0  0
    2.2477    0.9859   -0.6405 C   0  0  0  0  0  0  0  0  0  0  0  0
    3.1699    1.6234   -1.4843 C   0  0  0  0  0  0  0  0  0  0  0  0
    2.7790    2.6500   -2.3460 C   0  0  0  0  0  0  0  0  0  0  0  0
    1.4488    3.0701   -2.3757 C   0  0  0  0  0  0  0  0  0  0  0  0
    0.5188    2.4619   -1.5334 C   0  0  0  0  0  0  0  0  0  0  0  0
    0.9059    1.4297   -0.6676 C   0  0  0  0  0  0  0  0  0  0  0  0
   -0.1518    0.8198    0.2259 C   0  0  1  0  0  0  0  0  0  0  0  0
    0.2013    0.8549    1.5291 F   0  0  0  0  0  0  0  0  0  0  0  0
   -1.3322    1.4408    0.1234 F   0  0  0  0  0  0  0  0  0  0  0  0
   -0.3760   -0.4866   -0.0676 F   0  0  0  0  0  0  0  0  0  0  0  0
    3.5624   -1.1226   -0.3918 N   0  0  0  0  0  0  0  0  0  0  0  0
    4.9409   -1.0594   -0.5949 C   0  0  0  0  0  0  0  0  0  0  0  0
    5.7110   -0.1805   -0.3245 O   0  0  0  0  0  0  0  0  0  0  0  0
    5.3195   -2.2332   -1.2179 O   0  0  0  0  0  0  0  0  0  0  0  0
    4.2043   -2.9943   -1.4274 C   0  0  0  0  0  0  0  0  0  0  0  0
    4.1283   -4.2325   -2.0318 C   0  0  0  0  0  0  0  0  0  0  0  0
    2.8369   -4.7817   -2.1131 C   0  0  0  0  0  0  0  0  0  0  0  0
    2.6292   -6.3649   -2.9057 S   0  0  1  0  0  0  0  0  0  0  0  0
    1.2211   -6.5489   -3.2518 O   0  0  0  0  0  0  0  0  0  0  0  0
    3.7047   -6.5565   -3.8660 O   0  0  0  0  0  0  0  0  0  0  0  0
    2.8168   -7.5138   -1.6234 N   0  0  0  0  0  0  0  0  0  0  0  0
    4.0023   -7.8973   -1.0566 C   0  0  0  0  0  0  0  0  0  0  0  0
    5.1184   -7.2214   -1.1252 N   0  0  0  0  0  0  0  0  0  0  0  0
    6.0850   -7.8916   -0.4287 C   0  0  0  0  0  0  0  0  0  0  0  0
    5.8117   -9.0165    0.1791 N   0  0  0  0  0  0  0  0  0  0  0  0
    4.1917   -9.3704   -0.1095 S   0  0  0  0  0  0  0  0  0  0  0  0
    1.6969   -4.1232   -1.6351 C   0  0  0  0  0  0  0  0  0  0  0  0
    1.8052   -2.8655   -1.0286 C   0  0  0  0  0  0  0  0  0  0  0  0
    3.0821   -2.3137   -0.9258 C   0  0  0  0  0  0  0  0  0  0  0  0
    2.7257    1.0911    2.0894 H   0  0  0  0  0  0  0  0  0  0  0  0
    4.3205    1.0511    1.2782 H   0  0  0  0  0  0  0  0  0  0  0  0
    3.7586   -0.3575    2.2168 H   0  0  0  0  0  0  0  0  0  0  0  0
    1.8748   -0.6885    0.6656 H   0  0  0  0  0  0  0  0  0  0  0  0
    4.2180    1.3205   -1.4548 H   0  0  0  0  0  0  0  0  0  0  0  0
    3.5220    3.1242   -2.9917 H   0  0  0  0  0  0  0  0  0  0  0  0
    1.1333    3.8718   -3.0471 H   0  0  0  0  0  0  0  0  0  0  0  0
   -0.5213    2.7884   -1.5428 H   0  0  0  0  0  0  0  0  0  0  0  0
    5.0024   -4.7634   -2.4063 H   0  0  0  0  0  0  0  0  0  0  0  0
    1.9875   -8.0926   -1.5221 H   0  0  0  0  0  0  0  0  0  0  0  0
    7.0970   -7.4796   -0.3737 H   0  0  0  0  0  0  0  0  0  0  0  0
    0.7198   -4.5918   -1.7592 H   0  0  0  0  0  0  0  0  0  0  0  0
    0.9194   -2.3384   -0.6773 H   0  0  0  0  0  0  0  0  0  0  0  0
  1  2  1  0
  1 32  1  0
  1 33  1  0
  1 34  1  0
  2  3  1  0
  2 13  1  0
  2 35  1  1
  3  4  2  0
  3  8  1  0
  4  5  1  0
  4 36  1  0
  5  6  2  0
  5 37  1  0
  6  7  1  0
  6 38  1  0
  7  8  2  0
  7 39  1  0
  8  9  1  0
  9 10  1  1
  9 11  1  0
  9 12  1  0
 13 14  1  0
 13 31  1  0
 14 15  2  0
 14 16  1  0
 16 17  1  0
 17 18  1  0
 17 31  2  0
 18 19  2  0
 18 40  1  0
 19 20  1  0
 19 29  1  0
 20 21  2  0
 20 22  2  0
 20 23  1  1
 23 24  1  0
 23 41  1  0
 24 25  2  0
 24 28  1  0
 25 26  1  0
 26 27  2  0
 26 42  1  0
 27 28  1  0
 29 30  2  0
 29 43  1  0
 30 31  1  0
 30 44  1  0
M  END

