
     RDKit          3D

 40 40  0  0  0  0  0  0  0  0999 V2000
    3.4364   -1.0472    3.1024 C   0  0  0  0  0  0  0  0  0  0  0  0
    4.1442    0.1277    2.4223 C   0  0  1  0  0  0  0  0  0  0  0  0
    4.9860    0.9329    3.4058 C   0  0  0  0  0  0  0  0  0  0  0  0
    5.0249   -0.2934    1.3877 O   0  0  0  0  0  0  0  0  0  0  0  0
    4.4600   -0.7757    0.1734 C   0  0  2  0  0  0  0  0  0  0  0  0
    3.3630   -0.6181    0.1857 H   0  0  0  0  0  0  0  0  0  0  0  0
    4.7418   -2.2800    0.0457 C   0  0  0  0  0  0  0  0  0  0  0  0
    4.2660   -2.8871   -1.2826 C   0  0  2  0  0  0  0  0  0  0  0  0
    3.1650   -2.7712   -1.3303 H   0  0  0  0  0  0  0  0  0  0  0  0
    4.5833   -4.3824   -1.3695 C   0  0  0  0  0  0  0  0  0  0  0  0
    4.8595   -2.0967   -2.4576 C   0  0  0  0  0  0  0  0  0  0  0  0
    4.5591   -0.5986   -2.3446 C   0  0  0  0  0  0  0  0  0  0  0  0
    5.0581    0.0054   -1.0186 C   0  0  1  0  0  0  0  0  0  0  0  0
    6.1487   -0.1726   -0.9604 H   0  0  0  0  0  0  0  0  0  0  0  0
    4.8651    1.5410   -0.9042 C   0  0  2  0  0  0  0  0  0  0  0  0
    3.4236    2.0180   -1.1390 C   0  0  0  0  0  0  0  0  0  0  0  0
    5.8395    2.3068   -1.8111 C   0  0  0  0  0  0  0  0  0  0  0  0
    2.7811   -0.6883    3.9125 H   0  0  0  0  0  0  0  0  0  0  0  0
    4.1754   -1.7415    3.5341 H   0  0  0  0  0  0  0  0  0  0  0  0
    2.8091   -1.6102    2.3941 H   0  0  0  0  0  0  0  0  0  0  0  0
    3.3711    0.7958    1.9882 H   0  0  0  0  0  0  0  0  0  0  0  0
    5.7835    0.3008    3.8282 H   0  0  0  0  0  0  0  0  0  0  0  0
    4.3676    1.3137    4.2335 H   0  0  0  0  0  0  0  0  0  0  0  0
    5.4611    1.7878    2.9015 H   0  0  0  0  0  0  0  0  0  0  0  0
    4.2796   -2.8098    0.8945 H   0  0  0  0  0  0  0  0  0  0  0  0
    5.8328   -2.4236    0.1483 H   0  0  0  0  0  0  0  0  0  0  0  0
    4.1233   -4.9413   -0.5383 H   0  0  0  0  0  0  0  0  0  0  0  0
    5.6719   -4.5578   -1.3254 H   0  0  0  0  0  0  0  0  0  0  0  0
    4.2137   -4.8176   -2.3125 H   0  0  0  0  0  0  0  0  0  0  0  0
    4.4711   -2.4908   -3.4127 H   0  0  0  0  0  0  0  0  0  0  0  0
    5.9543   -2.2540   -2.4782 H   0  0  0  0  0  0  0  0  0  0  0  0
    3.4680   -0.4484   -2.4315 H   0  0  0  0  0  0  0  0  0  0  0  0
    5.0100   -0.0616   -3.1950 H   0  0  0  0  0  0  0  0  0  0  0  0
    5.1351    1.7897    0.1355 H   0  0  0  0  0  0  0  0  0  0  0  0
    3.1135    1.8875   -2.1889 H   0  0  0  0  0  0  0  0  0  0  0  0
    3.3299    3.0911   -0.9050 H   0  0  0  0  0  0  0  0  0  0  0  0
    2.6955    1.4825   -0.5087 H   0  0  0  0  0  0  0  0  0  0  0  0
    5.6369    2.1265   -2.8802 H   0  0  0  0  0  0  0  0  0  0  0  0
    6.8844    2.0157   -1.6152 H   0  0  0  0  0  0  0  0  0  0  0  0
    5.7596    3.3937   -1.6454 H   0  0  0  0  0  0  0  0  0  0  0  0
  1  2  1  0
  1 18  1  0
  1 19  1  0
  1 20  1  0
  2  3  1  0
  2  4  1  0
  2 21  1  6
  3 22  1  0
  3 23  1  0
  3 24  1  0
  4  5  1  0
  5  6  1  1
  5  7  1  0
  5 13  1  0
  7  8  1  0
  7 25  1  0
  7 26  1  0
  8  9  1  1
  8 10  1  0
  8 11  1  0
 10 27  1  0
 10 28  1  0
 10 29  1  0
 11 12  1  0
 11 30  1  0
 11 31  1  0
 12 13  1  0
 12 32  1  0
 12 33  1  0
 13 14  1  6
 13 15  1  0
 15 16  1  0
 15 17  1  0
 15 34  1  1
 16 35  1  0
 16 36  1  0
 16 37  1  0
 17 38  1  0
 17 39  1  0
 17 40  1  0
M  END

