
     RDKit          3D

 66 69  0  0  0  0  0  0  0  0999 V2000
    4.6264   -2.4901   -4.7375 C   0  0  0  0  0  0  0  0  0  0  0  0
    3.9810   -2.3442   -3.4840 O   0  0  0  0  0  0  0  0  0  0  0  0
    3.7353   -1.0959   -2.9676 C   0  0  0  0  0  0  0  0  0  0  0  0
    4.0359    0.0778   -3.6622 C   0  0  0  0  0  0  0  0  0  0  0  0
    3.7332    1.3201   -3.1028 C   0  0  0  0  0  0  0  0  0  0  0  0
    3.1097    1.4362   -1.8513 C   0  0  0  0  0  0  0  0  0  0  0  0
    2.7927    2.8228   -1.2588 C   0  0  1  0  0  0  0  0  0  0  0  0
    1.9183    3.6272   -2.2470 C   0  0  0  0  0  0  0  0  0  0  0  0
    2.0435    2.7179    0.0822 C   0  0  0  0  0  0  0  0  0  0  0  0
    4.1222    3.5750   -1.0153 C   0  0  0  0  0  0  0  0  0  0  0  0
    2.8245    0.2456   -1.1730 C   0  0  0  0  0  0  0  0  0  0  0  0
    3.1408   -1.0280   -1.6799 C   0  0  0  0  0  0  0  0  0  0  0  0
    2.8213   -2.2546   -0.9070 C   0  0  0  0  0  0  0  0  0  0  0  0
    2.5553   -3.3682   -1.6057 O   0  0  0  0  0  0  0  0  0  0  0  0
    2.7367   -2.3928    0.4616 C   0  0  0  0  0  0  0  0  0  0  0  0
    3.0404   -1.4766    1.5523 C   0  0  0  0  0  0  0  0  0  0  0  0
    3.4667   -0.3365    1.5711 O   0  0  0  0  0  0  0  0  0  0  0  0
    2.6907   -2.2180    2.8563 C   0  0  0  0  0  0  0  0  0  0  0  0
    2.7909   -1.7310    3.9606 O   0  0  0  0  0  0  0  0  0  0  0  0
    2.2134   -3.4704    2.5059 N   0  0  0  0  0  0  0  0  0  0  0  0
    1.6167   -4.4089    3.3874 C   0  0  0  0  0  0  0  0  0  0  0  0
    1.5569   -4.1797    4.7779 C   0  0  0  0  0  0  0  0  0  0  0  0
    0.9333   -5.1214    5.5951 C   0  0  0  0  0  0  0  0  0  0  0  0
    0.3658   -6.2943    5.0931 C   0  0  0  0  0  0  0  0  0  0  0  0
    0.4321   -6.5257    3.7104 C   0  0  0  0  0  0  0  0  0  0  0  0
   -0.0943   -7.6772    3.0889 N   0  0  0  0  0  0  0  0  0  0  0  0
   -0.7509   -8.7473    3.6542 C   0  0  0  0  0  0  0  0  0  0  0  0
   -1.1865   -9.8153    2.6591 C   0  0  0  0  0  0  0  0  0  0  0  0
   -0.9843   -8.8590    4.8434 O   0  0  0  0  0  0  0  0  0  0  0  0
    1.0508   -5.5858    2.8692 C   0  0  0  0  0  0  0  0  0  0  0  0
    2.3473   -3.7397    1.0604 C   0  0  2  0  0  0  0  0  0  0  0  0
    3.3714   -4.8490    0.7798 C   0  0  0  0  0  0  0  0  0  0  0  0
    4.7217   -4.6849    1.1237 C   0  0  0  0  0  0  0  0  0  0  0  0
    5.6170   -5.7179    0.8511 C   0  0  0  0  0  0  0  0  0  0  0  0
    5.1383   -6.8804    0.2409 C   0  0  0  0  0  0  0  0  0  0  0  0
    3.7759   -6.9521   -0.0567 C   0  0  0  0  0  0  0  0  0  0  0  0
    2.9130   -5.9674    0.2088 N   0  0  0  0  0  0  0  0  0  0  0  0
    4.7296   -3.5696   -4.9074 H   0  0  0  0  0  0  0  0  0  0  0  0
    5.6273   -2.0282   -4.7243 H   0  0  0  0  0  0  0  0  0  0  0  0
    4.0303   -2.0484   -5.5540 H   0  0  0  0  0  0  0  0  0  0  0  0
    4.5041    0.0360   -4.6451 H   0  0  0  0  0  0  0  0  0  0  0  0
    3.9888    2.2149   -3.6747 H   0  0  0  0  0  0  0  0  0  0  0  0
    0.9648    3.1111   -2.4432 H   0  0  0  0  0  0  0  0  0  0  0  0
    2.4201    3.7859   -3.2144 H   0  0  0  0  0  0  0  0  0  0  0  0
    1.6861    4.6208   -1.8302 H   0  0  0  0  0  0  0  0  0  0  0  0
    1.0683    2.2184   -0.0341 H   0  0  0  0  0  0  0  0  0  0  0  0
    1.8505    3.7272    0.4783 H   0  0  0  0  0  0  0  0  0  0  0  0
    2.6218    2.1649    0.8371 H   0  0  0  0  0  0  0  0  0  0  0  0
    4.6946    3.7106   -1.9466 H   0  0  0  0  0  0  0  0  0  0  0  0
    4.7587    3.0263   -0.3037 H   0  0  0  0  0  0  0  0  0  0  0  0
    3.9260    4.5755   -0.5960 H   0  0  0  0  0  0  0  0  0  0  0  0
    2.3464    0.2907   -0.2026 H   0  0  0  0  0  0  0  0  0  0  0  0
    2.8745   -3.2607   -2.5231 H   0  0  0  0  0  0  0  0  0  0  0  0
    1.9896   -3.2750    5.1940 H   0  0  0  0  0  0  0  0  0  0  0  0
    0.8892   -4.9333    6.6712 H   0  0  0  0  0  0  0  0  0  0  0  0
   -0.1148   -7.0231    5.7403 H   0  0  0  0  0  0  0  0  0  0  0  0
    0.0385   -7.7129    2.0856 H   0  0  0  0  0  0  0  0  0  0  0  0
   -0.8824   -9.6226    1.6196 H   0  0  0  0  0  0  0  0  0  0  0  0
   -2.2829   -9.9048    2.7009 H   0  0  0  0  0  0  0  0  0  0  0  0
   -0.7727  -10.7821    2.9829 H   0  0  0  0  0  0  0  0  0  0  0  0
    1.1098   -5.8078    1.8040 H   0  0  0  0  0  0  0  0  0  0  0  0
    1.3887   -4.0844    0.6449 H   0  0  0  0  0  0  0  0  0  0  0  0
    5.0651   -3.7614    1.5949 H   0  0  0  0  0  0  0  0  0  0  0  0
    6.6740   -5.6173    1.1110 H   0  0  0  0  0  0  0  0  0  0  0  0
    5.8017   -7.7161    0.0072 H   0  0  0  0  0  0  0  0  0  0  0  0
    3.3602   -7.8511   -0.5276 H   0  0  0  0  0  0  0  0  0  0  0  0
  1  2  1  0
  1 38  1  0
  1 39  1  0
  1 40  1  0
  2  3  1  0
  3  4  2  0
  3 12  1  0
  4  5  1  0
  4 41  1  0
  5  6  2  0
  5 42  1  0
  6  7  1  0
  6 11  1  0
  7  8  1  6
  7  9  1  0
  7 10  1  0
  8 43  1  0
  8 44  1  0
  8 45  1  0
  9 46  1  0
  9 47  1  0
  9 48  1  0
 10 49  1  0
 10 50  1  0
 10 51  1  0
 11 12  2  0
 11 52  1  0
 12 13  1  0
 13 14  1  0
 13 15  2  0
 14 53  1  0
 15 16  1  0
 15 31  1  0
 16 17  2  0
 16 18  1  0
 18 19  2  0
 18 20  1  0
 20 21  1  0
 20 31  1  0
 21 22  2  0
 21 30  1  0
 22 23  1  0
 22 54  1  0
 23 24  2  0
 23 55  1  0
 24 25  1  0
 24 56  1  0
 25 26  1  0
 25 30  2  0
 26 27  1  0
 26 57  1  0
 27 28  1  0
 27 29  2  0
 28 58  1  0
 28 59  1  0
 28 60  1  0
 30 61  1  0
 31 32  1  0
 31 62  1  6
 32 33  2  0
 32 37  1  0
 33 34  1  0
 33 63  1  0
 34 35  2  0
 34 64  1  0
 35 36  1  0
 35 65  1  0
 36 37  2  0
 36 66  1  0
M  END

