
     RDKit          3D

 38 41  0  0  0  0  0  0  0  0999 V2000
    0.8248    1.4834   -1.1614 O   0  0  0  0  0  0  0  0  0  0  0  0
    1.7844    0.8322   -0.8276 C   0  0  0  0  0  0  0  0  0  0  0  0
    2.0013   -0.3936   -1.3748 O   0  0  0  0  0  0  0  0  0  0  0  0
    2.7117    1.2452    0.1129 N   0  0  0  0  0  0  0  0  0  0  0  0
    4.0676    0.7255    0.2552 C   0  0  0  0  0  0  0  0  0  0  0  0
    5.1124    1.7332   -0.2459 C   0  0  0  0  0  0  0  0  0  0  0  0
    4.9491    3.1160    0.4234 C   0  0  2  0  0  0  0  0  0  0  0  0
    5.4840    3.1090    1.8327 C   0  0  0  0  0  0  0  0  0  0  0  0
    4.8177    3.5669    2.8648 N   0  0  0  0  0  0  0  0  0  0  0  0
    5.6954    3.4029    3.9339 O   0  0  0  0  0  0  0  0  0  0  0  0
    6.8099    2.8551    3.4340 C   0  0  0  0  0  0  0  0  0  0  0  0
    7.9225    2.5621    4.3068 C   0  0  0  0  0  0  0  0  0  0  0  0
    8.0688    2.7395    5.6730 C   0  0  0  0  0  0  0  0  0  0  0  0
    9.3791    2.2721    6.0040 C   0  0  0  0  0  0  0  0  0  0  0  0
   10.1443    2.1693    7.1835 C   0  0  0  0  0  0  0  0  0  0  0  0
   11.4234    1.6391    7.0747 C   0  0  0  0  0  0  0  0  0  0  0  0
   11.9794    1.2175    5.9165 N   0  0  0  0  0  0  0  0  0  0  0  0
   11.2850    1.3017    4.7932 C   0  0  0  0  0  0  0  0  0  0  0  0
    9.9795    1.8229    4.7909 C   0  0  0  0  0  0  0  0  0  0  0  0
    9.0725    2.0102    3.7787 N   0  0  0  0  0  0  0  0  0  0  0  0
    9.1921    1.7993    2.7952 H   0  0  0  0  0  0  0  0  0  0  0  0
    6.7421    2.6470    2.1463 N   0  0  0  0  0  0  0  0  0  0  0  0
    3.4872    3.5927    0.3212 C   0  0  0  0  0  0  0  0  0  0  0  0
    2.4906    2.5253    0.7889 C   0  0  0  0  0  0  0  0  0  0  0  0
    2.6138   -0.9130   -0.8380 H   0  0  0  0  0  0  0  0  0  0  0  0
    4.1893   -0.2138   -0.3025 H   0  0  0  0  0  0  0  0  0  0  0  0
    4.2534    0.4858    1.3192 H   0  0  0  0  0  0  0  0  0  0  0  0
    4.9907    1.8563   -1.3346 H   0  0  0  0  0  0  0  0  0  0  0  0
    6.1263    1.3439   -0.0660 H   0  0  0  0  0  0  0  0  0  0  0  0
    5.5949    3.8258   -0.1236 H   0  0  0  0  0  0  0  0  0  0  0  0
    7.3186    3.1551    6.3414 H   0  0  0  0  0  0  0  0  0  0  0  0
    9.7527    2.4927    8.1506 H   0  0  0  0  0  0  0  0  0  0  0  0
   12.0516    1.5417    7.9668 H   0  0  0  0  0  0  0  0  0  0  0  0
   11.7614    0.9523    3.8684 H   0  0  0  0  0  0  0  0  0  0  0  0
    3.2760    3.8337   -0.7334 H   0  0  0  0  0  0  0  0  0  0  0  0
    3.3418    4.5137    0.9054 H   0  0  0  0  0  0  0  0  0  0  0  0
    1.4627    2.8393    0.5747 H   0  0  0  0  0  0  0  0  0  0  0  0
    2.5873    2.3716    1.8772 H   0  0  0  0  0  0  0  0  0  0  0  0
  1  2  2  0
  2  3  1  0
  2  4  1  0
  3 25  1  0
  4  5  1  0
  4 24  1  0
  5  6  1  0
  5 26  1  0
  5 27  1  0
  6  7  1  0
  6 28  1  0
  6 29  1  0
  7  8  1  0
  7 23  1  0
  7 30  1  6
  8  9  2  0
  8 22  1  0
  9 10  1  0
 10 11  1  0
 11 12  1  0
 11 22  2  0
 12 13  2  0
 12 20  1  0
 13 14  1  0
 13 31  1  0
 14 15  2  0
 14 19  1  0
 15 16  1  0
 15 32  1  0
 16 17  2  0
 16 33  1  0
 17 18  1  0
 18 19  2  0
 18 34  1  0
 19 20  1  0
 20 21  1  0
 23 24  1  0
 23 35  1  0
 23 36  1  0
 24 37  1  0
 24 38  1  0
M  END

