
     RDKit          3D

 63 68  0  0  0  0  0  0  0  0999 V2000
    1.0121    0.7908    0.4483 C   0  0  0  0  0  0  0  0  0  0  0  0
    2.3845    0.4604    0.4600 O   0  0  0  0  0  0  0  0  0  0  0  0
    2.8059   -0.6197    1.1561 C   0  0  0  0  0  0  0  0  0  0  0  0
    4.1834   -0.8962    1.1011 C   0  0  0  0  0  0  0  0  0  0  0  0
    4.7074   -1.9911    1.7804 C   0  0  0  0  0  0  0  0  0  0  0  0
    3.8818   -2.8300    2.5515 C   0  0  0  0  0  0  0  0  0  0  0  0
    4.4685   -4.0279    3.2986 C   0  0  1  0  0  0  0  0  0  0  0  0
    3.9795   -4.1806    4.7350 C   0  0  0  0  0  0  0  0  0  0  0  0
    4.1060   -3.1797    5.6657 C   0  0  0  0  0  0  0  0  0  0  0  0
    4.5715   -1.9661    5.3267 O   0  0  0  0  0  0  0  0  0  0  0  0
    3.7948   -3.3045    7.1088 C   0  0  0  0  0  0  0  0  0  0  0  0
    4.3396   -4.3684    7.8120 C   0  0  0  0  0  0  0  0  0  0  0  0
    4.1345   -4.5149    9.2005 C   0  0  0  0  0  0  0  0  0  0  0  0
    3.3675   -3.5969    9.8833 C   0  0  0  0  0  0  0  0  0  0  0  0
    2.7696   -2.4982    9.2070 C   0  0  0  0  0  0  0  0  0  0  0  0
    1.9540   -1.5638    9.9059 C   0  0  0  0  0  0  0  0  0  0  0  0
    1.3547   -0.5124    9.2482 C   0  0  0  0  0  0  0  0  0  0  0  0
    1.5477   -0.3555    7.8541 C   0  0  0  0  0  0  0  0  0  0  0  0
    2.3382   -1.2383    7.1474 C   0  0  0  0  0  0  0  0  0  0  0  0
    2.9809   -2.3332    7.7944 C   0  0  0  0  0  0  0  0  0  0  0  0
    3.3002   -5.4690    4.8925 C   0  0  0  0  0  0  0  0  0  0  0  0
    2.7581   -5.9869    5.8450 O   0  0  0  0  0  0  0  0  0  0  0  0
    3.3840   -6.1616    3.5195 C   0  0  0  0  0  0  0  0  0  0  0  0
    2.9443   -7.2569    3.2271 O   0  0  0  0  0  0  0  0  0  0  0  0
    4.1028   -5.3230    2.6913 N   0  0  0  0  0  0  0  0  0  0  0  0
    4.5732   -5.6825    1.4347 C   0  0  0  0  0  0  0  0  0  0  0  0
    5.4303   -4.9792    0.7355 N   0  0  0  0  0  0  0  0  0  0  0  0
    5.6275   -5.7257   -0.4147 C   0  0  0  0  0  0  0  0  0  0  0  0
    6.4382   -5.4778   -1.5313 C   0  0  0  0  0  0  0  0  0  0  0  0
    6.4731   -6.4015   -2.5788 C   0  0  0  0  0  0  0  0  0  0  0  0
    7.3461   -6.1383   -3.7833 C   0  0  0  0  0  0  0  0  0  0  0  0
    5.6873   -7.5940   -2.5161 C   0  0  0  0  0  0  0  0  0  0  0  0
    5.7306   -8.5880   -3.6519 C   0  0  0  0  0  0  0  0  0  0  0  0
    4.8745   -7.8478   -1.4057 C   0  0  0  0  0  0  0  0  0  0  0  0
    4.8533   -6.9116   -0.3699 C   0  0  0  0  0  0  0  0  0  0  0  0
    4.1768   -6.8508    0.8360 N   0  0  0  0  0  0  0  0  0  0  0  0
    3.5608   -7.5206    1.2919 H   0  0  0  0  0  0  0  0  0  0  0  0
    2.5100   -2.5444    2.5994 C   0  0  0  0  0  0  0  0  0  0  0  0
    1.9662   -1.4572    1.9113 C   0  0  0  0  0  0  0  0  0  0  0  0
    0.9122    1.6849   -0.1811 H   0  0  0  0  0  0  0  0  0  0  0  0
    0.6370    1.0229    1.4612 H   0  0  0  0  0  0  0  0  0  0  0  0
    0.3987   -0.0206    0.0177 H   0  0  0  0  0  0  0  0  0  0  0  0
    4.8199   -0.2429    0.5015 H   0  0  0  0  0  0  0  0  0  0  0  0
    5.7714   -2.2213    1.6934 H   0  0  0  0  0  0  0  0  0  0  0  0
    5.5679   -3.9412    3.2602 H   0  0  0  0  0  0  0  0  0  0  0  0
    4.5848   -1.8620    4.3562 H   0  0  0  0  0  0  0  0  0  0  0  0
    4.9527   -5.0990    7.2831 H   0  0  0  0  0  0  0  0  0  0  0  0
    4.5874   -5.3593    9.7248 H   0  0  0  0  0  0  0  0  0  0  0  0
    3.2018   -3.7034   10.9588 H   0  0  0  0  0  0  0  0  0  0  0  0
    1.8065   -1.7025   10.9804 H   0  0  0  0  0  0  0  0  0  0  0  0
    0.7288    0.1967    9.7955 H   0  0  0  0  0  0  0  0  0  0  0  0
    1.0658    0.4752    7.3320 H   0  0  0  0  0  0  0  0  0  0  0  0
    2.4790   -1.0910    6.0777 H   0  0  0  0  0  0  0  0  0  0  0  0
    7.0373   -4.5651   -1.5730 H   0  0  0  0  0  0  0  0  0  0  0  0
    7.8851   -5.1851   -3.6825 H   0  0  0  0  0  0  0  0  0  0  0  0
    6.7575   -6.0922   -4.7157 H   0  0  0  0  0  0  0  0  0  0  0  0
    8.0978   -6.9333   -3.9280 H   0  0  0  0  0  0  0  0  0  0  0  0
    5.4103   -8.1347   -4.6058 H   0  0  0  0  0  0  0  0  0  0  0  0
    5.0751   -9.4490   -3.4556 H   0  0  0  0  0  0  0  0  0  0  0  0
    6.7503   -8.9757   -3.8185 H   0  0  0  0  0  0  0  0  0  0  0  0
    4.2735   -8.7592   -1.3576 H   0  0  0  0  0  0  0  0  0  0  0  0
    1.8432   -3.1794    3.1891 H   0  0  0  0  0  0  0  0  0  0  0  0
    0.8941   -1.2709    1.9727 H   0  0  0  0  0  0  0  0  0  0  0  0
  1  2  1  0
  1 40  1  0
  1 41  1  0
  1 42  1  0
  2  3  1  0
  3  4  2  0
  3 39  1  0
  4  5  1  0
  4 43  1  0
  5  6  2  0
  5 44  1  0
  6  7  1  0
  6 38  1  0
  7  8  1  0
  7 25  1  0
  7 45  1  1
  8  9  2  0
  8 21  1  0
  9 10  1  0
  9 11  1  0
 10 46  1  0
 11 12  2  0
 11 20  1  0
 12 13  1  0
 12 47  1  0
 13 14  2  0
 13 48  1  0
 14 15  1  0
 14 49  1  0
 15 16  1  0
 15 20  2  0
 16 17  2  0
 16 50  1  0
 17 18  1  0
 17 51  1  0
 18 19  2  0
 18 52  1  0
 19 20  1  0
 19 53  1  0
 21 22  2  0
 21 23  1  0
 23 24  2  0
 23 25  1  0
 25 26  1  0
 26 27  2  0
 26 36  1  0
 27 28  1  0
 28 29  2  0
 28 35  1  0
 29 30  1  0
 29 54  1  0
 30 31  1  0
 30 32  2  0
 31 55  1  0
 31 56  1  0
 31 57  1  0
 32 33  1  0
 32 34  1  0
 33 58  1  0
 33 59  1  0
 33 60  1  0
 34 35  2  0
 34 61  1  0
 35 36  1  0
 36 37  1  0
 38 39  2  0
 38 62  1  0
 39 63  1  0
M  END

