
     RDKit          3D

 58 60  0  0  0  0  0  0  0  0999 V2000
   -1.0930   -2.2156    5.6394 C   0  0  0  0  0  0  0  0  0  0  0  0
   -0.3237   -3.2070    5.1856 C   0  0  0  0  0  0  0  0  0  0  0  0
    1.1480   -3.3246    5.4447 C   0  0  0  0  0  0  0  0  0  0  0  0
    1.8052   -3.5510    4.2057 O   0  0  0  0  0  0  0  0  0  0  0  0
    3.1460   -3.7554    4.1862 C   0  0  0  0  0  0  0  0  0  0  0  0
    3.9769   -3.7255    5.3148 C   0  0  0  0  0  0  0  0  0  0  0  0
    5.3532   -3.9512    5.1729 C   0  0  0  0  0  0  0  0  0  0  0  0
    5.9301   -4.2036    3.9256 C   0  0  0  0  0  0  0  0  0  0  0  0
    7.4136   -4.4937    3.7491 C   0  0  0  0  0  0  0  0  0  0  0  0
    8.2654   -4.0642    4.8504 N   0  0  0  0  0  0  0  0  0  0  0  0
    8.5314   -2.6316    4.9199 C   0  0  0  0  0  0  0  0  0  0  0  0
    9.1114   -4.8900    5.5597 C   0  0  0  0  0  0  0  0  0  0  0  0
   10.0523   -4.4466    6.2021 O   0  0  0  0  0  0  0  0  0  0  0  0
    8.8600   -6.3823    5.5669 C   0  0  0  0  0  0  0  0  0  0  0  0
    9.9899   -7.2142    5.5365 C   0  0  0  0  0  0  0  0  0  0  0  0
    9.8578   -8.6007    5.6227 C   0  0  0  0  0  0  0  0  0  0  0  0
    8.5841   -9.1520    5.7758 C   0  0  0  0  0  0  0  0  0  0  0  0
    8.3962  -10.9386    5.8487 S   0  0  1  0  0  0  0  0  0  0  0  0
    7.2724  -11.2978    4.9795 O   0  0  0  0  0  0  0  0  0  0  0  0
    9.7311  -11.5234    5.6808 O   0  0  0  0  0  0  0  0  0  0  0  0
    7.8490  -11.2387    7.4195 N   0  0  0  0  0  0  0  0  0  0  0  0
    8.7754  -11.7708    8.4264 C   0  0  0  0  0  0  0  0  0  0  0  0
    9.6301  -10.6745    9.0845 C   0  0  0  0  0  0  0  0  0  0  0  0
   10.5149  -11.2013   10.1781 C   0  0  0  0  0  0  0  0  0  0  0  0
   11.8409  -11.5595   10.1090 C   0  0  0  0  0  0  0  0  0  0  0  0
   12.3571  -12.0749   11.3381 C   0  0  0  0  0  0  0  0  0  0  0  0
   11.4153  -12.1083   12.3337 C   0  0  0  0  0  0  0  0  0  0  0  0
    9.8893  -11.5062   11.7803 S   0  0  0  0  0  0  0  0  0  0  0  0
    7.4448   -8.3439    5.8230 C   0  0  0  0  0  0  0  0  0  0  0  0
    7.5872   -6.9604    5.7198 C   0  0  0  0  0  0  0  0  0  0  0  0
    5.0836   -4.2184    2.8017 C   0  0  0  0  0  0  0  0  0  0  0  0
    3.7165   -4.0035    2.9236 C   0  0  0  0  0  0  0  0  0  0  0  0
   -2.1700   -2.1975    5.4527 H   0  0  0  0  0  0  0  0  0  0  0  0
   -0.6776   -1.3845    6.2193 H   0  0  0  0  0  0  0  0  0  0  0  0
   -0.7604   -4.0235    4.5986 H   0  0  0  0  0  0  0  0  0  0  0  0
    1.3446   -4.1760    6.1272 H   0  0  0  0  0  0  0  0  0  0  0  0
    1.5343   -2.4107    5.9331 H   0  0  0  0  0  0  0  0  0  0  0  0
    3.5733   -3.5243    6.3072 H   0  0  0  0  0  0  0  0  0  0  0  0
    5.9886   -3.9164    6.0613 H   0  0  0  0  0  0  0  0  0  0  0  0
    7.7634   -4.0000    2.8226 H   0  0  0  0  0  0  0  0  0  0  0  0
    7.5643   -5.5701    3.5826 H   0  0  0  0  0  0  0  0  0  0  0  0
    7.5950   -2.0775    4.7622 H   0  0  0  0  0  0  0  0  0  0  0  0
    9.2603   -2.3204    4.1492 H   0  0  0  0  0  0  0  0  0  0  0  0
    8.9511   -2.3834    5.9014 H   0  0  0  0  0  0  0  0  0  0  0  0
   10.9773   -6.7571    5.4508 H   0  0  0  0  0  0  0  0  0  0  0  0
   10.7270   -9.2585    5.5732 H   0  0  0  0  0  0  0  0  0  0  0  0
    6.9733  -11.7515    7.3297 H   0  0  0  0  0  0  0  0  0  0  0  0
    9.4343  -12.5462    8.0008 H   0  0  0  0  0  0  0  0  0  0  0  0
    8.1508  -12.2550    9.1929 H   0  0  0  0  0  0  0  0  0  0  0  0
    8.9608   -9.8845    9.4629 H   0  0  0  0  0  0  0  0  0  0  0  0
   10.2698  -10.2096    8.3183 H   0  0  0  0  0  0  0  0  0  0  0  0
   12.4320  -11.4525    9.1972 H   0  0  0  0  0  0  0  0  0  0  0  0
   13.3886  -12.4031   11.4765 H   0  0  0  0  0  0  0  0  0  0  0  0
   11.5319  -12.4418   13.3639 H   0  0  0  0  0  0  0  0  0  0  0  0
    6.4567   -8.7935    5.9356 H   0  0  0  0  0  0  0  0  0  0  0  0
    6.6971   -6.3310    5.7688 H   0  0  0  0  0  0  0  0  0  0  0  0
    5.5056   -4.4040    1.8090 H   0  0  0  0  0  0  0  0  0  0  0  0
    3.0591   -4.0163    2.0519 H   0  0  0  0  0  0  0  0  0  0  0  0
  1  2  2  0
  1 33  1  0
  1 34  1  0
  2  3  1  0
  2 35  1  0
  3  4  1  0
  3 36  1  0
  3 37  1  0
  4  5  1  0
  5  6  2  0
  5 32  1  0
  6  7  1  0
  6 38  1  0
  7  8  2  0
  7 39  1  0
  8  9  1  0
  8 31  1  0
  9 10  1  0
  9 40  1  0
  9 41  1  0
 10 11  1  0
 10 12  1  0
 11 42  1  0
 11 43  1  0
 11 44  1  0
 12 13  2  0
 12 14  1  0
 14 15  2  0
 14 30  1  0
 15 16  1  0
 15 45  1  0
 16 17  2  0
 16 46  1  0
 17 18  1  0
 17 29  1  0
 18 19  2  0
 18 20  2  0
 18 21  1  1
 21 22  1  0
 21 47  1  0
 22 23  1  0
 22 48  1  0
 22 49  1  0
 23 24  1  0
 23 50  1  0
 23 51  1  0
 24 25  2  0
 24 28  1  0
 25 26  1  0
 25 52  1  0
 26 27  2  0
 26 53  1  0
 27 28  1  0
 27 54  1  0
 29 30  2  0
 29 55  1  0
 30 56  1  0
 31 32  2  0
 31 57  1  0
 32 58  1  0
M  END

