
     RDKit          3D

 99101  0  0  0  0  0  0  0  0999 V2000
    1.3992   -7.1154   -0.7723 C   0  0  0  0  0  0  0  0  0  0  0  0
    1.4048   -5.7060   -0.8551 O   0  0  0  0  0  0  0  0  0  0  0  0
    2.3863   -5.0103   -0.2342 C   0  0  0  0  0  0  0  0  0  0  0  0
    3.3807   -5.5673    0.5795 C   0  0  0  0  0  0  0  0  0  0  0  0
    4.3493   -4.7581    1.1973 C   0  0  0  0  0  0  0  0  0  0  0  0
    5.3813   -5.3958    2.1098 C   0  0  0  0  0  0  0  0  0  0  0  0
    6.6961   -4.7953    2.0120 N   0  0  0  0  0  0  0  0  0  0  0  0
    7.4034   -4.3718    3.1075 C   0  0  0  0  0  0  0  0  0  0  0  0
    6.9602   -4.4382    4.2419 O   0  0  0  0  0  0  0  0  0  0  0  0
    8.8012   -3.8359    2.8063 C   0  0  0  0  0  0  0  0  0  0  0  0
    9.2177   -2.7089    3.7532 C   0  0  0  0  0  0  0  0  0  0  0  0
   10.6740   -2.2731    3.5775 C   0  0  0  0  0  0  0  0  0  0  0  0
   11.0853   -1.1334    4.5249 C   0  0  0  0  0  0  0  0  0  0  0  0
   12.5304   -0.7388    4.3959 C   0  0  0  0  0  0  0  0  0  0  0  0
   12.9799    0.4675    4.0290 C   0  0  0  0  0  0  0  0  0  0  0  0
   14.4290    0.8664    3.8917 C   0  0  1  0  0  0  0  0  0  0  0  0
   14.7522    1.2795    2.4452 C   0  0  0  0  0  0  0  0  0  0  0  0
   14.7867    1.9921    4.8779 C   0  0  0  0  0  0  0  0  0  0  0  0
    4.3216   -3.3754    0.9865 C   0  0  0  0  0  0  0  0  0  0  0  0
    3.3414   -2.8091    0.1649 C   0  0  0  0  0  0  0  0  0  0  0  0
    2.3863   -3.6157   -0.4379 C   0  0  0  0  0  0  0  0  0  0  0  0
    1.3833   -3.0427   -1.2097 O   0  0  0  0  0  0  0  0  0  0  0  0
    1.4262   -3.2187   -2.5624 C   0  0  0  0  0  0  0  0  0  0  0  0
    2.3213   -3.7734   -3.1358 O   0  0  0  0  0  0  0  0  0  0  0  0
    0.1864   -2.6570   -3.2597 C   0  0  1  0  0  0  0  0  0  0  0  0
   -0.5182   -3.8179   -4.0116 C   0  0  0  0  0  0  0  0  0  0  0  0
   -1.6918   -3.3748   -4.8550 C   0  0  0  0  0  0  0  0  0  0  0  0
   -1.4886   -2.6623   -6.0483 C   0  0  0  0  0  0  0  0  0  0  0  0
   -2.5700   -2.2412   -6.8248 C   0  0  0  0  0  0  0  0  0  0  0  0
   -3.8790   -2.5259   -6.4218 C   0  0  0  0  0  0  0  0  0  0  0  0
   -4.0961   -3.2347   -5.2378 C   0  0  0  0  0  0  0  0  0  0  0  0
   -3.0096   -3.6530   -4.4625 C   0  0  0  0  0  0  0  0  0  0  0  0
   -0.6990   -1.9208   -2.3914 N   0  0  0  0  0  0  0  0  0  0  0  0
   -0.8581   -0.5620   -2.4979 C   0  0  0  0  0  0  0  0  0  0  0  0
   -0.3079    0.0939   -3.3645 O   0  0  0  0  0  0  0  0  0  0  0  0
   -1.7646    0.1069   -1.4484 C   0  0  1  0  0  0  0  0  0  0  0  0
   -2.8569   -0.7972   -0.8519 C   0  0  0  0  0  0  0  0  0  0  0  0
   -0.9203    0.7733   -0.3660 C   0  0  0  0  0  0  0  0  0  0  0  0
   -1.0612    2.1415   -0.0923 C   0  0  0  0  0  0  0  0  0  0  0  0
   -0.3189    2.7551    0.9187 C   0  0  0  0  0  0  0  0  0  0  0  0
    0.5943    2.0261    1.6971 C   0  0  0  0  0  0  0  0  0  0  0  0
    1.3790    2.6972    2.8031 C   0  0  0  0  0  0  0  0  0  0  0  0
    0.5748    2.9908    4.0937 C   0  0  1  0  0  0  0  0  0  0  0  0
    0.0677    1.7106    4.7669 C   0  0  0  0  0  0  0  0  0  0  0  0
    1.4108    3.8325    5.0655 C   0  0  0  0  0  0  0  0  0  0  0  0
    0.7386    0.6588    1.4150 C   0  0  0  0  0  0  0  0  0  0  0  0
   -0.0023    0.0420    0.4038 C   0  0  0  0  0  0  0  0  0  0  0  0
    0.5464   -7.4598   -1.3720 H   0  0  0  0  0  0  0  0  0  0  0  0
    1.2694   -7.4641    0.2678 H   0  0  0  0  0  0  0  0  0  0  0  0
    2.3264   -7.5507   -1.1845 H   0  0  0  0  0  0  0  0  0  0  0  0
    3.4108   -6.6455    0.7423 H   0  0  0  0  0  0  0  0  0  0  0  0
    5.4296   -6.4807    1.9038 H   0  0  0  0  0  0  0  0  0  0  0  0
    5.0858   -5.2877    3.1663 H   0  0  0  0  0  0  0  0  0  0  0  0
    7.1218   -4.7193    1.0957 H   0  0  0  0  0  0  0  0  0  0  0  0
    8.8761   -3.5147    1.7529 H   0  0  0  0  0  0  0  0  0  0  0  0
    9.4976   -4.6880    2.9185 H   0  0  0  0  0  0  0  0  0  0  0  0
    9.0402   -3.0465    4.7871 H   0  0  0  0  0  0  0  0  0  0  0  0
    8.5499   -1.8417    3.6019 H   0  0  0  0  0  0  0  0  0  0  0  0
   10.8506   -1.9534    2.5344 H   0  0  0  0  0  0  0  0  0  0  0  0
   11.3386   -3.1417    3.7420 H   0  0  0  0  0  0  0  0  0  0  0  0
   10.8851   -1.4576    5.5641 H   0  0  0  0  0  0  0  0  0  0  0  0
   10.4417   -0.2542    4.3473 H   0  0  0  0  0  0  0  0  0  0  0  0
   13.2648   -1.5272    4.6158 H   0  0  0  0  0  0  0  0  0  0  0  0
   12.2478    1.2584    3.8060 H   0  0  0  0  0  0  0  0  0  0  0  0
   15.0468   -0.0152    4.1414 H   0  0  0  0  0  0  0  0  0  0  0  0
   14.1470    2.1500    2.1383 H   0  0  0  0  0  0  0  0  0  0  0  0
   14.5422    0.4610    1.7389 H   0  0  0  0  0  0  0  0  0  0  0  0
   15.8135    1.5591    2.3398 H   0  0  0  0  0  0  0  0  0  0  0  0
   14.1832    2.8953    4.6823 H   0  0  0  0  0  0  0  0  0  0  0  0
   15.8483    2.2759    4.7881 H   0  0  0  0  0  0  0  0  0  0  0  0
   14.6011    1.6856    5.9192 H   0  0  0  0  0  0  0  0  0  0  0  0
    5.0708   -2.7376    1.4593 H   0  0  0  0  0  0  0  0  0  0  0  0
    3.3061   -1.7330   -0.0174 H   0  0  0  0  0  0  0  0  0  0  0  0
    0.5574   -1.9256   -3.9947 H   0  0  0  0  0  0  0  0  0  0  0  0
   -0.8469   -4.5686   -3.2732 H   0  0  0  0  0  0  0  0  0  0  0  0
    0.2464   -4.3041   -4.6366 H   0  0  0  0  0  0  0  0  0  0  0  0
   -0.4698   -2.4338   -6.3745 H   0  0  0  0  0  0  0  0  0  0  0  0
   -2.3900   -1.6881   -7.7503 H   0  0  0  0  0  0  0  0  0  0  0  0
   -4.7255   -2.1974   -7.0302 H   0  0  0  0  0  0  0  0  0  0  0  0
   -5.1149   -3.4659   -4.9155 H   0  0  0  0  0  0  0  0  0  0  0  0
   -3.1880   -4.2130   -3.5396 H   0  0  0  0  0  0  0  0  0  0  0  0
   -1.1276   -2.4120   -1.6176 H   0  0  0  0  0  0  0  0  0  0  0  0
   -2.2540    0.9107   -2.0185 H   0  0  0  0  0  0  0  0  0  0  0  0
   -2.4369   -1.5839   -0.2027 H   0  0  0  0  0  0  0  0  0  0  0  0
   -3.4592   -1.2771   -1.6395 H   0  0  0  0  0  0  0  0  0  0  0  0
   -3.5321   -0.2007   -0.2198 H   0  0  0  0  0  0  0  0  0  0  0  0
   -1.7575    2.7391   -0.6875 H   0  0  0  0  0  0  0  0  0  0  0  0
   -0.4460    3.8270    1.0993 H   0  0  0  0  0  0  0  0  0  0  0  0
    1.7831    3.6526    2.4258 H   0  0  0  0  0  0  0  0  0  0  0  0
    2.2521    2.0744    3.0656 H   0  0  0  0  0  0  0  0  0  0  0  0
   -0.3074    3.5900    3.7995 H   0  0  0  0  0  0  0  0  0  0  0  0
    0.9105    1.0747    5.0902 H   0  0  0  0  0  0  0  0  0  0  0  0
   -0.5607    1.1133    4.0885 H   0  0  0  0  0  0  0  0  0  0  0  0
   -0.5317    1.9456    5.6615 H   0  0  0  0  0  0  0  0  0  0  0  0
    2.3156    3.2863    5.3840 H   0  0  0  0  0  0  0  0  0  0  0  0
    0.8381    4.0821    5.9733 H   0  0  0  0  0  0  0  0  0  0  0  0
    1.7390    4.7784    4.6043 H   0  0  0  0  0  0  0  0  0  0  0  0
    1.4505    0.0631    1.9941 H   0  0  0  0  0  0  0  0  0  0  0  0
    0.1562   -1.0207    0.2040 H   0  0  0  0  0  0  0  0  0  0  0  0
  1  2  1  0
  1 48  1  0
  1 49  1  0
  1 50  1  0
  2  3  1  0
  3  4  2  0
  3 21  1  0
  4  5  1  0
  4 51  1  0
  5  6  1  0
  5 19  2  0
  6  7  1  0
  6 52  1  0
  6 53  1  0
  7  8  1  0
  7 54  1  0
  8  9  2  0
  8 10  1  0
 10 11  1  0
 10 55  1  0
 10 56  1  0
 11 12  1  0
 11 57  1  0
 11 58  1  0
 12 13  1  0
 12 59  1  0
 12 60  1  0
 13 14  1  0
 13 61  1  0
 13 62  1  0
 14 15  2  0
 14 63  1  0
 15 16  1  0
 15 64  1  0
 16 17  1  0
 16 18  1  0
 16 65  1  1
 17 66  1  0
 17 67  1  0
 17 68  1  0
 18 69  1  0
 18 70  1  0
 18 71  1  0
 19 20  1  0
 19 72  1  0
 20 21  2  0
 20 73  1  0
 21 22  1  0
 22 23  1  0
 23 24  2  0
 23 25  1  0
 25 26  1  0
 25 33  1  0
 25 74  1  6
 26 27  1  0
 26 75  1  0
 26 76  1  0
 27 28  2  0
 27 32  1  0
 28 29  1  0
 28 77  1  0
 29 30  2  0
 29 78  1  0
 30 31  1  0
 30 79  1  0
 31 32  2  0
 31 80  1  0
 32 81  1  0
 33 34  1  0
 33 82  1  0
 34 35  2  0
 34 36  1  0
 36 37  1  0
 36 38  1  0
 36 83  1  6
 37 84  1  0
 37 85  1  0
 37 86  1  0
 38 39  2  0
 38 47  1  0
 39 40  1  0
 39 87  1  0
 40 41  2  0
 40 88  1  0
 41 42  1  0
 41 46  1  0
 42 43  1  0
 42 89  1  0
 42 90  1  0
 43 44  1  0
 43 45  1  0
 43 91  1  6
 44 92  1  0
 44 93  1  0
 44 94  1  0
 45 95  1  0
 45 96  1  0
 45 97  1  0
 46 47  2  0
 46 98  1  0
 47 99  1  0
M  END

