
     RDKit          3D

 48 49  0  0  0  0  0  0  0  0999 V2000
    0.7072    0.7445    2.5595 C   0  0  0  0  0  0  0  0  0  0  0  0
    2.1898    1.0270    2.3129 C   0  0  0  0  0  0  0  0  0  0  0  0
    3.1091   -0.0765    2.8442 C   0  0  0  0  0  0  0  0  0  0  0  0
    4.5818    0.2088    2.5969 C   0  0  0  0  0  0  0  0  0  0  0  0
    5.3390   -0.8720    3.1260 O   0  0  0  0  0  0  0  0  0  0  0  0
    6.6856   -0.8635    3.0438 C   0  0  0  0  0  0  0  0  0  0  0  0
    7.4421    0.1593    2.4430 C   0  0  0  0  0  0  0  0  0  0  0  0
    8.8323    0.0665    2.4180 C   0  0  0  0  0  0  0  0  0  0  0  0
    9.5046   -1.0378    2.9634 C   0  0  0  0  0  0  0  0  0  0  0  0
   11.0024   -1.0182    2.8948 C   0  0  0  0  0  0  0  0  0  0  0  0
   11.6305   -0.0063    2.6993 O   0  0  0  0  0  0  0  0  0  0  0  0
   11.6040   -2.2909    3.0507 N   0  0  0  0  0  0  0  0  0  0  0  0
   12.9463   -2.6186    3.0577 C   0  0  0  0  0  0  0  0  0  0  0  0
   14.2273   -1.5789    2.9297 S   0  0  0  0  0  0  0  0  0  0  0  0
   13.2050   -3.9822    3.1435 N   0  0  0  0  0  0  0  0  0  0  0  0
   12.3900   -5.0834    3.4469 C   0  0  0  0  0  0  0  0  0  0  0  0
   11.3306   -4.9931    4.3618 C   0  0  0  0  0  0  0  0  0  0  0  0
   10.5441   -6.1161    4.6122 C   0  0  0  0  0  0  0  0  0  0  0  0
    9.4006   -5.9802    5.5368 N   0  0  0  0  0  0  0  0  0  0  0  0
    9.0898   -4.8501    5.8884 O   0  0  0  0  0  0  0  0  0  0  0  0
    8.8316   -6.9994    5.8858 O   0  0  0  0  0  0  0  0  0  0  0  0
   10.8061   -7.3518    4.0289 C   0  0  0  0  0  0  0  0  0  0  0  0
   11.8889   -7.4410    3.1521 C   0  0  0  0  0  0  0  0  0  0  0  0
   12.6861   -6.3339    2.8353 C   0  0  0  0  0  0  0  0  0  0  0  0
   13.8320   -6.4559    1.8667 C   0  0  0  0  0  0  0  0  0  0  0  0
    8.7359   -2.0499    3.5734 C   0  0  0  0  0  0  0  0  0  0  0  0
    7.3501   -1.9651    3.6153 C   0  0  0  0  0  0  0  0  0  0  0  0
    0.0726    1.5545    2.1670 H   0  0  0  0  0  0  0  0  0  0  0  0
    0.4927    0.6443    3.6364 H   0  0  0  0  0  0  0  0  0  0  0  0
    0.3918   -0.1928    2.0720 H   0  0  0  0  0  0  0  0  0  0  0  0
    2.4634    1.9899    2.7815 H   0  0  0  0  0  0  0  0  0  0  0  0
    2.3635    1.1596    1.2294 H   0  0  0  0  0  0  0  0  0  0  0  0
    2.8552   -1.0423    2.3740 H   0  0  0  0  0  0  0  0  0  0  0  0
    2.9554   -0.2101    3.9290 H   0  0  0  0  0  0  0  0  0  0  0  0
    4.8835    1.1550    3.0847 H   0  0  0  0  0  0  0  0  0  0  0  0
    4.7821    0.3154    1.5139 H   0  0  0  0  0  0  0  0  0  0  0  0
    6.9578    1.0288    1.9991 H   0  0  0  0  0  0  0  0  0  0  0  0
    9.4290    0.8625    1.9683 H   0  0  0  0  0  0  0  0  0  0  0  0
   10.9519   -3.0676    3.0253 H   0  0  0  0  0  0  0  0  0  0  0  0
   14.1921   -4.1622    2.9837 H   0  0  0  0  0  0  0  0  0  0  0  0
   11.1259   -4.0757    4.9095 H   0  0  0  0  0  0  0  0  0  0  0  0
   10.1729   -8.2075    4.2593 H   0  0  0  0  0  0  0  0  0  0  0  0
   12.1128   -8.4008    2.6801 H   0  0  0  0  0  0  0  0  0  0  0  0
   13.8591   -7.4535    1.4077 H   0  0  0  0  0  0  0  0  0  0  0  0
   14.8064   -6.2982    2.3636 H   0  0  0  0  0  0  0  0  0  0  0  0
   13.7588   -5.7052    1.0627 H   0  0  0  0  0  0  0  0  0  0  0  0
    9.1985   -2.9079    4.0663 H   0  0  0  0  0  0  0  0  0  0  0  0
    6.7550   -2.7388    4.1037 H   0  0  0  0  0  0  0  0  0  0  0  0
  1  2  1  0
  1 28  1  0
  1 29  1  0
  1 30  1  0
  2  3  1  0
  2 31  1  0
  2 32  1  0
  3  4  1  0
  3 33  1  0
  3 34  1  0
  4  5  1  0
  4 35  1  0
  4 36  1  0
  5  6  1  0
  6  7  2  0
  6 27  1  0
  7  8  1  0
  7 37  1  0
  8  9  2  0
  8 38  1  0
  9 10  1  0
  9 26  1  0
 10 11  2  0
 10 12  1  0
 12 13  1  0
 12 39  1  0
 13 14  2  0
 13 15  1  0
 15 16  1  0
 15 40  1  0
 16 17  2  0
 16 24  1  0
 17 18  1  0
 17 41  1  0
 18 19  1  0
 18 22  2  0
 19 20  2  0
 19 21  1  0
 22 23  1  0
 22 42  1  0
 23 24  2  0
 23 43  1  0
 24 25  1  0
 25 44  1  0
 25 45  1  0
 25 46  1  0
 26 27  2  0
 26 47  1  0
 27 48  1  0
M  CHG  2  19   1  21  -1
M  END

