
     RDKit          3D

 31 33  0  0  0  0  0  0  0  0999 V2000
    1.7884    0.1502    0.8124 C   0  0  0  0  0  0  0  0  0  0  0  0
    3.0903   -0.2843    0.3192 N   0  0  0  0  0  0  0  0  0  0  0  0
    4.1282    0.5324    0.4580 N   0  0  0  0  0  0  0  0  0  0  0  0
    5.2061   -0.0822   -0.0510 C   0  0  0  0  0  0  0  0  0  0  0  0
    6.5140    0.6054   -0.0569 C   0  0  0  0  0  0  0  0  0  0  0  0
    6.5248    2.0259   -0.1258 C   0  0  0  0  0  0  0  0  0  0  0  0
    7.7066    2.7585   -0.1183 C   0  0  0  0  0  0  0  0  0  0  0  0
    8.9040    2.0363   -0.0385 C   0  0  0  0  0  0  0  0  0  0  0  0
    8.9231    0.6196    0.0387 C   0  0  0  0  0  0  0  0  0  0  0  0
    7.7206   -0.1000    0.0331 C   0  0  0  0  0  0  0  0  0  0  0  0
   10.2281    0.1657    0.1196 N   0  0  0  0  0  0  0  0  0  0  0  0
   10.9577    1.2473    0.0895 C   0  0  0  0  0  0  0  0  0  0  0  0
   10.2319    2.4178   -0.0058 N   0  0  0  0  0  0  0  0  0  0  0  0
   10.7476    3.7677   -0.0553 C   0  0  0  0  0  0  0  0  0  0  0  0
    4.8085   -1.3535   -0.5372 C   0  0  0  0  0  0  0  0  0  0  0  0
    5.8759   -2.6288   -1.4405 Br  0  0  0  0  0  0  0  0  0  0  0  0
    3.4337   -1.4643   -0.2851 C   0  0  0  0  0  0  0  0  0  0  0  0
    2.4194   -2.5267   -0.5359 C   0  0  0  0  0  0  0  0  0  0  0  0
    1.2626   -2.3961   -0.2147 O   0  0  0  0  0  0  0  0  0  0  0  0
    2.8406   -3.6462   -1.1362 O   0  0  0  0  0  0  0  0  0  0  0  0
    1.9414    1.1529    1.2279 H   0  0  0  0  0  0  0  0  0  0  0  0
    1.4172   -0.5371    1.5832 H   0  0  0  0  0  0  0  0  0  0  0  0
    1.0538    0.1736   -0.0026 H   0  0  0  0  0  0  0  0  0  0  0  0
    5.5670    2.5447   -0.1838 H   0  0  0  0  0  0  0  0  0  0  0  0
    7.6883    3.8491   -0.1745 H   0  0  0  0  0  0  0  0  0  0  0  0
    7.7496   -1.1858    0.1193 H   0  0  0  0  0  0  0  0  0  0  0  0
   12.0489    1.2744    0.1330 H   0  0  0  0  0  0  0  0  0  0  0  0
   11.8450    3.7375   -0.0120 H   0  0  0  0  0  0  0  0  0  0  0  0
   10.3813    4.3639    0.7965 H   0  0  0  0  0  0  0  0  0  0  0  0
   10.4494    4.2720   -0.9890 H   0  0  0  0  0  0  0  0  0  0  0  0
    3.7919   -3.6161   -1.3465 H   0  0  0  0  0  0  0  0  0  0  0  0
  1  2  1  0
  1 21  1  0
  1 22  1  0
  1 23  1  0
  2  3  1  0
  2 17  1  0
  3  4  2  0
  4  5  1  0
  4 15  1  0
  5  6  2  0
  5 10  1  0
  6  7  1  0
  6 24  1  0
  7  8  2  0
  7 25  1  0
  8  9  1  0
  8 13  1  0
  9 10  2  0
  9 11  1  0
 10 26  1  0
 11 12  2  0
 12 13  1  0
 12 27  1  0
 13 14  1  0
 14 28  1  0
 14 29  1  0
 14 30  1  0
 15 16  1  0
 15 17  2  0
 17 18  1  0
 18 19  2  0
 18 20  1  0
 20 31  1  0
M  END

