
     RDKit          3D

 23 23  0  0  0  0  0  0  0  0999 V2000
    0.7608   -0.0136   -0.1115 O   0  0  0  0  0  0  0  0  0  0  0  0
    1.9591   -0.1354   -0.1429 C   0  0  0  0  0  0  0  0  0  0  0  0
    2.5514   -1.1632    0.4950 O   0  0  0  0  0  0  0  0  0  0  0  0
    2.8917    0.8159   -0.9024 C   0  0  1  0  0  0  0  0  0  0  0  0
    3.7677    0.2377   -1.2416 H   0  0  0  0  0  0  0  0  0  0  0  0
    2.1746    1.3991   -2.1526 C   0  0  0  0  0  0  0  0  0  0  0  0
    1.1377    2.3674   -1.8626 N   0  0  0  0  0  0  0  0  0  0  0  0
    1.6100    3.4658   -1.0350 C   0  0  0  0  0  0  0  0  0  0  0  0
    2.2933    3.0140    0.2687 C   0  0  0  0  0  0  0  0  0  0  0  0
    3.4085    2.0017   -0.0399 C   0  0  1  0  0  0  0  0  0  0  0  0
    4.1803    2.5078   -0.6466 H   0  0  0  0  0  0  0  0  0  0  0  0
    4.1447    1.5651    1.2188 C   0  0  1  0  0  0  0  0  0  0  0  0
    4.9874    0.5267    0.9636 F   0  0  0  0  0  0  0  0  0  0  0  0
    4.8915    2.5599    1.7175 F   0  0  0  0  0  0  0  0  0  0  0  0
    3.3162    1.1555    2.1923 F   0  0  0  0  0  0  0  0  0  0  0  0
    3.5165   -1.0884    0.4483 H   0  0  0  0  0  0  0  0  0  0  0  0
    1.7465    0.5760   -2.7448 H   0  0  0  0  0  0  0  0  0  0  0  0
    2.9461    1.8796   -2.7823 H   0  0  0  0  0  0  0  0  0  0  0  0
    0.3629    1.8877   -1.4051 H   0  0  0  0  0  0  0  0  0  0  0  0
    0.7629    4.1298   -0.8018 H   0  0  0  0  0  0  0  0  0  0  0  0
    2.3258    4.0673   -1.6273 H   0  0  0  0  0  0  0  0  0  0  0  0
    1.5501    2.5493    0.9365 H   0  0  0  0  0  0  0  0  0  0  0  0
    2.7173    3.8802    0.8026 H   0  0  0  0  0  0  0  0  0  0  0  0
  1  2  2  0
  2  3  1  0
  2  4  1  0
  3 16  1  0
  4  5  1  6
  4  6  1  0
  4 10  1  0
  6  7  1  0
  6 17  1  0
  6 18  1  0
  7  8  1  0
  7 19  1  0
  8  9  1  0
  8 20  1  0
  8 21  1  0
  9 10  1  0
  9 22  1  0
  9 23  1  0
 10 11  1  6
 10 12  1  0
 12 13  1  6
 12 14  1  0
 12 15  1  0
M  END

