
     RDKit          3D

 31 32  0  0  0  0  0  0  0  0999 V2000
    4.1108    3.6727   -0.0682 C   0  0  0  0  0  0  0  0  0  0  0  0
    3.7013    3.3181    1.3366 C   0  0  0  0  0  0  0  0  0  0  0  0
    4.0669    3.8988    2.3262 O   0  0  0  0  0  0  0  0  0  0  0  0
    2.7841    2.0663    1.4545 C   0  0  1  0  0  0  0  0  0  0  0  0
    2.0630    2.0604    0.6223 H   0  0  0  0  0  0  0  0  0  0  0  0
    3.6381    0.8077    1.4441 C   0  0  0  0  0  0  0  0  0  0  0  0
    4.3109    0.3699    0.5528 O   0  0  0  0  0  0  0  0  0  0  0  0
    3.5254    0.1721    2.8468 C   0  0  0  0  0  0  0  0  0  0  0  0
    4.1040   -0.8073    3.2308 O   0  0  0  0  0  0  0  0  0  0  0  0
    2.6100    0.9598    3.5622 N   0  0  0  0  0  0  0  0  0  0  0  0
    2.2358    0.7059    4.9176 C   0  0  0  0  0  0  0  0  0  0  0  0
    2.0248   -0.6113    5.3508 C   0  0  0  0  0  0  0  0  0  0  0  0
    1.6709   -0.8540    6.6775 C   0  0  0  0  0  0  0  0  0  0  0  0
    1.5330    0.2211    7.5572 C   0  0  0  0  0  0  0  0  0  0  0  0
    1.0770   -0.0938    9.2666 S   0  0  1  0  0  0  0  0  0  0  0  0
    2.5656   -0.2629   10.0434 N   0  0  0  0  0  0  0  0  0  0  0  0
    0.4566    1.1261    9.7864 O   0  0  0  0  0  0  0  0  0  0  0  0
    0.4174   -1.4003    9.3097 O   0  0  0  0  0  0  0  0  0  0  0  0
    1.7268    1.5369    7.1311 C   0  0  0  0  0  0  0  0  0  0  0  0
    2.0869    1.7808    5.8070 C   0  0  0  0  0  0  0  0  0  0  0  0
    2.0672    2.0218    2.7954 C   0  0  0  0  0  0  0  0  0  0  0  0
    1.1864    2.7507    3.1588 O   0  0  0  0  0  0  0  0  0  0  0  0
    4.8666    4.4681   -0.0499 H   0  0  0  0  0  0  0  0  0  0  0  0
    3.2270    4.0117   -0.6345 H   0  0  0  0  0  0  0  0  0  0  0  0
    4.4993    2.7763   -0.5792 H   0  0  0  0  0  0  0  0  0  0  0  0
    2.1411   -1.4437    4.6583 H   0  0  0  0  0  0  0  0  0  0  0  0
    1.4856   -1.8706    7.0278 H   0  0  0  0  0  0  0  0  0  0  0  0
    2.6785    0.4627   10.7511 H   0  0  0  0  0  0  0  0  0  0  0  0
    2.6564   -1.2011   10.4327 H   0  0  0  0  0  0  0  0  0  0  0  0
    1.5864    2.3621    7.8310 H   0  0  0  0  0  0  0  0  0  0  0  0
    2.2422    2.8023    5.4621 H   0  0  0  0  0  0  0  0  0  0  0  0
  1  2  1  0
  1 23  1  0
  1 24  1  0
  1 25  1  0
  2  3  2  0
  2  4  1  0
  4  5  1  6
  4  6  1  0
  4 21  1  0
  6  7  2  0
  6  8  1  0
  8  9  2  0
  8 10  1  0
 10 11  1  0
 10 21  1  0
 11 12  2  0
 11 20  1  0
 12 13  1  0
 12 26  1  0
 13 14  2  0
 13 27  1  0
 14 15  1  0
 14 19  1  0
 15 16  1  1
 15 17  2  0
 15 18  2  0
 16 28  1  0
 16 29  1  0
 19 20  2  0
 19 30  1  0
 20 31  1  0
 21 22  2  0
M  END

