
     RDKit          3D

 50 53  0  0  0  0  0  0  0  0999 V2000
    1.3918   -0.6164    0.3015 C   0  0  0  0  0  0  0  0  0  0  0  0
    2.8780   -0.2075    0.1943 C   0  0  1  0  0  0  0  0  0  0  0  0
    3.0676    0.8097   -0.9527 C   0  0  0  0  0  0  0  0  0  0  0  0
    2.9690    2.2396   -0.4220 C   0  0  0  0  0  0  0  0  0  0  0  0
    4.1631    2.5741    0.4938 C   0  0  2  0  0  0  0  0  0  0  0  0
    4.5638    1.3428    1.3951 C   0  0  1  0  0  0  0  0  0  0  0  0
    5.1572    1.7253    2.7701 C   0  0  0  0  0  0  0  0  0  0  0  0
    5.8175    3.0880    2.9223 C   0  0  0  0  0  0  0  0  0  0  0  0
    6.6247    3.2835    3.8049 O   0  0  0  0  0  0  0  0  0  0  0  0
    5.4138    4.1870    1.9454 C   0  0  2  0  0  0  0  0  0  0  0  0
    5.5842    5.5900    2.5455 C   0  0  0  0  0  0  0  0  0  0  0  0
    5.3579    6.6881    1.4979 C   0  0  1  0  0  0  0  0  0  0  0  0
    6.4282    6.7611    0.5641 O   0  0  0  0  0  0  0  0  0  0  0  0
    4.0035    6.4965    0.8012 C   0  0  0  0  0  0  0  0  0  0  0  0
    3.8361    5.0844    0.2186 C   0  0  0  0  0  0  0  0  0  0  0  0
    4.0426    3.9365    1.2480 C   0  0  1  0  0  0  0  0  0  0  0  0
    2.8710    3.9540    2.2543 C   0  0  0  0  0  0  0  0  0  0  0  0
    3.4106    0.3171    1.5624 C   0  0  2  0  0  0  0  0  0  0  0  0
    3.8288   -0.9791    2.3127 C   0  0  0  0  0  0  0  0  0  0  0  0
    4.3948   -1.9108    1.2343 C   0  0  0  0  0  0  0  0  0  0  0  0
    3.6855   -1.4982   -0.0542 C   0  0  0  0  0  0  0  0  0  0  0  0
    3.7416   -2.0798   -1.1099 O   0  0  0  0  0  0  0  0  0  0  0  0
    0.7572    0.2753    0.4325 H   0  0  0  0  0  0  0  0  0  0  0  0
    1.2027   -1.2878    1.1541 H   0  0  0  0  0  0  0  0  0  0  0  0
    1.0756   -1.1360   -0.6158 H   0  0  0  0  0  0  0  0  0  0  0  0
    2.3192    0.6277   -1.7391 H   0  0  0  0  0  0  0  0  0  0  0  0
    4.0486    0.6640   -1.4356 H   0  0  0  0  0  0  0  0  0  0  0  0
    2.0131    2.3632    0.1147 H   0  0  0  0  0  0  0  0  0  0  0  0
    2.9397    2.9477   -1.2638 H   0  0  0  0  0  0  0  0  0  0  0  0
    5.0200    2.7207   -0.1883 H   0  0  0  0  0  0  0  0  0  0  0  0
    5.3679    0.8267    0.8431 H   0  0  0  0  0  0  0  0  0  0  0  0
    5.8911    0.9857    3.1211 H   0  0  0  0  0  0  0  0  0  0  0  0
    4.3606    1.7205    3.5368 H   0  0  0  0  0  0  0  0  0  0  0  0
    6.1776    4.0863    1.1444 H   0  0  0  0  0  0  0  0  0  0  0  0
    6.5942    5.6806    2.9688 H   0  0  0  0  0  0  0  0  0  0  0  0
    4.8798    5.7283    3.3829 H   0  0  0  0  0  0  0  0  0  0  0  0
    5.3689    7.6678    2.0026 H   0  0  0  0  0  0  0  0  0  0  0  0
    6.4343    5.9562    0.0309 H   0  0  0  0  0  0  0  0  0  0  0  0
    3.1971    6.7056    1.5240 H   0  0  0  0  0  0  0  0  0  0  0  0
    3.9054    7.2449   -0.0017 H   0  0  0  0  0  0  0  0  0  0  0  0
    4.5600    4.9470   -0.6071 H   0  0  0  0  0  0  0  0  0  0  0  0
    2.8410    5.0011   -0.2456 H   0  0  0  0  0  0  0  0  0  0  0  0
    2.8187    4.9061    2.8015 H   0  0  0  0  0  0  0  0  0  0  0  0
    2.9397    3.1574    3.0075 H   0  0  0  0  0  0  0  0  0  0  0  0
    1.9079    3.8318    1.7356 H   0  0  0  0  0  0  0  0  0  0  0  0
    2.5990    0.8180    2.1163 H   0  0  0  0  0  0  0  0  0  0  0  0
    2.9356   -1.4366    2.7671 H   0  0  0  0  0  0  0  0  0  0  0  0
    4.5321   -0.7961    3.1361 H   0  0  0  0  0  0  0  0  0  0  0  0
    4.2622   -2.9864    1.4259 H   0  0  0  0  0  0  0  0  0  0  0  0
    5.4769   -1.7562    1.0742 H   0  0  0  0  0  0  0  0  0  0  0  0
  2  1  1  1
  1 23  1  0
  1 24  1  0
  1 25  1  0
  2  3  1  0
  2 18  1  0
  2 21  1  0
  3  4  1  0
  3 26  1  0
  3 27  1  0
  4  5  1  0
  4 28  1  0
  4 29  1  0
  5  6  1  0
  5 16  1  0
  5 30  1  6
  6  7  1  0
  6 18  1  0
  6 31  1  6
  7  8  1  0
  7 32  1  0
  7 33  1  0
  8  9  2  0
  8 10  1  0
 10 11  1  0
 10 16  1  0
 10 34  1  6
 11 12  1  0
 11 35  1  0
 11 36  1  0
 12 13  1  0
 12 14  1  0
 12 37  1  1
 13 38  1  0
 14 15  1  0
 14 39  1  0
 14 40  1  0
 15 16  1  0
 15 41  1  0
 15 42  1  0
 16 17  1  1
 17 43  1  0
 17 44  1  0
 17 45  1  0
 18 19  1  0
 18 46  1  1
 19 20  1  0
 19 47  1  0
 19 48  1  0
 20 21  1  0
 20 49  1  0
 20 50  1  0
 21 22  2  0
M  END

