
     RDKit          3D

 57 58  0  0  0  0  0  0  0  0999 V2000
    3.3741   -1.4579   -1.1883 C   0  0  0  0  0  0  0  0  0  0  0  0
    2.9324   -0.1422   -0.5388 C   0  0  1  0  0  0  0  0  0  0  0  0
    1.5562    0.3061   -1.0466 C   0  0  0  0  0  0  0  0  0  0  0  0
    2.8989   -0.2150    1.0005 C   0  0  0  0  0  0  0  0  0  0  0  0
    4.1704   -0.5642    1.6343 N   0  0  0  0  0  0  0  0  0  0  0  0
    5.2709    0.2440    1.8487 C   0  0  0  0  0  0  0  0  0  0  0  0
    5.3567    1.7081    1.5313 C   0  0  0  0  0  0  0  0  0  0  0  0
    5.3724    2.6499    2.7601 C   0  0  0  0  0  0  0  0  0  0  0  0
    6.7195    2.9153    3.4542 C   0  0  0  0  0  0  0  0  0  0  0  0
    7.5462    1.8502    3.6170 N   0  0  0  0  0  0  0  0  0  0  0  0
    6.9877    4.0378    3.8486 O   0  0  0  0  0  0  0  0  0  0  0  0
    6.2138   -0.4527    2.4361 N   0  0  0  0  0  0  0  0  0  0  0  0
    5.7584   -1.7281    2.6307 N   0  0  0  0  0  0  0  0  0  0  0  0
    4.5379   -1.7868    2.1476 C   0  0  0  0  0  0  0  0  0  0  0  0
    3.4594   -3.1779    2.1633 S   0  0  0  0  0  0  0  0  0  0  0  0
    4.5788   -4.4606    2.8592 C   0  0  0  0  0  0  0  0  0  0  0  0
    4.6564   -4.4787    4.3947 C   0  0  0  0  0  0  0  0  0  0  0  0
    3.9840   -5.2672    5.0404 O   0  0  0  0  0  0  0  0  0  0  0  0
    5.5334   -3.5894    4.9234 N   0  0  0  0  0  0  0  0  0  0  0  0
    5.7243   -3.4424    6.3649 C   0  0  1  0  0  0  0  0  0  0  0  0
    7.2013   -3.1351    6.6717 C   0  0  0  0  0  0  0  0  0  0  0  0
    7.6142   -1.7214    6.2348 C   0  0  0  0  0  0  0  0  0  0  0  0
    6.6884   -0.6502    6.8287 C   0  0  0  0  0  0  0  0  0  0  0  0
    5.2124   -0.9526    6.5265 C   0  0  0  0  0  0  0  0  0  0  0  0
    4.7755   -2.3665    6.9646 C   0  0  2  0  0  0  0  0  0  0  0  0
    4.6443   -2.5045    8.4878 C   0  0  0  0  0  0  0  0  0  0  0  0
    3.4044   -1.3528   -2.2842 H   0  0  0  0  0  0  0  0  0  0  0  0
    2.6774   -2.2772   -0.9468 H   0  0  0  0  0  0  0  0  0  0  0  0
    4.3781   -1.7649   -0.8576 H   0  0  0  0  0  0  0  0  0  0  0  0
    3.6662    0.6368   -0.8157 H   0  0  0  0  0  0  0  0  0  0  0  0
    0.7792   -0.4355   -0.7946 H   0  0  0  0  0  0  0  0  0  0  0  0
    1.5622    0.4202   -2.1414 H   0  0  0  0  0  0  0  0  0  0  0  0
    1.2524    1.2721   -0.6114 H   0  0  0  0  0  0  0  0  0  0  0  0
    2.1582   -0.9619    1.3268 H   0  0  0  0  0  0  0  0  0  0  0  0
    2.5688    0.7503    1.4145 H   0  0  0  0  0  0  0  0  0  0  0  0
    4.5032    1.9843    0.8968 H   0  0  0  0  0  0  0  0  0  0  0  0
    6.2574    1.8811    0.9201 H   0  0  0  0  0  0  0  0  0  0  0  0
    4.6626    2.2853    3.5232 H   0  0  0  0  0  0  0  0  0  0  0  0
    5.0216    3.6461    2.4576 H   0  0  0  0  0  0  0  0  0  0  0  0
    7.3168    0.9066    3.2898 H   0  0  0  0  0  0  0  0  0  0  0  0
    8.4322    2.0249    4.0776 H   0  0  0  0  0  0  0  0  0  0  0  0
    5.5629   -4.3402    2.3850 H   0  0  0  0  0  0  0  0  0  0  0  0
    4.1208   -5.4066    2.5442 H   0  0  0  0  0  0  0  0  0  0  0  0
    5.9614   -2.9217    4.2778 H   0  0  0  0  0  0  0  0  0  0  0  0
    5.4499   -4.4160    6.7975 H   0  0  0  0  0  0  0  0  0  0  0  0
    7.8370   -3.8953    6.1886 H   0  0  0  0  0  0  0  0  0  0  0  0
    7.3611   -3.2405    7.7580 H   0  0  0  0  0  0  0  0  0  0  0  0
    7.5928   -1.6476    5.1321 H   0  0  0  0  0  0  0  0  0  0  0  0
    8.6605   -1.5311    6.5276 H   0  0  0  0  0  0  0  0  0  0  0  0
    6.9530    0.3413    6.4250 H   0  0  0  0  0  0  0  0  0  0  0  0
    6.8465   -0.5925    7.9204 H   0  0  0  0  0  0  0  0  0  0  0  0
    5.0515   -0.8532    5.4388 H   0  0  0  0  0  0  0  0  0  0  0  0
    4.5625   -0.1984    7.0028 H   0  0  0  0  0  0  0  0  0  0  0  0
    3.7772   -2.5647    6.5386 H   0  0  0  0  0  0  0  0  0  0  0  0
    5.5921   -2.3191    9.0174 H   0  0  0  0  0  0  0  0  0  0  0  0
    4.3035   -3.5155    8.7635 H   0  0  0  0  0  0  0  0  0  0  0  0
    3.9061   -1.7861    8.8799 H   0  0  0  0  0  0  0  0  0  0  0  0
  1  2  1  0
  1 27  1  0
  1 28  1  0
  1 29  1  0
  2  3  1  0
  2  4  1  0
  2 30  1  1
  3 31  1  0
  3 32  1  0
  3 33  1  0
  4  5  1  0
  4 34  1  0
  4 35  1  0
  5  6  1  0
  5 14  1  0
  6  7  1  0
  6 12  2  0
  7  8  1  0
  7 36  1  0
  7 37  1  0
  8  9  1  0
  8 38  1  0
  8 39  1  0
  9 10  1  0
  9 11  2  0
 10 40  1  0
 10 41  1  0
 12 13  1  0
 13 14  2  0
 14 15  1  0
 15 16  1  0
 16 17  1  0
 16 42  1  0
 16 43  1  0
 17 18  2  0
 17 19  1  0
 19 20  1  0
 19 44  1  0
 20 21  1  0
 20 25  1  0
 20 45  1  1
 21 22  1  0
 21 46  1  0
 21 47  1  0
 22 23  1  0
 22 48  1  0
 22 49  1  0
 23 24  1  0
 23 50  1  0
 23 51  1  0
 24 25  1  0
 24 52  1  0
 24 53  1  0
 25 26  1  0
 25 54  1  6
 26 55  1  0
 26 56  1  0
 26 57  1  0
M  END

