
     RDKit          3D

 41 43  0  0  0  0  0  0  0  0999 V2000
    2.7702    0.3208    1.1404 C   0  0  0  0  0  0  0  0  0  0  0  0
    2.3067   -0.0637   -0.1858 N   0  0  0  0  0  0  0  0  0  0  0  0
    3.2025    0.0436   -1.2317 C   0  0  0  0  0  0  0  0  0  0  0  0
    4.3589    0.3996   -1.0584 O   0  0  0  0  0  0  0  0  0  0  0  0
    2.6797   -0.3285   -2.6311 C   0  0  1  0  0  0  0  0  0  0  0  0
    3.6395    0.0854   -3.7653 C   0  0  0  0  0  0  0  0  0  0  0  0
    3.4548   -1.0448   -4.7808 C   0  0  1  0  0  0  0  0  0  0  0  0
    4.4738   -1.2655   -5.8955 C   0  0  0  0  0  0  0  0  0  0  0  0
    4.0973   -2.5334   -6.6865 C   0  0  0  0  0  0  0  0  0  0  0  0
    3.9001   -3.7658   -5.7842 C   0  0  0  0  0  0  0  0  0  0  0  0
    2.9173   -3.5083   -4.6262 C   0  0  0  0  0  0  0  0  0  0  0  0
    3.3689   -2.2665   -3.8627 C   0  0  2  0  0  0  0  0  0  0  0  0
    2.4914   -1.8028   -2.7829 N   0  0  0  0  0  0  0  0  0  0  0  0
    0.9224   -0.4863   -0.3364 C   0  0  1  0  0  0  0  0  0  0  0  0
    0.2586   -1.4001    0.7317 C   0  0  0  0  0  0  0  0  0  0  0  0
   -1.0680   -0.6380    0.4745 C   0  0  0  0  0  0  0  0  0  0  0  0
   -0.2454    0.5219   -0.1434 C   0  0  0  0  0  0  0  0  0  0  0  0
    3.7273    0.8432    1.0314 H   0  0  0  0  0  0  0  0  0  0  0  0
    2.9263   -0.5565    1.7915 H   0  0  0  0  0  0  0  0  0  0  0  0
    2.0441    0.9889    1.6302 H   0  0  0  0  0  0  0  0  0  0  0  0
    1.7073    0.1745   -2.7798 H   0  0  0  0  0  0  0  0  0  0  0  0
    4.6702    0.1092   -3.3799 H   0  0  0  0  0  0  0  0  0  0  0  0
    3.4038    1.0844   -4.1626 H   0  0  0  0  0  0  0  0  0  0  0  0
    2.4584   -0.9277   -5.2500 H   0  0  0  0  0  0  0  0  0  0  0  0
    5.4833   -1.3764   -5.4585 H   0  0  0  0  0  0  0  0  0  0  0  0
    4.5174   -0.3942   -6.5708 H   0  0  0  0  0  0  0  0  0  0  0  0
    4.8637   -2.7490   -7.4499 H   0  0  0  0  0  0  0  0  0  0  0  0
    3.1591   -2.3394   -7.2381 H   0  0  0  0  0  0  0  0  0  0  0  0
    4.8782   -4.0612   -5.3618 H   0  0  0  0  0  0  0  0  0  0  0  0
    3.5581   -4.6218   -6.3893 H   0  0  0  0  0  0  0  0  0  0  0  0
    2.8700   -4.3890   -3.9623 H   0  0  0  0  0  0  0  0  0  0  0  0
    1.8948   -3.3414   -5.0084 H   0  0  0  0  0  0  0  0  0  0  0  0
    4.3968   -2.4656   -3.4851 H   0  0  0  0  0  0  0  0  0  0  0  0
    2.6771   -2.2987   -1.9139 H   0  0  0  0  0  0  0  0  0  0  0  0
    0.8147   -0.9804   -1.3090 H   0  0  0  0  0  0  0  0  0  0  0  0
    0.6381   -1.2022    1.7449 H   0  0  0  0  0  0  0  0  0  0  0  0
    0.2848   -2.4866    0.5540 H   0  0  0  0  0  0  0  0  0  0  0  0
   -1.6914   -0.4051    1.3501 H   0  0  0  0  0  0  0  0  0  0  0  0
   -1.6957   -1.1436   -0.2754 H   0  0  0  0  0  0  0  0  0  0  0  0
   -0.0026    1.2904    0.6069 H   0  0  0  0  0  0  0  0  0  0  0  0
   -0.6337    1.0228   -1.0439 H   0  0  0  0  0  0  0  0  0  0  0  0
  1  2  1  0
  1 18  1  0
  1 19  1  0
  1 20  1  0
  2  3  1  0
  2 14  1  0
  3  4  2  0
  3  5  1  0
  5  6  1  0
  5 13  1  0
  5 21  1  6
  6  7  1  0
  6 22  1  0
  6 23  1  0
  7  8  1  0
  7 12  1  0
  7 24  1  6
  8  9  1  0
  8 25  1  0
  8 26  1  0
  9 10  1  0
  9 27  1  0
  9 28  1  0
 10 11  1  0
 10 29  1  0
 10 30  1  0
 11 12  1  0
 11 31  1  0
 11 32  1  0
 12 13  1  0
 12 33  1  1
 13 34  1  0
 14 15  1  0
 14 17  1  0
 14 35  1  6
 15 16  1  0
 15 36  1  0
 15 37  1  0
 16 17  1  0
 16 38  1  0
 16 39  1  0
 17 40  1  0
 17 41  1  0
M  END

