
     RDKit          3D

 65 66  0  0  0  0  0  0  0  0999 V2000
   -2.0333    2.2664    3.5537 C   0  0  0  0  0  0  0  0  0  0  0  0
   -0.6172    2.4778    3.0540 C   0  0  0  0  0  0  0  0  0  0  0  0
   -0.0613    1.2080    2.7418 O   0  0  0  0  0  0  0  0  0  0  0  0
    1.2145    1.1241    2.2806 C   0  0  0  0  0  0  0  0  0  0  0  0
    2.0523    2.2268    2.0859 C   0  0  0  0  0  0  0  0  0  0  0  0
    3.3877    2.0840    1.6508 C   0  0  0  0  0  0  0  0  0  0  0  0
    4.1922    3.2920    1.4808 C   0  0  0  0  0  0  0  0  0  0  0  0
    5.4779    3.3940    1.0850 C   0  0  0  0  0  0  0  0  0  0  0  0
    6.1169    4.7315    0.9744 C   0  0  0  0  0  0  0  0  0  0  0  0
    5.5340    5.7775    1.2267 O   0  0  0  0  0  0  0  0  0  0  0  0
    7.4347    4.6782    0.5592 N   0  0  0  0  0  0  0  0  0  0  0  0
    8.3331    5.7363    0.3438 C   0  0  0  0  0  0  0  0  0  0  0  0
    8.0000    7.0919    0.5026 C   0  0  0  0  0  0  0  0  0  0  0  0
    8.9490    8.0856    0.2559 C   0  0  0  0  0  0  0  0  0  0  0  0
   10.2575    7.7793   -0.1537 C   0  0  0  0  0  0  0  0  0  0  0  0
   11.2058    8.7015   -0.4120 O   0  0  0  0  0  0  0  0  0  0  0  0
   10.8554   10.0814   -0.4252 C   0  0  0  0  0  0  0  0  0  0  0  0
   12.0579   10.8811   -0.8850 C   0  0  0  0  0  0  0  0  0  0  0  0
   10.5878    6.4117   -0.2949 C   0  0  0  0  0  0  0  0  0  0  0  0
   12.1976    5.8578   -0.8853 S   0  0  1  0  0  0  0  0  0  0  0  0
   12.1226    4.3889   -0.9478 O   0  0  0  0  0  0  0  0  0  0  0  0
   12.5787    6.6063   -2.0843 O   0  0  0  0  0  0  0  0  0  0  0  0
   13.2554    6.3333    0.3466 N   0  0  0  0  0  0  0  0  0  0  0  0
   13.1437    5.5725    1.5966 C   0  0  0  0  0  0  0  0  0  0  0  0
   13.4812    6.4180    2.8217 C   0  0  0  0  0  0  0  0  0  0  0  0
   14.6150    6.6942   -0.1079 C   0  0  0  0  0  0  0  0  0  0  0  0
   14.8471    8.1986   -0.1753 C   0  0  0  0  0  0  0  0  0  0  0  0
    9.6396    5.4178   -0.0589 C   0  0  0  0  0  0  0  0  0  0  0  0
    3.8722    0.7856    1.4099 C   0  0  0  0  0  0  0  0  0  0  0  0
    3.0408   -0.3162    1.5829 C   0  0  0  0  0  0  0  0  0  0  0  0
    1.7130   -0.1769    2.0079 C   0  0  0  0  0  0  0  0  0  0  0  0
    0.9993   -1.3159    2.1935 O   0  0  0  0  0  0  0  0  0  0  0  0
   -0.3249   -1.4293    1.6888 C   0  0  0  0  0  0  0  0  0  0  0  0
   -2.4901    3.2334    3.8148 H   0  0  0  0  0  0  0  0  0  0  0  0
   -2.0389    1.6265    4.4493 H   0  0  0  0  0  0  0  0  0  0  0  0
   -2.6548    1.7876    2.7815 H   0  0  0  0  0  0  0  0  0  0  0  0
   -0.0010    2.9768    3.8250 H   0  0  0  0  0  0  0  0  0  0  0  0
   -0.6104    3.1238    2.1559 H   0  0  0  0  0  0  0  0  0  0  0  0
    1.6819    3.2318    2.2874 H   0  0  0  0  0  0  0  0  0  0  0  0
    3.6942    4.2432    1.7011 H   0  0  0  0  0  0  0  0  0  0  0  0
    6.0728    2.5088    0.8390 H   0  0  0  0  0  0  0  0  0  0  0  0
    7.8108    3.7550    0.3795 H   0  0  0  0  0  0  0  0  0  0  0  0
    6.9929    7.3551    0.8177 H   0  0  0  0  0  0  0  0  0  0  0  0
    8.6484    9.1245    0.3880 H   0  0  0  0  0  0  0  0  0  0  0  0
   10.5376   10.3969    0.5862 H   0  0  0  0  0  0  0  0  0  0  0  0
    9.9994   10.2383   -1.1069 H   0  0  0  0  0  0  0  0  0  0  0  0
   12.9060   10.7483   -0.1974 H   0  0  0  0  0  0  0  0  0  0  0  0
   11.8027   11.9517   -0.9198 H   0  0  0  0  0  0  0  0  0  0  0  0
   12.3732   10.5632   -1.8900 H   0  0  0  0  0  0  0  0  0  0  0  0
   13.7811    4.6675    1.5600 H   0  0  0  0  0  0  0  0  0  0  0  0
   12.1077    5.2127    1.6825 H   0  0  0  0  0  0  0  0  0  0  0  0
   14.5208    6.7808    2.7965 H   0  0  0  0  0  0  0  0  0  0  0  0
   13.3625    5.8191    3.7389 H   0  0  0  0  0  0  0  0  0  0  0  0
   12.8168    7.2934    2.8869 H   0  0  0  0  0  0  0  0  0  0  0  0
   14.8102    6.2480   -1.0954 H   0  0  0  0  0  0  0  0  0  0  0  0
   15.3252    6.2201    0.5897 H   0  0  0  0  0  0  0  0  0  0  0  0
   14.1516    8.6492   -0.8957 H   0  0  0  0  0  0  0  0  0  0  0  0
   15.8784    8.4140   -0.5005 H   0  0  0  0  0  0  0  0  0  0  0  0
   14.6862    8.6723    0.8060 H   0  0  0  0  0  0  0  0  0  0  0  0
    9.9477    4.3804   -0.2075 H   0  0  0  0  0  0  0  0  0  0  0  0
    4.8995    0.6307    1.0752 H   0  0  0  0  0  0  0  0  0  0  0  0
    3.3984   -1.3302    1.3925 H   0  0  0  0  0  0  0  0  0  0  0  0
   -0.5450   -2.5057    1.6467 H   0  0  0  0  0  0  0  0  0  0  0  0
   -0.4016   -1.0106    0.6700 H   0  0  0  0  0  0  0  0  0  0  0  0
   -1.0579   -0.9285    2.3366 H   0  0  0  0  0  0  0  0  0  0  0  0
  1  2  1  0
  1 34  1  0
  1 35  1  0
  1 36  1  0
  2  3  1  0
  2 37  1  0
  2 38  1  0
  3  4  1  0
  4  5  2  0
  4 31  1  0
  5  6  1  0
  5 39  1  0
  6  7  1  0
  6 29  2  0
  7  8  2  0
  7 40  1  0
  8  9  1  0
  8 41  1  0
  9 10  2  0
  9 11  1  0
 11 12  1  0
 11 42  1  0
 12 13  2  0
 12 28  1  0
 13 14  1  0
 13 43  1  0
 14 15  2  0
 14 44  1  0
 15 16  1  0
 15 19  1  0
 16 17  1  0
 17 18  1  0
 17 45  1  0
 17 46  1  0
 18 47  1  0
 18 48  1  0
 18 49  1  0
 19 20  1  0
 19 28  2  0
 20 21  2  0
 20 22  2  0
 20 23  1  1
 23 24  1  0
 23 26  1  0
 24 25  1  0
 24 50  1  0
 24 51  1  0
 25 52  1  0
 25 53  1  0
 25 54  1  0
 26 27  1  0
 26 55  1  0
 26 56  1  0
 27 57  1  0
 27 58  1  0
 27 59  1  0
 28 60  1  0
 29 30  1  0
 29 61  1  0
 30 31  2  0
 30 62  1  0
 31 32  1  0
 32 33  1  0
 33 63  1  0
 33 64  1  0
 33 65  1  0
M  END

