
     RDKit          3D

 54 57  0  0  0  0  0  0  0  0999 V2000
   -2.0488    5.8735   -3.6260 C   0  0  0  0  0  0  0  0  0  0  0  0
   -1.4482    6.9940   -2.7573 C   0  0  1  0  0  0  0  0  0  0  0  0
   -1.5167    8.3117   -3.5632 C   0  0  0  0  0  0  0  0  0  0  0  0
   -2.2996    7.1316   -1.4725 C   0  0  0  0  0  0  0  0  0  0  0  0
    0.0089    6.7001   -2.3511 C   0  0  0  0  0  0  0  0  0  0  0  0
    0.6324    5.4623   -2.5955 C   0  0  0  0  0  0  0  0  0  0  0  0
    1.9435    5.2080   -2.1854 C   0  0  0  0  0  0  0  0  0  0  0  0
    2.6674    6.2088   -1.5335 C   0  0  0  0  0  0  0  0  0  0  0  0
    4.3659    5.9122   -1.0109 S   0  0  1  0  0  0  0  0  0  0  0  0
    4.7757    7.1003   -0.2592 O   0  0  0  0  0  0  0  0  0  0  0  0
    4.4314    4.5676   -0.4324 O   0  0  0  0  0  0  0  0  0  0  0  0
    5.3025    5.8609   -2.3961 N   0  0  0  0  0  0  0  0  0  0  0  0
    5.6885    4.5971   -3.0105 C   0  0  0  0  0  0  0  0  0  0  0  0
    5.3270    4.5331   -4.4699 C   0  0  0  0  0  0  0  0  0  0  0  0
    4.8362    5.5679   -5.1804 C   0  0  0  0  0  0  0  0  0  0  0  0
    4.5322    5.4353   -6.6199 C   0  0  0  0  0  0  0  0  0  0  0  0
    5.3688    4.8957   -7.5772 C   0  0  0  0  0  0  0  0  0  0  0  0
    4.7636    4.9261   -8.8144 N   0  0  0  0  0  0  0  0  0  0  0  0
    5.1837    4.6092   -9.6775 H   0  0  0  0  0  0  0  0  0  0  0  0
    3.5125    5.4890   -8.6955 C   0  0  0  0  0  0  0  0  0  0  0  0
    2.5206    5.7148   -9.6589 C   0  0  0  0  0  0  0  0  0  0  0  0
    1.3191    6.2780   -9.2422 C   0  0  0  0  0  0  0  0  0  0  0  0
    1.1216    6.6000   -7.8826 C   0  0  0  0  0  0  0  0  0  0  0  0
   -0.4284    7.2820   -7.4066 Cl  0  0  0  0  0  0  0  0  0  0  0  0
    2.0989    6.3875   -6.9183 C   0  0  0  0  0  0  0  0  0  0  0  0
    3.3274    5.8285   -7.3229 C   0  0  0  0  0  0  0  0  0  0  0  0
    4.6168    6.9199   -4.5188 C   0  0  0  0  0  0  0  0  0  0  0  0
    5.4380    7.0496   -3.2307 C   0  0  0  0  0  0  0  0  0  0  0  0
    2.0754    7.4465   -1.2676 C   0  0  0  0  0  0  0  0  0  0  0  0
    0.7613    7.6784   -1.6737 C   0  0  0  0  0  0  0  0  0  0  0  0
   -3.0839    6.1327   -3.8984 H   0  0  0  0  0  0  0  0  0  0  0  0
   -2.0843    4.9095   -3.0950 H   0  0  0  0  0  0  0  0  0  0  0  0
   -1.4862    5.7367   -4.5626 H   0  0  0  0  0  0  0  0  0  0  0  0
   -2.5595    8.5242   -3.8501 H   0  0  0  0  0  0  0  0  0  0  0  0
   -0.9204    8.2453   -4.4862 H   0  0  0  0  0  0  0  0  0  0  0  0
   -1.1548    9.1743   -2.9837 H   0  0  0  0  0  0  0  0  0  0  0  0
   -3.3497    7.3470   -1.7300 H   0  0  0  0  0  0  0  0  0  0  0  0
   -1.9375    7.9478   -0.8285 H   0  0  0  0  0  0  0  0  0  0  0  0
   -2.2774    6.2028   -0.8806 H   0  0  0  0  0  0  0  0  0  0  0  0
    0.0915    4.6668   -3.1077 H   0  0  0  0  0  0  0  0  0  0  0  0
    2.3941    4.2306   -2.3692 H   0  0  0  0  0  0  0  0  0  0  0  0
    5.2189    3.7753   -2.4495 H   0  0  0  0  0  0  0  0  0  0  0  0
    6.7818    4.4434   -2.8908 H   0  0  0  0  0  0  0  0  0  0  0  0
    5.4870    3.5677   -4.9611 H   0  0  0  0  0  0  0  0  0  0  0  0
    6.3782    4.5064   -7.4576 H   0  0  0  0  0  0  0  0  0  0  0  0
    2.6751    5.4530  -10.7085 H   0  0  0  0  0  0  0  0  0  0  0  0
    0.5183    6.4686   -9.9581 H   0  0  0  0  0  0  0  0  0  0  0  0
    1.9029    6.6394   -5.8760 H   0  0  0  0  0  0  0  0  0  0  0  0
    3.5461    7.0649   -4.2912 H   0  0  0  0  0  0  0  0  0  0  0  0
    4.8925    7.7249   -5.2206 H   0  0  0  0  0  0  0  0  0  0  0  0
    5.1459    7.9309   -2.6438 H   0  0  0  0  0  0  0  0  0  0  0  0
    6.5078    7.1759   -3.4784 H   0  0  0  0  0  0  0  0  0  0  0  0
    2.6451    8.2092   -0.7346 H   0  0  0  0  0  0  0  0  0  0  0  0
    0.3151    8.6491   -1.4479 H   0  0  0  0  0  0  0  0  0  0  0  0
  2  1  1  6
  1 31  1  0
  1 32  1  0
  1 33  1  0
  2  3  1  0
  2  4  1  0
  2  5  1  0
  3 34  1  0
  3 35  1  0
  3 36  1  0
  4 37  1  0
  4 38  1  0
  4 39  1  0
  5  6  2  0
  5 30  1  0
  6  7  1  0
  6 40  1  0
  7  8  2  0
  7 41  1  0
  9  8  1  6
  8 29  1  0
  9 10  2  0
  9 11  2  0
  9 12  1  0
 12 13  1  0
 12 28  1  0
 13 14  1  0
 13 42  1  0
 13 43  1  0
 14 15  2  0
 14 44  1  0
 15 16  1  0
 15 27  1  0
 16 17  2  0
 16 26  1  0
 17 18  1  0
 17 45  1  0
 18 19  1  0
 18 20  1  0
 20 21  1  0
 20 26  2  0
 21 22  2  0
 21 46  1  0
 22 23  1  0
 22 47  1  0
 23 24  1  0
 23 25  2  0
 25 26  1  0
 25 48  1  0
 27 28  1  0
 27 49  1  0
 27 50  1  0
 28 51  1  0
 28 52  1  0
 29 30  2  0
 29 53  1  0
 30 54  1  0
M  END

