
     RDKit          3D

 39 42  0  0  0  0  0  0  0  0999 V2000
    3.1130    1.2503    1.0040 C   0  0  0  0  0  0  0  0  0  0  0  0
    2.5211   -0.0309    0.9370 O   0  0  0  0  0  0  0  0  0  0  0  0
    3.3053   -1.1274    0.8768 C   0  0  0  0  0  0  0  0  0  0  0  0
    2.6352   -2.3665    0.8126 C   0  0  0  0  0  0  0  0  0  0  0  0
    3.3502   -3.5503    0.7484 C   0  0  0  0  0  0  0  0  0  0  0  0
    4.7634   -3.5396    0.7459 C   0  0  0  0  0  0  0  0  0  0  0  0
    5.4952   -4.8056    0.6779 C   0  0  0  0  0  0  0  0  0  0  0  0
    4.9110   -5.9645    0.6169 N   0  0  0  0  0  0  0  0  0  0  0  0
    5.8424   -6.9415    0.5645 N   0  0  0  0  0  0  0  0  0  0  0  0
    5.8550   -8.3180    0.4916 C   0  0  0  0  0  0  0  0  0  0  0  0
    4.6964   -9.1886    0.4467 C   0  0  0  0  0  0  0  0  0  0  0  0
    3.4508   -8.8027    0.4711 N   0  0  0  0  0  0  0  0  0  0  0  0
    2.5856   -9.8669    0.4146 C   0  0  0  0  0  0  0  0  0  0  0  0
    1.0941   -9.6157    0.4324 C   0  0  1  0  0  0  0  0  0  0  0  0
    0.6697   -8.9332    1.7437 C   0  0  0  0  0  0  0  0  0  0  0  0
    0.6631   -8.7927   -0.7932 C   0  0  0  0  0  0  0  0  0  0  0  0
    3.2026  -11.0951    0.3458 C   0  0  0  0  0  0  0  0  0  0  0  0
    4.9236  -10.9276    0.3502 S   0  0  0  0  0  0  0  0  0  0  0  0
    7.1164   -8.7196    0.4686 N   0  0  0  0  0  0  0  0  0  0  0  0
    7.9512   -7.6374    0.5255 N   0  0  0  0  0  0  0  0  0  0  0  0
    7.1725   -6.5874    0.5817 C   0  0  0  0  0  0  0  0  0  0  0  0
    7.2945   -4.8500    0.6731 S   0  0  0  0  0  0  0  0  0  0  0  0
    5.4213   -2.3029    0.8096 C   0  0  0  0  0  0  0  0  0  0  0  0
    4.7097   -1.1037    0.8746 C   0  0  0  0  0  0  0  0  0  0  0  0
    2.2873    1.9726    1.0434 H   0  0  0  0  0  0  0  0  0  0  0  0
    3.7323    1.4613    0.1144 H   0  0  0  0  0  0  0  0  0  0  0  0
    3.7342    1.3661    1.9098 H   0  0  0  0  0  0  0  0  0  0  0  0
    1.5435   -2.3639    0.8149 H   0  0  0  0  0  0  0  0  0  0  0  0
    2.8298   -4.5080    0.6988 H   0  0  0  0  0  0  0  0  0  0  0  0
    0.6001  -10.6011    0.3792 H   0  0  0  0  0  0  0  0  0  0  0  0
    1.1815   -7.9644    1.8545 H   0  0  0  0  0  0  0  0  0  0  0  0
    0.9259   -9.5514    2.6185 H   0  0  0  0  0  0  0  0  0  0  0  0
   -0.4177   -8.7544    1.7574 H   0  0  0  0  0  0  0  0  0  0  0  0
    1.1754   -7.8179   -0.7994 H   0  0  0  0  0  0  0  0  0  0  0  0
   -0.4242   -8.6128   -0.7809 H   0  0  0  0  0  0  0  0  0  0  0  0
    0.9135   -9.3109   -1.7322 H   0  0  0  0  0  0  0  0  0  0  0  0
    2.7341  -12.0763    0.2932 H   0  0  0  0  0  0  0  0  0  0  0  0
    6.5137   -2.2587    0.8092 H   0  0  0  0  0  0  0  0  0  0  0  0
    5.2578   -0.1632    0.9226 H   0  0  0  0  0  0  0  0  0  0  0  0
  1  2  1  0
  1 25  1  0
  1 26  1  0
  1 27  1  0
  2  3  1  0
  3  4  2  0
  3 24  1  0
  4  5  1  0
  4 28  1  0
  5  6  2  0
  5 29  1  0
  6  7  1  0
  6 23  1  0
  7  8  2  0
  7 22  1  0
  8  9  1  0
  9 10  1  0
  9 21  1  0
 10 11  1  0
 10 19  2  0
 11 12  2  0
 11 18  1  0
 12 13  1  0
 13 14  1  0
 13 17  2  0
 14 15  1  0
 14 16  1  0
 14 30  1  6
 15 31  1  0
 15 32  1  0
 15 33  1  0
 16 34  1  0
 16 35  1  0
 16 36  1  0
 17 18  1  0
 17 37  1  0
 19 20  1  0
 20 21  2  0
 21 22  1  0
 23 24  2  0
 23 38  1  0
 24 39  1  0
M  END

