
     RDKit          3D

 60 62  0  0  0  0  0  0  0  0999 V2000
    1.8467   -0.5101   -0.5457 C   0  0  0  0  0  0  0  0  0  0  0  0
    3.0560   -0.6595    0.2220 N   0  0  0  0  0  0  0  0  0  0  0  0
    3.2648    0.0031    1.2975 C   0  0  0  0  0  0  0  0  0  0  0  0
    2.3679    0.8031    2.0072 N   0  0  0  0  0  0  0  0  0  0  0  0
    1.0200    0.4155    2.3983 C   0  0  0  0  0  0  0  0  0  0  0  0
    0.8771   -0.2125    3.8080 C   0  0  1  0  0  0  0  0  0  0  0  0
    1.6053   -1.5662    3.8771 C   0  0  0  0  0  0  0  0  0  0  0  0
    1.3814   -2.4544    5.1173 C   0  0  0  0  0  0  0  0  0  0  0  0
   -0.0753   -2.5802    5.6165 C   0  0  0  0  0  0  0  0  0  0  0  0
   -0.4589   -1.6942    6.8142 C   0  0  0  0  0  0  0  0  0  0  0  0
   -0.4310   -0.1645    6.6528 C   0  0  0  0  0  0  0  0  0  0  0  0
    0.9506    0.4648    6.3660 C   0  0  0  0  0  0  0  0  0  0  0  0
    1.2490    0.8127    4.8940 C   0  0  0  0  0  0  0  0  0  0  0  0
    4.5541    0.0370    1.8413 N   0  0  0  0  0  0  0  0  0  0  0  0
    5.6454   -0.6764    1.1861 C   0  0  2  0  0  0  0  0  0  0  0  0
    6.8179   -0.8527    2.1653 C   0  0  0  0  0  0  0  0  0  0  0  0
    7.4083    0.4914    2.6261 C   0  0  0  0  0  0  0  0  0  0  0  0
    7.5653    1.4314    1.4724 C   0  0  0  0  0  0  0  0  0  0  0  0
    8.2413    2.5664    1.4153 N   0  0  0  0  0  0  0  0  0  0  0  0
    7.9972    3.0141    0.1508 C   0  0  0  0  0  0  0  0  0  0  0  0
    8.6100    4.2665   -0.4119 C   0  0  0  0  0  0  0  0  0  0  0  0
    9.8445    4.0484   -1.0673 O   0  0  0  0  0  0  0  0  0  0  0  0
    9.7319    3.4901   -2.3524 C   0  0  0  0  0  0  0  0  0  0  0  0
    7.2079    2.2175   -0.5654 N   0  0  0  0  0  0  0  0  0  0  0  0
    6.9386    1.2127    0.2896 N   0  0  0  0  0  0  0  0  0  0  0  0
    6.1185    0.0670   -0.0736 C   0  0  0  0  0  0  0  0  0  0  0  0
    2.0739   -0.6478   -1.6166 H   0  0  0  0  0  0  0  0  0  0  0  0
    1.3596    0.4784   -0.4296 H   0  0  0  0  0  0  0  0  0  0  0  0
    1.0928   -1.2821   -0.2948 H   0  0  0  0  0  0  0  0  0  0  0  0
    2.8114    1.4978    2.5983 H   0  0  0  0  0  0  0  0  0  0  0  0
    0.6349   -0.2936    1.6552 H   0  0  0  0  0  0  0  0  0  0  0  0
    0.3702    1.3070    2.3436 H   0  0  0  0  0  0  0  0  0  0  0  0
   -0.2055   -0.4113    3.9028 H   0  0  0  0  0  0  0  0  0  0  0  0
    2.6910   -1.4051    3.7529 H   0  0  0  0  0  0  0  0  0  0  0  0
    1.2958   -2.1439    2.9878 H   0  0  0  0  0  0  0  0  0  0  0  0
    2.0218   -2.1228    5.9507 H   0  0  0  0  0  0  0  0  0  0  0  0
    1.7564   -3.4582    4.8564 H   0  0  0  0  0  0  0  0  0  0  0  0
   -0.2487   -3.6240    5.9278 H   0  0  0  0  0  0  0  0  0  0  0  0
   -0.7776   -2.4111    4.7800 H   0  0  0  0  0  0  0  0  0  0  0  0
    0.2023   -1.9600    7.6607 H   0  0  0  0  0  0  0  0  0  0  0  0
   -1.4757   -1.9812    7.1356 H   0  0  0  0  0  0  0  0  0  0  0  0
   -0.8177    0.2593    7.5949 H   0  0  0  0  0  0  0  0  0  0  0  0
   -1.1564    0.1480    5.8797 H   0  0  0  0  0  0  0  0  0  0  0  0
    1.7386   -0.1873    6.7755 H   0  0  0  0  0  0  0  0  0  0  0  0
    1.0391    1.4052    6.9354 H   0  0  0  0  0  0  0  0  0  0  0  0
    2.3226    1.0651    4.8093 H   0  0  0  0  0  0  0  0  0  0  0  0
    0.7050    1.7452    4.6545 H   0  0  0  0  0  0  0  0  0  0  0  0
    4.5760    0.0152    2.8559 H   0  0  0  0  0  0  0  0  0  0  0  0
    5.2891   -1.6642    0.8487 H   0  0  0  0  0  0  0  0  0  0  0  0
    7.5961   -1.4445    1.6560 H   0  0  0  0  0  0  0  0  0  0  0  0
    6.4961   -1.4479    3.0357 H   0  0  0  0  0  0  0  0  0  0  0  0
    8.3843    0.3513    3.1158 H   0  0  0  0  0  0  0  0  0  0  0  0
    6.7600    0.9692    3.3819 H   0  0  0  0  0  0  0  0  0  0  0  0
    8.8213    4.9497    0.4229 H   0  0  0  0  0  0  0  0  0  0  0  0
    7.8854    4.7506   -1.0955 H   0  0  0  0  0  0  0  0  0  0  0  0
   10.7514    3.3633   -2.7463 H   0  0  0  0  0  0  0  0  0  0  0  0
    9.1679    4.1544   -3.0398 H   0  0  0  0  0  0  0  0  0  0  0  0
    9.2249    2.5072   -2.3464 H   0  0  0  0  0  0  0  0  0  0  0  0
    6.7075   -0.6157   -0.7097 H   0  0  0  0  0  0  0  0  0  0  0  0
    5.2589    0.4122   -0.6600 H   0  0  0  0  0  0  0  0  0  0  0  0
  1  2  1  0
  1 27  1  0
  1 28  1  0
  1 29  1  0
  2  3  2  0
  3  4  1  0
  3 14  1  0
  4  5  1  0
  4 30  1  0
  5  6  1  0
  5 31  1  0
  5 32  1  0
  6  7  1  0
  6 13  1  0
  6 33  1  1
  7  8  1  0
  7 34  1  0
  7 35  1  0
  8  9  1  0
  8 36  1  0
  8 37  1  0
  9 10  1  0
  9 38  1  0
  9 39  1  0
 10 11  1  0
 10 40  1  0
 10 41  1  0
 11 12  1  0
 11 42  1  0
 11 43  1  0
 12 13  1  0
 12 44  1  0
 12 45  1  0
 13 46  1  0
 13 47  1  0
 14 15  1  0
 14 48  1  0
 15 16  1  0
 15 26  1  0
 15 49  1  6
 16 17  1  0
 16 50  1  0
 16 51  1  0
 17 18  1  0
 17 52  1  0
 17 53  1  0
 18 19  2  0
 18 25  1  0
 19 20  1  0
 20 21  1  0
 20 24  2  0
 21 22  1  0
 21 54  1  0
 21 55  1  0
 22 23  1  0
 23 56  1  0
 23 57  1  0
 23 58  1  0
 24 25  1  0
 25 26  1  0
 26 59  1  0
 26 60  1  0
M  END

