
     RDKit          3D

 46 47  0  0  0  0  0  0  0  0999 V2000
    2.6869    1.0993   -1.1032 C   0  0  0  0  0  0  0  0  0  0  0  0
    2.5117    0.0571    0.0016 C   0  0  0  0  0  0  0  0  0  0  0  0
    3.0433    0.4890    1.3815 C   0  0  1  0  0  0  0  0  0  0  0  0
    2.5817   -0.3991    2.4007 O   0  0  0  0  0  0  0  0  0  0  0  0
    1.3440   -0.2674    2.9598 C   0  0  0  0  0  0  0  0  0  0  0  0
    1.0038   -1.2308    3.9253 C   0  0  0  0  0  0  0  0  0  0  0  0
   -0.2307   -1.1745    4.5681 C   0  0  0  0  0  0  0  0  0  0  0  0
   -1.1482   -0.1622    4.2597 C   0  0  0  0  0  0  0  0  0  0  0  0
   -0.8096    0.7895    3.2973 C   0  0  0  0  0  0  0  0  0  0  0  0
    0.4273    0.7463    2.6422 C   0  0  0  0  0  0  0  0  0  0  0  0
    4.5809    0.5211    1.4162 C   0  0  0  0  0  0  0  0  0  0  0  0
    5.1918    1.3205    0.7210 O   0  0  0  0  0  0  0  0  0  0  0  0
    5.1716   -0.3968    2.2194 N   0  0  0  0  0  0  0  0  0  0  0  0
    6.6112   -0.4800    2.3823 C   0  0  0  0  0  0  0  0  0  0  0  0
    7.1443    0.3910    3.5391 C   0  0  0  0  0  0  0  0  0  0  0  0
    8.6390    0.2761    3.7213 C   0  0  0  0  0  0  0  0  0  0  0  0
    9.5133    1.2555    3.2401 C   0  0  0  0  0  0  0  0  0  0  0  0
   10.9008    1.1457    3.3935 C   0  0  0  0  0  0  0  0  0  0  0  0
   11.4290    0.0315    4.0427 C   0  0  0  0  0  0  0  0  0  0  0  0
   10.5820   -0.9691    4.5347 C   0  0  0  0  0  0  0  0  0  0  0  0
    9.1952   -0.8515    4.3713 C   0  0  0  0  0  0  0  0  0  0  0  0
    8.2983   -1.7805    4.8127 O   0  0  0  0  0  0  0  0  0  0  0  0
    8.7602   -2.9155    5.5085 C   0  0  0  0  0  0  0  0  0  0  0  0
    2.2844    0.7210   -2.0561 H   0  0  0  0  0  0  0  0  0  0  0  0
    3.7451    1.3585   -1.2417 H   0  0  0  0  0  0  0  0  0  0  0  0
    2.1471    2.0301   -0.8600 H   0  0  0  0  0  0  0  0  0  0  0  0
    3.0066   -0.8903   -0.2729 H   0  0  0  0  0  0  0  0  0  0  0  0
    1.4419   -0.1801    0.1251 H   0  0  0  0  0  0  0  0  0  0  0  0
    2.7226    1.5213    1.6042 H   0  0  0  0  0  0  0  0  0  0  0  0
    1.7267   -2.0162    4.1559 H   0  0  0  0  0  0  0  0  0  0  0  0
   -0.4793   -1.9300    5.3181 H   0  0  0  0  0  0  0  0  0  0  0  0
   -2.1164   -0.1199    4.7636 H   0  0  0  0  0  0  0  0  0  0  0  0
   -1.5154    1.5843    3.0416 H   0  0  0  0  0  0  0  0  0  0  0  0
    0.6592    1.5011    1.8909 H   0  0  0  0  0  0  0  0  0  0  0  0
    4.5590   -0.9530    2.8053 H   0  0  0  0  0  0  0  0  0  0  0  0
    7.0706   -0.1546    1.4381 H   0  0  0  0  0  0  0  0  0  0  0  0
    6.8849   -1.5317    2.5550 H   0  0  0  0  0  0  0  0  0  0  0  0
    6.6324    0.0912    4.4680 H   0  0  0  0  0  0  0  0  0  0  0  0
    6.8772    1.4389    3.3339 H   0  0  0  0  0  0  0  0  0  0  0  0
    9.0913    2.1297    2.7359 H   0  0  0  0  0  0  0  0  0  0  0  0
   11.5593    1.9280    3.0093 H   0  0  0  0  0  0  0  0  0  0  0  0
   12.5094   -0.0707    4.1739 H   0  0  0  0  0  0  0  0  0  0  0  0
   11.0123   -1.8339    5.0399 H   0  0  0  0  0  0  0  0  0  0  0  0
    7.8714   -3.5030    5.7764 H   0  0  0  0  0  0  0  0  0  0  0  0
    9.2984   -2.6404    6.4334 H   0  0  0  0  0  0  0  0  0  0  0  0
    9.4254   -3.5396    4.8845 H   0  0  0  0  0  0  0  0  0  0  0  0
  1  2  1  0
  1 24  1  0
  1 25  1  0
  1 26  1  0
  2  3  1  0
  2 27  1  0
  2 28  1  0
  3  4  1  0
  3 11  1  0
  3 29  1  1
  4  5  1  0
  5  6  2  0
  5 10  1  0
  6  7  1  0
  6 30  1  0
  7  8  2  0
  7 31  1  0
  8  9  1  0
  8 32  1  0
  9 10  2  0
  9 33  1  0
 10 34  1  0
 11 12  2  0
 11 13  1  0
 13 14  1  0
 13 35  1  0
 14 15  1  0
 14 36  1  0
 14 37  1  0
 15 16  1  0
 15 38  1  0
 15 39  1  0
 16 17  2  0
 16 21  1  0
 17 18  1  0
 17 40  1  0
 18 19  2  0
 18 41  1  0
 19 20  1  0
 19 42  1  0
 20 21  2  0
 20 43  1  0
 21 22  1  0
 22 23  1  0
 23 44  1  0
 23 45  1  0
 23 46  1  0
M  END

