
     RDKit          3D

 85 93  0  0  0  0  0  0  0  0999 V2000
    1.8240   -0.2939    1.4042 C   0  0  0  0  0  0  0  0  0  0  0  0
    2.9002   -0.0236    0.3840 C   0  0  0  0  0  0  0  0  0  0  0  0
    3.5482    1.2163    0.3268 C   0  0  0  0  0  0  0  0  0  0  0  0
    4.5529    1.4877   -0.6162 C   0  0  0  0  0  0  0  0  0  0  0  0
    5.2184    2.8172   -0.6462 C   0  0  0  0  0  0  0  0  0  0  0  0
    4.8323    3.7381    0.2454 N   0  0  0  0  0  0  0  0  0  0  0  0
    5.4565    4.9220    0.1843 C   0  0  0  0  0  0  0  0  0  0  0  0
    5.0608    5.9755    1.1546 C   0  0  0  0  0  0  0  0  0  0  0  0
    4.0559    5.7268    2.1063 C   0  0  0  0  0  0  0  0  0  0  0  0
    3.6857    6.7171    3.0163 C   0  0  0  0  0  0  0  0  0  0  0  0
    4.3133    7.9673    2.9880 C   0  0  0  0  0  0  0  0  0  0  0  0
    5.3142    8.2228    2.0443 C   0  0  0  0  0  0  0  0  0  0  0  0
    5.6865    7.2346    1.1330 C   0  0  0  0  0  0  0  0  0  0  0  0
    6.4175    5.2079   -0.7033 N   0  0  0  0  0  0  0  0  0  0  0  0
    6.7463    4.2334   -1.5610 C   0  0  0  0  0  0  0  0  0  0  0  0
    7.8082    4.5083   -2.5633 C   0  0  0  0  0  0  0  0  0  0  0  0
    8.4435    5.7622   -2.6019 C   0  0  0  0  0  0  0  0  0  0  0  0
    9.4402    6.0189   -3.5435 C   0  0  0  0  0  0  0  0  0  0  0  0
    9.8151    5.0282   -4.4577 C   0  0  0  0  0  0  0  0  0  0  0  0
    9.1878    3.7779   -4.4259 C   0  0  0  0  0  0  0  0  0  0  0  0
    8.1908    3.5182   -3.4855 C   0  0  0  0  0  0  0  0  0  0  0  0
    6.1700    3.0240   -1.5647 N   0  0  0  0  0  0  0  0  0  0  0  0
    4.9193    0.4859   -1.5297 C   0  0  0  0  0  0  0  0  0  0  0  0
    4.2861   -0.7534   -1.4884 C   0  0  0  0  0  0  0  0  0  0  0  0
    3.2857   -1.0132   -0.5439 C   0  0  0  0  0  0  0  0  0  0  0  0
    2.6479   -2.3069   -0.5262 N   0  0  0  0  0  0  0  0  0  0  0  0
    3.2523   -3.2985    0.2876 C   0  0  0  0  0  0  0  0  0  0  0  0
    4.4480   -2.9702    0.9779 C   0  0  0  0  0  0  0  0  0  0  0  0
    5.0962   -3.8960    1.7885 C   0  0  0  0  0  0  0  0  0  0  0  0
    4.5891   -5.1892    1.9467 C   0  0  0  0  0  0  0  0  0  0  0  0
    3.4150   -5.5193    1.2772 C   0  0  0  0  0  0  0  0  0  0  0  0
    2.7241   -4.6066    0.4553 C   0  0  0  0  0  0  0  0  0  0  0  0
    1.1481   -5.1512   -0.3838 Si  0  0  1  0  0  4  0  0  0  0  0  0
    1.4091   -6.6929   -1.4584 C   0  0  0  0  0  0  0  0  0  0  0  0
    1.2344   -7.9933   -0.9442 C   0  0  0  0  0  0  0  0  0  0  0  0
    1.5003   -9.1243   -1.7229 C   0  0  0  0  0  0  0  0  0  0  0  0
    1.9441   -8.9782   -3.0403 C   0  0  0  0  0  0  0  0  0  0  0  0
    2.1219   -7.6973   -3.5724 C   0  0  0  0  0  0  0  0  0  0  0  0
    1.8581   -6.5705   -2.7884 C   0  0  0  0  0  0  0  0  0  0  0  0
   -0.2128   -5.5111    0.8912 C   0  0  0  0  0  0  0  0  0  0  0  0
   -0.1275   -5.0045    2.2026 C   0  0  0  0  0  0  0  0  0  0  0  0
   -1.1555   -5.2074    3.1287 C   0  0  0  0  0  0  0  0  0  0  0  0
   -2.2983   -5.9234    2.7608 C   0  0  0  0  0  0  0  0  0  0  0  0
   -2.4054   -6.4363    1.4644 C   0  0  0  0  0  0  0  0  0  0  0  0
   -1.3729   -6.2330    0.5440 C   0  0  0  0  0  0  0  0  0  0  0  0
    0.7435   -3.6567   -1.4275 C   0  0  0  0  0  0  0  0  0  0  0  0
   -0.3722   -3.6994   -2.2874 C   0  0  0  0  0  0  0  0  0  0  0  0
   -0.7671   -2.6138   -3.0628 C   0  0  0  0  0  0  0  0  0  0  0  0
   -0.0204   -1.4354   -2.9750 C   0  0  0  0  0  0  0  0  0  0  0  0
    1.0901   -1.3558   -2.1414 C   0  0  0  0  0  0  0  0  0  0  0  0
    1.5042   -2.4591   -1.3508 C   0  0  0  0  0  0  0  0  0  0  0  0
    1.6489    0.5893    2.0346 H   0  0  0  0  0  0  0  0  0  0  0  0
    2.0987   -1.1352    2.0612 H   0  0  0  0  0  0  0  0  0  0  0  0
    0.8718   -0.5650    0.9201 H   0  0  0  0  0  0  0  0  0  0  0  0
    3.2731    2.0033    1.0301 H   0  0  0  0  0  0  0  0  0  0  0  0
    3.5745    4.7486    2.1180 H   0  0  0  0  0  0  0  0  0  0  0  0
    2.9035    6.5139    3.7520 H   0  0  0  0  0  0  0  0  0  0  0  0
    4.0223    8.7426    3.7017 H   0  0  0  0  0  0  0  0  0  0  0  0
    5.8066    9.1982    2.0193 H   0  0  0  0  0  0  0  0  0  0  0  0
    6.4648    7.4210    0.3926 H   0  0  0  0  0  0  0  0  0  0  0  0
    8.1422    6.5254   -1.8841 H   0  0  0  0  0  0  0  0  0  0  0  0
    9.9280    6.9966   -3.5654 H   0  0  0  0  0  0  0  0  0  0  0  0
   10.5963    5.2306   -5.1951 H   0  0  0  0  0  0  0  0  0  0  0  0
    9.4781    3.0017   -5.1384 H   0  0  0  0  0  0  0  0  0  0  0  0
    7.6944    2.5482   -3.4503 H   0  0  0  0  0  0  0  0  0  0  0  0
    5.6988    0.6932   -2.2626 H   0  0  0  0  0  0  0  0  0  0  0  0
    4.5614   -1.5412   -2.1928 H   0  0  0  0  0  0  0  0  0  0  0  0
    4.8838   -1.9785    0.8775 H   0  0  0  0  0  0  0  0  0  0  0  0
    6.0158   -3.5974    2.2990 H   0  0  0  0  0  0  0  0  0  0  0  0
    5.0997   -5.9203    2.5775 H   0  0  0  0  0  0  0  0  0  0  0  0
    3.0089   -6.5294    1.3919 H   0  0  0  0  0  0  0  0  0  0  0  0
    0.8785   -8.1301    0.0811 H   0  0  0  0  0  0  0  0  0  0  0  0
    1.3572  -10.1226   -1.3004 H   0  0  0  0  0  0  0  0  0  0  0  0
    2.1495   -9.8608   -3.6520 H   0  0  0  0  0  0  0  0  0  0  0  0
    2.4668   -7.5755   -4.6029 H   0  0  0  0  0  0  0  0  0  0  0  0
    2.0017   -5.5765   -3.2217 H   0  0  0  0  0  0  0  0  0  0  0  0
    0.7604   -4.4439    2.5088 H   0  0  0  0  0  0  0  0  0  0  0  0
   -1.0634   -4.8059    4.1416 H   0  0  0  0  0  0  0  0  0  0  0  0
   -3.1032   -6.0836    3.4833 H   0  0  0  0  0  0  0  0  0  0  0  0
   -3.2951   -6.9996    1.1698 H   0  0  0  0  0  0  0  0  0  0  0  0
   -1.4739   -6.6524   -0.4614 H   0  0  0  0  0  0  0  0  0  0  0  0
   -0.9521   -4.6259   -2.3447 H   0  0  0  0  0  0  0  0  0  0  0  0
   -1.6383   -2.6802   -3.7183 H   0  0  0  0  0  0  0  0  0  0  0  0
   -0.3004   -0.5589   -3.5656 H   0  0  0  0  0  0  0  0  0  0  0  0
    1.6446   -0.4205   -2.1096 H   0  0  0  0  0  0  0  0  0  0  0  0
  1  2  1  0
  1 52  1  0
  1 53  1  0
  1 54  1  0
  2  3  2  0
  2 25  1  0
  3  4  1  0
  3 55  1  0
  4  5  1  0
  4 23  2  0
  5  6  2  0
  5 22  1  0
  6  7  1  0
  7  8  1  0
  7 14  2  0
  8  9  2  0
  8 13  1  0
  9 10  1  0
  9 56  1  0
 10 11  2  0
 10 57  1  0
 11 12  1  0
 11 58  1  0
 12 13  2  0
 12 59  1  0
 13 60  1  0
 14 15  1  0
 15 16  1  0
 15 22  2  0
 16 17  2  0
 16 21  1  0
 17 18  1  0
 17 61  1  0
 18 19  2  0
 18 62  1  0
 19 20  1  0
 19 63  1  0
 20 21  2  0
 20 64  1  0
 21 65  1  0
 23 24  1  0
 23 66  1  0
 24 25  2  0
 24 67  1  0
 25 26  1  0
 26 27  1  0
 26 51  1  0
 27 28  2  0
 27 32  1  0
 28 29  1  0
 28 68  1  0
 29 30  2  0
 29 69  1  0
 30 31  1  0
 30 70  1  0
 31 32  2  0
 31 71  1  0
 32 33  1  0
 33 34  1  6
 33 40  1  0
 33 46  1  0
 34 35  2  0
 34 39  1  0
 35 36  1  0
 35 72  1  0
 36 37  2  0
 36 73  1  0
 37 38  1  0
 37 74  1  0
 38 39  2  0
 38 75  1  0
 39 76  1  0
 40 41  2  0
 40 45  1  0
 41 42  1  0
 41 77  1  0
 42 43  2  0
 42 78  1  0
 43 44  1  0
 43 79  1  0
 44 45  2  0
 44 80  1  0
 45 81  1  0
 46 47  1  0
 46 51  2  0
 47 48  2  0
 47 82  1  0
 48 49  1  0
 48 83  1  0
 49 50  2  0
 49 84  1  0
 50 51  1  0
 50 85  1  0
M  END

