
     RDKit          3D

 58 62  0  0  0  0  0  0  0  0999 V2000
    1.0560   -1.2159    2.0146 C   0  0  0  0  0  0  0  0  0  0  0  0
    2.4073   -0.8336    1.7697 O   0  0  0  0  0  0  0  0  0  0  0  0
    2.6282    0.4809    1.5340 C   0  0  0  0  0  0  0  0  0  0  0  0
    1.7170    1.2809    1.5191 O   0  0  0  0  0  0  0  0  0  0  0  0
    4.0769    0.7392    1.3284 C   0  0  0  0  0  0  0  0  0  0  0  0
    4.6012    1.7713    0.5951 C   0  0  0  0  0  0  0  0  0  0  0  0
    3.8972    2.8839   -0.0447 C   0  0  0  0  0  0  0  0  0  0  0  0
    2.6823    3.5155    0.0967 C   0  0  0  0  0  0  0  0  0  0  0  0
    2.6694    4.6135   -0.8276 C   0  0  0  0  0  0  0  0  0  0  0  0
    1.7496    5.6220   -1.1757 C   0  0  0  0  0  0  0  0  0  0  0  0
    2.1135    6.5391   -2.1578 C   0  0  0  0  0  0  0  0  0  0  0  0
    3.3716    6.4696   -2.7959 C   0  0  0  0  0  0  0  0  0  0  0  0
    4.3000    5.4807   -2.4680 C   0  0  0  0  0  0  0  0  0  0  0  0
    3.9185    4.5724   -1.4813 C   0  0  0  0  0  0  0  0  0  0  0  0
    4.6575    3.5417   -1.0074 O   0  0  0  0  0  0  0  0  0  0  0  0
    6.1136    1.8249    0.3811 C   0  0  0  0  0  0  0  0  0  0  0  0
    6.8643    0.6200    0.9526 C   0  0  2  0  0  0  0  0  0  0  0  0
    7.9342    0.8475    1.0318 H   0  0  0  0  0  0  0  0  0  0  0  0
    6.6145   -0.6867    0.1399 C   0  0  0  0  0  0  0  0  0  0  0  0
    5.4275   -1.3714    0.8673 C   0  0  0  0  0  0  0  0  0  0  0  0
    5.0167   -0.3118    1.9244 C   0  0  1  0  0  0  0  0  0  0  0  0
    4.5764   -0.7689    2.8137 H   0  0  0  0  0  0  0  0  0  0  0  0
    6.2842    0.3316    2.2744 N   0  0  0  0  0  0  0  0  0  0  0  0
    7.0193   -0.2289    3.3232 C   0  0  0  0  0  0  0  0  0  0  0  0
    6.6336   -1.2140    3.9372 O   0  0  0  0  0  0  0  0  0  0  0  0
    8.2161    0.4095    3.6202 N   0  0  0  0  0  0  0  0  0  0  0  0
    9.0833   -0.2259    4.6113 C   0  0  0  0  0  0  0  0  0  0  0  0
   10.5528    0.0759    4.3010 C   0  0  0  0  0  0  0  0  0  0  0  0
   10.8487    1.5858    4.1825 C   0  0  2  0  0  0  0  0  0  0  0  0
   10.8814    2.2941    5.5450 C   0  0  0  0  0  0  0  0  0  0  0  0
    9.8377    2.2222    3.2050 C   0  0  0  0  0  0  0  0  0  0  0  0
    8.3885    1.8613    3.5429 C   0  0  0  0  0  0  0  0  0  0  0  0
    1.0741   -2.2970    2.2002 H   0  0  0  0  0  0  0  0  0  0  0  0
    0.4199   -0.9878    1.1458 H   0  0  0  0  0  0  0  0  0  0  0  0
    0.6504   -0.6846    2.8890 H   0  0  0  0  0  0  0  0  0  0  0  0
    1.9063    3.2133    0.7885 H   0  0  0  0  0  0  0  0  0  0  0  0
    0.7741    5.6801   -0.6870 H   0  0  0  0  0  0  0  0  0  0  0  0
    1.4154    7.3294   -2.4445 H   0  0  0  0  0  0  0  0  0  0  0  0
    3.6236    7.2064   -3.5626 H   0  0  0  0  0  0  0  0  0  0  0  0
    5.2756    5.4157   -2.9529 H   0  0  0  0  0  0  0  0  0  0  0  0
    6.4882    2.7593    0.8356 H   0  0  0  0  0  0  0  0  0  0  0  0
    6.3218    1.9233   -0.6949 H   0  0  0  0  0  0  0  0  0  0  0  0
    7.5122   -1.3226    0.1633 H   0  0  0  0  0  0  0  0  0  0  0  0
    6.4006   -0.4676   -0.9174 H   0  0  0  0  0  0  0  0  0  0  0  0
    5.7521   -2.2830    1.3898 H   0  0  0  0  0  0  0  0  0  0  0  0
    4.5972   -1.6365    0.1991 H   0  0  0  0  0  0  0  0  0  0  0  0
    8.8856   -1.3046    4.5964 H   0  0  0  0  0  0  0  0  0  0  0  0
    8.8177    0.1234    5.6294 H   0  0  0  0  0  0  0  0  0  0  0  0
   10.8108   -0.4167    3.3475 H   0  0  0  0  0  0  0  0  0  0  0  0
   11.1903   -0.3787    5.0781 H   0  0  0  0  0  0  0  0  0  0  0  0
   11.8541    1.6958    3.7394 H   0  0  0  0  0  0  0  0  0  0  0  0
    9.9174    2.2413    6.0755 H   0  0  0  0  0  0  0  0  0  0  0  0
   11.1335    3.3608    5.4283 H   0  0  0  0  0  0  0  0  0  0  0  0
   11.6410    1.8422    6.2033 H   0  0  0  0  0  0  0  0  0  0  0  0
   10.0572    1.8718    2.1812 H   0  0  0  0  0  0  0  0  0  0  0  0
    9.9487    3.3199    3.1985 H   0  0  0  0  0  0  0  0  0  0  0  0
    7.6971    2.2792    2.8035 H   0  0  0  0  0  0  0  0  0  0  0  0
    8.1060    2.3124    4.5164 H   0  0  0  0  0  0  0  0  0  0  0  0
  1  2  1  0
  1 33  1  0
  1 34  1  0
  1 35  1  0
  2  3  1  0
  3  4  2  0
  3  5  1  0
  5  6  2  0
  5 21  1  0
  6  7  1  0
  6 16  1  0
  7  8  2  0
  7 15  1  0
  8  9  1  0
  8 36  1  0
  9 10  2  0
  9 14  1  0
 10 11  1  0
 10 37  1  0
 11 12  2  0
 11 38  1  0
 12 13  1  0
 12 39  1  0
 13 14  2  0
 13 40  1  0
 14 15  1  0
 16 17  1  0
 16 41  1  0
 16 42  1  0
 17 18  1  1
 17 19  1  0
 17 23  1  0
 19 20  1  0
 19 43  1  0
 19 44  1  0
 20 21  1  0
 20 45  1  0
 20 46  1  0
 21 22  1  1
 21 23  1  0
 23 24  1  0
 24 25  2  0
 24 26  1  0
 26 27  1  0
 26 32  1  0
 27 28  1  0
 27 47  1  0
 27 48  1  0
 28 29  1  0
 28 49  1  0
 28 50  1  0
 29 30  1  0
 29 31  1  0
 29 51  1  6
 30 52  1  0
 30 53  1  0
 30 54  1  0
 31 32  1  0
 31 55  1  0
 31 56  1  0
 32 57  1  0
 32 58  1  0
M  END

