
     RDKit          3D

 36 37  0  0  0  0  0  0  0  0999 V2000
    0.9949    0.7502    0.2539 C   0  0  0  0  0  0  0  0  0  0  0  0
    2.2884   -0.0135   -0.0697 C   0  0  1  0  0  0  0  0  0  0  0  0
    3.1200   -0.2795    1.2104 C   0  0  0  0  0  0  0  0  0  0  0  0
    1.8974   -1.4380   -0.5603 C   0  0  0  0  0  0  0  0  0  0  0  0
    0.9532   -2.0238   -0.0632 O   0  0  0  0  0  0  0  0  0  0  0  0
    2.7180   -2.0335   -1.4716 N   0  0  0  0  0  0  0  0  0  0  0  0
    3.7748   -1.3436   -2.1774 C   0  0  0  0  0  0  0  0  0  0  0  0
    3.3620    0.1075   -2.3735 C   0  0  0  0  0  0  0  0  0  0  0  0
    3.0925    0.7455   -1.0880 N   0  0  0  0  0  0  0  0  0  0  0  0
    3.5354    2.0150   -0.7859 C   0  0  0  0  0  0  0  0  0  0  0  0
    3.4713    2.5009    0.3345 O   0  0  0  0  0  0  0  0  0  0  0  0
    4.1132    2.8736   -1.8940 C   0  0  0  0  0  0  0  0  0  0  0  0
    5.3025    3.5709   -1.6290 C   0  0  0  0  0  0  0  0  0  0  0  0
    5.8203    4.4682   -2.5632 C   0  0  0  0  0  0  0  0  0  0  0  0
    5.1429    4.7057   -3.7623 C   0  0  0  0  0  0  0  0  0  0  0  0
    3.9421    4.0364   -4.0197 C   0  0  0  0  0  0  0  0  0  0  0  0
    3.2154    4.2524   -5.3247 C   0  0  1  0  0  0  0  0  0  0  0  0
    3.4758    5.4591   -5.8531 F   0  0  0  0  0  0  0  0  0  0  0  0
    3.5756    3.3339   -6.2447 F   0  0  0  0  0  0  0  0  0  0  0  0
    1.8826    4.1505   -5.1769 F   0  0  0  0  0  0  0  0  0  0  0  0
    3.4303    3.1227   -3.0913 C   0  0  0  0  0  0  0  0  0  0  0  0
    0.3770    0.1454    0.9293 H   0  0  0  0  0  0  0  0  0  0  0  0
    0.4134    0.9308   -0.6640 H   0  0  0  0  0  0  0  0  0  0  0  0
    1.2291    1.7118    0.7259 H   0  0  0  0  0  0  0  0  0  0  0  0
    2.5217   -0.8887    1.9029 H   0  0  0  0  0  0  0  0  0  0  0  0
    3.3912    0.6674    1.6899 H   0  0  0  0  0  0  0  0  0  0  0  0
    4.0413   -0.8343    0.9714 H   0  0  0  0  0  0  0  0  0  0  0  0
    2.4920   -2.9988   -1.6904 H   0  0  0  0  0  0  0  0  0  0  0  0
    3.9237   -1.8157   -3.1609 H   0  0  0  0  0  0  0  0  0  0  0  0
    4.7395   -1.3935   -1.6368 H   0  0  0  0  0  0  0  0  0  0  0  0
    2.4692    0.1304   -3.0272 H   0  0  0  0  0  0  0  0  0  0  0  0
    4.1653    0.6477   -2.8867 H   0  0  0  0  0  0  0  0  0  0  0  0
    5.8067    3.4106   -0.6739 H   0  0  0  0  0  0  0  0  0  0  0  0
    6.7513    4.9991   -2.3514 H   0  0  0  0  0  0  0  0  0  0  0  0
    5.5355    5.4185   -4.4895 H   0  0  0  0  0  0  0  0  0  0  0  0
    2.4805    2.6267   -3.2987 H   0  0  0  0  0  0  0  0  0  0  0  0
  2  1  1  1
  1 22  1  0
  1 23  1  0
  1 24  1  0
  2  3  1  0
  2  4  1  0
  2  9  1  0
  3 25  1  0
  3 26  1  0
  3 27  1  0
  4  5  2  0
  4  6  1  0
  6  7  1  0
  6 28  1  0
  7  8  1  0
  7 29  1  0
  7 30  1  0
  8  9  1  0
  8 31  1  0
  8 32  1  0
  9 10  1  0
 10 11  2  0
 10 12  1  0
 12 13  2  0
 12 21  1  0
 13 14  1  0
 13 33  1  0
 14 15  2  0
 14 34  1  0
 15 16  1  0
 15 35  1  0
 16 17  1  0
 16 21  2  0
 17 18  1  6
 17 19  1  0
 17 20  1  0
 21 36  1  0
M  END

