
     RDKit          3D

 40 40  0  0  0  0  0  0  0  0999 V2000
    1.1473    0.4553    1.9409 C   0  0  0  0  0  0  0  0  0  0  0  0
    2.6471    0.5860    1.7536 C   0  0  0  0  0  0  0  0  0  0  0  0
    3.1521   -0.6652    1.3238 O   0  0  0  0  0  0  0  0  0  0  0  0
    4.4929   -0.8155    1.0881 C   0  0  0  0  0  0  0  0  0  0  0  0
    5.4420    0.1959    1.2290 C   0  0  0  0  0  0  0  0  0  0  0  0
    6.8070   -0.0392    0.9736 C   0  0  0  0  0  0  0  0  0  0  0  0
    7.8288    1.0635    1.1258 C   0  0  0  0  0  0  0  0  0  0  0  0
    7.1813   -1.3255    0.5774 C   0  0  0  0  0  0  0  0  0  0  0  0
    6.2377   -2.3499    0.4347 C   0  0  0  0  0  0  0  0  0  0  0  0
    4.8739   -2.1237    0.6767 C   0  0  0  0  0  0  0  0  0  0  0  0
    3.8752   -3.0703    0.5062 N   0  0  0  0  0  0  0  0  0  0  0  0
    4.1059   -4.5064    0.4472 C   0  0  1  0  0  0  0  0  0  0  0  0
    4.5096   -5.1061    1.8044 C   0  0  0  0  0  0  0  0  0  0  0  0
    2.8599   -5.1990   -0.1212 C   0  0  0  0  0  0  0  0  0  0  0  0
    2.4911   -4.7646   -1.5325 C   0  0  0  0  0  0  0  0  0  0  0  0
    1.3590   -5.4930   -1.9458 O   0  0  0  0  0  0  0  0  0  0  0  0
    0.9110   -5.1611   -3.2304 C   0  0  0  0  0  0  0  0  0  0  0  0
    0.7193    1.4143    2.2717 H   0  0  0  0  0  0  0  0  0  0  0  0
    0.9134   -0.3083    2.6989 H   0  0  0  0  0  0  0  0  0  0  0  0
    0.6608    0.1649    0.9970 H   0  0  0  0  0  0  0  0  0  0  0  0
    3.1356    0.8864    2.7003 H   0  0  0  0  0  0  0  0  0  0  0  0
    2.8808    1.3649    1.0030 H   0  0  0  0  0  0  0  0  0  0  0  0
    5.1295    1.1924    1.5445 H   0  0  0  0  0  0  0  0  0  0  0  0
    7.3649    2.0010    1.4683 H   0  0  0  0  0  0  0  0  0  0  0  0
    8.3418    1.2776    0.1724 H   0  0  0  0  0  0  0  0  0  0  0  0
    8.6115    0.7952    1.8559 H   0  0  0  0  0  0  0  0  0  0  0  0
    8.2337   -1.5459    0.3756 H   0  0  0  0  0  0  0  0  0  0  0  0
    6.5738   -3.3405    0.1245 H   0  0  0  0  0  0  0  0  0  0  0  0
    2.9875   -2.7881    0.9095 H   0  0  0  0  0  0  0  0  0  0  0  0
    4.9332   -4.6782   -0.2643 H   0  0  0  0  0  0  0  0  0  0  0  0
    3.6886   -4.9992    2.5329 H   0  0  0  0  0  0  0  0  0  0  0  0
    5.3942   -4.5950    2.2136 H   0  0  0  0  0  0  0  0  0  0  0  0
    4.7451   -6.1789    1.7124 H   0  0  0  0  0  0  0  0  0  0  0  0
    1.9962   -5.0147    0.5437 H   0  0  0  0  0  0  0  0  0  0  0  0
    3.0185   -6.2896   -0.1206 H   0  0  0  0  0  0  0  0  0  0  0  0
    3.3446   -4.9458   -2.2222 H   0  0  0  0  0  0  0  0  0  0  0  0
    2.2916   -3.6747   -1.5600 H   0  0  0  0  0  0  0  0  0  0  0  0
    0.0255   -5.7761   -3.4504 H   0  0  0  0  0  0  0  0  0  0  0  0
    1.6791   -5.3617   -4.0063 H   0  0  0  0  0  0  0  0  0  0  0  0
    0.6256   -4.0916   -3.3103 H   0  0  0  0  0  0  0  0  0  0  0  0
  1  2  1  0
  1 18  1  0
  1 19  1  0
  1 20  1  0
  2  3  1  0
  2 21  1  0
  2 22  1  0
  3  4  1  0
  4  5  2  0
  4 10  1  0
  5  6  1  0
  5 23  1  0
  6  7  1  0
  6  8  2  0
  7 24  1  0
  7 25  1  0
  7 26  1  0
  8  9  1  0
  8 27  1  0
  9 10  2  0
  9 28  1  0
 10 11  1  0
 11 12  1  0
 11 29  1  0
 12 13  1  0
 12 14  1  0
 12 30  1  6
 13 31  1  0
 13 32  1  0
 13 33  1  0
 14 15  1  0
 14 34  1  0
 14 35  1  0
 15 16  1  0
 15 36  1  0
 15 37  1  0
 16 17  1  0
 17 38  1  0
 17 39  1  0
 17 40  1  0
M  END

