
     RDKit          3D

 40 41  0  0  0  0  0  0  0  0999 V2000
    3.3079    3.1868    0.9605 C   0  0  0  0  0  0  0  0  0  0  0  0
    3.5159    1.7257    0.5765 C   0  0  0  0  0  0  0  0  0  0  0  0
    2.7566    1.2513   -0.5820 N   0  0  0  0  0  0  0  0  0  0  0  0
    1.6626    2.0271   -1.1259 C   0  0  0  0  0  0  0  0  0  0  0  0
    0.2969    1.6569   -0.5283 C   0  0  0  0  0  0  0  0  0  0  0  0
   -0.7451    2.4869   -1.0783 O   0  0  0  0  0  0  0  0  0  0  0  0
   -1.2245    2.1323   -2.2610 C   0  0  0  0  0  0  0  0  0  0  0  0
   -0.9058    1.1907   -2.9327 O   0  0  0  0  0  0  0  0  0  0  0  0
   -2.1783    3.0455   -2.6017 O   0  0  0  0  0  0  0  0  0  0  0  0
   -2.7987    2.8909   -3.8139 C   0  0  0  0  0  0  0  0  0  0  0  0
   -4.0090    2.1894   -3.8904 C   0  0  0  0  0  0  0  0  0  0  0  0
   -4.6452    1.4679   -2.4527 Cl  0  0  0  0  0  0  0  0  0  0  0  0
   -4.6875    2.0892   -5.1171 C   0  0  0  0  0  0  0  0  0  0  0  0
   -6.1876    1.2339   -5.2067 Cl  0  0  0  0  0  0  0  0  0  0  0  0
   -4.1375    2.6833   -6.2691 C   0  0  0  0  0  0  0  0  0  0  0  0
   -4.9685    2.5638   -7.7819 Cl  0  0  0  0  0  0  0  0  0  0  0  0
   -2.9162    3.3800   -6.1925 C   0  0  0  0  0  0  0  0  0  0  0  0
   -2.2381    4.1130   -7.6042 Cl  0  0  0  0  0  0  0  0  0  0  0  0
   -2.2462    3.4757   -4.9611 C   0  0  0  0  0  0  0  0  0  0  0  0
   -0.7421    4.3211   -4.8233 Cl  0  0  0  0  0  0  0  0  0  0  0  0
    2.9901   -0.0479   -1.0455 C   0  0  0  0  0  0  0  0  0  0  0  0
    3.9941   -0.8636   -0.4674 C   0  0  0  0  0  0  0  0  0  0  0  0
    4.2474   -2.1484   -0.9524 C   0  0  0  0  0  0  0  0  0  0  0  0
    3.5153   -2.6783   -2.0158 C   0  0  0  0  0  0  0  0  0  0  0  0
    2.5092   -1.8910   -2.5831 C   0  0  0  0  0  0  0  0  0  0  0  0
    2.2411   -0.6058   -2.1131 C   0  0  0  0  0  0  0  0  0  0  0  0
    3.9571    3.4167    1.8193 H   0  0  0  0  0  0  0  0  0  0  0  0
    2.2740    3.4098    1.2670 H   0  0  0  0  0  0  0  0  0  0  0  0
    3.5843    3.8749    0.1465 H   0  0  0  0  0  0  0  0  0  0  0  0
    3.2978    1.0911    1.4595 H   0  0  0  0  0  0  0  0  0  0  0  0
    4.5912    1.5844    0.3684 H   0  0  0  0  0  0  0  0  0  0  0  0
    1.6223    1.9021   -2.2184 H   0  0  0  0  0  0  0  0  0  0  0  0
    1.8372    3.0960   -0.9516 H   0  0  0  0  0  0  0  0  0  0  0  0
    0.2732    1.8565    0.5515 H   0  0  0  0  0  0  0  0  0  0  0  0
    0.0573    0.5992   -0.7058 H   0  0  0  0  0  0  0  0  0  0  0  0
    4.5911   -0.5036    0.3683 H   0  0  0  0  0  0  0  0  0  0  0  0
    5.0350   -2.7423   -0.4799 H   0  0  0  0  0  0  0  0  0  0  0  0
    3.7171   -3.6846   -2.3891 H   0  0  0  0  0  0  0  0  0  0  0  0
    1.9083   -2.2814   -3.4091 H   0  0  0  0  0  0  0  0  0  0  0  0
    1.4288   -0.0505   -2.5810 H   0  0  0  0  0  0  0  0  0  0  0  0
  1  2  1  0
  1 27  1  0
  1 28  1  0
  1 29  1  0
  2  3  1  0
  2 30  1  0
  2 31  1  0
  3  4  1  0
  3 21  1  0
  4  5  1  0
  4 32  1  0
  4 33  1  0
  5  6  1  0
  5 34  1  0
  5 35  1  0
  6  7  1  0
  7  8  2  0
  7  9  1  0
  9 10  1  0
 10 11  2  0
 10 19  1  0
 11 12  1  0
 11 13  1  0
 13 14  1  0
 13 15  2  0
 15 16  1  0
 15 17  1  0
 17 18  1  0
 17 19  2  0
 19 20  1  0
 21 22  2  0
 21 26  1  0
 22 23  1  0
 22 36  1  0
 23 24  2  0
 23 37  1  0
 24 25  1  0
 24 38  1  0
 25 26  2  0
 25 39  1  0
 26 40  1  0
M  END

