
     RDKit          3D

 55 60  0  0  0  0  0  0  0  0999 V2000
   -3.1761    5.5543    2.1868 O   0  0  0  0  0  0  0  0  0  0  0  0
   -3.2094    4.8691    3.4169 C   0  0  0  0  0  0  0  0  0  0  0  0
   -1.8018    4.5617    3.8666 C   0  0  0  0  0  0  0  0  0  0  0  0
   -0.6953    4.8952    3.0911 C   0  0  0  0  0  0  0  0  0  0  0  0
    0.6122    4.6193    3.5397 C   0  0  0  0  0  0  0  0  0  0  0  0
    1.7968    5.0163    2.8715 N   0  0  0  0  0  0  0  0  0  0  0  0
    1.9426    5.0454    1.6340 N   0  0  0  0  0  0  0  0  0  0  0  0
    1.0501    4.4828    0.6840 C   0  0  0  0  0  0  0  0  0  0  0  0
    0.7367    5.2351   -0.4631 C   0  0  0  0  0  0  0  0  0  0  0  0
   -0.0144    4.6961   -1.4996 C   0  0  0  0  0  0  0  0  0  0  0  0
   -0.4409    3.3484   -1.4542 C   0  0  0  0  0  0  0  0  0  0  0  0
   -1.1985    2.7790   -2.5172 C   0  0  0  0  0  0  0  0  0  0  0  0
   -1.8501    2.2878   -3.4266 C   0  0  0  0  0  0  0  0  0  0  0  0
   -2.6096    1.6868   -4.4697 C   0  0  0  0  0  0  0  0  0  0  0  0
   -2.9835    0.3289   -4.3592 C   0  0  0  0  0  0  0  0  0  0  0  0
   -3.7240   -0.2997   -5.3503 C   0  0  0  0  0  0  0  0  0  0  0  0
   -4.1300    0.3971   -6.5052 C   0  0  0  0  0  0  0  0  0  0  0  0
   -4.8968   -0.2281   -7.5467 C   0  0  0  0  0  0  0  0  0  0  0  0
   -5.2806    0.4644   -8.6588 C   0  0  0  0  0  0  0  0  0  0  0  0
   -4.9322    1.8490   -8.8324 C   0  0  0  0  0  0  0  0  0  0  0  0
   -5.3163    2.5828   -9.9701 C   0  0  0  0  0  0  0  0  0  0  0  0
   -4.9614    3.9258  -10.1081 C   0  0  0  0  0  0  0  0  0  0  0  0
   -4.2169    4.5669   -9.1171 C   0  0  0  0  0  0  0  0  0  0  0  0
   -3.8098    3.8744   -7.9613 C   0  0  0  0  0  0  0  0  0  0  0  0
   -3.0423    4.4991   -6.9192 C   0  0  0  0  0  0  0  0  0  0  0  0
   -2.6575    3.8087   -5.8060 C   0  0  0  0  0  0  0  0  0  0  0  0
   -3.0021    2.4258   -5.6252 C   0  0  0  0  0  0  0  0  0  0  0  0
   -3.7653    1.7739   -6.6441 C   0  0  0  0  0  0  0  0  0  0  0  0
   -4.1684    2.4982   -7.8105 C   0  0  0  0  0  0  0  0  0  0  0  0
   -0.0857    2.5702   -0.3304 C   0  0  0  0  0  0  0  0  0  0  0  0
    0.6409    3.1355    0.7050 C   0  0  0  0  0  0  0  0  0  0  0  0
    0.9713    2.3696    1.7552 F   0  0  0  0  0  0  0  0  0  0  0  0
    0.7954    4.0331    4.8017 C   0  0  0  0  0  0  0  0  0  0  0  0
   -0.3044    3.6565    5.5672 C   0  0  0  0  0  0  0  0  0  0  0  0
   -1.6007    3.9176    5.1055 C   0  0  0  0  0  0  0  0  0  0  0  0
   -2.7134    3.5946    5.8157 O   0  0  0  0  0  0  0  0  0  0  0  0
   -4.0823    5.6929    1.8886 H   0  0  0  0  0  0  0  0  0  0  0  0
   -3.7730    3.9157    3.3463 H   0  0  0  0  0  0  0  0  0  0  0  0
   -3.7139    5.4605    4.2088 H   0  0  0  0  0  0  0  0  0  0  0  0
   -0.8747    5.4026    2.1450 H   0  0  0  0  0  0  0  0  0  0  0  0
    1.0963    6.2652   -0.5095 H   0  0  0  0  0  0  0  0  0  0  0  0
   -0.2672    5.3080   -2.3670 H   0  0  0  0  0  0  0  0  0  0  0  0
   -2.6767   -0.2266   -3.4708 H   0  0  0  0  0  0  0  0  0  0  0  0
   -3.9990   -1.3518   -5.2387 H   0  0  0  0  0  0  0  0  0  0  0  0
   -5.1693   -1.2804   -7.4297 H   0  0  0  0  0  0  0  0  0  0  0  0
   -5.8639   -0.0273   -9.4420 H   0  0  0  0  0  0  0  0  0  0  0  0
   -5.8995    2.0865  -10.7503 H   0  0  0  0  0  0  0  0  0  0  0  0
   -5.2688    4.4791  -10.9992 H   0  0  0  0  0  0  0  0  0  0  0  0
   -3.9417    5.6189   -9.2310 H   0  0  0  0  0  0  0  0  0  0  0  0
   -2.7675    5.5511   -7.0348 H   0  0  0  0  0  0  0  0  0  0  0  0
   -2.0743    4.3014   -5.0262 H   0  0  0  0  0  0  0  0  0  0  0  0
   -0.3778    1.5217   -0.2576 H   0  0  0  0  0  0  0  0  0  0  0  0
    1.8140    3.8698    5.1585 H   0  0  0  0  0  0  0  0  0  0  0  0
   -0.1623    3.1745    6.5396 H   0  0  0  0  0  0  0  0  0  0  0  0
   -2.4610    3.1730    6.6479 H   0  0  0  0  0  0  0  0  0  0  0  0
  1  2  1  0
  1 37  1  0
  2  3  1  0
  2 38  1  0
  2 39  1  0
  3  4  2  0
  3 35  1  0
  4  5  1  0
  4 40  1  0
  5  6  1  0
  5 33  2  0
  6  7  2  0
  7  8  1  0
  8  9  2  0
  8 31  1  0
  9 10  1  0
  9 41  1  0
 10 11  2  0
 10 42  1  0
 11 12  1  0
 11 30  1  0
 12 13  3  0
 13 14  1  0
 14 15  2  0
 14 27  1  0
 15 16  1  0
 15 43  1  0
 16 17  2  0
 16 44  1  0
 17 18  1  0
 17 28  1  0
 18 19  2  0
 18 45  1  0
 19 20  1  0
 19 46  1  0
 20 21  2  0
 20 29  1  0
 21 22  1  0
 21 47  1  0
 22 23  2  0
 22 48  1  0
 23 24  1  0
 23 49  1  0
 24 25  2  0
 24 29  1  0
 25 26  1  0
 25 50  1  0
 26 27  2  0
 26 51  1  0
 27 28  1  0
 28 29  2  0
 30 31  2  0
 30 52  1  0
 31 32  1  0
 33 34  1  0
 33 53  1  0
 34 35  2  0
 34 54  1  0
 35 36  1  0
 36 55  1  0
M  END

