
     RDKit          3D

 35 36  0  0  0  0  0  0  0  0999 V2000
    1.2268    1.2475    1.0110 C   0  0  0  0  0  0  0  0  0  0  0  0
    2.0953    0.4698    0.1422 N   0  0  0  0  0  0  0  0  0  0  0  0
    1.7476   -0.9133   -0.1067 C   0  0  0  0  0  0  0  0  0  0  0  0
    3.0224    1.1066   -0.6230 C   0  0  0  0  0  0  0  0  0  0  0  0
    3.3188    2.3776   -0.5111 N   0  0  0  0  0  0  0  0  0  0  0  0
    4.3053    2.7434   -1.3850 C   0  0  0  0  0  0  0  0  0  0  0  0
    4.7341    4.0223   -1.4096 N   0  0  0  0  0  0  0  0  0  0  0  0
    4.8049    1.7315   -2.2170 C   0  0  0  0  0  0  0  0  0  0  0  0
    5.8818    1.9113   -3.1708 C   0  0  0  0  0  0  0  0  0  0  0  0
    6.4019    3.0256   -3.3516 O   0  0  0  0  0  0  0  0  0  0  0  0
    6.3044    0.8103   -3.8809 N   0  0  0  0  0  0  0  0  0  0  0  0
    7.4204    0.8748   -4.8105 C   0  0  0  0  0  0  0  0  0  0  0  0
    8.7500    0.4357   -4.2209 C   0  0  0  0  0  0  0  0  0  0  0  0
    9.3759   -0.7442   -4.6451 C   0  0  0  0  0  0  0  0  0  0  0  0
   10.5949   -1.1498   -4.0894 C   0  0  0  0  0  0  0  0  0  0  0  0
   11.2016   -0.3759   -3.0977 C   0  0  0  0  0  0  0  0  0  0  0  0
   10.5853    0.8056   -2.6675 C   0  0  0  0  0  0  0  0  0  0  0  0
    9.3707    1.2095   -3.2243 C   0  0  0  0  0  0  0  0  0  0  0  0
    3.9207    0.2345   -1.8722 S   0  0  0  0  0  0  0  0  0  0  0  0
    1.1043    0.7328    1.9778 H   0  0  0  0  0  0  0  0  0  0  0  0
    0.2252    1.3902    0.5627 H   0  0  0  0  0  0  0  0  0  0  0  0
    1.6789    2.2318    1.1762 H   0  0  0  0  0  0  0  0  0  0  0  0
    1.2937   -1.3414    0.7991 H   0  0  0  0  0  0  0  0  0  0  0  0
    2.6498   -1.5008   -0.3388 H   0  0  0  0  0  0  0  0  0  0  0  0
    1.0310   -1.0310   -0.9428 H   0  0  0  0  0  0  0  0  0  0  0  0
    4.3890    4.6739   -0.7202 H   0  0  0  0  0  0  0  0  0  0  0  0
    5.4908    4.2356   -2.0568 H   0  0  0  0  0  0  0  0  0  0  0  0
    6.0016   -0.1073   -3.5761 H   0  0  0  0  0  0  0  0  0  0  0  0
    7.4841    1.9231   -5.1349 H   0  0  0  0  0  0  0  0  0  0  0  0
    7.1863    0.2599   -5.6952 H   0  0  0  0  0  0  0  0  0  0  0  0
    8.9064   -1.3533   -5.4240 H   0  0  0  0  0  0  0  0  0  0  0  0
   11.0699   -2.0725   -4.4333 H   0  0  0  0  0  0  0  0  0  0  0  0
   12.1539   -0.6893   -2.6617 H   0  0  0  0  0  0  0  0  0  0  0  0
   11.0589    1.4185   -1.8957 H   0  0  0  0  0  0  0  0  0  0  0  0
    8.8885    2.1344   -2.8969 H   0  0  0  0  0  0  0  0  0  0  0  0
  1  2  1  0
  1 20  1  0
  1 21  1  0
  1 22  1  0
  2  3  1  0
  2  4  1  0
  3 23  1  0
  3 24  1  0
  3 25  1  0
  4  5  2  0
  4 19  1  0
  5  6  1  0
  6  7  1  0
  6  8  2  0
  7 26  1  0
  7 27  1  0
  8  9  1  0
  8 19  1  0
  9 10  2  0
  9 11  1  0
 11 12  1  0
 11 28  1  0
 12 13  1  0
 12 29  1  0
 12 30  1  0
 13 14  2  0
 13 18  1  0
 14 15  1  0
 14 31  1  0
 15 16  2  0
 15 32  1  0
 16 17  1  0
 16 33  1  0
 17 18  2  0
 17 34  1  0
 18 35  1  0
M  END

