
     RDKit          3D

 70 76  0  0  0  0  0  0  0  0999 V2000
    4.7999    2.5185   -0.4486 O   0  0  0  0  0  0  0  0  0  0  0  0
    5.0795    2.7019    0.7149 C   0  0  0  0  0  0  0  0  0  0  0  0
    4.2146    3.2590    1.6435 N   0  0  0  0  0  0  0  0  0  0  0  0
    2.8785    3.5985    1.4062 C   0  0  0  0  0  0  0  0  0  0  0  0
    2.2359    4.7346    1.9025 C   0  0  0  0  0  0  0  0  0  0  0  0
    0.9441    4.6198    1.4623 N   0  0  0  0  0  0  0  0  0  0  0  0
   -0.0581    5.4725    1.6992 N   0  0  0  0  0  0  0  0  0  0  0  0
   -1.2278    5.1681    1.1565 C   0  0  0  0  0  0  0  0  0  0  0  0
   -2.3449    6.1027    1.3720 C   0  0  0  0  0  0  0  0  0  0  0  0
   -3.6940    5.8491    1.6439 C   0  0  0  0  0  0  0  0  0  0  0  0
   -4.3901    4.5819    1.9418 C   0  0  0  0  0  0  0  0  0  0  0  0
   -5.7515    4.4564    1.6020 C   0  0  0  0  0  0  0  0  0  0  0  0
   -6.4599    3.2887    1.8811 C   0  0  0  0  0  0  0  0  0  0  0  0
   -5.8033    2.2351    2.5150 C   0  0  0  0  0  0  0  0  0  0  0  0
   -6.4785    1.1084    2.7850 F   0  0  0  0  0  0  0  0  0  0  0  0
   -4.4637    2.3309    2.8847 C   0  0  0  0  0  0  0  0  0  0  0  0
   -3.7663    3.5066    2.6017 C   0  0  0  0  0  0  0  0  0  0  0  0
   -4.3928    7.0278    1.6428 N   0  0  0  0  0  0  0  0  0  0  0  0
   -3.5149    7.9709    1.3995 C   0  0  0  0  0  0  0  0  0  0  0  0
   -2.2478    7.4894    1.2308 N   0  0  0  0  0  0  0  0  0  0  0  0
   -1.0221    8.2586    0.9397 C   0  0  1  0  0  0  0  0  0  0  0  0
   -1.2398    9.4372   -0.0343 C   0  0  0  0  0  0  0  0  0  0  0  0
   -1.7259   10.7492    0.6019 C   0  0  0  0  0  0  0  0  0  0  0  0
   -0.9779   11.0615    1.8126 N   0  0  0  0  0  0  0  0  0  0  0  0
   -0.4200   12.3018    1.9492 C   0  0  0  0  0  0  0  0  0  0  0  0
   -0.4632   13.1844    1.1157 O   0  0  0  0  0  0  0  0  0  0  0  0
    0.2079   12.4525    3.1467 O   0  0  0  0  0  0  0  0  0  0  0  0
    0.8558   13.7035    3.3332 C   0  0  1  0  0  0  0  0  0  0  0  0
   -0.0276   14.9167    3.6647 C   0  0  0  0  0  0  0  0  0  0  0  0
    0.6430   15.0976    4.9253 O   0  0  0  0  0  0  0  0  0  0  0  0
    1.3977   13.8892    4.7556 C   0  0  0  0  0  0  0  0  0  0  0  0
   -0.9304   10.0023    2.8170 C   0  0  0  0  0  0  0  0  0  0  0  0
   -0.3121    8.7344    2.2244 C   0  0  0  0  0  0  0  0  0  0  0  0
   -1.4261    3.9892    0.3597 C   0  0  0  0  0  0  0  0  0  0  0  0
   -0.3812    3.1257    0.1384 C   0  0  0  0  0  0  0  0  0  0  0  0
    0.8721    3.4318    0.7118 C   0  0  0  0  0  0  0  0  0  0  0  0
    2.0432    2.8125    0.6893 N   0  0  0  0  0  0  0  0  0  0  0  0
    6.4448    2.3515    1.2659 C   0  0  0  0  0  0  0  0  0  0  0  0
    6.7093    2.0926    2.6219 C   0  0  0  0  0  0  0  0  0  0  0  0
    8.0127    1.7593    2.9937 C   0  0  0  0  0  0  0  0  0  0  0  0
    9.0240    1.6781    2.1236 N   0  0  0  0  0  0  0  0  0  0  0  0
    8.7543    1.9123    0.8594 C   0  0  0  0  0  0  0  0  0  0  0  0
    9.7754    1.8217    0.0082 F   0  0  0  0  0  0  0  0  0  0  0  0
    7.4957    2.2447    0.3526 C   0  0  0  0  0  0  0  0  0  0  0  0
    4.6154    3.5878    2.5132 H   0  0  0  0  0  0  0  0  0  0  0  0
    2.5699    5.5785    2.4984 H   0  0  0  0  0  0  0  0  0  0  0  0
   -6.2488    5.2987    1.1186 H   0  0  0  0  0  0  0  0  0  0  0  0
   -7.5138    3.1816    1.6165 H   0  0  0  0  0  0  0  0  0  0  0  0
   -3.9886    1.4948    3.4014 H   0  0  0  0  0  0  0  0  0  0  0  0
   -2.7274    3.5931    2.9245 H   0  0  0  0  0  0  0  0  0  0  0  0
   -3.7497    9.0296    1.3264 H   0  0  0  0  0  0  0  0  0  0  0  0
   -0.3576    7.5430    0.4424 H   0  0  0  0  0  0  0  0  0  0  0  0
   -1.9192    9.1386   -0.8482 H   0  0  0  0  0  0  0  0  0  0  0  0
   -0.2597    9.6365   -0.4979 H   0  0  0  0  0  0  0  0  0  0  0  0
   -2.8047   10.7072    0.8394 H   0  0  0  0  0  0  0  0  0  0  0  0
   -1.5910   11.5822   -0.0989 H   0  0  0  0  0  0  0  0  0  0  0  0
    1.5728   13.8767    2.5183 H   0  0  0  0  0  0  0  0  0  0  0  0
   -1.0972   14.6658    3.7820 H   0  0  0  0  0  0  0  0  0  0  0  0
    0.0711   15.7899    2.9991 H   0  0  0  0  0  0  0  0  0  0  0  0
    1.0850   13.0850    5.4470 H   0  0  0  0  0  0  0  0  0  0  0  0
    2.4854   14.0505    4.8529 H   0  0  0  0  0  0  0  0  0  0  0  0
   -1.9556    9.7976    3.1805 H   0  0  0  0  0  0  0  0  0  0  0  0
   -0.3475   10.3502    3.6759 H   0  0  0  0  0  0  0  0  0  0  0  0
   -0.3043    7.9172    2.9594 H   0  0  0  0  0  0  0  0  0  0  0  0
    0.7390    8.9477    1.9662 H   0  0  0  0  0  0  0  0  0  0  0  0
   -2.4083    3.8065   -0.0744 H   0  0  0  0  0  0  0  0  0  0  0  0
   -0.4781    2.2260   -0.4708 H   0  0  0  0  0  0  0  0  0  0  0  0
    5.9205    2.1086    3.3765 H   0  0  0  0  0  0  0  0  0  0  0  0
    8.2510    1.5422    4.0409 H   0  0  0  0  0  0  0  0  0  0  0  0
    7.3308    2.4112   -0.7122 H   0  0  0  0  0  0  0  0  0  0  0  0
  1  2  2  0
  2  3  1  0
  2 38  1  0
  3  4  1  0
  3 45  1  0
  4  5  2  0
  4 37  1  0
  5  6  1  0
  5 46  1  0
  6  7  1  0
  6 36  1  0
  7  8  2  0
  8  9  1  0
  8 34  1  0
  9 10  2  0
  9 20  1  0
 10 11  1  0
 10 18  1  0
 11 12  2  0
 11 17  1  0
 12 13  1  0
 12 47  1  0
 13 14  2  0
 13 48  1  0
 14 15  1  0
 14 16  1  0
 16 17  2  0
 16 49  1  0
 17 50  1  0
 18 19  2  0
 19 20  1  0
 19 51  1  0
 20 21  1  0
 21 22  1  0
 21 33  1  0
 21 52  1  6
 22 23  1  0
 22 53  1  0
 22 54  1  0
 23 24  1  0
 23 55  1  0
 23 56  1  0
 24 25  1  0
 24 32  1  0
 25 26  2  0
 25 27  1  0
 27 28  1  0
 28 29  1  0
 28 31  1  0
 28 57  1  6
 29 30  1  0
 29 58  1  0
 29 59  1  0
 30 31  1  0
 31 60  1  0
 31 61  1  0
 32 33  1  0
 32 62  1  0
 32 63  1  0
 33 64  1  0
 33 65  1  0
 34 35  2  0
 34 66  1  0
 35 36  1  0
 35 67  1  0
 36 37  2  0
 38 39  2  0
 38 44  1  0
 39 40  1  0
 39 68  1  0
 40 41  2  0
 40 69  1  0
 41 42  1  0
 42 43  1  0
 42 44  2  0
 44 70  1  0
M  END

