
     RDKit          3D

 35 36  0  0  0  0  0  0  0  0999 V2000
    1.3010    0.5808    0.2965 C   0  0  0  0  0  0  0  0  0  0  0  0
    2.6470   -0.1024   -0.0141 C   0  0  1  0  0  0  0  0  0  0  0  0
    3.3729   -0.4819    1.2928 C   0  0  0  0  0  0  0  0  0  0  0  0
    2.4031   -1.4812   -0.7243 C   0  0  0  0  0  0  0  0  0  0  0  0
    1.9641   -1.4643   -2.1007 N   0  0  0  0  0  0  0  0  0  0  0  0
    2.8839   -0.6788   -2.9109 C   0  0  0  0  0  0  0  0  0  0  0  0
    3.0840    0.7268   -2.3606 C   0  0  0  0  0  0  0  0  0  0  0  0
    3.4637    0.7436   -0.9373 N   0  0  0  0  0  0  0  0  0  0  0  0
    4.4197    1.6991   -0.6050 C   0  0  0  0  0  0  0  0  0  0  0  0
    5.1597    2.1739   -1.4625 O   0  0  0  0  0  0  0  0  0  0  0  0
    4.5012    2.2117    0.7918 C   0  0  0  0  0  0  0  0  0  0  0  0
    5.5676    2.9450    1.1764 C   0  0  0  0  0  0  0  0  0  0  0  0
    5.7464    3.5573    2.4658 C   0  0  0  0  0  0  0  0  0  0  0  0
    6.7699    4.3227    2.9845 C   0  0  0  0  0  0  0  0  0  0  0  0
    6.3975    4.6536    4.3228 C   0  0  0  0  0  0  0  0  0  0  0  0
    5.1774    4.0684    4.5264 C   0  0  0  0  0  0  0  0  0  0  0  0
    4.7757    3.4057    3.4176 O   0  0  0  0  0  0  0  0  0  0  0  0
    0.7004   -0.0358    0.9844 H   0  0  0  0  0  0  0  0  0  0  0  0
    0.7050    0.7403   -0.6159 H   0  0  0  0  0  0  0  0  0  0  0  0
    1.4549    1.5641    0.7669 H   0  0  0  0  0  0  0  0  0  0  0  0
    2.8999   -1.3882    1.7041 H   0  0  0  0  0  0  0  0  0  0  0  0
    3.3187    0.2819    2.0763 H   0  0  0  0  0  0  0  0  0  0  0  0
    4.4324   -0.7120    1.1066 H   0  0  0  0  0  0  0  0  0  0  0  0
    1.6773   -2.0449   -0.1157 H   0  0  0  0  0  0  0  0  0  0  0  0
    3.3554   -2.0397   -0.6863 H   0  0  0  0  0  0  0  0  0  0  0  0
    1.0161   -1.0960   -2.1790 H   0  0  0  0  0  0  0  0  0  0  0  0
    2.5144   -0.6228   -3.9479 H   0  0  0  0  0  0  0  0  0  0  0  0
    3.8538   -1.2071   -2.9401 H   0  0  0  0  0  0  0  0  0  0  0  0
    2.1431    1.2995   -2.4933 H   0  0  0  0  0  0  0  0  0  0  0  0
    3.8733    1.2588   -2.9037 H   0  0  0  0  0  0  0  0  0  0  0  0
    3.6755    2.0660    1.4842 H   0  0  0  0  0  0  0  0  0  0  0  0
    6.3720    3.1019    0.4521 H   0  0  0  0  0  0  0  0  0  0  0  0
    7.6775    4.6093    2.4574 H   0  0  0  0  0  0  0  0  0  0  0  0
    6.9590    5.2472    5.0410 H   0  0  0  0  0  0  0  0  0  0  0  0
    4.5001    4.0375    5.3763 H   0  0  0  0  0  0  0  0  0  0  0  0
  2  1  1  1
  1 18  1  0
  1 19  1  0
  1 20  1  0
  2  3  1  0
  2  4  1  0
  2  8  1  0
  3 21  1  0
  3 22  1  0
  3 23  1  0
  4  5  1  0
  4 24  1  0
  4 25  1  0
  5  6  1  0
  5 26  1  0
  6  7  1  0
  6 27  1  0
  6 28  1  0
  7  8  1  0
  7 29  1  0
  7 30  1  0
  8  9  1  0
  9 10  2  0
  9 11  1  0
 11 12  2  0
 11 31  1  0
 12 13  1  0
 12 32  1  0
 13 14  2  0
 13 17  1  0
 14 15  1  0
 14 33  1  0
 15 16  2  0
 15 34  1  0
 16 17  1  0
 16 35  1  0
M  END

