
     RDKit          3D

 54 59  0  0  0  0  0  0  0  0999 V2000
   -2.7936    9.5950   -7.5788 O   0  0  0  0  0  0  0  0  0  0  0  0
   -1.8694    9.8140   -6.8275 C   0  0  0  0  0  0  0  0  0  0  0  0
   -1.7973   11.0844   -5.9766 C   0  0  0  0  0  0  0  0  0  0  0  0
   -1.0207   10.9723   -4.7908 O   0  0  0  0  0  0  0  0  0  0  0  0
    0.1520   10.2925   -4.9036 C   0  0  0  0  0  0  0  0  0  0  0  0
    1.2182   10.5283   -4.0404 C   0  0  0  0  0  0  0  0  0  0  0  0
    2.3791    9.7589   -4.1530 C   0  0  0  0  0  0  0  0  0  0  0  0
    2.4114    8.7736   -5.1509 C   0  0  0  0  0  0  0  0  0  0  0  0
    3.5605    7.9615   -5.3061 N   0  0  0  0  0  0  0  0  0  0  0  0
    4.6539    8.1495   -4.4847 N   0  0  0  0  0  0  0  0  0  0  0  0
    5.5113    7.2725   -4.8703 C   0  0  0  0  0  0  0  0  0  0  0  0
    6.8703    7.0303   -4.3127 C   0  0  0  0  0  0  0  0  0  0  0  0
    7.9964    7.0848   -5.3585 C   0  0  0  0  0  0  0  0  0  0  0  0
    8.1753    8.4568   -6.0087 C   0  0  0  0  0  0  0  0  0  0  0  0
    9.2820    8.4296   -6.9540 N   0  0  0  0  0  0  0  0  0  0  0  0
    9.6890    9.6965   -7.5522 C   0  0  2  0  0  0  0  0  0  0  0  0
   10.3825    9.4335   -8.3671 H   0  0  0  0  0  0  0  0  0  0  0  0
   10.4347   10.6234   -6.5290 C   0  0  0  0  0  0  0  0  0  0  0  0
    9.6785   11.8806   -6.5227 N   0  0  0  0  0  0  0  0  0  0  0  0
    9.9598   12.9865   -5.7240 C   0  0  0  0  0  0  0  0  0  0  0  0
   10.8864   12.9816   -4.9273 O   0  0  0  0  0  0  0  0  0  0  0  0
    9.0376   14.1171   -5.9549 C   0  0  0  0  0  0  0  0  0  0  0  0
    8.0153   14.0857   -6.8553 C   0  0  0  0  0  0  0  0  0  0  0  0
    7.7712   12.9073   -7.6529 C   0  0  0  0  0  0  0  0  0  0  0  0
    6.7657   12.6986   -8.6242 C   0  0  0  0  0  0  0  0  0  0  0  0
    6.6765   11.4840   -9.3025 C   0  0  0  0  0  0  0  0  0  0  0  0
    7.5820   10.4281   -9.0426 C   0  0  0  0  0  0  0  0  0  0  0  0
    8.5807   10.6079   -8.0959 C   0  0  0  0  0  0  0  0  0  0  0  0
    8.6497   11.8356   -7.4296 C   0  0  0  0  0  0  0  0  0  0  0  0
    5.0752    6.5051   -5.9007 O   0  0  0  0  0  0  0  0  0  0  0  0
    3.7798    6.9343   -6.2215 C   0  0  0  0  0  0  0  0  0  0  0  0
    3.1190    6.4611   -7.0924 O   0  0  0  0  0  0  0  0  0  0  0  0
    1.4009    8.5417   -5.9823 N   0  0  0  0  0  0  0  0  0  0  0  0
    0.3041    9.2720   -5.8634 C   0  0  0  0  0  0  0  0  0  0  0  0
   -0.7694    8.9982   -6.7123 N   0  0  0  0  0  0  0  0  0  0  0  0
   -2.8186   11.3512   -5.6777 H   0  0  0  0  0  0  0  0  0  0  0  0
   -1.4044   11.8961   -6.6217 H   0  0  0  0  0  0  0  0  0  0  0  0
    1.1250   11.3061   -3.2798 H   0  0  0  0  0  0  0  0  0  0  0  0
    3.2338    9.9087   -3.4969 H   0  0  0  0  0  0  0  0  0  0  0  0
    6.8717    6.0343   -3.8365 H   0  0  0  0  0  0  0  0  0  0  0  0
    7.0272    7.7717   -3.5148 H   0  0  0  0  0  0  0  0  0  0  0  0
    7.7942    6.3307   -6.1394 H   0  0  0  0  0  0  0  0  0  0  0  0
    8.9440    6.7911   -4.8804 H   0  0  0  0  0  0  0  0  0  0  0  0
    8.4014    9.2004   -5.2243 H   0  0  0  0  0  0  0  0  0  0  0  0
    7.2178    8.7852   -6.4665 H   0  0  0  0  0  0  0  0  0  0  0  0
    9.1085    7.7386   -7.6819 H   0  0  0  0  0  0  0  0  0  0  0  0
   11.4778   10.8178   -6.8214 H   0  0  0  0  0  0  0  0  0  0  0  0
   10.4609   10.1804   -5.5227 H   0  0  0  0  0  0  0  0  0  0  0  0
    9.2359   14.9995   -5.3437 H   0  0  0  0  0  0  0  0  0  0  0  0
    7.3679   14.9589   -6.9815 H   0  0  0  0  0  0  0  0  0  0  0  0
    6.0546   13.5003   -8.8412 H   0  0  0  0  0  0  0  0  0  0  0  0
    5.8925   11.3425  -10.0499 H   0  0  0  0  0  0  0  0  0  0  0  0
    7.4849    9.4841   -9.5868 H   0  0  0  0  0  0  0  0  0  0  0  0
   -0.6965    8.1892   -7.3254 H   0  0  0  0  0  0  0  0  0  0  0  0
  1  2  2  0
  2  3  1  0
  2 35  1  0
  3  4  1  0
  3 36  1  0
  3 37  1  0
  4  5  1  0
  5  6  1  0
  5 34  2  0
  6  7  2  0
  6 38  1  0
  7  8  1  0
  7 39  1  0
  8  9  1  0
  8 33  2  0
  9 10  1  0
  9 31  1  0
 10 11  2  0
 11 12  1  0
 11 30  1  0
 12 13  1  0
 12 40  1  0
 12 41  1  0
 13 14  1  0
 13 42  1  0
 13 43  1  0
 14 15  1  0
 14 44  1  0
 14 45  1  0
 15 16  1  0
 15 46  1  0
 16 17  1  6
 16 18  1  0
 16 28  1  0
 18 19  1  0
 18 47  1  0
 18 48  1  0
 19 20  1  0
 19 29  1  0
 20 21  2  0
 20 22  1  0
 22 23  2  0
 22 49  1  0
 23 24  1  0
 23 50  1  0
 24 25  1  0
 24 29  2  0
 25 26  2  0
 25 51  1  0
 26 27  1  0
 26 52  1  0
 27 28  2  0
 27 53  1  0
 28 29  1  0
 30 31  1  0
 31 32  2  0
 33 34  1  0
 34 35  1  0
 35 54  1  0
M  END

