
     RDKit          3D

 28 28  0  0  0  0  0  0  0  0999 V2000
    1.7353    0.0013    1.4284 C   0  0  0  0  0  0  0  0  0  0  0  0
    1.8499    0.0207   -0.0946 C   0  0  0  0  0  0  0  0  0  0  0  0
    2.5853    1.1869   -0.5885 N   0  0  0  0  0  0  0  0  0  0  0  0
    1.9265    2.3151   -0.8710 N   0  0  0  0  0  0  0  0  0  0  0  0
    2.8543    3.2092   -1.2093 C   0  0  0  0  0  0  0  0  0  0  0  0
    4.1527    2.6619   -1.1371 C   0  0  0  0  0  0  0  0  0  0  0  0
    3.9342    1.3517   -0.7335 C   0  0  0  0  0  0  0  0  0  0  0  0
    5.1095    0.0689   -0.3579 S   0  0  1  0  0  0  0  0  0  0  0  0
    5.3226    0.0275    1.0910 O   0  0  0  0  0  0  0  0  0  0  0  0
    4.6758   -1.1394   -1.0734 O   0  0  0  0  0  0  0  0  0  0  0  0
    6.5062    0.6813   -1.0318 N   0  0  0  0  0  0  0  0  0  0  0  0
    6.9240    0.2322   -2.3610 C   0  0  0  0  0  0  0  0  0  0  0  0
    8.3772    0.6647   -2.5654 C   0  0  0  0  0  0  0  0  0  0  0  0
    9.1996    0.1898   -1.4567 N   0  0  0  0  0  0  0  0  0  0  0  0
    1.1501   -0.8757    1.7467 H   0  0  0  0  0  0  0  0  0  0  0  0
    1.2288    0.9081    1.7926 H   0  0  0  0  0  0  0  0  0  0  0  0
    2.7314   -0.0607    1.8918 H   0  0  0  0  0  0  0  0  0  0  0  0
    0.8605    0.0743   -0.5694 H   0  0  0  0  0  0  0  0  0  0  0  0
    2.3672   -0.8743   -0.4661 H   0  0  0  0  0  0  0  0  0  0  0  0
    2.5588    4.2171   -1.4994 H   0  0  0  0  0  0  0  0  0  0  0  0
    5.1121    3.1262   -1.3437 H   0  0  0  0  0  0  0  0  0  0  0  0
    7.2761    0.5908   -0.3582 H   0  0  0  0  0  0  0  0  0  0  0  0
    6.2836    0.6868   -3.1337 H   0  0  0  0  0  0  0  0  0  0  0  0
    6.8322   -0.8644   -2.4642 H   0  0  0  0  0  0  0  0  0  0  0  0
    8.4231    1.7660   -2.5748 H   0  0  0  0  0  0  0  0  0  0  0  0
    8.7039    0.3201   -3.5674 H   0  0  0  0  0  0  0  0  0  0  0  0
   10.0985    0.6674   -1.4257 H   0  0  0  0  0  0  0  0  0  0  0  0
    9.3943   -0.8086   -1.5403 H   0  0  0  0  0  0  0  0  0  0  0  0
  1  2  1  0
  1 15  1  0
  1 16  1  0
  1 17  1  0
  2  3  1  0
  2 18  1  0
  2 19  1  0
  3  4  1  0
  3  7  1  0
  4  5  2  0
  5  6  1  0
  5 20  1  0
  6  7  2  0
  6 21  1  0
  7  8  1  0
  8  9  2  0
  8 10  2  0
  8 11  1  6
 11 12  1  0
 11 22  1  0
 12 13  1  0
 12 23  1  0
 12 24  1  0
 13 14  1  0
 13 25  1  0
 13 26  1  0
 14 27  1  0
 14 28  1  0
M  END

