
     RDKit          3D

 47 46  0  0  0  0  0  0  0  0999 V2000
    1.8966    0.8372    1.3479 C   0  0  0  0  0  0  0  0  0  0  0  0
    2.9821    0.3654    0.3890 C   0  0  1  0  0  0  0  0  0  0  0  0
    3.7577    1.5277   -0.2342 C   0  0  0  0  0  0  0  0  0  0  0  0
    3.8360   -0.4983    1.1368 O   0  0  0  0  0  0  0  0  0  0  0  0
    4.6459   -1.3629    0.3810 C   0  0  0  0  0  0  0  0  0  0  0  0
    5.3775   -2.2678    1.3654 C   0  0  0  0  0  0  0  0  0  0  0  0
    6.4562   -3.4276    0.4946 S   0  0  1  0  0  0  0  0  0  0  0  0
    5.6001   -4.3708   -0.2337 O   0  0  0  0  0  0  0  0  0  0  0  0
    7.4818   -2.6345   -0.1951 O   0  0  0  0  0  0  0  0  0  0  0  0
    7.1677   -4.2981    1.7479 N   0  0  0  0  0  0  0  0  0  0  0  0
    8.5811   -4.0675    2.0763 C   0  0  0  0  0  0  0  0  0  0  0  0
    8.9599   -4.6442    3.4618 C   0  0  1  0  0  0  0  0  0  0  0  0
    9.4789   -6.1100    3.3716 C   0  0  1  0  0  0  0  0  0  0  0  0
    9.7510   -6.7283    4.7517 C   0  0  0  0  0  0  0  0  0  0  0  0
    8.5290   -7.0314    2.5878 C   0  0  0  0  0  0  0  0  0  0  0  0
    9.9314   -3.6903    4.2201 C   0  0  1  0  0  0  0  0  0  0  0  0
   11.2418   -3.4143    3.4668 C   0  0  0  0  0  0  0  0  0  0  0  0
    9.2475   -2.3769    4.6288 C   0  0  0  0  0  0  0  0  0  0  0  0
    1.1728    1.4874    0.8326 H   0  0  0  0  0  0  0  0  0  0  0  0
    2.3440    1.4045    2.1798 H   0  0  0  0  0  0  0  0  0  0  0  0
    1.3577   -0.0234    1.7717 H   0  0  0  0  0  0  0  0  0  0  0  0
    2.5106   -0.2254   -0.4244 H   0  0  0  0  0  0  0  0  0  0  0  0
    4.2445    2.1261    0.5528 H   0  0  0  0  0  0  0  0  0  0  0  0
    3.0806    2.1853   -0.8021 H   0  0  0  0  0  0  0  0  0  0  0  0
    4.5360    1.1762   -0.9289 H   0  0  0  0  0  0  0  0  0  0  0  0
    5.3899   -0.8180   -0.2297 H   0  0  0  0  0  0  0  0  0  0  0  0
    4.0393   -1.9817   -0.3097 H   0  0  0  0  0  0  0  0  0  0  0  0
    4.6755   -2.8726    1.9562 H   0  0  0  0  0  0  0  0  0  0  0  0
    6.0131   -1.6810    2.0443 H   0  0  0  0  0  0  0  0  0  0  0  0
    6.8913   -5.2727    1.6432 H   0  0  0  0  0  0  0  0  0  0  0  0
    8.7258   -2.9798    2.0604 H   0  0  0  0  0  0  0  0  0  0  0  0
    9.2509   -4.4676    1.2936 H   0  0  0  0  0  0  0  0  0  0  0  0
    8.0268   -4.6690    4.0542 H   0  0  0  0  0  0  0  0  0  0  0  0
   10.4353   -6.0902    2.8168 H   0  0  0  0  0  0  0  0  0  0  0  0
    8.8417   -6.7134    5.3775 H   0  0  0  0  0  0  0  0  0  0  0  0
   10.5464   -6.2083    5.3049 H   0  0  0  0  0  0  0  0  0  0  0  0
   10.0634   -7.7799    4.6496 H   0  0  0  0  0  0  0  0  0  0  0  0
    7.5330   -7.0789    3.0625 H   0  0  0  0  0  0  0  0  0  0  0  0
    8.9230   -8.0597    2.5615 H   0  0  0  0  0  0  0  0  0  0  0  0
    8.4011   -6.7198    1.5393 H   0  0  0  0  0  0  0  0  0  0  0  0
   10.1972   -4.1983    5.1610 H   0  0  0  0  0  0  0  0  0  0  0  0
   11.0669   -2.8684    2.5248 H   0  0  0  0  0  0  0  0  0  0  0  0
   11.7848   -4.3401    3.2201 H   0  0  0  0  0  0  0  0  0  0  0  0
   11.9156   -2.7934    4.0788 H   0  0  0  0  0  0  0  0  0  0  0  0
    8.9747   -1.7574    3.7583 H   0  0  0  0  0  0  0  0  0  0  0  0
    9.9188   -1.7686    5.2562 H   0  0  0  0  0  0  0  0  0  0  0  0
    8.3281   -2.5642    5.2072 H   0  0  0  0  0  0  0  0  0  0  0  0
  1  2  1  0
  1 19  1  0
  1 20  1  0
  1 21  1  0
  2  3  1  0
  2  4  1  0
  2 22  1  6
  3 23  1  0
  3 24  1  0
  3 25  1  0
  4  5  1  0
  5  6  1  0
  5 26  1  0
  5 27  1  0
  6  7  1  0
  6 28  1  0
  6 29  1  0
  7  8  2  0
  7  9  2  0
  7 10  1  1
 10 11  1  0
 10 30  1  0
 11 12  1  0
 11 31  1  0
 11 32  1  0
 12 13  1  0
 12 16  1  0
 12 33  1  1
 13 14  1  0
 13 15  1  0
 13 34  1  6
 14 35  1  0
 14 36  1  0
 14 37  1  0
 15 38  1  0
 15 39  1  0
 15 40  1  0
 16 17  1  0
 16 18  1  0
 16 41  1  1
 17 42  1  0
 17 43  1  0
 17 44  1  0
 18 45  1  0
 18 46  1  0
 18 47  1  0
M  END

