
     RDKit          3D

 34 34  0  0  0  0  0  0  0  0999 V2000
    0.9978   -0.2780    0.0702 C   0  0  0  0  0  0  0  0  0  0  0  0
    2.5105   -0.1819    0.0401 C   0  0  0  0  0  0  0  0  0  0  0  0
    3.0006   -1.0528   -0.9724 O   0  0  0  0  0  0  0  0  0  0  0  0
    4.3749   -1.0686   -1.1139 C   0  0  1  0  0  0  0  0  0  0  0  0
    5.0504   -1.7118   -0.0538 O   0  0  0  0  0  0  0  0  0  0  0  0
    4.7369   -3.0924    0.1325 C   0  0  0  0  0  0  0  0  0  0  0  0
    5.3418   -3.5454    1.4471 C   0  0  0  0  0  0  0  0  0  0  0  0
    4.7333   -1.7189   -2.4728 C   0  0  0  0  0  0  0  0  0  0  0  0
    3.9049   -2.1972   -3.2058 O   0  0  0  0  0  0  0  0  0  0  0  0
    6.2202   -1.6760   -2.8317 C   0  0  0  0  0  0  0  0  0  0  0  0
    6.5592   -0.4070   -3.5959 C   0  0  0  0  0  0  0  0  0  0  0  0
    5.9730   -0.1555   -4.8485 C   0  0  0  0  0  0  0  0  0  0  0  0
    6.2805    1.0112   -5.5517 C   0  0  0  0  0  0  0  0  0  0  0  0
    7.1723    1.9501   -5.0234 C   0  0  0  0  0  0  0  0  0  0  0  0
    7.7417    1.6911   -3.7801 C   0  0  0  0  0  0  0  0  0  0  0  0
    8.5998    2.5791   -3.2548 F   0  0  0  0  0  0  0  0  0  0  0  0
    7.4491    0.5343   -3.0595 C   0  0  0  0  0  0  0  0  0  0  0  0
    0.5857    0.4011    0.8329 H   0  0  0  0  0  0  0  0  0  0  0  0
    0.6769   -1.3039    0.3084 H   0  0  0  0  0  0  0  0  0  0  0  0
    0.5727   -0.0064   -0.9081 H   0  0  0  0  0  0  0  0  0  0  0  0
    2.9450   -0.4556    1.0188 H   0  0  0  0  0  0  0  0  0  0  0  0
    2.8336    0.8559   -0.1798 H   0  0  0  0  0  0  0  0  0  0  0  0
    4.7921   -0.0407   -1.1103 H   0  0  0  0  0  0  0  0  0  0  0  0
    5.1428   -3.6925   -0.7064 H   0  0  0  0  0  0  0  0  0  0  0  0
    3.6423   -3.2311    0.1279 H   0  0  0  0  0  0  0  0  0  0  0  0
    6.4336   -3.4022    1.4462 H   0  0  0  0  0  0  0  0  0  0  0  0
    5.1319   -4.6130    1.6178 H   0  0  0  0  0  0  0  0  0  0  0  0
    4.9233   -2.9701    2.2874 H   0  0  0  0  0  0  0  0  0  0  0  0
    6.4223   -2.5580   -3.4588 H   0  0  0  0  0  0  0  0  0  0  0  0
    6.8257   -1.7388   -1.9170 H   0  0  0  0  0  0  0  0  0  0  0  0
    5.2682   -0.8789   -5.2647 H   0  0  0  0  0  0  0  0  0  0  0  0
    5.8207    1.1951   -6.5258 H   0  0  0  0  0  0  0  0  0  0  0  0
    7.4304    2.8684   -5.5540 H   0  0  0  0  0  0  0  0  0  0  0  0
    7.9281    0.3798   -2.0901 H   0  0  0  0  0  0  0  0  0  0  0  0
  1  2  1  0
  1 18  1  0
  1 19  1  0
  1 20  1  0
  2  3  1  0
  2 21  1  0
  2 22  1  0
  3  4  1  0
  4  5  1  0
  4  8  1  0
  4 23  1  6
  5  6  1  0
  6  7  1  0
  6 24  1  0
  6 25  1  0
  7 26  1  0
  7 27  1  0
  7 28  1  0
  8  9  2  0
  8 10  1  0
 10 11  1  0
 10 29  1  0
 10 30  1  0
 11 12  2  0
 11 17  1  0
 12 13  1  0
 12 31  1  0
 13 14  2  0
 13 32  1  0
 14 15  1  0
 14 33  1  0
 15 16  1  0
 15 17  2  0
 17 34  1  0
M  END

