
     RDKit          3D

 47 48  0  0  0  0  0  0  0  0999 V2000
    6.2613    6.4648   -1.7793 C   0  0  0  0  0  0  0  0  0  0  0  0
    5.9005    5.9062   -0.4021 C   0  0  0  0  0  0  0  0  0  0  0  0
    6.6894    4.6487   -0.0240 C   0  0  0  0  0  0  0  0  0  0  0  0
    6.3340    4.0828    1.3539 C   0  0  0  0  0  0  0  0  0  0  0  0
    7.1250    2.8268    1.7316 C   0  0  0  0  0  0  0  0  0  0  0  0
    6.7612    2.2653    3.1088 C   0  0  0  0  0  0  0  0  0  0  0  0
    7.5307    0.9887    3.4956 C   0  0  0  0  0  0  0  0  0  0  0  0
    9.0243    1.1721    3.6577 C   0  0  0  0  0  0  0  0  0  0  0  0
    9.7837    0.5090    2.8513 N   0  0  0  0  0  0  0  0  0  0  0  0
   11.1237    0.5697    2.9597 N   0  0  0  0  0  0  0  0  0  0  0  0
   11.9394   -0.1673    2.1324 C   0  0  0  0  0  0  0  0  0  0  0  0
   11.4406   -0.9572    1.0678 C   0  0  0  0  0  0  0  0  0  0  0  0
   12.3722   -1.6362    0.3140 C   0  0  0  0  0  0  0  0  0  0  0  0
   13.7269   -1.4790    0.6718 C   0  0  0  0  0  0  0  0  0  0  0  0
   14.9595   -2.3118   -0.2465 Cl  0  0  0  0  0  0  0  0  0  0  0  0
   14.1301   -0.7284    1.6760 N   0  0  0  0  0  0  0  0  0  0  0  0
   13.2458   -0.0727    2.4102 N   0  0  0  0  0  0  0  0  0  0  0  0
    9.5189    2.0965    4.7245 C   0  0  0  0  0  0  0  0  0  0  0  0
    9.1102    1.9414    6.0607 C   0  0  0  0  0  0  0  0  0  0  0  0
    9.5532    2.8079    7.0602 C   0  0  0  0  0  0  0  0  0  0  0  0
   10.4141    3.8692    6.7436 C   0  0  0  0  0  0  0  0  0  0  0  0
   10.8734    4.7444    7.6692 O   0  0  0  0  0  0  0  0  0  0  0  0
   10.8233    4.0477    5.4132 C   0  0  0  0  0  0  0  0  0  0  0  0
   10.3812    3.1722    4.4250 C   0  0  0  0  0  0  0  0  0  0  0  0
    5.6758    7.3672   -2.0173 H   0  0  0  0  0  0  0  0  0  0  0  0
    6.0701    5.7250   -2.5749 H   0  0  0  0  0  0  0  0  0  0  0  0
    7.3288    6.7370   -1.8345 H   0  0  0  0  0  0  0  0  0  0  0  0
    4.8191    5.6795   -0.3676 H   0  0  0  0  0  0  0  0  0  0  0  0
    6.0669    6.6830    0.3665 H   0  0  0  0  0  0  0  0  0  0  0  0
    7.7719    4.8742   -0.0578 H   0  0  0  0  0  0  0  0  0  0  0  0
    6.5237    3.8702   -0.7923 H   0  0  0  0  0  0  0  0  0  0  0  0
    5.2517    3.8567    1.3869 H   0  0  0  0  0  0  0  0  0  0  0  0
    6.4991    4.8616    2.1217 H   0  0  0  0  0  0  0  0  0  0  0  0
    8.2059    3.0538    1.6974 H   0  0  0  0  0  0  0  0  0  0  0  0
    6.9628    2.0459    0.9657 H   0  0  0  0  0  0  0  0  0  0  0  0
    5.6808    2.0374    3.1350 H   0  0  0  0  0  0  0  0  0  0  0  0
    6.9235    3.0407    3.8786 H   0  0  0  0  0  0  0  0  0  0  0  0
    7.3750    0.2050    2.7381 H   0  0  0  0  0  0  0  0  0  0  0  0
    7.1132    0.6028    4.4435 H   0  0  0  0  0  0  0  0  0  0  0  0
   11.5909    1.0719    3.7168 H   0  0  0  0  0  0  0  0  0  0  0  0
   10.3690   -1.0078    0.8785 H   0  0  0  0  0  0  0  0  0  0  0  0
   12.0884   -2.2715   -0.5264 H   0  0  0  0  0  0  0  0  0  0  0  0
    8.4414    1.1213    6.3324 H   0  0  0  0  0  0  0  0  0  0  0  0
    9.2286    2.6603    8.0952 H   0  0  0  0  0  0  0  0  0  0  0  0
   10.5274    4.5117    8.5410 H   0  0  0  0  0  0  0  0  0  0  0  0
   11.4852    4.8824    5.1746 H   0  0  0  0  0  0  0  0  0  0  0  0
   10.7012    3.3373    3.3930 H   0  0  0  0  0  0  0  0  0  0  0  0
  1  2  1  0
  1 25  1  0
  1 26  1  0
  1 27  1  0
  2  3  1  0
  2 28  1  0
  2 29  1  0
  3  4  1  0
  3 30  1  0
  3 31  1  0
  4  5  1  0
  4 32  1  0
  4 33  1  0
  5  6  1  0
  5 34  1  0
  5 35  1  0
  6  7  1  0
  6 36  1  0
  6 37  1  0
  7  8  1  0
  7 38  1  0
  7 39  1  0
  8  9  2  0
  8 18  1  0
  9 10  1  0
 10 11  1  0
 10 40  1  0
 11 12  2  0
 11 17  1  0
 12 13  1  0
 12 41  1  0
 13 14  2  0
 13 42  1  0
 14 15  1  0
 14 16  1  0
 16 17  2  0
 18 19  2  0
 18 24  1  0
 19 20  1  0
 19 43  1  0
 20 21  2  0
 20 44  1  0
 21 22  1  0
 21 23  1  0
 22 45  1  0
 23 24  2  0
 23 46  1  0
 24 47  1  0
M  END

