
     RDKit          3D

 65 70  0  0  0  0  0  0  0  0999 V2000
    0.6548   -0.1315   -0.4182 C   0  0  0  0  0  0  0  0  0  0  0  0
    2.1141   -0.0137   -0.1349 C   0  0  0  0  0  0  0  0  0  0  0  0
    2.5951   -0.0658    1.0504 N   0  0  0  0  0  0  0  0  0  0  0  0
    3.9645    0.0812    1.0132 N   0  0  0  0  0  0  0  0  0  0  0  0
    4.6689    0.1079    2.2155 C   0  0  0  0  0  0  0  0  0  0  0  0
    3.9519    0.0687    3.4345 C   0  0  0  0  0  0  0  0  0  0  0  0
    4.6211    0.0968    4.6512 C   0  0  0  0  0  0  0  0  0  0  0  0
    6.0188    0.1650    4.6772 C   0  0  0  0  0  0  0  0  0  0  0  0
    6.8759    0.2222    6.2307 S   0  0  1  0  0  0  0  0  0  0  0  0
    5.9601   -0.1886    7.2952 O   0  0  0  0  0  0  0  0  0  0  0  0
    8.1982   -0.3589    6.0682 O   0  0  0  0  0  0  0  0  0  0  0  0
    7.1484    1.8337    6.4430 O   0  0  0  0  0  0  0  0  0  0  0  0
    6.7458    0.1919    3.4842 C   0  0  0  0  0  0  0  0  0  0  0  0
    6.0799    0.1651    2.2626 C   0  0  0  0  0  0  0  0  0  0  0  0
    4.4792    0.2076   -0.3457 C   0  0  2  0  0  0  0  0  0  0  0  0
    3.1722    0.1832   -1.1853 C   0  0  0  0  0  0  0  0  0  0  0  0
    5.5776   -1.2554   -0.8152 S   0  0  0  0  0  0  0  0  0  0  0  0
    6.9383   -0.2320   -1.2705 C   0  0  0  0  0  0  0  0  0  0  0  0
    8.1660   -0.5864   -1.7386 C   0  0  0  0  0  0  0  0  0  0  0  0
    8.7567   -1.8792   -2.0074 C   0  0  0  0  0  0  0  0  0  0  0  0
    8.1160   -3.1249   -1.8116 C   0  0  0  0  0  0  0  0  0  0  0  0
    8.7505   -4.3279   -2.0827 C   0  0  0  0  0  0  0  0  0  0  0  0
   10.0834   -4.3666   -2.5748 C   0  0  0  0  0  0  0  0  0  0  0  0
   10.7161   -5.5580   -2.8429 N   0  0  0  0  0  0  0  0  0  0  0  0
   12.0803   -5.5636   -3.3363 C   0  0  0  0  0  0  0  0  0  0  0  0
   10.0314   -6.8160   -2.6122 C   0  0  0  0  0  0  0  0  0  0  0  0
   10.7320   -3.1182   -2.7761 C   0  0  0  0  0  0  0  0  0  0  0  0
   10.0828   -1.9260   -2.4988 C   0  0  0  0  0  0  0  0  0  0  0  0
    6.6207    1.1983   -1.0794 C   0  0  0  0  0  0  0  0  0  0  0  0
    7.3694    2.1290   -1.3110 O   0  0  0  0  0  0  0  0  0  0  0  0
    5.3260    1.3869   -0.5702 N   0  0  0  0  0  0  0  0  0  0  0  0
    4.8218    2.6606   -0.2984 C   0  0  0  0  0  0  0  0  0  0  0  0
    3.6007    2.8422    0.0931 N   0  0  0  0  0  0  0  0  0  0  0  0
    3.3407    4.1784    0.3226 C   0  0  0  0  0  0  0  0  0  0  0  0
    2.1156    4.7092    0.7617 C   0  0  0  0  0  0  0  0  0  0  0  0
    2.0043    6.0843    0.9468 C   0  0  0  0  0  0  0  0  0  0  0  0
    3.0966    6.9380    0.7006 C   0  0  0  0  0  0  0  0  0  0  0  0
    4.3202    6.4289    0.2655 C   0  0  0  0  0  0  0  0  0  0  0  0
    4.4339    5.0460    0.0808 C   0  0  0  0  0  0  0  0  0  0  0  0
    5.8255    4.1209   -0.4595 S   0  0  0  0  0  0  0  0  0  0  0  0
    0.0992   -0.2889    0.5161 H   0  0  0  0  0  0  0  0  0  0  0  0
    0.4481   -0.9712   -1.1039 H   0  0  0  0  0  0  0  0  0  0  0  0
    0.2780    0.7835   -0.9070 H   0  0  0  0  0  0  0  0  0  0  0  0
    2.8662    0.0113    3.4011 H   0  0  0  0  0  0  0  0  0  0  0  0
    4.0633    0.0521    5.5884 H   0  0  0  0  0  0  0  0  0  0  0  0
    6.4080    2.1878    6.9636 H   0  0  0  0  0  0  0  0  0  0  0  0
    7.8364    0.2194    3.5117 H   0  0  0  0  0  0  0  0  0  0  0  0
    6.6760    0.1665    1.3551 H   0  0  0  0  0  0  0  0  0  0  0  0
    3.1875   -0.6293   -1.9270 H   0  0  0  0  0  0  0  0  0  0  0  0
    3.0300    1.1313   -1.7231 H   0  0  0  0  0  0  0  0  0  0  0  0
    8.8066    0.2790   -1.9404 H   0  0  0  0  0  0  0  0  0  0  0  0
    7.0935   -3.1653   -1.4332 H   0  0  0  0  0  0  0  0  0  0  0  0
    8.2021   -5.2523   -1.9073 H   0  0  0  0  0  0  0  0  0  0  0  0
   12.1746   -5.0321   -4.3006 H   0  0  0  0  0  0  0  0  0  0  0  0
   12.4066   -6.5993   -3.4926 H   0  0  0  0  0  0  0  0  0  0  0  0
   12.7826   -5.0924   -2.6245 H   0  0  0  0  0  0  0  0  0  0  0  0
    9.7430   -6.9450   -1.5530 H   0  0  0  0  0  0  0  0  0  0  0  0
   10.6958   -7.6466   -2.8814 H   0  0  0  0  0  0  0  0  0  0  0  0
    9.1144   -6.9076   -3.2222 H   0  0  0  0  0  0  0  0  0  0  0  0
   11.7540   -3.0807   -3.1504 H   0  0  0  0  0  0  0  0  0  0  0  0
   10.6165   -0.9859   -2.6638 H   0  0  0  0  0  0  0  0  0  0  0  0
    1.2787    4.0348    0.9535 H   0  0  0  0  0  0  0  0  0  0  0  0
    1.0574    6.5086    1.2896 H   0  0  0  0  0  0  0  0  0  0  0  0
    2.9866    8.0144    0.8538 H   0  0  0  0  0  0  0  0  0  0  0  0
    5.1659    7.0941    0.0769 H   0  0  0  0  0  0  0  0  0  0  0  0
  1  2  1  0
  1 41  1  0
  1 42  1  0
  1 43  1  0
  2  3  2  0
  2 16  1  0
  3  4  1  0
  4  5  1  0
  4 15  1  0
  5  6  2  0
  5 14  1  0
  6  7  1  0
  6 44  1  0
  7  8  2  0
  7 45  1  0
  8  9  1  0
  8 13  1  0
  9 10  2  0
  9 11  2  0
  9 12  1  1
 12 46  1  0
 13 14  2  0
 13 47  1  0
 14 48  1  0
 15 16  1  0
 15 17  1  6
 15 31  1  0
 16 49  1  0
 16 50  1  0
 17 18  1  0
 18 19  2  0
 18 29  1  0
 19 20  1  0
 19 51  1  0
 20 21  2  0
 20 28  1  0
 21 22  1  0
 21 52  1  0
 22 23  2  0
 22 53  1  0
 23 24  1  0
 23 27  1  0
 24 25  1  0
 24 26  1  0
 25 54  1  0
 25 55  1  0
 25 56  1  0
 26 57  1  0
 26 58  1  0
 26 59  1  0
 27 28  2  0
 27 60  1  0
 28 61  1  0
 29 30  2  0
 29 31  1  0
 31 32  1  0
 32 33  2  0
 32 40  1  0
 33 34  1  0
 34 35  2  0
 34 39  1  0
 35 36  1  0
 35 62  1  0
 36 37  2  0
 36 63  1  0
 37 38  1  0
 37 64  1  0
 38 39  2  0
 38 65  1  0
 39 40  1  0
M  END

