
     RDKit          3D

 61 62  0  0  0  0  0  0  0  0999 V2000
   12.2627   -2.9676   -1.1106 C   0  0  0  0  0  0  0  0  0  0  0  0
   11.5136   -4.1328   -0.8455 O   0  0  0  0  0  0  0  0  0  0  0  0
   10.4646   -4.4439   -1.6482 C   0  0  0  0  0  0  0  0  0  0  0  0
   10.0723   -3.7022   -2.7693 C   0  0  0  0  0  0  0  0  0  0  0  0
    8.9573   -4.0904   -3.5180 C   0  0  0  0  0  0  0  0  0  0  0  0
    8.2039   -5.2251   -3.1770 C   0  0  0  0  0  0  0  0  0  0  0  0
    7.0345   -5.5827   -3.9807 C   0  0  0  0  0  0  0  0  0  0  0  0
    6.2253   -6.6462   -3.7925 C   0  0  0  0  0  0  0  0  0  0  0  0
    5.0233   -6.8329   -4.6529 C   0  0  0  0  0  0  0  0  0  0  0  0
    4.6825   -5.9862   -5.4727 O   0  0  0  0  0  0  0  0  0  0  0  0
    4.2749   -7.9916   -4.4665 N   0  0  0  0  0  0  0  0  0  0  0  0
    2.9583   -8.0609   -5.1040 C   0  0  0  0  0  0  0  0  0  0  0  0
    2.7033   -9.4132   -5.7676 C   0  0  0  0  0  0  0  0  0  0  0  0
    2.9195  -10.5504   -4.7669 C   0  0  0  0  0  0  0  0  0  0  0  0
    4.3281  -10.4561   -4.1736 C   0  0  0  0  0  0  0  0  0  0  0  0
    4.6564   -9.0795   -3.5617 C   0  0  2  0  0  0  0  0  0  0  0  0
    4.0582   -8.8678   -2.1462 C   0  0  0  0  0  0  0  0  0  0  0  0
    4.6143   -9.7591   -1.1428 N   0  0  0  0  0  0  0  0  0  0  0  0
    5.8763   -9.5916   -0.6498 C   0  0  0  0  0  0  0  0  0  0  0  0
    6.6618   -8.7558   -1.0628 O   0  0  0  0  0  0  0  0  0  0  0  0
    6.1103  -10.4756    0.3378 O   0  0  0  0  0  0  0  0  0  0  0  0
    7.4075  -10.5654    1.0194 C   0  0  1  0  0  0  0  0  0  0  0  0
    7.7387   -9.2444    1.7223 C   0  0  0  0  0  0  0  0  0  0  0  0
    7.1694  -11.6774    2.0433 C   0  0  0  0  0  0  0  0  0  0  0  0
    8.4919  -10.9721    0.0168 C   0  0  0  0  0  0  0  0  0  0  0  0
    8.6163   -5.9734   -2.0500 C   0  0  0  0  0  0  0  0  0  0  0  0
    9.7202   -5.6024   -1.2946 C   0  0  0  0  0  0  0  0  0  0  0  0
   10.0324   -6.3276   -0.1763 O   0  0  0  0  0  0  0  0  0  0  0  0
   11.2500   -7.0556   -0.1993 C   0  0  0  0  0  0  0  0  0  0  0  0
   13.0344   -2.9080   -0.3314 H   0  0  0  0  0  0  0  0  0  0  0  0
   11.6353   -2.0596   -1.0642 H   0  0  0  0  0  0  0  0  0  0  0  0
   12.7542   -3.0095   -2.0993 H   0  0  0  0  0  0  0  0  0  0  0  0
   10.6259   -2.8097   -3.0615 H   0  0  0  0  0  0  0  0  0  0  0  0
    8.6634   -3.4932   -4.3850 H   0  0  0  0  0  0  0  0  0  0  0  0
    6.7851   -4.9123   -4.8104 H   0  0  0  0  0  0  0  0  0  0  0  0
    6.4186   -7.3322   -2.9686 H   0  0  0  0  0  0  0  0  0  0  0  0
    2.9179   -7.2379   -5.8274 H   0  0  0  0  0  0  0  0  0  0  0  0
    2.1667   -7.8718   -4.3502 H   0  0  0  0  0  0  0  0  0  0  0  0
    3.3915   -9.5356   -6.6226 H   0  0  0  0  0  0  0  0  0  0  0  0
    1.6782   -9.4305   -6.1735 H   0  0  0  0  0  0  0  0  0  0  0  0
    2.7780  -11.5333   -5.2462 H   0  0  0  0  0  0  0  0  0  0  0  0
    2.1577  -10.4857   -3.9676 H   0  0  0  0  0  0  0  0  0  0  0  0
    5.0609  -10.6544   -4.9743 H   0  0  0  0  0  0  0  0  0  0  0  0
    4.4908  -11.2275   -3.4032 H   0  0  0  0  0  0  0  0  0  0  0  0
    5.7438   -9.0467   -3.4380 H   0  0  0  0  0  0  0  0  0  0  0  0
    2.9675   -9.0114   -2.1528 H   0  0  0  0  0  0  0  0  0  0  0  0
    4.2471   -7.8228   -1.8526 H   0  0  0  0  0  0  0  0  0  0  0  0
    4.0380  -10.4676   -0.7071 H   0  0  0  0  0  0  0  0  0  0  0  0
    6.8948   -8.9257    2.3540 H   0  0  0  0  0  0  0  0  0  0  0  0
    7.9686   -8.4450    1.0065 H   0  0  0  0  0  0  0  0  0  0  0  0
    8.6133   -9.3886    2.3762 H   0  0  0  0  0  0  0  0  0  0  0  0
    6.3664  -11.3957    2.7412 H   0  0  0  0  0  0  0  0  0  0  0  0
    8.0856  -11.8643    2.6234 H   0  0  0  0  0  0  0  0  0  0  0  0
    6.8776  -12.6119    1.5402 H   0  0  0  0  0  0  0  0  0  0  0  0
    8.6445  -10.1899   -0.7379 H   0  0  0  0  0  0  0  0  0  0  0  0
    8.2155  -11.9096   -0.4910 H   0  0  0  0  0  0  0  0  0  0  0  0
    9.4429  -11.1393    0.5463 H   0  0  0  0  0  0  0  0  0  0  0  0
    8.0693   -6.8612   -1.7274 H   0  0  0  0  0  0  0  0  0  0  0  0
   11.3048   -7.6092    0.7489 H   0  0  0  0  0  0  0  0  0  0  0  0
   12.1248   -6.3906   -0.2788 H   0  0  0  0  0  0  0  0  0  0  0  0
   11.2668   -7.7791   -1.0352 H   0  0  0  0  0  0  0  0  0  0  0  0
  1  2  1  0
  1 30  1  0
  1 31  1  0
  1 32  1  0
  2  3  1  0
  3  4  2  0
  3 27  1  0
  4  5  1  0
  4 33  1  0
  5  6  2  0
  5 34  1  0
  6  7  1  0
  6 26  1  0
  7  8  2  0
  7 35  1  0
  8  9  1  0
  8 36  1  0
  9 10  2  0
  9 11  1  0
 11 12  1  0
 11 16  1  0
 12 13  1  0
 12 37  1  0
 12 38  1  0
 13 14  1  0
 13 39  1  0
 13 40  1  0
 14 15  1  0
 14 41  1  0
 14 42  1  0
 15 16  1  0
 15 43  1  0
 15 44  1  0
 16 17  1  0
 16 45  1  1
 17 18  1  0
 17 46  1  0
 17 47  1  0
 18 19  1  0
 18 48  1  0
 19 20  2  0
 19 21  1  0
 22 21  1  6
 22 23  1  0
 22 24  1  0
 22 25  1  0
 23 49  1  0
 23 50  1  0
 23 51  1  0
 24 52  1  0
 24 53  1  0
 24 54  1  0
 25 55  1  0
 25 56  1  0
 25 57  1  0
 26 27  2  0
 26 58  1  0
 27 28  1  0
 28 29  1  0
 29 59  1  0
 29 60  1  0
 29 61  1  0
M  END

