
     RDKit          3D

 40 42  0  0  0  0  0  0  0  0999 V2000
    0.8829   -0.0411    0.3258 C   0  0  0  0  0  0  0  0  0  0  0  0
    2.3993   -0.1299    0.1097 C   0  0  1  0  0  0  0  0  0  0  0  0
    2.9970   -1.4144    0.7092 C   0  0  0  0  0  0  0  0  0  0  0  0
    2.5861   -2.6041   -0.0196 N   0  0  0  0  0  0  0  0  0  0  0  0
    3.0200   -3.8249    0.6537 C   0  0  0  0  0  0  0  0  0  0  0  0
    2.5119   -5.0791   -0.0544 C   0  0  0  0  0  0  0  0  0  0  0  0
    2.9475   -5.0812   -1.5216 C   0  0  0  0  0  0  0  0  0  0  0  0
    2.5149   -3.7779   -2.1968 C   0  0  0  0  0  0  0  0  0  0  0  0
    2.9969   -2.5417   -1.4282 C   0  0  1  0  0  0  0  0  0  0  0  0
    2.4475   -1.2648   -2.0758 C   0  0  0  0  0  0  0  0  0  0  0  0
    2.7740   -0.0646   -1.3109 N   0  0  0  0  0  0  0  0  0  0  0  0
    3.6481    0.8434   -1.8680 C   0  0  0  0  0  0  0  0  0  0  0  0
    4.1815    0.6619   -2.9539 O   0  0  0  0  0  0  0  0  0  0  0  0
    3.9336    2.1250   -1.1238 C   0  0  0  0  0  0  0  0  0  0  0  0
    2.9426    2.9732   -0.6126 C   0  0  0  0  0  0  0  0  0  0  0  0
    3.3206    4.1933   -0.0500 C   0  0  0  0  0  0  0  0  0  0  0  0
    4.6801    4.5170   -0.0111 C   0  0  0  0  0  0  0  0  0  0  0  0
    5.6360    3.7238   -0.5030 N   0  0  0  0  0  0  0  0  0  0  0  0
    5.2660    2.5700   -1.0570 C   0  0  0  0  0  0  0  0  0  0  0  0
    0.6613    0.0501    1.4009 H   0  0  0  0  0  0  0  0  0  0  0  0
    0.3739   -0.9438   -0.0405 H   0  0  0  0  0  0  0  0  0  0  0  0
    0.4572    0.8349   -0.1870 H   0  0  0  0  0  0  0  0  0  0  0  0
    2.8804    0.7143    0.6195 H   0  0  0  0  0  0  0  0  0  0  0  0
    2.6698   -1.5104    1.7576 H   0  0  0  0  0  0  0  0  0  0  0  0
    4.1076   -1.3102    0.7242 H   0  0  0  0  0  0  0  0  0  0  0  0
    2.6478   -3.7950    1.6914 H   0  0  0  0  0  0  0  0  0  0  0  0
    4.1341   -3.8689    0.7197 H   0  0  0  0  0  0  0  0  0  0  0  0
    1.4098   -5.1024    0.0062 H   0  0  0  0  0  0  0  0  0  0  0  0
    2.8856   -5.9739    0.4704 H   0  0  0  0  0  0  0  0  0  0  0  0
    2.5277   -5.9498   -2.0553 H   0  0  0  0  0  0  0  0  0  0  0  0
    4.0470   -5.1785   -1.5777 H   0  0  0  0  0  0  0  0  0  0  0  0
    1.4123   -3.7445   -2.2547 H   0  0  0  0  0  0  0  0  0  0  0  0
    2.8937   -3.7260   -3.2310 H   0  0  0  0  0  0  0  0  0  0  0  0
    4.1115   -2.4998   -1.4924 H   0  0  0  0  0  0  0  0  0  0  0  0
    1.3509   -1.3515   -2.1648 H   0  0  0  0  0  0  0  0  0  0  0  0
    2.8717   -1.1418   -3.0792 H   0  0  0  0  0  0  0  0  0  0  0  0
    1.8881    2.6935   -0.6705 H   0  0  0  0  0  0  0  0  0  0  0  0
    2.5750    4.8860    0.3474 H   0  0  0  0  0  0  0  0  0  0  0  0
    5.0091    5.4651    0.4311 H   0  0  0  0  0  0  0  0  0  0  0  0
    6.0578    1.9439   -1.4828 H   0  0  0  0  0  0  0  0  0  0  0  0
  1  2  1  0
  1 20  1  0
  1 21  1  0
  1 22  1  0
  2  3  1  0
  2 11  1  0
  2 23  1  1
  3  4  1  0
  3 24  1  0
  3 25  1  0
  4  5  1  0
  4  9  1  0
  5  6  1  0
  5 26  1  0
  5 27  1  0
  6  7  1  0
  6 28  1  0
  6 29  1  0
  7  8  1  0
  7 30  1  0
  7 31  1  0
  8  9  1  0
  8 32  1  0
  8 33  1  0
  9 10  1  0
  9 34  1  1
 10 11  1  0
 10 35  1  0
 10 36  1  0
 11 12  1  0
 12 13  2  0
 12 14  1  0
 14 15  2  0
 14 19  1  0
 15 16  1  0
 15 37  1  0
 16 17  2  0
 16 38  1  0
 17 18  1  0
 17 39  1  0
 18 19  2  0
 19 40  1  0
M  END

