
     RDKit          3D

 41 45  0  0  0  0  0  0  0  0999 V2000
    1.6600   -1.2036    2.7419 N   0  0  0  0  0  0  0  0  0  0  0  0
    2.7617   -1.2406    2.3748 C   0  0  0  0  0  0  0  0  0  0  0  0
    4.1220   -1.2847    1.9215 C   0  0  0  0  0  0  0  0  0  0  0  0
    4.9851   -2.3107    2.3494 C   0  0  0  0  0  0  0  0  0  0  0  0
    6.3017   -2.3438    1.9027 C   0  0  0  0  0  0  0  0  0  0  0  0
    6.8111   -1.3647    1.0219 C   0  0  0  0  0  0  0  0  0  0  0  0
    8.2094   -1.4539    0.5980 C   0  0  0  0  0  0  0  0  0  0  0  0
    8.8923   -0.5434   -0.1368 C   0  0  0  0  0  0  0  0  0  0  0  0
   10.2814   -0.6561   -0.5857 C   0  0  0  0  0  0  0  0  0  0  0  0
   10.9092   -1.9185   -0.6543 C   0  0  0  0  0  0  0  0  0  0  0  0
   12.2164   -2.0701   -1.0893 C   0  0  0  0  0  0  0  0  0  0  0  0
   12.9787   -0.9571   -1.4922 C   0  0  0  0  0  0  0  0  0  0  0  0
   14.3306   -1.0891   -1.9580 C   0  0  0  0  0  0  0  0  0  0  0  0
   15.0554   -0.0008   -2.3488 C   0  0  0  0  0  0  0  0  0  0  0  0
   14.4913    1.3205   -2.3065 C   0  0  0  0  0  0  0  0  0  0  0  0
   15.2204    2.4574   -2.7027 C   0  0  0  0  0  0  0  0  0  0  0  0
   14.6492    3.7295   -2.6490 C   0  0  0  0  0  0  0  0  0  0  0  0
   13.3392    3.8968   -2.1980 C   0  0  0  0  0  0  0  0  0  0  0  0
   12.5719    2.7891   -1.7926 C   0  0  0  0  0  0  0  0  0  0  0  0
   11.2243    2.9198   -1.3162 C   0  0  0  0  0  0  0  0  0  0  0  0
   10.4947    1.8334   -0.9281 C   0  0  0  0  0  0  0  0  0  0  0  0
   11.0280    0.4965   -0.9821 C   0  0  0  0  0  0  0  0  0  0  0  0
   12.3794    0.3405   -1.4397 C   0  0  0  0  0  0  0  0  0  0  0  0
   13.1449    1.4807   -1.8455 C   0  0  0  0  0  0  0  0  0  0  0  0
    5.9281   -0.3461    0.5968 C   0  0  0  0  0  0  0  0  0  0  0  0
    4.6119   -0.3017    1.0366 C   0  0  0  0  0  0  0  0  0  0  0  0
    4.6150   -3.0778    3.0322 H   0  0  0  0  0  0  0  0  0  0  0  0
    6.9616   -3.1455    2.2441 H   0  0  0  0  0  0  0  0  0  0  0  0
    8.7333   -2.3483    0.9492 H   0  0  0  0  0  0  0  0  0  0  0  0
    8.3663    0.3679   -0.4291 H   0  0  0  0  0  0  0  0  0  0  0  0
   10.3385   -2.8093   -0.3856 H   0  0  0  0  0  0  0  0  0  0  0  0
   12.6624   -3.0670   -1.1378 H   0  0  0  0  0  0  0  0  0  0  0  0
   14.7711   -2.0891   -1.9932 H   0  0  0  0  0  0  0  0  0  0  0  0
   16.0837   -0.1177   -2.7012 H   0  0  0  0  0  0  0  0  0  0  0  0
   16.2477    2.3320   -3.0552 H   0  0  0  0  0  0  0  0  0  0  0  0
   15.2318    4.6000   -2.9607 H   0  0  0  0  0  0  0  0  0  0  0  0
   12.8959    4.8952   -2.1547 H   0  0  0  0  0  0  0  0  0  0  0  0
   10.7856    3.9199   -1.2619 H   0  0  0  0  0  0  0  0  0  0  0  0
    9.4826    1.9922   -0.5560 H   0  0  0  0  0  0  0  0  0  0  0  0
    6.2738    0.4214   -0.0981 H   0  0  0  0  0  0  0  0  0  0  0  0
    3.9459    0.4932    0.6953 H   0  0  0  0  0  0  0  0  0  0  0  0
  1  2  3  0
  2  3  1  0
  3  4  2  0
  3 26  1  0
  4  5  1  0
  4 27  1  0
  5  6  2  0
  5 28  1  0
  6  7  1  0
  6 25  1  0
  7  8  2  0
  7 29  1  0
  8  9  1  0
  8 30  1  0
  9 10  2  0
  9 22  1  0
 10 11  1  0
 10 31  1  0
 11 12  2  0
 11 32  1  0
 12 13  1  0
 12 23  1  0
 13 14  2  0
 13 33  1  0
 14 15  1  0
 14 34  1  0
 15 16  2  0
 15 24  1  0
 16 17  1  0
 16 35  1  0
 17 18  2  0
 17 36  1  0
 18 19  1  0
 18 37  1  0
 19 20  2  0
 19 24  1  0
 20 21  1  0
 20 38  1  0
 21 22  2  0
 21 39  1  0
 22 23  1  0
 23 24  2  0
 25 26  2  0
 25 40  1  0
 26 41  1  0
M  END

