
     RDKit          3D

 71 76  0  0  0  0  0  0  0  0999 V2000
    8.8116    2.8412   -2.1855 C   0  0  0  0  0  0  0  0  0  0  0  0
    8.6347    4.0189   -2.9433 O   0  0  0  0  0  0  0  0  0  0  0  0
    7.3833    4.3492   -3.3663 C   0  0  0  0  0  0  0  0  0  0  0  0
    6.2514    3.5709   -3.1121 C   0  0  0  0  0  0  0  0  0  0  0  0
    4.9887    4.0049   -3.5396 C   0  0  0  0  0  0  0  0  0  0  0  0
    3.7486    3.1734   -3.1744 C   0  0  1  0  0  0  0  0  0  0  0  0
    4.0945    2.1576   -2.9449 H   0  0  0  0  0  0  0  0  0  0  0  0
    3.2094    3.7508   -1.8719 C   0  0  0  0  0  0  0  0  0  0  0  0
    2.3798    4.8325   -1.7668 C   0  0  0  0  0  0  0  0  0  0  0  0
    2.2389    5.6260   -0.4863 C   0  0  0  0  0  0  0  0  0  0  0  0
    2.3667    4.7349    0.7616 C   0  0  2  0  0  0  0  0  0  0  0  0
    1.5328    4.0136    0.7257 H   0  0  0  0  0  0  0  0  0  0  0  0
    2.2307    5.5185    2.0576 C   0  0  0  0  0  0  0  0  0  0  0  0
    1.1804    5.2402    2.9457 C   0  0  0  0  0  0  0  0  0  0  0  0
    1.0381    5.9496    4.1425 C   0  0  0  0  0  0  0  0  0  0  0  0
    1.9483    6.9565    4.4724 C   0  0  0  0  0  0  0  0  0  0  0  0
    3.0006    7.2459    3.5975 C   0  0  0  0  0  0  0  0  0  0  0  0
    3.1395    6.5334    2.4042 C   0  0  0  0  0  0  0  0  0  0  0  0
    3.6713    3.9360    0.6655 C   0  0  0  0  0  0  0  0  0  0  0  0
    3.8713    3.2132   -0.6620 C   0  0  0  0  0  0  0  0  0  0  0  0
    4.6024    2.2333   -0.7033 O   0  0  0  0  0  0  0  0  0  0  0  0
    1.6028    5.2882   -2.8227 N   0  0  0  0  0  0  0  0  0  0  0  0
    0.8418    4.4032   -3.6184 C   0  0  0  0  0  0  0  0  0  0  0  0
   -0.5374    4.6340   -3.7411 C   0  0  0  0  0  0  0  0  0  0  0  0
   -1.3666    3.7401   -4.4160 C   0  0  0  0  0  0  0  0  0  0  0  0
   -0.8206    2.5634   -4.9352 C   0  0  0  0  0  0  0  0  0  0  0  0
    0.5486    2.3295   -4.8223 C   0  0  0  0  0  0  0  0  0  0  0  0
    1.4181    3.2653   -4.2264 C   0  0  0  0  0  0  0  0  0  0  0  0
    2.8158    3.0768   -4.3166 N   0  0  0  0  0  0  0  0  0  0  0  0
    3.3869    2.4977   -5.4631 C   0  0  0  0  0  0  0  0  0  0  0  0
    4.4307    1.8741   -5.3879 O   0  0  0  0  0  0  0  0  0  0  0  0
    2.7396    2.7652   -6.7918 C   0  0  1  0  0  0  0  0  0  0  0  0
    3.6798    2.8348   -7.9828 C   0  0  0  0  0  0  0  0  0  0  0  0
    2.7754    1.6571   -7.8290 C   0  0  0  0  0  0  0  0  0  0  0  0
    4.8756    5.2095   -4.2298 C   0  0  0  0  0  0  0  0  0  0  0  0
    6.0080    5.9936   -4.5112 C   0  0  0  0  0  0  0  0  0  0  0  0
    5.7524    7.1670   -5.1529 O   0  0  0  0  0  0  0  0  0  0  0  0
    6.6916    7.7681   -6.0244 C   0  0  0  0  0  0  0  0  0  0  0  0
    7.2808    5.5726   -4.0762 C   0  0  0  0  0  0  0  0  0  0  0  0
    8.3750    6.3772   -4.2613 O   0  0  0  0  0  0  0  0  0  0  0  0
    9.4331    5.8792   -5.0677 C   0  0  0  0  0  0  0  0  0  0  0  0
    9.8785    2.7950   -1.9274 H   0  0  0  0  0  0  0  0  0  0  0  0
    8.5407    1.9375   -2.7597 H   0  0  0  0  0  0  0  0  0  0  0  0
    8.2151    2.8588   -1.2565 H   0  0  0  0  0  0  0  0  0  0  0  0
    6.3287    2.6318   -2.5687 H   0  0  0  0  0  0  0  0  0  0  0  0
    1.2678    6.1478   -0.4713 H   0  0  0  0  0  0  0  0  0  0  0  0
    3.0181    6.4105   -0.4671 H   0  0  0  0  0  0  0  0  0  0  0  0
    0.4631    4.4527    2.6965 H   0  0  0  0  0  0  0  0  0  0  0  0
    0.2126    5.7127    4.8188 H   0  0  0  0  0  0  0  0  0  0  0  0
    1.8405    7.5128    5.4069 H   0  0  0  0  0  0  0  0  0  0  0  0
    3.7197    8.0306    3.8467 H   0  0  0  0  0  0  0  0  0  0  0  0
    3.9727    6.7735    1.7376 H   0  0  0  0  0  0  0  0  0  0  0  0
    3.7571    3.1900    1.4691 H   0  0  0  0  0  0  0  0  0  0  0  0
    4.5383    4.6135    0.7767 H   0  0  0  0  0  0  0  0  0  0  0  0
    1.1043    6.1464   -2.6150 H   0  0  0  0  0  0  0  0  0  0  0  0
   -0.9621    5.5287   -3.2762 H   0  0  0  0  0  0  0  0  0  0  0  0
   -2.4362    3.9453   -4.5001 H   0  0  0  0  0  0  0  0  0  0  0  0
   -1.4588    1.8223   -5.4217 H   0  0  0  0  0  0  0  0  0  0  0  0
    0.9730    1.4085   -5.2240 H   0  0  0  0  0  0  0  0  0  0  0  0
    1.8791    3.4340   -6.8043 H   0  0  0  0  0  0  0  0  0  0  0  0
    4.7399    2.6879   -7.7647 H   0  0  0  0  0  0  0  0  0  0  0  0
    3.4500    3.5812   -8.7480 H   0  0  0  0  0  0  0  0  0  0  0  0
    3.2321    0.7163   -7.5096 H   0  0  0  0  0  0  0  0  0  0  0  0
    1.9092    1.5583   -8.4892 H   0  0  0  0  0  0  0  0  0  0  0  0
    3.9121    5.5773   -4.5831 H   0  0  0  0  0  0  0  0  0  0  0  0
    6.1252    8.4942   -6.6269 H   0  0  0  0  0  0  0  0  0  0  0  0
    7.1474    7.0278   -6.7058 H   0  0  0  0  0  0  0  0  0  0  0  0
    7.4922    8.2895   -5.4799 H   0  0  0  0  0  0  0  0  0  0  0  0
   10.1649    6.6944   -5.1645 H   0  0  0  0  0  0  0  0  0  0  0  0
    9.0731    5.6009   -6.0758 H   0  0  0  0  0  0  0  0  0  0  0  0
    9.9193    5.0064   -4.6078 H   0  0  0  0  0  0  0  0  0  0  0  0
  1  2  1  0
  1 42  1  0
  1 43  1  0
  1 44  1  0
  2  3  1  0
  3  4  2  0
  3 39  1  0
  4  5  1  0
  4 45  1  0
  5  6  1  0
  5 35  2  0
  6  7  1  1
  6  8  1  0
  6 29  1  0
  8  9  2  0
  8 20  1  0
  9 10  1  0
  9 22  1  0
 10 11  1  0
 10 46  1  0
 10 47  1  0
 11 12  1  6
 11 13  1  0
 11 19  1  0
 13 14  2  0
 13 18  1  0
 14 15  1  0
 14 48  1  0
 15 16  2  0
 15 49  1  0
 16 17  1  0
 16 50  1  0
 17 18  2  0
 17 51  1  0
 18 52  1  0
 19 20  1  0
 19 53  1  0
 19 54  1  0
 20 21  2  0
 22 23  1  0
 22 55  1  0
 23 24  1  0
 23 28  2  0
 24 25  2  0
 24 56  1  0
 25 26  1  0
 25 57  1  0
 26 27  2  0
 26 58  1  0
 27 28  1  0
 27 59  1  0
 28 29  1  0
 29 30  1  0
 30 31  2  0
 30 32  1  0
 32 33  1  0
 32 34  1  0
 32 60  1  1
 33 34  1  0
 33 61  1  0
 33 62  1  0
 34 63  1  0
 34 64  1  0
 35 36  1  0
 35 65  1  0
 36 37  1  0
 36 39  2  0
 37 38  1  0
 38 66  1  0
 38 67  1  0
 38 68  1  0
 39 40  1  0
 40 41  1  0
 41 69  1  0
 41 70  1  0
 41 71  1  0
M  END

