
     RDKit          3D

 36 38  0  0  0  0  0  0  0  0999 V2000
    0.9184   -1.6741    0.1735 C   0  0  0  0  0  0  0  0  0  0  0  0
    2.3669   -2.1301    0.0855 C   0  0  0  0  0  0  0  0  0  0  0  0
    2.6729   -3.2866   -0.1202 O   0  0  0  0  0  0  0  0  0  0  0  0
    3.2901   -1.1159    0.2769 N   0  0  0  0  0  0  0  0  0  0  0  0
    4.6941   -1.2147    0.3038 C   0  0  0  0  0  0  0  0  0  0  0  0
    5.4121   -2.3803    0.2982 C   0  0  0  0  0  0  0  0  0  0  0  0
    6.9031   -2.4811    0.3514 C   0  0  0  0  0  0  0  0  0  0  0  0
    7.5192   -3.6142    0.3500 N   0  0  0  0  0  0  0  0  0  0  0  0
    7.5970   -1.1903    0.4090 C   0  0  0  0  0  0  0  0  0  0  0  0
    8.9136   -0.8440    0.4266 N   0  0  0  0  0  0  0  0  0  0  0  0
    8.9849    0.5025    0.4394 C   0  0  0  0  0  0  0  0  0  0  0  0
    7.6943    1.1044    0.4191 C   0  0  0  0  0  0  0  0  0  0  0  0
    7.0806    2.3653    0.3872 C   0  0  0  0  0  0  0  0  0  0  0  0
    5.6843    2.4451    0.3465 C   0  0  0  0  0  0  0  0  0  0  0  0
    4.9952    3.7545    0.3900 C   0  0  0  0  0  0  0  0  0  0  0  0
    5.6076    4.7935    0.2092 O   0  0  0  0  0  0  0  0  0  0  0  0
    3.4975    3.8217    0.7512 C   0  0  0  0  0  0  0  0  0  0  0  0
    2.4923    3.5042   -0.3550 C   0  0  0  0  0  0  0  0  0  0  0  0
    2.3892    2.0824   -0.5303 O   0  0  0  0  0  0  0  0  0  0  0  0
    4.9039    1.2880    0.3132 N   0  0  0  0  0  0  0  0  0  0  0  0
    3.9178    1.4179    0.0516 H   0  0  0  0  0  0  0  0  0  0  0  0
    5.4400    0.0494    0.3417 C   0  0  0  0  0  0  0  0  0  0  0  0
    6.8142   -0.0378    0.4084 C   0  0  0  0  0  0  0  0  0  0  0  0
    0.3476   -2.1734   -0.6217 H   0  0  0  0  0  0  0  0  0  0  0  0
    0.7915   -0.5840    0.0919 H   0  0  0  0  0  0  0  0  0  0  0  0
    0.4969   -2.0072    1.1358 H   0  0  0  0  0  0  0  0  0  0  0  0
    2.8956   -0.2089    0.4969 H   0  0  0  0  0  0  0  0  0  0  0  0
    4.8612   -3.3187    0.2565 H   0  0  0  0  0  0  0  0  0  0  0  0
    6.8396   -4.3822    0.2979 H   0  0  0  0  0  0  0  0  0  0  0  0
    9.9509    1.0105    0.4549 H   0  0  0  0  0  0  0  0  0  0  0  0
    7.6269    3.3104    0.4039 H   0  0  0  0  0  0  0  0  0  0  0  0
    3.3361    4.8649    1.0582 H   0  0  0  0  0  0  0  0  0  0  0  0
    3.2761    3.1807    1.6225 H   0  0  0  0  0  0  0  0  0  0  0  0
    2.7986    3.9887   -1.2988 H   0  0  0  0  0  0  0  0  0  0  0  0
    1.5045    3.9077   -0.0716 H   0  0  0  0  0  0  0  0  0  0  0  0
    2.0154    1.8876   -1.4004 H   0  0  0  0  0  0  0  0  0  0  0  0
  1  2  1  0
  1 24  1  0
  1 25  1  0
  1 26  1  0
  2  3  2  0
  2  4  1  0
  4  5  1  0
  4 27  1  0
  5  6  2  0
  5 22  1  0
  6  7  1  0
  6 28  1  0
  7  8  2  0
  7  9  1  0
  8 29  1  0
  9 10  2  0
  9 23  1  0
 10 11  1  0
 11 12  2  0
 11 30  1  0
 12 13  1  0
 12 23  1  0
 13 14  2  0
 13 31  1  0
 14 15  1  0
 14 20  1  0
 15 16  2  0
 15 17  1  0
 17 18  1  0
 17 32  1  0
 17 33  1  0
 18 19  1  0
 18 34  1  0
 18 35  1  0
 19 36  1  0
 20 21  1  0
 20 22  1  0
 22 23  2  0
M  END

