
     RDKit          3D

 35 36  0  0  0  0  0  0  0  0999 V2000
    1.0271    0.2405   -0.6804 C   0  0  0  0  0  0  0  0  0  0  0  0
    2.4188    0.0518   -0.1113 C   0  0  0  0  0  0  0  0  0  0  0  0
    3.0906    1.1322    0.5175 C   0  0  0  0  0  0  0  0  0  0  0  0
    2.4778    2.5155    0.6480 C   0  0  0  0  0  0  0  0  0  0  0  0
    2.3726    3.3343   -0.6337 C   0  0  0  0  0  0  0  0  0  0  0  0
    3.3511    3.2560   -1.6372 C   0  0  0  0  0  0  0  0  0  0  0  0
    3.2675    4.0498   -2.7848 C   0  0  0  0  0  0  0  0  0  0  0  0
    2.2000    4.9368   -2.9539 C   0  0  0  0  0  0  0  0  0  0  0  0
    1.2165    5.0221   -1.9644 C   0  0  0  0  0  0  0  0  0  0  0  0
    1.3044    4.2269   -0.8182 C   0  0  0  0  0  0  0  0  0  0  0  0
    4.3717    0.9101    1.0332 C   0  0  0  0  0  0  0  0  0  0  0  0
    4.9969   -0.3324    0.9534 C   0  0  0  0  0  0  0  0  0  0  0  0
    4.3387   -1.4064    0.3359 C   0  0  0  0  0  0  0  0  0  0  0  0
    4.9491   -2.6536    0.2173 N   0  0  0  0  0  0  0  0  0  0  0  0
    6.1013   -2.9975    0.9221 N   0  0  0  0  0  0  0  0  0  0  0  0
    3.0418   -1.2089   -0.2112 C   0  0  0  0  0  0  0  0  0  0  0  0
    2.3812   -2.3837   -0.8956 C   0  0  0  0  0  0  0  0  0  0  0  0
    0.6203    1.2346   -0.4647 H   0  0  0  0  0  0  0  0  0  0  0  0
    0.3190   -0.5007   -0.2755 H   0  0  0  0  0  0  0  0  0  0  0  0
    1.0196    0.1278   -1.7776 H   0  0  0  0  0  0  0  0  0  0  0  0
    3.0910    3.0881    1.3660 H   0  0  0  0  0  0  0  0  0  0  0  0
    1.4773    2.4575    1.1083 H   0  0  0  0  0  0  0  0  0  0  0  0
    4.1857    2.5606   -1.5181 H   0  0  0  0  0  0  0  0  0  0  0  0
    4.0411    3.9725   -3.5537 H   0  0  0  0  0  0  0  0  0  0  0  0
    2.1331    5.5549   -3.8530 H   0  0  0  0  0  0  0  0  0  0  0  0
    0.3738    5.7082   -2.0861 H   0  0  0  0  0  0  0  0  0  0  0  0
    0.5279    4.3000   -0.0503 H   0  0  0  0  0  0  0  0  0  0  0  0
    4.8997    1.7355    1.5201 H   0  0  0  0  0  0  0  0  0  0  0  0
    5.9969   -0.4661    1.3671 H   0  0  0  0  0  0  0  0  0  0  0  0
    4.3401   -3.4466    0.0626 H   0  0  0  0  0  0  0  0  0  0  0  0
    6.0495   -2.6874    1.8977 H   0  0  0  0  0  0  0  0  0  0  0  0
    6.9151   -2.5476    0.5014 H   0  0  0  0  0  0  0  0  0  0  0  0
    2.1362   -3.1927   -0.1808 H   0  0  0  0  0  0  0  0  0  0  0  0
    3.0497   -2.8240   -1.6559 H   0  0  0  0  0  0  0  0  0  0  0  0
    1.4476   -2.1128   -1.4007 H   0  0  0  0  0  0  0  0  0  0  0  0
  1  2  1  0
  1 18  1  0
  1 19  1  0
  1 20  1  0
  2  3  2  0
  2 16  1  0
  3  4  1  0
  3 11  1  0
  4  5  1  0
  4 21  1  0
  4 22  1  0
  5  6  2  0
  5 10  1  0
  6  7  1  0
  6 23  1  0
  7  8  2  0
  7 24  1  0
  8  9  1  0
  8 25  1  0
  9 10  2  0
  9 26  1  0
 10 27  1  0
 11 12  2  0
 11 28  1  0
 12 13  1  0
 12 29  1  0
 13 14  1  0
 13 16  2  0
 14 15  1  0
 14 30  1  0
 15 31  1  0
 15 32  1  0
 16 17  1  0
 17 33  1  0
 17 34  1  0
 17 35  1  0
M  END

