
     RDKit          3D

 44 45  0  0  0  0  0  0  0  0999 V2000
    1.4241   -1.8928    0.5381 C   0  0  0  0  0  0  0  0  0  0  0  0
    2.7352   -1.1859    0.1914 C   0  0  0  0  0  0  0  0  0  0  0  0
    2.6001    0.3401    0.1471 C   0  0  0  0  0  0  0  0  0  0  0  0
    3.9178    1.0759   -0.1544 C   0  0  1  0  0  0  0  0  0  0  0  0
    4.5218    0.7396   -1.5343 C   0  0  0  0  0  0  0  0  0  0  0  0
    3.6745    0.7930   -2.5820 N   0  0  0  0  0  0  0  0  0  0  0  0
    6.1351    0.4040   -1.7245 S   0  0  0  0  0  0  0  0  0  0  0  0
    3.8082    2.5200    0.0824 N   0  0  0  0  0  0  0  0  0  0  0  0
    2.9038    3.2980   -0.7537 C   0  0  0  0  0  0  0  0  0  0  0  0
    2.6340    4.6598   -0.1183 C   0  0  0  0  0  0  0  0  0  0  0  0
    3.8787    5.3688    0.1489 N   0  0  0  0  0  0  0  0  0  0  0  0
    3.8997    6.7565    0.1145 C   0  0  0  0  0  0  0  0  0  0  0  0
    4.9538    7.5250    0.6754 C   0  0  0  0  0  0  0  0  0  0  0  0
    4.9149    8.9069    0.5491 C   0  0  0  0  0  0  0  0  0  0  0  0
    3.8496    9.5448   -0.1094 C   0  0  0  0  0  0  0  0  0  0  0  0
    3.7754   11.0417   -0.2647 C   0  0  0  0  0  0  0  0  0  0  0  0
    2.8564    8.6917   -0.6017 C   0  0  0  0  0  0  0  0  0  0  0  0
    2.8718    7.3640   -0.4961 N   0  0  0  0  0  0  0  0  0  0  0  0
    4.8441    4.5932    0.9084 C   0  0  0  0  0  0  0  0  0  0  0  0
    5.0709    3.2225    0.2667 C   0  0  0  0  0  0  0  0  0  0  0  0
    1.5534   -2.9861    0.5714 H   0  0  0  0  0  0  0  0  0  0  0  0
    0.6391   -1.6745   -0.2059 H   0  0  0  0  0  0  0  0  0  0  0  0
    1.0421   -1.5721    1.5217 H   0  0  0  0  0  0  0  0  0  0  0  0
    3.1079   -1.5561   -0.7794 H   0  0  0  0  0  0  0  0  0  0  0  0
    3.5094   -1.4572    0.9305 H   0  0  0  0  0  0  0  0  0  0  0  0
    2.2455    0.7175    1.1210 H   0  0  0  0  0  0  0  0  0  0  0  0
    1.8101    0.6106   -0.5783 H   0  0  0  0  0  0  0  0  0  0  0  0
    4.6634    0.7130    0.5669 H   0  0  0  0  0  0  0  0  0  0  0  0
    2.6833    0.9682   -2.4696 H   0  0  0  0  0  0  0  0  0  0  0  0
    4.0405    0.6312   -3.5142 H   0  0  0  0  0  0  0  0  0  0  0  0
    1.9403    2.7738   -0.8503 H   0  0  0  0  0  0  0  0  0  0  0  0
    3.3083    3.4537   -1.7783 H   0  0  0  0  0  0  0  0  0  0  0  0
    2.0716    4.5068    0.8263 H   0  0  0  0  0  0  0  0  0  0  0  0
    2.0213    5.2828   -0.7794 H   0  0  0  0  0  0  0  0  0  0  0  0
    5.7831    7.0601    1.2062 H   0  0  0  0  0  0  0  0  0  0  0  0
    5.7261    9.5032    0.9792 H   0  0  0  0  0  0  0  0  0  0  0  0
    3.7968   11.5553    0.7117 H   0  0  0  0  0  0  0  0  0  0  0  0
    2.8497   11.3436   -0.7781 H   0  0  0  0  0  0  0  0  0  0  0  0
    4.6234   11.4336   -0.8524 H   0  0  0  0  0  0  0  0  0  0  0  0
    1.9847    9.1193   -1.1156 H   0  0  0  0  0  0  0  0  0  0  0  0
    4.5049    4.4574    1.9571 H   0  0  0  0  0  0  0  0  0  0  0  0
    5.8098    5.1137    0.9340 H   0  0  0  0  0  0  0  0  0  0  0  0
    5.7249    2.6235    0.9190 H   0  0  0  0  0  0  0  0  0  0  0  0
    5.6157    3.3618   -0.6915 H   0  0  0  0  0  0  0  0  0  0  0  0
  1  2  1  0
  1 21  1  0
  1 22  1  0
  1 23  1  0
  2  3  1  0
  2 24  1  0
  2 25  1  0
  3  4  1  0
  3 26  1  0
  3 27  1  0
  4  5  1  0
  4  8  1  0
  4 28  1  1
  5  6  1  0
  5  7  2  0
  6 29  1  0
  6 30  1  0
  8  9  1  0
  8 20  1  0
  9 10  1  0
  9 31  1  0
  9 32  1  0
 10 11  1  0
 10 33  1  0
 10 34  1  0
 11 12  1  0
 11 19  1  0
 12 13  2  0
 12 18  1  0
 13 14  1  0
 13 35  1  0
 14 15  2  0
 14 36  1  0
 15 16  1  0
 15 17  1  0
 16 37  1  0
 16 38  1  0
 16 39  1  0
 17 18  2  0
 17 40  1  0
 19 20  1  0
 19 41  1  0
 19 42  1  0
 20 43  1  0
 20 44  1  0
M  END

