
     RDKit          3D

 34 37  0  0  0  0  0  0  0  0999 V2000
    0.9157    0.0930    0.0847 C   0  0  0  0  0  0  0  0  0  0  0  0
    2.4048    0.2030    0.0886 C   0  0  0  0  0  0  0  0  0  0  0  0
    3.2326   -0.8759    0.0937 N   0  0  0  0  0  0  0  0  0  0  0  0
    2.9301   -1.8450    0.0952 H   0  0  0  0  0  0  0  0  0  0  0  0
    4.5432   -0.6225    0.0968 N   0  0  0  0  0  0  0  0  0  0  0  0
    4.5971    0.7220    0.0936 C   0  0  0  0  0  0  0  0  0  0  0  0
    5.7373    1.4494    0.0951 N   0  0  0  0  0  0  0  0  0  0  0  0
    5.6089    2.7550    0.0914 C   0  0  0  0  0  0  0  0  0  0  0  0
    4.3376    3.4479    0.0860 C   0  0  0  0  0  0  0  0  0  0  0  0
    4.2537    4.8494    0.0820 N   0  0  0  0  0  0  0  0  0  0  0  0
    5.2498    5.7913    0.0838 C   0  0  0  0  0  0  0  0  0  0  0  0
    6.4501    5.5719    0.0892 O   0  0  0  0  0  0  0  0  0  0  0  0
    4.7085    7.1900    0.0783 C   0  0  0  0  0  0  0  0  0  0  0  0
    5.5159    8.3019    0.0792 C   0  0  0  0  0  0  0  0  0  0  0  0
    4.5521    9.7297    0.0724 S   0  0  0  0  0  0  0  0  0  0  0  0
    3.1085    8.7207    0.0679 C   0  0  0  0  0  0  0  0  0  0  0  0
    1.7830    9.2982    0.0607 C   0  0  0  0  0  0  0  0  0  0  0  0
    0.5269    8.7372    0.0551 C   0  0  0  0  0  0  0  0  0  0  0  0
   -0.3937    9.8295    0.0491 C   0  0  0  0  0  0  0  0  0  0  0  0
    0.3659   10.9679    0.0515 C   0  0  0  0  0  0  0  0  0  0  0  0
    1.6842   10.6559    0.0585 O   0  0  0  0  0  0  0  0  0  0  0  0
    3.3608    7.4370    0.0719 N   0  0  0  0  0  0  0  0  0  0  0  0
    3.1632    2.7111    0.0845 C   0  0  0  0  0  0  0  0  0  0  0  0
    3.2783    1.3028    0.0884 C   0  0  0  0  0  0  0  0  0  0  0  0
    0.5940   -0.9601    0.0856 H   0  0  0  0  0  0  0  0  0  0  0  0
    0.4756    0.5731   -0.8054 H   0  0  0  0  0  0  0  0  0  0  0  0
    0.4707    0.5761    0.9707 H   0  0  0  0  0  0  0  0  0  0  0  0
    6.5176    3.3601    0.0926 H   0  0  0  0  0  0  0  0  0  0  0  0
    3.3178    5.2495    0.0773 H   0  0  0  0  0  0  0  0  0  0  0  0
    6.6035    8.3212    0.0838 H   0  0  0  0  0  0  0  0  0  0  0  0
    0.3077    7.6728    0.0554 H   0  0  0  0  0  0  0  0  0  0  0  0
   -1.4803    9.7777    0.0437 H   0  0  0  0  0  0  0  0  0  0  0  0
    0.1250   12.0275    0.0489 H   0  0  0  0  0  0  0  0  0  0  0  0
    2.1887    3.2094    0.0805 H   0  0  0  0  0  0  0  0  0  0  0  0
  1  2  1  0
  1 25  1  0
  1 26  1  0
  1 27  1  0
  2  3  1  0
  2 24  2  0
  3  4  1  0
  3  5  1  0
  5  6  2  0
  6  7  1  0
  6 24  1  0
  7  8  2  0
  8  9  1  0
  8 28  1  0
  9 10  1  0
  9 23  2  0
 10 11  1  0
 10 29  1  0
 11 12  2  0
 11 13  1  0
 13 14  2  0
 13 22  1  0
 14 15  1  0
 14 30  1  0
 15 16  1  0
 16 17  1  0
 16 22  2  0
 17 18  2  0
 17 21  1  0
 18 19  1  0
 18 31  1  0
 19 20  2  0
 19 32  1  0
 20 21  1  0
 20 33  1  0
 23 24  1  0
 23 34  1  0
M  END

