
     RDKit          3D

 42 44  0  0  0  0  0  0  0  0999 V2000
    1.3671   -1.0773    0.6117 C   0  0  0  0  0  0  0  0  0  0  0  0
    2.7289   -0.5620    0.2270 C   0  0  0  0  0  0  0  0  0  0  0  0
    2.8083    0.6582   -0.3041 N   0  0  0  0  0  0  0  0  0  0  0  0
    4.0358    1.1401   -0.5635 C   0  0  0  0  0  0  0  0  0  0  0  0
    4.0919    2.5500   -1.0979 C   0  0  0  0  0  0  0  0  0  0  0  0
    5.2042    0.3980   -0.3236 C   0  0  0  0  0  0  0  0  0  0  0  0
    6.5693    1.0289   -0.4405 C   0  0  0  0  0  0  0  0  0  0  0  0
    4.9962   -0.9376    0.1252 C   0  0  0  0  0  0  0  0  0  0  0  0
    6.0496   -1.8270    0.3300 N   0  0  0  0  0  0  0  0  0  0  0  0
    5.8324   -3.0127    1.1611 C   0  0  0  0  0  0  0  0  0  0  0  0
    5.5245   -4.2657    0.3373 C   0  0  0  0  0  0  0  0  0  0  0  0
    6.5735   -4.4644   -0.6631 N   0  0  0  0  0  0  0  0  0  0  0  0
    7.0138   -5.7486   -0.9070 C   0  0  0  0  0  0  0  0  0  0  0  0
    6.4921   -6.7223   -0.3804 O   0  0  0  0  0  0  0  0  0  0  0  0
    8.1901   -5.9397   -1.8084 C   0  0  0  0  0  0  0  0  0  0  0  0
    9.3528   -5.2127   -1.9753 C   0  0  0  0  0  0  0  0  0  0  0  0
   10.2874   -5.8456   -2.8439 C   0  0  0  0  0  0  0  0  0  0  0  0
    9.8219   -7.0470   -3.3240 C   0  0  0  0  0  0  0  0  0  0  0  0
    8.2618   -7.4319   -2.7026 S   0  0  0  0  0  0  0  0  0  0  0  0
    6.7596   -3.3040   -1.5250 C   0  0  0  0  0  0  0  0  0  0  0  0
    7.0689   -2.0499   -0.6932 C   0  0  0  0  0  0  0  0  0  0  0  0
    3.7677   -1.3757    0.4295 N   0  0  0  0  0  0  0  0  0  0  0  0
    0.5964   -0.3380    0.3607 H   0  0  0  0  0  0  0  0  0  0  0  0
    1.3324   -1.2901    1.6927 H   0  0  0  0  0  0  0  0  0  0  0  0
    1.1537   -2.0256    0.0935 H   0  0  0  0  0  0  0  0  0  0  0  0
    3.0752    2.8761   -1.3510 H   0  0  0  0  0  0  0  0  0  0  0  0
    4.7344    2.6307   -1.9891 H   0  0  0  0  0  0  0  0  0  0  0  0
    4.4976    3.2460   -0.3431 H   0  0  0  0  0  0  0  0  0  0  0  0
    6.5364    2.0884   -0.1467 H   0  0  0  0  0  0  0  0  0  0  0  0
    6.9795    1.0016   -1.4663 H   0  0  0  0  0  0  0  0  0  0  0  0
    7.2904    0.5252    0.2194 H   0  0  0  0  0  0  0  0  0  0  0  0
    5.0069   -2.8122    1.8527 H   0  0  0  0  0  0  0  0  0  0  0  0
    6.7544   -3.1863    1.7453 H   0  0  0  0  0  0  0  0  0  0  0  0
    4.5429   -4.1460   -0.1565 H   0  0  0  0  0  0  0  0  0  0  0  0
    5.4794   -5.1612    0.9690 H   0  0  0  0  0  0  0  0  0  0  0  0
    9.5517   -4.2708   -1.4627 H   0  0  0  0  0  0  0  0  0  0  0  0
   11.2642   -5.4305   -3.0973 H   0  0  0  0  0  0  0  0  0  0  0  0
   10.3211   -7.7305   -4.0101 H   0  0  0  0  0  0  0  0  0  0  0  0
    5.8275   -3.1244   -2.0974 H   0  0  0  0  0  0  0  0  0  0  0  0
    7.5588   -3.4878   -2.2512 H   0  0  0  0  0  0  0  0  0  0  0  0
    7.1316   -1.1881   -1.3663 H   0  0  0  0  0  0  0  0  0  0  0  0
    8.0543   -2.1702   -0.2063 H   0  0  0  0  0  0  0  0  0  0  0  0
  1  2  1  0
  1 23  1  0
  1 24  1  0
  1 25  1  0
  2  3  2  0
  2 22  1  0
  3  4  1  0
  4  5  1  0
  4  6  2  0
  5 26  1  0
  5 27  1  0
  5 28  1  0
  6  7  1  0
  6  8  1  0
  7 29  1  0
  7 30  1  0
  7 31  1  0
  8  9  1  0
  8 22  2  0
  9 10  1  0
  9 21  1  0
 10 11  1  0
 10 32  1  0
 10 33  1  0
 11 12  1  0
 11 34  1  0
 11 35  1  0
 12 13  1  0
 12 20  1  0
 13 14  2  0
 13 15  1  0
 15 16  2  0
 15 19  1  0
 16 17  1  0
 16 36  1  0
 17 18  2  0
 17 37  1  0
 18 19  1  0
 18 38  1  0
 20 21  1  0
 20 39  1  0
 20 40  1  0
 21 41  1  0
 21 42  1  0
M  END

