
     RDKit          3D

 32 33  0  0  0  0  0  0  0  0999 V2000
    0.8625    0.1778    0.2471 C   0  0  0  0  0  0  0  0  0  0  0  0
    2.3711    0.0031    0.0125 C   0  0  1  0  0  0  0  0  0  0  0  0
    2.7043   -1.3426   -0.4521 N   0  0  0  0  0  0  0  0  0  0  0  0
    2.4048   -2.4334    0.4611 C   0  0  0  0  0  0  0  0  0  0  0  0
    2.9059   -3.7631   -0.1018 C   0  0  0  0  0  0  0  0  0  0  0  0
    2.5490   -4.9562    0.7905 C   0  0  0  0  0  0  0  0  0  0  0  0
    3.0359   -6.2287    0.2811 N   0  0  0  0  0  0  0  0  0  0  0  0
    4.3099   -6.7427    0.4160 C   0  0  0  0  0  0  0  0  0  0  0  0
    4.3090   -7.9272   -0.2885 C   0  0  0  0  0  0  0  0  0  0  0  0
    3.0777   -8.1493   -0.8504 N   0  0  0  0  0  0  0  0  0  0  0  0
    2.3440   -7.1191   -0.4964 C   0  0  0  0  0  0  0  0  0  0  0  0
    2.8592    1.0174   -0.9978 C   0  0  0  0  0  0  0  0  0  0  0  0
    3.1385    0.7718   -2.3206 C   0  0  0  0  0  0  0  0  0  0  0  0
    3.6222    2.2353   -3.1064 S   0  0  0  0  0  0  0  0  0  0  0  0
    3.4065    3.0728   -1.5929 C   0  0  0  0  0  0  0  0  0  0  0  0
    3.0151    2.3269   -0.6048 N   0  0  0  0  0  0  0  0  0  0  0  0
    0.5058   -0.4349    1.0892 H   0  0  0  0  0  0  0  0  0  0  0  0
    0.3024   -0.1039   -0.6584 H   0  0  0  0  0  0  0  0  0  0  0  0
    0.6476    1.2297    0.4848 H   0  0  0  0  0  0  0  0  0  0  0  0
    2.8808    0.2513    0.9709 H   0  0  0  0  0  0  0  0  0  0  0  0
    3.6984   -1.3661   -0.6808 H   0  0  0  0  0  0  0  0  0  0  0  0
    1.3124   -2.4937    0.6027 H   0  0  0  0  0  0  0  0  0  0  0  0
    2.8353   -2.2750    1.4784 H   0  0  0  0  0  0  0  0  0  0  0  0
    4.0030   -3.7263   -0.2278 H   0  0  0  0  0  0  0  0  0  0  0  0
    2.4799   -3.9108   -1.1075 H   0  0  0  0  0  0  0  0  0  0  0  0
    1.4553   -5.0360    0.8979 H   0  0  0  0  0  0  0  0  0  0  0  0
    2.9552   -4.8126    1.8052 H   0  0  0  0  0  0  0  0  0  0  0  0
    5.0779   -6.2353    0.9955 H   0  0  0  0  0  0  0  0  0  0  0  0
    5.1321   -8.6311   -0.4101 H   0  0  0  0  0  0  0  0  0  0  0  0
    1.2977   -6.9549   -0.7598 H   0  0  0  0  0  0  0  0  0  0  0  0
    3.0677   -0.1755   -2.8496 H   0  0  0  0  0  0  0  0  0  0  0  0
    3.5995    4.1457   -1.5170 H   0  0  0  0  0  0  0  0  0  0  0  0
  1  2  1  0
  1 17  1  0
  1 18  1  0
  1 19  1  0
  2  3  1  0
  2 12  1  0
  2 20  1  1
  3  4  1  0
  3 21  1  0
  4  5  1  0
  4 22  1  0
  4 23  1  0
  5  6  1  0
  5 24  1  0
  5 25  1  0
  6  7  1  0
  6 26  1  0
  6 27  1  0
  7  8  1  0
  7 11  1  0
  8  9  2  0
  8 28  1  0
  9 10  1  0
  9 29  1  0
 10 11  2  0
 11 30  1  0
 12 13  2  0
 12 16  1  0
 13 14  1  0
 13 31  1  0
 14 15  1  0
 15 16  2  0
 15 32  1  0
M  END

