
     RDKit          3D

 30 31  0  0  0  0  0  0  0  0999 V2000
    1.9745    1.5527    1.2859 O   0  0  0  0  0  0  0  0  0  0  0  0
    2.7848    0.9112    0.6411 C   0  0  0  0  0  0  0  0  0  0  0  0
    2.9937    0.9873   -0.6930 N   0  0  0  0  0  0  0  0  0  0  0  0
    2.2611    1.9162   -1.5242 C   0  0  0  0  0  0  0  0  0  0  0  0
    3.2039    2.9250   -2.2090 C   0  0  1  0  0  0  0  0  0  0  0  0
    4.2104    2.2578   -2.9485 O   0  0  0  0  0  0  0  0  0  0  0  0
    2.4328    3.9448   -3.0333 C   0  0  0  0  0  0  0  0  0  0  0  0
    2.2502    5.2660   -2.5997 C   0  0  0  0  0  0  0  0  0  0  0  0
    1.5246    6.1979   -3.3461 C   0  0  0  0  0  0  0  0  0  0  0  0
    0.9709    5.7967   -4.5595 C   0  0  0  0  0  0  0  0  0  0  0  0
    0.2770    6.6761   -5.2906 F   0  0  0  0  0  0  0  0  0  0  0  0
    1.1231    4.4971   -5.0397 C   0  0  0  0  0  0  0  0  0  0  0  0
    1.8465    3.6045   -4.2577 C   0  0  0  0  0  0  0  0  0  0  0  0
    1.9968    2.3391   -4.7178 F   0  0  0  0  0  0  0  0  0  0  0  0
    3.6011   -0.0272    1.3380 N   0  0  0  0  0  0  0  0  0  0  0  0
    4.5537   -0.8843    0.8616 C   0  0  0  0  0  0  0  0  0  0  0  0
    4.9197   -0.9828   -0.3921 N   0  0  0  0  0  0  0  0  0  0  0  0
    5.8867   -1.9114   -0.6002 N   0  0  0  0  0  0  0  0  0  0  0  0
    6.2584   -2.5166    0.4783 C   0  0  0  0  0  0  0  0  0  0  0  0
    5.4211   -1.9856    1.9285 S   0  0  0  0  0  0  0  0  0  0  0  0
    3.7500    0.4310   -1.1023 H   0  0  0  0  0  0  0  0  0  0  0  0
    1.5321    2.4385   -0.8899 H   0  0  0  0  0  0  0  0  0  0  0  0
    1.7001    1.3677   -2.3026 H   0  0  0  0  0  0  0  0  0  0  0  0
    3.7407    3.4680   -1.4151 H   0  0  0  0  0  0  0  0  0  0  0  0
    3.7898    1.8260   -3.7057 H   0  0  0  0  0  0  0  0  0  0  0  0
    2.6940    5.5738   -1.6494 H   0  0  0  0  0  0  0  0  0  0  0  0
    1.3872    7.2251   -3.0051 H   0  0  0  0  0  0  0  0  0  0  0  0
    0.6898    4.1885   -5.9914 H   0  0  0  0  0  0  0  0  0  0  0  0
    3.3915   -0.0365    2.3296 H   0  0  0  0  0  0  0  0  0  0  0  0
    7.0237   -3.2933    0.5108 H   0  0  0  0  0  0  0  0  0  0  0  0
  1  2  2  0
  2  3  1  0
  2 15  1  0
  3  4  1  0
  3 21  1  0
  4  5  1  0
  4 22  1  0
  4 23  1  0
  5  6  1  0
  5  7  1  0
  5 24  1  1
  6 25  1  0
  7  8  2  0
  7 13  1  0
  8  9  1  0
  8 26  1  0
  9 10  2  0
  9 27  1  0
 10 11  1  0
 10 12  1  0
 12 13  2  0
 12 28  1  0
 13 14  1  0
 15 16  1  0
 15 29  1  0
 16 17  2  0
 16 20  1  0
 17 18  1  0
 18 19  2  0
 19 20  1  0
 19 30  1  0
M  END

