
     RDKit          3D

 32 34  0  0  0  0  0  0  0  0999 V2000
    0.9247   -0.3360   -0.4491 O   0  0  0  0  0  0  0  0  0  0  0  0
    2.1282   -0.2978   -0.6000 C   0  0  0  0  0  0  0  0  0  0  0  0
    3.0967   -1.0553    0.3069 C   0  0  0  0  0  0  0  0  0  0  0  0
    4.3224   -1.4109   -0.3128 O   0  0  0  0  0  0  0  0  0  0  0  0
    4.9238   -0.4365   -1.0549 C   0  0  0  0  0  0  0  0  0  0  0  0
    6.3074   -0.4346   -1.2187 C   0  0  0  0  0  0  0  0  0  0  0  0
    6.9182    0.5277   -2.0276 C   0  0  0  0  0  0  0  0  0  0  0  0
    6.1534    1.5015   -2.6830 C   0  0  0  0  0  0  0  0  0  0  0  0
    6.8514    2.5933   -3.5012 C   0  0  1  0  0  0  0  0  0  0  0  0
    8.1728    2.2566   -3.8621 O   0  0  0  0  0  0  0  0  0  0  0  0
    6.0310    3.0675   -4.7070 C   0  0  0  0  0  0  0  0  0  0  0  0
    5.4489    4.3496   -4.7592 C   0  0  0  0  0  0  0  0  0  0  0  0
    5.5738    5.4469   -3.3931 Cl  0  0  0  0  0  0  0  0  0  0  0  0
    4.7341    4.8096   -5.8705 C   0  0  0  0  0  0  0  0  0  0  0  0
    4.5779    3.9793   -6.9779 C   0  0  0  0  0  0  0  0  0  0  0  0
    5.1266    2.6966   -6.9706 C   0  0  0  0  0  0  0  0  0  0  0  0
    5.8322    2.2643   -5.8473 C   0  0  0  0  0  0  0  0  0  0  0  0
    6.4814    0.6276   -5.9018 Cl  0  0  0  0  0  0  0  0  0  0  0  0
    4.7623    1.5003   -2.5084 C   0  0  0  0  0  0  0  0  0  0  0  0
    4.1433    0.5370   -1.7074 C   0  0  0  0  0  0  0  0  0  0  0  0
    2.7499    0.4698   -1.5511 N   0  0  0  0  0  0  0  0  0  0  0  0
    2.6067   -1.9824    0.6299 H   0  0  0  0  0  0  0  0  0  0  0  0
    3.2796   -0.4306    1.2052 H   0  0  0  0  0  0  0  0  0  0  0  0
    6.8923   -1.2015   -0.7068 H   0  0  0  0  0  0  0  0  0  0  0  0
    8.0021    0.5336   -2.1479 H   0  0  0  0  0  0  0  0  0  0  0  0
    6.9644    3.4651   -2.8417 H   0  0  0  0  0  0  0  0  0  0  0  0
    8.1347    1.4818   -4.4432 H   0  0  0  0  0  0  0  0  0  0  0  0
    4.3088    5.8137   -5.8537 H   0  0  0  0  0  0  0  0  0  0  0  0
    4.0244    4.3313   -7.8514 H   0  0  0  0  0  0  0  0  0  0  0  0
    5.0134    2.0273   -7.8243 H   0  0  0  0  0  0  0  0  0  0  0  0
    4.1408    2.2491   -3.0059 H   0  0  0  0  0  0  0  0  0  0  0  0
    2.1472    1.0469   -2.1306 H   0  0  0  0  0  0  0  0  0  0  0  0
  1  2  2  0
  2  3  1  0
  2 21  1  0
  3  4  1  0
  3 22  1  0
  3 23  1  0
  4  5  1  0
  5  6  1  0
  5 20  2  0
  6  7  2  0
  6 24  1  0
  7  8  1  0
  7 25  1  0
  8  9  1  0
  8 19  2  0
  9 10  1  0
  9 11  1  0
  9 26  1  1
 10 27  1  0
 11 12  2  0
 11 17  1  0
 12 13  1  0
 12 14  1  0
 14 15  2  0
 14 28  1  0
 15 16  1  0
 15 29  1  0
 16 17  2  0
 16 30  1  0
 17 18  1  0
 19 20  1  0
 19 31  1  0
 20 21  1  0
 21 32  1  0
M  END

