
     RDKit          3D

 46 47  0  0  0  0  0  0  0  0999 V2000
   -0.2949    1.6096   -3.7206 C   0  0  0  0  0  0  0  0  0  0  0  0
   -0.6131    2.5062   -4.7804 O   0  0  0  0  0  0  0  0  0  0  0  0
   -0.3876    3.8035   -4.6056 C   0  0  0  0  0  0  0  0  0  0  0  0
    0.1204    4.2298   -3.4535 N   0  0  0  0  0  0  0  0  0  0  0  0
    0.3046    5.5639   -3.3923 C   0  0  0  0  0  0  0  0  0  0  0  0
    0.8209    5.9894   -2.1772 N   0  0  0  0  0  0  0  0  0  0  0  0
    1.2942    7.2570   -1.8213 C   0  0  0  0  0  0  0  0  0  0  0  0
    1.4748    8.1833   -2.5647 O   0  0  0  0  0  0  0  0  0  0  0  0
    1.5296    7.3373   -0.4393 N   0  0  0  0  0  0  0  0  0  0  0  0
    2.5428    8.5298    0.2725 S   0  0  1  0  0  0  0  0  0  0  0  0
    2.5629    8.1036    1.6744 O   0  0  0  0  0  0  0  0  0  0  0  0
    3.7745    8.6291   -0.4978 O   0  0  0  0  0  0  0  0  0  0  0  0
    1.6229   10.0582    0.0977 C   0  0  0  0  0  0  0  0  0  0  0  0
    2.0950   10.9436   -0.8759 C   0  0  0  0  0  0  0  0  0  0  0  0
    1.4533   12.1677   -1.0619 C   0  0  0  0  0  0  0  0  0  0  0  0
    0.3460   12.4879   -0.2750 C   0  0  0  0  0  0  0  0  0  0  0  0
   -0.1198   11.5944    0.6935 C   0  0  0  0  0  0  0  0  0  0  0  0
    0.5055   10.3589    0.9063 C   0  0  0  0  0  0  0  0  0  0  0  0
   -0.0207    9.4233    1.9744 C   0  0  0  0  0  0  0  0  0  0  0  0
   -1.2264    9.9176    2.5018 O   0  0  0  0  0  0  0  0  0  0  0  0
   -1.7557    9.1373    3.5426 C   0  0  0  0  0  0  0  0  0  0  0  0
   -3.0451    9.7941    4.0051 C   0  0  0  0  0  0  0  0  0  0  0  0
   -3.5961    9.0376    5.0180 F   0  0  0  0  0  0  0  0  0  0  0  0
    0.0202    6.4319   -4.3452 N   0  0  0  0  0  0  0  0  0  0  0  0
   -0.4804    5.8731   -5.4550 C   0  0  0  0  0  0  0  0  0  0  0  0
   -0.7678    6.7291   -6.4249 O   0  0  0  0  0  0  0  0  0  0  0  0
   -1.3056    6.2207   -7.6436 C   0  0  0  0  0  0  0  0  0  0  0  0
   -0.7053    4.5765   -5.6472 N   0  0  0  0  0  0  0  0  0  0  0  0
   -0.5571    0.6095   -4.0878 H   0  0  0  0  0  0  0  0  0  0  0  0
   -0.8741    1.8443   -2.8146 H   0  0  0  0  0  0  0  0  0  0  0  0
    0.7762    1.6536   -3.4718 H   0  0  0  0  0  0  0  0  0  0  0  0
    0.9319    5.2249   -1.5195 H   0  0  0  0  0  0  0  0  0  0  0  0
    1.3742    6.5566    0.1940 H   0  0  0  0  0  0  0  0  0  0  0  0
    2.9539   10.6550   -1.4815 H   0  0  0  0  0  0  0  0  0  0  0  0
    1.8159   12.8614   -1.8235 H   0  0  0  0  0  0  0  0  0  0  0  0
   -0.1664   13.4432   -0.4144 H   0  0  0  0  0  0  0  0  0  0  0  0
   -0.9858   11.8430    1.3059 H   0  0  0  0  0  0  0  0  0  0  0  0
    0.7408    9.3034    2.7678 H   0  0  0  0  0  0  0  0  0  0  0  0
   -0.1740    8.4122    1.5462 H   0  0  0  0  0  0  0  0  0  0  0  0
   -1.0491    9.0622    4.3940 H   0  0  0  0  0  0  0  0  0  0  0  0
   -1.9707    8.1027    3.2044 H   0  0  0  0  0  0  0  0  0  0  0  0
   -3.7611    9.8609    3.1681 H   0  0  0  0  0  0  0  0  0  0  0  0
   -2.8441   10.8127    4.3789 H   0  0  0  0  0  0  0  0  0  0  0  0
   -1.4614    7.0961   -8.2863 H   0  0  0  0  0  0  0  0  0  0  0  0
   -2.2586    5.6996   -7.4683 H   0  0  0  0  0  0  0  0  0  0  0  0
   -0.6077    5.5159   -8.1197 H   0  0  0  0  0  0  0  0  0  0  0  0
  1  2  1  0
  1 29  1  0
  1 30  1  0
  1 31  1  0
  2  3  1  0
  3  4  2  0
  3 28  1  0
  4  5  1  0
  5  6  1  0
  5 24  2  0
  6  7  1  0
  6 32  1  0
  7  8  2  0
  7  9  1  0
 10  9  1  6
  9 33  1  0
 10 11  2  0
 10 12  2  0
 10 13  1  0
 13 14  2  0
 13 18  1  0
 14 15  1  0
 14 34  1  0
 15 16  2  0
 15 35  1  0
 16 17  1  0
 16 36  1  0
 17 18  2  0
 17 37  1  0
 18 19  1  0
 19 20  1  0
 19 38  1  0
 19 39  1  0
 20 21  1  0
 21 22  1  0
 21 40  1  0
 21 41  1  0
 22 23  1  0
 22 42  1  0
 22 43  1  0
 24 25  1  0
 25 26  1  0
 25 28  2  0
 26 27  1  0
 27 44  1  0
 27 45  1  0
 27 46  1  0
M  END

