
     RDKit          3D

 39 41  0  0  0  0  0  0  0  0999 V2000
    1.5565   -0.9376   -0.2049 C   0  0  0  0  0  0  0  0  0  0  0  0
    2.9230   -0.3485    0.0384 C   0  0  0  0  0  0  0  0  0  0  0  0
    3.2817    0.9127   -0.4672 C   0  0  0  0  0  0  0  0  0  0  0  0
    4.5586    1.4317   -0.2234 C   0  0  0  0  0  0  0  0  0  0  0  0
    5.0197    2.7811   -0.7846 C   0  0  1  0  0  0  0  0  0  0  0  0
    5.8103    2.5784   -2.1040 C   0  0  0  0  0  0  0  0  0  0  0  0
    6.6041    3.7887   -2.5250 C   0  0  0  0  0  0  0  0  0  0  0  0
    6.1865    4.6709   -3.5341 C   0  0  0  0  0  0  0  0  0  0  0  0
    6.9565    5.7829   -3.8903 C   0  0  0  0  0  0  0  0  0  0  0  0
    6.3919    6.8429   -5.1689 Cl  0  0  0  0  0  0  0  0  0  0  0  0
    8.1699    6.0706   -3.2496 C   0  0  0  0  0  0  0  0  0  0  0  0
    8.5936    5.2054   -2.2459 C   0  0  0  0  0  0  0  0  0  0  0  0
    7.8172    4.0955   -1.9000 C   0  0  0  0  0  0  0  0  0  0  0  0
    8.3605    3.3551   -0.8902 O   0  0  0  0  0  0  0  0  0  0  0  0
    9.7044    3.8336   -0.6709 C   0  0  0  0  0  0  0  0  0  0  0  0
    9.7896    5.2346   -1.3201 C   0  0  0  0  0  0  0  0  0  0  0  0
    3.9749    3.7668   -1.0004 N   0  0  0  0  0  0  0  0  0  0  0  0
    3.2348    4.1813    0.1243 N   0  0  0  0  0  0  0  0  0  0  0  0
    5.4318    0.6437    0.5387 C   0  0  0  0  0  0  0  0  0  0  0  0
    4.9924   -0.5989    0.9994 C   0  0  0  0  0  0  0  0  0  0  0  0
    3.7747   -1.0892    0.7614 N   0  0  0  0  0  0  0  0  0  0  0  0
    0.9148   -0.2690   -0.7964 H   0  0  0  0  0  0  0  0  0  0  0  0
    1.0585   -1.1500    0.7548 H   0  0  0  0  0  0  0  0  0  0  0  0
    1.6472   -1.9006   -0.7328 H   0  0  0  0  0  0  0  0  0  0  0  0
    2.5517    1.4881   -1.0423 H   0  0  0  0  0  0  0  0  0  0  0  0
    5.7215    3.2094   -0.0478 H   0  0  0  0  0  0  0  0  0  0  0  0
    5.1017    2.2902   -2.8986 H   0  0  0  0  0  0  0  0  0  0  0  0
    6.4947    1.7279   -1.9646 H   0  0  0  0  0  0  0  0  0  0  0  0
    5.2466    4.4860   -4.0568 H   0  0  0  0  0  0  0  0  0  0  0  0
    8.7506    6.9479   -3.5400 H   0  0  0  0  0  0  0  0  0  0  0  0
   10.4033    3.1263   -1.1513 H   0  0  0  0  0  0  0  0  0  0  0  0
    9.8940    3.8309    0.4117 H   0  0  0  0  0  0  0  0  0  0  0  0
   10.7469    5.3903   -1.8406 H   0  0  0  0  0  0  0  0  0  0  0  0
    9.6874    6.0405   -0.5720 H   0  0  0  0  0  0  0  0  0  0  0  0
    3.3330    3.4889   -1.7405 H   0  0  0  0  0  0  0  0  0  0  0  0
    3.7601    4.9061    0.6133 H   0  0  0  0  0  0  0  0  0  0  0  0
    3.0782    3.4139    0.7872 H   0  0  0  0  0  0  0  0  0  0  0  0
    6.4426    0.9938    0.7667 H   0  0  0  0  0  0  0  0  0  0  0  0
    5.6626   -1.2294    1.5971 H   0  0  0  0  0  0  0  0  0  0  0  0
  1  2  1  0
  1 22  1  0
  1 23  1  0
  1 24  1  0
  2  3  2  0
  2 21  1  0
  3  4  1  0
  3 25  1  0
  4  5  1  0
  4 19  2  0
  5  6  1  0
  5 17  1  0
  5 26  1  1
  6  7  1  0
  6 27  1  0
  6 28  1  0
  7  8  2  0
  7 13  1  0
  8  9  1  0
  8 29  1  0
  9 10  1  0
  9 11  2  0
 11 12  1  0
 11 30  1  0
 12 13  2  0
 12 16  1  0
 13 14  1  0
 14 15  1  0
 15 16  1  0
 15 31  1  0
 15 32  1  0
 16 33  1  0
 16 34  1  0
 17 18  1  0
 17 35  1  0
 18 36  1  0
 18 37  1  0
 19 20  1  0
 19 38  1  0
 20 21  2  0
 20 39  1  0
M  END

