
     RDKit          3D

 46 47  0  0  0  0  0  0  0  0999 V2000
    0.8651   -0.0134   -0.2432 C   0  0  0  0  0  0  0  0  0  0  0  0
    2.3903   -0.0694   -0.1312 C   0  0  0  0  0  0  0  0  0  0  0  0
    2.9716    0.8257    0.9900 C   0  0  1  0  0  0  0  0  0  0  0  0
    2.3926    0.5707    2.3160 N   0  0  0  0  0  0  0  0  0  0  0  0
    2.4577   -0.7813    2.8567 C   0  0  0  0  0  0  0  0  0  0  0  0
    1.9531   -0.8057    4.2718 C   0  0  0  0  0  0  0  0  0  0  0  0
    0.9739   -1.6129    4.7148 C   0  0  0  0  0  0  0  0  0  0  0  0
    0.4293   -1.7042    6.0802 C   0  0  0  0  0  0  0  0  0  0  0  0
    0.9094   -0.9313    7.1579 C   0  0  0  0  0  0  0  0  0  0  0  0
    0.3548   -1.0527    8.4309 C   0  0  0  0  0  0  0  0  0  0  0  0
   -0.6939   -1.9507    8.6658 C   0  0  0  0  0  0  0  0  0  0  0  0
   -1.1810   -2.7263    7.6110 C   0  0  0  0  0  0  0  0  0  0  0  0
   -0.6248   -2.6028    6.3359 C   0  0  0  0  0  0  0  0  0  0  0  0
    4.5276    0.7795    1.0410 C   0  0  1  0  0  0  0  0  0  0  0  0
    5.2072    1.2542   -0.2653 C   0  0  0  0  0  0  0  0  0  0  0  0
    5.0975    2.7699   -0.4899 C   0  0  0  0  0  0  0  0  0  0  0  0
    5.6467    3.5562    0.7080 C   0  0  0  0  0  0  0  0  0  0  0  0
    5.0016    3.1041    2.0248 C   0  0  0  0  0  0  0  0  0  0  0  0
    5.1137    1.5857    2.2217 C   0  0  0  0  0  0  0  0  0  0  0  0
    0.5040   -0.6313   -1.0807 H   0  0  0  0  0  0  0  0  0  0  0  0
    0.5147    1.0180   -0.4202 H   0  0  0  0  0  0  0  0  0  0  0  0
    0.3674   -0.3783    0.6696 H   0  0  0  0  0  0  0  0  0  0  0  0
    2.8230    0.2365   -1.0965 H   0  0  0  0  0  0  0  0  0  0  0  0
    2.7167   -1.1137    0.0234 H   0  0  0  0  0  0  0  0  0  0  0  0
    2.6733    1.8620    0.7535 H   0  0  0  0  0  0  0  0  0  0  0  0
    1.4362    0.9140    2.3607 H   0  0  0  0  0  0  0  0  0  0  0  0
    3.5169   -1.0986    2.8543 H   0  0  0  0  0  0  0  0  0  0  0  0
    1.9097   -1.5434    2.2613 H   0  0  0  0  0  0  0  0  0  0  0  0
    2.4349   -0.0891    4.9463 H   0  0  0  0  0  0  0  0  0  0  0  0
    0.5106   -2.2963    3.9919 H   0  0  0  0  0  0  0  0  0  0  0  0
    1.7290   -0.2272    6.9987 H   0  0  0  0  0  0  0  0  0  0  0  0
    0.7445   -0.4424    9.2500 H   0  0  0  0  0  0  0  0  0  0  0  0
   -1.1256   -2.0440    9.6655 H   0  0  0  0  0  0  0  0  0  0  0  0
   -1.9986   -3.4320    7.7805 H   0  0  0  0  0  0  0  0  0  0  0  0
   -1.0122   -3.2137    5.5154 H   0  0  0  0  0  0  0  0  0  0  0  0
    4.8117   -0.2791    1.1843 H   0  0  0  0  0  0  0  0  0  0  0  0
    4.8205    0.7085   -1.1400 H   0  0  0  0  0  0  0  0  0  0  0  0
    6.2779    0.9887   -0.2003 H   0  0  0  0  0  0  0  0  0  0  0  0
    4.0429    3.0519   -0.6623 H   0  0  0  0  0  0  0  0  0  0  0  0
    5.6380    3.0498   -1.4103 H   0  0  0  0  0  0  0  0  0  0  0  0
    5.5016    4.6396    0.5568 H   0  0  0  0  0  0  0  0  0  0  0  0
    6.7395    3.3961    0.7696 H   0  0  0  0  0  0  0  0  0  0  0  0
    3.9377    3.4010    2.0392 H   0  0  0  0  0  0  0  0  0  0  0  0
    5.4714    3.6259    2.8759 H   0  0  0  0  0  0  0  0  0  0  0  0
    4.6179    1.2937    3.1579 H   0  0  0  0  0  0  0  0  0  0  0  0
    6.1818    1.3189    2.3218 H   0  0  0  0  0  0  0  0  0  0  0  0
  1  2  1  0
  1 20  1  0
  1 21  1  0
  1 22  1  0
  2  3  1  0
  2 23  1  0
  2 24  1  0
  3  4  1  0
  3 14  1  0
  3 25  1  6
  4  5  1  0
  4 26  1  0
  5  6  1  0
  5 27  1  0
  5 28  1  0
  6  7  2  0
  6 29  1  0
  7  8  1  0
  7 30  1  0
  8  9  2  0
  8 13  1  0
  9 10  1  0
  9 31  1  0
 10 11  2  0
 10 32  1  0
 11 12  1  0
 11 33  1  0
 12 13  2  0
 12 34  1  0
 13 35  1  0
 14 15  1  0
 14 19  1  0
 14 36  1  1
 15 16  1  0
 15 37  1  0
 15 38  1  0
 16 17  1  0
 16 39  1  0
 16 40  1  0
 17 18  1  0
 17 41  1  0
 17 42  1  0
 18 19  1  0
 18 43  1  0
 18 44  1  0
 19 45  1  0
 19 46  1  0
M  END

