
     RDKit          3D

 41 44  0  0  0  0  0  0  0  0999 V2000
    3.4338    1.8727   -2.7135 C   0  0  0  0  0  0  0  0  0  0  0  0
    3.2393    1.2581   -1.4153 N   0  0  0  0  0  0  0  0  0  0  0  0
    3.1091    1.8760   -0.1887 C   0  0  0  0  0  0  0  0  0  0  0  0
    3.1040    3.3570    0.0390 C   0  0  0  0  0  0  0  0  0  0  0  0
    1.9554    3.9996   -0.5837 N   0  0  0  0  0  0  0  0  0  0  0  0
    0.5839    3.6030   -0.2489 C   0  0  2  0  0  0  0  0  0  0  0  0
   -0.2059    4.3205   -1.3669 C   0  0  0  0  0  0  0  0  0  0  0  0
    0.6363    5.5733   -1.7284 C   0  0  0  0  0  0  0  0  0  0  0  0
    2.0013    5.4068   -0.9989 C   0  0  1  0  0  0  0  0  0  0  0  0
    2.2382    6.4371    0.1643 C   0  0  0  0  0  0  0  0  0  0  0  0
    1.6923    5.8024    1.4393 C   0  0  0  0  0  0  0  0  0  0  0  0
    2.4093    5.4427    2.3461 O   0  0  0  0  0  0  0  0  0  0  0  0
    0.3304    5.4543    1.3887 N   0  0  0  0  0  0  0  0  0  0  0  0
    0.1237    4.0142    1.1769 C   0  0  0  0  0  0  0  0  0  0  0  0
    2.9441    0.9725    0.7480 N   0  0  0  0  0  0  0  0  0  0  0  0
    2.9641   -0.2598    0.1555 N   0  0  0  0  0  0  0  0  0  0  0  0
    3.1387   -0.0853   -1.1355 C   0  0  0  0  0  0  0  0  0  0  0  0
    3.2685   -1.1574   -2.1451 C   0  0  1  0  0  0  0  0  0  0  0  0
    4.4145   -2.1571   -2.0340 C   0  0  0  0  0  0  0  0  0  0  0  0
    3.0124   -2.5828   -1.7203 C   0  0  0  0  0  0  0  0  0  0  0  0
    3.6300    2.9433   -2.5840 H   0  0  0  0  0  0  0  0  0  0  0  0
    2.5371    1.7657   -3.3449 H   0  0  0  0  0  0  0  0  0  0  0  0
    4.2890    1.4148   -3.2332 H   0  0  0  0  0  0  0  0  0  0  0  0
    4.0112    3.8103   -0.4001 H   0  0  0  0  0  0  0  0  0  0  0  0
    3.1814    3.5065    1.1305 H   0  0  0  0  0  0  0  0  0  0  0  0
    0.4858    2.5070   -0.3290 H   0  0  0  0  0  0  0  0  0  0  0  0
   -1.2351    4.5702   -1.0632 H   0  0  0  0  0  0  0  0  0  0  0  0
   -0.2850    3.6536   -2.2375 H   0  0  0  0  0  0  0  0  0  0  0  0
    0.1369    6.5110   -1.4385 H   0  0  0  0  0  0  0  0  0  0  0  0
    0.7938    5.6380   -2.8151 H   0  0  0  0  0  0  0  0  0  0  0  0
    2.8342    5.5373   -1.7133 H   0  0  0  0  0  0  0  0  0  0  0  0
    1.7548    7.4007   -0.0720 H   0  0  0  0  0  0  0  0  0  0  0  0
    3.3089    6.6287    0.3204 H   0  0  0  0  0  0  0  0  0  0  0  0
   -0.1693    5.9932    0.6858 H   0  0  0  0  0  0  0  0  0  0  0  0
   -0.9393    3.7611    1.3231 H   0  0  0  0  0  0  0  0  0  0  0  0
    0.6973    3.4696    1.9402 H   0  0  0  0  0  0  0  0  0  0  0  0
    2.9684   -0.8779   -3.1596 H   0  0  0  0  0  0  0  0  0  0  0  0
    5.1050   -2.0210   -1.1975 H   0  0  0  0  0  0  0  0  0  0  0  0
    4.8767   -2.5025   -2.9636 H   0  0  0  0  0  0  0  0  0  0  0  0
    2.7474   -2.7224   -0.6697 H   0  0  0  0  0  0  0  0  0  0  0  0
    2.4920   -3.2342   -2.4274 H   0  0  0  0  0  0  0  0  0  0  0  0
  1  2  1  0
  1 21  1  0
  1 22  1  0
  1 23  1  0
  2  3  1  0
  2 17  1  0
  3  4  1  0
  3 15  2  0
  4  5  1  0
  4 24  1  0
  4 25  1  0
  5  6  1  0
  5  9  1  0
  6  7  1  0
  6 14  1  0
  6 26  1  6
  7  8  1  0
  7 27  1  0
  7 28  1  0
  8  9  1  0
  8 29  1  0
  8 30  1  0
  9 10  1  0
  9 31  1  6
 10 11  1  0
 10 32  1  0
 10 33  1  0
 11 12  2  0
 11 13  1  0
 13 14  1  0
 13 34  1  0
 14 35  1  0
 14 36  1  0
 15 16  1  0
 16 17  2  0
 17 18  1  0
 18 19  1  0
 18 20  1  0
 18 37  1  6
 19 20  1  0
 19 38  1  0
 19 39  1  0
 20 40  1  0
 20 41  1  0
M  END

