
     RDKit          3D

 33 34  0  0  0  0  0  0  0  0999 V2000
    0.7519   -0.2361    0.5348 C   0  0  0  0  0  0  0  0  0  0  0  0
    2.0662    0.4723    0.3947 C   0  0  0  0  0  0  0  0  0  0  0  0
    2.3133    1.8792    0.3333 C   0  0  0  0  0  0  0  0  0  0  0  0
    3.6699    1.9654    0.2099 C   0  0  0  0  0  0  0  0  0  0  0  0
    4.5689    3.1493    0.0961 C   0  0  0  0  0  0  0  0  0  0  0  0
    4.1100    4.2769    0.0957 O   0  0  0  0  0  0  0  0  0  0  0  0
    5.8978    2.8135   -0.0016 N   0  0  0  0  0  0  0  0  0  0  0  0
    7.0126    3.6608   -0.1276 C   0  0  0  0  0  0  0  0  0  0  0  0
    6.8942    5.0588   -0.0937 C   0  0  0  0  0  0  0  0  0  0  0  0
    8.0446    5.8362   -0.2275 C   0  0  0  0  0  0  0  0  0  0  0  0
    7.8842    7.6251   -0.1884 S   0  0  1  0  0  0  0  0  0  0  0  0
    7.3813    8.0063   -1.7573 N   0  0  0  0  0  0  0  0  0  0  0  0
    6.7684    7.9614    0.6970 O   0  0  0  0  0  0  0  0  0  0  0  0
    9.2277    8.1812   -0.0055 O   0  0  0  0  0  0  0  0  0  0  0  0
    9.3097    5.2721   -0.3739 C   0  0  0  0  0  0  0  0  0  0  0  0
    9.4104    3.8794   -0.3991 C   0  0  0  0  0  0  0  0  0  0  0  0
    8.2874    3.0534   -0.2828 C   0  0  0  0  0  0  0  0  0  0  0  0
    8.4318    1.5519   -0.3153 C   0  0  0  0  0  0  0  0  0  0  0  0
    4.1994    0.7260    0.1969 O   0  0  0  0  0  0  0  0  0  0  0  0
    3.1906   -0.2098    0.3127 N   0  0  0  0  0  0  0  0  0  0  0  0
   -0.0786    0.4824    0.5479 H   0  0  0  0  0  0  0  0  0  0  0  0
    0.7209   -0.8202    1.4675 H   0  0  0  0  0  0  0  0  0  0  0  0
    0.5952   -0.9367   -0.2994 H   0  0  0  0  0  0  0  0  0  0  0  0
    1.6045    2.7012    0.3743 H   0  0  0  0  0  0  0  0  0  0  0  0
    6.0903    1.8177    0.0083 H   0  0  0  0  0  0  0  0  0  0  0  0
    5.9185    5.5190    0.0442 H   0  0  0  0  0  0  0  0  0  0  0  0
    6.5029    8.5231   -1.7171 H   0  0  0  0  0  0  0  0  0  0  0  0
    8.1105    8.5266   -2.2446 H   0  0  0  0  0  0  0  0  0  0  0  0
   10.1895    5.9116   -0.4522 H   0  0  0  0  0  0  0  0  0  0  0  0
   10.3941    3.4157   -0.5096 H   0  0  0  0  0  0  0  0  0  0  0  0
    9.4823    1.2614   -0.4517 H   0  0  0  0  0  0  0  0  0  0  0  0
    7.8559    1.0998   -1.1421 H   0  0  0  0  0  0  0  0  0  0  0  0
    8.0826    1.0824    0.6217 H   0  0  0  0  0  0  0  0  0  0  0  0
  1  2  1  0
  1 21  1  0
  1 22  1  0
  1 23  1  0
  2  3  1  0
  2 20  2  0
  3  4  2  0
  3 24  1  0
  4  5  1  0
  4 19  1  0
  5  6  2  0
  5  7  1  0
  7  8  1  0
  7 25  1  0
  8  9  2  0
  8 17  1  0
  9 10  1  0
  9 26  1  0
 10 11  1  0
 10 15  2  0
 11 12  1  6
 11 13  2  0
 11 14  2  0
 12 27  1  0
 12 28  1  0
 15 16  1  0
 15 29  1  0
 16 17  2  0
 16 30  1  0
 17 18  1  0
 18 31  1  0
 18 32  1  0
 18 33  1  0
 19 20  1  0
M  END

