
     RDKit          3D

 51 53  0  0  0  0  0  0  0  0999 V2000
    8.1043   -8.3878    4.5216 C   0  0  0  0  0  0  0  0  0  0  0  0
    7.7969   -8.1540    3.0626 C   0  0  0  0  0  0  0  0  0  0  0  0
    8.3414   -7.0653    2.3647 C   0  0  0  0  0  0  0  0  0  0  0  0
    8.0386   -6.8442    1.0189 C   0  0  0  0  0  0  0  0  0  0  0  0
    7.1740   -7.7038    0.3255 C   0  0  0  0  0  0  0  0  0  0  0  0
    6.8642   -7.4736   -1.1297 C   0  0  0  0  0  0  0  0  0  0  0  0
    8.0376   -8.4493   -2.1828 S   0  0  0  0  0  0  0  0  0  0  0  0
    7.7124   -7.6825   -3.8232 C   0  0  0  0  0  0  0  0  0  0  0  0
    8.2825   -6.2824   -3.8458 C   0  0  0  0  0  0  0  0  0  0  0  0
    7.6526   -5.2842   -3.5936 O   0  0  0  0  0  0  0  0  0  0  0  0
    9.6060   -6.3100   -4.1046 O   0  0  0  0  0  0  0  0  0  0  0  0
   10.3785   -5.1001   -3.9588 C   0  0  2  0  0  0  0  0  0  0  0  0
    9.6792   -4.2621   -3.8160 H   0  0  0  0  0  0  0  0  0  0  0  0
   11.2160   -4.8937   -5.2110 C   0  0  0  0  0  0  0  0  0  0  0  0
   11.2583   -5.1635   -2.6968 C   0  0  0  0  0  0  0  0  0  0  0  0
   12.0757   -4.2765   -2.4943 O   0  0  0  0  0  0  0  0  0  0  0  0
   11.0443   -6.2100   -1.8624 N   0  0  0  0  0  0  0  0  0  0  0  0
   11.8183   -6.3954   -0.6393 C   0  0  0  0  0  0  0  0  0  0  0  0
   13.0250   -7.3011   -0.8033 C   0  0  0  0  0  0  0  0  0  0  0  0
   13.0234   -8.5948   -0.2702 C   0  0  0  0  0  0  0  0  0  0  0  0
   14.1242   -9.4647   -0.4163 C   0  0  0  0  0  0  0  0  0  0  0  0
   15.2134   -8.9804   -1.1153 C   0  0  0  0  0  0  0  0  0  0  0  0
   15.2239   -7.6887   -1.6537 C   0  0  0  0  0  0  0  0  0  0  0  0
   14.1539   -6.8265   -1.5170 C   0  0  0  0  0  0  0  0  0  0  0  0
   16.4102   -7.4847   -2.3058 O   0  0  0  0  0  0  0  0  0  0  0  0
   17.2217   -8.6179   -2.0196 C   0  0  0  0  0  0  0  0  0  0  0  0
   16.3902   -9.6078   -1.4205 O   0  0  0  0  0  0  0  0  0  0  0  0
    6.6303   -8.7968    1.0189 C   0  0  0  0  0  0  0  0  0  0  0  0
    6.9366   -9.0161    2.3621 C   0  0  0  0  0  0  0  0  0  0  0  0
    8.9221   -7.7412    4.8723 H   0  0  0  0  0  0  0  0  0  0  0  0
    8.3940   -9.4345    4.7091 H   0  0  0  0  0  0  0  0  0  0  0  0
    7.2227   -8.1807    5.1525 H   0  0  0  0  0  0  0  0  0  0  0  0
    9.0128   -6.3752    2.8837 H   0  0  0  0  0  0  0  0  0  0  0  0
    8.4781   -5.9889    0.4978 H   0  0  0  0  0  0  0  0  0  0  0  0
    6.9686   -6.4130   -1.3980 H   0  0  0  0  0  0  0  0  0  0  0  0
    5.8415   -7.7970   -1.3772 H   0  0  0  0  0  0  0  0  0  0  0  0
    6.6327   -7.6502   -4.0229 H   0  0  0  0  0  0  0  0  0  0  0  0
    8.2153   -8.3262   -4.5578 H   0  0  0  0  0  0  0  0  0  0  0  0
   11.8591   -4.0152   -5.0662 H   0  0  0  0  0  0  0  0  0  0  0  0
   10.5699   -4.7311   -6.0862 H   0  0  0  0  0  0  0  0  0  0  0  0
   11.8554   -5.7699   -5.3994 H   0  0  0  0  0  0  0  0  0  0  0  0
   10.4125   -6.9532   -2.1502 H   0  0  0  0  0  0  0  0  0  0  0  0
   11.1476   -6.8054    0.1309 H   0  0  0  0  0  0  0  0  0  0  0  0
   12.1401   -5.3944   -0.3174 H   0  0  0  0  0  0  0  0  0  0  0  0
   12.1453   -8.9441    0.2795 H   0  0  0  0  0  0  0  0  0  0  0  0
   14.1203  -10.4733   -0.0001 H   0  0  0  0  0  0  0  0  0  0  0  0
   14.1677   -5.8201   -1.9388 H   0  0  0  0  0  0  0  0  0  0  0  0
   18.0282   -8.3324   -1.3144 H   0  0  0  0  0  0  0  0  0  0  0  0
   17.6550   -9.0120   -2.9536 H   0  0  0  0  0  0  0  0  0  0  0  0
    5.9569   -9.4845    0.4990 H   0  0  0  0  0  0  0  0  0  0  0  0
    6.4969   -9.8741    2.8794 H   0  0  0  0  0  0  0  0  0  0  0  0
  1  2  1  0
  1 30  1  0
  1 31  1  0
  1 32  1  0
  2  3  2  0
  2 29  1  0
  3  4  1  0
  3 33  1  0
  4  5  2  0
  4 34  1  0
  5  6  1  0
  5 28  1  0
  6  7  1  0
  6 35  1  0
  6 36  1  0
  7  8  1  0
  8  9  1  0
  8 37  1  0
  8 38  1  0
  9 10  2  0
  9 11  1  0
 11 12  1  0
 12 13  1  1
 12 14  1  0
 12 15  1  0
 14 39  1  0
 14 40  1  0
 14 41  1  0
 15 16  2  0
 15 17  1  0
 17 18  1  0
 17 42  1  0
 18 19  1  0
 18 43  1  0
 18 44  1  0
 19 20  2  0
 19 24  1  0
 20 21  1  0
 20 45  1  0
 21 22  2  0
 21 46  1  0
 22 23  1  0
 22 27  1  0
 23 24  2  0
 23 25  1  0
 24 47  1  0
 25 26  1  0
 26 27  1  0
 26 48  1  0
 26 49  1  0
 28 29  2  0
 28 50  1  0
 29 51  1  0
M  END

