
     RDKit          3D

 41 44  0  0  0  0  0  0  0  0999 V2000
    0.7494   -1.0251    0.5643 C   0  0  0  0  0  0  0  0  0  0  0  0
    1.2517    0.2284    0.3705 C   0  0  0  0  0  0  0  0  0  0  0  0
    2.6628    0.6293    0.3637 C   0  0  0  0  0  0  0  0  0  0  0  0
    3.6837   -0.3175    0.1245 C   0  0  0  0  0  0  0  0  0  0  0  0
    5.0282    0.0483    0.1441 C   0  0  0  0  0  0  0  0  0  0  0  0
    5.3969    1.3752    0.3951 C   0  0  0  0  0  0  0  0  0  0  0  0
    4.4016    2.3287    0.6249 C   0  0  0  0  0  0  0  0  0  0  0  0
    3.0546    1.9620    0.6086 C   0  0  0  0  0  0  0  0  0  0  0  0
    0.0727    1.1839    0.1823 C   0  0  1  0  0  0  0  0  0  0  0  0
    0.1198    1.9717   -1.1243 C   0  0  0  0  0  0  0  0  0  0  0  0
    0.1347    1.2945   -2.3545 C   0  0  0  0  0  0  0  0  0  0  0  0
    0.1785    2.0002   -3.5576 C   0  0  0  0  0  0  0  0  0  0  0  0
    0.2083    3.3996   -3.5541 C   0  0  0  0  0  0  0  0  0  0  0  0
    0.1938    4.0841   -2.3376 C   0  0  0  0  0  0  0  0  0  0  0  0
    0.1499    3.3727   -1.1333 C   0  0  0  0  0  0  0  0  0  0  0  0
   -1.1475    0.2713    0.3110 C   0  0  0  0  0  0  0  0  0  0  0  0
   -2.5411    0.7229    0.2347 C   0  0  0  0  0  0  0  0  0  0  0  0
   -2.8950    2.0708    0.4525 C   0  0  0  0  0  0  0  0  0  0  0  0
   -4.2269    2.4863    0.4019 C   0  0  0  0  0  0  0  0  0  0  0  0
   -5.2444    1.5679    0.1306 C   0  0  0  0  0  0  0  0  0  0  0  0
   -4.9130    0.2266   -0.0945 C   0  0  0  0  0  0  0  0  0  0  0  0
   -3.5836   -0.1880   -0.0474 C   0  0  0  0  0  0  0  0  0  0  0  0
   -0.7005   -0.9991    0.5285 C   0  0  0  0  0  0  0  0  0  0  0  0
    1.3373   -1.9222    0.7643 H   0  0  0  0  0  0  0  0  0  0  0  0
    3.4145   -1.3520   -0.0995 H   0  0  0  0  0  0  0  0  0  0  0  0
    5.7959   -0.7059   -0.0481 H   0  0  0  0  0  0  0  0  0  0  0  0
    6.4511    1.6628    0.4065 H   0  0  0  0  0  0  0  0  0  0  0  0
    4.6745    3.3688    0.8213 H   0  0  0  0  0  0  0  0  0  0  0  0
    2.2969    2.7228    0.8012 H   0  0  0  0  0  0  0  0  0  0  0  0
    0.0646    1.9028    1.0218 H   0  0  0  0  0  0  0  0  0  0  0  0
    0.1114    0.2017   -2.3642 H   0  0  0  0  0  0  0  0  0  0  0  0
    0.1894    1.4552   -4.5053 H   0  0  0  0  0  0  0  0  0  0  0  0
    0.2426    3.9519   -4.4966 H   0  0  0  0  0  0  0  0  0  0  0  0
    0.2165    5.1769   -2.3214 H   0  0  0  0  0  0  0  0  0  0  0  0
    0.1388    3.9205   -0.1861 H   0  0  0  0  0  0  0  0  0  0  0  0
   -2.1200    2.8052    0.6759 H   0  0  0  0  0  0  0  0  0  0  0  0
   -4.4705    3.5373    0.5786 H   0  0  0  0  0  0  0  0  0  0  0  0
   -6.2868    1.8937    0.0898 H   0  0  0  0  0  0  0  0  0  0  0  0
   -5.6979   -0.5008   -0.3185 H   0  0  0  0  0  0  0  0  0  0  0  0
   -3.3423   -1.2334   -0.2519 H   0  0  0  0  0  0  0  0  0  0  0  0
   -1.3291   -1.8745    0.6986 H   0  0  0  0  0  0  0  0  0  0  0  0
  1  2  2  0
  1 23  1  0
  1 24  1  0
  2  3  1  0
  2  9  1  0
  3  4  2  0
  3  8  1  0
  4  5  1  0
  4 25  1  0
  5  6  2  0
  5 26  1  0
  6  7  1  0
  6 27  1  0
  7  8  2  0
  7 28  1  0
  8 29  1  0
  9 10  1  0
  9 16  1  0
  9 30  1  1
 10 11  2  0
 10 15  1  0
 11 12  1  0
 11 31  1  0
 12 13  2  0
 12 32  1  0
 13 14  1  0
 13 33  1  0
 14 15  2  0
 14 34  1  0
 15 35  1  0
 16 17  1  0
 16 23  2  0
 17 18  2  0
 17 22  1  0
 18 19  1  0
 18 36  1  0
 19 20  2  0
 19 37  1  0
 20 21  1  0
 20 38  1  0
 21 22  2  0
 21 39  1  0
 22 40  1  0
 23 41  1  0
M  END

