
     RDKit          3D

 28 29  0  0  0  0  0  0  0  0999 V2000
    1.4011    0.9497   -1.9197 C   0  0  0  0  0  0  0  0  0  0  0  0
    2.7912    0.7647   -1.6650 O   0  0  0  0  0  0  0  0  0  0  0  0
    3.1353   -0.3999   -1.0476 C   0  0  0  0  0  0  0  0  0  0  0  0
    2.3191   -1.2351   -0.7224 O   0  0  0  0  0  0  0  0  0  0  0  0
    4.5775   -0.4823   -0.8455 C   0  0  0  0  0  0  0  0  0  0  0  0
    5.4342    0.5028   -1.2980 N   0  0  0  0  0  0  0  0  0  0  0  0
    5.1159    1.3323   -1.7830 H   0  0  0  0  0  0  0  0  0  0  0  0
    6.7134    0.1815   -0.9761 C   0  0  0  0  0  0  0  0  0  0  0  0
    6.6984   -1.0333   -0.3018 C   0  0  0  0  0  0  0  0  0  0  0  0
    5.3467   -1.4650   -0.2090 C   0  0  0  0  0  0  0  0  0  0  0  0
    4.8368   -2.7356    0.4291 C   0  0  1  0  0  0  0  0  0  0  0  0
    4.7133   -3.9159   -0.5816 C   0  0  0  0  0  0  0  0  0  0  0  0
    5.2003   -5.1394    0.2073 C   0  0  0  0  0  0  0  0  0  0  0  0
    6.2976   -4.5388    1.0899 C   0  0  0  0  0  0  0  0  0  0  0  0
    5.7055   -3.2701    1.4912 N   0  0  0  0  0  0  0  0  0  0  0  0
    1.3084    1.9122   -2.4387 H   0  0  0  0  0  0  0  0  0  0  0  0
    0.8281    0.9692   -0.9800 H   0  0  0  0  0  0  0  0  0  0  0  0
    1.0039    0.1382   -2.5483 H   0  0  0  0  0  0  0  0  0  0  0  0
    7.5466    0.8281   -1.2445 H   0  0  0  0  0  0  0  0  0  0  0  0
    7.5730   -1.5535    0.0836 H   0  0  0  0  0  0  0  0  0  0  0  0
    3.8363   -2.5156    0.8373 H   0  0  0  0  0  0  0  0  0  0  0  0
    5.3802   -3.7383   -1.4409 H   0  0  0  0  0  0  0  0  0  0  0  0
    3.6893   -4.0093   -0.9699 H   0  0  0  0  0  0  0  0  0  0  0  0
    5.5615   -5.9554   -0.4374 H   0  0  0  0  0  0  0  0  0  0  0  0
    4.3923   -5.5378    0.8427 H   0  0  0  0  0  0  0  0  0  0  0  0
    7.2389   -4.4399    0.5023 H   0  0  0  0  0  0  0  0  0  0  0  0
    6.5292   -5.1665    1.9679 H   0  0  0  0  0  0  0  0  0  0  0  0
    6.3502   -2.5939    1.8863 H   0  0  0  0  0  0  0  0  0  0  0  0
  1  2  1  0
  1 16  1  0
  1 17  1  0
  1 18  1  0
  2  3  1  0
  3  4  2  0
  3  5  1  0
  5  6  1  0
  5 10  2  0
  6  7  1  0
  6  8  1  0
  8  9  2  0
  8 19  1  0
  9 10  1  0
  9 20  1  0
 10 11  1  0
 11 12  1  0
 11 15  1  0
 11 21  1  1
 12 13  1  0
 12 22  1  0
 12 23  1  0
 13 14  1  0
 13 24  1  0
 13 25  1  0
 14 15  1  0
 14 26  1  0
 14 27  1  0
 15 28  1  0
M  END

