
     RDKit          3D

 64 65  0  0  0  0  0  0  0  0999 V2000
    1.6090   -6.9520    2.0162 C   0  0  0  0  0  0  0  0  0  0  0  0
    1.6616   -5.4523    2.2573 C   0  0  0  0  0  0  0  0  0  0  0  0
    2.7843   -4.8431    1.6027 O   0  0  0  0  0  0  0  0  0  0  0  0
    3.9628   -4.8524    2.2738 C   0  0  0  0  0  0  0  0  0  0  0  0
    4.1217   -5.3267    3.3803 O   0  0  0  0  0  0  0  0  0  0  0  0
    4.9287   -4.2420    1.5301 N   0  0  0  0  0  0  0  0  0  0  0  0
    6.3080   -4.1618    1.9654 C   0  0  0  0  0  0  0  0  0  0  0  0
    7.2324   -5.1730    1.2721 C   0  0  0  0  0  0  0  0  0  0  0  0
    8.6994   -5.0776    1.7088 C   0  0  0  0  0  0  0  0  0  0  0  0
    8.9365   -5.4976    3.1619 C   0  0  0  0  0  0  0  0  0  0  0  0
   10.3713   -5.3722    3.6032 C   0  0  0  0  0  0  0  0  0  0  0  0
   11.1902   -4.7196    2.9748 O   0  0  0  0  0  0  0  0  0  0  0  0
   10.8391   -6.2530    4.8015 C   0  0  1  0  0  0  0  0  0  0  0  0
    9.8452   -6.2997    5.8503 N   0  0  0  0  0  0  0  0  0  0  0  0
    9.4196   -5.1491    6.4489 C   0  0  0  0  0  0  0  0  0  0  0  0
    9.6058   -4.0591    5.9194 O   0  0  0  0  0  0  0  0  0  0  0  0
    8.6835   -5.2895    7.7495 C   0  0  0  0  0  0  0  0  0  0  0  0
    8.9272   -6.3397    8.6486 C   0  0  0  0  0  0  0  0  0  0  0  0
    8.2365   -6.4085    9.8567 C   0  0  0  0  0  0  0  0  0  0  0  0
    7.2870   -5.4214   10.1784 C   0  0  0  0  0  0  0  0  0  0  0  0
    6.5653   -5.4946   11.4190 C   0  0  0  0  0  0  0  0  0  0  0  0
    5.9813   -5.5554   12.4205 N   0  0  0  0  0  0  0  0  0  0  0  0
    7.0533   -4.3573    9.2856 C   0  0  0  0  0  0  0  0  0  0  0  0
    7.7569   -4.2911    8.0873 C   0  0  0  0  0  0  0  0  0  0  0  0
   10.8894   -7.5783    4.3140 O   0  0  0  0  0  0  0  0  0  0  0  0
   12.0454   -8.0297    3.5569 C   0  0  1  0  0  0  0  0  0  0  0  0
   12.8372   -9.0371    4.4001 C   0  0  0  0  0  0  0  0  0  0  0  0
   12.0587  -10.3413    4.5902 C   0  0  0  0  0  0  0  0  0  0  0  0
   11.6805  -10.8860    3.2912 N   0  0  0  0  0  0  0  0  0  0  0  0
   10.8093   -9.9922    2.5387 C   0  0  0  0  0  0  0  0  0  0  0  0
   11.5433   -8.6769    2.2627 C   0  0  0  0  0  0  0  0  0  0  0  0
   12.2205   -5.8387    5.4510 C   0  0  0  0  0  0  0  0  0  0  0  0
   12.5153   -6.2971    6.5244 O   0  0  0  0  0  0  0  0  0  0  0  0
   13.0138   -5.0484    4.7490 O   0  0  0  0  0  0  0  0  0  0  0  0
    0.6951   -7.3742    2.4646 H   0  0  0  0  0  0  0  0  0  0  0  0
    2.4761   -7.4484    2.4767 H   0  0  0  0  0  0  0  0  0  0  0  0
    1.5994   -7.1784    0.9384 H   0  0  0  0  0  0  0  0  0  0  0  0
    1.7114   -5.2316    3.3340 H   0  0  0  0  0  0  0  0  0  0  0  0
    0.7814   -4.9494    1.8299 H   0  0  0  0  0  0  0  0  0  0  0  0
    4.6692   -3.9284    0.6023 H   0  0  0  0  0  0  0  0  0  0  0  0
    6.2962   -4.3301    3.0516 H   0  0  0  0  0  0  0  0  0  0  0  0
    6.6849   -3.1370    1.7971 H   0  0  0  0  0  0  0  0  0  0  0  0
    7.1751   -5.0161    0.1806 H   0  0  0  0  0  0  0  0  0  0  0  0
    6.8451   -6.1901    1.4588 H   0  0  0  0  0  0  0  0  0  0  0  0
    9.0726   -4.0501    1.5652 H   0  0  0  0  0  0  0  0  0  0  0  0
    9.3154   -5.7103    1.0480 H   0  0  0  0  0  0  0  0  0  0  0  0
    8.5985   -6.5290    3.3531 H   0  0  0  0  0  0  0  0  0  0  0  0
    8.3631   -4.8596    3.8563 H   0  0  0  0  0  0  0  0  0  0  0  0
    9.7870   -7.1926    6.3264 H   0  0  0  0  0  0  0  0  0  0  0  0
    9.6913   -7.0897    8.4312 H   0  0  0  0  0  0  0  0  0  0  0  0
    8.4341   -7.2192   10.5602 H   0  0  0  0  0  0  0  0  0  0  0  0
    6.3228   -3.5880    9.5419 H   0  0  0  0  0  0  0  0  0  0  0  0
    7.6014   -3.4642    7.3923 H   0  0  0  0  0  0  0  0  0  0  0  0
   12.6780   -7.1623    3.3145 H   0  0  0  0  0  0  0  0  0  0  0  0
   13.0942   -8.5902    5.3719 H   0  0  0  0  0  0  0  0  0  0  0  0
   13.7787   -9.2559    3.8691 H   0  0  0  0  0  0  0  0  0  0  0  0
   11.1807  -10.1408    5.2454 H   0  0  0  0  0  0  0  0  0  0  0  0
   12.6905  -11.0748    5.1161 H   0  0  0  0  0  0  0  0  0  0  0  0
   11.2499  -11.8019    3.3969 H   0  0  0  0  0  0  0  0  0  0  0  0
    9.8573   -9.7654    3.0700 H   0  0  0  0  0  0  0  0  0  0  0  0
   10.5396  -10.4730    1.5845 H   0  0  0  0  0  0  0  0  0  0  0  0
   10.8931   -7.9732    1.7183 H   0  0  0  0  0  0  0  0  0  0  0  0
   12.4191   -8.8834    1.6257 H   0  0  0  0  0  0  0  0  0  0  0  0
   12.5234   -4.7469    3.9367 H   0  0  0  0  0  0  0  0  0  0  0  0
  1  2  1  0
  1 35  1  0
  1 36  1  0
  1 37  1  0
  2  3  1  0
  2 38  1  0
  2 39  1  0
  3  4  1  0
  4  5  2  0
  4  6  1  0
  6  7  1  0
  6 40  1  0
  7  8  1  0
  7 41  1  0
  7 42  1  0
  8  9  1  0
  8 43  1  0
  8 44  1  0
  9 10  1  0
  9 45  1  0
  9 46  1  0
 10 11  1  0
 10 47  1  0
 10 48  1  0
 11 12  2  0
 11 13  1  0
 13 14  1  0
 13 25  1  6
 13 32  1  0
 14 15  1  0
 14 49  1  0
 15 16  2  0
 15 17  1  0
 17 18  2  0
 17 24  1  0
 18 19  1  0
 18 50  1  0
 19 20  2  0
 19 51  1  0
 20 21  1  0
 20 23  1  0
 21 22  3  0
 23 24  2  0
 23 52  1  0
 24 53  1  0
 25 26  1  0
 26 27  1  0
 26 31  1  0
 26 54  1  6
 27 28  1  0
 27 55  1  0
 27 56  1  0
 28 29  1  0
 28 57  1  0
 28 58  1  0
 29 30  1  0
 29 59  1  0
 30 31  1  0
 30 60  1  0
 30 61  1  0
 31 62  1  0
 31 63  1  0
 32 33  2  0
 32 34  1  0
 34 64  1  0
M  END

