
     RDKit          3D

 43 44  0  0  0  0  0  0  0  0999 V2000
    1.0862   -0.4127   -0.7089 C   0  0  0  0  0  0  0  0  0  0  0  0
    2.0072   -0.1388    0.3392 O   0  0  0  0  0  0  0  0  0  0  0  0
    2.9313   -1.1019    0.6118 C   0  0  0  0  0  0  0  0  0  0  0  0
    4.2449   -0.9352    0.1575 C   0  0  0  0  0  0  0  0  0  0  0  0
    5.2489   -1.8653    0.4612 C   0  0  0  0  0  0  0  0  0  0  0  0
    6.6850   -1.7273    0.0182 C   0  0  0  0  0  0  0  0  0  0  0  0
    7.5774   -2.3539    0.5760 O   0  0  0  0  0  0  0  0  0  0  0  0
    6.9170   -0.8881   -1.0338 N   0  0  0  0  0  0  0  0  0  0  0  0
    8.2440   -0.6402   -1.5760 C   0  0  0  0  0  0  0  0  0  0  0  0
    8.7671    0.7825   -1.3258 C   0  0  0  0  0  0  0  0  0  0  0  0
    8.8963    1.1942    0.1469 C   0  0  0  0  0  0  0  0  0  0  0  0
    9.8402    0.3411    0.9991 C   0  0  1  0  0  0  0  0  0  0  0  0
    9.4338   -0.6836    1.0701 H   0  0  0  0  0  0  0  0  0  0  0  0
   11.3028    0.2411    0.5211 C   0  0  0  0  0  0  0  0  0  0  0  0
   12.0751   -0.3135    1.7430 C   0  0  0  0  0  0  0  0  0  0  0  0
   11.1959    0.0214    2.9839 C   0  0  0  0  0  0  0  0  0  0  0  0
   10.0018    0.8412    2.4539 C   0  0  1  0  0  0  0  0  0  0  0  0
    9.0878    0.6694    3.0434 H   0  0  0  0  0  0  0  0  0  0  0  0
   10.2246    2.2443    2.5353 O   0  0  0  0  0  0  0  0  0  0  0  0
    4.9240   -2.9781    1.2510 C   0  0  0  0  0  0  0  0  0  0  0  0
    3.6220   -3.1644    1.7099 C   0  0  0  0  0  0  0  0  0  0  0  0
    2.6278   -2.2337    1.3930 C   0  0  0  0  0  0  0  0  0  0  0  0
    1.0107   -2.4523    2.0114 Cl  0  0  0  0  0  0  0  0  0  0  0  0
    0.4320    0.4660   -0.7919 H   0  0  0  0  0  0  0  0  0  0  0  0
    0.4692   -1.2998   -0.4901 H   0  0  0  0  0  0  0  0  0  0  0  0
    1.6097   -0.5645   -1.6705 H   0  0  0  0  0  0  0  0  0  0  0  0
    4.4488   -0.0228   -0.4076 H   0  0  0  0  0  0  0  0  0  0  0  0
    6.1255   -0.4636   -1.4995 H   0  0  0  0  0  0  0  0  0  0  0  0
    8.2281   -0.8363   -2.6624 H   0  0  0  0  0  0  0  0  0  0  0  0
    8.9069   -1.3894   -1.1215 H   0  0  0  0  0  0  0  0  0  0  0  0
    8.1036    1.5025   -1.8393 H   0  0  0  0  0  0  0  0  0  0  0  0
    9.7444    0.8682   -1.8326 H   0  0  0  0  0  0  0  0  0  0  0  0
    7.8956    1.1828    0.6139 H   0  0  0  0  0  0  0  0  0  0  0  0
    9.2298    2.2439    0.1953 H   0  0  0  0  0  0  0  0  0  0  0  0
   11.6740    1.2468    0.2455 H   0  0  0  0  0  0  0  0  0  0  0  0
   11.4265   -0.3871   -0.3743 H   0  0  0  0  0  0  0  0  0  0  0  0
   13.0882    0.1123    1.8155 H   0  0  0  0  0  0  0  0  0  0  0  0
   12.2047   -1.4028    1.6489 H   0  0  0  0  0  0  0  0  0  0  0  0
   11.7291    0.5914    3.7603 H   0  0  0  0  0  0  0  0  0  0  0  0
   10.8314   -0.9028    3.4589 H   0  0  0  0  0  0  0  0  0  0  0  0
   11.0554    2.4490    2.0857 H   0  0  0  0  0  0  0  0  0  0  0  0
    5.7162   -3.6846    1.5031 H   0  0  0  0  0  0  0  0  0  0  0  0
    3.3633   -4.0269    2.3266 H   0  0  0  0  0  0  0  0  0  0  0  0
  1  2  1  0
  1 24  1  0
  1 25  1  0
  1 26  1  0
  2  3  1  0
  3  4  2  0
  3 22  1  0
  4  5  1  0
  4 27  1  0
  5  6  1  0
  5 20  2  0
  6  7  2  0
  6  8  1  0
  8  9  1  0
  8 28  1  0
  9 10  1  0
  9 29  1  0
  9 30  1  0
 10 11  1  0
 10 31  1  0
 10 32  1  0
 11 12  1  0
 11 33  1  0
 11 34  1  0
 12 13  1  1
 12 14  1  0
 12 17  1  0
 14 15  1  0
 14 35  1  0
 14 36  1  0
 15 16  1  0
 15 37  1  0
 15 38  1  0
 16 17  1  0
 16 39  1  0
 16 40  1  0
 17 18  1  1
 17 19  1  0
 19 41  1  0
 20 21  1  0
 20 42  1  0
 21 22  2  0
 21 43  1  0
 22 23  1  0
M  END

