
     RDKit          3D

 32 33  0  0  0  0  0  0  0  0999 V2000
    0.9862    0.2257    0.3042 C   0  0  0  0  0  0  0  0  0  0  0  0
    2.4510   -0.0542   -0.0651 C   0  0  1  0  0  0  0  0  0  0  0  0
    2.5740    0.1963   -1.5956 C   0  0  0  0  0  0  0  0  0  0  0  0
    2.8626    1.2863   -2.0365 O   0  0  0  0  0  0  0  0  0  0  0  0
    2.2952   -0.9792   -2.5404 C   0  0  0  0  0  0  0  0  0  0  0  0
    3.5849   -1.5460   -3.1054 C   0  0  0  0  0  0  0  0  0  0  0  0
    4.2864   -0.8543   -4.1059 C   0  0  0  0  0  0  0  0  0  0  0  0
    5.4806   -1.3677   -4.6165 C   0  0  0  0  0  0  0  0  0  0  0  0
    6.0012   -2.5747   -4.1398 C   0  0  0  0  0  0  0  0  0  0  0  0
    5.3031   -3.2524   -3.1378 C   0  0  0  0  0  0  0  0  0  0  0  0
    6.0000   -4.8978   -2.4556 Br  0  0  0  0  0  0  0  0  0  0  0  0
    4.1089   -2.7520   -2.6157 C   0  0  0  0  0  0  0  0  0  0  0  0
    3.4576    0.8353    0.6952 C   0  0  0  0  0  0  0  0  0  0  0  0
    4.7173   -0.0361    0.7305 C   0  0  0  0  0  0  0  0  0  0  0  0
    4.1504   -1.4468    0.9505 C   0  0  0  0  0  0  0  0  0  0  0  0
    2.8494   -1.4372    0.2587 N   0  0  0  0  0  0  0  0  0  0  0  0
    0.7186    1.2664    0.0681 H   0  0  0  0  0  0  0  0  0  0  0  0
    0.8318    0.0629    1.3836 H   0  0  0  0  0  0  0  0  0  0  0  0
    0.2953   -0.4363   -0.2440 H   0  0  0  0  0  0  0  0  0  0  0  0
    1.6839   -0.5753   -3.3623 H   0  0  0  0  0  0  0  0  0  0  0  0
    1.7366   -1.7669   -2.0215 H   0  0  0  0  0  0  0  0  0  0  0  0
    3.8942    0.0955   -4.4760 H   0  0  0  0  0  0  0  0  0  0  0  0
    6.0169   -0.8238   -5.3983 H   0  0  0  0  0  0  0  0  0  0  0  0
    6.9327   -2.9809   -4.5368 H   0  0  0  0  0  0  0  0  0  0  0  0
    3.5878   -3.2829   -1.8184 H   0  0  0  0  0  0  0  0  0  0  0  0
    3.0850    1.0151    1.7180 H   0  0  0  0  0  0  0  0  0  0  0  0
    3.5978    1.8048    0.1992 H   0  0  0  0  0  0  0  0  0  0  0  0
    5.4355    0.2571    1.5106 H   0  0  0  0  0  0  0  0  0  0  0  0
    5.2413    0.0186   -0.2379 H   0  0  0  0  0  0  0  0  0  0  0  0
    4.0321   -1.6451    2.0331 H   0  0  0  0  0  0  0  0  0  0  0  0
    4.8163   -2.2289    0.5473 H   0  0  0  0  0  0  0  0  0  0  0  0
    2.1323   -1.9286    0.7838 H   0  0  0  0  0  0  0  0  0  0  0  0
  1  2  1  0
  1 17  1  0
  1 18  1  0
  1 19  1  0
  2  3  1  6
  2 13  1  0
  2 16  1  0
  3  4  2  0
  3  5  1  0
  5  6  1  0
  5 20  1  0
  5 21  1  0
  6  7  2  0
  6 12  1  0
  7  8  1  0
  7 22  1  0
  8  9  2  0
  8 23  1  0
  9 10  1  0
  9 24  1  0
 10 11  1  0
 10 12  2  0
 12 25  1  0
 13 14  1  0
 13 26  1  0
 13 27  1  0
 14 15  1  0
 14 28  1  0
 14 29  1  0
 15 16  1  0
 15 30  1  0
 15 31  1  0
 16 32  1  0
M  END

