
     RDKit          3D

 78 83  0  0  0  0  0  0  0  0999 V2000
    5.8732   -2.6829   -0.7700 N   0  0  0  0  0  0  0  0  0  0  0  0
    5.1968   -1.7455   -0.0587 C   0  0  0  0  0  0  0  0  0  0  0  0
    5.7664   -0.5534    0.0757 N   0  0  0  0  0  0  0  0  0  0  0  0
    5.1486    0.3405    0.8659 C   0  0  0  0  0  0  0  0  0  0  0  0
    5.6815    1.5911    0.9734 N   0  0  0  0  0  0  0  0  0  0  0  0
    6.9412    1.9601    0.3379 C   0  0  0  0  0  0  0  0  0  0  0  0
    6.8049    3.3347   -0.3371 C   0  0  0  0  0  0  0  0  0  0  0  0
    6.2972    4.3779    0.5451 N   0  0  0  0  0  0  0  0  0  0  0  0
    7.2770    4.9902    1.4283 C   0  0  0  0  0  0  0  0  0  0  0  0
    6.9365    6.4233    1.8531 C   0  0  1  0  0  0  0  0  0  0  0  0
    5.8889    6.4978    2.8135 O   0  0  0  0  0  0  0  0  0  0  0  0
    8.1731    7.1685    2.3946 C   0  0  0  0  0  0  0  0  0  0  0  0
    9.2231    7.3546    1.4022 N   0  0  0  0  0  0  0  0  0  0  0  0
    9.0159    8.4675    0.4765 C   0  0  0  0  0  0  0  0  0  0  0  0
    9.4097    9.8334    1.0623 C   0  0  0  0  0  0  0  0  0  0  0  0
   10.7685    9.7814    1.5886 N   0  0  0  0  0  0  0  0  0  0  0  0
   11.6869   10.7613    1.3441 C   0  0  0  0  0  0  0  0  0  0  0  0
   12.8893   10.6491    1.9597 N   0  0  0  0  0  0  0  0  0  0  0  0
   13.8077   11.5433    1.6753 N   0  0  0  0  0  0  0  0  0  0  0  0
   13.5868   12.5354    0.8180 C   0  0  0  0  0  0  0  0  0  0  0  0
   14.7063   13.5006    0.6353 C   0  0  0  0  0  0  0  0  0  0  0  0
   15.2900   14.0666    1.7831 C   0  0  0  0  0  0  0  0  0  0  0  0
   16.3541   14.9608    1.6908 C   0  0  0  0  0  0  0  0  0  0  0  0
   16.8672   15.3149    0.4425 C   0  0  0  0  0  0  0  0  0  0  0  0
   16.3215   14.7517   -0.7135 C   0  0  0  0  0  0  0  0  0  0  0  0
   16.9998   15.1832   -2.2595 Cl  0  0  0  0  0  0  0  0  0  0  0  0
   15.2535   13.8400   -0.6204 C   0  0  0  0  0  0  0  0  0  0  0  0
   14.6475   13.0832   -2.0776 Cl  0  0  0  0  0  0  0  0  0  0  0  0
   12.2716   12.6810    0.2591 C   0  0  0  0  0  0  0  0  0  0  0  0
   11.8978   13.7531   -0.4822 N   0  0  0  0  0  0  0  0  0  0  0  0
   11.3438   11.7681    0.5242 N   0  0  0  0  0  0  0  0  0  0  0  0
   11.0270    8.6919    2.5259 C   0  0  0  0  0  0  0  0  0  0  0  0
   10.5965    7.3575    1.9002 C   0  0  0  0  0  0  0  0  0  0  0  0
    5.0326    3.9591    1.1521 C   0  0  0  0  0  0  0  0  0  0  0  0
    5.1175    2.6015    1.8666 C   0  0  0  0  0  0  0  0  0  0  0  0
    4.0241    0.0827    1.5800 N   0  0  0  0  0  0  0  0  0  0  0  0
    3.4570   -1.0903    1.4250 N   0  0  0  0  0  0  0  0  0  0  0  0
    3.9511   -2.0130    0.6038 C   0  0  0  0  0  0  0  0  0  0  0  0
    3.2245   -3.3125    0.5737 C   0  0  0  0  0  0  0  0  0  0  0  0
    2.9396   -3.9427    1.7989 C   0  0  0  0  0  0  0  0  0  0  0  0
    2.2454   -5.1490    1.8514 C   0  0  0  0  0  0  0  0  0  0  0  0
    1.8132   -5.7623    0.6749 C   0  0  0  0  0  0  0  0  0  0  0  0
    2.0624   -5.1485   -0.5548 C   0  0  0  0  0  0  0  0  0  0  0  0
    1.4843   -5.9157   -2.0091 Cl  0  0  0  0  0  0  0  0  0  0  0  0
    2.7542   -3.9242   -0.6079 C   0  0  0  0  0  0  0  0  0  0  0  0
    2.9735   -3.1347   -2.1548 Cl  0  0  0  0  0  0  0  0  0  0  0  0
    6.6846   -2.3597   -1.2841 H   0  0  0  0  0  0  0  0  0  0  0  0
    5.3935   -3.5006   -1.1191 H   0  0  0  0  0  0  0  0  0  0  0  0
    7.2067    1.1856   -0.3910 H   0  0  0  0  0  0  0  0  0  0  0  0
    7.7455    1.9903    1.1008 H   0  0  0  0  0  0  0  0  0  0  0  0
    6.1064    3.2315   -1.1879 H   0  0  0  0  0  0  0  0  0  0  0  0
    7.7793    3.6426   -0.7492 H   0  0  0  0  0  0  0  0  0  0  0  0
    8.2323    5.0499    0.8842 H   0  0  0  0  0  0  0  0  0  0  0  0
    7.4846    4.4029    2.3567 H   0  0  0  0  0  0  0  0  0  0  0  0
    6.5479    6.9465    0.9648 H   0  0  0  0  0  0  0  0  0  0  0  0
    6.1756    6.0210    3.6058 H   0  0  0  0  0  0  0  0  0  0  0  0
    8.5911    6.5744    3.2273 H   0  0  0  0  0  0  0  0  0  0  0  0
    7.8026    8.1116    2.8466 H   0  0  0  0  0  0  0  0  0  0  0  0
    7.9630    8.4939    0.1567 H   0  0  0  0  0  0  0  0  0  0  0  0
    9.6239    8.2850   -0.4275 H   0  0  0  0  0  0  0  0  0  0  0  0
    8.7103   10.1152    1.8745 H   0  0  0  0  0  0  0  0  0  0  0  0
    9.3585   10.6172    0.2979 H   0  0  0  0  0  0  0  0  0  0  0  0
   14.8875   13.7803    2.7558 H   0  0  0  0  0  0  0  0  0  0  0  0
   16.7881   15.3914    2.5961 H   0  0  0  0  0  0  0  0  0  0  0  0
   17.6952   16.0190    0.3477 H   0  0  0  0  0  0  0  0  0  0  0  0
   12.5938   14.3457   -0.9120 H   0  0  0  0  0  0  0  0  0  0  0  0
   10.9814   13.7112   -0.9128 H   0  0  0  0  0  0  0  0  0  0  0  0
   10.4643    8.8718    3.4639 H   0  0  0  0  0  0  0  0  0  0  0  0
   12.0949    8.6932    2.7730 H   0  0  0  0  0  0  0  0  0  0  0  0
   10.7210    6.5445    2.6329 H   0  0  0  0  0  0  0  0  0  0  0  0
   11.2707    7.1390    1.0524 H   0  0  0  0  0  0  0  0  0  0  0  0
    4.2754    3.8838    0.3510 H   0  0  0  0  0  0  0  0  0  0  0  0
    4.6969    4.7332    1.8543 H   0  0  0  0  0  0  0  0  0  0  0  0
    4.1284    2.2611    2.1933 H   0  0  0  0  0  0  0  0  0  0  0  0
    5.7542    2.6822    2.7706 H   0  0  0  0  0  0  0  0  0  0  0  0
    3.2752   -3.4541    2.7147 H   0  0  0  0  0  0  0  0  0  0  0  0
    2.0404   -5.6217    2.8147 H   0  0  0  0  0  0  0  0  0  0  0  0
    1.2746   -6.7108    0.6933 H   0  0  0  0  0  0  0  0  0  0  0  0
  1  2  1  0
  1 47  1  0
  1 48  1  0
  2  3  2  0
  2 38  1  0
  3  4  1  0
  4  5  1  0
  4 36  2  0
  5  6  1  0
  5 35  1  0
  6  7  1  0
  6 49  1  0
  6 50  1  0
  7  8  1  0
  7 51  1  0
  7 52  1  0
  8  9  1  0
  8 34  1  0
  9 10  1  0
  9 53  1  0
  9 54  1  0
 10 11  1  0
 10 12  1  0
 10 55  1  6
 11 56  1  0
 12 13  1  0
 12 57  1  0
 12 58  1  0
 13 14  1  0
 13 33  1  0
 14 15  1  0
 14 59  1  0
 14 60  1  0
 15 16  1  0
 15 61  1  0
 15 62  1  0
 16 17  1  0
 16 32  1  0
 17 18  2  0
 17 31  1  0
 18 19  1  0
 19 20  2  0
 20 21  1  0
 20 29  1  0
 21 22  2  0
 21 27  1  0
 22 23  1  0
 22 63  1  0
 23 24  2  0
 23 64  1  0
 24 25  1  0
 24 65  1  0
 25 26  1  0
 25 27  2  0
 27 28  1  0
 29 30  1  0
 29 31  2  0
 30 66  1  0
 30 67  1  0
 32 33  1  0
 32 68  1  0
 32 69  1  0
 33 70  1  0
 33 71  1  0
 34 35  1  0
 34 72  1  0
 34 73  1  0
 35 74  1  0
 35 75  1  0
 36 37  1  0
 37 38  2  0
 38 39  1  0
 39 40  2  0
 39 45  1  0
 40 41  1  0
 40 76  1  0
 41 42  2  0
 41 77  1  0
 42 43  1  0
 42 78  1  0
 43 44  1  0
 43 45  2  0
 45 46  1  0
M  END

