
     RDKit          3D

 41 42  0  0  0  0  0  0  0  0999 V2000
    1.1010    0.6355   -0.3803 C   0  0  0  0  0  0  0  0  0  0  0  0
    2.5723    0.3878   -0.7124 C   0  0  0  0  0  0  0  0  0  0  0  0
    2.9630   -1.0893   -0.8952 C   0  0  1  0  0  0  0  0  0  0  0  0
    2.1587   -1.8124   -1.9970 C   0  0  0  0  0  0  0  0  0  0  0  0
    2.2874   -1.2166   -3.3998 C   0  0  0  0  0  0  0  0  0  0  0  0
    4.4025   -1.1577   -1.1592 N   0  0  0  0  0  0  0  0  0  0  0  0
    5.0419   -2.4343   -0.8898 C   0  0  0  0  0  0  0  0  0  0  0  0
    6.5321   -2.4084   -1.1704 C   0  0  0  0  0  0  0  0  0  0  0  0
    7.4117   -3.1719   -0.3917 C   0  0  0  0  0  0  0  0  0  0  0  0
    8.7771   -3.1810   -0.6799 C   0  0  0  0  0  0  0  0  0  0  0  0
    9.9497   -4.2303    0.3956 Br  0  0  0  0  0  0  0  0  0  0  0  0
    9.3135   -2.4419   -1.7494 C   0  0  0  0  0  0  0  0  0  0  0  0
    8.4211   -1.6604   -2.5206 C   0  0  0  0  0  0  0  0  0  0  0  0
    7.0545   -1.6502   -2.2245 C   0  0  0  0  0  0  0  0  0  0  0  0
    8.8338   -0.9573   -3.6178 O   0  0  0  0  0  0  0  0  0  0  0  0
    9.8541    0.0232   -3.4660 C   0  0  0  0  0  0  0  0  0  0  0  0
   11.2505   -0.5721   -3.3423 C   0  0  0  0  0  0  0  0  0  0  0  0
   11.4466   -1.3940   -2.0763 C   0  0  0  0  0  0  0  0  0  0  0  0
   10.6346   -2.5639   -2.0469 O   0  0  0  0  0  0  0  0  0  0  0  0
    0.9228    1.7008   -0.1641 H   0  0  0  0  0  0  0  0  0  0  0  0
    0.7849    0.0605    0.5063 H   0  0  0  0  0  0  0  0  0  0  0  0
    0.4349    0.3558   -1.2116 H   0  0  0  0  0  0  0  0  0  0  0  0
    3.1956    0.7985    0.1034 H   0  0  0  0  0  0  0  0  0  0  0  0
    2.8573    0.9485   -1.6191 H   0  0  0  0  0  0  0  0  0  0  0  0
    2.7195   -1.6078    0.0621 H   0  0  0  0  0  0  0  0  0  0  0  0
    1.0992   -1.8401   -1.6909 H   0  0  0  0  0  0  0  0  0  0  0  0
    2.4750   -2.8692   -2.0210 H   0  0  0  0  0  0  0  0  0  0  0  0
    1.8543   -0.2049   -3.4611 H   0  0  0  0  0  0  0  0  0  0  0  0
    1.7637   -1.8409   -4.1411 H   0  0  0  0  0  0  0  0  0  0  0  0
    3.3440   -1.1440   -3.6987 H   0  0  0  0  0  0  0  0  0  0  0  0
    4.8827   -0.4284   -0.6332 H   0  0  0  0  0  0  0  0  0  0  0  0
    4.5789   -3.2009   -1.5374 H   0  0  0  0  0  0  0  0  0  0  0  0
    4.8794   -2.7917    0.1524 H   0  0  0  0  0  0  0  0  0  0  0  0
    7.0390   -3.7601    0.4490 H   0  0  0  0  0  0  0  0  0  0  0  0
    6.3956   -1.0402   -2.8434 H   0  0  0  0  0  0  0  0  0  0  0  0
    9.6283    0.6644   -2.5914 H   0  0  0  0  0  0  0  0  0  0  0  0
    9.7873    0.6505   -4.3676 H   0  0  0  0  0  0  0  0  0  0  0  0
   11.9877    0.2507   -3.3495 H   0  0  0  0  0  0  0  0  0  0  0  0
   11.4554   -1.2050   -4.2220 H   0  0  0  0  0  0  0  0  0  0  0  0
   11.2486   -0.7795   -1.1772 H   0  0  0  0  0  0  0  0  0  0  0  0
   12.4818   -1.7606   -2.0120 H   0  0  0  0  0  0  0  0  0  0  0  0
  1  2  1  0
  1 20  1  0
  1 21  1  0
  1 22  1  0
  2  3  1  0
  2 23  1  0
  2 24  1  0
  3  4  1  0
  3  6  1  0
  3 25  1  1
  4  5  1  0
  4 26  1  0
  4 27  1  0
  5 28  1  0
  5 29  1  0
  5 30  1  0
  6  7  1  0
  6 31  1  0
  7  8  1  0
  7 32  1  0
  7 33  1  0
  8  9  2  0
  8 14  1  0
  9 10  1  0
  9 34  1  0
 10 11  1  0
 10 12  2  0
 12 13  1  0
 12 19  1  0
 13 14  2  0
 13 15  1  0
 14 35  1  0
 15 16  1  0
 16 17  1  0
 16 36  1  0
 16 37  1  0
 17 18  1  0
 17 38  1  0
 17 39  1  0
 18 19  1  0
 18 40  1  0
 18 41  1  0
M  END

