
     RDKit          3D

 54 57  0  0  0  0  0  0  0  0999 V2000
   -0.3721    5.8949    5.1145 N   0  0  0  0  0  0  0  0  0  0  0  0
    0.3939    5.1389    5.7902 C   0  0  0  0  0  0  0  0  0  0  0  0
    0.6529    5.1046    7.2980 C   0  0  0  0  0  0  0  0  0  0  0  0
    1.5590    3.9170    7.4726 C   0  0  0  0  0  0  0  0  0  0  0  0
    1.8218    3.3870    6.2724 C   0  0  0  0  0  0  0  0  0  0  0  0
    1.1724    4.0949    5.2291 N   0  0  0  0  0  0  0  0  0  0  0  0
    1.3774    3.7211    3.8910 C   0  0  0  0  0  0  0  0  0  0  0  0
    2.0330    2.7295    3.6421 O   0  0  0  0  0  0  0  0  0  0  0  0
    0.7425    4.5751    2.7854 C   0  0  2  0  0  0  0  0  0  0  0  0
    0.7057    5.6193    3.1104 H   0  0  0  0  0  0  0  0  0  0  0  0
   -0.6523    4.0469    2.3865 C   0  0  0  0  0  0  0  0  0  0  0  0
   -0.3321    2.9699    1.3396 C   0  0  0  0  0  0  0  0  0  0  0  0
    0.8683    3.5498    0.5745 C   0  0  0  0  0  0  0  0  0  0  0  0
    1.5100    4.4298    1.5533 N   0  0  0  0  0  0  0  0  0  0  0  0
    2.7491    5.0014    1.4675 C   0  0  0  0  0  0  0  0  0  0  0  0
    3.2086    5.6539    2.3956 O   0  0  0  0  0  0  0  0  0  0  0  0
    3.5130    4.7764    0.1658 C   0  0  0  0  0  0  0  0  0  0  0  0
    4.7992    5.5979    0.0879 C   0  0  0  0  0  0  0  0  0  0  0  0
    5.6151    5.3963   -1.1982 C   0  0  2  0  0  0  0  0  0  0  0  0
    4.9334    5.5183   -2.0635 H   0  0  0  0  0  0  0  0  0  0  0  0
    6.2613    4.0073   -1.3086 C   0  0  0  0  0  0  0  0  0  0  0  0
    6.9409    3.8177   -2.6674 C   0  0  0  0  0  0  0  0  0  0  0  0
    7.8237    4.9832   -3.0728 C   0  0  0  0  0  0  0  0  0  0  0  0
    8.7680    4.8230   -4.1009 C   0  0  0  0  0  0  0  0  0  0  0  0
    9.5718    5.8816   -4.5219 C   0  0  0  0  0  0  0  0  0  0  0  0
    9.4382    7.1331   -3.9109 C   0  0  0  0  0  0  0  0  0  0  0  0
    8.5051    7.3029   -2.8889 C   0  0  0  0  0  0  0  0  0  0  0  0
    7.6908    6.2429   -2.4549 C   0  0  0  0  0  0  0  0  0  0  0  0
    6.7147    6.4630   -1.3140 C   0  0  0  0  0  0  0  0  0  0  0  0
   -0.8342    6.5726    5.7249 H   0  0  0  0  0  0  0  0  0  0  0  0
   -0.3021    5.0195    7.8460 H   0  0  0  0  0  0  0  0  0  0  0  0
    1.1193    6.0532    7.6218 H   0  0  0  0  0  0  0  0  0  0  0  0
    1.9502    3.5597    8.4236 H   0  0  0  0  0  0  0  0  0  0  0  0
    2.4408    2.5391    5.9909 H   0  0  0  0  0  0  0  0  0  0  0  0
   -1.2287    4.8746    1.9433 H   0  0  0  0  0  0  0  0  0  0  0  0
   -1.2277    3.6731    3.2447 H   0  0  0  0  0  0  0  0  0  0  0  0
   -1.1813    2.7426    0.6779 H   0  0  0  0  0  0  0  0  0  0  0  0
   -0.0326    2.0366    1.8401 H   0  0  0  0  0  0  0  0  0  0  0  0
    0.5409    4.1212   -0.3146 H   0  0  0  0  0  0  0  0  0  0  0  0
    1.5535    2.7609    0.2263 H   0  0  0  0  0  0  0  0  0  0  0  0
    2.8527    5.0054   -0.6897 H   0  0  0  0  0  0  0  0  0  0  0  0
    3.7274    3.6955    0.0903 H   0  0  0  0  0  0  0  0  0  0  0  0
    5.4241    5.3700    0.9676 H   0  0  0  0  0  0  0  0  0  0  0  0
    4.5372    6.6643    0.1899 H   0  0  0  0  0  0  0  0  0  0  0  0
    5.5168    3.2088   -1.1584 H   0  0  0  0  0  0  0  0  0  0  0  0
    7.0037    3.8975   -0.4965 H   0  0  0  0  0  0  0  0  0  0  0  0
    6.1625    3.6811   -3.4423 H   0  0  0  0  0  0  0  0  0  0  0  0
    7.5315    2.8860   -2.6755 H   0  0  0  0  0  0  0  0  0  0  0  0
    8.8703    3.8430   -4.5777 H   0  0  0  0  0  0  0  0  0  0  0  0
   10.3005    5.7325   -5.3230 H   0  0  0  0  0  0  0  0  0  0  0  0
   10.0599    7.9735   -4.2310 H   0  0  0  0  0  0  0  0  0  0  0  0
    8.3999    8.2813   -2.4096 H   0  0  0  0  0  0  0  0  0  0  0  0
    6.2604    7.4643   -1.4065 H   0  0  0  0  0  0  0  0  0  0  0  0
    7.2808    6.4838   -0.3624 H   0  0  0  0  0  0  0  0  0  0  0  0
  1  2  2  0
  1 30  1  0
  2  3  1  0
  2  6  1  0
  3  4  1  0
  3 31  1  0
  3 32  1  0
  4  5  2  0
  4 33  1  0
  5  6  1  0
  5 34  1  0
  6  7  1  0
  7  8  2  0
  7  9  1  0
  9 10  1  1
  9 11  1  0
  9 14  1  0
 11 12  1  0
 11 35  1  0
 11 36  1  0
 12 13  1  0
 12 37  1  0
 12 38  1  0
 13 14  1  0
 13 39  1  0
 13 40  1  0
 14 15  1  0
 15 16  2  0
 15 17  1  0
 17 18  1  0
 17 41  1  0
 17 42  1  0
 18 19  1  0
 18 43  1  0
 18 44  1  0
 19 20  1  6
 19 21  1  0
 19 29  1  0
 21 22  1  0
 21 45  1  0
 21 46  1  0
 22 23  1  0
 22 47  1  0
 22 48  1  0
 23 24  2  0
 23 28  1  0
 24 25  1  0
 24 49  1  0
 25 26  2  0
 25 50  1  0
 26 27  1  0
 26 51  1  0
 27 28  2  0
 27 52  1  0
 28 29  1  0
 29 53  1  0
 29 54  1  0
M  END

