
     RDKit          3D

 63 67  0  0  0  0  0  0  0  0999 V2000
    1.1227   -0.0478    2.5267 C   0  0  0  0  0  0  0  0  0  0  0  0
    1.0248    0.9385    3.7015 C   0  0  0  0  0  0  0  0  0  0  0  0
    1.9825    2.1032    3.5778 C   0  0  0  0  0  0  0  0  0  0  0  0
    1.6197    3.2655    2.8776 C   0  0  0  0  0  0  0  0  0  0  0  0
    2.5114    4.3275    2.7195 C   0  0  0  0  0  0  0  0  0  0  0  0
    3.7987    4.2442    3.2669 C   0  0  0  0  0  0  0  0  0  0  0  0
    4.7304    5.3292    3.1065 N   0  0  0  0  0  0  0  0  0  0  0  0
    4.8522    6.3494    4.0115 C   0  0  0  0  0  0  0  0  0  0  0  0
    5.5695    7.3244    3.8184 O   0  0  0  0  0  0  0  0  0  0  0  0
    4.0729    6.2250    5.3313 C   0  0  0  0  0  0  0  0  0  0  0  0
    3.7152    7.5180    5.8600 N   0  0  0  0  0  0  0  0  0  0  0  0
    2.4531    7.9821    5.6627 N   0  0  0  0  0  0  0  0  0  0  0  0
    2.3457    9.1649    6.1520 N   0  0  0  0  0  0  0  0  0  0  0  0
    3.5583    9.5281    6.6958 C   0  0  0  0  0  0  0  0  0  0  0  0
    3.9576   10.7045    7.3564 C   0  0  0  0  0  0  0  0  0  0  0  0
    5.2696   10.7705    7.8026 C   0  0  0  0  0  0  0  0  0  0  0  0
    6.1754    9.6977    7.5959 C   0  0  0  0  0  0  0  0  0  0  0  0
    5.7997    8.5312    6.9422 C   0  0  0  0  0  0  0  0  0  0  0  0
    4.4678    8.4644    6.5004 C   0  0  0  0  0  0  0  0  0  0  0  0
    5.5304    5.4490    1.8478 C   0  0  2  0  0  0  0  0  0  0  0  0
    6.3651    6.1041    2.1284 H   0  0  0  0  0  0  0  0  0  0  0  0
    4.6872    6.2192    0.7959 C   0  0  0  0  0  0  0  0  0  0  0  0
    4.0763    5.6735   -0.1078 O   0  0  0  0  0  0  0  0  0  0  0  0
    4.6780    7.5631    1.0138 N   0  0  0  0  0  0  0  0  0  0  0  0
    3.7549    8.4435    0.3050 C   0  0  0  0  0  0  0  0  0  0  0  0
    2.4459    8.6192    1.0070 C   0  0  0  0  0  0  0  0  0  0  0  0
    1.1522    8.3070    0.6878 C   0  0  0  0  0  0  0  0  0  0  0  0
    0.3498    8.7179    1.8066 C   0  0  0  0  0  0  0  0  0  0  0  0
    1.2166    9.2393    2.7233 C   0  0  0  0  0  0  0  0  0  0  0  0
    2.4876    9.1875    2.2456 O   0  0  0  0  0  0  0  0  0  0  0  0
    6.1111    4.1328    1.3787 C   0  0  0  0  0  0  0  0  0  0  0  0
    7.4519    3.8407    1.6637 C   0  0  0  0  0  0  0  0  0  0  0  0
    7.9955    2.6229    1.2538 C   0  0  0  0  0  0  0  0  0  0  0  0
    7.1682    1.7315    0.5659 C   0  0  0  0  0  0  0  0  0  0  0  0
    5.8902    1.9910    0.2817 N   0  0  0  0  0  0  0  0  0  0  0  0
    5.3765    3.1586    0.6751 C   0  0  0  0  0  0  0  0  0  0  0  0
    4.1781    3.0910    3.9647 C   0  0  0  0  0  0  0  0  0  0  0  0
    3.2759    2.0373    4.1198 C   0  0  0  0  0  0  0  0  0  0  0  0
    0.4129   -0.8809    2.6529 H   0  0  0  0  0  0  0  0  0  0  0  0
    2.1361   -0.4723    2.4463 H   0  0  0  0  0  0  0  0  0  0  0  0
    0.8971    0.4492    1.5699 H   0  0  0  0  0  0  0  0  0  0  0  0
    1.2223    0.4032    4.6453 H   0  0  0  0  0  0  0  0  0  0  0  0
   -0.0070    1.3219    3.7709 H   0  0  0  0  0  0  0  0  0  0  0  0
    0.6163    3.3459    2.4502 H   0  0  0  0  0  0  0  0  0  0  0  0
    2.2091    5.2229    2.1730 H   0  0  0  0  0  0  0  0  0  0  0  0
    4.7031    5.6867    6.0589 H   0  0  0  0  0  0  0  0  0  0  0  0
    3.1425    5.6592    5.2104 H   0  0  0  0  0  0  0  0  0  0  0  0
    3.2515   11.5237    7.5040 H   0  0  0  0  0  0  0  0  0  0  0  0
    5.6215   11.6662    8.3199 H   0  0  0  0  0  0  0  0  0  0  0  0
    7.2027    9.7985    7.9550 H   0  0  0  0  0  0  0  0  0  0  0  0
    6.5096    7.7233    6.7613 H   0  0  0  0  0  0  0  0  0  0  0  0
    5.1019    7.9034    1.8769 H   0  0  0  0  0  0  0  0  0  0  0  0
    3.5693    8.0109   -0.6863 H   0  0  0  0  0  0  0  0  0  0  0  0
    4.2499    9.4196    0.1689 H   0  0  0  0  0  0  0  0  0  0  0  0
    0.8166    7.8374   -0.2345 H   0  0  0  0  0  0  0  0  0  0  0  0
   -0.7290    8.6281    1.9158 H   0  0  0  0  0  0  0  0  0  0  0  0
    1.1019    9.6407    3.7271 H   0  0  0  0  0  0  0  0  0  0  0  0
    8.0684    4.5679    2.2012 H   0  0  0  0  0  0  0  0  0  0  0  0
    9.0385    2.3707    1.4586 H   0  0  0  0  0  0  0  0  0  0  0  0
    7.5595    0.7641    0.2274 H   0  0  0  0  0  0  0  0  0  0  0  0
    4.3355    3.3525    0.4105 H   0  0  0  0  0  0  0  0  0  0  0  0
    5.1857    3.0224    4.3806 H   0  0  0  0  0  0  0  0  0  0  0  0
    3.5851    1.1442    4.6703 H   0  0  0  0  0  0  0  0  0  0  0  0
  1  2  1  0
  1 39  1  0
  1 40  1  0
  1 41  1  0
  2  3  1  0
  2 42  1  0
  2 43  1  0
  3  4  2  0
  3 38  1  0
  4  5  1  0
  4 44  1  0
  5  6  2  0
  5 45  1  0
  6  7  1  0
  6 37  1  0
  7  8  1  0
  7 20  1  0
  8  9  2  0
  8 10  1  0
 10 11  1  0
 10 46  1  0
 10 47  1  0
 11 12  1  0
 11 19  1  0
 12 13  2  0
 13 14  1  0
 14 15  1  0
 14 19  2  0
 15 16  2  0
 15 48  1  0
 16 17  1  0
 16 49  1  0
 17 18  2  0
 17 50  1  0
 18 19  1  0
 18 51  1  0
 20 21  1  1
 20 22  1  0
 20 31  1  0
 22 23  2  0
 22 24  1  0
 24 25  1  0
 24 52  1  0
 25 26  1  0
 25 53  1  0
 25 54  1  0
 26 27  2  0
 26 30  1  0
 27 28  1  0
 27 55  1  0
 28 29  2  0
 28 56  1  0
 29 30  1  0
 29 57  1  0
 31 32  2  0
 31 36  1  0
 32 33  1  0
 32 58  1  0
 33 34  2  0
 33 59  1  0
 34 35  1  0
 34 60  1  0
 35 36  2  0
 36 61  1  0
 37 38  2  0
 37 62  1  0
 38 63  1  0
M  END

