
     RDKit          3D

 37 38  0  0  0  0  0  0  0  0999 V2000
    5.3523   -1.7187   -0.1586 C   0  0  0  0  0  0  0  0  0  0  0  0
    5.3250   -0.5576    0.7300 N   0  0  0  0  0  0  0  0  0  0  0  0
    5.3141   -0.8537    2.1627 C   0  0  0  0  0  0  0  0  0  0  0  0
    6.2744    0.7388    0.2384 S   0  0  1  0  0  0  0  0  0  0  0  0
    6.3581    1.6669    1.3626 O   0  0  0  0  0  0  0  0  0  0  0  0
    7.4892    0.3079   -0.4503 O   0  0  0  0  0  0  0  0  0  0  0  0
    5.2137    1.3237   -0.9650 N   0  0  0  0  0  0  0  0  0  0  0  0
    5.5952    2.3526   -1.8640 C   0  0  0  0  0  0  0  0  0  0  0  0
    4.7319    3.4408   -2.0631 C   0  0  0  0  0  0  0  0  0  0  0  0
    5.0538    4.4376   -2.9801 C   0  0  0  0  0  0  0  0  0  0  0  0
    6.2363    4.3795   -3.7350 C   0  0  0  0  0  0  0  0  0  0  0  0
    6.5537    5.3900   -4.6720 N   0  0  0  0  0  0  0  0  0  0  0  0
    7.6249    6.3739   -4.4717 C   0  0  0  0  0  0  0  0  0  0  0  0
    7.4191    7.4875   -5.5286 C   0  0  0  0  0  0  0  0  0  0  0  0
    6.6334    6.8798   -6.6892 C   0  0  0  0  0  0  0  0  0  0  0  0
    5.3956    5.8735   -5.8278 S   0  0  1  0  0  0  0  0  0  0  0  0
    4.9456    4.7043   -6.5775 O   0  0  0  0  0  0  0  0  0  0  0  0
    4.3946    6.7776   -5.2416 O   0  0  0  0  0  0  0  0  0  0  0  0
    7.0855    3.2726   -3.5313 C   0  0  0  0  0  0  0  0  0  0  0  0
    8.5472    3.1073   -4.4761 Cl  0  0  0  0  0  0  0  0  0  0  0  0
    6.7820    2.2726   -2.6093 C   0  0  0  0  0  0  0  0  0  0  0  0
    4.4737   -2.3445    0.0614 H   0  0  0  0  0  0  0  0  0  0  0  0
    6.2666   -2.3265   -0.0322 H   0  0  0  0  0  0  0  0  0  0  0  0
    5.2870   -1.3903   -1.2040 H   0  0  0  0  0  0  0  0  0  0  0  0
    4.4092   -1.4408    2.3840 H   0  0  0  0  0  0  0  0  0  0  0  0
    5.2787    0.0810    2.7338 H   0  0  0  0  0  0  0  0  0  0  0  0
    6.1972   -1.4377    2.4839 H   0  0  0  0  0  0  0  0  0  0  0  0
    4.3044    1.4807   -0.5334 H   0  0  0  0  0  0  0  0  0  0  0  0
    3.8066    3.5160   -1.4861 H   0  0  0  0  0  0  0  0  0  0  0  0
    4.3848    5.2877   -3.1256 H   0  0  0  0  0  0  0  0  0  0  0  0
    8.5999    5.8771   -4.6019 H   0  0  0  0  0  0  0  0  0  0  0  0
    7.5908    6.7952   -3.4527 H   0  0  0  0  0  0  0  0  0  0  0  0
    8.3833    7.8959   -5.8643 H   0  0  0  0  0  0  0  0  0  0  0  0
    6.8320    8.3124   -5.0992 H   0  0  0  0  0  0  0  0  0  0  0  0
    7.2198    6.1902   -7.3133 H   0  0  0  0  0  0  0  0  0  0  0  0
    6.1000    7.6082   -7.3140 H   0  0  0  0  0  0  0  0  0  0  0  0
    7.4577    1.4302   -2.4779 H   0  0  0  0  0  0  0  0  0  0  0  0
  1  2  1  0
  1 22  1  0
  1 23  1  0
  1 24  1  0
  2  3  1  0
  4  2  1  1
  3 25  1  0
  3 26  1  0
  3 27  1  0
  4  5  2  0
  4  6  2  0
  4  7  1  0
  7  8  1  0
  7 28  1  0
  8  9  2  0
  8 21  1  0
  9 10  1  0
  9 29  1  0
 10 11  2  0
 10 30  1  0
 11 12  1  0
 11 19  1  0
 12 13  1  0
 16 12  1  1
 13 14  1  0
 13 31  1  0
 13 32  1  0
 14 15  1  0
 14 33  1  0
 14 34  1  0
 15 16  1  0
 15 35  1  0
 15 36  1  0
 16 17  2  0
 16 18  2  0
 19 20  1  0
 19 21  2  0
 21 37  1  0
M  END

