
     RDKit          3D

 40 43  0  0  0  0  0  0  0  0999 V2000
    0.9849   -0.7867    0.4426 O   0  0  0  0  0  0  0  0  0  0  0  0
    2.0608   -0.2873    0.1502 C   0  0  0  0  0  0  0  0  0  0  0  0
    2.5075    0.9135    0.6532 N   0  0  0  0  0  0  0  0  0  0  0  0
    1.8937    1.7631    1.5967 C   0  0  0  0  0  0  0  0  0  0  0  0
    0.6964    1.4527    2.2648 C   0  0  0  0  0  0  0  0  0  0  0  0
    0.1795    2.3619    3.1867 C   0  0  0  0  0  0  0  0  0  0  0  0
    0.8147    3.5732    3.4834 C   0  0  0  0  0  0  0  0  0  0  0  0
    2.0171    3.8847    2.8096 C   0  0  0  0  0  0  0  0  0  0  0  0
    2.5319    2.9821    1.8749 C   0  0  0  0  0  0  0  0  0  0  0  0
    2.7643    4.9988    3.0727 O   0  0  0  0  0  0  0  0  0  0  0  0
    2.1498    6.2786    2.9761 C   0  0  0  0  0  0  0  0  0  0  0  0
    1.2241    6.5977    4.1422 C   0  0  0  0  0  0  0  0  0  0  0  0
   -0.0140    5.7123    4.1976 C   0  0  0  0  0  0  0  0  0  0  0  0
    0.2811    4.3501    4.4752 O   0  0  0  0  0  0  0  0  0  0  0  0
    3.0255   -0.9482   -0.8025 C   0  0  0  0  0  0  0  0  0  0  0  0
    4.3911   -0.9073   -0.5591 C   0  0  0  0  0  0  0  0  0  0  0  0
    5.3339   -1.4867   -1.3386 N   0  0  0  0  0  0  0  0  0  0  0  0
    4.9274   -2.1381   -2.4031 C   0  0  0  0  0  0  0  0  0  0  0  0
    3.5609   -2.2851   -2.7768 C   0  0  0  0  0  0  0  0  0  0  0  0
    3.1791   -3.0079   -3.9391 C   0  0  0  0  0  0  0  0  0  0  0  0
    1.8483   -3.1332   -4.2738 C   0  0  0  0  0  0  0  0  0  0  0  0
    0.8556   -2.5406   -3.4535 C   0  0  0  0  0  0  0  0  0  0  0  0
    1.1940   -1.8330   -2.3173 C   0  0  0  0  0  0  0  0  0  0  0  0
    2.5608   -1.6805   -1.9477 C   0  0  0  0  0  0  0  0  0  0  0  0
    3.3701    1.2667    0.2572 H   0  0  0  0  0  0  0  0  0  0  0  0
    0.1864    0.5170    2.0528 H   0  0  0  0  0  0  0  0  0  0  0  0
   -0.7435    2.1354    3.7250 H   0  0  0  0  0  0  0  0  0  0  0  0
    3.4681    3.2559    1.3816 H   0  0  0  0  0  0  0  0  0  0  0  0
    1.6021    6.3581    2.0163 H   0  0  0  0  0  0  0  0  0  0  0  0
    2.9841    6.9954    2.9468 H   0  0  0  0  0  0  0  0  0  0  0  0
    0.9015    7.6508    4.0558 H   0  0  0  0  0  0  0  0  0  0  0  0
    1.7832    6.5018    5.0882 H   0  0  0  0  0  0  0  0  0  0  0  0
   -0.5843    5.7877    3.2506 H   0  0  0  0  0  0  0  0  0  0  0  0
   -0.6759    6.0372    5.0145 H   0  0  0  0  0  0  0  0  0  0  0  0
    4.7726   -0.4023    0.3357 H   0  0  0  0  0  0  0  0  0  0  0  0
    5.6994   -2.5967   -3.0359 H   0  0  0  0  0  0  0  0  0  0  0  0
    3.9581   -3.4599   -4.5592 H   0  0  0  0  0  0  0  0  0  0  0  0
    1.5536   -3.6890   -5.1673 H   0  0  0  0  0  0  0  0  0  0  0  0
   -0.1980   -2.6500   -3.7236 H   0  0  0  0  0  0  0  0  0  0  0  0
    0.4233   -1.4022   -1.6803 H   0  0  0  0  0  0  0  0  0  0  0  0
  1  2  2  0
  2  3  1  0
  2 15  1  0
  3  4  1  0
  3 25  1  0
  4  5  2  0
  4  9  1  0
  5  6  1  0
  5 26  1  0
  6  7  2  0
  6 27  1  0
  7  8  1  0
  7 14  1  0
  8  9  2  0
  8 10  1  0
  9 28  1  0
 10 11  1  0
 11 12  1  0
 11 29  1  0
 11 30  1  0
 12 13  1  0
 12 31  1  0
 12 32  1  0
 13 14  1  0
 13 33  1  0
 13 34  1  0
 15 16  2  0
 15 24  1  0
 16 17  1  0
 16 35  1  0
 17 18  2  0
 18 19  1  0
 18 36  1  0
 19 20  1  0
 19 24  2  0
 20 21  2  0
 20 37  1  0
 21 22  1  0
 21 38  1  0
 22 23  2  0
 22 39  1  0
 23 24  1  0
 23 40  1  0
M  END

