
     RDKit          3D

 56 59  0  0  0  0  0  0  0  0999 V2000
    2.1349   -1.8085    1.0375 C   0  0  0  0  0  0  0  0  0  0  0  0
    3.3527   -1.0146    0.5628 C   0  0  0  0  0  0  0  0  0  0  0  0
    3.6251    0.2384    1.4003 C   0  0  0  0  0  0  0  0  0  0  0  0
    4.8513    1.0232    0.9155 C   0  0  0  0  0  0  0  0  0  0  0  0
    5.1505    2.2073    1.7049 N   0  0  0  0  0  0  0  0  0  0  0  0
    5.8871    2.1659    2.8809 C   0  0  0  0  0  0  0  0  0  0  0  0
    6.5291    1.0650    3.4759 C   0  0  0  0  0  0  0  0  0  0  0  0
    7.2305    1.2899    4.6665 C   0  0  0  0  0  0  0  0  0  0  0  0
    7.8965    0.3215    5.3454 O   0  0  0  0  0  0  0  0  0  0  0  0
    7.9135   -1.0063    4.8560 C   0  0  0  0  0  0  0  0  0  0  0  0
    8.7341   -1.8558    5.8148 C   0  0  0  0  0  0  0  0  0  0  0  0
    8.8205   -3.3274    5.3762 C   0  0  0  0  0  0  0  0  0  0  0  0
    9.6352   -4.1834    6.3224 C   0  0  0  0  0  0  0  0  0  0  0  0
    9.0294   -4.8317    7.4105 C   0  0  0  0  0  0  0  0  0  0  0  0
    9.7854   -5.5925    8.3067 C   0  0  0  0  0  0  0  0  0  0  0  0
   11.1663   -5.7187    8.1295 C   0  0  0  0  0  0  0  0  0  0  0  0
   11.7830   -5.0799    7.0496 C   0  0  0  0  0  0  0  0  0  0  0  0
   11.0226   -4.3203    6.1562 C   0  0  0  0  0  0  0  0  0  0  0  0
    7.2850    2.5804    5.2515 C   0  0  0  0  0  0  0  0  0  0  0  0
    6.6429    3.6540    4.6551 C   0  0  0  0  0  0  0  0  0  0  0  0
    5.9321    3.4592    3.4585 C   0  0  0  0  0  0  0  0  0  0  0  0
    5.1692    4.3221    2.5888 C   0  0  0  0  0  0  0  0  0  0  0  0
    4.8474    5.6843    2.6158 C   0  0  0  0  0  0  0  0  0  0  0  0
    4.0656    6.1727    1.5743 C   0  0  0  0  0  0  0  0  0  0  0  0
    3.6183    5.4152    0.5625 N   0  0  0  0  0  0  0  0  0  0  0  0
    3.9072    4.1120    0.4956 C   0  0  0  0  0  0  0  0  0  0  0  0
    3.3541    3.3839   -0.7082 C   0  0  0  0  0  0  0  0  0  0  0  0
    4.6925    3.5188    1.5131 C   0  0  0  0  0  0  0  0  0  0  0  0
    1.9679   -2.7016    0.4149 H   0  0  0  0  0  0  0  0  0  0  0  0
    1.2180   -1.1974    0.9966 H   0  0  0  0  0  0  0  0  0  0  0  0
    2.2584   -2.1466    2.0798 H   0  0  0  0  0  0  0  0  0  0  0  0
    3.2139   -0.7240   -0.4947 H   0  0  0  0  0  0  0  0  0  0  0  0
    4.2462   -1.6656    0.5781 H   0  0  0  0  0  0  0  0  0  0  0  0
    3.7696   -0.0418    2.4584 H   0  0  0  0  0  0  0  0  0  0  0  0
    2.7428    0.9019    1.3801 H   0  0  0  0  0  0  0  0  0  0  0  0
    4.7213    1.3197   -0.1323 H   0  0  0  0  0  0  0  0  0  0  0  0
    5.7420    0.3737    0.9343 H   0  0  0  0  0  0  0  0  0  0  0  0
    6.4785    0.0751    3.0274 H   0  0  0  0  0  0  0  0  0  0  0  0
    8.3528   -1.0335    3.8395 H   0  0  0  0  0  0  0  0  0  0  0  0
    6.8803   -1.3979    4.7771 H   0  0  0  0  0  0  0  0  0  0  0  0
    8.2887   -1.7880    6.8211 H   0  0  0  0  0  0  0  0  0  0  0  0
    9.7464   -1.4259    5.8935 H   0  0  0  0  0  0  0  0  0  0  0  0
    9.2602   -3.3800    4.3650 H   0  0  0  0  0  0  0  0  0  0  0  0
    7.8010   -3.7426    5.2935 H   0  0  0  0  0  0  0  0  0  0  0  0
    7.9484   -4.7429    7.5553 H   0  0  0  0  0  0  0  0  0  0  0  0
    9.2927   -6.0920    9.1452 H   0  0  0  0  0  0  0  0  0  0  0  0
   11.7588   -6.3154    8.8276 H   0  0  0  0  0  0  0  0  0  0  0  0
   12.8616   -5.1763    6.8993 H   0  0  0  0  0  0  0  0  0  0  0  0
   11.5141   -3.8281    5.3114 H   0  0  0  0  0  0  0  0  0  0  0  0
    7.8452    2.6933    6.1810 H   0  0  0  0  0  0  0  0  0  0  0  0
    6.6916    4.6438    5.1159 H   0  0  0  0  0  0  0  0  0  0  0  0
    5.1905    6.3400    3.4193 H   0  0  0  0  0  0  0  0  0  0  0  0
    3.7801    7.2306    1.5470 H   0  0  0  0  0  0  0  0  0  0  0  0
    2.7151    4.0861   -1.2588 H   0  0  0  0  0  0  0  0  0  0  0  0
    2.7512    2.5035   -0.4340 H   0  0  0  0  0  0  0  0  0  0  0  0
    4.1523    3.0451   -1.3903 H   0  0  0  0  0  0  0  0  0  0  0  0
  1  2  1  0
  1 29  1  0
  1 30  1  0
  1 31  1  0
  2  3  1  0
  2 32  1  0
  2 33  1  0
  3  4  1  0
  3 34  1  0
  3 35  1  0
  4  5  1  0
  4 36  1  0
  4 37  1  0
  5  6  1  0
  5 28  1  0
  6  7  2  0
  6 21  1  0
  7  8  1  0
  7 38  1  0
  8  9  1  0
  8 19  2  0
  9 10  1  0
 10 11  1  0
 10 39  1  0
 10 40  1  0
 11 12  1  0
 11 41  1  0
 11 42  1  0
 12 13  1  0
 12 43  1  0
 12 44  1  0
 13 14  2  0
 13 18  1  0
 14 15  1  0
 14 45  1  0
 15 16  2  0
 15 46  1  0
 16 17  1  0
 16 47  1  0
 17 18  2  0
 17 48  1  0
 18 49  1  0
 19 20  1  0
 19 50  1  0
 20 21  2  0
 20 51  1  0
 21 22  1  0
 22 23  1  0
 22 28  2  0
 23 24  2  0
 23 52  1  0
 24 25  1  0
 24 53  1  0
 25 26  2  0
 26 27  1  0
 26 28  1  0
 27 54  1  0
 27 55  1  0
 27 56  1  0
M  END

