
     RDKit          3D

 45 46  0  0  0  0  0  0  0  0999 V2000
    4.8667    0.4895    3.6588 C   0  0  0  0  0  0  0  0  0  0  0  0
    4.8706   -0.0709    2.2483 C   0  0  0  0  0  0  0  0  0  0  0  0
    5.1706    0.9644    1.3416 O   0  0  0  0  0  0  0  0  0  0  0  0
    5.1926    0.5670   -0.0101 C   0  0  0  0  0  0  0  0  0  0  0  0
    5.5487    1.7626   -0.8820 C   0  0  0  0  0  0  0  0  0  0  0  0
    6.9674    2.2863   -0.6395 C   0  0  0  0  0  0  0  0  0  0  0  0
    7.2973    3.4640   -1.4503 N   0  0  0  0  0  0  0  0  0  0  0  0
    6.7386    4.6990   -0.8969 C   0  0  0  0  0  0  0  0  0  0  0  0
    6.5511    5.8531   -1.8987 C   0  0  1  0  0  0  0  0  0  0  0  0
    5.6438    5.4863   -3.0921 C   0  0  0  0  0  0  0  0  0  0  0  0
    4.1572    5.4219   -2.7074 C   0  0  0  0  0  0  0  0  0  0  0  0
    3.7240    6.6996   -1.9716 C   0  0  0  0  0  0  0  0  0  0  0  0
    4.5735    7.0438   -0.8362 N   0  0  0  0  0  0  0  0  0  0  0  0
    5.9875    7.1082   -1.1892 C   0  0  0  0  0  0  0  0  0  0  0  0
    8.7054    3.5664   -1.7254 C   0  0  1  0  0  0  0  0  0  0  0  0
    9.3287    2.6185   -2.7151 C   0  0  0  0  0  0  0  0  0  0  0  0
    9.1908    4.0790   -3.0594 C   0  0  0  0  0  0  0  0  0  0  0  0
    4.6292   -0.2999    4.3891 H   0  0  0  0  0  0  0  0  0  0  0  0
    4.1168    1.2902    3.7541 H   0  0  0  0  0  0  0  0  0  0  0  0
    5.8515    0.9127    3.9105 H   0  0  0  0  0  0  0  0  0  0  0  0
    3.8825   -0.5184    2.0070 H   0  0  0  0  0  0  0  0  0  0  0  0
    5.6165   -0.8897    2.1586 H   0  0  0  0  0  0  0  0  0  0  0  0
    4.2028    0.1612   -0.3086 H   0  0  0  0  0  0  0  0  0  0  0  0
    5.9287   -0.2534   -0.1586 H   0  0  0  0  0  0  0  0  0  0  0  0
    4.8062    2.5555   -0.6928 H   0  0  0  0  0  0  0  0  0  0  0  0
    5.4456    1.4781   -1.9425 H   0  0  0  0  0  0  0  0  0  0  0  0
    7.6797    1.4883   -0.9024 H   0  0  0  0  0  0  0  0  0  0  0  0
    7.1037    2.4814    0.4447 H   0  0  0  0  0  0  0  0  0  0  0  0
    7.3688    5.0672   -0.0544 H   0  0  0  0  0  0  0  0  0  0  0  0
    5.7622    4.4548   -0.4509 H   0  0  0  0  0  0  0  0  0  0  0  0
    7.5469    6.1215   -2.2886 H   0  0  0  0  0  0  0  0  0  0  0  0
    5.9696    4.5275   -3.5243 H   0  0  0  0  0  0  0  0  0  0  0  0
    5.7728    6.2539   -3.8772 H   0  0  0  0  0  0  0  0  0  0  0  0
    3.9705    4.5475   -2.0581 H   0  0  0  0  0  0  0  0  0  0  0  0
    3.5368    5.2717   -3.6083 H   0  0  0  0  0  0  0  0  0  0  0  0
    2.6804    6.6190   -1.6240 H   0  0  0  0  0  0  0  0  0  0  0  0
    3.7497    7.5492   -2.6809 H   0  0  0  0  0  0  0  0  0  0  0  0
    4.4219    6.3908   -0.0687 H   0  0  0  0  0  0  0  0  0  0  0  0
    6.5698    7.3273   -0.2775 H   0  0  0  0  0  0  0  0  0  0  0  0
    6.1240    7.9767   -1.8599 H   0  0  0  0  0  0  0  0  0  0  0  0
    9.3392    3.8339   -0.8592 H   0  0  0  0  0  0  0  0  0  0  0  0
    8.6561    1.9230   -3.2247 H   0  0  0  0  0  0  0  0  0  0  0  0
   10.3213    2.2158   -2.4945 H   0  0  0  0  0  0  0  0  0  0  0  0
    8.4339    4.3449   -3.8004 H   0  0  0  0  0  0  0  0  0  0  0  0
   10.0877    4.7050   -3.0762 H   0  0  0  0  0  0  0  0  0  0  0  0
  1  2  1  0
  1 18  1  0
  1 19  1  0
  1 20  1  0
  2  3  1  0
  2 21  1  0
  2 22  1  0
  3  4  1  0
  4  5  1  0
  4 23  1  0
  4 24  1  0
  5  6  1  0
  5 25  1  0
  5 26  1  0
  6  7  1  0
  6 27  1  0
  6 28  1  0
  7  8  1  0
  7 15  1  0
  8  9  1  0
  8 29  1  0
  8 30  1  0
  9 10  1  0
  9 14  1  0
  9 31  1  6
 10 11  1  0
 10 32  1  0
 10 33  1  0
 11 12  1  0
 11 34  1  0
 11 35  1  0
 12 13  1  0
 12 36  1  0
 12 37  1  0
 13 14  1  0
 13 38  1  0
 14 39  1  0
 14 40  1  0
 15 16  1  0
 15 17  1  0
 15 41  1  1
 16 17  1  0
 16 42  1  0
 16 43  1  0
 17 44  1  0
 17 45  1  0
M  END

