
     RDKit          3D

 35 37  0  0  0  0  0  0  0  0999 V2000
    1.1462   -0.8798    0.4724 C   0  0  0  0  0  0  0  0  0  0  0  0
    2.3856   -0.1165    0.6009 N   0  0  0  0  0  0  0  0  0  0  0  0
    2.9538    0.2192    1.8044 C   0  0  0  0  0  0  0  0  0  0  0  0
    4.0238    0.8170    1.8632 O   0  0  0  0  0  0  0  0  0  0  0  0
    2.2181   -0.1843    3.0866 C   0  0  1  0  0  0  0  0  0  0  0  0
    2.8904    0.3163    4.4192 C   0  0  0  0  0  0  0  0  0  0  0  0
    1.5915    1.0528    4.7008 C   0  0  0  0  0  0  0  0  0  0  0  0
    0.9325    1.8644    5.6157 C   0  0  0  0  0  0  0  0  0  0  0  0
   -0.3729    2.2569    5.2678 C   0  0  0  0  0  0  0  0  0  0  0  0
   -0.9714    1.8445    4.0673 C   0  0  0  0  0  0  0  0  0  0  0  0
   -0.2973    1.0149    3.1523 C   0  0  0  0  0  0  0  0  0  0  0  0
    0.9917    0.6365    3.5099 C   0  0  0  0  0  0  0  0  0  0  0  0
    2.9888    0.2968   -0.6413 C   0  0  0  0  0  0  0  0  0  0  0  0
    2.2160    1.0375   -1.5447 C   0  0  0  0  0  0  0  0  0  0  0  0
    2.6875    1.3600   -2.8176 C   0  0  0  0  0  0  0  0  0  0  0  0
    3.9653    0.9345   -3.1926 C   0  0  0  0  0  0  0  0  0  0  0  0
    4.7569    0.2227   -2.2951 C   0  0  0  0  0  0  0  0  0  0  0  0
    4.2995   -0.1116   -1.0031 C   0  0  0  0  0  0  0  0  0  0  0  0
    5.0833   -0.8553   -0.1311 N   0  0  0  0  0  0  0  0  0  0  0  0
    0.8710   -1.3456    1.4246 H   0  0  0  0  0  0  0  0  0  0  0  0
    1.2815   -1.6767   -0.2747 H   0  0  0  0  0  0  0  0  0  0  0  0
    0.3019   -0.2491    0.1484 H   0  0  0  0  0  0  0  0  0  0  0  0
    2.0398   -1.2729    3.0902 H   0  0  0  0  0  0  0  0  0  0  0  0
    3.7695    0.9498    4.2379 H   0  0  0  0  0  0  0  0  0  0  0  0
    3.1538   -0.4859    5.1271 H   0  0  0  0  0  0  0  0  0  0  0  0
    1.3856    2.1936    6.5545 H   0  0  0  0  0  0  0  0  0  0  0  0
   -0.9386    2.9013    5.9463 H   0  0  0  0  0  0  0  0  0  0  0  0
   -1.9879    2.1769    3.8402 H   0  0  0  0  0  0  0  0  0  0  0  0
   -0.7838    0.7012    2.2259 H   0  0  0  0  0  0  0  0  0  0  0  0
    1.2203    1.3661   -1.2380 H   0  0  0  0  0  0  0  0  0  0  0  0
    2.0661    1.9393   -3.5038 H   0  0  0  0  0  0  0  0  0  0  0  0
    4.3563    1.1713   -4.1856 H   0  0  0  0  0  0  0  0  0  0  0  0
    5.7650   -0.0880   -2.5853 H   0  0  0  0  0  0  0  0  0  0  0  0
    6.0317   -0.9958   -0.4655 H   0  0  0  0  0  0  0  0  0  0  0  0
    5.0775   -0.4666    0.8139 H   0  0  0  0  0  0  0  0  0  0  0  0
  1  2  1  0
  1 20  1  0
  1 21  1  0
  1 22  1  0
  2  3  1  0
  2 13  1  0
  3  4  2  0
  3  5  1  0
  5  6  1  0
  5 12  1  0
  5 23  1  1
  6  7  1  0
  6 24  1  0
  6 25  1  0
  7  8  2  0
  7 12  1  0
  8  9  1  0
  8 26  1  0
  9 10  2  0
  9 27  1  0
 10 11  1  0
 10 28  1  0
 11 12  2  0
 11 29  1  0
 13 14  2  0
 13 18  1  0
 14 15  1  0
 14 30  1  0
 15 16  2  0
 15 31  1  0
 16 17  1  0
 16 32  1  0
 17 18  2  0
 17 33  1  0
 18 19  1  0
 19 34  1  0
 19 35  1  0
M  END

