
     RDKit          3D

 23 24  0  0  0  0  0  0  0  0999 V2000
    4.6692    1.9160   -1.1943 F   0  0  0  0  0  0  0  0  0  0  0  0
    4.2153    0.8867   -0.4683 C   0  0  0  0  0  0  0  0  0  0  0  0
    3.1467    1.1096    0.4002 C   0  0  0  0  0  0  0  0  0  0  0  0
    2.7152   -0.0046    1.1277 C   0  0  0  0  0  0  0  0  0  0  0  0
    3.3390   -1.2379    0.9693 C   0  0  0  0  0  0  0  0  0  0  0  0
    4.4222   -1.3287    0.0552 C   0  0  0  0  0  0  0  0  0  0  0  0
    5.0971   -2.4940   -0.1637 N   0  0  0  0  0  0  0  0  0  0  0  0
    6.1770   -2.6132   -1.1451 C   0  0  0  0  0  0  0  0  0  0  0  0
    6.3583   -4.1296   -1.2816 C   0  0  0  0  0  0  0  0  0  0  0  0
    5.9889   -4.6548    0.1134 C   0  0  0  0  0  0  0  0  0  0  0  0
    4.8269   -3.7435    0.5376 C   0  0  0  0  0  0  0  0  0  0  0  0
    4.8353   -0.2532   -0.6470 N   0  0  0  0  0  0  0  0  0  0  0  0
    2.6917    2.0958    0.4891 H   0  0  0  0  0  0  0  0  0  0  0  0
    1.8789    0.0917    1.8253 H   0  0  0  0  0  0  0  0  0  0  0  0
    2.9971   -2.1082    1.5279 H   0  0  0  0  0  0  0  0  0  0  0  0
    7.0978   -2.1202   -0.7793 H   0  0  0  0  0  0  0  0  0  0  0  0
    5.9053   -2.1129   -2.0860 H   0  0  0  0  0  0  0  0  0  0  0  0
    7.3747   -4.4081   -1.5968 H   0  0  0  0  0  0  0  0  0  0  0  0
    5.6555   -4.5265   -2.0336 H   0  0  0  0  0  0  0  0  0  0  0  0
    6.8387   -4.5228    0.8037 H   0  0  0  0  0  0  0  0  0  0  0  0
    5.7144   -5.7200    0.1252 H   0  0  0  0  0  0  0  0  0  0  0  0
    4.7926   -3.5942    1.6309 H   0  0  0  0  0  0  0  0  0  0  0  0
    3.8476   -4.1674    0.2377 H   0  0  0  0  0  0  0  0  0  0  0  0
  1  2  1  0
  2  3  2  0
  2 12  1  0
  3  4  1  0
  3 13  1  0
  4  5  2  0
  4 14  1  0
  5  6  1  0
  5 15  1  0
  6  7  1  0
  6 12  2  0
  7  8  1  0
  7 11  1  0
  8  9  1  0
  8 16  1  0
  8 17  1  0
  9 10  1  0
  9 18  1  0
  9 19  1  0
 10 11  1  0
 10 20  1  0
 10 21  1  0
 11 22  1  0
 11 23  1  0
M  END

