
     RDKit          3D

 46 46  0  0  0  0  0  0  0  0999 V2000
    0.8677   -0.9554    1.9965 C   0  0  0  0  0  0  0  0  0  0  0  0
    2.3641   -1.2715    2.0273 C   0  0  0  0  0  0  0  0  0  0  0  0
    3.0242   -1.2144    0.6443 C   0  0  0  0  0  0  0  0  0  0  0  0
    4.5440   -1.4268    0.6338 C   0  0  0  0  0  0  0  0  0  0  0  0
    5.0404   -2.7982    1.1307 C   0  0  1  0  0  0  0  0  0  0  0  0
    4.4391   -4.0144    0.3761 C   0  0  0  0  0  0  0  0  0  0  0  0
    4.6486   -4.0285   -1.1402 C   0  0  0  0  0  0  0  0  0  0  0  0
    6.5692   -2.8544    1.0502 C   0  0  0  0  0  0  0  0  0  0  0  0
    7.1965   -2.4144    0.0968 O   0  0  0  0  0  0  0  0  0  0  0  0
    7.1806   -3.4688    2.1101 N   0  0  0  0  0  0  0  0  0  0  0  0
    8.6181   -3.6550    2.1668 C   0  0  1  0  0  0  0  0  0  0  0  0
    9.1901   -3.1214    3.5016 C   0  0  0  0  0  0  0  0  0  0  0  0
    8.6103   -3.7792    4.7491 C   0  0  0  0  0  0  0  0  0  0  0  0
    7.4816   -4.1964    4.8307 O   0  0  0  0  0  0  0  0  0  0  0  0
    9.4216   -3.8323    5.8220 O   0  0  0  0  0  0  0  0  0  0  0  0
    9.0814   -5.0846    1.8827 C   0  0  0  0  0  0  0  0  0  0  0  0
    8.3762   -6.2074    2.3424 C   0  0  0  0  0  0  0  0  0  0  0  0
    8.8517   -7.4979    2.0910 C   0  0  0  0  0  0  0  0  0  0  0  0
   10.0386   -7.6872    1.3773 C   0  0  0  0  0  0  0  0  0  0  0  0
   10.7475   -6.5759    0.9121 C   0  0  0  0  0  0  0  0  0  0  0  0
   10.2692   -5.2870    1.1628 C   0  0  0  0  0  0  0  0  0  0  0  0
    0.4212   -1.0038    3.0027 H   0  0  0  0  0  0  0  0  0  0  0  0
    0.3209   -1.6676    1.3558 H   0  0  0  0  0  0  0  0  0  0  0  0
    0.6798    0.0555    1.5969 H   0  0  0  0  0  0  0  0  0  0  0  0
    2.5124   -2.2702    2.4753 H   0  0  0  0  0  0  0  0  0  0  0  0
    2.8773   -0.5616    2.7019 H   0  0  0  0  0  0  0  0  0  0  0  0
    2.8168   -0.2255    0.1969 H   0  0  0  0  0  0  0  0  0  0  0  0
    2.5325   -1.9446   -0.0233 H   0  0  0  0  0  0  0  0  0  0  0  0
    5.0163   -0.6457    1.2565 H   0  0  0  0  0  0  0  0  0  0  0  0
    4.9373   -1.2660   -0.3816 H   0  0  0  0  0  0  0  0  0  0  0  0
    4.7590   -2.9147    2.1917 H   0  0  0  0  0  0  0  0  0  0  0  0
    3.3602   -4.0630    0.6022 H   0  0  0  0  0  0  0  0  0  0  0  0
    4.8738   -4.9306    0.8125 H   0  0  0  0  0  0  0  0  0  0  0  0
    4.1281   -3.1926   -1.6339 H   0  0  0  0  0  0  0  0  0  0  0  0
    4.2546   -4.9621   -1.5732 H   0  0  0  0  0  0  0  0  0  0  0  0
    5.7144   -3.9507   -1.4014 H   0  0  0  0  0  0  0  0  0  0  0  0
    6.6444   -3.7635    2.9201 H   0  0  0  0  0  0  0  0  0  0  0  0
    9.0204   -3.0179    1.3658 H   0  0  0  0  0  0  0  0  0  0  0  0
    8.9654   -2.0423    3.5815 H   0  0  0  0  0  0  0  0  0  0  0  0
   10.2878   -3.2209    3.4896 H   0  0  0  0  0  0  0  0  0  0  0  0
   10.3003   -3.4910    5.6031 H   0  0  0  0  0  0  0  0  0  0  0  0
    7.4490   -6.0750    2.9026 H   0  0  0  0  0  0  0  0  0  0  0  0
    8.2884   -8.3611    2.4552 H   0  0  0  0  0  0  0  0  0  0  0  0
   10.4064   -8.6972    1.1788 H   0  0  0  0  0  0  0  0  0  0  0  0
   11.6702   -6.7121    0.3420 H   0  0  0  0  0  0  0  0  0  0  0  0
   10.8203   -4.4226    0.7796 H   0  0  0  0  0  0  0  0  0  0  0  0
  1  2  1  0
  1 22  1  0
  1 23  1  0
  1 24  1  0
  2  3  1  0
  2 25  1  0
  2 26  1  0
  3  4  1  0
  3 27  1  0
  3 28  1  0
  4  5  1  0
  4 29  1  0
  4 30  1  0
  5  6  1  0
  5  8  1  0
  5 31  1  1
  6  7  1  0
  6 32  1  0
  6 33  1  0
  7 34  1  0
  7 35  1  0
  7 36  1  0
  8  9  2  0
  8 10  1  0
 10 11  1  0
 10 37  1  0
 11 12  1  0
 11 16  1  0
 11 38  1  6
 12 13  1  0
 12 39  1  0
 12 40  1  0
 13 14  2  0
 13 15  1  0
 15 41  1  0
 16 17  2  0
 16 21  1  0
 17 18  1  0
 17 42  1  0
 18 19  2  0
 18 43  1  0
 19 20  1  0
 19 44  1  0
 20 21  2  0
 20 45  1  0
 21 46  1  0
M  END

