
     RDKit          3D

 39 40  0  0  0  0  0  0  0  0999 V2000
    0.8731    0.1453    0.9737 C   0  0  0  0  0  0  0  0  0  0  0  0
    2.0935    0.2565    0.0579 C   0  0  1  0  0  0  0  0  0  0  0  0
    2.6241    1.5767    0.1091 O   0  0  0  0  0  0  0  0  0  0  0  0
    3.1966   -0.7896    0.3594 C   0  0  1  0  0  0  0  0  0  0  0  0
    2.7339   -2.2584    0.2362 C   0  0  0  0  0  0  0  0  0  0  0  0
    2.5874   -2.7087   -1.2299 C   0  0  0  0  0  0  0  0  0  0  0  0
    3.7914   -2.4903   -2.0298 N   0  0  0  0  0  0  0  0  0  0  0  0
    4.8212   -3.5081   -1.8796 C   0  0  0  0  0  0  0  0  0  0  0  0
    4.5958   -4.6689   -2.8637 C   0  0  0  0  0  0  0  0  0  0  0  0
    5.5682   -5.7345   -2.7096 N   0  0  0  0  0  0  0  0  0  0  0  0
    6.7167   -5.9268   -3.4351 C   0  0  0  0  0  0  0  0  0  0  0  0
    7.3738   -7.0100   -2.8623 C   0  0  0  0  0  0  0  0  0  0  0  0
    8.6111   -7.5653   -3.2091 N   0  0  0  0  0  0  0  0  0  0  0  0
    6.5282   -7.3884   -1.7850 C   0  0  0  0  0  0  0  0  0  0  0  0
    5.4499   -6.6073   -1.7092 N   0  0  0  0  0  0  0  0  0  0  0  0
    4.2331   -1.0992   -1.9571 C   0  0  0  0  0  0  0  0  0  0  0  0
    4.4479   -0.5847   -0.5235 C   0  0  0  0  0  0  0  0  0  0  0  0
    0.1866    0.9811    0.7716 H   0  0  0  0  0  0  0  0  0  0  0  0
    1.1728    0.1975    2.0358 H   0  0  0  0  0  0  0  0  0  0  0  0
    0.3191   -0.7943    0.8289 H   0  0  0  0  0  0  0  0  0  0  0  0
    1.7541    0.1438   -0.9854 H   0  0  0  0  0  0  0  0  0  0  0  0
    2.9280    1.7364    1.0141 H   0  0  0  0  0  0  0  0  0  0  0  0
    3.4891   -0.6146    1.4139 H   0  0  0  0  0  0  0  0  0  0  0  0
    1.7900   -2.4320    0.7775 H   0  0  0  0  0  0  0  0  0  0  0  0
    3.4850   -2.8988    0.7301 H   0  0  0  0  0  0  0  0  0  0  0  0
    1.7506   -2.1669   -1.7079 H   0  0  0  0  0  0  0  0  0  0  0  0
    2.3164   -3.7759   -1.2675 H   0  0  0  0  0  0  0  0  0  0  0  0
    4.8864   -3.9339   -0.8583 H   0  0  0  0  0  0  0  0  0  0  0  0
    5.8060   -3.0609   -2.0902 H   0  0  0  0  0  0  0  0  0  0  0  0
    4.6440   -4.2946   -3.8966 H   0  0  0  0  0  0  0  0  0  0  0  0
    3.5974   -5.1052   -2.7118 H   0  0  0  0  0  0  0  0  0  0  0  0
    6.9687   -5.2998   -4.2877 H   0  0  0  0  0  0  0  0  0  0  0  0
    8.8574   -7.4408   -4.1866 H   0  0  0  0  0  0  0  0  0  0  0  0
    8.6939   -8.5464   -2.9589 H   0  0  0  0  0  0  0  0  0  0  0  0
    6.6701   -8.2025   -1.0735 H   0  0  0  0  0  0  0  0  0  0  0  0
    3.4753   -0.4731   -2.4627 H   0  0  0  0  0  0  0  0  0  0  0  0
    5.1581   -0.9881   -2.5453 H   0  0  0  0  0  0  0  0  0  0  0  0
    4.7168    0.4821   -0.5449 H   0  0  0  0  0  0  0  0  0  0  0  0
    5.2963   -1.1265   -0.0694 H   0  0  0  0  0  0  0  0  0  0  0  0
  1  2  1  0
  1 18  1  0
  1 19  1  0
  1 20  1  0
  2  3  1  0
  2  4  1  0
  2 21  1  6
  3 22  1  0
  4  5  1  0
  4 17  1  0
  4 23  1  1
  5  6  1  0
  5 24  1  0
  5 25  1  0
  6  7  1  0
  6 26  1  0
  6 27  1  0
  7  8  1  0
  7 16  1  0
  8  9  1  0
  8 28  1  0
  8 29  1  0
  9 10  1  0
  9 30  1  0
  9 31  1  0
 10 11  1  0
 10 15  1  0
 11 12  2  0
 11 32  1  0
 12 13  1  0
 12 14  1  0
 13 33  1  0
 13 34  1  0
 14 15  2  0
 14 35  1  0
 16 17  1  0
 16 36  1  0
 16 37  1  0
 17 38  1  0
 17 39  1  0
M  END

