
     RDKit          3D

 76 79  0  0  0  0  0  0  0  0999 V2000
    3.6101   -3.9650    3.1260 C   0  0  0  0  0  0  0  0  0  0  0  0
    3.7396   -2.8082    4.1188 C   0  0  1  0  0  0  0  0  0  0  0  0
    4.5746   -3.1789    5.3508 C   0  0  0  0  0  0  0  0  0  0  0  0
    4.2802   -1.6299    3.4424 N   0  0  0  0  0  0  0  0  0  0  0  0
    3.8729   -0.3626    3.7325 C   0  0  0  0  0  0  0  0  0  0  0  0
    2.9534   -0.1202    4.4954 O   0  0  0  0  0  0  0  0  0  0  0  0
    4.5809    0.7629    2.9317 C   0  0  1  0  0  0  0  0  0  0  0  0
    4.3318    2.1627    3.5580 C   0  0  0  0  0  0  0  0  0  0  0  0
    3.1579    2.9130    2.9560 C   0  0  0  0  0  0  0  0  0  0  0  0
    1.8321    2.6026    3.3066 C   0  0  0  0  0  0  0  0  0  0  0  0
    0.7625    3.3011    2.7398 C   0  0  0  0  0  0  0  0  0  0  0  0
    0.9947    4.3224    1.8128 C   0  0  0  0  0  0  0  0  0  0  0  0
    2.3079    4.6404    1.4567 C   0  0  0  0  0  0  0  0  0  0  0  0
    3.3777    3.9411    2.0240 C   0  0  0  0  0  0  0  0  0  0  0  0
    6.0052    0.4573    2.6828 N   0  0  0  0  0  0  0  0  0  0  0  0
    6.4398    0.3943    1.2820 C   0  0  0  0  0  0  0  0  0  0  0  0
    6.4319    1.7254    0.5493 C   0  0  0  0  0  0  0  0  0  0  0  0
    7.1931    2.8256    0.9792 C   0  0  0  0  0  0  0  0  0  0  0  0
    7.1840    4.0263    0.2652 C   0  0  0  0  0  0  0  0  0  0  0  0
    6.4085    4.1508   -0.8934 C   0  0  0  0  0  0  0  0  0  0  0  0
    5.6367    3.0754   -1.3358 C   0  0  0  0  0  0  0  0  0  0  0  0
    5.6612    1.8886   -0.6072 C   0  0  0  0  0  0  0  0  0  0  0  0
    4.9067    0.8573   -1.0387 F   0  0  0  0  0  0  0  0  0  0  0  0
    6.8274    0.3458    3.7702 C   0  0  0  0  0  0  0  0  0  0  0  0
    6.3801    0.4201    4.9079 O   0  0  0  0  0  0  0  0  0  0  0  0
    8.3224    0.0438    3.5400 C   0  0  0  0  0  0  0  0  0  0  0  0
    9.1646    0.3475    4.6868 N   0  0  0  0  0  0  0  0  0  0  0  0
    9.6452   -0.6770    5.5615 C   0  0  0  0  0  0  0  0  0  0  0  0
    8.7238   -1.5299    6.1923 C   0  0  0  0  0  0  0  0  0  0  0  0
    9.1804   -2.5599    7.0174 C   0  0  0  0  0  0  0  0  0  0  0  0
   10.5498   -2.7290    7.2460 C   0  0  0  0  0  0  0  0  0  0  0  0
   11.4636   -1.8669    6.6334 C   0  0  0  0  0  0  0  0  0  0  0  0
   11.0210   -0.8499    5.7830 C   0  0  0  0  0  0  0  0  0  0  0  0
    9.6602    1.9584    4.8650 S   0  0  1  0  0  0  0  0  0  0  0  0
   11.1126    2.0785    4.7039 O   0  0  0  0  0  0  0  0  0  0  0  0
    8.7774    2.7065    3.9569 O   0  0  0  0  0  0  0  0  0  0  0  0
    9.2759    2.3725    6.5644 C   0  0  0  0  0  0  0  0  0  0  0  0
   10.2953    2.9049    7.3600 C   0  0  0  0  0  0  0  0  0  0  0  0
   10.0029    3.3068    8.6638 C   0  0  0  0  0  0  0  0  0  0  0  0
    8.6982    3.1645    9.1345 C   0  0  0  0  0  0  0  0  0  0  0  0
    8.4162    3.5476   10.3833 F   0  0  0  0  0  0  0  0  0  0  0  0
    7.6779    2.6308    8.3451 C   0  0  0  0  0  0  0  0  0  0  0  0
    7.9665    2.2310    7.0413 C   0  0  0  0  0  0  0  0  0  0  0  0
    3.1624   -4.8460    3.6114 H   0  0  0  0  0  0  0  0  0  0  0  0
    4.5977   -4.2705    2.7370 H   0  0  0  0  0  0  0  0  0  0  0  0
    2.9772   -3.6838    2.2704 H   0  0  0  0  0  0  0  0  0  0  0  0
    2.7378   -2.5071    4.4603 H   0  0  0  0  0  0  0  0  0  0  0  0
    5.6028   -3.4600    5.0640 H   0  0  0  0  0  0  0  0  0  0  0  0
    4.1282   -4.0336    5.8841 H   0  0  0  0  0  0  0  0  0  0  0  0
    4.6307   -2.3284    6.0463 H   0  0  0  0  0  0  0  0  0  0  0  0
    5.1256   -1.7443    2.8957 H   0  0  0  0  0  0  0  0  0  0  0  0
    4.1070    0.7477    1.9376 H   0  0  0  0  0  0  0  0  0  0  0  0
    5.2449    2.7567    3.4151 H   0  0  0  0  0  0  0  0  0  0  0  0
    4.1878    2.0357    4.6385 H   0  0  0  0  0  0  0  0  0  0  0  0
    1.6535    1.7991    4.0238 H   0  0  0  0  0  0  0  0  0  0  0  0
   -0.2615    3.0470    3.0276 H   0  0  0  0  0  0  0  0  0  0  0  0
    0.1563    4.8692    1.3728 H   0  0  0  0  0  0  0  0  0  0  0  0
    2.5036    5.4394    0.7363 H   0  0  0  0  0  0  0  0  0  0  0  0
    4.4017    4.2015    1.7420 H   0  0  0  0  0  0  0  0  0  0  0  0
    5.7820   -0.3066    0.7478 H   0  0  0  0  0  0  0  0  0  0  0  0
    7.4455   -0.0428    1.2378 H   0  0  0  0  0  0  0  0  0  0  0  0
    7.7913    2.7522    1.8917 H   0  0  0  0  0  0  0  0  0  0  0  0
    7.7851    4.8672    0.6178 H   0  0  0  0  0  0  0  0  0  0  0  0
    6.4004    5.0887   -1.4540 H   0  0  0  0  0  0  0  0  0  0  0  0
    5.0120    3.1368   -2.2287 H   0  0  0  0  0  0  0  0  0  0  0  0
    8.7040    0.5698    2.6561 H   0  0  0  0  0  0  0  0  0  0  0  0
    8.4289   -1.0346    3.3384 H   0  0  0  0  0  0  0  0  0  0  0  0
    7.6567   -1.3591    6.0392 H   0  0  0  0  0  0  0  0  0  0  0  0
    8.4575   -3.2220    7.5010 H   0  0  0  0  0  0  0  0  0  0  0  0
   10.9031   -3.5289    7.9014 H   0  0  0  0  0  0  0  0  0  0  0  0
   12.5357   -1.9935    6.8044 H   0  0  0  0  0  0  0  0  0  0  0  0
   11.7301   -0.1858    5.2884 H   0  0  0  0  0  0  0  0  0  0  0  0
   11.3031    2.9996    6.9538 H   0  0  0  0  0  0  0  0  0  0  0  0
   10.7683    3.7269    9.3186 H   0  0  0  0  0  0  0  0  0  0  0  0
    6.6732    2.5333    8.7604 H   0  0  0  0  0  0  0  0  0  0  0  0
    7.1922    1.7908    6.4088 H   0  0  0  0  0  0  0  0  0  0  0  0
  1  2  1  0
  1 44  1  0
  1 45  1  0
  1 46  1  0
  2  3  1  0
  2  4  1  0
  2 47  1  1
  3 48  1  0
  3 49  1  0
  3 50  1  0
  4  5  1  0
  4 51  1  0
  5  6  2  0
  5  7  1  0
  7  8  1  0
  7 15  1  0
  7 52  1  6
  8  9  1  0
  8 53  1  0
  8 54  1  0
  9 10  2  0
  9 14  1  0
 10 11  1  0
 10 55  1  0
 11 12  2  0
 11 56  1  0
 12 13  1  0
 12 57  1  0
 13 14  2  0
 13 58  1  0
 14 59  1  0
 15 16  1  0
 15 24  1  0
 16 17  1  0
 16 60  1  0
 16 61  1  0
 17 18  2  0
 17 22  1  0
 18 19  1  0
 18 62  1  0
 19 20  2  0
 19 63  1  0
 20 21  1  0
 20 64  1  0
 21 22  2  0
 21 65  1  0
 22 23  1  0
 24 25  2  0
 24 26  1  0
 26 27  1  0
 26 66  1  0
 26 67  1  0
 27 28  1  0
 34 27  1  1
 28 29  2  0
 28 33  1  0
 29 30  1  0
 29 68  1  0
 30 31  2  0
 30 69  1  0
 31 32  1  0
 31 70  1  0
 32 33  2  0
 32 71  1  0
 33 72  1  0
 34 35  2  0
 34 36  2  0
 34 37  1  0
 37 38  2  0
 37 43  1  0
 38 39  1  0
 38 73  1  0
 39 40  2  0
 39 74  1  0
 40 41  1  0
 40 42  1  0
 42 43  2  0
 42 75  1  0
 43 76  1  0
M  END

