
     RDKit          3D

 54 57  0  0  0  0  0  0  0  0999 V2000
    4.7099    1.4773    0.5388 C   0  0  0  0  0  0  0  0  0  0  0  0
    3.9507    1.2496    1.8350 C   0  0  0  0  0  0  0  0  0  0  0  0
    4.5507    0.2065    2.6238 O   0  0  0  0  0  0  0  0  0  0  0  0
    4.2029   -1.0815    2.3532 C   0  0  0  0  0  0  0  0  0  0  0  0
    3.3605   -1.3591    1.5267 O   0  0  0  0  0  0  0  0  0  0  0  0
    4.9543   -2.0570    3.1637 C   0  0  0  0  0  0  0  0  0  0  0  0
    6.0117   -1.7588    4.0285 C   0  0  0  0  0  0  0  0  0  0  0  0
    6.5181   -0.4986    4.3106 N   0  0  0  0  0  0  0  0  0  0  0  0
    7.5685   -0.2489    5.1406 C   0  0  0  0  0  0  0  0  0  0  0  0
    8.1935   -1.1304    5.7076 O   0  0  0  0  0  0  0  0  0  0  0  0
    7.8786    1.2387    5.4732 C   0  0  1  0  0  0  0  0  0  0  0  0
    6.8925    1.6872    6.5760 C   0  0  0  0  0  0  0  0  0  0  0  0
    9.6207    1.1698    6.0983 S   0  0  0  0  0  0  0  0  0  0  0  0
    9.8552    2.9090    6.3065 C   0  0  0  0  0  0  0  0  0  0  0  0
   10.6799    3.3669    7.3439 C   0  0  0  0  0  0  0  0  0  0  0  0
   10.9304    4.7286    7.5126 C   0  0  0  0  0  0  0  0  0  0  0  0
   10.3253    5.6487    6.6534 C   0  0  0  0  0  0  0  0  0  0  0  0
    9.4944    5.2070    5.6224 C   0  0  0  0  0  0  0  0  0  0  0  0
    9.2638    3.8342    5.4207 C   0  0  0  0  0  0  0  0  0  0  0  0
    8.4738    3.3925    4.3282 N   0  0  0  0  0  0  0  0  0  0  0  0
    8.3000    4.2968    3.1896 C   0  0  0  0  0  0  0  0  0  0  0  0
    7.7771    2.2034    4.2789 C   0  0  0  0  0  0  0  0  0  0  0  0
    7.0392    1.9517    3.3324 O   0  0  0  0  0  0  0  0  0  0  0  0
    6.6696   -3.1950    4.7623 S   0  0  0  0  0  0  0  0  0  0  0  0
    5.5138   -4.2025    3.9234 C   0  0  0  0  0  0  0  0  0  0  0  0
    4.6730   -3.4785    3.1195 C   0  0  0  0  0  0  0  0  0  0  0  0
    3.5986   -4.1527    2.2973 C   0  0  0  0  0  0  0  0  0  0  0  0
    3.3692   -5.6070    2.7356 C   0  0  0  0  0  0  0  0  0  0  0  0
    4.6869   -6.3534    2.9707 C   0  0  0  0  0  0  0  0  0  0  0  0
    5.4945   -5.6966    4.1006 C   0  0  0  0  0  0  0  0  0  0  0  0
    4.2699    2.3268   -0.0085 H   0  0  0  0  0  0  0  0  0  0  0  0
    4.6540    0.5894   -0.1081 H   0  0  0  0  0  0  0  0  0  0  0  0
    5.7658    1.7056    0.7484 H   0  0  0  0  0  0  0  0  0  0  0  0
    2.9008    0.9861    1.6420 H   0  0  0  0  0  0  0  0  0  0  0  0
    3.9914    2.1399    2.4786 H   0  0  0  0  0  0  0  0  0  0  0  0
    6.1378    0.2791    3.7608 H   0  0  0  0  0  0  0  0  0  0  0  0
    6.9396    0.9814    7.4174 H   0  0  0  0  0  0  0  0  0  0  0  0
    5.8648    1.7042    6.1798 H   0  0  0  0  0  0  0  0  0  0  0  0
    7.1427    2.6917    6.9472 H   0  0  0  0  0  0  0  0  0  0  0  0
   11.1213    2.6345    8.0242 H   0  0  0  0  0  0  0  0  0  0  0  0
   11.5812    5.0683    8.3214 H   0  0  0  0  0  0  0  0  0  0  0  0
   10.4925    6.7203    6.7844 H   0  0  0  0  0  0  0  0  0  0  0  0
    9.0248    5.9428    4.9704 H   0  0  0  0  0  0  0  0  0  0  0  0
    7.5492    5.0768    3.3994 H   0  0  0  0  0  0  0  0  0  0  0  0
    7.9553    3.7117    2.3317 H   0  0  0  0  0  0  0  0  0  0  0  0
    9.2592    4.7768    2.9538 H   0  0  0  0  0  0  0  0  0  0  0  0
    3.8844   -4.1129    1.2307 H   0  0  0  0  0  0  0  0  0  0  0  0
    2.6635   -3.5769    2.3532 H   0  0  0  0  0  0  0  0  0  0  0  0
    2.7615   -6.1284    1.9782 H   0  0  0  0  0  0  0  0  0  0  0  0
    2.7797   -5.6199    3.6705 H   0  0  0  0  0  0  0  0  0  0  0  0
    5.2837   -6.3429    2.0411 H   0  0  0  0  0  0  0  0  0  0  0  0
    4.4982   -7.4117    3.2141 H   0  0  0  0  0  0  0  0  0  0  0  0
    6.5221   -6.0983    4.1254 H   0  0  0  0  0  0  0  0  0  0  0  0
    5.0455   -5.9557    5.0786 H   0  0  0  0  0  0  0  0  0  0  0  0
  1  2  1  0
  1 31  1  0
  1 32  1  0
  1 33  1  0
  2  3  1  0
  2 34  1  0
  2 35  1  0
  3  4  1  0
  4  5  2  0
  4  6  1  0
  6  7  2  0
  6 26  1  0
  7  8  1  0
  7 24  1  0
  8  9  1  0
  8 36  1  0
  9 10  2  0
 11  9  1  6
 11 12  1  0
 11 13  1  0
 11 22  1  0
 12 37  1  0
 12 38  1  0
 12 39  1  0
 13 14  1  0
 14 15  2  0
 14 19  1  0
 15 16  1  0
 15 40  1  0
 16 17  2  0
 16 41  1  0
 17 18  1  0
 17 42  1  0
 18 19  2  0
 18 43  1  0
 19 20  1  0
 20 21  1  0
 20 22  1  0
 21 44  1  0
 21 45  1  0
 21 46  1  0
 22 23  2  0
 24 25  1  0
 25 26  2  0
 25 30  1  0
 26 27  1  0
 27 28  1  0
 27 47  1  0
 27 48  1  0
 28 29  1  0
 28 49  1  0
 28 50  1  0
 29 30  1  0
 29 51  1  0
 29 52  1  0
 30 53  1  0
 30 54  1  0
M  END

