
     RDKit          3D

 60 64  0  0  0  0  0  0  0  0999 V2000
    0.0117   -0.3291   -5.3377 N   0  0  0  0  0  0  0  0  0  0  0  0
    0.0631   -0.3839   -3.9806 C   0  0  0  0  0  0  0  0  0  0  0  0
   -0.8822   -0.7009   -3.2737 O   0  0  0  0  0  0  0  0  0  0  0  0
    1.3879   -0.0279   -3.3908 C   0  0  0  0  0  0  0  0  0  0  0  0
    2.4007    0.3943   -4.1326 N   0  0  0  0  0  0  0  0  0  0  0  0
    3.4414    0.6092   -3.3025 N   0  0  0  0  0  0  0  0  0  0  0  0
    4.6750    1.1314   -3.8414 C   0  0  0  0  0  0  0  0  0  0  0  0
    4.7472    2.6623   -3.6963 C   0  0  0  0  0  0  0  0  0  0  0  0
    4.5594    3.1832   -2.6121 O   0  0  0  0  0  0  0  0  0  0  0  0
    5.0059    3.4142   -4.8168 N   0  0  0  0  0  0  0  0  0  0  0  0
    5.1703    4.8701   -4.6483 C   0  0  0  0  0  0  0  0  0  0  0  0
    5.7002    5.3425   -5.9964 C   0  0  2  0  0  0  0  0  0  0  0  0
    4.6254    5.6361   -6.8323 F   0  0  0  0  0  0  0  0  0  0  0  0
    6.4345    4.1276   -6.5489 C   0  0  0  0  0  0  0  0  0  0  0  0
    5.5338    2.9550   -6.1104 C   0  0  2  0  0  0  0  0  0  0  0  0
    4.4871    2.6412   -7.2076 C   0  0  0  0  0  0  0  0  0  0  0  0
    4.8800    2.3363   -8.3192 O   0  0  0  0  0  0  0  0  0  0  0  0
    3.1825    2.7156   -6.8191 N   0  0  0  0  0  0  0  0  0  0  0  0
    2.0354    2.5171   -7.6022 C   0  0  0  0  0  0  0  0  0  0  0  0
    2.0416    2.1372   -8.9532 C   0  0  0  0  0  0  0  0  0  0  0  0
    0.8279    1.9794   -9.6276 C   0  0  0  0  0  0  0  0  0  0  0  0
   -0.3909    2.1859   -8.9839 C   0  0  0  0  0  0  0  0  0  0  0  0
   -0.4312    2.5654   -7.6293 C   0  0  0  0  0  0  0  0  0  0  0  0
   -1.7126    2.8385   -6.9186 C   0  0  0  0  0  0  0  0  0  0  0  0
   -1.8899    4.0763   -6.2757 C   0  0  0  0  0  0  0  0  0  0  0  0
   -3.0819    4.3645   -5.6220 C   0  0  0  0  0  0  0  0  0  0  0  0
   -3.2259    5.5516   -5.0251 F   0  0  0  0  0  0  0  0  0  0  0  0
   -4.1357    3.4567   -5.5753 C   0  0  0  0  0  0  0  0  0  0  0  0
   -3.9608    2.2301   -6.2054 C   0  0  0  0  0  0  0  0  0  0  0  0
   -4.9506    1.3414   -6.1675 F   0  0  0  0  0  0  0  0  0  0  0  0
   -2.7706    1.9074   -6.8732 C   0  0  0  0  0  0  0  0  0  0  0  0
   -2.6639    0.3166   -7.5885 Cl  0  0  0  0  0  0  0  0  0  0  0  0
    0.7934    2.7232   -6.9747 C   0  0  0  0  0  0  0  0  0  0  0  0
    0.8214    3.0921   -5.6765 F   0  0  0  0  0  0  0  0  0  0  0  0
    3.1090    0.3508   -1.9905 C   0  0  0  0  0  0  0  0  0  0  0  0
    3.8483    0.4479   -0.7984 C   0  0  0  0  0  0  0  0  0  0  0  0
    3.2005    0.0703    0.3698 C   0  0  0  0  0  0  0  0  0  0  0  0
    1.8560   -0.3805    0.3690 C   0  0  0  0  0  0  0  0  0  0  0  0
    1.1233   -0.4602   -0.8063 C   0  0  0  0  0  0  0  0  0  0  0  0
    1.7608   -0.0876   -2.0074 C   0  0  0  0  0  0  0  0  0  0  0  0
   -0.8674   -0.5074   -5.8089 H   0  0  0  0  0  0  0  0  0  0  0  0
    0.8249   -0.0524   -5.8722 H   0  0  0  0  0  0  0  0  0  0  0  0
    4.7404    0.7820   -4.8779 H   0  0  0  0  0  0  0  0  0  0  0  0
    5.5222    0.7076   -3.2782 H   0  0  0  0  0  0  0  0  0  0  0  0
    5.8761    5.0778   -3.8273 H   0  0  0  0  0  0  0  0  0  0  0  0
    4.2187    5.3609   -4.3964 H   0  0  0  0  0  0  0  0  0  0  0  0
    6.3208    6.2486   -5.9206 H   0  0  0  0  0  0  0  0  0  0  0  0
    7.4237    4.0440   -6.0721 H   0  0  0  0  0  0  0  0  0  0  0  0
    6.5679    4.1639   -7.6377 H   0  0  0  0  0  0  0  0  0  0  0  0
    6.1288    2.0365   -6.0022 H   0  0  0  0  0  0  0  0  0  0  0  0
    3.0112    2.9951   -5.8586 H   0  0  0  0  0  0  0  0  0  0  0  0
    2.9960    1.9802   -9.4501 H   0  0  0  0  0  0  0  0  0  0  0  0
    0.8393    1.6918  -10.6812 H   0  0  0  0  0  0  0  0  0  0  0  0
   -1.3275    2.0624   -9.5286 H   0  0  0  0  0  0  0  0  0  0  0  0
   -1.0977    4.8246   -6.2854 H   0  0  0  0  0  0  0  0  0  0  0  0
   -5.0680    3.6884   -5.0596 H   0  0  0  0  0  0  0  0  0  0  0  0
    4.8683    0.8332   -0.7853 H   0  0  0  0  0  0  0  0  0  0  0  0
    3.7376    0.1343    1.3196 H   0  0  0  0  0  0  0  0  0  0  0  0
    1.3910   -0.6603    1.3173 H   0  0  0  0  0  0  0  0  0  0  0  0
    0.0855   -0.7935   -0.8295 H   0  0  0  0  0  0  0  0  0  0  0  0
  1  2  1  0
  1 41  1  0
  1 42  1  0
  2  3  2  0
  2  4  1  0
  4  5  2  0
  4 40  1  0
  5  6  1  0
  6  7  1  0
  6 35  1  0
  7  8  1  0
  7 43  1  0
  7 44  1  0
  8  9  2  0
  8 10  1  0
 10 11  1  0
 10 15  1  0
 11 12  1  0
 11 45  1  0
 11 46  1  0
 12 13  1  0
 12 14  1  0
 12 47  1  1
 14 15  1  0
 14 48  1  0
 14 49  1  0
 15 16  1  0
 15 50  1  1
 16 17  2  0
 16 18  1  0
 18 19  1  0
 18 51  1  0
 19 20  2  0
 19 33  1  0
 20 21  1  0
 20 52  1  0
 21 22  2  0
 21 53  1  0
 22 23  1  0
 22 54  1  0
 23 24  1  0
 23 33  2  0
 24 25  2  0
 24 31  1  0
 25 26  1  0
 25 55  1  0
 26 27  1  0
 26 28  2  0
 28 29  1  0
 28 56  1  0
 29 30  1  0
 29 31  2  0
 31 32  1  0
 33 34  1  0
 35 36  1  0
 35 40  2  0
 36 37  2  0
 36 57  1  0
 37 38  1  0
 37 58  1  0
 38 39  2  0
 38 59  1  0
 39 40  1  0
 39 60  1  0
M  END

