
     RDKit          3D

 28 31  0  0  0  0  0  0  0  0999 V2000
    1.8814    0.3440   -1.6199 N   0  0  0  0  0  0  0  0  0  0  0  0
    2.9053    0.2083   -1.0946 C   0  0  0  0  0  0  0  0  0  0  0  0
    4.1733    0.0475   -0.4321 C   0  0  1  0  0  0  0  0  0  0  0  0
    4.4867   -1.3158    0.1897 C   0  0  0  0  0  0  0  0  0  0  0  0
    3.7075   -2.0674    0.7069 O   0  0  0  0  0  0  0  0  0  0  0  0
    5.8529   -1.5170    0.0361 N   0  0  0  0  0  0  0  0  0  0  0  0
    6.5344   -0.5352   -0.6732 C   0  0  0  0  0  0  0  0  0  0  0  0
    7.6969   -0.5453   -0.9699 O   0  0  0  0  0  0  0  0  0  0  0  0
    5.5130    0.5559   -0.9978 C   0  0  1  0  0  0  0  0  0  0  0  0
    5.6472    1.2539   -2.2494 C   0  0  0  0  0  0  0  0  0  0  0  0
    5.7578    1.8259   -3.2510 N   0  0  0  0  0  0  0  0  0  0  0  0
    4.8735    1.2395    0.2084 C   0  0  2  0  0  0  0  0  0  0  0  0
    5.4644    1.2174    1.5867 C   0  0  0  0  0  0  0  0  0  0  0  0
    4.6972    0.7832    2.6748 C   0  0  0  0  0  0  0  0  0  0  0  0
    5.1988    0.8210    3.9907 C   0  0  0  0  0  0  0  0  0  0  0  0
    6.4815    1.3094    4.1606 C   0  0  0  0  0  0  0  0  0  0  0  0
    7.2522    1.7466    3.0766 C   0  0  0  0  0  0  0  0  0  0  0  0
    6.7763    1.7151    1.7797 C   0  0  0  0  0  0  0  0  0  0  0  0
    8.4658    2.1704    3.5262 O   0  0  0  0  0  0  0  0  0  0  0  0
    8.4648    1.9954    4.9425 C   0  0  0  0  0  0  0  0  0  0  0  0
    7.1975    1.4498    5.3098 O   0  0  0  0  0  0  0  0  0  0  0  0
    6.3268   -2.3259    0.4297 H   0  0  0  0  0  0  0  0  0  0  0  0
    4.3998    2.1871   -0.0773 H   0  0  0  0  0  0  0  0  0  0  0  0
    3.6871    0.4036    2.5062 H   0  0  0  0  0  0  0  0  0  0  0  0
    4.6045    0.4800    4.8393 H   0  0  0  0  0  0  0  0  0  0  0  0
    7.3929    2.0554    0.9462 H   0  0  0  0  0  0  0  0  0  0  0  0
    8.6078    2.9717    5.4386 H   0  0  0  0  0  0  0  0  0  0  0  0
    9.2691    1.2960    5.2322 H   0  0  0  0  0  0  0  0  0  0  0  0
  1  2  3  0
  3  2  1  6
  3  4  1  0
  3  9  1  0
  3 12  1  0
  4  5  2  0
  4  6  1  0
  6  7  1  0
  6 22  1  0
  7  8  2  0
  7  9  1  0
  9 10  1  6
  9 12  1  0
 10 11  3  0
 12 13  1  0
 12 23  1  6
 13 14  2  0
 13 18  1  0
 14 15  1  0
 14 24  1  0
 15 16  2  0
 15 25  1  0
 16 17  1  0
 16 21  1  0
 17 18  2  0
 17 19  1  0
 18 26  1  0
 19 20  1  0
 20 21  1  0
 20 27  1  0
 20 28  1  0
M  END

