
     RDKit          3D

 28 29  0  0  0  0  0  0  0  0999 V2000
    0.8446    0.3482   -0.1343 C   0  0  0  0  0  0  0  0  0  0  0  0
    2.3433    0.2459   -0.1733 C   0  0  0  0  0  0  0  0  0  0  0  0
    3.1434    1.3497   -0.2932 C   0  0  0  0  0  0  0  0  0  0  0  0
    4.5921    1.2828   -0.2982 C   0  0  0  0  0  0  0  0  0  0  0  0
    5.3200    2.2891   -0.4130 O   0  0  0  0  0  0  0  0  0  0  0  0
    5.1291   -0.0645   -0.1391 C   0  0  0  0  0  0  0  0  0  0  0  0
    6.6121   -0.3321   -0.0939 C   0  0  0  0  0  0  0  0  0  0  0  0
    7.0593   -1.4496    0.0392 O   0  0  0  0  0  0  0  0  0  0  0  0
    7.3709    0.7484   -0.2140 O   0  0  0  0  0  0  0  0  0  0  0  0
    4.2818   -1.1294   -0.0241 C   0  0  0  0  0  0  0  0  0  0  0  0
    2.9214   -1.0166   -0.0602 N   0  0  0  0  0  0  0  0  0  0  0  0
    2.0972   -2.2013    0.1143 C   0  0  1  0  0  0  0  0  0  0  0  0
    1.3119   -2.7748   -1.0413 C   0  0  0  0  0  0  0  0  0  0  0  0
    2.5033   -3.5176   -0.4941 C   0  0  2  0  0  0  0  0  0  0  0  0
    2.3528   -4.8026    0.2904 C   0  0  0  0  0  0  0  0  0  0  0  0
    0.5455    1.4016   -0.2035 H   0  0  0  0  0  0  0  0  0  0  0  0
    0.4351   -0.0631    0.8025 H   0  0  0  0  0  0  0  0  0  0  0  0
    0.3728   -0.2023   -0.9621 H   0  0  0  0  0  0  0  0  0  0  0  0
    2.6894    2.3378   -0.3835 H   0  0  0  0  0  0  0  0  0  0  0  0
    6.7698    1.5482   -0.3125 H   0  0  0  0  0  0  0  0  0  0  0  0
    4.6980   -2.1292    0.1029 H   0  0  0  0  0  0  0  0  0  0  0  0
    1.6235   -2.2493    1.1018 H   0  0  0  0  0  0  0  0  0  0  0  0
    1.4248   -2.2944   -2.0169 H   0  0  0  0  0  0  0  0  0  0  0  0
    0.3066   -3.1510   -0.8292 H   0  0  0  0  0  0  0  0  0  0  0  0
    3.3887   -3.4819   -1.1377 H   0  0  0  0  0  0  0  0  0  0  0  0
    1.4517   -4.7842    0.9241 H   0  0  0  0  0  0  0  0  0  0  0  0
    3.2226   -4.9759    0.9441 H   0  0  0  0  0  0  0  0  0  0  0  0
    2.2649   -5.6654   -0.3890 H   0  0  0  0  0  0  0  0  0  0  0  0
  1  2  1  0
  1 16  1  0
  1 17  1  0
  1 18  1  0
  2  3  2  0
  2 11  1  0
  3  4  1  0
  3 19  1  0
  4  5  2  0
  4  6  1  0
  6  7  1  0
  6 10  2  0
  7  8  2  0
  7  9  1  0
  9 20  1  0
 10 11  1  0
 10 21  1  0
 11 12  1  0
 12 13  1  0
 12 14  1  0
 12 22  1  1
 13 14  1  0
 13 23  1  0
 13 24  1  0
 14 15  1  0
 14 25  1  6
 15 26  1  0
 15 27  1  0
 15 28  1  0
M  END

