
     RDKit          3D

 41 43  0  0  0  0  0  0  0  0999 V2000
    8.5987    2.9820    5.9164 Br  0  0  0  0  0  0  0  0  0  0  0  0
    8.4441    2.0596    4.2546 C   0  0  0  0  0  0  0  0  0  0  0  0
    9.6021    1.7429    3.5316 C   0  0  0  0  0  0  0  0  0  0  0  0
    9.4861    1.0693    2.3188 C   0  0  0  0  0  0  0  0  0  0  0  0
    8.2236    0.7055    1.8149 C   0  0  0  0  0  0  0  0  0  0  0  0
    8.0905   -0.0095    0.5309 C   0  0  0  0  0  0  0  0  0  0  0  0
    9.0921   -0.3338   -0.1825 N   0  0  0  0  0  0  0  0  0  0  0  0
    8.8615   -1.0367   -1.4351 C   0  0  0  0  0  0  0  0  0  0  0  0
    9.5617   -2.3807   -1.4558 C   0  0  0  0  0  0  0  0  0  0  0  0
   10.8247   -2.5228   -2.0403 C   0  0  0  0  0  0  0  0  0  0  0  0
   11.4893   -3.7524   -2.0555 C   0  0  0  0  0  0  0  0  0  0  0  0
   10.8839   -4.8701   -1.4750 C   0  0  0  0  0  0  0  0  0  0  0  0
    9.6314   -4.7497   -0.8734 C   0  0  0  0  0  0  0  0  0  0  0  0
    8.9633   -3.5091   -0.8420 C   0  0  0  0  0  0  0  0  0  0  0  0
    7.6900   -3.3675   -0.2778 N   0  0  0  0  0  0  0  0  0  0  0  0
    7.3724   -3.9499    0.8146 C   0  0  0  0  0  0  0  0  0  0  0  0
    6.0188   -3.8918    1.3853 C   0  0  0  0  0  0  0  0  0  0  0  0
    4.9622   -3.2521    0.7087 C   0  0  0  0  0  0  0  0  0  0  0  0
    3.6872   -3.2017    1.2644 C   0  0  0  0  0  0  0  0  0  0  0  0
    3.4569   -3.7979    2.5121 C   0  0  0  0  0  0  0  0  0  0  0  0
    1.7130   -3.7311    3.2748 Br  0  0  0  0  0  0  0  0  0  0  0  0
    4.4874   -4.4422    3.2019 C   0  0  0  0  0  0  0  0  0  0  0  0
    5.7612   -4.4854    2.6328 C   0  0  0  0  0  0  0  0  0  0  0  0
    7.0786    1.0335    2.5580 C   0  0  0  0  0  0  0  0  0  0  0  0
    7.1793    1.7091    3.7764 C   0  0  0  0  0  0  0  0  0  0  0  0
   10.5826    2.0238    3.9200 H   0  0  0  0  0  0  0  0  0  0  0  0
   10.3710    0.8092    1.7346 H   0  0  0  0  0  0  0  0  0  0  0  0
    7.0517   -0.2506    0.2241 H   0  0  0  0  0  0  0  0  0  0  0  0
    9.2833   -0.4155   -2.2434 H   0  0  0  0  0  0  0  0  0  0  0  0
    7.7829   -1.1823   -1.6374 H   0  0  0  0  0  0  0  0  0  0  0  0
   11.2942   -1.6477   -2.4983 H   0  0  0  0  0  0  0  0  0  0  0  0
   12.4699   -3.8395   -2.5297 H   0  0  0  0  0  0  0  0  0  0  0  0
   11.3827   -5.8425   -1.4992 H   0  0  0  0  0  0  0  0  0  0  0  0
    9.1407   -5.6299   -0.4516 H   0  0  0  0  0  0  0  0  0  0  0  0
    8.1146   -4.5249    1.4027 H   0  0  0  0  0  0  0  0  0  0  0  0
    5.1635   -2.8006   -0.2647 H   0  0  0  0  0  0  0  0  0  0  0  0
    2.8699   -2.7074    0.7364 H   0  0  0  0  0  0  0  0  0  0  0  0
    4.2954   -4.9034    4.1719 H   0  0  0  0  0  0  0  0  0  0  0  0
    6.5712   -4.9873    3.1698 H   0  0  0  0  0  0  0  0  0  0  0  0
    6.0908    0.7543    2.1801 H   0  0  0  0  0  0  0  0  0  0  0  0
    6.2853    1.9605    4.3492 H   0  0  0  0  0  0  0  0  0  0  0  0
  1  2  1  0
  2  3  2  0
  2 25  1  0
  3  4  1  0
  3 26  1  0
  4  5  2  0
  4 27  1  0
  5  6  1  0
  5 24  1  0
  6  7  2  0
  6 28  1  0
  7  8  1  0
  8  9  1  0
  8 29  1  0
  8 30  1  0
  9 10  2  0
  9 14  1  0
 10 11  1  0
 10 31  1  0
 11 12  2  0
 11 32  1  0
 12 13  1  0
 12 33  1  0
 13 14  2  0
 13 34  1  0
 14 15  1  0
 15 16  2  0
 16 17  1  0
 16 35  1  0
 17 18  2  0
 17 23  1  0
 18 19  1  0
 18 36  1  0
 19 20  2  0
 19 37  1  0
 20 21  1  0
 20 22  1  0
 22 23  2  0
 22 38  1  0
 23 39  1  0
 24 25  2  0
 24 40  1  0
 25 41  1  0
M  END

