
     RDKit          3D

 59 62  0  0  0  0  0  0  0  0999 V2000
   10.6637   -2.0517   -7.8498 C   0  0  0  0  0  0  0  0  0  0  0  0
   10.3928   -2.1948   -6.4735 O   0  0  0  0  0  0  0  0  0  0  0  0
    9.1571   -2.5850   -6.0754 C   0  0  0  0  0  0  0  0  0  0  0  0
    8.9616   -2.6984   -4.6859 C   0  0  0  0  0  0  0  0  0  0  0  0
    7.7269   -3.0880   -4.1829 C   0  0  0  0  0  0  0  0  0  0  0  0
    6.6494   -3.3791   -5.0404 C   0  0  0  0  0  0  0  0  0  0  0  0
    5.3249   -3.8223   -4.4870 C   0  0  0  0  0  0  0  0  0  0  0  0
    5.4185   -5.2167   -4.1188 O   0  0  0  0  0  0  0  0  0  0  0  0
    4.3140   -5.7606   -3.5613 C   0  0  0  0  0  0  0  0  0  0  0  0
    3.3058   -5.1035   -3.3798 O   0  0  0  0  0  0  0  0  0  0  0  0
    4.4118   -7.1850   -3.1837 C   0  0  0  0  0  0  0  0  0  0  0  0
    5.4129   -8.0652   -3.4858 C   0  0  0  0  0  0  0  0  0  0  0  0
    6.7039   -7.8015   -4.2102 C   0  0  0  0  0  0  0  0  0  0  0  0
    5.2743   -9.3901   -3.1037 N   0  0  0  0  0  0  0  0  0  0  0  0
    4.0815   -9.9950   -2.6853 C   0  0  0  0  0  0  0  0  0  0  0  0
    4.0009  -11.2008   -2.5438 O   0  0  0  0  0  0  0  0  0  0  0  0
    3.0613   -9.1119   -2.5008 N   0  0  0  0  0  0  0  0  0  0  0  0
    3.2144   -7.6646   -2.3624 C   0  0  1  0  0  0  0  0  0  0  0  0
    3.2948   -7.2209   -0.8952 C   0  0  0  0  0  0  0  0  0  0  0  0
    2.5206   -6.1453   -0.4399 C   0  0  0  0  0  0  0  0  0  0  0  0
    2.6016   -5.7410    0.8958 C   0  0  0  0  0  0  0  0  0  0  0  0
    3.4479   -6.4021    1.7858 C   0  0  0  0  0  0  0  0  0  0  0  0
    4.2395   -7.4842    1.3543 C   0  0  0  0  0  0  0  0  0  0  0  0
    5.1446   -8.1994    2.2938 C   0  0  0  0  0  0  0  0  0  0  0  0
    5.3491   -9.5873    2.1984 C   0  0  0  0  0  0  0  0  0  0  0  0
    6.1990  -10.2554    3.0827 C   0  0  0  0  0  0  0  0  0  0  0  0
    6.8807   -9.5700    4.0984 C   0  0  0  0  0  0  0  0  0  0  0  0
    7.7999  -10.2855    5.0580 C   0  0  0  0  0  0  0  0  0  0  0  0
    6.6777   -8.1830    4.1942 C   0  0  0  0  0  0  0  0  0  0  0  0
    5.8301   -7.5121    3.3142 C   0  0  0  0  0  0  0  0  0  0  0  0
    4.1467   -7.8735    0.0067 C   0  0  0  0  0  0  0  0  0  0  0  0
    6.8577   -3.2648   -6.4184 C   0  0  0  0  0  0  0  0  0  0  0  0
    8.0933   -2.8694   -6.9445 C   0  0  0  0  0  0  0  0  0  0  0  0
   11.7109   -1.7308   -7.9311 H   0  0  0  0  0  0  0  0  0  0  0  0
   10.0183   -1.2872   -8.3190 H   0  0  0  0  0  0  0  0  0  0  0  0
   10.5388   -3.0046   -8.3953 H   0  0  0  0  0  0  0  0  0  0  0  0
    9.7998   -2.4681   -4.0252 H   0  0  0  0  0  0  0  0  0  0  0  0
    7.5906   -3.1688   -3.1007 H   0  0  0  0  0  0  0  0  0  0  0  0
    4.5154   -3.7005   -5.2229 H   0  0  0  0  0  0  0  0  0  0  0  0
    5.0396   -3.2472   -3.5924 H   0  0  0  0  0  0  0  0  0  0  0  0
    6.7754   -6.7747   -4.5708 H   0  0  0  0  0  0  0  0  0  0  0  0
    6.8022   -8.4988   -5.0593 H   0  0  0  0  0  0  0  0  0  0  0  0
    7.5501   -7.9951   -3.5281 H   0  0  0  0  0  0  0  0  0  0  0  0
    6.0080  -10.0524   -3.3283 H   0  0  0  0  0  0  0  0  0  0  0  0
    2.2156   -9.5338   -2.1328 H   0  0  0  0  0  0  0  0  0  0  0  0
    2.3210   -7.1910   -2.7927 H   0  0  0  0  0  0  0  0  0  0  0  0
    1.8691   -5.6174   -1.1392 H   0  0  0  0  0  0  0  0  0  0  0  0
    1.9881   -4.9078    1.2487 H   0  0  0  0  0  0  0  0  0  0  0  0
    3.4771   -6.0947    2.8336 H   0  0  0  0  0  0  0  0  0  0  0  0
    4.8179  -10.1615    1.4356 H   0  0  0  0  0  0  0  0  0  0  0  0
    6.3272  -11.3373    2.9845 H   0  0  0  0  0  0  0  0  0  0  0  0
    7.8472  -11.3638    4.8455 H   0  0  0  0  0  0  0  0  0  0  0  0
    7.4651  -10.1629    6.1019 H   0  0  0  0  0  0  0  0  0  0  0  0
    8.8270   -9.8866    5.0029 H   0  0  0  0  0  0  0  0  0  0  0  0
    7.2008   -7.6151    4.9697 H   0  0  0  0  0  0  0  0  0  0  0  0
    5.7159   -6.4292    3.4049 H   0  0  0  0  0  0  0  0  0  0  0  0
    4.7738   -8.6956   -0.3444 H   0  0  0  0  0  0  0  0  0  0  0  0
    6.0367   -3.4850   -7.1069 H   0  0  0  0  0  0  0  0  0  0  0  0
    8.2117   -2.7873   -8.0250 H   0  0  0  0  0  0  0  0  0  0  0  0
  1  2  1  0
  1 34  1  0
  1 35  1  0
  1 36  1  0
  2  3  1  0
  3  4  2  0
  3 33  1  0
  4  5  1  0
  4 37  1  0
  5  6  2  0
  5 38  1  0
  6  7  1  0
  6 32  1  0
  7  8  1  0
  7 39  1  0
  7 40  1  0
  8  9  1  0
  9 10  2  0
  9 11  1  0
 11 12  2  0
 11 18  1  0
 12 13  1  0
 12 14  1  0
 13 41  1  0
 13 42  1  0
 13 43  1  0
 14 15  1  0
 14 44  1  0
 15 16  2  0
 15 17  1  0
 17 18  1  0
 17 45  1  0
 18 19  1  0
 18 46  1  6
 19 20  2  0
 19 31  1  0
 20 21  1  0
 20 47  1  0
 21 22  2  0
 21 48  1  0
 22 23  1  0
 22 49  1  0
 23 24  1  0
 23 31  2  0
 24 25  2  0
 24 30  1  0
 25 26  1  0
 25 50  1  0
 26 27  2  0
 26 51  1  0
 27 28  1  0
 27 29  1  0
 28 52  1  0
 28 53  1  0
 28 54  1  0
 29 30  2  0
 29 55  1  0
 30 56  1  0
 31 57  1  0
 32 33  2  0
 32 58  1  0
 33 59  1  0
M  END

