
     RDKit          3D

 66 69  0  0  0  0  0  0  0  0999 V2000
    2.5150    3.7675   -1.9298 C   0  0  0  0  0  0  0  0  0  0  0  0
    2.7916    3.6794   -0.4284 C   0  0  0  0  0  0  0  0  0  0  0  0
    4.0390    2.8595   -0.0835 C   0  0  0  0  0  0  0  0  0  0  0  0
    4.3194    2.7836    1.4196 C   0  0  0  0  0  0  0  0  0  0  0  0
    5.5307    1.9259    1.8054 C   0  0  0  0  0  0  0  0  0  0  0  0
    6.7989    2.4075    1.2759 N   0  0  0  0  0  0  0  0  0  0  0  0
    7.4847    1.8271    0.1832 C   0  0  0  0  0  0  0  0  0  0  0  0
    7.0676    0.8687   -0.4299 O   0  0  0  0  0  0  0  0  0  0  0  0
    8.7472    2.5861   -0.0074 C   0  0  0  0  0  0  0  0  0  0  0  0
    9.7598    2.1361   -0.9781 C   0  0  0  0  0  0  0  0  0  0  0  0
   11.1265    2.0798   -0.6403 C   0  0  0  0  0  0  0  0  0  0  0  0
   12.0783    1.6191   -1.5509 C   0  0  0  0  0  0  0  0  0  0  0  0
   11.7095    1.1865   -2.8338 C   0  0  0  0  0  0  0  0  0  0  0  0
   12.7382    0.7104   -3.8298 C   0  0  0  0  0  0  0  0  0  0  0  0
   10.3444    1.2220   -3.1635 C   0  0  0  0  0  0  0  0  0  0  0  0
    9.3878    1.6819   -2.2600 C   0  0  0  0  0  0  0  0  0  0  0  0
    8.7760    3.5887    0.9394 C   0  0  0  0  0  0  0  0  0  0  0  0
    9.6224    4.6425    1.1038 N   0  0  0  0  0  0  0  0  0  0  0  0
   10.4640    5.1460    0.0223 C   0  0  0  0  0  0  0  0  0  0  0  0
   10.3388    6.6797   -0.0575 C   0  0  0  0  0  0  0  0  0  0  0  0
   10.5870    7.3543    1.2055 N   0  0  0  0  0  0  0  0  0  0  0  0
   11.8662    7.8497    1.5189 C   0  0  0  0  0  0  0  0  0  0  0  0
   13.0285    7.4561    0.8228 C   0  0  0  0  0  0  0  0  0  0  0  0
   14.2866    7.9796    1.1324 C   0  0  0  0  0  0  0  0  0  0  0  0
   14.4329    8.9040    2.1669 C   0  0  0  0  0  0  0  0  0  0  0  0
   13.2953    9.3202    2.8637 C   0  0  0  0  0  0  0  0  0  0  0  0
   12.0301    8.8270    2.5410 C   0  0  0  0  0  0  0  0  0  0  0  0
   10.9511    9.2988    3.2539 O   0  0  0  0  0  0  0  0  0  0  0  0
   10.1413   10.2508    2.5769 C   0  0  0  0  0  0  0  0  0  0  0  0
    9.7203    6.8254    2.2628 C   0  0  0  0  0  0  0  0  0  0  0  0
    9.8559    5.3057    2.3933 C   0  0  0  0  0  0  0  0  0  0  0  0
    7.5085    3.4677    1.7889 C   0  0  0  0  0  0  0  0  0  0  0  0
    7.1564    4.1660    2.7190 O   0  0  0  0  0  0  0  0  0  0  0  0
    1.6119    4.3621   -2.1416 H   0  0  0  0  0  0  0  0  0  0  0  0
    2.3657    2.7668   -2.3691 H   0  0  0  0  0  0  0  0  0  0  0  0
    3.3565    4.2380   -2.4657 H   0  0  0  0  0  0  0  0  0  0  0  0
    1.9153    3.2401    0.0827 H   0  0  0  0  0  0  0  0  0  0  0  0
    2.8998    4.6976   -0.0117 H   0  0  0  0  0  0  0  0  0  0  0  0
    4.9119    3.2981   -0.6002 H   0  0  0  0  0  0  0  0  0  0  0  0
    3.9360    1.8378   -0.4918 H   0  0  0  0  0  0  0  0  0  0  0  0
    3.4409    2.3582    1.9375 H   0  0  0  0  0  0  0  0  0  0  0  0
    4.4555    3.7980    1.8324 H   0  0  0  0  0  0  0  0  0  0  0  0
    5.4143    0.8997    1.4265 H   0  0  0  0  0  0  0  0  0  0  0  0
    5.6188    1.8834    2.9021 H   0  0  0  0  0  0  0  0  0  0  0  0
   11.4440    2.3748    0.3625 H   0  0  0  0  0  0  0  0  0  0  0  0
   13.1301    1.5811   -1.2519 H   0  0  0  0  0  0  0  0  0  0  0  0
   13.6840    0.4383   -3.3374 H   0  0  0  0  0  0  0  0  0  0  0  0
   12.9678    1.4950   -4.5725 H   0  0  0  0  0  0  0  0  0  0  0  0
   12.3809   -0.1676   -4.3910 H   0  0  0  0  0  0  0  0  0  0  0  0
   10.0217    0.8776   -4.1506 H   0  0  0  0  0  0  0  0  0  0  0  0
    8.3343    1.6820   -2.5419 H   0  0  0  0  0  0  0  0  0  0  0  0
   10.1415    4.7021   -0.9268 H   0  0  0  0  0  0  0  0  0  0  0  0
   11.5178    4.8527    0.1837 H   0  0  0  0  0  0  0  0  0  0  0  0
    9.3051    6.9161   -0.3707 H   0  0  0  0  0  0  0  0  0  0  0  0
   11.0092    7.0711   -0.8353 H   0  0  0  0  0  0  0  0  0  0  0  0
   12.9564    6.7097    0.0311 H   0  0  0  0  0  0  0  0  0  0  0  0
   15.1589    7.6412    0.5674 H   0  0  0  0  0  0  0  0  0  0  0  0
   15.4158    9.3040    2.4255 H   0  0  0  0  0  0  0  0  0  0  0  0
   13.3579   10.0565    3.6684 H   0  0  0  0  0  0  0  0  0  0  0  0
   10.7205   11.1592    2.3317 H   0  0  0  0  0  0  0  0  0  0  0  0
    9.3240   10.5218    3.2603 H   0  0  0  0  0  0  0  0  0  0  0  0
    9.7161    9.8361    1.6471 H   0  0  0  0  0  0  0  0  0  0  0  0
    8.6700    7.0631    2.0168 H   0  0  0  0  0  0  0  0  0  0  0  0
    9.9573    7.3114    3.2155 H   0  0  0  0  0  0  0  0  0  0  0  0
    9.1409    4.9293    3.1306 H   0  0  0  0  0  0  0  0  0  0  0  0
   10.8817    5.0589    2.7313 H   0  0  0  0  0  0  0  0  0  0  0  0
  1  2  1  0
  1 34  1  0
  1 35  1  0
  1 36  1  0
  2  3  1  0
  2 37  1  0
  2 38  1  0
  3  4  1  0
  3 39  1  0
  3 40  1  0
  4  5  1  0
  4 41  1  0
  4 42  1  0
  5  6  1  0
  5 43  1  0
  5 44  1  0
  6  7  1  0
  6 32  1  0
  7  8  2  0
  7  9  1  0
  9 10  1  0
  9 17  2  0
 10 11  2  0
 10 16  1  0
 11 12  1  0
 11 45  1  0
 12 13  2  0
 12 46  1  0
 13 14  1  0
 13 15  1  0
 14 47  1  0
 14 48  1  0
 14 49  1  0
 15 16  2  0
 15 50  1  0
 16 51  1  0
 17 18  1  0
 17 32  1  0
 18 19  1  0
 18 31  1  0
 19 20  1  0
 19 52  1  0
 19 53  1  0
 20 21  1  0
 20 54  1  0
 20 55  1  0
 21 22  1  0
 21 30  1  0
 22 23  2  0
 22 27  1  0
 23 24  1  0
 23 56  1  0
 24 25  2  0
 24 57  1  0
 25 26  1  0
 25 58  1  0
 26 27  2  0
 26 59  1  0
 27 28  1  0
 28 29  1  0
 29 60  1  0
 29 61  1  0
 29 62  1  0
 30 31  1  0
 30 63  1  0
 30 64  1  0
 31 65  1  0
 31 66  1  0
 32 33  2  0
M  END

