
     RDKit          3D

 45 48  0  0  0  0  0  0  0  0999 V2000
    2.1805   -5.6186   -1.4211 N   0  0  0  0  0  0  0  0  0  0  0  0
    3.2437   -5.0327   -0.8272 C   0  0  0  0  0  0  0  0  0  0  0  0
    4.2402   -5.6319   -0.4605 O   0  0  0  0  0  0  0  0  0  0  0  0
    3.1753   -3.5101   -0.5611 C   0  0  1  0  0  0  0  0  0  0  0  0
    2.6501   -2.4594   -2.0342 S   0  0  0  0  0  0  0  0  0  0  0  0
    0.8958   -2.5269   -1.9728 C   0  0  0  0  0  0  0  0  0  0  0  0
    0.1532   -3.6125   -2.0060 N   0  0  0  0  0  0  0  0  0  0  0  0
   -1.1493   -3.2505   -1.9278 N   0  0  0  0  0  0  0  0  0  0  0  0
   -1.2098   -1.9345   -1.8705 C   0  0  0  0  0  0  0  0  0  0  0  0
   -2.4793   -1.1950   -1.8051 C   0  0  0  0  0  0  0  0  0  0  0  0
   -3.6192   -1.8687   -1.3282 C   0  0  0  0  0  0  0  0  0  0  0  0
   -4.8351   -1.1944   -1.2883 C   0  0  0  0  0  0  0  0  0  0  0  0
   -4.8789    0.1346   -1.7264 C   0  0  0  0  0  0  0  0  0  0  0  0
   -3.8113    0.7816   -2.1964 N   0  0  0  0  0  0  0  0  0  0  0  0
   -2.6469    0.1340   -2.2381 C   0  0  0  0  0  0  0  0  0  0  0  0
    0.0753   -1.4151   -1.8880 N   0  0  0  0  0  0  0  0  0  0  0  0
    0.5062   -0.0622   -1.7082 C   0  0  0  0  0  0  0  0  0  0  0  0
    0.3712    0.5503   -0.4582 C   0  0  0  0  0  0  0  0  0  0  0  0
    0.7929    1.8676   -0.2916 C   0  0  0  0  0  0  0  0  0  0  0  0
    1.3615    2.5755   -1.3570 C   0  0  0  0  0  0  0  0  0  0  0  0
    1.8812    4.2122   -1.1087 Cl  0  0  0  0  0  0  0  0  0  0  0  0
    1.5071    1.9496   -2.6087 C   0  0  0  0  0  0  0  0  0  0  0  0
    2.2133    2.7860   -3.9556 Cl  0  0  0  0  0  0  0  0  0  0  0  0
    1.0742    0.6312   -2.7796 C   0  0  0  0  0  0  0  0  0  0  0  0
    2.4802   -3.1054    0.7212 C   0  0  0  0  0  0  0  0  0  0  0  0
    2.9549   -1.9875    1.4305 C   0  0  0  0  0  0  0  0  0  0  0  0
    2.3351   -1.5708    2.6089 C   0  0  0  0  0  0  0  0  0  0  0  0
    1.2247   -2.2666    3.1014 C   0  0  0  0  0  0  0  0  0  0  0  0
    0.7471   -3.3808    2.4074 C   0  0  0  0  0  0  0  0  0  0  0  0
    1.3689   -3.7996    1.2261 C   0  0  0  0  0  0  0  0  0  0  0  0
    2.2415   -6.6177   -1.5820 H   0  0  0  0  0  0  0  0  0  0  0  0
    1.3575   -5.0961   -1.7437 H   0  0  0  0  0  0  0  0  0  0  0  0
    4.2316   -3.2149   -0.4954 H   0  0  0  0  0  0  0  0  0  0  0  0
   -3.5271   -2.9066   -1.0034 H   0  0  0  0  0  0  0  0  0  0  0  0
   -5.7386   -1.6865   -0.9214 H   0  0  0  0  0  0  0  0  0  0  0  0
   -5.8202    0.6962   -1.6996 H   0  0  0  0  0  0  0  0  0  0  0  0
   -1.8040    0.6947   -2.6517 H   0  0  0  0  0  0  0  0  0  0  0  0
   -0.0541   -0.0043    0.3795 H   0  0  0  0  0  0  0  0  0  0  0  0
    0.6934    2.3626    0.6754 H   0  0  0  0  0  0  0  0  0  0  0  0
    1.1819    0.1543   -3.7542 H   0  0  0  0  0  0  0  0  0  0  0  0
    3.8218   -1.4399    1.0507 H   0  0  0  0  0  0  0  0  0  0  0  0
    2.7258   -0.7055    3.1507 H   0  0  0  0  0  0  0  0  0  0  0  0
    0.7415   -1.9463    4.0281 H   0  0  0  0  0  0  0  0  0  0  0  0
   -0.1129   -3.9372    2.7886 H   0  0  0  0  0  0  0  0  0  0  0  0
    0.9925   -4.6775    0.6998 H   0  0  0  0  0  0  0  0  0  0  0  0
  1  2  1  0
  1 31  1  0
  1 32  1  0
  2  3  2  0
  2  4  1  0
  4  5  1  0
  4 25  1  0
  4 33  1  1
  5  6  1  0
  6  7  2  0
  6 16  1  0
  7  8  1  0
  8  9  2  0
  9 10  1  0
  9 16  1  0
 10 11  2  0
 10 15  1  0
 11 12  1  0
 11 34  1  0
 12 13  2  0
 12 35  1  0
 13 14  1  0
 13 36  1  0
 14 15  2  0
 15 37  1  0
 16 17  1  0
 17 18  2  0
 17 24  1  0
 18 19  1  0
 18 38  1  0
 19 20  2  0
 19 39  1  0
 20 21  1  0
 20 22  1  0
 22 23  1  0
 22 24  2  0
 24 40  1  0
 25 26  2  0
 25 30  1  0
 26 27  1  0
 26 41  1  0
 27 28  2  0
 27 42  1  0
 28 29  1  0
 28 43  1  0
 29 30  2  0
 29 44  1  0
 30 45  1  0
M  END

