
     RDKit          3D

 47 48  0  0  0  0  0  0  0  0999 V2000
    4.3913   -3.2322    4.2588 C   0  0  0  0  0  0  0  0  0  0  0  0
    5.5888   -3.1602    3.3302 C   0  0  0  0  0  0  0  0  0  0  0  0
    5.1997   -2.4574    2.1637 O   0  0  0  0  0  0  0  0  0  0  0  0
    6.1020   -2.2592    1.1642 C   0  0  0  0  0  0  0  0  0  0  0  0
    7.4357   -2.7016    1.1908 C   0  0  0  0  0  0  0  0  0  0  0  0
    8.2801   -2.4455    0.1094 C   0  0  0  0  0  0  0  0  0  0  0  0
    7.8196   -1.7481   -1.0141 C   0  0  0  0  0  0  0  0  0  0  0  0
    8.7275   -1.5472   -2.0159 O   0  0  0  0  0  0  0  0  0  0  0  0
    8.3143   -0.8966   -3.1855 C   0  0  0  0  0  0  0  0  0  0  0  0
    9.4308   -0.8535   -4.2114 C   0  0  0  0  0  0  0  0  0  0  0  0
    9.5389    0.0203   -5.0330 O   0  0  0  0  0  0  0  0  0  0  0  0
   10.2522   -1.9150   -4.1285 O   0  0  0  0  0  0  0  0  0  0  0  0
   11.2058   -2.0333   -5.1627 C   0  0  0  0  0  0  0  0  0  0  0  0
   10.5382   -2.5151   -6.4663 C   0  0  0  0  0  0  0  0  0  0  0  0
    9.3811   -2.8764   -6.4935 O   0  0  0  0  0  0  0  0  0  0  0  0
   11.3992   -2.5027   -7.5345 N   0  0  0  0  0  0  0  0  0  0  0  0
   11.1743   -2.9146   -8.8661 C   0  0  0  0  0  0  0  0  0  0  0  0
    9.9487   -3.4292   -9.3095 C   0  0  0  0  0  0  0  0  0  0  0  0
    9.8292   -3.8123  -10.6511 C   0  0  0  0  0  0  0  0  0  0  0  0
   10.8868   -3.6946  -11.5461 C   0  0  0  0  0  0  0  0  0  0  0  0
   12.1143   -3.1762  -11.0976 C   0  0  0  0  0  0  0  0  0  0  0  0
   13.1024   -3.0879  -12.0244 O   0  0  0  0  0  0  0  0  0  0  0  0
   14.3603   -2.5758  -11.6530 C   0  0  0  0  0  0  0  0  0  0  0  0
   12.2570   -2.7879   -9.7604 C   0  0  0  0  0  0  0  0  0  0  0  0
    6.4885   -1.3030   -1.0424 C   0  0  0  0  0  0  0  0  0  0  0  0
    5.6440   -1.5606    0.0386 C   0  0  0  0  0  0  0  0  0  0  0  0
    4.6547   -3.7734    5.1808 H   0  0  0  0  0  0  0  0  0  0  0  0
    3.5543   -3.7567    3.7729 H   0  0  0  0  0  0  0  0  0  0  0  0
    4.0507   -2.2217    4.5321 H   0  0  0  0  0  0  0  0  0  0  0  0
    5.9378   -4.1767    3.0640 H   0  0  0  0  0  0  0  0  0  0  0  0
    6.4341   -2.6422    3.8233 H   0  0  0  0  0  0  0  0  0  0  0  0
    7.8297   -3.2486    2.0475 H   0  0  0  0  0  0  0  0  0  0  0  0
    9.3172   -2.7870    0.1191 H   0  0  0  0  0  0  0  0  0  0  0  0
    7.9992    0.1458   -3.0021 H   0  0  0  0  0  0  0  0  0  0  0  0
    7.4678   -1.4243   -3.6701 H   0  0  0  0  0  0  0  0  0  0  0  0
   11.9342   -2.7846   -4.8210 H   0  0  0  0  0  0  0  0  0  0  0  0
   11.7216   -1.0743   -5.3348 H   0  0  0  0  0  0  0  0  0  0  0  0
   12.3275   -2.1361   -7.3549 H   0  0  0  0  0  0  0  0  0  0  0  0
    9.1173   -3.5201   -8.6160 H   0  0  0  0  0  0  0  0  0  0  0  0
    8.8748   -4.2139  -11.0015 H   0  0  0  0  0  0  0  0  0  0  0  0
   10.7956   -3.9915  -12.5922 H   0  0  0  0  0  0  0  0  0  0  0  0
   14.9877   -2.5993  -12.5543 H   0  0  0  0  0  0  0  0  0  0  0  0
   14.8414   -3.1896  -10.8694 H   0  0  0  0  0  0  0  0  0  0  0  0
   14.2921   -1.5322  -11.2946 H   0  0  0  0  0  0  0  0  0  0  0  0
   13.2029   -2.3838   -9.3962 H   0  0  0  0  0  0  0  0  0  0  0  0
    6.0943   -0.7533   -1.8976 H   0  0  0  0  0  0  0  0  0  0  0  0
    4.6067   -1.2197    0.0270 H   0  0  0  0  0  0  0  0  0  0  0  0
  1  2  1  0
  1 27  1  0
  1 28  1  0
  1 29  1  0
  2  3  1  0
  2 30  1  0
  2 31  1  0
  3  4  1  0
  4  5  2  0
  4 26  1  0
  5  6  1  0
  5 32  1  0
  6  7  2  0
  6 33  1  0
  7  8  1  0
  7 25  1  0
  8  9  1  0
  9 10  1  0
  9 34  1  0
  9 35  1  0
 10 11  2  0
 10 12  1  0
 12 13  1  0
 13 14  1  0
 13 36  1  0
 13 37  1  0
 14 15  2  0
 14 16  1  0
 16 17  1  0
 16 38  1  0
 17 18  2  0
 17 24  1  0
 18 19  1  0
 18 39  1  0
 19 20  2  0
 19 40  1  0
 20 21  1  0
 20 41  1  0
 21 22  1  0
 21 24  2  0
 22 23  1  0
 23 42  1  0
 23 43  1  0
 23 44  1  0
 24 45  1  0
 25 26  2  0
 25 46  1  0
 26 47  1  0
M  END

