
     RDKit          3D

 42 43  0  0  0  0  0  0  0  0999 V2000
   -0.6803   -4.8747   -1.2231 C   0  0  0  0  0  0  0  0  0  0  0  0
    0.4148   -3.9589   -0.6740 C   0  0  0  0  0  0  0  0  0  0  0  0
   -0.0674   -3.0259    0.3546 N   0  0  0  0  0  0  0  0  0  0  0  0
   -0.2168   -1.6604    0.2038 C   0  0  0  0  0  0  0  0  0  0  0  0
   -0.6748   -0.9592    1.0893 O   0  0  0  0  0  0  0  0  0  0  0  0
    0.2358   -1.0083   -1.1181 C   0  0  2  0  0  0  0  0  0  0  0  0
    1.0942   -1.5192   -1.5698 H   0  0  0  0  0  0  0  0  0  0  0  0
    0.5507    0.4706   -0.9158 C   0  0  0  0  0  0  0  0  0  0  0  0
   -1.1424   -1.2067   -2.3560 S   0  0  0  0  0  0  0  0  0  0  0  0
   -0.2362   -1.7916   -3.7597 C   0  0  0  0  0  0  0  0  0  0  0  0
    1.0374   -2.0650   -3.7086 N   0  0  0  0  0  0  0  0  0  0  0  0
    1.6866   -2.5106   -4.8179 N   0  0  0  0  0  0  0  0  0  0  0  0
    1.0592   -2.6728   -5.9475 C   0  0  0  0  0  0  0  0  0  0  0  0
    1.8041   -3.1612   -7.1502 C   0  0  0  0  0  0  0  0  0  0  0  0
   -0.3793   -2.3967   -6.1033 C   0  0  0  0  0  0  0  0  0  0  0  0
   -1.0412   -2.5326   -7.1157 O   0  0  0  0  0  0  0  0  0  0  0  0
   -0.9719   -1.9416   -4.9114 N   0  0  0  0  0  0  0  0  0  0  0  0
   -2.3384   -1.6447   -4.8898 N   0  0  0  0  0  0  0  0  0  0  0  0
   -0.4738   -3.6092    1.6048 C   0  0  0  0  0  0  0  0  0  0  0  0
   -1.8067   -3.5380    2.0321 C   0  0  0  0  0  0  0  0  0  0  0  0
   -2.1875   -4.1281    3.2385 C   0  0  0  0  0  0  0  0  0  0  0  0
   -1.2467   -4.8009    4.0251 C   0  0  0  0  0  0  0  0  0  0  0  0
    0.0827   -4.8727    3.6012 C   0  0  0  0  0  0  0  0  0  0  0  0
    0.4696   -4.2739    2.3990 C   0  0  0  0  0  0  0  0  0  0  0  0
   -0.2573   -5.5521   -1.9823 H   0  0  0  0  0  0  0  0  0  0  0  0
   -1.4842   -4.2858   -1.6911 H   0  0  0  0  0  0  0  0  0  0  0  0
   -1.1250   -5.4931   -0.4283 H   0  0  0  0  0  0  0  0  0  0  0  0
    0.8722   -3.3938   -1.4941 H   0  0  0  0  0  0  0  0  0  0  0  0
    1.2227   -4.5700   -0.2381 H   0  0  0  0  0  0  0  0  0  0  0  0
    0.8507    0.9303   -1.8686 H   0  0  0  0  0  0  0  0  0  0  0  0
    1.3795    0.5789   -0.1982 H   0  0  0  0  0  0  0  0  0  0  0  0
   -0.3144    1.0070   -0.5036 H   0  0  0  0  0  0  0  0  0  0  0  0
    2.8556   -3.3315   -6.8868 H   0  0  0  0  0  0  0  0  0  0  0  0
    1.7404   -2.4284   -7.9713 H   0  0  0  0  0  0  0  0  0  0  0  0
    1.3585   -4.0945   -7.5315 H   0  0  0  0  0  0  0  0  0  0  0  0
   -2.5055   -0.8790   -5.5484 H   0  0  0  0  0  0  0  0  0  0  0  0
   -2.8342   -2.4522   -5.2760 H   0  0  0  0  0  0  0  0  0  0  0  0
   -2.5382   -3.0087    1.4201 H   0  0  0  0  0  0  0  0  0  0  0  0
   -3.2285   -4.0634    3.5653 H   0  0  0  0  0  0  0  0  0  0  0  0
   -1.5489   -5.2643    4.9676 H   0  0  0  0  0  0  0  0  0  0  0  0
    0.8277   -5.3881    4.2127 H   0  0  0  0  0  0  0  0  0  0  0  0
    1.5136   -4.3128    2.0793 H   0  0  0  0  0  0  0  0  0  0  0  0
  1  2  1  0
  1 25  1  0
  1 26  1  0
  1 27  1  0
  2  3  1  0
  2 28  1  0
  2 29  1  0
  3  4  1  0
  3 19  1  0
  4  5  2  0
  4  6  1  0
  6  7  1  6
  6  8  1  0
  6  9  1  0
  8 30  1  0
  8 31  1  0
  8 32  1  0
  9 10  2  0
 10 11  1  0
 10 17  1  0
 11 12  2  0
 12 13  1  0
 13 14  1  0
 13 15  2  0
 14 33  1  0
 14 34  1  0
 14 35  1  0
 15 16  1  0
 15 17  1  0
 17 18  1  0
 18 36  1  0
 18 37  1  0
 19 20  2  0
 19 24  1  0
 20 21  1  0
 20 38  1  0
 21 22  2  0
 21 39  1  0
 22 23  1  0
 22 40  1  0
 23 24  2  0
 23 41  1  0
 24 42  1  0
M  CHG  2   9   1  16  -1
M  END

