
     RDKit          3D

 37 37  0  0  0  0  0  0  0  0999 V2000
    1.1160   -0.4987    1.0680 C   0  0  0  0  0  0  0  0  0  0  0  0
    2.5588   -0.3221    0.6626 C   0  0  0  0  0  0  0  0  0  0  0  0
    3.4782    0.3298    1.4968 C   0  0  0  0  0  0  0  0  0  0  0  0
    4.8193    0.4640    1.1292 C   0  0  0  0  0  0  0  0  0  0  0  0
    5.2714   -0.0441   -0.0938 C   0  0  0  0  0  0  0  0  0  0  0  0
    6.6483    0.1576   -0.4656 N   0  0  0  0  0  0  0  0  0  0  0  0
    7.0625    1.5481   -0.6611 C   0  0  0  0  0  0  0  0  0  0  0  0
    7.4274   -0.9328   -0.7718 C   0  0  0  0  0  0  0  0  0  0  0  0
    6.9270   -2.0334   -1.0337 O   0  0  0  0  0  0  0  0  0  0  0  0
    8.8126   -0.7692   -0.8004 N   0  0  0  0  0  0  0  0  0  0  0  0
    9.5287    0.0137    0.2086 C   0  0  0  0  0  0  0  0  0  0  0  0
   10.4102    1.1706   -0.2876 C   0  0  0  0  0  0  0  0  0  0  0  0
   10.4954    1.3328   -1.6380 N   0  0  0  0  0  0  0  0  0  0  0  0
   10.9906    1.8749    0.5135 O   0  0  0  0  0  0  0  0  0  0  0  0
    9.5787   -1.8816   -1.3842 C   0  0  0  0  0  0  0  0  0  0  0  0
    9.8014   -3.0822   -0.4379 C   0  0  0  0  0  0  0  0  0  0  0  0
   10.9062   -3.4145   -0.0895 O   0  0  0  0  0  0  0  0  0  0  0  0
    8.6978   -3.7128   -0.0473 O   0  0  0  0  0  0  0  0  0  0  0  0
    4.3635   -0.6899   -0.9436 C   0  0  0  0  0  0  0  0  0  0  0  0
    3.0296   -0.8272   -0.5612 C   0  0  0  0  0  0  0  0  0  0  0  0
    0.8504    0.1496    1.9161 H   0  0  0  0  0  0  0  0  0  0  0  0
    0.9146   -1.5407    1.3714 H   0  0  0  0  0  0  0  0  0  0  0  0
    0.4323   -0.2686    0.2352 H   0  0  0  0  0  0  0  0  0  0  0  0
    3.1449    0.7338    2.4567 H   0  0  0  0  0  0  0  0  0  0  0  0
    5.5201    0.9633    1.8026 H   0  0  0  0  0  0  0  0  0  0  0  0
    6.2469    2.0931   -1.1596 H   0  0  0  0  0  0  0  0  0  0  0  0
    7.9484    1.5968   -1.3037 H   0  0  0  0  0  0  0  0  0  0  0  0
    7.2913    2.0675    0.2841 H   0  0  0  0  0  0  0  0  0  0  0  0
   10.1985   -0.6491    0.7839 H   0  0  0  0  0  0  0  0  0  0  0  0
    8.8281    0.4338    0.9408 H   0  0  0  0  0  0  0  0  0  0  0  0
   10.0010    0.7288   -2.2806 H   0  0  0  0  0  0  0  0  0  0  0  0
   11.0964    2.0650   -1.9985 H   0  0  0  0  0  0  0  0  0  0  0  0
   10.5748   -1.5137   -1.6619 H   0  0  0  0  0  0  0  0  0  0  0  0
    9.0584   -2.2265   -2.2900 H   0  0  0  0  0  0  0  0  0  0  0  0
    7.9034   -3.2567   -0.4340 H   0  0  0  0  0  0  0  0  0  0  0  0
    4.7091   -1.0948   -1.8943 H   0  0  0  0  0  0  0  0  0  0  0  0
    2.3349   -1.3383   -1.2341 H   0  0  0  0  0  0  0  0  0  0  0  0
  1  2  1  0
  1 21  1  0
  1 22  1  0
  1 23  1  0
  2  3  2  0
  2 20  1  0
  3  4  1  0
  3 24  1  0
  4  5  2  0
  4 25  1  0
  5  6  1  0
  5 19  1  0
  6  7  1  0
  6  8  1  0
  7 26  1  0
  7 27  1  0
  7 28  1  0
  8  9  2  0
  8 10  1  0
 10 11  1  0
 10 15  1  0
 11 12  1  0
 11 29  1  0
 11 30  1  0
 12 13  1  0
 12 14  2  0
 13 31  1  0
 13 32  1  0
 15 16  1  0
 15 33  1  0
 15 34  1  0
 16 17  2  0
 16 18  1  0
 18 35  1  0
 19 20  2  0
 19 36  1  0
 20 37  1  0
M  END

