
     RDKit          3D

 29 30  0  0  0  0  0  0  0  0999 V2000
    2.3279    0.6378   -3.5538 C   0  0  0  0  0  0  0  0  0  0  0  0
    2.5470   -0.2018   -2.3186 C   0  0  0  0  0  0  0  0  0  0  0  0
    1.5497   -0.3504   -1.3452 C   0  0  0  0  0  0  0  0  0  0  0  0
    1.7674   -1.1239   -0.2010 C   0  0  0  0  0  0  0  0  0  0  0  0
    2.9941   -1.7517   -0.0347 C   0  0  0  0  0  0  0  0  0  0  0  0
    3.1973   -2.4953    1.0735 F   0  0  0  0  0  0  0  0  0  0  0  0
    4.0247   -1.6382   -0.9776 C   0  0  0  0  0  0  0  0  0  0  0  0
    5.3666   -2.3437   -0.7870 C   0  0  1  0  0  0  0  0  0  0  0  0
    6.0950   -1.8483    0.4575 C   0  0  0  0  0  0  0  0  0  0  0  0
    6.5802   -0.5046    0.4873 C   0  0  0  0  0  0  0  0  0  0  0  0
    6.9755    0.5882    0.4812 N   0  0  0  0  0  0  0  0  0  0  0  0
    6.2608   -2.6323    1.5388 C   0  0  0  0  0  0  0  0  0  0  0  0
    5.8688   -3.9289    1.6016 O   0  0  0  0  0  0  0  0  0  0  0  0
    5.4325   -4.5435    0.4671 C   0  0  0  0  0  0  0  0  0  0  0  0
    5.2704   -5.8719    0.6676 N   0  0  0  0  0  0  0  0  0  0  0  0
    5.2421   -3.8616   -0.7051 C   0  0  0  0  0  0  0  0  0  0  0  0
    4.8432   -4.5965   -1.8509 C   0  0  0  0  0  0  0  0  0  0  0  0
    4.5215   -5.2264   -2.7773 N   0  0  0  0  0  0  0  0  0  0  0  0
    3.7727   -0.8558   -2.1100 C   0  0  0  0  0  0  0  0  0  0  0  0
    1.2932    1.0057   -3.6132 H   0  0  0  0  0  0  0  0  0  0  0  0
    2.5355    0.0637   -4.4716 H   0  0  0  0  0  0  0  0  0  0  0  0
    2.9963    1.5153   -3.5636 H   0  0  0  0  0  0  0  0  0  0  0  0
    0.5839    0.1439   -1.4791 H   0  0  0  0  0  0  0  0  0  0  0  0
    0.9986   -1.2470    0.5643 H   0  0  0  0  0  0  0  0  0  0  0  0
    5.9804   -2.0850   -1.6656 H   0  0  0  0  0  0  0  0  0  0  0  0
    6.7321   -2.3076    2.4668 H   0  0  0  0  0  0  0  0  0  0  0  0
    5.3580   -6.2382    1.6057 H   0  0  0  0  0  0  0  0  0  0  0  0
    4.8110   -6.4303   -0.0402 H   0  0  0  0  0  0  0  0  0  0  0  0
    4.5646   -0.7562   -2.8588 H   0  0  0  0  0  0  0  0  0  0  0  0
  1  2  1  0
  1 20  1  0
  1 21  1  0
  1 22  1  0
  2  3  2  0
  2 19  1  0
  3  4  1  0
  3 23  1  0
  4  5  2  0
  4 24  1  0
  5  6  1  0
  5  7  1  0
  7  8  1  0
  7 19  2  0
  8  9  1  0
  8 16  1  0
  8 25  1  6
  9 10  1  0
  9 12  2  0
 10 11  3  0
 12 13  1  0
 12 26  1  0
 13 14  1  0
 14 15  1  0
 14 16  2  0
 15 27  1  0
 15 28  1  0
 16 17  1  0
 17 18  3  0
 19 29  1  0
M  END

