
     RDKit          3D

105109  0  0  0  0  0  0  0  0999 V2000
    1.5429    2.8208   -2.0751 C   0  0  0  0  0  0  0  0  0  0  0  0
    2.6906    2.1635   -1.3496 C   0  0  0  0  0  0  0  0  0  0  0  0
    3.9467    2.0243   -1.9363 C   0  0  0  0  0  0  0  0  0  0  0  0
    5.0232    1.4069   -1.2737 C   0  0  0  0  0  0  0  0  0  0  0  0
    6.3375    1.3786   -2.0225 C   0  0  0  0  0  0  0  0  0  0  0  0
    4.8456    0.8897    0.0361 C   0  0  0  0  0  0  0  0  0  0  0  0
    6.2794    0.0903    1.0176 Si  0  0  0  0  0  4  0  0  0  0  0  0
    6.7826    1.1685    2.5206 C   0  0  0  0  0  0  0  0  0  0  0  0
    6.4776    0.8127    3.8684 C   0  0  0  0  0  0  0  0  0  0  0  0
    5.8291   -0.4141    4.2312 C   0  0  0  0  0  0  0  0  0  0  0  0
    5.5332   -0.7296    5.5346 C   0  0  0  0  0  0  0  0  0  0  0  0
    5.8693    0.1620    6.5934 C   0  0  0  0  0  0  0  0  0  0  0  0
    6.4841    1.3524    6.3045 C   0  0  0  0  0  0  0  0  0  0  0  0
    6.7984    1.7197    4.9553 C   0  0  0  0  0  0  0  0  0  0  0  0
    7.3995    2.9504    4.6730 C   0  0  0  0  0  0  0  0  0  0  0  0
    7.7110    3.3299    3.3632 C   0  0  0  0  0  0  0  0  0  0  0  0
    8.3289    4.5931    3.0901 C   0  0  0  0  0  0  0  0  0  0  0  0
    8.6584    4.9617    1.8114 C   0  0  0  0  0  0  0  0  0  0  0  0
    8.3937    4.0702    0.7326 C   0  0  0  0  0  0  0  0  0  0  0  0
    7.7974    2.8543    0.9603 C   0  0  0  0  0  0  0  0  0  0  0  0
    7.4119    2.4253    2.2723 C   0  0  0  0  0  0  0  0  0  0  0  0
    7.0015   -1.9404    0.6827 Si  0  0  0  0  0  4  0  0  0  0  0  0
    8.5749   -2.8299    1.4067 C   0  0  1  0  0  0  0  0  0  0  0  0
   10.2086   -1.7721    1.3988 Si  0  0  1  0  0  4  0  0  0  0  0  0
   10.1349   -0.1688    2.3957 C   0  0  0  0  0  0  0  0  0  0  0  0
   11.6674   -2.8182    2.0356 C   0  0  0  0  0  0  0  0  0  0  0  0
   10.7578   -1.2301   -0.3324 C   0  0  0  0  0  0  0  0  0  0  0  0
    8.3640   -3.6433    3.1753 Si  0  0  1  0  0  4  0  0  0  0  0  0
    9.3546   -5.2662    3.2672 C   0  0  0  0  0  0  0  0  0  0  0  0
    8.9518   -2.5455    4.6055 C   0  0  0  0  0  0  0  0  0  0  0  0
    6.6017   -4.1506    3.6496 C   0  0  0  0  0  0  0  0  0  0  0  0
    8.7050   -3.9731    0.3285 C   0  0  0  0  0  0  0  0  0  0  0  0
    7.3200   -4.4663   -0.1270 C   0  0  0  0  0  0  0  0  0  0  0  0
    6.4271   -3.2651   -0.6243 C   0  0  1  0  0  0  0  0  0  0  0  0
    4.5544   -3.7769   -0.4753 Si  0  0  1  0  0  4  0  0  0  0  0  0
    3.3054   -2.4005   -0.8264 C   0  0  0  0  0  0  0  0  0  0  0  0
    4.1735   -5.2255   -1.6499 C   0  0  0  0  0  0  0  0  0  0  0  0
    4.0939   -4.4288    1.2444 C   0  0  0  0  0  0  0  0  0  0  0  0
    6.8464   -2.8957   -2.4959 Si  0  0  1  0  0  4  0  0  0  0  0  0
    8.3643   -1.8092   -2.8101 C   0  0  0  0  0  0  0  0  0  0  0  0
    7.2391   -4.5172   -3.4120 C   0  0  0  0  0  0  0  0  0  0  0  0
    5.4256   -2.0587   -3.4351 C   0  0  0  0  0  0  0  0  0  0  0  0
    3.5618    1.0367    0.6455 C   0  0  0  0  0  0  0  0  0  0  0  0
    3.2715    0.5255    2.0367 C   0  0  0  0  0  0  0  0  0  0  0  0
    2.5243    1.6626   -0.0505 C   0  0  0  0  0  0  0  0  0  0  0  0
    1.8523    3.2124   -3.0554 H   0  0  0  0  0  0  0  0  0  0  0  0
    1.1278    3.6586   -1.4904 H   0  0  0  0  0  0  0  0  0  0  0  0
    0.7173    2.1083   -2.2424 H   0  0  0  0  0  0  0  0  0  0  0  0
    4.1080    2.4126   -2.9472 H   0  0  0  0  0  0  0  0  0  0  0  0
    6.2081    0.9729   -3.0380 H   0  0  0  0  0  0  0  0  0  0  0  0
    7.0937    0.7701   -1.5107 H   0  0  0  0  0  0  0  0  0  0  0  0
    6.7383    2.4001   -2.1377 H   0  0  0  0  0  0  0  0  0  0  0  0
    5.5712   -1.1084    3.4309 H   0  0  0  0  0  0  0  0  0  0  0  0
    5.0354   -1.6755    5.7627 H   0  0  0  0  0  0  0  0  0  0  0  0
    5.6320   -0.1039    7.6265 H   0  0  0  0  0  0  0  0  0  0  0  0
    6.7449    2.0524    7.1031 H   0  0  0  0  0  0  0  0  0  0  0  0
    7.6307    3.6327    5.4962 H   0  0  0  0  0  0  0  0  0  0  0  0
    8.5369    5.2589    3.9323 H   0  0  0  0  0  0  0  0  0  0  0  0
    9.1309    5.9276    1.6164 H   0  0  0  0  0  0  0  0  0  0  0  0
    8.6753    4.3545   -0.2846 H   0  0  0  0  0  0  0  0  0  0  0  0
    7.6245    2.1811    0.1212 H   0  0  0  0  0  0  0  0  0  0  0  0
    9.7826   -0.2798    3.4287 H   0  0  0  0  0  0  0  0  0  0  0  0
    9.4905    0.5705    1.8989 H   0  0  0  0  0  0  0  0  0  0  0  0
   11.1532    0.2553    2.4317 H   0  0  0  0  0  0  0  0  0  0  0  0
   11.5947   -3.0923    3.0983 H   0  0  0  0  0  0  0  0  0  0  0  0
   12.5934   -2.2315    1.9110 H   0  0  0  0  0  0  0  0  0  0  0  0
   11.7895   -3.7467    1.4540 H   0  0  0  0  0  0  0  0  0  0  0  0
   10.0301   -0.5674   -0.8208 H   0  0  0  0  0  0  0  0  0  0  0  0
   10.9783   -2.0671   -1.0121 H   0  0  0  0  0  0  0  0  0  0  0  0
   11.6937   -0.6589   -0.2065 H   0  0  0  0  0  0  0  0  0  0  0  0
   10.4131   -5.1589    2.9897 H   0  0  0  0  0  0  0  0  0  0  0  0
    8.9155   -6.0541    2.6339 H   0  0  0  0  0  0  0  0  0  0  0  0
    9.3191   -5.6317    4.3078 H   0  0  0  0  0  0  0  0  0  0  0  0
   10.0240   -2.3051    4.5742 H   0  0  0  0  0  0  0  0  0  0  0  0
    8.7657   -3.1002    5.5409 H   0  0  0  0  0  0  0  0  0  0  0  0
    8.3866   -1.6040    4.6691 H   0  0  0  0  0  0  0  0  0  0  0  0
    6.2221   -4.9793    3.0365 H   0  0  0  0  0  0  0  0  0  0  0  0
    5.8790   -3.3249    3.5903 H   0  0  0  0  0  0  0  0  0  0  0  0
    6.6241   -4.4997    4.6962 H   0  0  0  0  0  0  0  0  0  0  0  0
    9.2995   -4.8195    0.7055 H   0  0  0  0  0  0  0  0  0  0  0  0
    9.2460   -3.6004   -0.5573 H   0  0  0  0  0  0  0  0  0  0  0  0
    6.8370   -4.9743    0.7251 H   0  0  0  0  0  0  0  0  0  0  0  0
    7.4324   -5.2362   -0.9061 H   0  0  0  0  0  0  0  0  0  0  0  0
    3.1995   -2.1620   -1.8928 H   0  0  0  0  0  0  0  0  0  0  0  0
    3.5497   -1.4669   -0.3009 H   0  0  0  0  0  0  0  0  0  0  0  0
    2.3197   -2.7383   -0.4637 H   0  0  0  0  0  0  0  0  0  0  0  0
    4.2333   -4.9545   -2.7147 H   0  0  0  0  0  0  0  0  0  0  0  0
    3.1433   -5.5702   -1.4575 H   0  0  0  0  0  0  0  0  0  0  0  0
    4.8433   -6.0842   -1.4801 H   0  0  0  0  0  0  0  0  0  0  0  0
    4.2084   -3.6712    2.0329 H   0  0  0  0  0  0  0  0  0  0  0  0
    4.6561   -5.3258    1.5434 H   0  0  0  0  0  0  0  0  0  0  0  0
    3.0279   -4.7113    1.2076 H   0  0  0  0  0  0  0  0  0  0  0  0
    9.3000   -2.3017   -2.5125 H   0  0  0  0  0  0  0  0  0  0  0  0
    8.3179   -0.8353   -2.3038 H   0  0  0  0  0  0  0  0  0  0  0  0
    8.4243   -1.6204   -3.8958 H   0  0  0  0  0  0  0  0  0  0  0  0
    8.2001   -4.9499   -3.0896 H   0  0  0  0  0  0  0  0  0  0  0  0
    7.3321   -4.2917   -4.4883 H   0  0  0  0  0  0  0  0  0  0  0  0
    6.4651   -5.2901   -3.3007 H   0  0  0  0  0  0  0  0  0  0  0  0
    5.0511   -1.1550   -2.9325 H   0  0  0  0  0  0  0  0  0  0  0  0
    4.5706   -2.7298   -3.6051 H   0  0  0  0  0  0  0  0  0  0  0  0
    5.8080   -1.7587   -4.4254 H   0  0  0  0  0  0  0  0  0  0  0  0
    3.8401    1.0776    2.8010 H   0  0  0  0  0  0  0  0  0  0  0  0
    3.5440   -0.5366    2.1435 H   0  0  0  0  0  0  0  0  0  0  0  0
    2.2035    0.6258    2.2795 H   0  0  0  0  0  0  0  0  0  0  0  0
    1.5479    1.7581    0.4349 H   0  0  0  0  0  0  0  0  0  0  0  0
  1  2  1  0
  1 46  1  0
  1 47  1  0
  1 48  1  0
  2  3  2  0
  2 45  1  0
  3  4  1  0
  3 49  1  0
  4  5  1  0
  4  6  2  0
  5 50  1  0
  5 51  1  0
  5 52  1  0
  6  7  1  0
  6 43  1  0
  7  8  1  0
  7 22  2  0
  8  9  1  0
  8 21  2  0
  9 10  2  0
  9 14  1  0
 10 11  1  0
 10 53  1  0
 11 12  2  0
 11 54  1  0
 12 13  1  0
 12 55  1  0
 13 14  2  0
 13 56  1  0
 14 15  1  0
 15 16  2  0
 15 57  1  0
 16 17  1  0
 16 21  1  0
 17 18  2  0
 17 58  1  0
 18 19  1  0
 18 59  1  0
 19 20  2  0
 19 60  1  0
 20 21  1  0
 20 61  1  0
 23 22  1  6
 34 22  1  1
 23 24  1  0
 23 28  1  0
 23 32  1  0
 24 25  1  1
 24 26  1  0
 24 27  1  0
 25 62  1  0
 25 63  1  0
 25 64  1  0
 26 65  1  0
 26 66  1  0
 26 67  1  0
 27 68  1  0
 27 69  1  0
 27 70  1  0
 28 29  1  6
 28 30  1  0
 28 31  1  0
 29 71  1  0
 29 72  1  0
 29 73  1  0
 30 74  1  0
 30 75  1  0
 30 76  1  0
 31 77  1  0
 31 78  1  0
 31 79  1  0
 32 33  1  0
 32 80  1  0
 32 81  1  0
 33 34  1  0
 33 82  1  0
 33 83  1  0
 34 35  1  0
 34 39  1  0
 35 36  1  6
 35 37  1  0
 35 38  1  0
 36 84  1  0
 36 85  1  0
 36 86  1  0
 37 87  1  0
 37 88  1  0
 37 89  1  0
 38 90  1  0
 38 91  1  0
 38 92  1  0
 39 40  1  1
 39 41  1  0
 39 42  1  0
 40 93  1  0
 40 94  1  0
 40 95  1  0
 41 96  1  0
 41 97  1  0
 41 98  1  0
 42 99  1  0
 42100  1  0
 42101  1  0
 43 44  1  0
 43 45  2  0
 44102  1  0
 44103  1  0
 44104  1  0
 45105  1  0
M  END

