
     RDKit          3D

 51 54  0  0  0  0  0  0  0  0999 V2000
    2.3787   -1.0596    1.4532 N   0  0  0  0  0  0  0  0  0  0  0  0
    3.2483   -0.4628    0.9638 C   0  0  0  0  0  0  0  0  0  0  0  0
    4.3321    0.2300    0.3261 C   0  0  0  0  0  0  0  0  0  0  0  0
    4.5741    1.5572    0.5491 C   0  0  0  0  0  0  0  0  0  0  0  0
    3.9381    2.5431    1.4137 C   0  0  0  0  0  0  0  0  0  0  0  0
    2.8724    2.2952    2.3120 C   0  0  0  0  0  0  0  0  0  0  0  0
    2.3446    3.3091    3.1010 C   0  0  0  0  0  0  0  0  0  0  0  0
    2.8427    4.6312    3.0423 C   0  0  0  0  0  0  0  0  0  0  0  0
    2.3102    5.7592    3.8149 C   0  0  0  0  0  0  0  0  0  0  0  0
    1.6278    5.7891    4.9939 C   0  0  0  0  0  0  0  0  0  0  0  0
    1.4323    4.5910    5.8652 C   0  0  0  0  0  0  0  0  0  0  0  0
    2.5359    3.8697    6.3552 C   0  0  0  0  0  0  0  0  0  0  0  0
    2.3532    2.7583    7.1813 C   0  0  0  0  0  0  0  0  0  0  0  0
    1.0636    2.3455    7.5301 C   0  0  0  0  0  0  0  0  0  0  0  0
   -0.0422    3.0596    7.0574 C   0  0  0  0  0  0  0  0  0  0  0  0
    0.1407    4.1784    6.2412 C   0  0  0  0  0  0  0  0  0  0  0  0
    1.0810    7.0804    5.4976 C   0  0  0  0  0  0  0  0  0  0  0  0
    0.5948    8.0672    4.6154 C   0  0  0  0  0  0  0  0  0  0  0  0
    0.1124    9.2865    5.0934 C   0  0  0  0  0  0  0  0  0  0  0  0
    0.0979    9.5498    6.4667 C   0  0  0  0  0  0  0  0  0  0  0  0
    0.5638    8.5774    7.3570 C   0  0  0  0  0  0  0  0  0  0  0  0
    1.0421    7.3560    6.8800 C   0  0  0  0  0  0  0  0  0  0  0  0
    3.8869    4.8835    2.1256 C   0  0  0  0  0  0  0  0  0  0  0  0
    4.4249    3.8693    1.3447 C   0  0  0  0  0  0  0  0  0  0  0  0
    5.1557   -0.5918   -0.6060 C   0  0  0  0  0  0  0  0  0  0  0  0
    6.4834   -0.2408   -0.9219 C   0  0  0  0  0  0  0  0  0  0  0  0
    7.2337   -1.0055   -1.8150 C   0  0  0  0  0  0  0  0  0  0  0  0
    6.6817   -2.1463   -2.4072 C   0  0  0  0  0  0  0  0  0  0  0  0
    5.3727   -2.5175   -2.0892 C   0  0  0  0  0  0  0  0  0  0  0  0
    4.6198   -1.7533   -1.1961 C   0  0  0  0  0  0  0  0  0  0  0  0
    5.3939    1.9746   -0.0419 H   0  0  0  0  0  0  0  0  0  0  0  0
    2.4420    1.2985    2.3949 H   0  0  0  0  0  0  0  0  0  0  0  0
    1.5139    3.0738    3.7656 H   0  0  0  0  0  0  0  0  0  0  0  0
    2.5143    6.7316    3.3551 H   0  0  0  0  0  0  0  0  0  0  0  0
    3.5448    4.1886    6.0834 H   0  0  0  0  0  0  0  0  0  0  0  0
    3.2231    2.2118    7.5545 H   0  0  0  0  0  0  0  0  0  0  0  0
    0.9205    1.4727    8.1722 H   0  0  0  0  0  0  0  0  0  0  0  0
   -1.0536    2.7452    7.3274 H   0  0  0  0  0  0  0  0  0  0  0  0
   -0.7267    4.7366    5.8803 H   0  0  0  0  0  0  0  0  0  0  0  0
    0.5695    7.8631    3.5427 H   0  0  0  0  0  0  0  0  0  0  0  0
   -0.2673   10.0311    4.3887 H   0  0  0  0  0  0  0  0  0  0  0  0
   -0.2833   10.5031    6.8413 H   0  0  0  0  0  0  0  0  0  0  0  0
    0.5556    8.7712    8.4329 H   0  0  0  0  0  0  0  0  0  0  0  0
    1.4061    6.6070    7.5861 H   0  0  0  0  0  0  0  0  0  0  0  0
    4.2844    5.8981    2.0365 H   0  0  0  0  0  0  0  0  0  0  0  0
    5.2417    4.1005    0.6552 H   0  0  0  0  0  0  0  0  0  0  0  0
    6.9487    0.6242   -0.4452 H   0  0  0  0  0  0  0  0  0  0  0  0
    8.2635   -0.7156   -2.0388 H   0  0  0  0  0  0  0  0  0  0  0  0
    7.2727   -2.7470   -3.1030 H   0  0  0  0  0  0  0  0  0  0  0  0
    4.9307   -3.4103   -2.5386 H   0  0  0  0  0  0  0  0  0  0  0  0
    3.5983   -2.0568   -0.9569 H   0  0  0  0  0  0  0  0  0  0  0  0
  1  2  3  0
  2  3  1  0
  3  4  2  0
  3 25  1  0
  4  5  1  0
  4 31  1  0
  5  6  2  0
  5 24  1  0
  6  7  1  0
  6 32  1  0
  7  8  2  0
  7 33  1  0
  8  9  1  0
  8 23  1  0
  9 10  2  0
  9 34  1  0
 10 11  1  0
 10 17  1  0
 11 12  2  0
 11 16  1  0
 12 13  1  0
 12 35  1  0
 13 14  2  0
 13 36  1  0
 14 15  1  0
 14 37  1  0
 15 16  2  0
 15 38  1  0
 16 39  1  0
 17 18  2  0
 17 22  1  0
 18 19  1  0
 18 40  1  0
 19 20  2  0
 19 41  1  0
 20 21  1  0
 20 42  1  0
 21 22  2  0
 21 43  1  0
 22 44  1  0
 23 24  2  0
 23 45  1  0
 24 46  1  0
 25 26  2  0
 25 30  1  0
 26 27  1  0
 26 47  1  0
 27 28  2  0
 27 48  1  0
 28 29  1  0
 28 49  1  0
 29 30  2  0
 29 50  1  0
 30 51  1  0
M  END

