
     RDKit          3D

174185  0  0  0  0  0  0  0  0999 V2000
    2.8830   -5.6943    2.7854 C   0  0  0  0  0  0  0  0  0  0  0  0
    3.8038   -4.6083    3.3438 C   0  0  0  0  0  0  0  0  0  0  0  0
    5.2927   -4.9549    3.2444 C   0  0  0  0  0  0  0  0  0  0  0  0
    6.2218   -3.8726    3.8016 C   0  0  0  0  0  0  0  0  0  0  0  0
    7.7102   -4.2195    3.7016 C   0  0  0  0  0  0  0  0  0  0  0  0
    8.6384   -3.1365    4.2596 C   0  0  0  0  0  0  0  0  0  0  0  0
   10.1268   -3.4833    4.1587 C   0  0  0  0  0  0  0  0  0  0  0  0
   11.0513   -2.3989    4.7190 C   0  0  0  0  0  0  0  0  0  0  0  0
   12.5447   -2.7556    4.6061 C   0  0  0  0  0  0  0  0  0  0  0  0
   13.4695   -1.7098    5.1723 C   0  0  0  0  0  0  0  0  0  0  0  0
   14.2675   -0.8712    4.4293 C   0  0  0  0  0  0  0  0  0  0  0  0
   15.2121    0.2505    5.3779 S   0  0  0  0  0  0  0  0  0  0  0  0
   14.5382   -0.3948    6.8488 C   0  0  0  0  0  0  0  0  0  0  0  0
   14.7075   -0.1295    8.2365 C   0  0  0  0  0  0  0  0  0  0  0  0
   13.9324   -0.9578    9.0238 C   0  0  0  0  0  0  0  0  0  0  0  0
   13.8566   -1.0488   10.4935 C   0  0  0  0  0  0  0  0  0  0  0  0
   13.9605   -2.3119   11.0915 C   0  0  0  0  0  0  0  0  0  0  0  0
   13.9628   -2.5041   12.4787 C   0  0  0  0  0  0  0  0  0  0  0  0
   14.1451   -3.8738   12.9968 C   0  0  0  0  0  0  0  0  0  0  0  0
   15.0400   -4.3435   13.9369 C   0  0  0  0  0  0  0  0  0  0  0  0
   14.9426   -5.7524   14.1140 C   0  0  0  0  0  0  0  0  0  0  0  0
   15.7465   -6.9284   15.1161 S   0  0  0  0  0  0  0  0  0  0  0  0
   14.7649   -8.2051   14.4402 C   0  0  0  0  0  0  0  0  0  0  0  0
   13.8605   -7.7837   13.4934 C   0  0  0  0  0  0  0  0  0  0  0  0
   12.9095   -8.6793   12.7430 C   0  0  0  0  0  0  0  0  0  0  0  0
   13.2741   -8.8805   11.2609 C   0  0  0  0  0  0  0  0  0  0  0  0
   12.2838   -9.7757   10.5111 C   0  0  0  0  0  0  0  0  0  0  0  0
   12.6386   -9.9874    9.0363 C   0  0  0  0  0  0  0  0  0  0  0  0
   11.6493  -10.8812    8.2827 C   0  0  0  0  0  0  0  0  0  0  0  0
   12.0035  -11.0927    6.8077 C   0  0  0  0  0  0  0  0  0  0  0  0
   11.0149  -11.9862    6.0531 C   0  0  0  0  0  0  0  0  0  0  0  0
   11.3686  -12.1978    4.5777 C   0  0  0  0  0  0  0  0  0  0  0  0
   10.3764  -13.0911    3.8315 C   0  0  0  0  0  0  0  0  0  0  0  0
   13.9786   -6.3656   13.3138 C   0  0  0  0  0  0  0  0  0  0  0  0
   13.1680   -5.1854   12.3232 S   0  0  0  0  0  0  0  0  0  0  0  0
   13.8176   -1.3718   13.3324 C   0  0  0  0  0  0  0  0  0  0  0  0
   13.7595   -1.4887   14.7593 C   0  0  0  0  0  0  0  0  0  0  0  0
   13.6158   -0.3973   15.5655 C   0  0  0  0  0  0  0  0  0  0  0  0
   13.5091    0.9275   15.0305 C   0  0  0  0  0  0  0  0  0  0  0  0
   13.3515    2.0762   15.8600 C   0  0  0  0  0  0  0  0  0  0  0  0
   13.1943    1.9828   17.3241 C   0  0  0  0  0  0  0  0  0  0  0  0
   12.3213    1.2074   18.0601 C   0  0  0  0  0  0  0  0  0  0  0  0
   12.4357    1.4498   19.4580 C   0  0  0  0  0  0  0  0  0  0  0  0
   11.6618    0.8220   20.8864 S   0  0  0  0  0  0  0  0  0  0  0  0
   12.6459    1.8522   21.8967 C   0  0  0  0  0  0  0  0  0  0  0  0
   13.5293    2.6478   21.2048 C   0  0  0  0  0  0  0  0  0  0  0  0
   14.4804    3.6347   21.8301 C   0  0  0  0  0  0  0  0  0  0  0  0
   14.1031    5.1086   21.5950 C   0  0  0  0  0  0  0  0  0  0  0  0
   15.0952    6.0922   22.2216 C   0  0  0  0  0  0  0  0  0  0  0  0
   14.7298    7.5629   22.0004 C   0  0  0  0  0  0  0  0  0  0  0  0
   15.7218    8.5483   22.6257 C   0  0  0  0  0  0  0  0  0  0  0  0
   15.3579   10.0195   22.4050 C   0  0  0  0  0  0  0  0  0  0  0  0
   16.3491   11.0051   23.0307 C   0  0  0  0  0  0  0  0  0  0  0  0
   15.9861   12.4769   22.8102 C   0  0  0  0  0  0  0  0  0  0  0  0
   16.9809   13.4542   23.4383 C   0  0  0  0  0  0  0  0  0  0  0  0
   13.3921    2.4067   19.7975 C   0  0  0  0  0  0  0  0  0  0  0  0
   14.1732    3.0223   18.3684 S   0  0  0  0  0  0  0  0  0  0  0  0
   13.3595    3.3449   15.2675 C   0  0  0  0  0  0  0  0  0  0  0  0
   13.4548    3.5428   13.8836 C   0  0  0  0  0  0  0  0  0  0  0  0
   13.4860    4.9217   13.3649 C   0  0  0  0  0  0  0  0  0  0  0  0
   14.3340    5.4819   12.4300 C   0  0  0  0  0  0  0  0  0  0  0  0
   14.0828    6.8693   12.2401 C   0  0  0  0  0  0  0  0  0  0  0  0
   14.7631    8.1207   11.2375 S   0  0  0  0  0  0  0  0  0  0  0  0
   13.6354    9.2839   11.8897 C   0  0  0  0  0  0  0  0  0  0  0  0
   12.7714    8.7709   12.8291 C   0  0  0  0  0  0  0  0  0  0  0  0
   11.7134    9.5589   13.5566 C   0  0  0  0  0  0  0  0  0  0  0  0
   12.0280    9.8125   15.0421 C   0  0  0  0  0  0  0  0  0  0  0  0
   10.9292   10.5953   15.7662 C   0  0  0  0  0  0  0  0  0  0  0  0
   11.2299   10.8572   17.2449 C   0  0  0  0  0  0  0  0  0  0  0  0
   10.1314   11.6390   17.9713 C   0  0  0  0  0  0  0  0  0  0  0  0
   10.4299   11.9000   19.4507 C   0  0  0  0  0  0  0  0  0  0  0  0
    9.3318   12.6819   20.1773 C   0  0  0  0  0  0  0  0  0  0  0  0
    9.6292   12.9430   21.6572 C   0  0  0  0  0  0  0  0  0  0  0  0
    8.5278   13.7242   22.3752 C   0  0  0  0  0  0  0  0  0  0  0  0
   13.0458    7.3766   13.0232 C   0  0  0  0  0  0  0  0  0  0  0  0
   12.3590    6.1212   14.0145 S   0  0  0  0  0  0  0  0  0  0  0  0
   13.5056    2.4035   13.0288 C   0  0  0  0  0  0  0  0  0  0  0  0
   13.4319    2.5106   11.6015 C   0  0  0  0  0  0  0  0  0  0  0  0
   13.5194    1.4146   10.7941 C   0  0  0  0  0  0  0  0  0  0  0  0
   13.7118    0.0980   11.3269 C   0  0  0  0  0  0  0  0  0  0  0  0
   13.7066   -0.0632   12.7533 C   0  0  0  0  0  0  0  0  0  0  0  0
   13.5757    1.0917   13.6065 C   0  0  0  0  0  0  0  0  0  0  0  0
   12.9800   -2.0777    8.0396 S   0  0  0  0  0  0  0  0  0  0  0  0
   13.6378   -1.4221    6.5672 C   0  0  0  0  0  0  0  0  0  0  0  0
    1.8218   -5.4114    2.8733 H   0  0  0  0  0  0  0  0  0  0  0  0
    3.0179   -6.6490    3.3213 H   0  0  0  0  0  0  0  0  0  0  0  0
    3.0889   -5.8852    1.7187 H   0  0  0  0  0  0  0  0  0  0  0  0
    3.5468   -4.4145    4.4013 H   0  0  0  0  0  0  0  0  0  0  0  0
    3.6170   -3.6571    2.8126 H   0  0  0  0  0  0  0  0  0  0  0  0
    5.5512   -5.1489    2.1863 H   0  0  0  0  0  0  0  0  0  0  0  0
    5.4809   -5.9068    3.7759 H   0  0  0  0  0  0  0  0  0  0  0  0
    5.9631   -3.6792    4.8594 H   0  0  0  0  0  0  0  0  0  0  0  0
    6.0330   -2.9211    3.2702 H   0  0  0  0  0  0  0  0  0  0  0  0
    7.9694   -4.4125    2.6438 H   0  0  0  0  0  0  0  0  0  0  0  0
    7.8994   -5.1709    4.2330 H   0  0  0  0  0  0  0  0  0  0  0  0
    8.3803   -2.9439    5.3175 H   0  0  0  0  0  0  0  0  0  0  0  0
    8.4493   -2.1849    3.7289 H   0  0  0  0  0  0  0  0  0  0  0  0
   10.3865   -3.6747    3.1007 H   0  0  0  0  0  0  0  0  0  0  0  0
   10.3169   -4.4350    4.6893 H   0  0  0  0  0  0  0  0  0  0  0  0
   10.7973   -2.2105    5.7772 H   0  0  0  0  0  0  0  0  0  0  0  0
   10.8704   -1.4456    4.1918 H   0  0  0  0  0  0  0  0  0  0  0  0
   12.7995   -2.9277    3.5473 H   0  0  0  0  0  0  0  0  0  0  0  0
   12.7253   -3.7147    5.1253 H   0  0  0  0  0  0  0  0  0  0  0  0
   14.3588   -0.8536    3.3434 H   0  0  0  0  0  0  0  0  0  0  0  0
   15.3955    0.6080    8.6494 H   0  0  0  0  0  0  0  0  0  0  0  0
   14.1023   -3.1815   10.4471 H   0  0  0  0  0  0  0  0  0  0  0  0
   15.7577   -3.7007   14.4465 H   0  0  0  0  0  0  0  0  0  0  0  0
   14.9111   -9.2269   14.7903 H   0  0  0  0  0  0  0  0  0  0  0  0
   11.8899   -8.2567   12.8080 H   0  0  0  0  0  0  0  0  0  0  0  0
   12.8666   -9.6603   13.2443 H   0  0  0  0  0  0  0  0  0  0  0  0
   14.2888   -9.3116   11.1974 H   0  0  0  0  0  0  0  0  0  0  0  0
   13.3329   -7.8979   10.7599 H   0  0  0  0  0  0  0  0  0  0  0  0
   11.2700   -9.3396   10.5839 H   0  0  0  0  0  0  0  0  0  0  0  0
   12.2228  -10.7576   11.0169 H   0  0  0  0  0  0  0  0  0  0  0  0
   13.6524  -10.4232    8.9644 H   0  0  0  0  0  0  0  0  0  0  0  0
   12.7003   -9.0050    8.5323 H   0  0  0  0  0  0  0  0  0  0  0  0
   10.6355  -10.4451    8.3553 H   0  0  0  0  0  0  0  0  0  0  0  0
   11.5877  -11.8635    8.7874 H   0  0  0  0  0  0  0  0  0  0  0  0
   13.0175  -11.5287    6.7353 H   0  0  0  0  0  0  0  0  0  0  0  0
   12.0654  -10.1103    6.3034 H   0  0  0  0  0  0  0  0  0  0  0  0
   10.0005  -11.5506    6.1252 H   0  0  0  0  0  0  0  0  0  0  0  0
   10.9530  -12.9691    6.5570 H   0  0  0  0  0  0  0  0  0  0  0  0
   12.3823  -12.6329    4.5068 H   0  0  0  0  0  0  0  0  0  0  0  0
   11.4303  -11.2151    4.0753 H   0  0  0  0  0  0  0  0  0  0  0  0
   10.3197  -14.0946    4.2861 H   0  0  0  0  0  0  0  0  0  0  0  0
   10.6617  -13.2209    2.7752 H   0  0  0  0  0  0  0  0  0  0  0  0
    9.3593  -12.6645    3.8511 H   0  0  0  0  0  0  0  0  0  0  0  0
   13.8206   -2.4790   15.2083 H   0  0  0  0  0  0  0  0  0  0  0  0
   13.5881   -0.5315   16.6460 H   0  0  0  0  0  0  0  0  0  0  0  0
   11.6078    0.5214   17.6036 H   0  0  0  0  0  0  0  0  0  0  0  0
   12.5178    1.8111   22.9783 H   0  0  0  0  0  0  0  0  0  0  0  0
   15.4964    3.4565   21.4324 H   0  0  0  0  0  0  0  0  0  0  0  0
   14.5382    3.4420   22.9141 H   0  0  0  0  0  0  0  0  0  0  0  0
   13.0920    5.2884   22.0012 H   0  0  0  0  0  0  0  0  0  0  0  0
   14.0303    5.3014   20.5100 H   0  0  0  0  0  0  0  0  0  0  0  0
   16.1052    5.9016   21.8130 H   0  0  0  0  0  0  0  0  0  0  0  0
   15.1706    5.8937   23.3072 H   0  0  0  0  0  0  0  0  0  0  0  0
   13.7198    7.7530   22.4089 H   0  0  0  0  0  0  0  0  0  0  0  0
   14.6543    7.7601   20.9149 H   0  0  0  0  0  0  0  0  0  0  0  0
   16.7317    8.3572   22.2172 H   0  0  0  0  0  0  0  0  0  0  0  0
   15.7972    8.3501   23.7112 H   0  0  0  0  0  0  0  0  0  0  0  0
   14.3476   10.2103   22.8127 H   0  0  0  0  0  0  0  0  0  0  0  0
   15.2831   10.2173   21.3193 H   0  0  0  0  0  0  0  0  0  0  0  0
   17.3598   10.8146   22.6231 H   0  0  0  0  0  0  0  0  0  0  0  0
   16.4241   10.8076   24.1166 H   0  0  0  0  0  0  0  0  0  0  0  0
   14.9760   12.6660   23.2174 H   0  0  0  0  0  0  0  0  0  0  0  0
   15.9116   12.6730   21.7249 H   0  0  0  0  0  0  0  0  0  0  0  0
   17.0506   13.3094   24.5297 H   0  0  0  0  0  0  0  0  0  0  0  0
   16.6886   14.5016   23.2604 H   0  0  0  0  0  0  0  0  0  0  0  0
   17.9940   13.3169   23.0240 H   0  0  0  0  0  0  0  0  0  0  0  0
   13.2835    4.2211   15.9147 H   0  0  0  0  0  0  0  0  0  0  0  0
   15.1239    4.9185   11.9334 H   0  0  0  0  0  0  0  0  0  0  0  0
   13.6698   10.3127   11.5313 H   0  0  0  0  0  0  0  0  0  0  0  0
   10.7496    9.0227   13.4803 H   0  0  0  0  0  0  0  0  0  0  0  0
   11.5675   10.5245   13.0450 H   0  0  0  0  0  0  0  0  0  0  0  0
   12.9858   10.3570   15.1173 H   0  0  0  0  0  0  0  0  0  0  0  0
   12.1894    8.8472   15.5541 H   0  0  0  0  0  0  0  0  0  0  0  0
    9.9729   10.0464   15.6798 H   0  0  0  0  0  0  0  0  0  0  0  0
   10.7668   11.5601   15.2500 H   0  0  0  0  0  0  0  0  0  0  0  0
   12.1863   11.4058   17.3309 H   0  0  0  0  0  0  0  0  0  0  0  0
   11.3925    9.8920   17.7597 H   0  0  0  0  0  0  0  0  0  0  0  0
    9.1750   11.0904   17.8836 H   0  0  0  0  0  0  0  0  0  0  0  0
    9.9694   12.6043   17.4561 H   0  0  0  0  0  0  0  0  0  0  0  0
   11.3866   12.4481   19.5383 H   0  0  0  0  0  0  0  0  0  0  0  0
   10.5916   10.9345   19.9654 H   0  0  0  0  0  0  0  0  0  0  0  0
    8.3747   12.1340   20.0898 H   0  0  0  0  0  0  0  0  0  0  0  0
    9.1698   13.6478   19.6629 H   0  0  0  0  0  0  0  0  0  0  0  0
   10.5859   13.4901   21.7435 H   0  0  0  0  0  0  0  0  0  0  0  0
    9.7909   11.9772   22.1701 H   0  0  0  0  0  0  0  0  0  0  0  0
    8.3674   14.7113   21.9096 H   0  0  0  0  0  0  0  0  0  0  0  0
    8.7751   13.8935   23.4355 H   0  0  0  0  0  0  0  0  0  0  0  0
    7.5659   13.1852   22.3404 H   0  0  0  0  0  0  0  0  0  0  0  0
   13.2658    3.4916   11.1574 H   0  0  0  0  0  0  0  0  0  0  0  0
   13.4170    1.5344    9.7161 H   0  0  0  0  0  0  0  0  0  0  0  0
  1  2  1  0
  1 85  1  0
  1 86  1  0
  1 87  1  0
  2  3  1  0
  2 88  1  0
  2 89  1  0
  3  4  1  0
  3 90  1  0
  3 91  1  0
  4  5  1  0
  4 92  1  0
  4 93  1  0
  5  6  1  0
  5 94  1  0
  5 95  1  0
  6  7  1  0
  6 96  1  0
  6 97  1  0
  7  8  1  0
  7 98  1  0
  7 99  1  0
  8  9  1  0
  8100  1  0
  8101  1  0
  9 10  1  0
  9102  1  0
  9103  1  0
 10 11  2  0
 10 84  1  0
 11 12  1  0
 11104  1  0
 12 13  1  0
 13 14  1  0
 13 84  2  0
 14 15  2  0
 14105  1  0
 15 16  1  0
 15 83  1  0
 16 17  2  0
 16 80  1  0
 17 18  1  0
 17106  1  0
 18 19  1  0
 18 36  2  0
 19 20  2  0
 19 35  1  0
 20 21  1  0
 20107  1  0
 21 22  1  0
 21 34  2  0
 22 23  1  0
 23 24  2  0
 23108  1  0
 24 25  1  0
 24 34  1  0
 25 26  1  0
 25109  1  0
 25110  1  0
 26 27  1  0
 26111  1  0
 26112  1  0
 27 28  1  0
 27113  1  0
 27114  1  0
 28 29  1  0
 28115  1  0
 28116  1  0
 29 30  1  0
 29117  1  0
 29118  1  0
 30 31  1  0
 30119  1  0
 30120  1  0
 31 32  1  0
 31121  1  0
 31122  1  0
 32 33  1  0
 32123  1  0
 32124  1  0
 33125  1  0
 33126  1  0
 33127  1  0
 34 35  1  0
 36 37  1  0
 36 81  1  0
 37 38  2  0
 37128  1  0
 38 39  1  0
 38129  1  0
 39 40  2  0
 39 82  1  0
 40 41  1  0
 40 58  1  0
 41 42  2  0
 41 57  1  0
 42 43  1  0
 42130  1  0
 43 44  1  0
 43 56  2  0
 44 45  1  0
 45 46  2  0
 45131  1  0
 46 47  1  0
 46 56  1  0
 47 48  1  0
 47132  1  0
 47133  1  0
 48 49  1  0
 48134  1  0
 48135  1  0
 49 50  1  0
 49136  1  0
 49137  1  0
 50 51  1  0
 50138  1  0
 50139  1  0
 51 52  1  0
 51140  1  0
 51141  1  0
 52 53  1  0
 52142  1  0
 52143  1  0
 53 54  1  0
 53144  1  0
 53145  1  0
 54 55  1  0
 54146  1  0
 54147  1  0
 55148  1  0
 55149  1  0
 55150  1  0
 56 57  1  0
 58 59  2  0
 58151  1  0
 59 60  1  0
 59 77  1  0
 60 61  2  0
 60 76  1  0
 61 62  1  0
 61152  1  0
 62 63  1  0
 62 75  2  0
 63 64  1  0
 64 65  2  0
 64153  1  0
 65 66  1  0
 65 75  1  0
 66 67  1  0
 66154  1  0
 66155  1  0
 67 68  1  0
 67156  1  0
 67157  1  0
 68 69  1  0
 68158  1  0
 68159  1  0
 69 70  1  0
 69160  1  0
 69161  1  0
 70 71  1  0
 70162  1  0
 70163  1  0
 71 72  1  0
 71164  1  0
 71165  1  0
 72 73  1  0
 72166  1  0
 72167  1  0
 73 74  1  0
 73168  1  0
 73169  1  0
 74170  1  0
 74171  1  0
 74172  1  0
 75 76  1  0
 77 78  2  0
 77 82  1  0
 78 79  1  0
 78173  1  0
 79 80  2  0
 79174  1  0
 80 81  1  0
 81 82  2  0
 83 84  1  0
M  END

