
     RDKit          3D

 49 52  0  0  0  0  0  0  0  0999 V2000
    1.4202   -0.0676   -0.3091 C   0  0  0  0  0  0  0  0  0  0  0  0
    2.7673   -0.4735   -0.1021 O   0  0  0  0  0  0  0  0  0  0  0  0
    3.1360   -0.8188    1.1615 C   0  0  0  0  0  0  0  0  0  0  0  0
    3.1232   -2.1822    1.4824 C   0  0  0  0  0  0  0  0  0  0  0  0
    2.6826   -3.2387    0.5040 C   0  0  0  0  0  0  0  0  0  0  0  0
    3.5858   -2.5610    2.7568 C   0  0  0  0  0  0  0  0  0  0  0  0
    4.1027   -1.6349    3.6861 C   0  0  0  0  0  0  0  0  0  0  0  0
    4.0337   -0.2512    3.3695 C   0  0  0  0  0  0  0  0  0  0  0  0
    3.5823    0.1703    2.0913 C   0  0  0  0  0  0  0  0  0  0  0  0
    3.6489    1.6051    1.7276 C   0  0  0  0  0  0  0  0  0  0  0  0
    3.0549    2.0821    0.7646 O   0  0  0  0  0  0  0  0  0  0  0  0
    4.5112    2.4486    2.5956 C   0  0  0  0  0  0  0  0  0  0  0  0
    4.9549    3.7370    2.1797 C   0  0  0  0  0  0  0  0  0  0  0  0
    4.6814    4.2935    0.8038 C   0  0  0  0  0  0  0  0  0  0  0  0
    5.6771    4.5216    3.0835 C   0  0  0  0  0  0  0  0  0  0  0  0
    5.9462    4.0719    4.3800 C   0  0  0  0  0  0  0  0  0  0  0  0
    5.5228    2.8175    4.7958 C   0  0  0  0  0  0  0  0  0  0  0  0
    4.8215    1.9834    3.8995 C   0  0  0  0  0  0  0  0  0  0  0  0
    4.4194    0.7098    4.3109 N   0  0  0  0  0  0  0  0  0  0  0  0
    4.1704    0.5087    5.7382 C   0  0  0  0  0  0  0  0  0  0  0  0
    4.8637   -2.2111    4.7954 C   0  0  0  0  0  0  0  0  0  0  0  0
    4.7563   -3.5145    5.1023 C   0  0  0  0  0  0  0  0  0  0  0  0
    3.7588   -4.3815    4.3691 C   0  0  1  0  0  0  0  0  0  0  0  0
    4.2628   -5.8158    4.2147 C   0  0  0  0  0  0  0  0  0  0  0  0
    2.3772   -4.3461    5.0411 C   0  0  0  0  0  0  0  0  0  0  0  0
    3.6138   -3.8881    3.0067 O   0  0  0  0  0  0  0  0  0  0  0  0
    1.1933    0.8487    0.2540 H   0  0  0  0  0  0  0  0  0  0  0  0
    0.7171   -0.8745   -0.0323 H   0  0  0  0  0  0  0  0  0  0  0  0
    1.3199    0.1425   -1.3830 H   0  0  0  0  0  0  0  0  0  0  0  0
    2.5218   -2.8030   -0.4890 H   0  0  0  0  0  0  0  0  0  0  0  0
    1.7509   -3.7298    0.8329 H   0  0  0  0  0  0  0  0  0  0  0  0
    3.4400   -4.0339    0.4233 H   0  0  0  0  0  0  0  0  0  0  0  0
    4.9310    3.5734    0.0114 H   0  0  0  0  0  0  0  0  0  0  0  0
    5.2626    5.2150    0.6483 H   0  0  0  0  0  0  0  0  0  0  0  0
    3.6129    4.5158    0.6692 H   0  0  0  0  0  0  0  0  0  0  0  0
    6.0303    5.5064    2.7682 H   0  0  0  0  0  0  0  0  0  0  0  0
    6.5084    4.7060    5.0708 H   0  0  0  0  0  0  0  0  0  0  0  0
    5.7693    2.4712    5.7988 H   0  0  0  0  0  0  0  0  0  0  0  0
    3.6749    1.4020    6.1493 H   0  0  0  0  0  0  0  0  0  0  0  0
    5.0875    0.3290    6.3226 H   0  0  0  0  0  0  0  0  0  0  0  0
    3.5026   -0.3487    5.8762 H   0  0  0  0  0  0  0  0  0  0  0  0
    5.5982   -1.5904    5.3097 H   0  0  0  0  0  0  0  0  0  0  0  0
    5.3825   -3.9754    5.8706 H   0  0  0  0  0  0  0  0  0  0  0  0
    4.3689   -6.2911    5.2019 H   0  0  0  0  0  0  0  0  0  0  0  0
    5.2409   -5.8268    3.7116 H   0  0  0  0  0  0  0  0  0  0  0  0
    3.5546   -6.4071    3.6154 H   0  0  0  0  0  0  0  0  0  0  0  0
    2.4424   -4.7352    6.0691 H   0  0  0  0  0  0  0  0  0  0  0  0
    1.6590   -4.9611    4.4762 H   0  0  0  0  0  0  0  0  0  0  0  0
    1.9952   -3.3153    5.0904 H   0  0  0  0  0  0  0  0  0  0  0  0
  1  2  1  0
  1 27  1  0
  1 28  1  0
  1 29  1  0
  2  3  1  0
  3  4  2  0
  3  9  1  0
  4  5  1  0
  4  6  1  0
  5 30  1  0
  5 31  1  0
  5 32  1  0
  6  7  2  0
  6 26  1  0
  7  8  1  0
  7 21  1  0
  8  9  2  0
  8 19  1  0
  9 10  1  0
 10 11  2  0
 10 12  1  0
 12 13  2  0
 12 18  1  0
 13 14  1  0
 13 15  1  0
 14 33  1  0
 14 34  1  0
 14 35  1  0
 15 16  2  0
 15 36  1  0
 16 17  1  0
 16 37  1  0
 17 18  2  0
 17 38  1  0
 18 19  1  0
 19 20  1  0
 20 39  1  0
 20 40  1  0
 20 41  1  0
 21 22  2  0
 21 42  1  0
 22 23  1  0
 22 43  1  0
 23 24  1  6
 23 25  1  0
 23 26  1  0
 24 44  1  0
 24 45  1  0
 24 46  1  0
 25 47  1  0
 25 48  1  0
 25 49  1  0
M  END

