
     RDKit          3D

 35 35  0  0  0  0  0  0  0  0999 V2000
    1.1403    0.4222   -0.5003 C   0  0  0  0  0  0  0  0  0  0  0  0
    2.5028    0.3214   -0.1765 O   0  0  0  0  0  0  0  0  0  0  0  0
    2.9166    1.2034    0.8333 C   0  0  0  0  0  0  0  0  0  0  0  0
    4.4205    1.0295    1.0456 C   0  0  1  0  0  0  0  0  0  0  0  0
    5.1030    1.4390   -0.1727 N   0  0  0  0  0  0  0  0  0  0  0  0
    6.2702    0.9465   -0.6518 C   0  0  0  0  0  0  0  0  0  0  0  0
    6.9988   -0.0561    0.0515 C   0  0  0  0  0  0  0  0  0  0  0  0
    8.1894   -0.5738   -0.4313 C   0  0  0  0  0  0  0  0  0  0  0  0
    9.1148   -1.9073    0.5437 Br  0  0  0  0  0  0  0  0  0  0  0  0
    8.7292   -0.1172   -1.6485 C   0  0  0  0  0  0  0  0  0  0  0  0
    9.8797   -0.6187   -2.1064 F   0  0  0  0  0  0  0  0  0  0  0  0
    8.0619    0.8535   -2.3619 C   0  0  0  0  0  0  0  0  0  0  0  0
    6.8531    1.3887   -1.8856 C   0  0  0  0  0  0  0  0  0  0  0  0
    6.2361    2.4090   -2.7161 N   0  0  0  0  0  0  0  0  0  0  0  0
    5.1689    2.9135   -2.3432 O   0  0  0  0  0  0  0  0  0  0  0  0
    6.7950    2.7363   -3.7513 O   0  0  0  0  0  0  0  0  0  0  0  0
    4.9734    1.7655    2.3007 C   0  0  1  0  0  0  0  0  0  0  0  0
    4.7113    3.2768    2.2709 C   0  0  0  0  0  0  0  0  0  0  0  0
    4.4937    1.1266    3.6104 C   0  0  0  0  0  0  0  0  0  0  0  0
    0.9302   -0.3080   -1.2949 H   0  0  0  0  0  0  0  0  0  0  0  0
    0.8762    1.4332   -0.8711 H   0  0  0  0  0  0  0  0  0  0  0  0
    0.4887    0.1965    0.3685 H   0  0  0  0  0  0  0  0  0  0  0  0
    2.3809    0.9990    1.7815 H   0  0  0  0  0  0  0  0  0  0  0  0
    2.6866    2.2537    0.5544 H   0  0  0  0  0  0  0  0  0  0  0  0
    4.5775   -0.0535    1.1877 H   0  0  0  0  0  0  0  0  0  0  0  0
    4.6517    2.1046   -0.7977 H   0  0  0  0  0  0  0  0  0  0  0  0
    6.6161   -0.4344    0.9966 H   0  0  0  0  0  0  0  0  0  0  0  0
    8.4647    1.2195   -3.3050 H   0  0  0  0  0  0  0  0  0  0  0  0
    6.0679    1.6253    2.2543 H   0  0  0  0  0  0  0  0  0  0  0  0
    3.6434    3.5121    2.4130 H   0  0  0  0  0  0  0  0  0  0  0  0
    5.0346    3.7217    1.3168 H   0  0  0  0  0  0  0  0  0  0  0  0
    5.2649    3.7820    3.0781 H   0  0  0  0  0  0  0  0  0  0  0  0
    3.4141    1.2765    3.7747 H   0  0  0  0  0  0  0  0  0  0  0  0
    5.0167    1.5720    4.4713 H   0  0  0  0  0  0  0  0  0  0  0  0
    4.6876    0.0414    3.6296 H   0  0  0  0  0  0  0  0  0  0  0  0
  1  2  1  0
  1 20  1  0
  1 21  1  0
  1 22  1  0
  2  3  1  0
  3  4  1  0
  3 23  1  0
  3 24  1  0
  4  5  1  0
  4 17  1  0
  4 25  1  1
  5  6  1  0
  5 26  1  0
  6  7  2  0
  6 13  1  0
  7  8  1  0
  7 27  1  0
  8  9  1  0
  8 10  2  0
 10 11  1  0
 10 12  1  0
 12 13  2  0
 12 28  1  0
 13 14  1  0
 14 15  2  0
 14 16  1  0
 17 18  1  0
 17 19  1  0
 17 29  1  6
 18 30  1  0
 18 31  1  0
 18 32  1  0
 19 33  1  0
 19 34  1  0
 19 35  1  0
M  CHG  2  14   1  16  -1
M  END

