
     RDKit          3D

 45 48  0  0  0  0  0  0  0  0999 V2000
   -0.5962    2.9642   -1.5661 O   0  0  0  0  0  0  0  0  0  0  0  0
    0.4605    2.9670   -2.1790 C   0  0  0  0  0  0  0  0  0  0  0  0
    1.6193    2.0589   -1.7438 C   0  0  0  0  0  0  0  0  0  0  0  0
    1.9346    0.8827   -2.6891 C   0  0  0  0  0  0  0  0  0  0  0  0
    2.8376    1.2187   -3.8420 C   0  0  0  0  0  0  0  0  0  0  0  0
    3.1256    2.4306   -4.2570 N   0  0  0  0  0  0  0  0  0  0  0  0
    4.0166    2.2842   -5.3062 C   0  0  0  0  0  0  0  0  0  0  0  0
    4.6414    3.2482   -6.1113 C   0  0  0  0  0  0  0  0  0  0  0  0
    5.5011    2.8042   -7.1143 C   0  0  0  0  0  0  0  0  0  0  0  0
    5.7394    1.4289   -7.3210 C   0  0  0  0  0  0  0  0  0  0  0  0
    5.1281    0.4553   -6.5302 C   0  0  0  0  0  0  0  0  0  0  0  0
    4.2707    0.9090   -5.5228 C   0  0  0  0  0  0  0  0  0  0  0  0
    3.4988    0.2417   -4.5727 N   0  0  0  0  0  0  0  0  0  0  0  0
    3.4385   -1.1731   -4.3845 C   0  0  0  0  0  0  0  0  0  0  0  0
    4.5695   -1.8622   -3.9250 C   0  0  0  0  0  0  0  0  0  0  0  0
    4.5143   -3.2471   -3.7504 C   0  0  0  0  0  0  0  0  0  0  0  0
    3.3332   -3.9444   -4.0235 C   0  0  0  0  0  0  0  0  0  0  0  0
    2.2064   -3.2546   -4.4814 C   0  0  0  0  0  0  0  0  0  0  0  0
    2.2581   -1.8714   -4.6709 C   0  0  0  0  0  0  0  0  0  0  0  0
    0.7306    3.7446   -3.2728 N   0  0  0  0  0  0  0  0  0  0  0  0
   -0.1168    4.6538   -3.9298 C   0  0  0  0  0  0  0  0  0  0  0  0
   -1.4151    4.9712   -3.4856 C   0  0  0  0  0  0  0  0  0  0  0  0
   -2.1917    5.8906   -4.1947 C   0  0  0  0  0  0  0  0  0  0  0  0
   -1.6822    6.4930   -5.3409 C   0  0  0  0  0  0  0  0  0  0  0  0
   -2.4362    7.3774   -6.0180 F   0  0  0  0  0  0  0  0  0  0  0  0
   -0.4016    6.1946   -5.8002 C   0  0  0  0  0  0  0  0  0  0  0  0
    0.3745    5.2769   -5.0939 C   0  0  0  0  0  0  0  0  0  0  0  0
    1.3046    1.6534   -0.7738 H   0  0  0  0  0  0  0  0  0  0  0  0
    2.5303    2.6583   -1.5857 H   0  0  0  0  0  0  0  0  0  0  0  0
    0.9931    0.4434   -3.0646 H   0  0  0  0  0  0  0  0  0  0  0  0
    2.4152    0.0763   -2.1104 H   0  0  0  0  0  0  0  0  0  0  0  0
    4.4551    4.3116   -5.9472 H   0  0  0  0  0  0  0  0  0  0  0  0
    6.0019    3.5331   -7.7560 H   0  0  0  0  0  0  0  0  0  0  0  0
    6.4176    1.1186   -8.1196 H   0  0  0  0  0  0  0  0  0  0  0  0
    5.3114   -0.6085   -6.6926 H   0  0  0  0  0  0  0  0  0  0  0  0
    5.4834   -1.3071   -3.7031 H   0  0  0  0  0  0  0  0  0  0  0  0
    5.3970   -3.7822   -3.3919 H   0  0  0  0  0  0  0  0  0  0  0  0
    3.2914   -5.0268   -3.8810 H   0  0  0  0  0  0  0  0  0  0  0  0
    1.2834   -3.7959   -4.7020 H   0  0  0  0  0  0  0  0  0  0  0  0
    1.3893   -1.3288   -5.0494 H   0  0  0  0  0  0  0  0  0  0  0  0
    1.6515    3.5861   -3.7009 H   0  0  0  0  0  0  0  0  0  0  0  0
   -1.7994    4.4897   -2.5896 H   0  0  0  0  0  0  0  0  0  0  0  0
   -3.1997    6.1459   -3.8607 H   0  0  0  0  0  0  0  0  0  0  0  0
   -0.0257    6.6803   -6.7030 H   0  0  0  0  0  0  0  0  0  0  0  0
    1.3791    5.0346   -5.4499 H   0  0  0  0  0  0  0  0  0  0  0  0
  1  2  2  0
  2  3  1  0
  2 20  1  0
  3  4  1  0
  3 28  1  0
  3 29  1  0
  4  5  1  0
  4 30  1  0
  4 31  1  0
  5  6  2  0
  5 13  1  0
  6  7  1  0
  7  8  2  0
  7 12  1  0
  8  9  1  0
  8 32  1  0
  9 10  2  0
  9 33  1  0
 10 11  1  0
 10 34  1  0
 11 12  2  0
 11 35  1  0
 12 13  1  0
 13 14  1  0
 14 15  2  0
 14 19  1  0
 15 16  1  0
 15 36  1  0
 16 17  2  0
 16 37  1  0
 17 18  1  0
 17 38  1  0
 18 19  2  0
 18 39  1  0
 19 40  1  0
 20 21  1  0
 20 41  1  0
 21 22  2  0
 21 27  1  0
 22 23  1  0
 22 42  1  0
 23 24  2  0
 23 43  1  0
 24 25  1  0
 24 26  1  0
 26 27  2  0
 26 44  1  0
 27 45  1  0
M  END

