
     RDKit          3D

 52 55  0  0  0  0  0  0  0  0999 V2000
    1.0570   -2.6902   -1.9367 C   0  0  0  0  0  0  0  0  0  0  0  0
    2.5422   -2.4258   -1.8901 C   0  0  0  0  0  0  0  0  0  0  0  0
    3.0573   -1.1684   -1.5474 C   0  0  0  0  0  0  0  0  0  0  0  0
    4.4301   -0.9140   -1.4846 C   0  0  0  0  0  0  0  0  0  0  0  0
    5.3409   -1.9440   -1.7733 C   0  0  0  0  0  0  0  0  0  0  0  0
    6.7405   -1.7922   -1.7418 N   0  0  0  0  0  0  0  0  0  0  0  0
    7.4706   -0.6847   -1.4123 C   0  0  0  0  0  0  0  0  0  0  0  0
    6.9833    0.3913   -1.0984 O   0  0  0  0  0  0  0  0  0  0  0  0
    8.9841   -0.8307   -1.4765 C   0  0  0  0  0  0  0  0  0  0  0  0
    9.7078    0.3680   -1.3512 C   0  0  0  0  0  0  0  0  0  0  0  0
   11.0969    0.3911   -1.3965 C   0  0  0  0  0  0  0  0  0  0  0  0
   11.8317   -0.7962   -1.5564 C   0  0  0  0  0  0  0  0  0  0  0  0
   13.3417   -0.8219   -1.4828 C   0  0  0  0  0  0  0  0  0  0  0  0
   13.8879   -1.5759   -0.7013 O   0  0  0  0  0  0  0  0  0  0  0  0
   14.1314    0.1053   -2.3561 C   0  0  0  0  0  0  0  0  0  0  0  0
   13.5816    0.7636   -3.4699 C   0  0  0  0  0  0  0  0  0  0  0  0
   14.3826    1.5829   -4.2697 C   0  0  0  0  0  0  0  0  0  0  0  0
   15.7348    1.7565   -3.9610 C   0  0  0  0  0  0  0  0  0  0  0  0
   16.2916    1.1003   -2.8556 C   0  0  0  0  0  0  0  0  0  0  0  0
   15.4973    0.2752   -2.0629 C   0  0  0  0  0  0  0  0  0  0  0  0
   11.1157   -1.9886   -1.6809 C   0  0  0  0  0  0  0  0  0  0  0  0
   11.7597   -3.1429   -1.8657 F   0  0  0  0  0  0  0  0  0  0  0  0
    9.7123   -2.0264   -1.6389 C   0  0  0  0  0  0  0  0  0  0  0  0
    9.0751   -3.2280   -1.8399 O   0  0  0  0  0  0  0  0  0  0  0  0
    9.2698   -4.3058   -0.9834 C   0  0  0  0  0  0  0  0  0  0  0  0
    9.7094   -4.1564    0.3335 C   0  0  0  0  0  0  0  0  0  0  0  0
    9.8270   -5.2926    1.1400 C   0  0  0  0  0  0  0  0  0  0  0  0
    9.5040   -6.5580    0.6427 C   0  0  0  0  0  0  0  0  0  0  0  0
    9.0609   -6.6877   -0.6778 C   0  0  0  0  0  0  0  0  0  0  0  0
    8.9443   -5.5637   -1.4975 C   0  0  0  0  0  0  0  0  0  0  0  0
    4.8382   -3.2130   -2.1196 C   0  0  0  0  0  0  0  0  0  0  0  0
    3.4671   -3.4442   -2.1767 C   0  0  0  0  0  0  0  0  0  0  0  0
    0.4786   -1.7572   -1.8637 H   0  0  0  0  0  0  0  0  0  0  0  0
    0.7383   -3.3432   -1.1055 H   0  0  0  0  0  0  0  0  0  0  0  0
    0.7650   -3.1965   -2.8715 H   0  0  0  0  0  0  0  0  0  0  0  0
    2.3657   -0.3516   -1.3205 H   0  0  0  0  0  0  0  0  0  0  0  0
    4.8049    0.0704   -1.2163 H   0  0  0  0  0  0  0  0  0  0  0  0
    7.2826   -2.6151   -1.9895 H   0  0  0  0  0  0  0  0  0  0  0  0
    9.1299    1.2820   -1.2099 H   0  0  0  0  0  0  0  0  0  0  0  0
   11.6287    1.3386   -1.2887 H   0  0  0  0  0  0  0  0  0  0  0  0
   12.5294    0.6244   -3.7242 H   0  0  0  0  0  0  0  0  0  0  0  0
   13.9496    2.0854   -5.1381 H   0  0  0  0  0  0  0  0  0  0  0  0
   16.3587    2.4017   -4.5851 H   0  0  0  0  0  0  0  0  0  0  0  0
   17.3498    1.2331   -2.6168 H   0  0  0  0  0  0  0  0  0  0  0  0
   15.9112   -0.2567   -1.2040 H   0  0  0  0  0  0  0  0  0  0  0  0
    9.9565   -3.1694    0.7282 H   0  0  0  0  0  0  0  0  0  0  0  0
   10.1734   -5.1803    2.1703 H   0  0  0  0  0  0  0  0  0  0  0  0
    9.5983   -7.4396    1.2805 H   0  0  0  0  0  0  0  0  0  0  0  0
    8.8091   -7.6728   -1.0784 H   0  0  0  0  0  0  0  0  0  0  0  0
    8.6138   -5.6448   -2.5350 H   0  0  0  0  0  0  0  0  0  0  0  0
    5.5351   -4.0259   -2.3446 H   0  0  0  0  0  0  0  0  0  0  0  0
    3.1077   -4.4407   -2.4503 H   0  0  0  0  0  0  0  0  0  0  0  0
  1  2  1  0
  1 33  1  0
  1 34  1  0
  1 35  1  0
  2  3  2  0
  2 32  1  0
  3  4  1  0
  3 36  1  0
  4  5  2  0
  4 37  1  0
  5  6  1  0
  5 31  1  0
  6  7  1  0
  6 38  1  0
  7  8  2  0
  7  9  1  0
  9 10  2  0
  9 23  1  0
 10 11  1  0
 10 39  1  0
 11 12  2  0
 11 40  1  0
 12 13  1  0
 12 21  1  0
 13 14  2  0
 13 15  1  0
 15 16  2  0
 15 20  1  0
 16 17  1  0
 16 41  1  0
 17 18  2  0
 17 42  1  0
 18 19  1  0
 18 43  1  0
 19 20  2  0
 19 44  1  0
 20 45  1  0
 21 22  1  0
 21 23  2  0
 23 24  1  0
 24 25  1  0
 25 26  2  0
 25 30  1  0
 26 27  1  0
 26 46  1  0
 27 28  2  0
 27 47  1  0
 28 29  1  0
 28 48  1  0
 29 30  2  0
 29 49  1  0
 30 50  1  0
 31 32  2  0
 31 51  1  0
 32 52  1  0
M  END

