
     RDKit          3D

 42 42  0  0  0  0  0  0  0  0999 V2000
    1.5664    4.6850   -3.0323 C   0  0  0  0  0  0  0  0  0  0  0  0
    1.6263    3.8600   -1.7431 C   0  0  1  0  0  0  0  0  0  0  0  0
    1.3807    4.7142   -0.4957 C   0  0  0  0  0  0  0  0  0  0  0  0
    0.6468    2.6869   -1.8013 C   0  0  0  0  0  0  0  0  0  0  0  0
    2.9300    3.1880   -1.6396 O   0  0  0  0  0  0  0  0  0  0  0  0
    4.0838    3.8733   -1.5626 C   0  0  0  0  0  0  0  0  0  0  0  0
    4.2095    5.0790   -1.5727 O   0  0  0  0  0  0  0  0  0  0  0  0
    5.1194    2.9665   -1.4705 N   0  0  0  0  0  0  0  0  0  0  0  0
    6.4845    3.2381   -1.3656 C   0  0  0  0  0  0  0  0  0  0  0  0
    7.0593    4.5185   -1.3256 C   0  0  0  0  0  0  0  0  0  0  0  0
    8.4431    4.6623   -1.2267 C   0  0  0  0  0  0  0  0  0  0  0  0
    9.2765    3.5443   -1.1676 C   0  0  0  0  0  0  0  0  0  0  0  0
   11.0056    3.7971   -1.0260 Cl  0  0  0  0  0  0  0  0  0  0  0  0
    8.7396    2.2438   -1.1989 C   0  0  0  0  0  0  0  0  0  0  0  0
    9.5485    0.9718   -1.0468 C   0  0  0  0  0  0  0  0  0  0  0  0
    9.3203    0.1731   -0.1615 O   0  0  0  0  0  0  0  0  0  0  0  0
   10.5043    0.7753   -2.0111 N   0  0  0  0  0  0  0  0  0  0  0  0
   11.4252   -0.3293   -1.9377 C   0  0  0  0  0  0  0  0  0  0  0  0
   12.8226    0.1312   -1.5341 C   0  0  1  0  0  0  0  0  0  0  0  0
   13.2889    1.0299   -2.4463 F   0  0  0  0  0  0  0  0  0  0  0  0
   12.7992    0.7437   -0.3308 F   0  0  0  0  0  0  0  0  0  0  0  0
   13.8548   -1.0165   -1.4553 C   0  0  1  0  0  0  0  0  0  0  0  0
   13.9588   -1.6207   -2.6469 F   0  0  0  0  0  0  0  0  0  0  0  0
   15.0528   -0.5576   -1.1050 F   0  0  0  0  0  0  0  0  0  0  0  0
   13.4609   -1.9251   -0.5568 F   0  0  0  0  0  0  0  0  0  0  0  0
    7.3520    2.1343   -1.2988 C   0  0  0  0  0  0  0  0  0  0  0  0
    6.7889    0.9134   -1.3577 F   0  0  0  0  0  0  0  0  0  0  0  0
    0.5519    5.0930   -3.1620 H   0  0  0  0  0  0  0  0  0  0  0  0
    1.7924    4.0517   -3.9045 H   0  0  0  0  0  0  0  0  0  0  0  0
    2.2792    5.5188   -3.0048 H   0  0  0  0  0  0  0  0  0  0  0  0
    0.3593    5.1243   -0.5249 H   0  0  0  0  0  0  0  0  0  0  0  0
    2.0920    5.5478   -0.4376 H   0  0  0  0  0  0  0  0  0  0  0  0
    1.4754    4.1012    0.4143 H   0  0  0  0  0  0  0  0  0  0  0  0
   -0.3858    3.0585   -1.8808 H   0  0  0  0  0  0  0  0  0  0  0  0
    0.7265    2.0692   -0.8941 H   0  0  0  0  0  0  0  0  0  0  0  0
    0.8561    2.0490   -2.6734 H   0  0  0  0  0  0  0  0  0  0  0  0
    4.8545    1.9878   -1.4707 H   0  0  0  0  0  0  0  0  0  0  0  0
    6.4090    5.3891   -1.3745 H   0  0  0  0  0  0  0  0  0  0  0  0
    8.8853    5.6588   -1.1898 H   0  0  0  0  0  0  0  0  0  0  0  0
   10.7146    1.5320   -2.6522 H   0  0  0  0  0  0  0  0  0  0  0  0
   11.5035   -0.8517   -2.9043 H   0  0  0  0  0  0  0  0  0  0  0  0
   11.0477   -1.0311   -1.1816 H   0  0  0  0  0  0  0  0  0  0  0  0
  1  2  1  0
  1 28  1  0
  1 29  1  0
  1 30  1  0
  2  3  1  0
  2  4  1  0
  2  5  1  1
  3 31  1  0
  3 32  1  0
  3 33  1  0
  4 34  1  0
  4 35  1  0
  4 36  1  0
  5  6  1  0
  6  7  2  0
  6  8  1  0
  8  9  1  0
  8 37  1  0
  9 10  2  0
  9 26  1  0
 10 11  1  0
 10 38  1  0
 11 12  2  0
 11 39  1  0
 12 13  1  0
 12 14  1  0
 14 15  1  0
 14 26  2  0
 15 16  2  0
 15 17  1  0
 17 18  1  0
 17 40  1  0
 18 19  1  0
 18 41  1  0
 18 42  1  0
 19 20  1  6
 19 21  1  0
 19 22  1  0
 22 23  1  6
 22 24  1  0
 22 25  1  0
 26 27  1  0
M  END

