
     RDKit          3D

 41 40  0  0  0  0  0  0  0  0999 V2000
    0.8989    0.5799    0.2497 C   0  0  0  0  0  0  0  0  0  0  0  0
    2.3679    0.1659    0.1736 C   0  0  1  0  0  0  0  0  0  0  0  0
    2.5976   -1.3425    0.4545 C   0  0  0  0  0  0  0  0  0  0  0  0
    1.8779   -2.4605   -0.8048 S   0  0  1  0  0  0  0  0  0  0  0  0
    2.8223   -3.9841   -0.6329 C   0  0  0  0  0  0  0  0  0  0  0  0
    0.4760   -2.7274   -0.4541 O   0  0  0  0  0  0  0  0  0  0  0  0
    2.1843   -1.9186   -2.1542 O   0  0  0  0  0  0  0  0  0  0  0  0
    2.9374    0.5589   -1.1161 N   0  0  0  0  0  0  0  0  0  0  0  0
    4.3023    0.4870   -1.2969 C   0  0  0  0  0  0  0  0  0  0  0  0
    5.1131    0.8392   -0.4285 O   0  0  0  0  0  0  0  0  0  0  0  0
    4.6835   -0.0412   -2.4986 N   0  0  0  0  0  0  0  0  0  0  0  0
    6.0614   -0.1144   -2.9636 C   0  0  0  0  0  0  0  0  0  0  0  0
    7.0712   -0.8703   -2.0478 C   0  0  1  0  0  0  0  0  0  0  0  0
    6.3413   -1.9924   -1.2999 C   0  0  0  0  0  0  0  0  0  0  0  0
    6.1471   -3.0953   -1.7533 O   0  0  0  0  0  0  0  0  0  0  0  0
    5.8925   -1.6664   -0.0768 O   0  0  0  0  0  0  0  0  0  0  0  0
    8.2825   -1.4218   -2.8371 C   0  0  1  0  0  0  0  0  0  0  0  0
    8.9668   -0.3387   -3.6836 C   0  0  0  0  0  0  0  0  0  0  0  0
    9.2998   -2.0831   -1.8971 C   0  0  0  0  0  0  0  0  0  0  0  0
    0.4816    0.3474    1.2410 H   0  0  0  0  0  0  0  0  0  0  0  0
    0.2899    0.0445   -0.4953 H   0  0  0  0  0  0  0  0  0  0  0  0
    0.8041    1.6612    0.0728 H   0  0  0  0  0  0  0  0  0  0  0  0
    2.9391    0.7005    0.9485 H   0  0  0  0  0  0  0  0  0  0  0  0
    2.1358   -1.6531    1.4034 H   0  0  0  0  0  0  0  0  0  0  0  0
    3.6726   -1.5724    0.4814 H   0  0  0  0  0  0  0  0  0  0  0  0
    2.6954   -4.3681    0.3881 H   0  0  0  0  0  0  0  0  0  0  0  0
    3.8785   -3.8006   -0.8815 H   0  0  0  0  0  0  0  0  0  0  0  0
    2.3635   -4.6716   -1.3572 H   0  0  0  0  0  0  0  0  0  0  0  0
    2.4066    0.1721   -1.8929 H   0  0  0  0  0  0  0  0  0  0  0  0
    4.0001   -0.6337   -2.9627 H   0  0  0  0  0  0  0  0  0  0  0  0
    6.4440    0.9033   -3.1372 H   0  0  0  0  0  0  0  0  0  0  0  0
    6.0227   -0.6185   -3.9404 H   0  0  0  0  0  0  0  0  0  0  0  0
    7.4396   -0.1526   -1.2979 H   0  0  0  0  0  0  0  0  0  0  0  0
    5.8752   -0.6791    0.0174 H   0  0  0  0  0  0  0  0  0  0  0  0
    7.8879   -2.2026   -3.5112 H   0  0  0  0  0  0  0  0  0  0  0  0
    9.3244    0.4936   -3.0528 H   0  0  0  0  0  0  0  0  0  0  0  0
    8.3055    0.0845   -4.4549 H   0  0  0  0  0  0  0  0  0  0  0  0
    9.8429   -0.7575   -4.2035 H   0  0  0  0  0  0  0  0  0  0  0  0
    9.7146   -1.3510   -1.1829 H   0  0  0  0  0  0  0  0  0  0  0  0
   10.1431   -2.5008   -2.4698 H   0  0  0  0  0  0  0  0  0  0  0  0
    8.8513   -2.9076   -1.3231 H   0  0  0  0  0  0  0  0  0  0  0  0
  1  2  1  0
  1 20  1  0
  1 21  1  0
  1 22  1  0
  2  3  1  0
  2  8  1  0
  2 23  1  1
  4  3  1  1
  3 24  1  0
  3 25  1  0
  4  5  1  0
  4  6  2  0
  4  7  2  0
  5 26  1  0
  5 27  1  0
  5 28  1  0
  8  9  1  0
  8 29  1  0
  9 10  2  0
  9 11  1  0
 11 12  1  0
 11 30  1  0
 12 13  1  0
 12 31  1  0
 12 32  1  0
 13 14  1  0
 13 17  1  0
 13 33  1  1
 14 15  2  0
 14 16  1  0
 16 34  1  0
 17 18  1  0
 17 19  1  0
 17 35  1  6
 18 36  1  0
 18 37  1  0
 18 38  1  0
 19 39  1  0
 19 40  1  0
 19 41  1  0
M  END

