
     RDKit          3D

 35 36  0  0  0  0  0  0  0  0999 V2000
    8.1814    1.8785    5.6836 C   0  0  0  0  0  0  0  0  0  0  0  0
    7.7333    1.4423    4.3181 C   0  0  0  0  0  0  0  0  0  0  0  0
    8.7375    1.1273    3.4338 N   0  0  0  0  0  0  0  0  0  0  0  0
    8.4121    0.7191    2.2486 C   0  0  0  0  0  0  0  0  0  0  0  0
    7.1408    0.5590    1.7863 N   0  0  0  0  0  0  0  0  0  0  0  0
    6.9065    0.0926    0.4068 C   0  0  0  0  0  0  0  0  0  0  0  0
    6.8787   -1.4443    0.1838 C   0  0  2  0  0  0  0  0  0  0  0  0
    5.6730   -2.0996    0.9110 C   0  0  0  0  0  0  0  0  0  0  0  0
    3.9858   -1.7022    0.3014 S   0  0  0  0  0  0  0  0  0  0  0  0
    8.1884   -2.1080    0.6903 C   0  0  0  0  0  0  0  0  0  0  0  0
    8.3890   -3.5289    0.1508 C   0  0  0  0  0  0  0  0  0  0  0  0
    8.3289   -3.5707   -1.2571 O   0  0  0  0  0  0  0  0  0  0  0  0
    7.0868   -3.1109   -1.7546 C   0  0  0  0  0  0  0  0  0  0  0  0
    6.8145   -1.6622   -1.3506 C   0  0  0  0  0  0  0  0  0  0  0  0
    6.0284    0.9285    2.5916 C   0  0  0  0  0  0  0  0  0  0  0  0
    4.8912    0.8702    2.1511 O   0  0  0  0  0  0  0  0  0  0  0  0
    6.4138    1.3632    3.9277 C   0  0  0  0  0  0  0  0  0  0  0  0
    4.8091    1.8818    5.2014 I   0  0  0  0  0  0  0  0  0  0  0  0
    9.2755    1.8202    5.7396 H   0  0  0  0  0  0  0  0  0  0  0  0
    7.7366    1.2462    6.4684 H   0  0  0  0  0  0  0  0  0  0  0  0
    7.8611    2.9125    5.8917 H   0  0  0  0  0  0  0  0  0  0  0  0
    9.2063    0.4850    1.5323 H   0  0  0  0  0  0  0  0  0  0  0  0
    7.7024    0.5250   -0.2173 H   0  0  0  0  0  0  0  0  0  0  0  0
    5.9493    0.5232    0.0857 H   0  0  0  0  0  0  0  0  0  0  0  0
    5.7138   -1.8745    1.9870 H   0  0  0  0  0  0  0  0  0  0  0  0
    5.7410   -3.1927    0.8286 H   0  0  0  0  0  0  0  0  0  0  0  0
    3.8928   -0.5139    0.9450 H   0  0  0  0  0  0  0  0  0  0  0  0
    8.2225   -2.1290    1.7932 H   0  0  0  0  0  0  0  0  0  0  0  0
    9.0485   -1.5060    0.3494 H   0  0  0  0  0  0  0  0  0  0  0  0
    7.6439   -4.2251    0.5890 H   0  0  0  0  0  0  0  0  0  0  0  0
    9.3843   -3.9020    0.4373 H   0  0  0  0  0  0  0  0  0  0  0  0
    6.2668   -3.7755   -1.4124 H   0  0  0  0  0  0  0  0  0  0  0  0
    7.1363   -3.1968   -2.8506 H   0  0  0  0  0  0  0  0  0  0  0  0
    5.8312   -1.3447   -1.7318 H   0  0  0  0  0  0  0  0  0  0  0  0
    7.5794   -1.0288   -1.8323 H   0  0  0  0  0  0  0  0  0  0  0  0
  1  2  1  0
  1 19  1  0
  1 20  1  0
  1 21  1  0
  2  3  1  0
  2 17  2  0
  3  4  2  0
  4  5  1  0
  4 22  1  0
  5  6  1  0
  5 15  1  0
  7  6  1  6
  6 23  1  0
  6 24  1  0
  7  8  1  0
  7 10  1  0
  7 14  1  0
  8  9  1  0
  8 25  1  0
  8 26  1  0
  9 27  1  0
 10 11  1  0
 10 28  1  0
 10 29  1  0
 11 12  1  0
 11 30  1  0
 11 31  1  0
 12 13  1  0
 13 14  1  0
 13 32  1  0
 13 33  1  0
 14 34  1  0
 14 35  1  0
 15 16  2  0
 15 17  1  0
 17 18  1  0
M  END

