
     RDKit          3D

 68 70  0  0  0  0  0  0  0  0999 V2000
   17.2975   -5.1474    4.3208 C   0  0  0  0  0  0  0  0  0  0  0  0
   16.1152   -5.8528    3.6543 C   0  0  0  0  0  0  0  0  0  0  0  0
   15.3577   -4.9560    2.6702 C   0  0  0  0  0  0  0  0  0  0  0  0
   14.1822   -5.6242    1.9492 C   0  0  0  0  0  0  0  0  0  0  0  0
   13.0835   -6.0208    2.8462 N   0  0  0  0  0  0  0  0  0  0  0  0
   12.9198   -7.3436    3.2572 C   0  0  0  0  0  0  0  0  0  0  0  0
   11.9468   -7.5656    4.1705 C   0  0  0  0  0  0  0  0  0  0  0  0
   11.5076   -8.8700    4.8145 C   0  0  1  0  0  0  0  0  0  0  0  0
   12.3657  -10.0327    4.2832 C   0  0  0  0  0  0  0  0  0  0  0  0
   11.6772   -8.7745    6.3481 C   0  0  0  0  0  0  0  0  0  0  0  0
   10.0233   -9.1414    4.4772 C   0  0  0  0  0  0  0  0  0  0  0  0
   11.1730   -6.0252    4.5617 S   0  0  0  0  0  0  0  0  0  0  0  0
   12.2198   -5.1306    3.4378 C   0  0  0  0  0  0  0  0  0  0  0  0
   12.1105   -3.8451    3.3527 N   0  0  0  0  0  0  0  0  0  0  0  0
   12.3607   -3.0176    2.2876 C   0  0  0  0  0  0  0  0  0  0  0  0
   12.4311   -3.3783    1.1165 O   0  0  0  0  0  0  0  0  0  0  0  0
   12.4514   -1.5624    2.6835 C   0  0  0  0  0  0  0  0  0  0  0  0
   11.8622   -1.1376    3.8796 C   0  0  0  0  0  0  0  0  0  0  0  0
   11.8645    0.2047    4.2696 C   0  0  0  0  0  0  0  0  0  0  0  0
   11.2551    0.6093    5.5833 C   0  0  1  0  0  0  0  0  0  0  0  0
   10.1790   -0.1371    5.8925 F   0  0  0  0  0  0  0  0  0  0  0  0
   12.1245    0.4726    6.6079 F   0  0  0  0  0  0  0  0  0  0  0  0
   10.8648    1.8990    5.5812 F   0  0  0  0  0  0  0  0  0  0  0  0
   12.4802    1.1523    3.4480 C   0  0  0  0  0  0  0  0  0  0  0  0
   13.0928    0.7583    2.2603 C   0  0  0  0  0  0  0  0  0  0  0  0
   13.0939   -0.5924    1.8638 C   0  0  0  0  0  0  0  0  0  0  0  0
   13.7052   -1.0173    0.7442 O   0  0  0  0  0  0  0  0  0  0  0  0
   14.3214   -0.1045   -0.1489 C   0  0  0  0  0  0  0  0  0  0  0  0
   14.8453   -0.9191   -1.3458 C   0  0  2  0  0  0  0  0  0  0  0  0
   13.9849   -1.4900   -1.7372 H   0  0  0  0  0  0  0  0  0  0  0  0
   16.0075   -1.8486   -0.9666 C   0  0  0  0  0  0  0  0  0  0  0  0
   17.2567   -0.9491   -1.0993 C   0  0  0  0  0  0  0  0  0  0  0  0
   16.8397    0.1627   -2.0941 C   0  0  0  0  0  0  0  0  0  0  0  0
   15.4431   -0.1160   -2.4017 N   0  0  0  0  0  0  0  0  0  0  0  0
   14.6840    0.9202   -3.0496 C   0  0  0  0  0  0  0  0  0  0  0  0
   17.8233   -5.8150    5.0216 H   0  0  0  0  0  0  0  0  0  0  0  0
   16.9655   -4.2628    4.8890 H   0  0  0  0  0  0  0  0  0  0  0  0
   18.0321   -4.8026    3.5739 H   0  0  0  0  0  0  0  0  0  0  0  0
   15.4215   -6.2156    4.4332 H   0  0  0  0  0  0  0  0  0  0  0  0
   16.4742   -6.7543    3.1235 H   0  0  0  0  0  0  0  0  0  0  0  0
   16.0503   -4.5968    1.8880 H   0  0  0  0  0  0  0  0  0  0  0  0
   14.9986   -4.0516    3.1906 H   0  0  0  0  0  0  0  0  0  0  0  0
   14.5172   -6.5429    1.4438 H   0  0  0  0  0  0  0  0  0  0  0  0
   13.7599   -4.9474    1.1938 H   0  0  0  0  0  0  0  0  0  0  0  0
   13.5769   -8.0926    2.8210 H   0  0  0  0  0  0  0  0  0  0  0  0
   13.4326   -9.8890    4.5164 H   0  0  0  0  0  0  0  0  0  0  0  0
   12.2611  -10.1485    3.1929 H   0  0  0  0  0  0  0  0  0  0  0  0
   12.0468  -10.9771    4.7506 H   0  0  0  0  0  0  0  0  0  0  0  0
   12.7291   -8.5946    6.6199 H   0  0  0  0  0  0  0  0  0  0  0  0
   11.3528   -9.7117    6.8281 H   0  0  0  0  0  0  0  0  0  0  0  0
   11.0757   -7.9545    6.7709 H   0  0  0  0  0  0  0  0  0  0  0  0
    9.8731   -9.2238    3.3895 H   0  0  0  0  0  0  0  0  0  0  0  0
    9.3712   -8.3342    4.8462 H   0  0  0  0  0  0  0  0  0  0  0  0
    9.6907  -10.0827    4.9436 H   0  0  0  0  0  0  0  0  0  0  0  0
   11.3811   -1.8936    4.4998 H   0  0  0  0  0  0  0  0  0  0  0  0
   12.4816    2.2060    3.7334 H   0  0  0  0  0  0  0  0  0  0  0  0
   13.5753    1.5118    1.6393 H   0  0  0  0  0  0  0  0  0  0  0  0
   15.1436    0.4369    0.3568 H   0  0  0  0  0  0  0  0  0  0  0  0
   13.5845    0.6446   -0.4901 H   0  0  0  0  0  0  0  0  0  0  0  0
   16.0486   -2.6750   -1.6921 H   0  0  0  0  0  0  0  0  0  0  0  0
   15.8829   -2.2860    0.0343 H   0  0  0  0  0  0  0  0  0  0  0  0
   18.1342   -1.5130   -1.4489 H   0  0  0  0  0  0  0  0  0  0  0  0
   17.5317   -0.5104   -0.1274 H   0  0  0  0  0  0  0  0  0  0  0  0
   17.4433    0.1553   -3.0209 H   0  0  0  0  0  0  0  0  0  0  0  0
   16.9853    1.1693   -1.6406 H   0  0  0  0  0  0  0  0  0  0  0  0
   15.1697    1.2059   -3.9990 H   0  0  0  0  0  0  0  0  0  0  0  0
   14.5697    1.8561   -2.4540 H   0  0  0  0  0  0  0  0  0  0  0  0
   13.6737    0.5540   -3.2954 H   0  0  0  0  0  0  0  0  0  0  0  0
  1  2  1  0
  1 36  1  0
  1 37  1  0
  1 38  1  0
  2  3  1  0
  2 39  1  0
  2 40  1  0
  3  4  1  0
  3 41  1  0
  3 42  1  0
  4  5  1  0
  4 43  1  0
  4 44  1  0
  5  6  1  0
  5 13  1  0
  6  7  2  0
  6 45  1  0
  7  8  1  0
  7 12  1  0
  8  9  1  6
  8 10  1  0
  8 11  1  0
  9 46  1  0
  9 47  1  0
  9 48  1  0
 10 49  1  0
 10 50  1  0
 10 51  1  0
 11 52  1  0
 11 53  1  0
 11 54  1  0
 12 13  2  0
 13 14  1  0
 14 15  2  0
 15 16  1  0
 15 17  1  0
 17 18  2  0
 17 26  1  0
 18 19  1  0
 18 55  1  0
 19 20  1  0
 19 24  2  0
 20 21  1  1
 20 22  1  0
 20 23  1  0
 24 25  1  0
 24 56  1  0
 25 26  2  0
 25 57  1  0
 26 27  1  0
 27 28  1  0
 28 29  1  0
 28 58  1  0
 28 59  1  0
 29 30  1  6
 29 31  1  0
 29 34  1  0
 31 32  1  0
 31 60  1  0
 31 61  1  0
 32 33  1  0
 32 62  1  0
 32 63  1  0
 33 34  1  0
 33 64  1  0
 33 65  1  0
 34 35  1  0
 35 66  1  0
 35 67  1  0
 35 68  1  0
M  CHG  2  12   1  16  -1
M  END

