
     RDKit          3D

 44 45  0  0  0  0  0  0  0  0999 V2000
    3.0423    0.6734   -1.2902 O   0  0  0  0  0  0  0  0  0  0  0  0
    2.6721    0.0295   -0.0851 C   0  0  0  0  0  0  0  0  0  0  0  0
    3.0377   -1.4466   -0.1733 C   0  0  1  0  0  0  0  0  0  0  0  0
    2.4802   -2.1257   -1.2918 O   0  0  0  0  0  0  0  0  0  0  0  0
    1.0975   -1.9721   -1.5323 C   0  0  1  0  0  0  0  0  0  0  0  0
    0.7446   -2.8308   -2.7475 C   0  0  0  0  0  0  0  0  0  0  0  0
    0.7656   -4.3269   -2.4124 C   0  0  0  0  0  0  0  0  0  0  0  0
   -0.0739   -4.5927   -1.1567 C   0  0  0  0  0  0  0  0  0  0  0  0
    0.3773   -3.6789   -0.0204 C   0  0  0  0  0  0  0  0  0  0  0  0
    0.3294   -2.3018   -0.3998 O   0  0  0  0  0  0  0  0  0  0  0  0
    4.5545   -1.6557   -0.2881 C   0  0  1  0  0  0  0  0  0  0  0  0
    5.1515   -1.1444    0.8798 O   0  0  0  0  0  0  0  0  0  0  0  0
    6.3937   -0.4794    0.7147 C   0  0  0  0  0  0  0  0  0  0  0  0
    7.0265   -0.2456    2.0656 C   0  0  0  0  0  0  0  0  0  0  0  0
    6.8710   -1.1862    3.0948 C   0  0  0  0  0  0  0  0  0  0  0  0
    7.4963   -0.9926    4.3289 C   0  0  0  0  0  0  0  0  0  0  0  0
    8.2877    0.1395    4.5498 C   0  0  0  0  0  0  0  0  0  0  0  0
    8.4455    1.0815    3.5293 C   0  0  0  0  0  0  0  0  0  0  0  0
    7.8132    0.8913    2.2969 C   0  0  0  0  0  0  0  0  0  0  0  0
    4.8931   -3.1360   -0.4571 C   0  0  1  0  0  0  0  0  0  0  0  0
    6.2482   -3.3014   -0.4768 F   0  0  0  0  0  0  0  0  0  0  0  0
    4.4150   -3.8538    0.5991 F   0  0  0  0  0  0  0  0  0  0  0  0
    2.8594    1.6164   -1.2016 H   0  0  0  0  0  0  0  0  0  0  0  0
    1.5886    0.1196    0.1164 H   0  0  0  0  0  0  0  0  0  0  0  0
    3.2093    0.4359    0.7912 H   0  0  0  0  0  0  0  0  0  0  0  0
    2.7061   -1.9180    0.7695 H   0  0  0  0  0  0  0  0  0  0  0  0
    0.8704   -0.9121   -1.7337 H   0  0  0  0  0  0  0  0  0  0  0  0
    1.4399   -2.5866   -3.5655 H   0  0  0  0  0  0  0  0  0  0  0  0
   -0.2666   -2.5354   -3.0743 H   0  0  0  0  0  0  0  0  0  0  0  0
    1.8053   -4.6504   -2.2343 H   0  0  0  0  0  0  0  0  0  0  0  0
    0.3925   -4.9147   -3.2669 H   0  0  0  0  0  0  0  0  0  0  0  0
    0.0077   -5.6454   -0.8377 H   0  0  0  0  0  0  0  0  0  0  0  0
   -1.1401   -4.4000   -1.3714 H   0  0  0  0  0  0  0  0  0  0  0  0
    1.4024   -3.9486    0.2963 H   0  0  0  0  0  0  0  0  0  0  0  0
   -0.2812   -3.7669    0.8565 H   0  0  0  0  0  0  0  0  0  0  0  0
    4.9040   -1.1243   -1.1914 H   0  0  0  0  0  0  0  0  0  0  0  0
    6.2441    0.4842    0.1886 H   0  0  0  0  0  0  0  0  0  0  0  0
    7.0700   -1.0923    0.0911 H   0  0  0  0  0  0  0  0  0  0  0  0
    6.2474   -2.0642    2.9165 H   0  0  0  0  0  0  0  0  0  0  0  0
    7.3649   -1.7313    5.1242 H   0  0  0  0  0  0  0  0  0  0  0  0
    8.7763    0.2892    5.5161 H   0  0  0  0  0  0  0  0  0  0  0  0
    9.0561    1.9731    3.6949 H   0  0  0  0  0  0  0  0  0  0  0  0
    7.9318    1.6382    1.5059 H   0  0  0  0  0  0  0  0  0  0  0  0
    4.4739   -3.5568   -1.3832 H   0  0  0  0  0  0  0  0  0  0  0  0
  1  2  1  0
  1 23  1  0
  2  3  1  0
  2 24  1  0
  2 25  1  0
  3  4  1  0
  3 11  1  0
  3 26  1  1
  4  5  1  0
  5  6  1  0
  5 10  1  0
  5 27  1  6
  6  7  1  0
  6 28  1  0
  6 29  1  0
  7  8  1  0
  7 30  1  0
  7 31  1  0
  8  9  1  0
  8 32  1  0
  8 33  1  0
  9 10  1  0
  9 34  1  0
  9 35  1  0
 11 12  1  0
 11 20  1  0
 11 36  1  6
 12 13  1  0
 13 14  1  0
 13 37  1  0
 13 38  1  0
 14 15  2  0
 14 19  1  0
 15 16  1  0
 15 39  1  0
 16 17  2  0
 16 40  1  0
 17 18  1  0
 17 41  1  0
 18 19  2  0
 18 42  1  0
 19 43  1  0
 20 21  1  0
 20 22  1  0
 20 44  1  6
M  END

