
     RDKit          3D

 51 53  0  0  0  0  0  0  0  0999 V2000
    7.5426   -5.1357    3.4685 C   0  0  0  0  0  0  0  0  0  0  0  0
    6.9525   -4.4273    2.4021 O   0  0  0  0  0  0  0  0  0  0  0  0
    5.9109   -3.5848    2.6491 C   0  0  0  0  0  0  0  0  0  0  0  0
    5.3597   -3.3648    3.9174 C   0  0  0  0  0  0  0  0  0  0  0  0
    4.2852   -2.4776    4.0641 C   0  0  0  0  0  0  0  0  0  0  0  0
    3.7635   -1.8146    2.9560 C   0  0  0  0  0  0  0  0  0  0  0  0
    4.3224   -2.0408    1.6904 C   0  0  0  0  0  0  0  0  0  0  0  0
    5.3936   -2.9176    1.5137 C   0  0  0  0  0  0  0  0  0  0  0  0
    6.0240   -3.2031    0.1599 C   0  0  0  0  0  0  0  0  0  0  0  0
    5.5595   -2.3624   -0.9329 N   0  0  0  0  0  0  0  0  0  0  0  0
    6.2404   -1.0903   -1.1218 C   0  0  0  0  0  0  0  0  0  0  0  0
    4.5719   -2.7272   -1.8147 C   0  0  0  0  0  0  0  0  0  0  0  0
    4.2427   -2.0250   -2.7614 O   0  0  0  0  0  0  0  0  0  0  0  0
    3.8623   -4.0709   -1.5808 C   0  0  0  0  0  0  0  0  0  0  0  0
    4.7055   -5.2141   -1.9216 N   0  0  0  0  0  0  0  0  0  0  0  0
    4.1907   -6.5072   -1.4726 C   0  0  0  0  0  0  0  0  0  0  0  0
    3.0696   -7.0707   -2.3588 C   0  0  0  0  0  0  0  0  0  0  0  0
    3.5046   -7.0974   -3.7499 N   0  0  0  0  0  0  0  0  0  0  0  0
    3.3223   -8.1910   -4.5518 C   0  0  0  0  0  0  0  0  0  0  0  0
    2.7776   -9.2948   -3.9940 N   0  0  0  0  0  0  0  0  0  0  0  0
    2.6206  -10.3525   -4.7807 C   0  0  0  0  0  0  0  0  0  0  0  0
    2.9873  -10.3601   -6.1294 C   0  0  0  0  0  0  0  0  0  0  0  0
    3.5368   -9.1662   -6.6057 C   0  0  0  0  0  0  0  0  0  0  0  0
    3.7059   -8.0929   -5.8435 N   0  0  0  0  0  0  0  0  0  0  0  0
    4.0209   -5.8305   -4.2591 C   0  0  0  0  0  0  0  0  0  0  0  0
    5.1151   -5.2881   -3.3272 C   0  0  0  0  0  0  0  0  0  0  0  0
    8.3501   -5.7406    3.0345 H   0  0  0  0  0  0  0  0  0  0  0  0
    6.8193   -5.8074    3.9650 H   0  0  0  0  0  0  0  0  0  0  0  0
    7.9722   -4.4555    4.2260 H   0  0  0  0  0  0  0  0  0  0  0  0
    5.7569   -3.8771    4.7939 H   0  0  0  0  0  0  0  0  0  0  0  0
    3.8606   -2.3116    5.0575 H   0  0  0  0  0  0  0  0  0  0  0  0
    2.9260   -1.1222    3.0678 H   0  0  0  0  0  0  0  0  0  0  0  0
    3.9187   -1.5219    0.8178 H   0  0  0  0  0  0  0  0  0  0  0  0
    5.8848   -4.2587   -0.1156 H   0  0  0  0  0  0  0  0  0  0  0  0
    7.1168   -3.0802    0.2470 H   0  0  0  0  0  0  0  0  0  0  0  0
    7.2943   -1.2465   -1.4143 H   0  0  0  0  0  0  0  0  0  0  0  0
    6.2265   -0.5014   -0.1898 H   0  0  0  0  0  0  0  0  0  0  0  0
    5.7290   -0.5340   -1.9158 H   0  0  0  0  0  0  0  0  0  0  0  0
    2.9304   -3.9969   -2.1732 H   0  0  0  0  0  0  0  0  0  0  0  0
    3.5711   -4.1667   -0.5228 H   0  0  0  0  0  0  0  0  0  0  0  0
    3.8365   -6.4163   -0.4330 H   0  0  0  0  0  0  0  0  0  0  0  0
    5.0291   -7.2266   -1.4740 H   0  0  0  0  0  0  0  0  0  0  0  0
    2.1586   -6.4461   -2.2667 H   0  0  0  0  0  0  0  0  0  0  0  0
    2.8029   -8.0904   -2.0576 H   0  0  0  0  0  0  0  0  0  0  0  0
    2.1778  -11.2429   -4.3159 H   0  0  0  0  0  0  0  0  0  0  0  0
    2.8510  -11.2347   -6.7663 H   0  0  0  0  0  0  0  0  0  0  0  0
    3.8531   -9.0739   -7.6528 H   0  0  0  0  0  0  0  0  0  0  0  0
    3.1948   -5.0977   -4.3397 H   0  0  0  0  0  0  0  0  0  0  0  0
    4.4135   -5.9957   -5.2689 H   0  0  0  0  0  0  0  0  0  0  0  0
    5.4254   -4.2916   -3.6745 H   0  0  0  0  0  0  0  0  0  0  0  0
    5.9947   -5.9531   -3.3887 H   0  0  0  0  0  0  0  0  0  0  0  0
  1  2  1  0
  1 27  1  0
  1 28  1  0
  1 29  1  0
  2  3  1  0
  3  4  2  0
  3  8  1  0
  4  5  1  0
  4 30  1  0
  5  6  2  0
  5 31  1  0
  6  7  1  0
  6 32  1  0
  7  8  2  0
  7 33  1  0
  8  9  1  0
  9 10  1  0
  9 34  1  0
  9 35  1  0
 10 11  1  0
 10 12  1  0
 11 36  1  0
 11 37  1  0
 11 38  1  0
 12 13  2  0
 12 14  1  0
 14 15  1  0
 14 39  1  0
 14 40  1  0
 15 16  1  0
 15 26  1  0
 16 17  1  0
 16 41  1  0
 16 42  1  0
 17 18  1  0
 17 43  1  0
 17 44  1  0
 18 19  1  0
 18 25  1  0
 19 20  2  0
 19 24  1  0
 20 21  1  0
 21 22  2  0
 21 45  1  0
 22 23  1  0
 22 46  1  0
 23 24  2  0
 23 47  1  0
 25 26  1  0
 25 48  1  0
 25 49  1  0
 26 50  1  0
 26 51  1  0
M  END

