
     RDKit          3D

 46 48  0  0  0  0  0  0  0  0999 V2000
    2.1150   -1.7941    2.0317 O   0  0  0  0  0  0  0  0  0  0  0  0
    2.8111   -1.1318    1.2941 C   0  0  0  0  0  0  0  0  0  0  0  0
    2.9556    0.2466    1.4212 N   0  0  0  0  0  0  0  0  0  0  0  0
    2.2649    0.9346    2.3449 N   0  0  0  0  0  0  0  0  0  0  0  0
    2.4999    2.1891    2.4741 C   0  0  0  0  0  0  0  0  0  0  0  0
    1.7899    3.0176    3.4492 C   0  0  0  0  0  0  0  0  0  0  0  0
    0.8043    2.4739    4.3040 C   0  0  0  0  0  0  0  0  0  0  0  0
    0.1441    3.2763    5.2212 C   0  0  0  0  0  0  0  0  0  0  0  0
    0.4434    4.6541    5.3199 C   0  0  0  0  0  0  0  0  0  0  0  0
   -0.2411    5.5200    6.2806 C   0  0  0  0  0  0  0  0  0  0  0  0
   -1.1416    5.0755    7.0790 N   0  0  0  0  0  0  0  0  0  0  0  0
   -1.7168    5.9350    7.9356 N   0  0  0  0  0  0  0  0  0  0  0  0
   -2.7633    5.5351    8.7618 C   0  0  0  0  0  0  0  0  0  0  0  0
   -3.2529    4.4280    8.7192 O   0  0  0  0  0  0  0  0  0  0  0  0
   -3.2566    6.6021    9.7018 C   0  0  0  0  0  0  0  0  0  0  0  0
   -2.4809    7.6875   10.1413 C   0  0  0  0  0  0  0  0  0  0  0  0
   -3.0020    8.6252   11.0344 C   0  0  0  0  0  0  0  0  0  0  0  0
   -4.3134    8.4757   11.4953 C   0  0  0  0  0  0  0  0  0  0  0  0
   -4.9740    9.6476   12.6071 Cl  0  0  0  0  0  0  0  0  0  0  0  0
   -5.0984    7.3927   11.0828 C   0  0  0  0  0  0  0  0  0  0  0  0
   -4.5629    6.4605   10.1973 C   0  0  0  0  0  0  0  0  0  0  0  0
    1.4235    5.1947    4.4698 C   0  0  0  0  0  0  0  0  0  0  0  0
    2.0875    4.3878    3.5474 C   0  0  0  0  0  0  0  0  0  0  0  0
    3.6124   -1.7417    0.1753 C   0  0  0  0  0  0  0  0  0  0  0  0
    4.0357   -1.0413   -0.9664 C   0  0  0  0  0  0  0  0  0  0  0  0
    4.7568   -1.6836   -1.9745 C   0  0  0  0  0  0  0  0  0  0  0  0
    5.0574   -3.0424   -1.8409 C   0  0  0  0  0  0  0  0  0  0  0  0
    5.9643   -3.8507   -3.0938 Cl  0  0  0  0  0  0  0  0  0  0  0  0
    4.6315   -3.7632   -0.7191 C   0  0  0  0  0  0  0  0  0  0  0  0
    3.9062   -3.1112    0.2753 C   0  0  0  0  0  0  0  0  0  0  0  0
    3.6747    0.7246    0.8753 H   0  0  0  0  0  0  0  0  0  0  0  0
    3.2580    2.6979    1.8464 H   0  0  0  0  0  0  0  0  0  0  0  0
    0.5757    1.4093    4.2260 H   0  0  0  0  0  0  0  0  0  0  0  0
   -0.6180    2.8592    5.8824 H   0  0  0  0  0  0  0  0  0  0  0  0
    0.0553    6.5875    6.2883 H   0  0  0  0  0  0  0  0  0  0  0  0
   -1.4578    6.9227    7.9031 H   0  0  0  0  0  0  0  0  0  0  0  0
   -1.4423    7.7997    9.8199 H   0  0  0  0  0  0  0  0  0  0  0  0
   -2.3957    9.4627   11.3830 H   0  0  0  0  0  0  0  0  0  0  0  0
   -6.1168    7.2866   11.4600 H   0  0  0  0  0  0  0  0  0  0  0  0
   -5.1488    5.5983    9.8730 H   0  0  0  0  0  0  0  0  0  0  0  0
    1.6673    6.2592    4.5330 H   0  0  0  0  0  0  0  0  0  0  0  0
    2.8479    4.8246    2.8935 H   0  0  0  0  0  0  0  0  0  0  0  0
    3.7790    0.0120   -1.1044 H   0  0  0  0  0  0  0  0  0  0  0  0
    5.0771   -1.1413   -2.8653 H   0  0  0  0  0  0  0  0  0  0  0  0
    4.8672   -4.8253   -0.6357 H   0  0  0  0  0  0  0  0  0  0  0  0
    3.5488   -3.6544    1.1522 H   0  0  0  0  0  0  0  0  0  0  0  0
  1  2  2  0
  2  3  1  0
  2 24  1  0
  3  4  1  0
  3 31  1  0
  4  5  2  0
  5  6  1  0
  5 32  1  0
  6  7  2  0
  6 23  1  0
  7  8  1  0
  7 33  1  0
  8  9  2  0
  8 34  1  0
  9 10  1  0
  9 22  1  0
 10 11  2  0
 10 35  1  0
 11 12  1  0
 12 13  1  0
 12 36  1  0
 13 14  2  0
 13 15  1  0
 15 16  2  0
 15 21  1  0
 16 17  1  0
 16 37  1  0
 17 18  2  0
 17 38  1  0
 18 19  1  0
 18 20  1  0
 20 21  2  0
 20 39  1  0
 21 40  1  0
 22 23  2  0
 22 41  1  0
 23 42  1  0
 24 25  2  0
 24 30  1  0
 25 26  1  0
 25 43  1  0
 26 27  2  0
 26 44  1  0
 27 28  1  0
 27 29  1  0
 29 30  2  0
 29 45  1  0
 30 46  1  0
M  END

