
     RDKit          3D

 52 54  0  0  0  0  0  0  0  0999 V2000
    2.6225   -5.1365   -3.8792 C   0  0  0  0  0  0  0  0  0  0  0  0
    2.5805   -3.7044   -3.6612 N   0  0  0  0  0  0  0  0  0  0  0  0
    2.9910   -3.2752   -2.3307 C   0  0  0  0  0  0  0  0  0  0  0  0
    4.5204   -3.2187   -2.1388 C   0  0  0  0  0  0  0  0  0  0  0  0
    5.2052   -2.3196   -3.1941 C   0  0  2  0  0  0  0  0  0  0  0  0
    4.8660   -0.8795   -2.9667 N   0  0  0  0  0  0  0  0  0  0  0  0
    4.8352   -0.4314   -1.5710 C   0  0  0  0  0  0  0  0  0  0  0  0
    5.5049    0.2962   -4.0309 S   0  0  1  0  0  0  0  0  0  0  0  0
    5.1604   -0.0884   -5.3999 O   0  0  0  0  0  0  0  0  0  0  0  0
    5.0893    1.5979   -3.5022 O   0  0  0  0  0  0  0  0  0  0  0  0
    7.2933    0.2080   -3.8767 C   0  0  0  0  0  0  0  0  0  0  0  0
    8.0355   -0.6429   -4.7016 C   0  0  0  0  0  0  0  0  0  0  0  0
    9.4216   -0.7275   -4.5684 C   0  0  0  0  0  0  0  0  0  0  0  0
   10.0800    0.0575   -3.6016 C   0  0  0  0  0  0  0  0  0  0  0  0
   11.4667    0.0442   -3.3973 N   0  0  0  0  0  0  0  0  0  0  0  0
   12.4211   -0.7071   -4.0441 C   0  0  0  0  0  0  0  0  0  0  0  0
   12.1622   -1.5079   -4.9268 O   0  0  0  0  0  0  0  0  0  0  0  0
   13.8563   -0.4978   -3.6076 C   0  0  0  0  0  0  0  0  0  0  0  0
   14.8242   -1.2634   -4.2848 C   0  0  0  0  0  0  0  0  0  0  0  0
   16.1800   -1.1665   -3.9817 C   0  0  0  0  0  0  0  0  0  0  0  0
   16.6092   -0.2896   -2.9792 C   0  0  0  0  0  0  0  0  0  0  0  0
   15.6769    0.4843   -2.2870 C   0  0  0  0  0  0  0  0  0  0  0  0
   14.3287    0.3683   -2.6097 C   0  0  0  0  0  0  0  0  0  0  0  0
   13.4647    1.1429   -1.9062 F   0  0  0  0  0  0  0  0  0  0  0  0
    9.3209    0.9242   -2.7877 C   0  0  0  0  0  0  0  0  0  0  0  0
    7.9394    1.0037   -2.9225 C   0  0  0  0  0  0  0  0  0  0  0  0
    4.7649   -2.8576   -4.5743 C   0  0  0  0  0  0  0  0  0  0  0  0
    3.2321   -2.9047   -4.6969 C   0  0  0  0  0  0  0  0  0  0  0  0
    2.0109   -5.6475   -3.1174 H   0  0  0  0  0  0  0  0  0  0  0  0
    3.6359   -5.5995   -3.8503 H   0  0  0  0  0  0  0  0  0  0  0  0
    2.1875   -5.3739   -4.8637 H   0  0  0  0  0  0  0  0  0  0  0  0
    2.5445   -3.9499   -1.5819 H   0  0  0  0  0  0  0  0  0  0  0  0
    2.5651   -2.2726   -2.1463 H   0  0  0  0  0  0  0  0  0  0  0  0
    4.9443   -4.2280   -2.2695 H   0  0  0  0  0  0  0  0  0  0  0  0
    4.7748   -2.9225   -1.1108 H   0  0  0  0  0  0  0  0  0  0  0  0
    6.3022   -2.4442   -3.0871 H   0  0  0  0  0  0  0  0  0  0  0  0
    3.9834   -0.8884   -1.0500 H   0  0  0  0  0  0  0  0  0  0  0  0
    4.6856    0.6529   -1.5519 H   0  0  0  0  0  0  0  0  0  0  0  0
    5.7617   -0.6814   -1.0176 H   0  0  0  0  0  0  0  0  0  0  0  0
    7.5303   -1.2295   -5.4707 H   0  0  0  0  0  0  0  0  0  0  0  0
   10.0038   -1.3849   -5.2085 H   0  0  0  0  0  0  0  0  0  0  0  0
   11.8039    0.6743   -2.6786 H   0  0  0  0  0  0  0  0  0  0  0  0
   14.4609   -1.9384   -5.0615 H   0  0  0  0  0  0  0  0  0  0  0  0
   16.9046   -1.7747   -4.5272 H   0  0  0  0  0  0  0  0  0  0  0  0
   17.6703   -0.2052   -2.7332 H   0  0  0  0  0  0  0  0  0  0  0  0
   15.9706    1.1798   -1.4988 H   0  0  0  0  0  0  0  0  0  0  0  0
    9.8266    1.5516   -2.0480 H   0  0  0  0  0  0  0  0  0  0  0  0
    7.3602    1.6970   -2.3106 H   0  0  0  0  0  0  0  0  0  0  0  0
    5.1820   -3.8757   -4.6614 H   0  0  0  0  0  0  0  0  0  0  0  0
    5.1816   -2.2668   -5.3961 H   0  0  0  0  0  0  0  0  0  0  0  0
    2.9431   -3.2978   -5.6846 H   0  0  0  0  0  0  0  0  0  0  0  0
    2.8494   -1.8720   -4.6408 H   0  0  0  0  0  0  0  0  0  0  0  0
  1  2  1  0
  1 29  1  0
  1 30  1  0
  1 31  1  0
  2  3  1  0
  2 28  1  0
  3  4  1  0
  3 32  1  0
  3 33  1  0
  4  5  1  0
  4 34  1  0
  4 35  1  0
  5  6  1  0
  5 27  1  0
  5 36  1  6
  6  7  1  0
  8  6  1  1
  7 37  1  0
  7 38  1  0
  7 39  1  0
  8  9  2  0
  8 10  2  0
  8 11  1  0
 11 12  2  0
 11 26  1  0
 12 13  1  0
 12 40  1  0
 13 14  2  0
 13 41  1  0
 14 15  1  0
 14 25  1  0
 15 16  1  0
 15 42  1  0
 16 17  2  0
 16 18  1  0
 18 19  2  0
 18 23  1  0
 19 20  1  0
 19 43  1  0
 20 21  2  0
 20 44  1  0
 21 22  1  0
 21 45  1  0
 22 23  2  0
 22 46  1  0
 23 24  1  0
 25 26  2  0
 25 47  1  0
 26 48  1  0
 27 28  1  0
 27 49  1  0
 27 50  1  0
 28 51  1  0
 28 52  1  0
M  END

