
     RDKit          3D

 43 45  0  0  0  0  0  0  0  0999 V2000
    0.8499    0.5358   -0.2053 C   0  0  0  0  0  0  0  0  0  0  0  0
    2.1294   -0.0456   -0.0680 O   0  0  0  0  0  0  0  0  0  0  0  0
    2.6547   -0.8707   -1.1162 C   0  0  1  0  0  0  0  0  0  0  0  0
    3.0035    0.0014   -2.3115 C   0  0  0  0  0  0  0  0  0  0  0  0
    4.2363    0.3065   -2.6316 N   0  0  0  0  0  0  0  0  0  0  0  0
    4.0961    1.1157   -3.7528 O   0  0  0  0  0  0  0  0  0  0  0  0
    2.7838    1.2205   -4.0045 C   0  0  0  0  0  0  0  0  0  0  0  0
    2.3505    2.0381   -5.1810 C   0  0  1  0  0  0  0  0  0  0  0  0
    1.5968    1.2392   -6.2351 C   0  0  0  0  0  0  0  0  0  0  0  0
    0.5041    1.8772   -6.6636 C   0  0  0  0  0  0  0  0  0  0  0  0
    0.3285    3.2322   -6.0114 C   0  0  2  0  0  0  0  0  0  0  0  0
    0.5291    4.2872   -7.0019 N   0  0  0  0  0  0  0  0  0  0  0  0
    1.3299    3.1554   -4.8177 C   0  0  0  0  0  0  0  0  0  0  0  0
    2.0612    0.5537   -3.1533 N   0  0  0  0  0  0  0  0  0  0  0  0
    3.9223   -1.5033   -0.5128 C   0  0  0  0  0  0  0  0  0  0  0  0
    3.5889   -2.4609    0.6381 C   0  0  0  0  0  0  0  0  0  0  0  0
    2.6035   -3.5764    0.2347 C   0  0  2  0  0  0  0  0  0  0  0  0
    3.2466   -4.6449   -0.6621 C   0  0  0  0  0  0  0  0  0  0  0  0
    1.3469   -2.9453   -0.3994 C   0  0  0  0  0  0  0  0  0  0  0  0
    1.6711   -1.9807   -1.5487 C   0  0  0  0  0  0  0  0  0  0  0  0
    0.7242    1.2070    0.6575 H   0  0  0  0  0  0  0  0  0  0  0  0
    0.0367   -0.2134   -0.1764 H   0  0  0  0  0  0  0  0  0  0  0  0
    0.7452    1.1222   -1.1330 H   0  0  0  0  0  0  0  0  0  0  0  0
    3.2756    2.4527   -5.6185 H   0  0  0  0  0  0  0  0  0  0  0  0
    1.9559    0.2733   -6.5980 H   0  0  0  0  0  0  0  0  0  0  0  0
   -0.1654    1.5249   -7.4516 H   0  0  0  0  0  0  0  0  0  0  0  0
   -0.7003    3.3561   -5.6294 H   0  0  0  0  0  0  0  0  0  0  0  0
    1.4814    4.2633   -7.3692 H   0  0  0  0  0  0  0  0  0  0  0  0
    0.3905    5.2082   -6.5856 H   0  0  0  0  0  0  0  0  0  0  0  0
    0.7939    2.8537   -3.9055 H   0  0  0  0  0  0  0  0  0  0  0  0
    1.8143    4.1242   -4.6210 H   0  0  0  0  0  0  0  0  0  0  0  0
    4.5794   -0.6943   -0.1617 H   0  0  0  0  0  0  0  0  0  0  0  0
    4.4698   -2.0236   -1.3136 H   0  0  0  0  0  0  0  0  0  0  0  0
    3.1475   -1.8732    1.4585 H   0  0  0  0  0  0  0  0  0  0  0  0
    4.5217   -2.9020    1.0288 H   0  0  0  0  0  0  0  0  0  0  0  0
    2.2837   -4.0872    1.1605 H   0  0  0  0  0  0  0  0  0  0  0  0
    3.6046   -4.2364   -1.6209 H   0  0  0  0  0  0  0  0  0  0  0  0
    2.5291   -5.4485   -0.8963 H   0  0  0  0  0  0  0  0  0  0  0  0
    4.1132   -5.1078   -0.1622 H   0  0  0  0  0  0  0  0  0  0  0  0
    0.7961   -2.3961    0.3821 H   0  0  0  0  0  0  0  0  0  0  0  0
    0.6666   -3.7339   -0.7641 H   0  0  0  0  0  0  0  0  0  0  0  0
    0.7532   -1.5309   -1.9569 H   0  0  0  0  0  0  0  0  0  0  0  0
    2.1315   -2.5257   -2.3897 H   0  0  0  0  0  0  0  0  0  0  0  0
  1  2  1  0
  1 21  1  0
  1 22  1  0
  1 23  1  0
  3  2  1  1
  3  4  1  0
  3 15  1  0
  3 20  1  0
  4  5  2  0
  4 14  1  0
  5  6  1  0
  6  7  1  0
  7  8  1  0
  7 14  2  0
  8  9  1  0
  8 13  1  0
  8 24  1  6
  9 10  2  0
  9 25  1  0
 10 11  1  0
 10 26  1  0
 11 12  1  0
 11 13  1  0
 11 27  1  1
 12 28  1  0
 12 29  1  0
 13 30  1  0
 13 31  1  0
 15 16  1  0
 15 32  1  0
 15 33  1  0
 16 17  1  0
 16 34  1  0
 16 35  1  0
 17 18  1  0
 17 19  1  0
 17 36  1  1
 18 37  1  0
 18 38  1  0
 18 39  1  0
 19 20  1  0
 19 40  1  0
 19 41  1  0
 20 42  1  0
 20 43  1  0
M  END

