
     RDKit          3D

 45 49  0  0  0  0  0  0  0  0999 V2000
    1.0239    0.3289   -0.0953 C   0  0  0  0  0  0  0  0  0  0  0  0
    2.5026    0.0373   -0.1526 C   0  0  0  0  0  0  0  0  0  0  0  0
    3.0992   -1.1939   -0.1922 C   0  0  0  0  0  0  0  0  0  0  0  0
    2.3912   -2.5035   -0.3243 C   0  0  0  0  0  0  0  0  0  0  0  0
    2.8256   -3.5095    0.2157 O   0  0  0  0  0  0  0  0  0  0  0  0
    1.2753   -2.5105   -1.1432 N   0  0  0  0  0  0  0  0  0  0  0  0
    0.3976   -3.5720   -1.4387 C   0  0  0  0  0  0  0  0  0  0  0  0
    0.4797   -4.8406   -0.8356 C   0  0  0  0  0  0  0  0  0  0  0  0
   -0.4475   -5.8271   -1.1813 C   0  0  0  0  0  0  0  0  0  0  0  0
   -1.4556   -5.5824   -2.1178 C   0  0  0  0  0  0  0  0  0  0  0  0
   -1.5337   -4.3221   -2.7184 C   0  0  0  0  0  0  0  0  0  0  0  0
   -0.6179   -3.3261   -2.3829 C   0  0  0  0  0  0  0  0  0  0  0  0
    4.6130   -1.3577    0.0004 C   0  0  2  0  0  0  0  0  0  0  0  0
    4.9841   -2.1299   -0.6886 H   0  0  0  0  0  0  0  0  0  0  0  0
    5.0311   -1.7604    1.4140 C   0  0  0  0  0  0  0  0  0  0  0  0
    5.8732   -2.8591    1.6022 C   0  0  0  0  0  0  0  0  0  0  0  0
    6.3148   -3.2494    2.8811 C   0  0  0  0  0  0  0  0  0  0  0  0
    5.8787   -2.4914    3.9518 C   0  0  0  0  0  0  0  0  0  0  0  0
    5.0371   -1.3901    3.7735 C   0  0  0  0  0  0  0  0  0  0  0  0
    4.5956   -1.0006    2.5245 C   0  0  0  0  0  0  0  0  0  0  0  0
    4.7584   -0.8302    4.9906 O   0  0  0  0  0  0  0  0  0  0  0  0
    5.4620   -1.5987    5.9628 C   0  0  0  0  0  0  0  0  0  0  0  0
    6.1472   -2.6469    5.2831 O   0  0  0  0  0  0  0  0  0  0  0  0
    5.2339   -0.0932   -0.3998 N   0  0  0  0  0  0  0  0  0  0  0  0
    6.5506    0.0722   -0.6805 N   0  0  0  0  0  0  0  0  0  0  0  0
    6.6440    1.3819   -0.8316 C   0  0  0  0  0  0  0  0  0  0  0  0
    5.4833    2.0816   -0.6562 N   0  0  0  0  0  0  0  0  0  0  0  0
    4.6324    1.1128   -0.3832 C   0  0  0  0  0  0  0  0  0  0  0  0
    3.2824    1.1868   -0.1332 N   0  0  0  0  0  0  0  0  0  0  0  0
    0.4359   -0.5483    0.1933 H   0  0  0  0  0  0  0  0  0  0  0  0
    0.6452    0.7069   -1.0618 H   0  0  0  0  0  0  0  0  0  0  0  0
    0.8393    1.1193    0.6508 H   0  0  0  0  0  0  0  0  0  0  0  0
    1.1261   -1.6743   -1.6928 H   0  0  0  0  0  0  0  0  0  0  0  0
    1.2702   -5.0380   -0.1161 H   0  0  0  0  0  0  0  0  0  0  0  0
   -0.3725   -6.8089   -0.7062 H   0  0  0  0  0  0  0  0  0  0  0  0
   -2.1714   -6.3650   -2.3795 H   0  0  0  0  0  0  0  0  0  0  0  0
   -2.3129   -4.1092   -3.4548 H   0  0  0  0  0  0  0  0  0  0  0  0
   -0.6874   -2.3422   -2.8578 H   0  0  0  0  0  0  0  0  0  0  0  0
    6.1928   -3.4382    0.7333 H   0  0  0  0  0  0  0  0  0  0  0  0
    6.9686   -4.1108    3.0247 H   0  0  0  0  0  0  0  0  0  0  0  0
    3.9340   -0.1403    2.4137 H   0  0  0  0  0  0  0  0  0  0  0  0
    4.7460   -2.0300    6.6863 H   0  0  0  0  0  0  0  0  0  0  0  0
    6.1922   -0.9561    6.4890 H   0  0  0  0  0  0  0  0  0  0  0  0
    7.5898    1.8613   -1.0831 H   0  0  0  0  0  0  0  0  0  0  0  0
    2.8557    2.1045   -0.1296 H   0  0  0  0  0  0  0  0  0  0  0  0
  1  2  1  0
  1 30  1  0
  1 31  1  0
  1 32  1  0
  2  3  2  0
  2 29  1  0
  3  4  1  0
  3 13  1  0
  4  5  2  0
  4  6  1  0
  6  7  1  0
  6 33  1  0
  7  8  2  0
  7 12  1  0
  8  9  1  0
  8 34  1  0
  9 10  2  0
  9 35  1  0
 10 11  1  0
 10 36  1  0
 11 12  2  0
 11 37  1  0
 12 38  1  0
 13 14  1  6
 13 15  1  0
 13 24  1  0
 15 16  2  0
 15 20  1  0
 16 17  1  0
 16 39  1  0
 17 18  2  0
 17 40  1  0
 18 19  1  0
 18 23  1  0
 19 20  2  0
 19 21  1  0
 20 41  1  0
 21 22  1  0
 22 23  1  0
 22 42  1  0
 22 43  1  0
 24 25  1  0
 24 28  1  0
 25 26  2  0
 26 27  1  0
 26 44  1  0
 27 28  2  0
 28 29  1  0
 29 45  1  0
M  END

