
     RDKit          3D

 40 41  0  0  0  0  0  0  0  0999 V2000
    0.9793    0.0261    0.8018 C   0  0  0  0  0  0  0  0  0  0  0  0
    2.4330    0.0286    0.3971 C   0  0  0  0  0  0  0  0  0  0  0  0
    3.3856   -0.6718    1.1508 C   0  0  0  0  0  0  0  0  0  0  0  0
    4.7362   -0.6862    0.7985 C   0  0  0  0  0  0  0  0  0  0  0  0
    5.1759    0.0090   -0.3354 C   0  0  0  0  0  0  0  0  0  0  0  0
    6.6427    0.0373   -0.7159 C   0  0  0  0  0  0  0  0  0  0  0  0
    7.2772   -1.2639   -0.5576 N   0  0  0  0  0  0  0  0  0  0  0  0
    8.6813   -1.3416   -0.9649 C   0  0  1  0  0  0  0  0  0  0  0  0
    9.5898   -0.5853    0.0203 C   0  0  0  0  0  0  0  0  0  0  0  0
    9.1120   -2.7983   -1.0765 C   0  0  0  0  0  0  0  0  0  0  0  0
    8.7000   -3.7486   -0.1254 C   0  0  0  0  0  0  0  0  0  0  0  0
    9.1413   -5.0692   -0.2243 C   0  0  0  0  0  0  0  0  0  0  0  0
    9.9945   -5.4643   -1.2584 C   0  0  0  0  0  0  0  0  0  0  0  0
   10.4083   -4.5212   -2.2087 C   0  0  0  0  0  0  0  0  0  0  0  0
   11.2322   -4.8357   -3.2438 O   0  0  0  0  0  0  0  0  0  0  0  0
    9.9628   -3.1952   -2.1136 C   0  0  0  0  0  0  0  0  0  0  0  0
    4.2240    0.7033   -1.0943 C   0  0  0  0  0  0  0  0  0  0  0  0
    2.8650    0.7313   -0.7512 C   0  0  0  0  0  0  0  0  0  0  0  0
    1.8801    1.4948   -1.6026 C   0  0  0  0  0  0  0  0  0  0  0  0
    0.8198   -0.5629    1.7167 H   0  0  0  0  0  0  0  0  0  0  0  0
    0.3356   -0.3997    0.0127 H   0  0  0  0  0  0  0  0  0  0  0  0
    0.6056    1.0472    0.9910 H   0  0  0  0  0  0  0  0  0  0  0  0
    3.0586   -1.2203    2.0394 H   0  0  0  0  0  0  0  0  0  0  0  0
    5.4597   -1.2434    1.3971 H   0  0  0  0  0  0  0  0  0  0  0  0
    7.1640    0.7609   -0.0639 H   0  0  0  0  0  0  0  0  0  0  0  0
    6.7410    0.4424   -1.7486 H   0  0  0  0  0  0  0  0  0  0  0  0
    6.7391   -1.9609   -1.0718 H   0  0  0  0  0  0  0  0  0  0  0  0
    8.8304   -0.8791   -1.9670 H   0  0  0  0  0  0  0  0  0  0  0  0
    9.4839   -1.0017    1.0340 H   0  0  0  0  0  0  0  0  0  0  0  0
    9.3437    0.4874    0.0591 H   0  0  0  0  0  0  0  0  0  0  0  0
   10.6429   -0.6746   -0.2859 H   0  0  0  0  0  0  0  0  0  0  0  0
    8.0311   -3.4447    0.6812 H   0  0  0  0  0  0  0  0  0  0  0  0
    8.8185   -5.8079    0.5143 H   0  0  0  0  0  0  0  0  0  0  0  0
   10.3366   -6.5017   -1.3317 H   0  0  0  0  0  0  0  0  0  0  0  0
   11.4595   -5.7736   -3.1989 H   0  0  0  0  0  0  0  0  0  0  0  0
   10.2944   -2.4826   -2.8729 H   0  0  0  0  0  0  0  0  0  0  0  0
    4.5508    1.2431   -1.9892 H   0  0  0  0  0  0  0  0  0  0  0  0
    2.3779    1.9808   -2.4544 H   0  0  0  0  0  0  0  0  0  0  0  0
    1.3634    2.2796   -1.0238 H   0  0  0  0  0  0  0  0  0  0  0  0
    1.0919    0.8359   -2.0059 H   0  0  0  0  0  0  0  0  0  0  0  0
  1  2  1  0
  1 20  1  0
  1 21  1  0
  1 22  1  0
  2  3  2  0
  2 18  1  0
  3  4  1  0
  3 23  1  0
  4  5  2  0
  4 24  1  0
  5  6  1  0
  5 17  1  0
  6  7  1  0
  6 25  1  0
  6 26  1  0
  7  8  1  0
  7 27  1  0
  8  9  1  0
  8 10  1  0
  8 28  1  6
  9 29  1  0
  9 30  1  0
  9 31  1  0
 10 11  2  0
 10 16  1  0
 11 12  1  0
 11 32  1  0
 12 13  2  0
 12 33  1  0
 13 14  1  0
 13 34  1  0
 14 15  1  0
 14 16  2  0
 15 35  1  0
 16 36  1  0
 17 18  2  0
 17 37  1  0
 18 19  1  0
 19 38  1  0
 19 39  1  0
 19 40  1  0
M  END

