
     RDKit          3D

 33 33  0  0  0  0  0  0  0  0999 V2000
    2.5074   -0.7443   -0.7879 O   0  0  0  0  0  0  0  0  0  0  0  0
    2.7928    0.2324    0.2504 S   0  0  1  0  0  0  0  0  0  0  0  0
    1.7912    1.1909    0.7186 O   0  0  0  0  0  0  0  0  0  0  0  0
    3.4789   -0.5899    1.6813 C   0  0  0  0  0  0  0  0  0  0  0  0
    4.1680   -2.2091    1.5352 S   0  0  1  0  0  0  0  0  0  0  0  0
    4.7244   -2.3639    0.2020 O   0  0  0  0  0  0  0  0  0  0  0  0
    4.9390   -2.4892    2.7456 O   0  0  0  0  0  0  0  0  0  0  0  0
    2.6882   -3.3793    1.6558 C   0  0  1  0  0  0  0  0  0  0  0  0
    2.1383   -3.2353    2.8612 F   0  0  0  0  0  0  0  0  0  0  0  0
    1.7876   -3.1103    0.7278 F   0  0  0  0  0  0  0  0  0  0  0  0
    3.1316   -4.6186    1.5135 F   0  0  0  0  0  0  0  0  0  0  0  0
    3.1211    0.1714    3.1402 S   0  0  1  0  0  0  0  0  0  0  0  0
    3.2490    1.6198    3.1987 O   0  0  0  0  0  0  0  0  0  0  0  0
    1.6189   -0.3378    3.5842 O   0  0  0  0  0  0  0  0  0  0  0  0
    0.7560    0.4968    4.3300 C   0  0  0  0  0  0  0  0  0  0  0  0
    0.1402    1.5764    3.6982 C   0  0  0  0  0  0  0  0  0  0  0  0
   -0.7672    2.3413    4.4360 C   0  0  0  0  0  0  0  0  0  0  0  0
   -1.0484    2.0188    5.7679 C   0  0  0  0  0  0  0  0  0  0  0  0
   -0.4220    0.9248    6.3744 C   0  0  0  0  0  0  0  0  0  0  0  0
    0.4946    0.1533    5.6557 C   0  0  0  0  0  0  0  0  0  0  0  0
    4.1073   -0.5036    4.6679 C   0  0  1  0  0  0  0  0  0  0  0  0
    3.7226   -1.7083    5.0092 F   0  0  0  0  0  0  0  0  0  0  0  0
    5.3928   -0.4262    4.4418 F   0  0  0  0  0  0  0  0  0  0  0  0
    3.7607    0.3586    5.6142 F   0  0  0  0  0  0  0  0  0  0  0  0
    4.2363    1.2721   -0.3873 C   0  0  1  0  0  0  0  0  0  0  0  0
    4.6295    2.1131    0.5599 F   0  0  0  0  0  0  0  0  0  0  0  0
    5.2422    0.4847   -0.7285 F   0  0  0  0  0  0  0  0  0  0  0  0
    3.8121    1.9505   -1.4431 F   0  0  0  0  0  0  0  0  0  0  0  0
    0.3696    1.7947    2.6542 H   0  0  0  0  0  0  0  0  0  0  0  0
   -1.2607    3.1924    3.9611 H   0  0  0  0  0  0  0  0  0  0  0  0
   -1.7621    2.6205    6.3354 H   0  0  0  0  0  0  0  0  0  0  0  0
   -0.6466    0.6677    7.4121 H   0  0  0  0  0  0  0  0  0  0  0  0
    0.9905   -0.7095    6.1037 H   0  0  0  0  0  0  0  0  0  0  0  0
  1  2  2  0
  2  3  1  1
  2  4  2  0
  2 25  1  0
  5  4  1  1
 12  4  1  6
  5  6  2  0
  5  7  2  0
  5  8  1  0
  8  9  1  1
  8 10  1  0
  8 11  1  0
 12 13  2  0
 12 14  2  0
 12 21  1  0
 14 15  1  0
 15 16  2  0
 15 20  1  0
 16 17  1  0
 16 29  1  0
 17 18  2  0
 17 30  1  0
 18 19  1  0
 18 31  1  0
 19 20  2  0
 19 32  1  0
 20 33  1  0
 21 22  1  1
 21 23  1  0
 21 24  1  0
 25 26  1  1
 25 27  1  0
 25 28  1  0
M  CHG  2   3  -1  14   1
M  END

