
     RDKit          3D

 31 32  0  0  0  0  0  0  0  0999 V2000
    1.9035   -1.3202   -0.7336 C   0  0  0  0  0  0  0  0  0  0  0  0
    2.4753   -0.1145   -0.0140 C   0  0  0  0  0  0  0  0  0  0  0  0
    2.3088    1.0055   -0.4595 O   0  0  0  0  0  0  0  0  0  0  0  0
    3.2519   -0.2968    1.2593 C   0  0  0  0  0  0  0  0  0  0  0  0
    3.7562    0.8494    1.8893 C   0  0  0  0  0  0  0  0  0  0  0  0
    4.4846    0.8071    3.0789 C   0  0  0  0  0  0  0  0  0  0  0  0
    4.7592   -0.4501    3.6940 C   0  0  0  0  0  0  0  0  0  0  0  0
    4.2588   -1.6173    3.0786 C   0  0  0  0  0  0  0  0  0  0  0  0
    3.5299   -1.5210    1.9049 C   0  0  0  0  0  0  0  0  0  0  0  0
    3.0887   -2.6738    1.3771 F   0  0  0  0  0  0  0  0  0  0  0  0
    5.4797   -0.5170    4.8536 N   0  0  0  0  0  0  0  0  0  0  0  0
    6.3160    0.6001    5.3276 C   0  0  2  0  0  0  0  0  0  0  0  0
    7.6363    0.6571    4.5309 C   0  0  0  0  0  0  0  0  0  0  0  0
    6.6072    0.3736    6.8158 C   0  0  0  0  0  0  0  0  0  0  0  0
    5.5072    1.8955    5.1306 C   0  0  0  0  0  0  0  0  0  0  0  0
    4.9406    2.0624    3.7246 C   0  0  0  0  0  0  0  0  0  0  0  0
    4.8227    3.1576    3.2104 O   0  0  0  0  0  0  0  0  0  0  0  0
    1.3782   -0.9690   -1.6309 H   0  0  0  0  0  0  0  0  0  0  0  0
    1.2094   -1.8753   -0.0837 H   0  0  0  0  0  0  0  0  0  0  0  0
    2.6998   -2.0265   -1.0152 H   0  0  0  0  0  0  0  0  0  0  0  0
    3.5592    1.8198    1.4288 H   0  0  0  0  0  0  0  0  0  0  0  0
    4.4399   -2.6065    3.5038 H   0  0  0  0  0  0  0  0  0  0  0  0
    5.7645   -1.4425    5.1556 H   0  0  0  0  0  0  0  0  0  0  0  0
    8.2034   -0.2797    4.6530 H   0  0  0  0  0  0  0  0  0  0  0  0
    8.2693    1.4867    4.8828 H   0  0  0  0  0  0  0  0  0  0  0  0
    7.4518    0.8056    3.4557 H   0  0  0  0  0  0  0  0  0  0  0  0
    7.1716   -0.5617    6.9700 H   0  0  0  0  0  0  0  0  0  0  0  0
    5.6727    0.3129    7.3940 H   0  0  0  0  0  0  0  0  0  0  0  0
    7.2147    1.1973    7.2196 H   0  0  0  0  0  0  0  0  0  0  0  0
    6.1094    2.7825    5.3726 H   0  0  0  0  0  0  0  0  0  0  0  0
    4.6407    1.8859    5.8175 H   0  0  0  0  0  0  0  0  0  0  0  0
  1  2  1  0
  1 18  1  0
  1 19  1  0
  1 20  1  0
  2  3  2  0
  2  4  1  0
  4  5  2  0
  4  9  1  0
  5  6  1  0
  5 21  1  0
  6  7  2  0
  6 16  1  0
  7  8  1  0
  7 11  1  0
  8  9  2  0
  8 22  1  0
  9 10  1  0
 11 12  1  0
 11 23  1  0
 12 13  1  6
 12 14  1  0
 12 15  1  0
 13 24  1  0
 13 25  1  0
 13 26  1  0
 14 27  1  0
 14 28  1  0
 14 29  1  0
 15 16  1  0
 15 30  1  0
 15 31  1  0
 16 17  2  0
M  END

