
     RDKit          3D

 59 63  0  0  0  0  0  0  0  0999 V2000
    1.9392   -4.6441    7.1970 C   0  0  0  0  0  0  0  0  0  0  0  0
    3.4322   -4.8836    7.0719 C   0  0  0  0  0  0  0  0  0  0  0  0
    3.8194   -4.5560    5.7509 O   0  0  0  0  0  0  0  0  0  0  0  0
    5.1209   -4.6737    5.3866 C   0  0  0  0  0  0  0  0  0  0  0  0
    6.1507   -5.1255    6.2182 C   0  0  0  0  0  0  0  0  0  0  0  0
    7.4643   -5.2191    5.7348 C   0  0  0  0  0  0  0  0  0  0  0  0
    7.7529   -4.8522    4.4245 C   0  0  0  0  0  0  0  0  0  0  0  0
    6.7376   -4.3807    3.5745 C   0  0  0  0  0  0  0  0  0  0  0  0
    7.0586   -3.8684    2.1853 C   0  0  0  0  0  0  0  0  0  0  0  0
    6.0843   -4.2929    1.1609 N   0  0  0  0  0  0  0  0  0  0  0  0
    5.9637   -5.7424    0.9914 C   0  0  0  0  0  0  0  0  0  0  0  0
    7.2287   -6.4637    0.5060 C   0  0  0  0  0  0  0  0  0  0  0  0
    7.4776   -6.3994   -0.9939 C   0  0  0  0  0  0  0  0  0  0  0  0
    7.6052   -5.0629   -1.5686 N   0  0  0  0  0  0  0  0  0  0  0  0
    6.7906   -3.9559   -1.3146 C   0  0  0  0  0  0  0  0  0  0  0  0
    6.7768   -3.1125   -2.4049 C   0  0  0  0  0  0  0  0  0  0  0  0
    7.6195   -3.6934   -3.4114 C   0  0  0  0  0  0  0  0  0  0  0  0
    8.0044   -3.3118   -4.7108 C   0  0  0  0  0  0  0  0  0  0  0  0
    8.8360   -4.1393   -5.4661 C   0  0  0  0  0  0  0  0  0  0  0  0
    9.2681   -3.7537   -6.8617 C   0  0  0  0  0  0  0  0  0  0  0  0
    9.2780   -5.3638   -4.9059 C   0  0  0  0  0  0  0  0  0  0  0  0
    8.9188   -5.7667   -3.6222 C   0  0  0  0  0  0  0  0  0  0  0  0
    8.1020   -4.9145   -2.8657 C   0  0  0  0  0  0  0  0  0  0  0  0
    5.9468   -1.8665   -2.3702 C   0  0  0  0  0  0  0  0  0  0  0  0
    4.5658   -2.1985   -1.7571 C   0  0  0  0  0  0  0  0  0  0  0  0
    4.6503   -3.0117   -0.4355 C   0  0  0  0  0  0  0  0  0  0  0  0
    6.0875   -3.4751   -0.0594 C   0  0  1  0  0  0  0  0  0  0  0  0
    5.4152   -4.2983    4.0490 C   0  0  0  0  0  0  0  0  0  0  0  0
    4.4005   -3.8803    3.2636 O   0  0  0  0  0  0  0  0  0  0  0  0
    1.5964   -4.8888    8.2145 H   0  0  0  0  0  0  0  0  0  0  0  0
    1.3853   -5.2696    6.4806 H   0  0  0  0  0  0  0  0  0  0  0  0
    1.6974   -3.5906    6.9892 H   0  0  0  0  0  0  0  0  0  0  0  0
    3.6780   -5.9411    7.2910 H   0  0  0  0  0  0  0  0  0  0  0  0
    3.9905   -4.2615    7.7983 H   0  0  0  0  0  0  0  0  0  0  0  0
    5.9364   -5.4175    7.2463 H   0  0  0  0  0  0  0  0  0  0  0  0
    8.2566   -5.5808    6.3943 H   0  0  0  0  0  0  0  0  0  0  0  0
    8.7772   -4.9175    4.0465 H   0  0  0  0  0  0  0  0  0  0  0  0
    8.1017   -4.1350    1.9252 H   0  0  0  0  0  0  0  0  0  0  0  0
    7.0230   -2.7650    2.2034 H   0  0  0  0  0  0  0  0  0  0  0  0
    5.1277   -5.9397    0.2984 H   0  0  0  0  0  0  0  0  0  0  0  0
    5.6644   -6.1666    1.9620 H   0  0  0  0  0  0  0  0  0  0  0  0
    7.1388   -7.5323    0.7647 H   0  0  0  0  0  0  0  0  0  0  0  0
    8.1089   -6.0955    1.0573 H   0  0  0  0  0  0  0  0  0  0  0  0
    6.6626   -6.9381   -1.5181 H   0  0  0  0  0  0  0  0  0  0  0  0
    8.4067   -6.9428   -1.2209 H   0  0  0  0  0  0  0  0  0  0  0  0
    7.6486   -2.3669   -5.1316 H   0  0  0  0  0  0  0  0  0  0  0  0
    8.8210   -2.7980   -7.1737 H   0  0  0  0  0  0  0  0  0  0  0  0
    8.9750   -4.5181   -7.6014 H   0  0  0  0  0  0  0  0  0  0  0  0
   10.3645   -3.6474   -6.9304 H   0  0  0  0  0  0  0  0  0  0  0  0
    9.9248   -6.0146   -5.5017 H   0  0  0  0  0  0  0  0  0  0  0  0
    9.2795   -6.7190   -3.2284 H   0  0  0  0  0  0  0  0  0  0  0  0
    5.8209   -1.4402   -3.3777 H   0  0  0  0  0  0  0  0  0  0  0  0
    6.4404   -1.0800   -1.7657 H   0  0  0  0  0  0  0  0  0  0  0  0
    4.0008   -2.7782   -2.5035 H   0  0  0  0  0  0  0  0  0  0  0  0
    3.9978   -1.2694   -1.5894 H   0  0  0  0  0  0  0  0  0  0  0  0
    4.0062   -3.9033   -0.4999 H   0  0  0  0  0  0  0  0  0  0  0  0
    4.2741   -2.4170    0.4121 H   0  0  0  0  0  0  0  0  0  0  0  0
    6.6239   -2.5516    0.2200 H   0  0  0  0  0  0  0  0  0  0  0  0
    4.7438   -3.9000    2.3353 H   0  0  0  0  0  0  0  0  0  0  0  0
  1  2  1  0
  1 30  1  0
  1 31  1  0
  1 32  1  0
  2  3  1  0
  2 33  1  0
  2 34  1  0
  3  4  1  0
  4  5  2  0
  4 28  1  0
  5  6  1  0
  5 35  1  0
  6  7  2  0
  6 36  1  0
  7  8  1  0
  7 37  1  0
  8  9  1  0
  8 28  2  0
  9 10  1  0
  9 38  1  0
  9 39  1  0
 10 11  1  0
 10 27  1  0
 11 12  1  0
 11 40  1  0
 11 41  1  0
 12 13  1  0
 12 42  1  0
 12 43  1  0
 13 14  1  0
 13 44  1  0
 13 45  1  0
 14 15  1  0
 14 23  1  0
 15 16  2  0
 15 27  1  0
 16 17  1  0
 16 24  1  0
 17 18  1  0
 17 23  2  0
 18 19  2  0
 18 46  1  0
 19 20  1  0
 19 21  1  0
 20 47  1  0
 20 48  1  0
 20 49  1  0
 21 22  2  0
 21 50  1  0
 22 23  1  0
 22 51  1  0
 24 25  1  0
 24 52  1  0
 24 53  1  0
 25 26  1  0
 25 54  1  0
 25 55  1  0
 26 27  1  0
 26 56  1  0
 26 57  1  0
 27 58  1  1
 28 29  1  0
 29 59  1  0
M  END

