
     RDKit          3D

 32 34  0  0  0  0  0  0  0  0999 V2000
    6.4476   -1.6739    0.7389 C   0  0  0  0  0  0  0  0  0  0  0  0
    5.3132   -0.8322    0.4032 N   0  0  0  0  0  0  0  0  0  0  0  0
    5.6503    0.3640   -0.3416 C   0  0  0  0  0  0  0  0  0  0  0  0
    4.3787    1.0476   -0.8517 C   0  0  0  0  0  0  0  0  0  0  0  0
    4.6624    2.2375   -1.6374 N   0  0  0  0  0  0  0  0  0  0  0  0
    4.4277    3.5315   -1.3052 C   0  0  0  0  0  0  0  0  0  0  0  0
    4.9013    4.3171   -2.3568 C   0  0  0  0  0  0  0  0  0  0  0  0
    4.8713    5.7668   -2.4708 C   0  0  0  0  0  0  0  0  0  0  0  0
    4.4333    6.6915   -1.5583 C   0  0  0  0  0  0  0  0  0  0  0  0
    4.5534    8.0488   -2.0140 C   0  0  0  0  0  0  0  0  0  0  0  0
    4.1981    9.1412   -1.3157 N   0  0  0  0  0  0  0  0  0  0  0  0
    4.3826   10.3212   -1.8967 C   0  0  0  0  0  0  0  0  0  0  0  0
    4.9231   10.4919   -3.1868 C   0  0  0  0  0  0  0  0  0  0  0  0
    5.2973    9.3700   -3.9248 C   0  0  0  0  0  0  0  0  0  0  0  0
    5.1078    8.1236   -3.3246 C   0  0  0  0  0  0  0  0  0  0  0  0
    5.4592    6.5332   -3.9545 S   0  0  0  0  0  0  0  0  0  0  0  0
    5.4111    3.3576   -3.2783 C   0  0  0  0  0  0  0  0  0  0  0  0
    5.2626    2.1171   -2.8331 N   0  0  0  0  0  0  0  0  0  0  0  0
    6.1091   -2.5386    1.3308 H   0  0  0  0  0  0  0  0  0  0  0  0
    7.2507   -1.1604    1.3134 H   0  0  0  0  0  0  0  0  0  0  0  0
    6.9079   -2.0666   -0.1832 H   0  0  0  0  0  0  0  0  0  0  0  0
    4.8025   -0.5864    1.2508 H   0  0  0  0  0  0  0  0  0  0  0  0
    6.2565    0.0795   -1.2172 H   0  0  0  0  0  0  0  0  0  0  0  0
    6.2580    1.1020    0.2314 H   0  0  0  0  0  0  0  0  0  0  0  0
    3.7359    1.3546   -0.0116 H   0  0  0  0  0  0  0  0  0  0  0  0
    3.8082    0.3384   -1.4697 H   0  0  0  0  0  0  0  0  0  0  0  0
    3.9432    3.8033   -0.3701 H   0  0  0  0  0  0  0  0  0  0  0  0
    4.0331    6.4439   -0.5753 H   0  0  0  0  0  0  0  0  0  0  0  0
    4.0880   11.2034   -1.3153 H   0  0  0  0  0  0  0  0  0  0  0  0
    5.0448   11.4962   -3.5984 H   0  0  0  0  0  0  0  0  0  0  0  0
    5.7198    9.4651   -4.9281 H   0  0  0  0  0  0  0  0  0  0  0  0
    5.8770    3.5374   -4.2475 H   0  0  0  0  0  0  0  0  0  0  0  0
  1  2  1  0
  1 19  1  0
  1 20  1  0
  1 21  1  0
  2  3  1  0
  2 22  1  0
  3  4  1  0
  3 23  1  0
  3 24  1  0
  4  5  1  0
  4 25  1  0
  4 26  1  0
  5  6  1  0
  5 18  1  0
  6  7  2  0
  6 27  1  0
  7  8  1  0
  7 17  1  0
  8  9  2  0
  8 16  1  0
  9 10  1  0
  9 28  1  0
 10 11  2  0
 10 15  1  0
 11 12  1  0
 12 13  2  0
 12 29  1  0
 13 14  1  0
 13 30  1  0
 14 15  2  0
 14 31  1  0
 15 16  1  0
 17 18  2  0
 17 32  1  0
M  END

