
     RDKit          3D

 33 34  0  0  0  0  0  0  0  0999 V2000
    0.8229    0.0531    0.2880 C   0  0  0  0  0  0  0  0  0  0  0  0
    2.2381    0.1272   -0.0190 N   0  0  0  0  0  0  0  0  0  0  0  0
    2.9015   -1.1618   -0.1843 C   0  0  0  0  0  0  0  0  0  0  0  0
    2.6562   -1.8237   -1.5535 C   0  0  0  0  0  0  0  0  0  0  0  0
    3.0333   -0.8732   -2.7188 C   0  0  2  0  0  0  0  0  0  0  0  0
    4.4748   -0.6700   -2.9067 N   0  0  0  0  0  0  0  0  0  0  0  0
    5.2437   -1.7777   -3.4576 C   0  0  1  0  0  0  0  0  0  0  0  0
    5.0294   -1.9751   -4.9683 C   0  0  0  0  0  0  0  0  0  0  0  0
    6.0760   -2.9821   -5.4449 C   0  0  0  0  0  0  0  0  0  0  0  0
    7.6169   -2.6302   -4.4768 S   0  0  0  0  0  0  0  0  0  0  0  0
    6.7480   -1.5170   -3.2952 C   0  0  0  0  0  0  0  0  0  0  0  0
    2.3333    0.4847   -2.5075 C   0  0  0  0  0  0  0  0  0  0  0  0
    2.5896    1.0475   -1.0971 C   0  0  0  0  0  0  0  0  0  0  0  0
    0.6708   -0.5672    1.1865 H   0  0  0  0  0  0  0  0  0  0  0  0
    0.1776   -0.3690   -0.5152 H   0  0  0  0  0  0  0  0  0  0  0  0
    0.4402    1.0615    0.5156 H   0  0  0  0  0  0  0  0  0  0  0  0
    2.5870   -1.8339    0.6308 H   0  0  0  0  0  0  0  0  0  0  0  0
    3.9892   -1.0061   -0.0472 H   0  0  0  0  0  0  0  0  0  0  0  0
    1.5906   -2.0969   -1.6471 H   0  0  0  0  0  0  0  0  0  0  0  0
    3.2223   -2.7681   -1.6233 H   0  0  0  0  0  0  0  0  0  0  0  0
    2.6554   -1.3075   -3.6587 H   0  0  0  0  0  0  0  0  0  0  0  0
    4.9040   -0.3483   -2.0415 H   0  0  0  0  0  0  0  0  0  0  0  0
    5.0192   -2.7471   -2.9592 H   0  0  0  0  0  0  0  0  0  0  0  0
    5.1702   -0.9995   -5.4623 H   0  0  0  0  0  0  0  0  0  0  0  0
    4.0121   -2.3260   -5.2062 H   0  0  0  0  0  0  0  0  0  0  0  0
    6.2934   -2.8878   -6.5186 H   0  0  0  0  0  0  0  0  0  0  0  0
    5.7616   -4.0193   -5.2494 H   0  0  0  0  0  0  0  0  0  0  0  0
    6.9652   -0.4632   -3.5332 H   0  0  0  0  0  0  0  0  0  0  0  0
    7.1019   -1.7279   -2.2743 H   0  0  0  0  0  0  0  0  0  0  0  0
    1.2476    0.3529   -2.6562 H   0  0  0  0  0  0  0  0  0  0  0  0
    2.6851    1.1951   -3.2725 H   0  0  0  0  0  0  0  0  0  0  0  0
    2.0377    1.9910   -0.9546 H   0  0  0  0  0  0  0  0  0  0  0  0
    3.6613    1.3046   -0.9951 H   0  0  0  0  0  0  0  0  0  0  0  0
  1  2  1  0
  1 14  1  0
  1 15  1  0
  1 16  1  0
  2  3  1  0
  2 13  1  0
  3  4  1  0
  3 17  1  0
  3 18  1  0
  4  5  1  0
  4 19  1  0
  4 20  1  0
  5  6  1  0
  5 12  1  0
  5 21  1  6
  6  7  1  0
  6 22  1  0
  7  8  1  0
  7 11  1  0
  7 23  1  1
  8  9  1  0
  8 24  1  0
  8 25  1  0
  9 10  1  0
  9 26  1  0
  9 27  1  0
 10 11  1  0
 11 28  1  0
 11 29  1  0
 12 13  1  0
 12 30  1  0
 12 31  1  0
 13 32  1  0
 13 33  1  0
M  END

