
     RDKit          3D

 64 67  0  0  0  0  0  0  0  0999 V2000
    3.6404    1.9538    3.9385 C   0  0  0  0  0  0  0  0  0  0  0  0
    3.5286    0.5862    3.2482 C   0  0  1  0  0  0  0  0  0  0  0  0
    2.1575    0.4172    2.6331 C   0  0  0  0  0  0  0  0  0  0  0  0
    1.6304    1.0441    1.5400 C   0  0  0  0  0  0  0  0  0  0  0  0
    0.2631    0.6805    1.2706 C   0  0  0  0  0  0  0  0  0  0  0  0
   -0.5962    1.1200    0.2423 C   0  0  0  0  0  0  0  0  0  0  0  0
   -1.8976    0.6356    0.1767 C   0  0  0  0  0  0  0  0  0  0  0  0
   -2.3704   -0.2915    1.1272 C   0  0  0  0  0  0  0  0  0  0  0  0
   -1.5444   -0.7431    2.1536 C   0  0  0  0  0  0  0  0  0  0  0  0
   -0.2324   -0.2549    2.2189 C   0  0  0  0  0  0  0  0  0  0  0  0
    0.9990   -0.6628    3.3953 S   0  0  0  0  0  0  0  0  0  0  0  0
    4.5558    0.4747    2.1880 N   0  0  0  0  0  0  0  0  0  0  0  0
    5.8417    0.7005    2.7757 O   0  0  0  0  0  0  0  0  0  0  0  0
    4.6213   -0.7770    1.4130 C   0  0  1  0  0  0  0  0  0  0  0  0
    5.3978   -0.4803    0.1227 C   0  0  0  0  0  0  0  0  0  0  0  0
    5.2572   -1.9698    2.1547 C   0  0  1  0  0  0  0  0  0  0  0  0
    6.3328   -1.7525    2.2779 H   0  0  0  0  0  0  0  0  0  0  0  0
    4.6670   -2.1466    3.4368 O   0  0  0  0  0  0  0  0  0  0  0  0
    4.8718   -3.4876    3.8280 C   0  0  2  0  0  0  0  0  0  0  0  0
    3.7389   -3.9073    4.7516 C   0  0  0  0  0  0  0  0  0  0  0  0
    6.2514   -3.6898    4.4634 C   0  0  0  0  0  0  0  0  0  0  0  0
    4.7825   -4.2315    2.6100 O   0  0  0  0  0  0  0  0  0  0  0  0
    5.1032   -3.3845    1.5008 C   0  0  1  0  0  0  0  0  0  0  0  0
    6.0562   -3.7000    1.0450 H   0  0  0  0  0  0  0  0  0  0  0  0
    3.9900   -3.5937    0.4612 C   0  0  2  0  0  0  0  0  0  0  0  0
    4.0945   -2.8545   -0.3468 H   0  0  0  0  0  0  0  0  0  0  0  0
    2.7114   -3.4158    1.0288 O   0  0  0  0  0  0  0  0  0  0  0  0
    4.0902   -4.9765   -0.1888 C   0  0  1  0  0  0  0  0  0  0  0  0
    4.0720   -5.7524    0.6016 H   0  0  0  0  0  0  0  0  0  0  0  0
    3.0220   -5.2635   -1.2442 C   0  0  0  0  0  0  0  0  0  0  0  0
    3.6752   -6.1735   -2.1096 O   0  0  0  0  0  0  0  0  0  0  0  0
    5.0730   -5.9011   -2.0855 C   0  0  2  0  0  0  0  0  0  0  0  0
    5.4965   -5.1299   -3.3336 C   0  0  0  0  0  0  0  0  0  0  0  0
    5.8152   -7.2233   -1.9230 C   0  0  0  0  0  0  0  0  0  0  0  0
    5.2926   -5.0641   -0.9438 O   0  0  0  0  0  0  0  0  0  0  0  0
    2.8391    2.0597    4.6850 H   0  0  0  0  0  0  0  0  0  0  0  0
    3.5376    2.7701    3.2058 H   0  0  0  0  0  0  0  0  0  0  0  0
    4.6079    2.0496    4.4503 H   0  0  0  0  0  0  0  0  0  0  0  0
    3.6748   -0.1971    4.0097 H   0  0  0  0  0  0  0  0  0  0  0  0
    2.2010    1.7470    0.9312 H   0  0  0  0  0  0  0  0  0  0  0  0
   -0.2339    1.8396   -0.4967 H   0  0  0  0  0  0  0  0  0  0  0  0
   -2.5637    0.9760   -0.6201 H   0  0  0  0  0  0  0  0  0  0  0  0
   -3.3964   -0.6617    1.0589 H   0  0  0  0  0  0  0  0  0  0  0  0
   -1.9115   -1.4625    2.8892 H   0  0  0  0  0  0  0  0  0  0  0  0
    6.1210    1.5424    2.3918 H   0  0  0  0  0  0  0  0  0  0  0  0
    3.5797   -1.0368    1.1809 H   0  0  0  0  0  0  0  0  0  0  0  0
    6.3917   -0.0771    0.3707 H   0  0  0  0  0  0  0  0  0  0  0  0
    4.8610    0.2715   -0.4738 H   0  0  0  0  0  0  0  0  0  0  0  0
    5.5489   -1.3734   -0.5010 H   0  0  0  0  0  0  0  0  0  0  0  0
    3.8028   -3.3646    5.7059 H   0  0  0  0  0  0  0  0  0  0  0  0
    3.7934   -4.9866    4.9544 H   0  0  0  0  0  0  0  0  0  0  0  0
    2.7720   -3.6705    4.2844 H   0  0  0  0  0  0  0  0  0  0  0  0
    6.3422   -3.0854    5.3782 H   0  0  0  0  0  0  0  0  0  0  0  0
    7.0533   -3.3936    3.7715 H   0  0  0  0  0  0  0  0  0  0  0  0
    6.3975   -4.7497    4.7186 H   0  0  0  0  0  0  0  0  0  0  0  0
    2.7413   -3.8559    1.8930 H   0  0  0  0  0  0  0  0  0  0  0  0
    2.7266   -4.3347   -1.7712 H   0  0  0  0  0  0  0  0  0  0  0  0
    2.1171   -5.7382   -0.8411 H   0  0  0  0  0  0  0  0  0  0  0  0
    5.3483   -5.7462   -4.2329 H   0  0  0  0  0  0  0  0  0  0  0  0
    6.5575   -4.8456   -3.2677 H   0  0  0  0  0  0  0  0  0  0  0  0
    4.8963   -4.2132   -3.4314 H   0  0  0  0  0  0  0  0  0  0  0  0
    5.5833   -7.8961   -2.7621 H   0  0  0  0  0  0  0  0  0  0  0  0
    5.5038   -7.7114   -0.9881 H   0  0  0  0  0  0  0  0  0  0  0  0
    6.9017   -7.0534   -1.8919 H   0  0  0  0  0  0  0  0  0  0  0  0
  1  2  1  0
  1 36  1  0
  1 37  1  0
  1 38  1  0
  2  3  1  0
  2 12  1  0
  2 39  1  1
  3  4  2  0
  3 11  1  0
  4  5  1  0
  4 40  1  0
  5  6  2  0
  5 10  1  0
  6  7  1  0
  6 41  1  0
  7  8  2  0
  7 42  1  0
  8  9  1  0
  8 43  1  0
  9 10  2  0
  9 44  1  0
 10 11  1  0
 12 13  1  0
 12 14  1  0
 13 45  1  0
 14 15  1  0
 14 16  1  0
 14 46  1  6
 15 47  1  0
 15 48  1  0
 15 49  1  0
 16 17  1  1
 16 18  1  0
 16 23  1  0
 18 19  1  0
 19 20  1  1
 19 21  1  0
 19 22  1  0
 20 50  1  0
 20 51  1  0
 20 52  1  0
 21 53  1  0
 21 54  1  0
 21 55  1  0
 22 23  1  0
 23 24  1  6
 23 25  1  0
 25 26  1  6
 25 27  1  0
 25 28  1  0
 27 56  1  0
 28 29  1  1
 28 30  1  0
 28 35  1  0
 30 31  1  0
 30 57  1  0
 30 58  1  0
 31 32  1  0
 32 33  1  6
 32 34  1  0
 32 35  1  0
 33 59  1  0
 33 60  1  0
 33 61  1  0
 34 62  1  0
 34 63  1  0
 34 64  1  0
M  END

