
     RDKit          3D

 42 44  0  0  0  0  0  0  0  0999 V2000
    0.7199   -0.9967    1.6027 C   0  0  0  0  0  0  0  0  0  0  0  0
    1.9075   -0.0795    1.3692 C   0  0  0  0  0  0  0  0  0  0  0  0
    3.0316   -0.8872    1.0795 O   0  0  0  0  0  0  0  0  0  0  0  0
    4.3278   -0.3149    1.1745 C   0  0  1  0  0  0  0  0  0  0  0  0
    4.6815    0.0234    2.6360 C   0  0  0  0  0  0  0  0  0  0  0  0
    3.9997   -0.6062    3.5882 N   0  0  0  0  0  0  0  0  0  0  0  0
    4.3402   -0.3791    4.8673 C   0  0  0  0  0  0  0  0  0  0  0  0
    3.6192   -1.0318    5.8074 N   0  0  0  0  0  0  0  0  0  0  0  0
    5.4057    0.5108    5.1723 C   0  0  0  0  0  0  0  0  0  0  0  0
    5.9212    0.8528    7.2191 I   0  0  0  0  0  0  0  0  0  0  0  0
    6.0710    1.1276    4.1073 C   0  0  0  0  0  0  0  0  0  0  0  0
    7.2003    2.0783    4.2774 C   0  0  1  0  0  0  0  0  0  0  0  0
    8.3079    2.1108    3.2377 C   0  0  0  0  0  0  0  0  0  0  0  0
    7.3400    3.2443    3.3119 C   0  0  0  0  0  0  0  0  0  0  0  0
    5.6896    0.8686    2.8401 N   0  0  0  0  0  0  0  0  0  0  0  0
    5.2879   -1.4395    0.7148 C   0  0  0  0  0  0  0  0  0  0  0  0
    5.0865   -1.8076   -0.7595 C   0  0  0  0  0  0  0  0  0  0  0  0
    5.2185   -0.5817   -1.6707 C   0  0  0  0  0  0  0  0  0  0  0  0
    4.2733    0.5426   -1.2286 C   0  0  0  0  0  0  0  0  0  0  0  0
    4.4857    0.9105    0.2450 C   0  0  0  0  0  0  0  0  0  0  0  0
   -0.1918   -0.4116    1.8037 H   0  0  0  0  0  0  0  0  0  0  0  0
    0.9159   -1.6568    2.4612 H   0  0  0  0  0  0  0  0  0  0  0  0
    0.5391   -1.6294    0.7194 H   0  0  0  0  0  0  0  0  0  0  0  0
    2.0861    0.5396    2.2670 H   0  0  0  0  0  0  0  0  0  0  0  0
    1.6942    0.6124    0.5299 H   0  0  0  0  0  0  0  0  0  0  0  0
    2.9031   -1.6711    5.4888 H   0  0  0  0  0  0  0  0  0  0  0  0
    3.8322   -0.9472    6.7913 H   0  0  0  0  0  0  0  0  0  0  0  0
    7.4977    2.2655    5.3093 H   0  0  0  0  0  0  0  0  0  0  0  0
    8.2031    1.4148    2.4020 H   0  0  0  0  0  0  0  0  0  0  0  0
    9.3276    2.2567    3.6048 H   0  0  0  0  0  0  0  0  0  0  0  0
    6.5832    3.3117    2.5266 H   0  0  0  0  0  0  0  0  0  0  0  0
    7.6688    4.1988    3.7322 H   0  0  0  0  0  0  0  0  0  0  0  0
    5.1162   -2.3135    1.3630 H   0  0  0  0  0  0  0  0  0  0  0  0
    6.3220   -1.0967    0.8855 H   0  0  0  0  0  0  0  0  0  0  0  0
    4.0837   -2.2491   -0.8792 H   0  0  0  0  0  0  0  0  0  0  0  0
    5.8152   -2.5840   -1.0484 H   0  0  0  0  0  0  0  0  0  0  0  0
    5.0191   -0.8600   -2.7194 H   0  0  0  0  0  0  0  0  0  0  0  0
    6.2608   -0.2123   -1.6390 H   0  0  0  0  0  0  0  0  0  0  0  0
    3.2294    0.2192   -1.3825 H   0  0  0  0  0  0  0  0  0  0  0  0
    4.4208    1.4374   -1.8568 H   0  0  0  0  0  0  0  0  0  0  0  0
    3.7915    1.7089    0.5544 H   0  0  0  0  0  0  0  0  0  0  0  0
    5.4969    1.3163    0.3928 H   0  0  0  0  0  0  0  0  0  0  0  0
  1  2  1  0
  1 21  1  0
  1 22  1  0
  1 23  1  0
  2  3  1  0
  2 24  1  0
  2 25  1  0
  4  3  1  1
  4  5  1  0
  4 16  1  0
  4 20  1  0
  5  6  2  0
  5 15  1  0
  6  7  1  0
  7  8  1  0
  7  9  2  0
  8 26  1  0
  8 27  1  0
  9 10  1  0
  9 11  1  0
 11 12  1  0
 11 15  2  0
 12 13  1  0
 12 14  1  0
 12 28  1  1
 13 14  1  0
 13 29  1  0
 13 30  1  0
 14 31  1  0
 14 32  1  0
 16 17  1  0
 16 33  1  0
 16 34  1  0
 17 18  1  0
 17 35  1  0
 17 36  1  0
 18 19  1  0
 18 37  1  0
 18 38  1  0
 19 20  1  0
 19 39  1  0
 19 40  1  0
 20 41  1  0
 20 42  1  0
M  END

