
     RDKit          3D

 71 77  0  0  0  0  0  0  0  0999 V2000
    0.8172   -1.3274    2.2364 C   0  0  0  0  0  0  0  0  0  0  0  0
    1.9959   -0.8756    1.4390 C   0  0  0  0  0  0  0  0  0  0  0  0
    2.2675    0.3746    0.9202 C   0  0  0  0  0  0  0  0  0  0  0  0
    1.5002    1.6258    1.1458 C   0  0  0  0  0  0  0  0  0  0  0  0
    0.4809    1.6670    1.8270 O   0  0  0  0  0  0  0  0  0  0  0  0
    2.0582    2.7107    0.5119 N   0  0  0  0  0  0  0  0  0  0  0  0
    1.6123    4.0363    0.4950 C   0  0  0  0  0  0  0  0  0  0  0  0
    0.4571    4.4859    1.1654 C   0  0  0  0  0  0  0  0  0  0  0  0
    0.0874    5.8287    1.0839 C   0  0  0  0  0  0  0  0  0  0  0  0
    0.8396    6.7466    0.3503 C   0  0  0  0  0  0  0  0  0  0  0  0
    0.5006    8.0822    0.3631 O   0  0  0  0  0  0  0  0  0  0  0  0
    0.2459    8.7773   -0.7823 C   0  0  0  0  0  0  0  0  0  0  0  0
    0.4296   10.1607   -0.7377 C   0  0  0  0  0  0  0  0  0  0  0  0
    0.1313   10.9370   -1.8674 C   0  0  0  0  0  0  0  0  0  0  0  0
   -0.3281   10.4456   -3.0131 N   0  0  0  0  0  0  0  0  0  0  0  0
   -0.5149    9.1174   -3.0663 C   0  0  0  0  0  0  0  0  0  0  0  0
   -1.0310    8.4107   -4.2129 C   0  0  0  0  0  0  0  0  0  0  0  0
   -1.1578    7.0683   -4.0195 C   0  0  0  0  0  0  0  0  0  0  0  0
   -1.6677    6.0333   -4.9816 C   0  0  0  0  0  0  0  0  0  0  0  0
   -2.9853    5.3628   -4.5636 C   0  0  2  0  0  0  0  0  0  0  0  0
   -3.4777    4.2940   -5.5542 C   0  0  0  0  0  0  0  0  0  0  0  0
   -4.8829    4.1949   -5.3806 O   0  0  0  0  0  0  0  0  0  0  0  0
   -5.3508    5.2819   -4.6006 C   0  0  2  0  0  0  0  0  0  0  0  0
   -6.2874    4.9578   -3.4678 C   0  0  0  0  0  0  0  0  0  0  0  0
   -6.7955    5.6385   -4.7300 C   0  0  0  0  0  0  0  0  0  0  0  0
   -4.2146    6.2816   -4.4868 C   0  0  0  0  0  0  0  0  0  0  0  0
   -0.6406    6.5780   -2.4031 S   0  0  0  0  0  0  0  0  0  0  0  0
   -0.2435    8.2324   -1.9816 C   0  0  0  0  0  0  0  0  0  0  0  0
    1.9961    6.2926   -0.2980 C   0  0  0  0  0  0  0  0  0  0  0  0
    2.7367    7.1664   -0.9913 F   0  0  0  0  0  0  0  0  0  0  0  0
    2.3797    4.9616   -0.2409 C   0  0  0  0  0  0  0  0  0  0  0  0
    3.4887    0.2670    0.1313 C   0  0  0  0  0  0  0  0  0  0  0  0
    4.1225    1.1254   -0.4776 O   0  0  0  0  0  0  0  0  0  0  0  0
    3.8732   -1.0829    0.2300 N   0  0  0  0  0  0  0  0  0  0  0  0
    5.2018   -1.5522    0.0440 C   0  0  0  0  0  0  0  0  0  0  0  0
    5.8603   -1.2636   -1.1601 C   0  0  0  0  0  0  0  0  0  0  0  0
    7.1757   -1.6931   -1.3447 C   0  0  0  0  0  0  0  0  0  0  0  0
    7.8338   -2.4221   -0.3492 C   0  0  0  0  0  0  0  0  0  0  0  0
    7.1728   -2.7067    0.8491 C   0  0  0  0  0  0  0  0  0  0  0  0
    5.8645   -2.2638    1.0564 C   0  0  0  0  0  0  0  0  0  0  0  0
    2.9885   -1.7554    1.0796 N   0  0  0  0  0  0  0  0  0  0  0  0
    2.7187   -3.1591    0.7838 C   0  0  0  0  0  0  0  0  0  0  0  0
    0.2607   -0.4430    2.5673 H   0  0  0  0  0  0  0  0  0  0  0  0
    1.1303   -1.9235    3.1078 H   0  0  0  0  0  0  0  0  0  0  0  0
    0.1421   -1.9505    1.6249 H   0  0  0  0  0  0  0  0  0  0  0  0
    2.9190    2.5030   -0.0084 H   0  0  0  0  0  0  0  0  0  0  0  0
   -0.1343    3.7768    1.7383 H   0  0  0  0  0  0  0  0  0  0  0  0
   -0.8045    6.1904    1.5996 H   0  0  0  0  0  0  0  0  0  0  0  0
    0.8083   10.6135    0.1799 H   0  0  0  0  0  0  0  0  0  0  0  0
    0.2831   12.0220   -1.8231 H   0  0  0  0  0  0  0  0  0  0  0  0
   -1.2891    8.9243   -5.1396 H   0  0  0  0  0  0  0  0  0  0  0  0
   -0.8996    5.2509   -5.1207 H   0  0  0  0  0  0  0  0  0  0  0  0
   -1.8002    6.5186   -5.9630 H   0  0  0  0  0  0  0  0  0  0  0  0
   -2.8475    4.8860   -3.5775 H   0  0  0  0  0  0  0  0  0  0  0  0
   -3.0168    3.3064   -5.3811 H   0  0  0  0  0  0  0  0  0  0  0  0
   -3.2457    4.5945   -6.5966 H   0  0  0  0  0  0  0  0  0  0  0  0
   -6.2253    5.5419   -2.5441 H   0  0  0  0  0  0  0  0  0  0  0  0
   -6.5405    3.9025   -3.3344 H   0  0  0  0  0  0  0  0  0  0  0  0
   -7.0820    6.6937   -4.6809 H   0  0  0  0  0  0  0  0  0  0  0  0
   -7.3854    5.0329   -5.4236 H   0  0  0  0  0  0  0  0  0  0  0  0
   -4.2574    6.8818   -3.5673 H   0  0  0  0  0  0  0  0  0  0  0  0
   -4.2225    6.9756   -5.3468 H   0  0  0  0  0  0  0  0  0  0  0  0
    3.2848    4.6560   -0.7702 H   0  0  0  0  0  0  0  0  0  0  0  0
    5.3434   -0.6937   -1.9314 H   0  0  0  0  0  0  0  0  0  0  0  0
    7.6876   -1.4604   -2.2816 H   0  0  0  0  0  0  0  0  0  0  0  0
    8.8600   -2.7632   -0.5048 H   0  0  0  0  0  0  0  0  0  0  0  0
    7.6826   -3.2642    1.6388 H   0  0  0  0  0  0  0  0  0  0  0  0
    5.3605   -2.4522    2.0062 H   0  0  0  0  0  0  0  0  0  0  0  0
    2.1746   -3.2738   -0.1705 H   0  0  0  0  0  0  0  0  0  0  0  0
    2.1193   -3.5810    1.5994 H   0  0  0  0  0  0  0  0  0  0  0  0
    3.6623   -3.7153    0.7264 H   0  0  0  0  0  0  0  0  0  0  0  0
  1  2  1  0
  1 43  1  0
  1 44  1  0
  1 45  1  0
  2  3  2  0
  2 41  1  0
  3  4  1  0
  3 32  1  0
  4  5  2  0
  4  6  1  0
  6  7  1  0
  6 46  1  0
  7  8  2  0
  7 31  1  0
  8  9  1  0
  8 47  1  0
  9 10  2  0
  9 48  1  0
 10 11  1  0
 10 29  1  0
 11 12  1  0
 12 13  2  0
 12 28  1  0
 13 14  1  0
 13 49  1  0
 14 15  2  0
 14 50  1  0
 15 16  1  0
 16 17  1  0
 16 28  2  0
 17 18  2  0
 17 51  1  0
 18 19  1  0
 18 27  1  0
 19 20  1  0
 19 52  1  0
 19 53  1  0
 20 21  1  0
 20 26  1  0
 20 54  1  1
 21 22  1  0
 21 55  1  0
 21 56  1  0
 23 22  1  6
 23 24  1  0
 23 25  1  0
 23 26  1  0
 24 25  1  0
 24 57  1  0
 24 58  1  0
 25 59  1  0
 25 60  1  0
 26 61  1  0
 26 62  1  0
 27 28  1  0
 29 30  1  0
 29 31  2  0
 31 63  1  0
 32 33  2  0
 32 34  1  0
 34 35  1  0
 34 41  1  0
 35 36  2  0
 35 40  1  0
 36 37  1  0
 36 64  1  0
 37 38  2  0
 37 65  1  0
 38 39  1  0
 38 66  1  0
 39 40  2  0
 39 67  1  0
 40 68  1  0
 41 42  1  0
 42 69  1  0
 42 70  1  0
 42 71  1  0
M  END

