
     RDKit          3D

 34 36  0  0  0  0  0  0  0  0999 V2000
    1.0495    0.1118    0.0017 C   0  0  0  0  0  0  0  0  0  0  0  0
   -0.1679    0.1299    0.0674 C   0  0  0  0  0  0  0  0  0  0  0  0
   -1.5922    0.1533    0.1619 C   0  0  0  0  0  0  0  0  0  0  0  0
   -2.2273   -0.9957    0.4471 N   0  0  0  0  0  0  0  0  0  0  0  0
   -3.5505   -0.9582    0.5568 C   0  0  0  0  0  0  0  0  0  0  0  0
   -4.2713    0.2328    0.3900 C   0  0  0  0  0  0  0  0  0  0  0  0
   -3.6685    1.3795    0.0970 N   0  0  0  0  0  0  0  0  0  0  0  0
   -2.3312    1.3665   -0.0306 C   0  0  0  0  0  0  0  0  0  0  0  0
   -1.6751    2.5880   -0.3704 C   0  0  0  0  0  0  0  0  0  0  0  0
   -1.1166    3.6276   -0.6771 C   0  0  0  0  0  0  0  0  0  0  0  0
   -0.4659    4.8453   -1.0391 C   0  0  0  0  0  0  0  0  0  0  0  0
   -1.1425    6.0798   -0.9295 C   0  0  0  0  0  0  0  0  0  0  0  0
   -0.5026    7.2668   -1.2834 C   0  0  0  0  0  0  0  0  0  0  0  0
    0.8154    7.2458   -1.7531 C   0  0  0  0  0  0  0  0  0  0  0  0
    1.4942    6.0276   -1.8686 C   0  0  0  0  0  0  0  0  0  0  0  0
    0.8636    4.8353   -1.5155 C   0  0  0  0  0  0  0  0  0  0  0  0
    2.4748    0.0882   -0.0715 C   0  0  0  0  0  0  0  0  0  0  0  0
    3.2171    1.2885   -0.0178 C   0  0  0  0  0  0  0  0  0  0  0  0
    4.6092    1.2595   -0.0890 C   0  0  0  0  0  0  0  0  0  0  0  0
    5.2839    0.0401   -0.2156 C   0  0  0  0  0  0  0  0  0  0  0  0
    4.5581   -1.1551   -0.2684 C   0  0  0  0  0  0  0  0  0  0  0  0
    3.1660   -1.1368   -0.1960 C   0  0  0  0  0  0  0  0  0  0  0  0
   -4.0644   -1.8986    0.7869 H   0  0  0  0  0  0  0  0  0  0  0  0
   -5.3622    0.2489    0.4953 H   0  0  0  0  0  0  0  0  0  0  0  0
   -2.1711    6.0917   -0.5636 H   0  0  0  0  0  0  0  0  0  0  0  0
   -1.0361    8.2164   -1.1932 H   0  0  0  0  0  0  0  0  0  0  0  0
    1.3130    8.1785   -2.0304 H   0  0  0  0  0  0  0  0  0  0  0  0
    2.5224    6.0071   -2.2385 H   0  0  0  0  0  0  0  0  0  0  0  0
    1.3877    3.8821   -1.6103 H   0  0  0  0  0  0  0  0  0  0  0  0
    2.6873    2.2375    0.0874 H   0  0  0  0  0  0  0  0  0  0  0  0
    5.1730    2.1947   -0.0438 H   0  0  0  0  0  0  0  0  0  0  0  0
    6.3752    0.0212   -0.2716 H   0  0  0  0  0  0  0  0  0  0  0  0
    5.0820   -2.1093   -0.3658 H   0  0  0  0  0  0  0  0  0  0  0  0
    2.5960   -2.0672   -0.2356 H   0  0  0  0  0  0  0  0  0  0  0  0
  1  2  3  0
  1 17  1  0
  2  3  1  0
  3  4  2  0
  3  8  1  0
  4  5  1  0
  5  6  2  0
  5 23  1  0
  6  7  1  0
  6 24  1  0
  7  8  2  0
  8  9  1  0
  9 10  3  0
 10 11  1  0
 11 12  2  0
 11 16  1  0
 12 13  1  0
 12 25  1  0
 13 14  2  0
 13 26  1  0
 14 15  1  0
 14 27  1  0
 15 16  2  0
 15 28  1  0
 16 29  1  0
 17 18  2  0
 17 22  1  0
 18 19  1  0
 18 30  1  0
 19 20  2  0
 19 31  1  0
 20 21  1  0
 20 32  1  0
 21 22  2  0
 21 33  1  0
 22 34  1  0
M  END

