
     RDKit          3D

 45 46  0  0  0  0  0  0  0  0999 V2000
    2.5138    1.2239    1.4555 C   0  0  0  0  0  0  0  0  0  0  0  0
    2.4598    0.1302    0.4016 C   0  0  0  0  0  0  0  0  0  0  0  0
    3.0217   -1.1014    0.8771 O   0  0  0  0  0  0  0  0  0  0  0  0
    4.3693   -1.2357    0.7741 C   0  0  0  0  0  0  0  0  0  0  0  0
    5.0908   -0.3814    0.2959 O   0  0  0  0  0  0  0  0  0  0  0  0
    4.8008   -2.4389    1.2612 N   0  0  0  0  0  0  0  0  0  0  0  0
    3.9403   -3.4517    1.8665 C   0  0  0  0  0  0  0  0  0  0  0  0
    4.1785   -4.8231    1.2253 C   0  0  0  0  0  0  0  0  0  0  0  0
    5.6718   -5.2333    1.2563 C   0  0  2  0  0  0  0  0  0  0  0  0
    6.2077   -5.5670    2.5769 N   0  0  0  0  0  0  0  0  0  0  0  0
    5.6014   -6.6720    3.3238 C   0  0  1  0  0  0  0  0  0  0  0  0
    5.7155   -8.0010    2.5574 C   0  0  0  0  0  0  0  0  0  0  0  0
    6.2667   -6.7909    4.6899 C   0  0  0  0  0  0  0  0  0  0  0  0
    7.5968   -6.4102    4.9079 C   0  0  0  0  0  0  0  0  0  0  0  0
    8.2056   -6.5453    6.1606 C   0  0  0  0  0  0  0  0  0  0  0  0
    7.4770   -7.0756    7.2264 C   0  0  0  0  0  0  0  0  0  0  0  0
    6.1508   -7.4711    7.0335 C   0  0  0  0  0  0  0  0  0  0  0  0
    5.5498   -7.3370    5.7759 C   0  0  0  0  0  0  0  0  0  0  0  0
    4.2622   -7.7293    5.5503 O   0  0  0  0  0  0  0  0  0  0  0  0
    6.5098   -4.1032    0.6299 C   0  0  0  0  0  0  0  0  0  0  0  0
    6.2296   -2.7356    1.2634 C   0  0  0  0  0  0  0  0  0  0  0  0
    2.0057    2.1293    1.0856 H   0  0  0  0  0  0  0  0  0  0  0  0
    3.5571    1.4862    1.6850 H   0  0  0  0  0  0  0  0  0  0  0  0
    2.0138    0.9035    2.3832 H   0  0  0  0  0  0  0  0  0  0  0  0
    2.9930    0.4404   -0.5091 H   0  0  0  0  0  0  0  0  0  0  0  0
    1.4204   -0.1198    0.1409 H   0  0  0  0  0  0  0  0  0  0  0  0
    2.8962   -3.1418    1.7566 H   0  0  0  0  0  0  0  0  0  0  0  0
    4.1506   -3.5043    2.9539 H   0  0  0  0  0  0  0  0  0  0  0  0
    3.8423   -4.7864    0.1747 H   0  0  0  0  0  0  0  0  0  0  0  0
    3.5546   -5.5773    1.7320 H   0  0  0  0  0  0  0  0  0  0  0  0
    5.7923   -6.1265    0.6230 H   0  0  0  0  0  0  0  0  0  0  0  0
    6.2342   -4.7412    3.1724 H   0  0  0  0  0  0  0  0  0  0  0  0
    4.5217   -6.5063    3.5136 H   0  0  0  0  0  0  0  0  0  0  0  0
    6.7687   -8.2144    2.3162 H   0  0  0  0  0  0  0  0  0  0  0  0
    5.1388   -7.9844    1.6193 H   0  0  0  0  0  0  0  0  0  0  0  0
    5.3193   -8.8217    3.1725 H   0  0  0  0  0  0  0  0  0  0  0  0
    8.1532   -5.9959    4.0650 H   0  0  0  0  0  0  0  0  0  0  0  0
    9.2445   -6.2374    6.3003 H   0  0  0  0  0  0  0  0  0  0  0  0
    7.9351   -7.1857    8.2126 H   0  0  0  0  0  0  0  0  0  0  0  0
    5.5723   -7.8908    7.8634 H   0  0  0  0  0  0  0  0  0  0  0  0
    3.8816   -8.0658    6.3720 H   0  0  0  0  0  0  0  0  0  0  0  0
    6.2777   -4.0429   -0.4465 H   0  0  0  0  0  0  0  0  0  0  0  0
    7.5792   -4.3466    0.7293 H   0  0  0  0  0  0  0  0  0  0  0  0
    6.7389   -1.9326    0.7172 H   0  0  0  0  0  0  0  0  0  0  0  0
    6.6087   -2.7071    2.3050 H   0  0  0  0  0  0  0  0  0  0  0  0
  1  2  1  0
  1 22  1  0
  1 23  1  0
  1 24  1  0
  2  3  1  0
  2 25  1  0
  2 26  1  0
  3  4  1  0
  4  5  2  0
  4  6  1  0
  6  7  1  0
  6 21  1  0
  7  8  1  0
  7 27  1  0
  7 28  1  0
  8  9  1  0
  8 29  1  0
  8 30  1  0
  9 10  1  0
  9 20  1  0
  9 31  1  6
 10 11  1  0
 10 32  1  0
 11 12  1  0
 11 13  1  0
 11 33  1  1
 12 34  1  0
 12 35  1  0
 12 36  1  0
 13 14  2  0
 13 18  1  0
 14 15  1  0
 14 37  1  0
 15 16  2  0
 15 38  1  0
 16 17  1  0
 16 39  1  0
 17 18  2  0
 17 40  1  0
 18 19  1  0
 19 41  1  0
 20 21  1  0
 20 42  1  0
 20 43  1  0
 21 44  1  0
 21 45  1  0
M  END

