
     RDKit          3D

 28 29  0  0  0  0  0  0  0  0999 V2000
    0.8712    0.3942   -0.0233 C   0  0  0  0  0  0  0  0  0  0  0  0
    2.5630   -0.1868   -0.2279 S   0  0  1  0  0  0  0  0  0  0  0  0
    3.0584   -0.6520    1.0760 O   0  0  0  0  0  0  0  0  0  0  0  0
    2.5981   -1.0796   -1.3815 O   0  0  0  0  0  0  0  0  0  0  0  0
    3.3257    1.2955   -0.6458 N   0  0  0  0  0  0  0  0  0  0  0  0
    4.8152    1.3232   -0.5563 C   0  0  2  0  0  0  0  0  0  0  0  0
    5.1260    1.0156    0.4577 H   0  0  0  0  0  0  0  0  0  0  0  0
    5.2505    2.7799   -0.7711 C   0  0  0  0  0  0  0  0  0  0  0  0
    4.8658    3.3087   -2.1476 C   0  0  0  0  0  0  0  0  0  0  0  0
    5.6939    2.4070   -3.5070 S   0  0  0  0  0  0  0  0  0  0  0  0
    5.8623    0.7656   -2.8390 C   0  0  0  0  0  0  0  0  0  0  0  0
    6.4847   -0.1686   -3.6882 C   0  0  0  0  0  0  0  0  0  0  0  0
    6.7320   -1.4722   -3.2689 C   0  0  0  0  0  0  0  0  0  0  0  0
    6.3594   -1.8429   -1.9785 C   0  0  0  0  0  0  0  0  0  0  0  0
    6.6030   -3.0934   -1.5572 F   0  0  0  0  0  0  0  0  0  0  0  0
    5.7452   -0.9418   -1.1207 C   0  0  0  0  0  0  0  0  0  0  0  0
    5.4772    0.3712   -1.5407 C   0  0  0  0  0  0  0  0  0  0  0  0
    0.2856   -0.5133    0.1762 H   0  0  0  0  0  0  0  0  0  0  0  0
    0.5445    0.8648   -0.9589 H   0  0  0  0  0  0  0  0  0  0  0  0
    0.8074    1.0796    0.8323 H   0  0  0  0  0  0  0  0  0  0  0  0
    2.9597    1.9871    0.0151 H   0  0  0  0  0  0  0  0  0  0  0  0
    6.3405    2.8450   -0.6240 H   0  0  0  0  0  0  0  0  0  0  0  0
    4.7870    3.4169    0.0040 H   0  0  0  0  0  0  0  0  0  0  0  0
    5.1764    4.3571   -2.2679 H   0  0  0  0  0  0  0  0  0  0  0  0
    3.7768    3.2518   -2.2908 H   0  0  0  0  0  0  0  0  0  0  0  0
    6.7848    0.1384   -4.6935 H   0  0  0  0  0  0  0  0  0  0  0  0
    7.2129   -2.2008   -3.9245 H   0  0  0  0  0  0  0  0  0  0  0  0
    5.4503   -1.2747   -0.1236 H   0  0  0  0  0  0  0  0  0  0  0  0
  1  2  1  0
  1 18  1  0
  1 19  1  0
  1 20  1  0
  2  3  2  0
  2  4  2  0
  2  5  1  6
  5  6  1  0
  5 21  1  0
  6  7  1  1
  6  8  1  0
  6 17  1  0
  8  9  1  0
  8 22  1  0
  8 23  1  0
  9 10  1  0
  9 24  1  0
  9 25  1  0
 10 11  1  0
 11 12  1  0
 11 17  2  0
 12 13  2  0
 12 26  1  0
 13 14  1  0
 13 27  1  0
 14 15  1  0
 14 16  2  0
 16 17  1  0
 16 28  1  0
M  END

