
     RDKit          3D

 36 37  0  0  0  0  0  0  0  0999 V2000
    2.4165    1.1447    1.3964 N   0  0  0  0  0  0  0  0  0  0  0  0
    3.6926    0.6052    1.3067 C   0  0  0  0  0  0  0  0  0  0  0  0
    4.7632    1.1532    2.0416 C   0  0  0  0  0  0  0  0  0  0  0  0
    6.0294    0.5741    1.9723 C   0  0  0  0  0  0  0  0  0  0  0  0
    6.2624   -0.5545    1.1815 C   0  0  0  0  0  0  0  0  0  0  0  0
    5.2096   -1.1188    0.4428 C   0  0  0  0  0  0  0  0  0  0  0  0
    5.4271   -2.3651   -0.3876 C   0  0  0  0  0  0  0  0  0  0  0  0
    5.2362   -3.6570    0.4203 C   0  0  0  0  0  0  0  0  0  0  0  0
    5.3696   -4.9245   -0.4164 C   0  0  0  0  0  0  0  0  0  0  0  0
    5.3105   -4.8817   -1.6276 O   0  0  0  0  0  0  0  0  0  0  0  0
    5.6275   -6.2430    0.3308 C   0  0  1  0  0  0  0  0  0  0  0  0
    4.6329   -6.5168    1.4833 C   0  0  0  0  0  0  0  0  0  0  0  0
    3.2842   -6.9953    0.9406 C   0  0  0  0  0  0  0  0  0  0  0  0
    3.4268   -8.1333    0.1197 O   0  0  0  0  0  0  0  0  0  0  0  0
    4.2433   -7.8868   -1.0134 C   0  0  0  0  0  0  0  0  0  0  0  0
    5.6570   -7.4539   -0.6172 C   0  0  0  0  0  0  0  0  0  0  0  0
    3.9400   -0.5320    0.5124 C   0  0  0  0  0  0  0  0  0  0  0  0
    2.3538    2.1080    1.7045 H   0  0  0  0  0  0  0  0  0  0  0  0
    1.7796    0.9287    0.6383 H   0  0  0  0  0  0  0  0  0  0  0  0
    4.5950    2.0370    2.6638 H   0  0  0  0  0  0  0  0  0  0  0  0
    6.8510    1.0173    2.5419 H   0  0  0  0  0  0  0  0  0  0  0  0
    7.2628   -0.9926    1.1293 H   0  0  0  0  0  0  0  0  0  0  0  0
    6.4428   -2.3600   -0.8155 H   0  0  0  0  0  0  0  0  0  0  0  0
    4.7371   -2.3858   -1.2442 H   0  0  0  0  0  0  0  0  0  0  0  0
    4.2279   -3.6652    0.8743 H   0  0  0  0  0  0  0  0  0  0  0  0
    5.9333   -3.7000    1.2750 H   0  0  0  0  0  0  0  0  0  0  0  0
    6.6314   -6.1037    0.7767 H   0  0  0  0  0  0  0  0  0  0  0  0
    4.4946   -5.6337    2.1271 H   0  0  0  0  0  0  0  0  0  0  0  0
    5.0507   -7.3127    2.1222 H   0  0  0  0  0  0  0  0  0  0  0  0
    2.7861   -6.1750    0.3775 H   0  0  0  0  0  0  0  0  0  0  0  0
    2.6126   -7.2806    1.7654 H   0  0  0  0  0  0  0  0  0  0  0  0
    3.7812   -7.1111   -1.6553 H   0  0  0  0  0  0  0  0  0  0  0  0
    4.2693   -8.8257   -1.5874 H   0  0  0  0  0  0  0  0  0  0  0  0
    6.2354   -7.2152   -1.5221 H   0  0  0  0  0  0  0  0  0  0  0  0
    6.1564   -8.2934   -0.1053 H   0  0  0  0  0  0  0  0  0  0  0  0
    3.1174   -0.9627   -0.0682 H   0  0  0  0  0  0  0  0  0  0  0  0
  1  2  1  0
  1 18  1  0
  1 19  1  0
  2  3  2  0
  2 17  1  0
  3  4  1  0
  3 20  1  0
  4  5  2  0
  4 21  1  0
  5  6  1  0
  5 22  1  0
  6  7  1  0
  6 17  2  0
  7  8  1  0
  7 23  1  0
  7 24  1  0
  8  9  1  0
  8 25  1  0
  8 26  1  0
  9 10  2  0
  9 11  1  0
 11 12  1  0
 11 16  1  0
 11 27  1  1
 12 13  1  0
 12 28  1  0
 12 29  1  0
 13 14  1  0
 13 30  1  0
 13 31  1  0
 14 15  1  0
 15 16  1  0
 15 32  1  0
 15 33  1  0
 16 34  1  0
 16 35  1  0
 17 36  1  0
M  END

