
     RDKit          3D

 50 53  0  0  0  0  0  0  0  0999 V2000
    1.9892    0.9286   -0.4024 O   0  0  0  0  0  0  0  0  0  0  0  0
    2.4219    0.0404    0.3108 C   0  0  0  0  0  0  0  0  0  0  0  0
    2.0392   -0.0320    1.8013 C   0  0  0  0  0  0  0  0  0  0  0  0
    0.8694    0.7545    2.1236 N   0  0  0  0  0  0  0  0  0  0  0  0
    0.7073    2.0936    1.9883 C   0  0  0  0  0  0  0  0  0  0  0  0
   -0.5782    2.3769    2.4635 C   0  0  0  0  0  0  0  0  0  0  0  0
   -1.3765    3.5440    2.6078 C   0  0  0  0  0  0  0  0  0  0  0  0
   -2.6412    3.4053    3.1375 C   0  0  0  0  0  0  0  0  0  0  0  0
   -3.1495    2.1276    3.5332 C   0  0  0  0  0  0  0  0  0  0  0  0
   -2.4027    0.9773    3.4044 C   0  0  0  0  0  0  0  0  0  0  0  0
   -1.0932    1.0911    2.8611 C   0  0  0  0  0  0  0  0  0  0  0  0
   -0.1935    0.1158    2.6458 N   0  0  0  0  0  0  0  0  0  0  0  0
    3.2998   -0.9113   -0.1427 N   0  0  0  0  0  0  0  0  0  0  0  0
    3.9047   -1.9909    0.6342 C   0  0  0  0  0  0  0  0  0  0  0  0
    3.6692   -3.3415   -0.0586 C   0  0  0  0  0  0  0  0  0  0  0  0
    4.0825   -3.3223   -1.4658 N   0  0  0  0  0  0  0  0  0  0  0  0
    5.6897   -3.7347   -1.7747 S   0  0  1  0  0  0  0  0  0  0  0  0
    5.9089   -3.4330   -3.1920 O   0  0  0  0  0  0  0  0  0  0  0  0
    6.5981   -3.1784   -0.7647 O   0  0  0  0  0  0  0  0  0  0  0  0
    5.6191   -5.3841   -1.4739 N   0  0  0  0  0  0  0  0  0  0  0  0
    4.9352   -6.2115   -2.4822 C   0  0  0  0  0  0  0  0  0  0  0  0
    5.9284   -6.7691   -3.5028 C   0  0  0  0  0  0  0  0  0  0  0  0
    6.9879   -7.4510   -2.8569 O   0  0  0  0  0  0  0  0  0  0  0  0
    7.7114   -6.6050   -1.9842 C   0  0  0  0  0  0  0  0  0  0  0  0
    6.8047   -6.0378   -0.8927 C   0  0  0  0  0  0  0  0  0  0  0  0
    3.5111   -2.1989   -2.2265 C   0  0  0  0  0  0  0  0  0  0  0  0
    3.7507   -0.8555   -1.5347 C   0  0  0  0  0  0  0  0  0  0  0  0
    2.9030    0.3083    2.3996 H   0  0  0  0  0  0  0  0  0  0  0  0
    1.7919   -1.0514    2.1193 H   0  0  0  0  0  0  0  0  0  0  0  0
    1.4779    2.7178    1.5460 H   0  0  0  0  0  0  0  0  0  0  0  0
   -0.9970    4.5233    2.3058 H   0  0  0  0  0  0  0  0  0  0  0  0
   -3.2773    4.2857    3.2603 H   0  0  0  0  0  0  0  0  0  0  0  0
   -4.1598    2.0711    3.9474 H   0  0  0  0  0  0  0  0  0  0  0  0
   -2.7888    0.0009    3.7043 H   0  0  0  0  0  0  0  0  0  0  0  0
    3.4905   -2.0250    1.6484 H   0  0  0  0  0  0  0  0  0  0  0  0
    4.9922   -1.8214    0.7194 H   0  0  0  0  0  0  0  0  0  0  0  0
    2.5936   -3.5888   -0.0357 H   0  0  0  0  0  0  0  0  0  0  0  0
    4.2068   -4.1448    0.4637 H   0  0  0  0  0  0  0  0  0  0  0  0
    4.1494   -5.6173   -2.9689 H   0  0  0  0  0  0  0  0  0  0  0  0
    4.4456   -7.0417   -1.9443 H   0  0  0  0  0  0  0  0  0  0  0  0
    6.3187   -5.9381   -4.1216 H   0  0  0  0  0  0  0  0  0  0  0  0
    5.4325   -7.4969   -4.1634 H   0  0  0  0  0  0  0  0  0  0  0  0
    8.1787   -5.7720   -2.5488 H   0  0  0  0  0  0  0  0  0  0  0  0
    8.5152   -7.2117   -1.5392 H   0  0  0  0  0  0  0  0  0  0  0  0
    7.3368   -5.3172   -0.2588 H   0  0  0  0  0  0  0  0  0  0  0  0
    6.4370   -6.8596   -0.2539 H   0  0  0  0  0  0  0  0  0  0  0  0
    2.4273   -2.3875   -2.3119 H   0  0  0  0  0  0  0  0  0  0  0  0
    3.9405   -2.2017   -3.2358 H   0  0  0  0  0  0  0  0  0  0  0  0
    3.1995   -0.0491   -2.0339 H   0  0  0  0  0  0  0  0  0  0  0  0
    4.8287   -0.6116   -1.5621 H   0  0  0  0  0  0  0  0  0  0  0  0
  1  2  2  0
  2  3  1  0
  2 13  1  0
  3  4  1  0
  3 28  1  0
  3 29  1  0
  4  5  1  0
  4 12  1  0
  5  6  2  0
  5 30  1  0
  6  7  1  0
  6 11  1  0
  7  8  2  0
  7 31  1  0
  8  9  1  0
  8 32  1  0
  9 10  2  0
  9 33  1  0
 10 11  1  0
 10 34  1  0
 11 12  2  0
 13 14  1  0
 13 27  1  0
 14 15  1  0
 14 35  1  0
 14 36  1  0
 15 16  1  0
 15 37  1  0
 15 38  1  0
 17 16  1  1
 16 26  1  0
 17 18  2  0
 17 19  2  0
 17 20  1  0
 20 21  1  0
 20 25  1  0
 21 22  1  0
 21 39  1  0
 21 40  1  0
 22 23  1  0
 22 41  1  0
 22 42  1  0
 23 24  1  0
 24 25  1  0
 24 43  1  0
 24 44  1  0
 25 45  1  0
 25 46  1  0
 26 27  1  0
 26 47  1  0
 26 48  1  0
 27 49  1  0
 27 50  1  0
M  END

