
     RDKit          3D

 40 41  0  0  0  0  0  0  0  0999 V2000
    4.9204   -2.9252    6.2550 C   0  0  0  0  0  0  0  0  0  0  0  0
    3.8383   -2.5860    5.5513 C   0  0  0  0  0  0  0  0  0  0  0  0
    3.8130   -2.1892    4.1078 C   0  0  0  0  0  0  0  0  0  0  0  0
    5.1584   -2.0756    3.6098 O   0  0  0  0  0  0  0  0  0  0  0  0
    5.2966   -1.9928    1.9737 S   0  0  1  0  0  0  0  0  0  0  0  0
    5.2287   -3.3626    1.4708 O   0  0  0  0  0  0  0  0  0  0  0  0
    4.3893   -0.9934    1.4335 O   0  0  0  0  0  0  0  0  0  0  0  0
    7.0330   -1.4621    1.8482 C   0  0  0  0  0  0  0  0  0  0  0  0
    7.9033   -2.5548    1.6089 C   0  0  0  0  0  0  0  0  0  0  0  0
    9.2303   -2.3386    1.3312 C   0  0  0  0  0  0  0  0  0  0  0  0
    9.7430   -1.0245    1.2087 C   0  0  0  0  0  0  0  0  0  0  0  0
   11.0989   -0.8135    0.8307 C   0  0  0  0  0  0  0  0  0  0  0  0
   11.5925    0.4571    0.6490 C   0  0  0  0  0  0  0  0  0  0  0  0
   10.7380    1.5702    0.8363 C   0  0  0  0  0  0  0  0  0  0  0  0
    9.4262    1.4060    1.2251 C   0  0  0  0  0  0  0  0  0  0  0  0
    8.8763    0.1034    1.4414 C   0  0  0  0  0  0  0  0  0  0  0  0
    7.5125   -0.1519    1.8354 C   0  0  0  0  0  0  0  0  0  0  0  0
    6.4919    1.3062    2.2717 S   0  0  1  0  0  0  0  0  0  0  0  0
    7.3439    2.2579    2.9864 O   0  0  0  0  0  0  0  0  0  0  0  0
    5.7348    1.7221    1.1078 O   0  0  0  0  0  0  0  0  0  0  0  0
    5.4555    0.6840    3.3568 O   0  0  0  0  0  0  0  0  0  0  0  0
    5.5693    0.9863    4.7610 C   0  0  0  0  0  0  0  0  0  0  0  0
    4.4092    1.8133    5.2305 C   0  0  0  0  0  0  0  0  0  0  0  0
    3.4516    2.3209    4.4521 C   0  0  0  0  0  0  0  0  0  0  0  0
    4.8405   -3.2069    7.3079 H   0  0  0  0  0  0  0  0  0  0  0  0
    5.9133   -2.9370    5.7991 H   0  0  0  0  0  0  0  0  0  0  0  0
    2.8488   -2.5883    6.0247 H   0  0  0  0  0  0  0  0  0  0  0  0
    3.2950   -1.2235    3.9743 H   0  0  0  0  0  0  0  0  0  0  0  0
    3.2619   -2.9460    3.5192 H   0  0  0  0  0  0  0  0  0  0  0  0
    7.4883   -3.5617    1.6326 H   0  0  0  0  0  0  0  0  0  0  0  0
    9.8982   -3.1872    1.1643 H   0  0  0  0  0  0  0  0  0  0  0  0
   11.7349   -1.6881    0.6730 H   0  0  0  0  0  0  0  0  0  0  0  0
   12.6325    0.6098    0.3511 H   0  0  0  0  0  0  0  0  0  0  0  0
   11.1206    2.5800    0.6701 H   0  0  0  0  0  0  0  0  0  0  0  0
    8.8087    2.2882    1.3656 H   0  0  0  0  0  0  0  0  0  0  0  0
    6.5214    1.5066    4.9526 H   0  0  0  0  0  0  0  0  0  0  0  0
    5.5980    0.0139    5.2795 H   0  0  0  0  0  0  0  0  0  0  0  0
    4.3972    1.9887    6.3136 H   0  0  0  0  0  0  0  0  0  0  0  0
    3.4539    2.1553    3.3713 H   0  0  0  0  0  0  0  0  0  0  0  0
    2.6425    2.9217    4.8746 H   0  0  0  0  0  0  0  0  0  0  0  0
  1  2  2  0
  1 25  1  0
  1 26  1  0
  2  3  1  0
  2 27  1  0
  3  4  1  0
  3 28  1  0
  3 29  1  0
  5  4  1  1
  5  6  2  0
  5  7  2  0
  5  8  1  0
  8  9  2  0
  8 17  1  0
  9 10  1  0
  9 30  1  0
 10 11  2  0
 10 31  1  0
 11 12  1  0
 11 16  1  0
 12 13  2  0
 12 32  1  0
 13 14  1  0
 13 33  1  0
 14 15  2  0
 14 34  1  0
 15 16  1  0
 15 35  1  0
 16 17  2  0
 17 18  1  0
 18 19  2  0
 18 20  2  0
 18 21  1  1
 21 22  1  0
 22 23  1  0
 22 36  1  0
 22 37  1  0
 23 24  2  0
 23 38  1  0
 24 39  1  0
 24 40  1  0
M  END

