
     RDKit          3D

 58 61  0  0  0  0  0  0  0  0999 V2000
    2.7441   -7.8025    8.1071 C   0  0  0  0  0  0  0  0  0  0  0  0
    3.8063   -7.0513    7.3481 C   0  0  0  0  0  0  0  0  0  0  0  0
    4.5434   -6.0152    7.9230 C   0  0  0  0  0  0  0  0  0  0  0  0
    5.5519   -5.3466    7.2144 C   0  0  0  0  0  0  0  0  0  0  0  0
    5.8242   -5.7197    5.9063 C   0  0  0  0  0  0  0  0  0  0  0  0
    5.0817   -6.7354    5.2690 C   0  0  0  0  0  0  0  0  0  0  0  0
    5.4854   -7.0854    3.8681 C   0  0  0  0  0  0  0  0  0  0  0  0
    6.6514   -7.0013    3.5205 O   0  0  0  0  0  0  0  0  0  0  0  0
    4.4517   -7.5094    2.8560 C   0  0  0  0  0  0  0  0  0  0  0  0
    4.8631   -8.3187    1.7795 C   0  0  0  0  0  0  0  0  0  0  0  0
    3.9697   -8.6697    0.7766 C   0  0  0  0  0  0  0  0  0  0  0  0
    2.6518   -8.1895    0.8169 C   0  0  0  0  0  0  0  0  0  0  0  0
    1.8692   -8.6320   -0.2348 O   0  0  0  0  0  0  0  0  0  0  0  0
    0.6415   -8.1671   -0.5354 C   0  0  0  0  0  0  0  0  0  0  0  0
    0.0273   -7.3095    0.0336 O   0  0  0  0  0  0  0  0  0  0  0  0
    0.2432   -8.8710   -1.6079 O   0  0  0  0  0  0  0  0  0  0  0  0
   -0.9805   -8.6475   -2.2289 C   0  0  0  0  0  0  0  0  0  0  0  0
   -1.5168   -7.3722   -2.4351 C   0  0  0  0  0  0  0  0  0  0  0  0
   -2.7143   -7.2585   -3.1381 C   0  0  0  0  0  0  0  0  0  0  0  0
   -3.3907   -8.3918   -3.6187 C   0  0  0  0  0  0  0  0  0  0  0  0
   -4.6412   -8.1777   -4.4215 C   0  0  0  0  0  0  0  0  0  0  0  0
   -4.8696   -7.0852   -4.9119 O   0  0  0  0  0  0  0  0  0  0  0  0
   -5.5847   -9.3196   -4.6988 C   0  0  0  0  0  0  0  0  0  0  0  0
   -6.0711   -9.4518   -6.0099 C   0  0  0  0  0  0  0  0  0  0  0  0
   -6.9753  -10.4565   -6.3426 C   0  0  0  0  0  0  0  0  0  0  0  0
   -7.4318  -11.3256   -5.3467 C   0  0  0  0  0  0  0  0  0  0  0  0
   -7.0037  -11.2051   -4.0203 C   0  0  0  0  0  0  0  0  0  0  0  0
   -7.5192  -12.1137   -2.9304 C   0  0  0  0  0  0  0  0  0  0  0  0
   -6.0752  -10.1887   -3.7033 C   0  0  0  0  0  0  0  0  0  0  0  0
   -5.6541   -9.9994   -2.4247 O   0  0  0  0  0  0  0  0  0  0  0  0
   -2.8253   -9.6587   -3.4050 C   0  0  0  0  0  0  0  0  0  0  0  0
   -1.6201   -9.7891   -2.7181 C   0  0  0  0  0  0  0  0  0  0  0  0
    2.2217   -7.3625    1.8607 C   0  0  0  0  0  0  0  0  0  0  0  0
    3.1295   -7.0345    2.8725 C   0  0  0  0  0  0  0  0  0  0  0  0
    4.0833   -7.4123    6.0084 C   0  0  0  0  0  0  0  0  0  0  0  0
    3.3596   -8.4561    5.5289 O   0  0  0  0  0  0  0  0  0  0  0  0
    2.6251   -7.4004    9.1233 H   0  0  0  0  0  0  0  0  0  0  0  0
    2.9918   -8.8742    8.1835 H   0  0  0  0  0  0  0  0  0  0  0  0
    1.7704   -7.7484    7.5932 H   0  0  0  0  0  0  0  0  0  0  0  0
    4.3280   -5.7304    8.9570 H   0  0  0  0  0  0  0  0  0  0  0  0
    6.1205   -4.5451    7.6910 H   0  0  0  0  0  0  0  0  0  0  0  0
    6.6167   -5.2349    5.3329 H   0  0  0  0  0  0  0  0  0  0  0  0
    5.9004   -8.6572    1.7464 H   0  0  0  0  0  0  0  0  0  0  0  0
    4.2684   -9.3091   -0.0561 H   0  0  0  0  0  0  0  0  0  0  0  0
   -1.0112   -6.4876   -2.0518 H   0  0  0  0  0  0  0  0  0  0  0  0
   -3.1487   -6.2763   -3.3331 H   0  0  0  0  0  0  0  0  0  0  0  0
   -5.7169   -8.7447   -6.7628 H   0  0  0  0  0  0  0  0  0  0  0  0
   -7.3319  -10.5612   -7.3695 H   0  0  0  0  0  0  0  0  0  0  0  0
   -8.1477  -12.1133   -5.5986 H   0  0  0  0  0  0  0  0  0  0  0  0
   -8.2124  -12.8636   -3.3362 H   0  0  0  0  0  0  0  0  0  0  0  0
   -8.0699  -11.5552   -2.1510 H   0  0  0  0  0  0  0  0  0  0  0  0
   -6.7039  -12.6662   -2.4282 H   0  0  0  0  0  0  0  0  0  0  0  0
   -6.0794  -10.6377   -1.8382 H   0  0  0  0  0  0  0  0  0  0  0  0
   -3.3204  -10.5510   -3.7913 H   0  0  0  0  0  0  0  0  0  0  0  0
   -1.1584  -10.7647   -2.5561 H   0  0  0  0  0  0  0  0  0  0  0  0
    1.2075   -6.9730    1.8767 H   0  0  0  0  0  0  0  0  0  0  0  0
    2.7981   -6.3764    3.6790 H   0  0  0  0  0  0  0  0  0  0  0  0
    3.5660   -8.6225    4.5978 H   0  0  0  0  0  0  0  0  0  0  0  0
  1  2  1  0
  1 37  1  0
  1 38  1  0
  1 39  1  0
  2  3  2  0
  2 35  1  0
  3  4  1  0
  3 40  1  0
  4  5  2  0
  4 41  1  0
  5  6  1  0
  5 42  1  0
  6  7  1  0
  6 35  2  0
  7  8  2  0
  7  9  1  0
  9 10  2  0
  9 34  1  0
 10 11  1  0
 10 43  1  0
 11 12  2  0
 11 44  1  0
 12 13  1  0
 12 33  1  0
 13 14  1  0
 14 15  2  0
 14 16  1  0
 16 17  1  0
 17 18  2  0
 17 32  1  0
 18 19  1  0
 18 45  1  0
 19 20  2  0
 19 46  1  0
 20 21  1  0
 20 31  1  0
 21 22  2  0
 21 23  1  0
 23 24  2  0
 23 29  1  0
 24 25  1  0
 24 47  1  0
 25 26  2  0
 25 48  1  0
 26 27  1  0
 26 49  1  0
 27 28  1  0
 27 29  2  0
 28 50  1  0
 28 51  1  0
 28 52  1  0
 29 30  1  0
 30 53  1  0
 31 32  2  0
 31 54  1  0
 32 55  1  0
 33 34  2  0
 33 56  1  0
 34 57  1  0
 35 36  1  0
 36 58  1  0
M  END

