
     RDKit          3D

 38 40  0  0  0  0  0  0  0  0999 V2000
    1.3306    0.1683    1.2558 C   0  0  0  0  0  0  0  0  0  0  0  0
    2.7456    0.0814    0.7481 C   0  0  0  0  0  0  0  0  0  0  0  0
    3.3850   -1.1498    0.5336 C   0  0  0  0  0  0  0  0  0  0  0  0
    4.6935   -1.1814    0.0629 C   0  0  0  0  0  0  0  0  0  0  0  0
    5.3520    0.0354   -0.1897 C   0  0  0  0  0  0  0  0  0  0  0  0
    6.7512    0.0552   -0.6938 C   0  0  0  0  0  0  0  0  0  0  0  0
    7.4093    1.2710   -0.9472 C   0  0  0  0  0  0  0  0  0  0  0  0
    8.7156    1.2391   -1.4181 C   0  0  0  0  0  0  0  0  0  0  0  0
    9.3631    0.0065   -1.6354 C   0  0  0  0  0  0  0  0  0  0  0  0
   10.7379   -0.0212   -2.1315 C   0  0  0  0  0  0  0  0  0  0  0  0
   11.4932   -1.1142   -2.3882 C   0  0  0  0  0  0  0  0  0  0  0  0
   12.8705   -1.1322   -2.8855 C   0  0  0  0  0  0  0  0  0  0  0  0
   13.6134    0.0351   -3.1727 C   0  0  0  0  0  0  0  0  0  0  0  0
   14.9178   -0.0381   -3.6426 C   0  0  0  0  0  0  0  0  0  0  0  0
   15.5336   -1.2908   -3.8448 C   0  0  0  0  0  0  0  0  0  0  0  0
   16.8816   -1.3667   -4.3303 C   0  0  0  0  0  0  0  0  0  0  0  0
   17.9730   -1.4272   -4.7235 N   0  0  0  0  0  0  0  0  0  0  0  0
   14.8084   -2.4633   -3.5641 C   0  0  0  0  0  0  0  0  0  0  0  0
   13.5022   -2.3771   -3.0938 C   0  0  0  0  0  0  0  0  0  0  0  0
    8.6030   -1.1499   -1.3457 C   0  0  0  0  0  0  0  0  0  0  0  0
    7.3569   -1.1284   -0.8965 N   0  0  0  0  0  0  0  0  0  0  0  0
    4.7510    1.2166    0.0119 N   0  0  0  0  0  0  0  0  0  0  0  0
    3.4995    1.2321    0.4624 C   0  0  0  0  0  0  0  0  0  0  0  0
    1.2266   -0.3214    2.2386 H   0  0  0  0  0  0  0  0  0  0  0  0
    0.6275   -0.3342    0.5705 H   0  0  0  0  0  0  0  0  0  0  0  0
    1.0050    1.2134    1.3647 H   0  0  0  0  0  0  0  0  0  0  0  0
    2.8540   -2.0850    0.7366 H   0  0  0  0  0  0  0  0  0  0  0  0
    5.2242   -2.1165   -0.1162 H   0  0  0  0  0  0  0  0  0  0  0  0
    6.8775    2.2052   -0.7675 H   0  0  0  0  0  0  0  0  0  0  0  0
    9.2482    2.1727   -1.6225 H   0  0  0  0  0  0  0  0  0  0  0  0
   11.1721    0.9695   -2.3029 H   0  0  0  0  0  0  0  0  0  0  0  0
   11.0619   -2.1054   -2.2175 H   0  0  0  0  0  0  0  0  0  0  0  0
   13.1644    1.0191   -3.0266 H   0  0  0  0  0  0  0  0  0  0  0  0
   15.4753    0.8753   -3.8587 H   0  0  0  0  0  0  0  0  0  0  0  0
   15.2762   -3.4377   -3.7174 H   0  0  0  0  0  0  0  0  0  0  0  0
   12.9499   -3.2957   -2.8796 H   0  0  0  0  0  0  0  0  0  0  0  0
    9.0403   -2.1445   -1.4899 H   0  0  0  0  0  0  0  0  0  0  0  0
    3.0492    2.2220    0.6123 H   0  0  0  0  0  0  0  0  0  0  0  0
  1  2  1  0
  1 24  1  0
  1 25  1  0
  1 26  1  0
  2  3  2  0
  2 23  1  0
  3  4  1  0
  3 27  1  0
  4  5  2  0
  4 28  1  0
  5  6  1  0
  5 22  1  0
  6  7  2  0
  6 21  1  0
  7  8  1  0
  7 29  1  0
  8  9  2  0
  8 30  1  0
  9 10  1  0
  9 20  1  0
 10 11  2  0
 10 31  1  0
 11 12  1  0
 11 32  1  0
 12 13  2  0
 12 19  1  0
 13 14  1  0
 13 33  1  0
 14 15  2  0
 14 34  1  0
 15 16  1  0
 15 18  1  0
 16 17  3  0
 18 19  2  0
 18 35  1  0
 19 36  1  0
 20 21  2  0
 20 37  1  0
 22 23  2  0
 23 38  1  0
M  END

