
     RDKit          3D

 34 34  0  0  0  0  0  0  0  0999 V2000
    2.3904   -0.9936   -1.1701 C   0  0  0  0  0  0  0  0  0  0  0  0
    2.4649    0.0005    0.0003 C   0  0  1  0  0  0  0  0  0  0  0  0
    3.1028    1.3264   -0.4416 C   0  0  0  0  0  0  0  0  0  0  0  0
    1.0664    0.2477    0.5728 C   0  0  0  0  0  0  0  0  0  0  0  0
    3.1843   -0.5815    1.1012 O   0  0  0  0  0  0  0  0  0  0  0  0
    4.5666   -0.7962    0.9852 C   0  0  0  0  0  0  0  0  0  0  0  0
    5.0031   -1.7345    2.0914 C   0  0  0  0  0  0  0  0  0  0  0  0
    4.5118   -3.0312    1.8116 O   0  0  0  0  0  0  0  0  0  0  0  0
    4.7245   -4.0406    2.7049 C   0  0  0  0  0  0  0  0  0  0  0  0
    5.4608   -3.9246    3.8812 C   0  0  0  0  0  0  0  0  0  0  0  0
    5.6370   -5.0358    4.7228 C   0  0  0  0  0  0  0  0  0  0  0  0
    6.6418   -4.8810    6.3286 Br  0  0  0  0  0  0  0  0  0  0  0  0
    5.0702   -6.2539    4.3639 C   0  0  0  0  0  0  0  0  0  0  0  0
    5.2245   -7.3318    5.1425 F   0  0  0  0  0  0  0  0  0  0  0  0
    4.3288   -6.3817    3.1882 C   0  0  0  0  0  0  0  0  0  0  0  0
    4.1361   -5.2850    2.3395 C   0  0  0  0  0  0  0  0  0  0  0  0
    3.3701   -5.3491    1.1947 N   0  0  0  0  0  0  0  0  0  0  0  0
    1.7470   -0.6012   -1.9730 H   0  0  0  0  0  0  0  0  0  0  0  0
    1.9706   -1.9508   -0.8242 H   0  0  0  0  0  0  0  0  0  0  0  0
    3.3807   -1.1887   -1.6105 H   0  0  0  0  0  0  0  0  0  0  0  0
    2.4732    1.8226   -1.1962 H   0  0  0  0  0  0  0  0  0  0  0  0
    4.0974    1.1774   -0.8905 H   0  0  0  0  0  0  0  0  0  0  0  0
    3.2089    2.0075    0.4176 H   0  0  0  0  0  0  0  0  0  0  0  0
    0.3957    0.6726   -0.1896 H   0  0  0  0  0  0  0  0  0  0  0  0
    1.1216    0.9441    1.4231 H   0  0  0  0  0  0  0  0  0  0  0  0
    0.6354   -0.6975    0.9358 H   0  0  0  0  0  0  0  0  0  0  0  0
    5.1417    0.1460    1.0902 H   0  0  0  0  0  0  0  0  0  0  0  0
    4.8452   -1.2453    0.0128 H   0  0  0  0  0  0  0  0  0  0  0  0
    4.6049   -1.3720    3.0564 H   0  0  0  0  0  0  0  0  0  0  0  0
    6.1083   -1.7455    2.1526 H   0  0  0  0  0  0  0  0  0  0  0  0
    5.9138   -2.9766    4.1665 H   0  0  0  0  0  0  0  0  0  0  0  0
    3.8951   -7.3556    2.9515 H   0  0  0  0  0  0  0  0  0  0  0  0
    3.2296   -6.2588    0.7745 H   0  0  0  0  0  0  0  0  0  0  0  0
    3.4866   -4.5809    0.5452 H   0  0  0  0  0  0  0  0  0  0  0  0
  1  2  1  0
  1 18  1  0
  1 19  1  0
  1 20  1  0
  2  3  1  0
  2  4  1  0
  2  5  1  1
  3 21  1  0
  3 22  1  0
  3 23  1  0
  4 24  1  0
  4 25  1  0
  4 26  1  0
  5  6  1  0
  6  7  1  0
  6 27  1  0
  6 28  1  0
  7  8  1  0
  7 29  1  0
  7 30  1  0
  8  9  1  0
  9 10  2  0
  9 16  1  0
 10 11  1  0
 10 31  1  0
 11 12  1  0
 11 13  2  0
 13 14  1  0
 13 15  1  0
 15 16  2  0
 15 32  1  0
 16 17  1  0
 17 33  1  0
 17 34  1  0
M  END

