
     RDKit          3D

 33 35  0  0  0  0  0  0  0  0999 V2000
    1.0776   -1.3566    0.9622 O   0  0  0  0  0  0  0  0  0  0  0  0
    2.0685   -0.4136    0.4430 S   0  0  1  0  0  0  0  0  0  0  0  0
    1.7559    0.4767   -0.6824 O   0  0  0  0  0  0  0  0  0  0  0  0
    2.5226    0.6666    1.7408 N   0  0  0  0  0  0  0  0  0  0  0  0
    1.8764    0.6100    2.9846 C   0  0  0  0  0  0  0  0  0  0  0  0
    1.9867   -0.3975    3.9266 C   0  0  0  0  0  0  0  0  0  0  0  0
    3.0224   -1.7746    3.6640 Cl  0  0  0  0  0  0  0  0  0  0  0  0
    1.2876   -0.3697    5.1766 C   0  0  0  0  0  0  0  0  0  0  0  0
    0.4855    0.6821    5.5419 C   0  0  0  0  0  0  0  0  0  0  0  0
   -0.3468    0.7075    7.0607 Cl  0  0  0  0  0  0  0  0  0  0  0  0
    0.3505    1.7811    4.6348 C   0  0  0  0  0  0  0  0  0  0  0  0
   -0.3562    2.8974    4.7987 N   0  0  0  0  0  0  0  0  0  0  0  0
   -0.1516    3.7966    3.4442 S   0  0  0  0  0  0  0  0  0  0  0  0
    0.8431    2.7978    2.6012 N   0  0  0  0  0  0  0  0  0  0  0  0
    1.0430    1.7215    3.3603 C   0  0  0  0  0  0  0  0  0  0  0  0
    3.6280   -1.3206    0.1122 C   0  0  1  0  0  0  0  0  0  0  0  0
    3.3501   -2.4961   -0.8412 C   0  0  0  0  0  0  0  0  0  0  0  0
    3.2776   -2.0601   -2.3070 C   0  0  0  0  0  0  0  0  0  0  0  0
    4.4920   -1.3293   -2.6555 N   0  0  0  0  0  0  0  0  0  0  0  0
    4.6417   -0.0894   -1.8987 C   0  0  0  0  0  0  0  0  0  0  0  0
    4.7510   -0.4080   -0.4033 C   0  0  0  0  0  0  0  0  0  0  0  0
    2.4443    1.6050    1.3413 H   0  0  0  0  0  0  0  0  0  0  0  0
    1.4147   -1.2136    5.8544 H   0  0  0  0  0  0  0  0  0  0  0  0
    3.8674   -1.6960    1.1162 H   0  0  0  0  0  0  0  0  0  0  0  0
    2.4356   -3.0256   -0.5343 H   0  0  0  0  0  0  0  0  0  0  0  0
    4.1941   -3.1965   -0.7248 H   0  0  0  0  0  0  0  0  0  0  0  0
    2.3512   -1.4686   -2.4689 H   0  0  0  0  0  0  0  0  0  0  0  0
    3.2063   -2.9561   -2.9446 H   0  0  0  0  0  0  0  0  0  0  0  0
    4.5141   -1.1359   -3.6544 H   0  0  0  0  0  0  0  0  0  0  0  0
    3.8052    0.6198   -2.0591 H   0  0  0  0  0  0  0  0  0  0  0  0
    5.5680    0.4131   -2.2218 H   0  0  0  0  0  0  0  0  0  0  0  0
    4.8072    0.5142    0.1960 H   0  0  0  0  0  0  0  0  0  0  0  0
    5.6920   -0.9576   -0.2307 H   0  0  0  0  0  0  0  0  0  0  0  0
  1  2  2  0
  2  3  2  0
  2  4  1  1
  2 16  1  0
  4  5  1  0
  4 22  1  0
  5  6  2  0
  5 15  1  0
  6  7  1  0
  6  8  1  0
  8  9  2  0
  8 23  1  0
  9 10  1  0
  9 11  1  0
 11 12  2  0
 11 15  1  0
 12 13  1  0
 13 14  1  0
 14 15  2  0
 16 17  1  0
 16 21  1  0
 16 24  1  1
 17 18  1  0
 17 25  1  0
 17 26  1  0
 18 19  1  0
 18 27  1  0
 18 28  1  0
 19 20  1  0
 19 29  1  0
 20 21  1  0
 20 30  1  0
 20 31  1  0
 21 32  1  0
 21 33  1  0
M  END

