
     RDKit          3D

 34 36  0  0  0  0  0  0  0  0999 V2000
    1.8257    0.4463    1.7942 C   0  0  0  0  0  0  0  0  0  0  0  0
    3.0756    0.1354    1.0145 C   0  0  0  0  0  0  0  0  0  0  0  0
    3.0291   -0.4528   -0.2623 C   0  0  0  0  0  0  0  0  0  0  0  0
    4.2184   -0.7318   -0.9270 C   0  0  0  0  0  0  0  0  0  0  0  0
    5.4369   -0.4317   -0.3032 C   0  0  0  0  0  0  0  0  0  0  0  0
    6.7073   -0.7203   -1.0455 C   0  0  0  0  0  0  0  0  0  0  0  0
    6.7519   -0.7886   -2.2560 O   0  0  0  0  0  0  0  0  0  0  0  0
    7.8137   -0.9593   -0.2372 N   0  0  0  0  0  0  0  0  0  0  0  0
    9.0736   -0.9240   -0.7764 N   0  0  0  0  0  0  0  0  0  0  0  0
    9.6704    0.3073   -0.9932 C   0  0  0  0  0  0  0  0  0  0  0  0
    9.1276    1.3652   -0.7755 O   0  0  0  0  0  0  0  0  0  0  0  0
   11.0964    0.1426   -1.4983 C   0  0  0  0  0  0  0  0  0  0  0  0
   11.3702   -1.6319   -1.8412 S   0  0  0  0  0  0  0  0  0  0  0  0
    9.8842   -2.1431   -0.8356 C   0  0  2  0  0  0  0  0  0  0  0  0
    9.1945   -3.3280   -1.4351 C   0  0  0  0  0  0  0  0  0  0  0  0
    8.4766   -3.4216   -2.6055 C   0  0  0  0  0  0  0  0  0  0  0  0
    8.0051   -4.7424   -2.8577 C   0  0  0  0  0  0  0  0  0  0  0  0
    8.3757   -5.6377   -1.8834 C   0  0  0  0  0  0  0  0  0  0  0  0
    9.2971   -4.8757   -0.6391 S   0  0  0  0  0  0  0  0  0  0  0  0
    5.3764    0.1827    0.9584 C   0  0  0  0  0  0  0  0  0  0  0  0
    4.2414    0.4535    1.5969 N   0  0  0  0  0  0  0  0  0  0  0  0
    0.9141    0.1920    1.2355 H   0  0  0  0  0  0  0  0  0  0  0  0
    1.7996    1.5162    2.0550 H   0  0  0  0  0  0  0  0  0  0  0  0
    1.8253   -0.1106    2.7454 H   0  0  0  0  0  0  0  0  0  0  0  0
    2.0668   -0.6849   -0.7241 H   0  0  0  0  0  0  0  0  0  0  0  0
    4.2297   -1.1768   -1.9244 H   0  0  0  0  0  0  0  0  0  0  0  0
    7.7477   -0.7424    0.7538 H   0  0  0  0  0  0  0  0  0  0  0  0
   11.7874    0.5392   -0.7363 H   0  0  0  0  0  0  0  0  0  0  0  0
   11.2227    0.7360   -2.4150 H   0  0  0  0  0  0  0  0  0  0  0  0
   10.2307   -2.4065    0.1806 H   0  0  0  0  0  0  0  0  0  0  0  0
    8.2731   -2.5589   -3.2392 H   0  0  0  0  0  0  0  0  0  0  0  0
    7.4117   -5.0194   -3.7305 H   0  0  0  0  0  0  0  0  0  0  0  0
    8.1580   -6.7034   -1.8274 H   0  0  0  0  0  0  0  0  0  0  0  0
    6.2939    0.5081    1.4655 H   0  0  0  0  0  0  0  0  0  0  0  0
  1  2  1  0
  1 22  1  0
  1 23  1  0
  1 24  1  0
  2  3  2  0
  2 21  1  0
  3  4  1  0
  3 25  1  0
  4  5  2  0
  4 26  1  0
  5  6  1  0
  5 20  1  0
  6  7  2  0
  6  8  1  0
  8  9  1  0
  8 27  1  0
  9 10  1  0
  9 14  1  0
 10 11  2  0
 10 12  1  0
 12 13  1  0
 12 28  1  0
 12 29  1  0
 13 14  1  0
 14 15  1  0
 14 30  1  1
 15 16  2  0
 15 19  1  0
 16 17  1  0
 16 31  1  0
 17 18  2  0
 17 32  1  0
 18 19  1  0
 18 33  1  0
 20 21  2  0
 20 34  1  0
M  END

