
     RDKit          3D

 42 43  0  0  0  0  0  0  0  0999 V2000
    0.9647    0.1410    0.0103 C   0  0  0  0  0  0  0  0  0  0  0  0
    2.4909    0.1736    0.0198 C   0  0  0  0  0  0  0  0  0  0  0  0
    3.0881    0.1874    1.3625 N   0  0  0  0  0  0  0  0  0  0  0  0
    2.5830   -0.8502    2.2726 C   0  0  0  0  0  0  0  0  0  0  0  0
    2.9460   -2.2945    1.9421 C   0  0  0  0  0  0  0  0  0  0  0  0
    3.8681   -3.0125    2.7204 C   0  0  0  0  0  0  0  0  0  0  0  0
    4.1518   -4.3344    2.3766 C   0  0  0  0  0  0  0  0  0  0  0  0
    3.5153   -4.8976    1.2706 C   0  0  0  0  0  0  0  0  0  0  0  0
    2.6064   -4.1152    0.5406 C   0  0  0  0  0  0  0  0  0  0  0  0
    1.8779   -4.6596   -0.6624 C   0  0  0  0  0  0  0  0  0  0  0  0
    2.3368   -2.8481    0.8835 N   0  0  0  0  0  0  0  0  0  0  0  0
    4.5556    0.3231    1.3689 C   0  0  1  0  0  0  0  0  0  0  0  0
    5.0407    1.4861    0.4689 C   0  0  0  0  0  0  0  0  0  0  0  0
    4.4538    2.7598    0.8511 N   0  0  0  0  0  0  0  0  0  0  0  0
    5.1100    0.5112    2.7736 C   0  0  0  0  0  0  0  0  0  0  0  0
    4.6064    1.4722    3.6628 C   0  0  0  0  0  0  0  0  0  0  0  0
    5.2120    1.6250    4.9099 C   0  0  0  0  0  0  0  0  0  0  0  0
    6.3062    0.8142    5.2311 C   0  0  0  0  0  0  0  0  0  0  0  0
    6.8000   -0.1045    4.3989 N   0  0  0  0  0  0  0  0  0  0  0  0
    6.2115   -0.2412    3.2075 C   0  0  0  0  0  0  0  0  0  0  0  0
    0.6020    0.3376   -1.0112 H   0  0  0  0  0  0  0  0  0  0  0  0
    0.5463    0.9155    0.6741 H   0  0  0  0  0  0  0  0  0  0  0  0
    0.5780   -0.8417    0.3137 H   0  0  0  0  0  0  0  0  0  0  0  0
    2.8056    1.0947   -0.4935 H   0  0  0  0  0  0  0  0  0  0  0  0
    2.8704   -0.6701   -0.5941 H   0  0  0  0  0  0  0  0  0  0  0  0
    1.4869   -0.7755    2.2999 H   0  0  0  0  0  0  0  0  0  0  0  0
    2.9381   -0.6210    3.2861 H   0  0  0  0  0  0  0  0  0  0  0  0
    4.3486   -2.5409    3.5801 H   0  0  0  0  0  0  0  0  0  0  0  0
    4.8618   -4.9206    2.9664 H   0  0  0  0  0  0  0  0  0  0  0  0
    3.7138   -5.9304    0.9748 H   0  0  0  0  0  0  0  0  0  0  0  0
    2.1490   -5.7042   -0.8718 H   0  0  0  0  0  0  0  0  0  0  0  0
    2.1035   -4.0513   -1.5532 H   0  0  0  0  0  0  0  0  0  0  0  0
    0.7886   -4.6018   -0.5064 H   0  0  0  0  0  0  0  0  0  0  0  0
    5.0382   -0.5884    0.9491 H   0  0  0  0  0  0  0  0  0  0  0  0
    4.8791    1.2019   -0.5917 H   0  0  0  0  0  0  0  0  0  0  0  0
    6.1337    1.5506    0.5974 H   0  0  0  0  0  0  0  0  0  0  0  0
    3.4395    2.7329    0.7523 H   0  0  0  0  0  0  0  0  0  0  0  0
    4.8004    3.5143    0.2610 H   0  0  0  0  0  0  0  0  0  0  0  0
    3.7536    2.0838    3.3684 H   0  0  0  0  0  0  0  0  0  0  0  0
    4.8451    2.3642    5.6264 H   0  0  0  0  0  0  0  0  0  0  0  0
    6.8010    0.9123    6.2052 H   0  0  0  0  0  0  0  0  0  0  0  0
    6.6353   -1.0054    2.5424 H   0  0  0  0  0  0  0  0  0  0  0  0
  1  2  1  0
  1 21  1  0
  1 22  1  0
  1 23  1  0
  2  3  1  0
  2 24  1  0
  2 25  1  0
  3  4  1  0
  3 12  1  0
  4  5  1  0
  4 26  1  0
  4 27  1  0
  5  6  2  0
  5 11  1  0
  6  7  1  0
  6 28  1  0
  7  8  2  0
  7 29  1  0
  8  9  1  0
  8 30  1  0
  9 10  1  0
  9 11  2  0
 10 31  1  0
 10 32  1  0
 10 33  1  0
 12 13  1  0
 12 15  1  0
 12 34  1  6
 13 14  1  0
 13 35  1  0
 13 36  1  0
 14 37  1  0
 14 38  1  0
 15 16  2  0
 15 20  1  0
 16 17  1  0
 16 39  1  0
 17 18  2  0
 17 40  1  0
 18 19  1  0
 18 41  1  0
 19 20  2  0
 20 42  1  0
M  END

