
     RDKit          3D

 44 47  0  0  0  0  0  0  0  0999 V2000
    0.9482   -0.0459   -0.4754 N   0  0  0  0  0  0  0  0  0  0  0  0
    2.3877    0.1607   -0.2690 C   0  0  0  0  0  0  0  0  0  0  0  0
    3.0743    0.7950   -1.5081 C   0  0  1  0  0  0  0  0  0  0  0  0
    2.6405    2.2564   -1.8080 C   0  0  0  0  0  0  0  0  0  0  0  0
    3.4335    3.0963   -2.1890 O   0  0  0  0  0  0  0  0  0  0  0  0
    1.2909    2.4716   -1.6428 N   0  0  0  0  0  0  0  0  0  0  0  0
    0.5475    3.6335   -1.8707 C   0  0  0  0  0  0  0  0  0  0  0  0
    1.1340    4.8433   -2.3708 C   0  0  0  0  0  0  0  0  0  0  0  0
    0.3543    5.9547   -2.5815 C   0  0  0  0  0  0  0  0  0  0  0  0
   -1.0427    5.9366   -2.3110 C   0  0  0  0  0  0  0  0  0  0  0  0
   -1.7618    7.0701   -2.5394 N   0  0  0  0  0  0  0  0  0  0  0  0
   -3.0389    7.0965   -2.3059 N   0  0  0  0  0  0  0  0  0  0  0  0
   -3.6658    5.9870   -1.8302 C   0  0  0  0  0  0  0  0  0  0  0  0
   -3.0227    4.7957   -1.5686 C   0  0  0  0  0  0  0  0  0  0  0  0
   -1.6309    4.7314   -1.8115 C   0  0  0  0  0  0  0  0  0  0  0  0
   -0.8167    3.5936   -1.5994 C   0  0  0  0  0  0  0  0  0  0  0  0
    4.5816    0.6464   -1.4042 C   0  0  0  0  0  0  0  0  0  0  0  0
    5.2405   -0.3719   -2.1479 C   0  0  0  0  0  0  0  0  0  0  0  0
    6.5975   -0.5832   -2.0283 C   0  0  0  0  0  0  0  0  0  0  0  0
    7.3853    0.2139   -1.1543 C   0  0  0  0  0  0  0  0  0  0  0  0
    8.7887    0.0295   -1.0024 C   0  0  0  0  0  0  0  0  0  0  0  0
    9.5171    0.8290   -0.1473 C   0  0  0  0  0  0  0  0  0  0  0  0
    8.8747    1.8535    0.5957 C   0  0  0  0  0  0  0  0  0  0  0  0
    7.5171    2.0579    0.4701 C   0  0  0  0  0  0  0  0  0  0  0  0
    6.7341    1.2483   -0.4019 C   0  0  0  0  0  0  0  0  0  0  0  0
    5.3332    1.4349   -0.5509 C   0  0  0  0  0  0  0  0  0  0  0  0
    0.4852   -0.2845    0.4016 H   0  0  0  0  0  0  0  0  0  0  0  0
    0.7845   -0.8268   -1.1134 H   0  0  0  0  0  0  0  0  0  0  0  0
    2.9258   -0.7743   -0.0278 H   0  0  0  0  0  0  0  0  0  0  0  0
    2.5197    0.8285    0.5982 H   0  0  0  0  0  0  0  0  0  0  0  0
    2.7423    0.2110   -2.3873 H   0  0  0  0  0  0  0  0  0  0  0  0
    0.7785    1.6566   -1.2714 H   0  0  0  0  0  0  0  0  0  0  0  0
    2.2021    4.8547   -2.5742 H   0  0  0  0  0  0  0  0  0  0  0  0
    0.7823    6.8844   -2.9618 H   0  0  0  0  0  0  0  0  0  0  0  0
   -4.7406    6.1055   -1.6648 H   0  0  0  0  0  0  0  0  0  0  0  0
   -3.5691    3.9288   -1.1864 H   0  0  0  0  0  0  0  0  0  0  0  0
   -1.2727    2.6757   -1.2176 H   0  0  0  0  0  0  0  0  0  0  0  0
    4.6563   -0.9940   -2.8326 H   0  0  0  0  0  0  0  0  0  0  0  0
    7.0850   -1.3685   -2.6127 H   0  0  0  0  0  0  0  0  0  0  0  0
    9.2817   -0.7587   -1.5784 H   0  0  0  0  0  0  0  0  0  0  0  0
   10.5943    0.6781   -0.0399 H   0  0  0  0  0  0  0  0  0  0  0  0
    9.4633    2.4831    1.2679 H   0  0  0  0  0  0  0  0  0  0  0  0
    7.0219    2.8496    1.0390 H   0  0  0  0  0  0  0  0  0  0  0  0
    4.8586    2.2405    0.0144 H   0  0  0  0  0  0  0  0  0  0  0  0
  1  2  1  0
  1 27  1  0
  1 28  1  0
  2  3  1  0
  2 29  1  0
  2 30  1  0
  3  4  1  0
  3 17  1  0
  3 31  1  6
  4  5  2  0
  4  6  1  0
  6  7  1  0
  6 32  1  0
  7  8  2  0
  7 16  1  0
  8  9  1  0
  8 33  1  0
  9 10  2  0
  9 34  1  0
 10 11  1  0
 10 15  1  0
 11 12  2  0
 12 13  1  0
 13 14  2  0
 13 35  1  0
 14 15  1  0
 14 36  1  0
 15 16  2  0
 16 37  1  0
 17 18  2  0
 17 26  1  0
 18 19  1  0
 18 38  1  0
 19 20  2  0
 19 39  1  0
 20 21  1  0
 20 25  1  0
 21 22  2  0
 21 40  1  0
 22 23  1  0
 22 41  1  0
 23 24  2  0
 23 42  1  0
 24 25  1  0
 24 43  1  0
 25 26  2  0
 26 44  1  0
M  END

