
     RDKit          3D

 41 42  0  0  0  0  0  0  0  0999 V2000
    9.0198   -5.8940    6.9586 C   0  0  0  0  0  0  0  0  0  0  0  0
    8.8994   -5.0967    5.7859 O   0  0  0  0  0  0  0  0  0  0  0  0
    9.7272   -4.0275    5.7062 C   0  0  0  0  0  0  0  0  0  0  0  0
   10.5255   -3.7595    6.5782 O   0  0  0  0  0  0  0  0  0  0  0  0
    9.5389   -3.2530    4.4578 C   0  0  0  0  0  0  0  0  0  0  0  0
   10.3356   -2.1166    4.2446 C   0  0  0  0  0  0  0  0  0  0  0  0
   10.2072   -1.3445    3.0961 C   0  0  0  0  0  0  0  0  0  0  0  0
    9.2637   -1.6916    2.0980 C   0  0  0  0  0  0  0  0  0  0  0  0
    9.1188   -0.9836    0.9300 N   0  0  0  0  0  0  0  0  0  0  0  0
    9.7385    0.2927    0.6063 C   0  0  1  0  0  0  0  0  0  0  0  0
    9.7891    0.4217   -0.9231 C   0  0  0  0  0  0  0  0  0  0  0  0
   10.3624    1.7343   -1.4677 C   0  0  0  0  0  0  0  0  0  0  0  0
    9.4991    2.9720   -1.1427 C   0  0  0  0  0  0  0  0  0  0  0  0
    9.7054    3.6223    0.1450 N   0  0  0  0  0  0  0  0  0  0  0  0
   10.6647    4.7052    0.1407 C   0  0  0  0  0  0  0  0  0  0  0  0
    9.8509    2.7826    1.3260 C   0  0  0  0  0  0  0  0  0  0  0  0
    9.0513    1.4759    1.3287 C   0  0  0  0  0  0  0  0  0  0  0  0
    8.4592   -2.8385    2.3210 C   0  0  0  0  0  0  0  0  0  0  0  0
    8.5956   -3.5996    3.4717 C   0  0  0  0  0  0  0  0  0  0  0  0
    8.2835   -6.7018    6.8590 H   0  0  0  0  0  0  0  0  0  0  0  0
    8.8132   -5.3010    7.8632 H   0  0  0  0  0  0  0  0  0  0  0  0
   10.0338   -6.3136    7.0492 H   0  0  0  0  0  0  0  0  0  0  0  0
   11.0656   -1.8463    5.0106 H   0  0  0  0  0  0  0  0  0  0  0  0
   10.8439   -0.4681    2.9720 H   0  0  0  0  0  0  0  0  0  0  0  0
    8.3480   -1.2642    0.3352 H   0  0  0  0  0  0  0  0  0  0  0  0
   10.7821    0.2553    0.9660 H   0  0  0  0  0  0  0  0  0  0  0  0
    8.7593    0.3088   -1.3161 H   0  0  0  0  0  0  0  0  0  0  0  0
   10.3635   -0.4340   -1.3150 H   0  0  0  0  0  0  0  0  0  0  0  0
   10.4326    1.6381   -2.5644 H   0  0  0  0  0  0  0  0  0  0  0  0
   11.3969    1.8868   -1.1118 H   0  0  0  0  0  0  0  0  0  0  0  0
    8.4364    2.6797   -1.2461 H   0  0  0  0  0  0  0  0  0  0  0  0
    9.6644    3.7408   -1.9131 H   0  0  0  0  0  0  0  0  0  0  0  0
   10.4434    5.4153   -0.6715 H   0  0  0  0  0  0  0  0  0  0  0  0
   11.7250    4.3757    0.0265 H   0  0  0  0  0  0  0  0  0  0  0  0
   10.6050    5.2618    1.0913 H   0  0  0  0  0  0  0  0  0  0  0  0
    9.5473    3.3845    2.2018 H   0  0  0  0  0  0  0  0  0  0  0  0
   10.9221    2.5229    1.5113 H   0  0  0  0  0  0  0  0  0  0  0  0
    8.0376    1.6365    0.9232 H   0  0  0  0  0  0  0  0  0  0  0  0
    8.9133    1.1769    2.3796 H   0  0  0  0  0  0  0  0  0  0  0  0
    7.7224   -3.1248    1.5645 H   0  0  0  0  0  0  0  0  0  0  0  0
    7.9664   -4.4784    3.6199 H   0  0  0  0  0  0  0  0  0  0  0  0
  1  2  1  0
  1 20  1  0
  1 21  1  0
  1 22  1  0
  2  3  1  0
  3  4  2  0
  3  5  1  0
  5  6  2  0
  5 19  1  0
  6  7  1  0
  6 23  1  0
  7  8  2  0
  7 24  1  0
  8  9  1  0
  8 18  1  0
  9 10  1  0
  9 25  1  0
 10 11  1  0
 10 17  1  0
 10 26  1  1
 11 12  1  0
 11 27  1  0
 11 28  1  0
 12 13  1  0
 12 29  1  0
 12 30  1  0
 13 14  1  0
 13 31  1  0
 13 32  1  0
 14 15  1  0
 14 16  1  0
 15 33  1  0
 15 34  1  0
 15 35  1  0
 16 17  1  0
 16 36  1  0
 16 37  1  0
 17 38  1  0
 17 39  1  0
 18 19  2  0
 18 40  1  0
 19 41  1  0
M  END

