
     RDKit          3D

 45 47  0  0  0  0  0  0  0  0999 V2000
   -0.6414    5.7429   -3.3508 C   0  0  0  0  0  0  0  0  0  0  0  0
   -0.1391    4.6311   -4.2849 C   0  0  0  0  0  0  0  0  0  0  0  0
    1.3499    4.4205   -4.2589 C   0  0  0  0  0  0  0  0  0  0  0  0
    2.2776    4.7288   -5.2252 C   0  0  0  0  0  0  0  0  0  0  0  0
    3.6233    4.4216   -4.8565 C   0  0  0  0  0  0  0  0  0  0  0  0
    3.7344    3.8759   -3.5995 C   0  0  0  0  0  0  0  0  0  0  0  0
    4.9570    3.4221   -2.8495 C   0  0  0  0  0  0  0  0  0  0  0  0
    5.8372    2.3411   -3.5503 C   0  0  1  0  0  0  0  0  0  0  0  0
    6.3479    2.8905   -4.7617 O   0  0  0  0  0  0  0  0  0  0  0  0
    7.0133    1.9569   -2.6268 C   0  0  0  0  0  0  0  0  0  0  0  0
    6.6034    1.1557   -1.3836 C   0  0  0  0  0  0  0  0  0  0  0  0
    5.7876   -0.0886   -1.7553 C   0  0  0  0  0  0  0  0  0  0  0  0
    4.6223    0.2490   -2.6961 C   0  0  0  0  0  0  0  0  0  0  0  0
    4.9937    1.0881   -3.9472 C   0  0  2  0  0  0  0  0  0  0  0  0
    5.5786    0.2890   -5.1106 C   0  0  0  0  0  0  0  0  0  0  0  0
    4.9511    0.3927   -6.3649 C   0  0  0  0  0  0  0  0  0  0  0  0
    5.4111   -0.3140   -7.4780 C   0  0  0  0  0  0  0  0  0  0  0  0
    6.5233   -1.1524   -7.3661 C   0  0  0  0  0  0  0  0  0  0  0  0
    7.1638   -1.2689   -6.1306 C   0  0  0  0  0  0  0  0  0  0  0  0
    6.6981   -0.5575   -5.0200 C   0  0  0  0  0  0  0  0  0  0  0  0
    2.1538    3.7398   -2.8662 S   0  0  0  0  0  0  0  0  0  0  0  0
   -1.7356    5.8519   -3.4235 H   0  0  0  0  0  0  0  0  0  0  0  0
   -0.1822    6.7109   -3.6062 H   0  0  0  0  0  0  0  0  0  0  0  0
   -0.3933    5.5244   -2.2999 H   0  0  0  0  0  0  0  0  0  0  0  0
   -0.4215    4.8664   -5.3245 H   0  0  0  0  0  0  0  0  0  0  0  0
   -0.6555    3.6870   -4.0359 H   0  0  0  0  0  0  0  0  0  0  0  0
    1.9988    5.1670   -6.1862 H   0  0  0  0  0  0  0  0  0  0  0  0
    4.4862    4.5736   -5.5043 H   0  0  0  0  0  0  0  0  0  0  0  0
    4.6588    3.0738   -1.8499 H   0  0  0  0  0  0  0  0  0  0  0  0
    5.6178    4.2908   -2.6694 H   0  0  0  0  0  0  0  0  0  0  0  0
    6.9683    3.5958   -4.5307 H   0  0  0  0  0  0  0  0  0  0  0  0
    7.5434    2.8795   -2.3252 H   0  0  0  0  0  0  0  0  0  0  0  0
    7.7275    1.3764   -3.2325 H   0  0  0  0  0  0  0  0  0  0  0  0
    6.0113    1.7945   -0.7047 H   0  0  0  0  0  0  0  0  0  0  0  0
    7.5029    0.8684   -0.8140 H   0  0  0  0  0  0  0  0  0  0  0  0
    5.3938   -0.5668   -0.8426 H   0  0  0  0  0  0  0  0  0  0  0  0
    6.4480   -0.8379   -2.2207 H   0  0  0  0  0  0  0  0  0  0  0  0
    3.8641    0.8128   -2.1244 H   0  0  0  0  0  0  0  0  0  0  0  0
    4.1200   -0.6744   -3.0263 H   0  0  0  0  0  0  0  0  0  0  0  0
    4.0468    1.4882   -4.3367 H   0  0  0  0  0  0  0  0  0  0  0  0
    4.0839    1.0504   -6.4685 H   0  0  0  0  0  0  0  0  0  0  0  0
    4.8973   -0.2081   -8.4374 H   0  0  0  0  0  0  0  0  0  0  0  0
    6.8878   -1.7091   -8.2333 H   0  0  0  0  0  0  0  0  0  0  0  0
    8.0365   -1.9192   -6.0251 H   0  0  0  0  0  0  0  0  0  0  0  0
    7.2292   -0.6736   -4.0757 H   0  0  0  0  0  0  0  0  0  0  0  0
  1  2  1  0
  1 22  1  0
  1 23  1  0
  1 24  1  0
  2  3  1  0
  2 25  1  0
  2 26  1  0
  3  4  2  0
  3 21  1  0
  4  5  1  0
  4 27  1  0
  5  6  2  0
  5 28  1  0
  6  7  1  0
  6 21  1  0
  7  8  1  0
  7 29  1  0
  7 30  1  0
  8  9  1  6
  8 10  1  0
  8 14  1  0
  9 31  1  0
 10 11  1  0
 10 32  1  0
 10 33  1  0
 11 12  1  0
 11 34  1  0
 11 35  1  0
 12 13  1  0
 12 36  1  0
 12 37  1  0
 13 14  1  0
 13 38  1  0
 13 39  1  0
 14 15  1  0
 14 40  1  6
 15 16  2  0
 15 20  1  0
 16 17  1  0
 16 41  1  0
 17 18  2  0
 17 42  1  0
 18 19  1  0
 18 43  1  0
 19 20  2  0
 19 44  1  0
 20 45  1  0
M  END

