
     RDKit          3D

 47 49  0  0  0  0  0  0  0  0999 V2000
    6.0416    3.6901   -1.3404 C   0  0  0  0  0  0  0  0  0  0  0  0
    5.8319    2.4933   -0.4518 C   0  0  0  0  0  0  0  0  0  0  0  0
    4.8183    2.4936    0.5576 C   0  0  0  0  0  0  0  0  0  0  0  0
    4.6335    1.4021    1.3623 C   0  0  0  0  0  0  0  0  0  0  0  0
    5.4409    0.2330    1.2228 C   0  0  0  0  0  0  0  0  0  0  0  0
    5.2505   -0.8181    2.0106 N   0  0  0  0  0  0  0  0  0  0  0  0
    6.0414   -1.8791    1.8285 C   0  0  0  0  0  0  0  0  0  0  0  0
    7.0543   -1.9773    0.8783 C   0  0  0  0  0  0  0  0  0  0  0  0
    7.8369   -3.2625    0.8317 C   0  0  0  0  0  0  0  0  0  0  0  0
    7.5771   -4.1791    1.6024 O   0  0  0  0  0  0  0  0  0  0  0  0
    8.8277   -3.3227   -0.1023 N   0  0  0  0  0  0  0  0  0  0  0  0
    9.6525   -4.4974   -0.2751 C   0  0  0  0  0  0  0  0  0  0  0  0
   11.1436   -4.2139   -0.2598 C   0  0  0  0  0  0  0  0  0  0  0  0
   11.6912   -3.1860    0.5231 C   0  0  0  0  0  0  0  0  0  0  0  0
   13.0687   -2.9748    0.5641 C   0  0  0  0  0  0  0  0  0  0  0  0
   13.9397   -3.7648   -0.2019 C   0  0  0  0  0  0  0  0  0  0  0  0
   15.4231   -3.5465   -0.0380 C   0  0  0  0  0  0  0  0  0  0  0  0
   15.8853   -3.3534    1.0781 O   0  0  0  0  0  0  0  0  0  0  0  0
   16.2273   -3.6097   -1.1583 N   0  0  0  0  0  0  0  0  0  0  0  0
   15.7766   -3.4331   -2.5266 C   0  0  0  0  0  0  0  0  0  0  0  0
   17.6670   -3.5625   -0.9710 C   0  0  0  0  0  0  0  0  0  0  0  0
   13.3965   -4.8003   -0.9781 C   0  0  0  0  0  0  0  0  0  0  0  0
   12.0179   -5.0194   -1.0041 C   0  0  0  0  0  0  0  0  0  0  0  0
    7.3018   -0.8731   -0.0007 C   0  0  0  0  0  0  0  0  0  0  0  0
    8.1393   -0.7751   -0.8937 O   0  0  0  0  0  0  0  0  0  0  0  0
    6.4186    0.2618    0.2323 N   0  0  0  0  0  0  0  0  0  0  0  0
    6.5988    1.3658   -0.5751 C   0  0  0  0  0  0  0  0  0  0  0  0
    6.2901    4.5848   -0.7456 H   0  0  0  0  0  0  0  0  0  0  0  0
    5.1268    3.9246   -1.9097 H   0  0  0  0  0  0  0  0  0  0  0  0
    6.8561    3.5228   -2.0592 H   0  0  0  0  0  0  0  0  0  0  0  0
    4.1875    3.3779    0.6836 H   0  0  0  0  0  0  0  0  0  0  0  0
    3.8725    1.3644    2.1420 H   0  0  0  0  0  0  0  0  0  0  0  0
    5.8824   -2.7448    2.4794 H   0  0  0  0  0  0  0  0  0  0  0  0
    8.9449   -2.5123   -0.7111 H   0  0  0  0  0  0  0  0  0  0  0  0
    9.3957   -5.0196   -1.2153 H   0  0  0  0  0  0  0  0  0  0  0  0
    9.3865   -5.1834    0.5459 H   0  0  0  0  0  0  0  0  0  0  0  0
   11.0259   -2.5486    1.1098 H   0  0  0  0  0  0  0  0  0  0  0  0
   13.4906   -2.1952    1.2017 H   0  0  0  0  0  0  0  0  0  0  0  0
   14.6975   -3.2508   -2.5674 H   0  0  0  0  0  0  0  0  0  0  0  0
   16.0078   -4.3157   -3.1509 H   0  0  0  0  0  0  0  0  0  0  0  0
   16.2848   -2.5629   -2.9815 H   0  0  0  0  0  0  0  0  0  0  0  0
   17.8981   -3.7688    0.0801 H   0  0  0  0  0  0  0  0  0  0  0  0
   18.0766   -2.5677   -1.2293 H   0  0  0  0  0  0  0  0  0  0  0  0
   18.1571   -4.3110   -1.6169 H   0  0  0  0  0  0  0  0  0  0  0  0
   14.0543   -5.4542   -1.5553 H   0  0  0  0  0  0  0  0  0  0  0  0
   11.6143   -5.8346   -1.6123 H   0  0  0  0  0  0  0  0  0  0  0  0
    7.4003    1.2427   -1.3031 H   0  0  0  0  0  0  0  0  0  0  0  0
  1  2  1  0
  1 28  1  0
  1 29  1  0
  1 30  1  0
  2  3  1  0
  2 27  2  0
  3  4  2  0
  3 31  1  0
  4  5  1  0
  4 32  1  0
  5  6  2  0
  5 26  1  0
  6  7  1  0
  7  8  2  0
  7 33  1  0
  8  9  1  0
  8 24  1  0
  9 10  2  0
  9 11  1  0
 11 12  1  0
 11 34  1  0
 12 13  1  0
 12 35  1  0
 12 36  1  0
 13 14  2  0
 13 23  1  0
 14 15  1  0
 14 37  1  0
 15 16  2  0
 15 38  1  0
 16 17  1  0
 16 22  1  0
 17 18  2  0
 17 19  1  0
 19 20  1  0
 19 21  1  0
 20 39  1  0
 20 40  1  0
 20 41  1  0
 21 42  1  0
 21 43  1  0
 21 44  1  0
 22 23  2  0
 22 45  1  0
 23 46  1  0
 24 25  2  0
 24 26  1  0
 26 27  1  0
 27 47  1  0
M  END

