
     RDKit          3D

 61 61  0  0  0  0  0  0  0  0999 V2000
    3.5805    0.6633    2.3358 C   0  0  0  0  0  0  0  0  0  0  0  0
    3.7158    0.2100    0.9046 C   0  0  0  0  0  0  0  0  0  0  0  0
    3.2810    0.8988   -0.1870 C   0  0  0  0  0  0  0  0  0  0  0  0
    2.5278    2.2077   -0.0962 C   0  0  0  0  0  0  0  0  0  0  0  0
    0.9951    2.0305   -0.1057 C   0  0  0  0  0  0  0  0  0  0  0  0
    0.2328    3.3579   -0.0575 C   0  0  0  0  0  0  0  0  0  0  0  0
   -1.2901    3.1946   -0.0604 C   0  0  0  0  0  0  0  0  0  0  0  0
   -2.0551    4.5206   -0.0107 C   0  0  0  0  0  0  0  0  0  0  0  0
   -3.5782    4.3588   -0.0165 C   0  0  0  0  0  0  0  0  0  0  0  0
   -4.3431    5.6848    0.0332 C   0  0  0  0  0  0  0  0  0  0  0  0
   -5.8662    5.5240    0.0254 C   0  0  0  0  0  0  0  0  0  0  0  0
   -6.6305    6.8504    0.0745 C   0  0  0  0  0  0  0  0  0  0  0  0
   -8.1537    6.6903    0.0652 C   0  0  0  0  0  0  0  0  0  0  0  0
   -8.9170    8.0171    0.1131 C   0  0  0  0  0  0  0  0  0  0  0  0
  -10.4401    7.8561    0.1035 C   0  0  0  0  0  0  0  0  0  0  0  0
  -11.2026    9.1827    0.1436 C   0  0  0  0  0  0  0  0  0  0  0  0
  -12.7219    9.0197    0.1469 C   0  0  0  0  0  0  0  0  0  0  0  0
  -13.4134   10.2510    0.1120 O   0  0  0  0  0  0  0  0  0  0  0  0
    3.4680    0.3608   -1.5926 C   0  0  0  0  0  0  0  0  0  0  0  0
    4.5906   -0.6685   -1.7118 C   0  0  0  0  0  0  0  0  0  0  0  0
    4.4414   -1.7385   -0.6350 C   0  0  0  0  0  0  0  0  0  0  0  0
    4.3491   -1.1368    0.7592 C   0  0  0  0  0  0  0  0  0  0  0  0
    4.7411   -1.7522    1.7357 O   0  0  0  0  0  0  0  0  0  0  0  0
    3.2407    1.7019    2.4311 H   0  0  0  0  0  0  0  0  0  0  0  0
    4.5423    0.5526    2.8591 H   0  0  0  0  0  0  0  0  0  0  0  0
    2.8707    0.0179    2.8803 H   0  0  0  0  0  0  0  0  0  0  0  0
    2.8127    2.8467   -0.9503 H   0  0  0  0  0  0  0  0  0  0  0  0
    2.8125    2.7613    0.8111 H   0  0  0  0  0  0  0  0  0  0  0  0
    0.7021    1.4026    0.7542 H   0  0  0  0  0  0  0  0  0  0  0  0
    0.6928    1.4684   -1.0073 H   0  0  0  0  0  0  0  0  0  0  0  0
    0.5352    3.9839   -0.9176 H   0  0  0  0  0  0  0  0  0  0  0  0
    0.5385    3.9211    0.8438 H   0  0  0  0  0  0  0  0  0  0  0  0
   -1.5912    2.5670    0.7989 H   0  0  0  0  0  0  0  0  0  0  0  0
   -1.5947    2.6315   -0.9623 H   0  0  0  0  0  0  0  0  0  0  0  0
   -1.7520    5.1488   -0.8690 H   0  0  0  0  0  0  0  0  0  0  0  0
   -1.7515    5.0829    0.8920 H   0  0  0  0  0  0  0  0  0  0  0  0
   -3.8814    3.7304    0.8416 H   0  0  0  0  0  0  0  0  0  0  0  0
   -3.8816    3.7965   -0.9193 H   0  0  0  0  0  0  0  0  0  0  0  0
   -4.0386    6.3136   -0.8242 H   0  0  0  0  0  0  0  0  0  0  0  0
   -4.0404    6.2465    0.9366 H   0  0  0  0  0  0  0  0  0  0  0  0
   -6.1710    4.8955    0.8829 H   0  0  0  0  0  0  0  0  0  0  0  0
   -6.1688    4.9622   -0.8780 H   0  0  0  0  0  0  0  0  0  0  0  0
   -6.3250    7.4791   -0.7826 H   0  0  0  0  0  0  0  0  0  0  0  0
   -6.3284    7.4119    0.9782 H   0  0  0  0  0  0  0  0  0  0  0  0
   -8.4597    6.0622    0.9226 H   0  0  0  0  0  0  0  0  0  0  0  0
   -8.4557    6.1285   -0.8384 H   0  0  0  0  0  0  0  0  0  0  0  0
   -8.6122    8.6451   -0.7446 H   0  0  0  0  0  0  0  0  0  0  0  0
   -8.6154    8.5793    1.0165 H   0  0  0  0  0  0  0  0  0  0  0  0
  -10.7446    7.2302    0.9632 H   0  0  0  0  0  0  0  0  0  0  0  0
  -10.7400    7.2910   -0.7986 H   0  0  0  0  0  0  0  0  0  0  0  0
  -10.9244    9.8104   -0.7213 H   0  0  0  0  0  0  0  0  0  0  0  0
  -10.9025    9.7518    1.0451 H   0  0  0  0  0  0  0  0  0  0  0  0
  -13.0297    8.4024    1.0178 H   0  0  0  0  0  0  0  0  0  0  0  0
  -13.0390    8.4669   -0.7535 H   0  0  0  0  0  0  0  0  0  0  0  0
  -13.1728   10.7504    0.9033 H   0  0  0  0  0  0  0  0  0  0  0  0
    3.6469    1.2058   -2.2791 H   0  0  0  0  0  0  0  0  0  0  0  0
    2.5125   -0.0888   -1.9298 H   0  0  0  0  0  0  0  0  0  0  0  0
    5.5627   -0.1591   -1.5886 H   0  0  0  0  0  0  0  0  0  0  0  0
    4.5949   -1.1198   -2.7172 H   0  0  0  0  0  0  0  0  0  0  0  0
    5.2647   -2.4682   -0.6328 H   0  0  0  0  0  0  0  0  0  0  0  0
    3.5093   -2.3128   -0.8003 H   0  0  0  0  0  0  0  0  0  0  0  0
  1  2  1  0
  1 24  1  0
  1 25  1  0
  1 26  1  0
  2  3  2  0
  2 22  1  0
  3  4  1  0
  3 19  1  0
  4  5  1  0
  4 27  1  0
  4 28  1  0
  5  6  1  0
  5 29  1  0
  5 30  1  0
  6  7  1  0
  6 31  1  0
  6 32  1  0
  7  8  1  0
  7 33  1  0
  7 34  1  0
  8  9  1  0
  8 35  1  0
  8 36  1  0
  9 10  1  0
  9 37  1  0
  9 38  1  0
 10 11  1  0
 10 39  1  0
 10 40  1  0
 11 12  1  0
 11 41  1  0
 11 42  1  0
 12 13  1  0
 12 43  1  0
 12 44  1  0
 13 14  1  0
 13 45  1  0
 13 46  1  0
 14 15  1  0
 14 47  1  0
 14 48  1  0
 15 16  1  0
 15 49  1  0
 15 50  1  0
 16 17  1  0
 16 51  1  0
 16 52  1  0
 17 18  1  0
 17 53  1  0
 17 54  1  0
 18 55  1  0
 19 20  1  0
 19 56  1  0
 19 57  1  0
 20 21  1  0
 20 58  1  0
 20 59  1  0
 21 22  1  0
 21 60  1  0
 21 61  1  0
 22 23  2  0
M  END

