
     RDKit          3D

 38 40  0  0  0  0  0  0  0  0999 V2000
    0.9684    0.0530    0.2306 C   0  0  0  0  0  0  0  0  0  0  0  0
    2.4773   -0.0121   -0.0644 C   0  0  1  0  0  0  0  0  0  0  0  0
    3.2792   -0.3697    1.1992 C   0  0  0  0  0  0  0  0  0  0  0  0
    2.7904   -0.9505   -1.2221 C   0  0  0  0  0  0  0  0  0  0  0  0
    3.3670   -0.4638   -2.4057 C   0  0  0  0  0  0  0  0  0  0  0  0
    3.6589   -1.3098   -3.4760 C   0  0  0  0  0  0  0  0  0  0  0  0
    3.3779   -2.6820   -3.3871 C   0  0  0  0  0  0  0  0  0  0  0  0
    3.6855   -3.5704   -4.5114 C   0  0  0  0  0  0  0  0  0  0  0  0
    4.2348   -3.1464   -5.6907 N   0  0  0  0  0  0  0  0  0  0  0  0
    4.3636   -4.1854   -6.4462 N   0  0  0  0  0  0  0  0  0  0  0  0
    3.8931   -5.2189   -5.7429 N   0  0  0  0  0  0  0  0  0  0  0  0
    3.9327   -6.5532   -6.2170 C   0  0  0  0  0  0  0  0  0  0  0  0
    4.3288   -7.5664   -5.3365 C   0  0  0  0  0  0  0  0  0  0  0  0
    4.4524   -8.8809   -5.7872 C   0  0  0  0  0  0  0  0  0  0  0  0
    4.2128   -9.1922   -7.1291 C   0  0  0  0  0  0  0  0  0  0  0  0
    3.8181   -8.1887   -8.0138 C   0  0  0  0  0  0  0  0  0  0  0  0
    3.6514   -6.8824   -7.5531 C   0  0  0  0  0  0  0  0  0  0  0  0
    3.0783   -5.9059   -8.5055 N   0  0  0  0  0  0  0  0  0  0  0  0
    2.2282   -5.1480   -8.0774 O   0  0  0  0  0  0  0  0  0  0  0  0
    3.4568   -5.9788   -9.6608 O   0  0  0  0  0  0  0  0  0  0  0  0
    3.4719   -4.8837   -4.5282 N   0  0  0  0  0  0  0  0  0  0  0  0
    2.7992   -3.1828   -2.2079 C   0  0  0  0  0  0  0  0  0  0  0  0
    2.5127   -2.3277   -1.1466 C   0  0  0  0  0  0  0  0  0  0  0  0
    0.7586    0.7879    1.0248 H   0  0  0  0  0  0  0  0  0  0  0  0
    0.5818   -0.9220    0.5703 H   0  0  0  0  0  0  0  0  0  0  0  0
    0.3971    0.3455   -0.6642 H   0  0  0  0  0  0  0  0  0  0  0  0
    2.7942    0.9970   -0.3801 H   0  0  0  0  0  0  0  0  0  0  0  0
    3.0007   -1.3641    1.5853 H   0  0  0  0  0  0  0  0  0  0  0  0
    3.0886    0.3622    2.0011 H   0  0  0  0  0  0  0  0  0  0  0  0
    4.3617   -0.3805    0.9977 H   0  0  0  0  0  0  0  0  0  0  0  0
    3.5922    0.6031   -2.4917 H   0  0  0  0  0  0  0  0  0  0  0  0
    4.1062   -0.9165   -4.3906 H   0  0  0  0  0  0  0  0  0  0  0  0
    4.5449   -7.2983   -4.3018 H   0  0  0  0  0  0  0  0  0  0  0  0
    4.7574   -9.6621   -5.0874 H   0  0  0  0  0  0  0  0  0  0  0  0
    4.3269  -10.2171   -7.4881 H   0  0  0  0  0  0  0  0  0  0  0  0
    3.6141   -8.3982   -9.0642 H   0  0  0  0  0  0  0  0  0  0  0  0
    2.5741   -4.2486   -2.1335 H   0  0  0  0  0  0  0  0  0  0  0  0
    2.0618   -2.7432   -0.2416 H   0  0  0  0  0  0  0  0  0  0  0  0
  1  2  1  0
  1 24  1  0
  1 25  1  0
  1 26  1  0
  2  3  1  0
  2  4  1  0
  2 27  1  6
  3 28  1  0
  3 29  1  0
  3 30  1  0
  4  5  2  0
  4 23  1  0
  5  6  1  0
  5 31  1  0
  6  7  2  0
  6 32  1  0
  7  8  1  0
  7 22  1  0
  8  9  1  0
  8 21  2  0
  9 10  2  0
 10 11  1  0
 11 12  1  0
 11 21  1  0
 12 13  2  0
 12 17  1  0
 13 14  1  0
 13 33  1  0
 14 15  2  0
 14 34  1  0
 15 16  1  0
 15 35  1  0
 16 17  2  0
 16 36  1  0
 17 18  1  0
 18 19  2  0
 18 20  1  0
 22 23  2  0
 22 37  1  0
 23 38  1  0
M  CHG  2  18   1  20  -1
M  END

