
     RDKit          3D

 37 38  0  0  0  0  0  0  0  0999 V2000
    7.6351   -2.6485   -5.6484 C   0  0  0  0  0  0  0  0  0  0  0  0
    7.3389   -2.5113   -4.1736 C   0  0  0  0  0  0  0  0  0  0  0  0
    8.3562   -2.5289   -3.2057 C   0  0  0  0  0  0  0  0  0  0  0  0
    8.0820   -2.4016   -1.8465 C   0  0  0  0  0  0  0  0  0  0  0  0
    6.7604   -2.2479   -1.3761 C   0  0  0  0  0  0  0  0  0  0  0  0
    6.4975   -2.0797   -0.0406 N   0  0  0  0  0  0  0  0  0  0  0  0
    5.7214   -2.2482   -2.3471 C   0  0  0  0  0  0  0  0  0  0  0  0
    4.0215   -2.0085   -1.8465 S   0  0  0  0  0  0  0  0  0  0  0  0
    3.4784   -3.6448   -1.3438 C   0  0  0  0  0  0  0  0  0  0  0  0
    4.2185   -4.8168   -1.5382 C   0  0  0  0  0  0  0  0  0  0  0  0
    3.6995   -6.0476   -1.1237 C   0  0  0  0  0  0  0  0  0  0  0  0
    2.4407   -6.1557   -0.5164 C   0  0  0  0  0  0  0  0  0  0  0  0
    1.8934   -7.5081   -0.0783 C   0  0  1  0  0  0  0  0  0  0  0  0
    1.6706   -7.5776    1.4425 C   0  0  0  0  0  0  0  0  0  0  0  0
    0.6157   -7.8892   -0.8463 C   0  0  0  0  0  0  0  0  0  0  0  0
    1.7097   -4.9686   -0.3327 C   0  0  0  0  0  0  0  0  0  0  0  0
    2.2154   -3.7328   -0.7332 C   0  0  0  0  0  0  0  0  0  0  0  0
    6.0249   -2.3682   -3.7094 C   0  0  0  0  0  0  0  0  0  0  0  0
    8.7188   -2.6713   -5.8388 H   0  0  0  0  0  0  0  0  0  0  0  0
    7.2129   -1.8104   -6.2279 H   0  0  0  0  0  0  0  0  0  0  0  0
    7.2063   -3.5755   -6.0667 H   0  0  0  0  0  0  0  0  0  0  0  0
    9.3971   -2.6411   -3.5239 H   0  0  0  0  0  0  0  0  0  0  0  0
    8.9036   -2.4067   -1.1244 H   0  0  0  0  0  0  0  0  0  0  0  0
    7.2033   -2.3346    0.6357 H   0  0  0  0  0  0  0  0  0  0  0  0
    5.5314   -2.1065    0.2612 H   0  0  0  0  0  0  0  0  0  0  0  0
    5.1991   -4.7723   -2.0157 H   0  0  0  0  0  0  0  0  0  0  0  0
    4.2954   -6.9515   -1.2839 H   0  0  0  0  0  0  0  0  0  0  0  0
    2.6637   -8.2576   -0.3312 H   0  0  0  0  0  0  0  0  0  0  0  0
    0.8979   -6.8621    1.7693 H   0  0  0  0  0  0  0  0  0  0  0  0
    2.5952   -7.3446    1.9937 H   0  0  0  0  0  0  0  0  0  0  0  0
    1.3378   -8.5845    1.7441 H   0  0  0  0  0  0  0  0  0  0  0  0
   -0.2069   -7.1871   -0.6313 H   0  0  0  0  0  0  0  0  0  0  0  0
    0.2734   -8.8979   -0.5618 H   0  0  0  0  0  0  0  0  0  0  0  0
    0.7852   -7.8804   -1.9343 H   0  0  0  0  0  0  0  0  0  0  0  0
    0.7226   -5.0021    0.1370 H   0  0  0  0  0  0  0  0  0  0  0  0
    1.6255   -2.8261   -0.5714 H   0  0  0  0  0  0  0  0  0  0  0  0
    5.1943   -2.3531   -4.4205 H   0  0  0  0  0  0  0  0  0  0  0  0
  1  2  1  0
  1 19  1  0
  1 20  1  0
  1 21  1  0
  2  3  2  0
  2 18  1  0
  3  4  1  0
  3 22  1  0
  4  5  2  0
  4 23  1  0
  5  6  1  0
  5  7  1  0
  6 24  1  0
  6 25  1  0
  7  8  1  0
  7 18  2  0
  8  9  1  0
  9 10  2  0
  9 17  1  0
 10 11  1  0
 10 26  1  0
 11 12  2  0
 11 27  1  0
 12 13  1  0
 12 16  1  0
 13 14  1  0
 13 15  1  0
 13 28  1  6
 14 29  1  0
 14 30  1  0
 14 31  1  0
 15 32  1  0
 15 33  1  0
 15 34  1  0
 16 17  2  0
 16 35  1  0
 17 36  1  0
 18 37  1  0
M  END

