
     RDKit          3D

 49 51  0  0  0  0  0  0  0  0999 V2000
    3.5303   -0.7897   -2.2586 C   0  0  0  0  0  0  0  0  0  0  0  0
    2.8806   -0.5433   -0.8894 C   0  0  0  0  0  0  0  0  0  0  0  0
    3.2435   -1.5726    0.1439 C   0  0  0  0  0  0  0  0  0  0  0  0
    4.4972   -1.7544    0.7912 C   0  0  0  0  0  0  0  0  0  0  0  0
    4.2976   -2.8493    1.6186 C   0  0  0  0  0  0  0  0  0  0  0  0
    5.1241   -3.5399    2.5069 N   0  0  0  0  0  0  0  0  0  0  0  0
    6.4789   -3.2636    2.6853 C   0  0  0  0  0  0  0  0  0  0  0  0
    7.0404   -2.3575    2.0951 O   0  0  0  0  0  0  0  0  0  0  0  0
    7.1254   -4.0804    3.6028 N   0  0  0  0  0  0  0  0  0  0  0  0
    6.7262   -5.4391    3.9609 C   0  0  0  0  0  0  0  0  0  0  0  0
    7.6272   -6.4782    3.2778 C   0  0  0  0  0  0  0  0  0  0  0  0
    9.1089   -6.2066    3.5586 C   0  0  0  0  0  0  0  0  0  0  0  0
    9.4917   -4.7525    3.2116 C   0  0  2  0  0  0  0  0  0  0  0  0
   10.9122   -4.4462    3.6038 C   0  0  0  0  0  0  0  0  0  0  0  0
   11.3846   -4.5879    4.8057 N   0  0  0  0  0  0  0  0  0  0  0  0
   12.7092   -4.2157    4.9023 C   0  0  0  0  0  0  0  0  0  0  0  0
   13.3785   -4.3323    6.2414 C   0  0  0  0  0  0  0  0  0  0  0  0
   13.2803   -3.7692    3.7290 C   0  0  0  0  0  0  0  0  0  0  0  0
   14.6735   -3.2908    3.4520 C   0  0  0  0  0  0  0  0  0  0  0  0
   12.0822   -3.8250    2.4583 S   0  0  0  0  0  0  0  0  0  0  0  0
    8.5179   -3.7751    3.9125 C   0  0  0  0  0  0  0  0  0  0  0  0
    3.0055   -3.2591    1.4355 N   0  0  0  0  0  0  0  0  0  0  0  0
    2.3167   -4.3499    2.0811 C   0  0  0  0  0  0  0  0  0  0  0  0
    2.3534   -2.4758    0.5417 N   0  0  0  0  0  0  0  0  0  0  0  0
    3.2369   -0.0115   -2.9821 H   0  0  0  0  0  0  0  0  0  0  0  0
    3.2266   -1.7666   -2.6675 H   0  0  0  0  0  0  0  0  0  0  0  0
    4.6300   -0.7859   -2.1878 H   0  0  0  0  0  0  0  0  0  0  0  0
    1.7837   -0.5422   -0.9891 H   0  0  0  0  0  0  0  0  0  0  0  0
    3.1695    0.4575   -0.5236 H   0  0  0  0  0  0  0  0  0  0  0  0
    5.4154   -1.1875    0.6910 H   0  0  0  0  0  0  0  0  0  0  0  0
    4.6603   -4.0966    3.2127 H   0  0  0  0  0  0  0  0  0  0  0  0
    5.6794   -5.6239    3.6873 H   0  0  0  0  0  0  0  0  0  0  0  0
    6.7957   -5.5505    5.0592 H   0  0  0  0  0  0  0  0  0  0  0  0
    7.4382   -6.4462    2.1902 H   0  0  0  0  0  0  0  0  0  0  0  0
    7.3499   -7.4883    3.6236 H   0  0  0  0  0  0  0  0  0  0  0  0
    9.7435   -6.9081    2.9931 H   0  0  0  0  0  0  0  0  0  0  0  0
    9.3304   -6.3727    4.6266 H   0  0  0  0  0  0  0  0  0  0  0  0
    9.3840   -4.5997    2.1247 H   0  0  0  0  0  0  0  0  0  0  0  0
   12.8519   -3.7166    6.9889 H   0  0  0  0  0  0  0  0  0  0  0  0
   14.4298   -4.0163    6.2149 H   0  0  0  0  0  0  0  0  0  0  0  0
   13.3398   -5.3736    6.6010 H   0  0  0  0  0  0  0  0  0  0  0  0
   15.2835   -3.3259    4.3653 H   0  0  0  0  0  0  0  0  0  0  0  0
   14.6845   -2.2510    3.0843 H   0  0  0  0  0  0  0  0  0  0  0  0
   15.1769   -3.9113    2.6916 H   0  0  0  0  0  0  0  0  0  0  0  0
    8.7197   -2.7444    3.6009 H   0  0  0  0  0  0  0  0  0  0  0  0
    8.6699   -3.8521    5.0032 H   0  0  0  0  0  0  0  0  0  0  0  0
    2.8618   -5.3007    1.9546 H   0  0  0  0  0  0  0  0  0  0  0  0
    1.3352   -4.4394    1.6004 H   0  0  0  0  0  0  0  0  0  0  0  0
    2.1603   -4.1655    3.1597 H   0  0  0  0  0  0  0  0  0  0  0  0
  1  2  1  0
  1 25  1  0
  1 26  1  0
  1 27  1  0
  2  3  1  0
  2 28  1  0
  2 29  1  0
  3  4  1  0
  3 24  2  0
  4  5  2  0
  4 30  1  0
  5  6  1  0
  5 22  1  0
  6  7  1  0
  6 31  1  0
  7  8  2  0
  7  9  1  0
  9 10  1  0
  9 21  1  0
 10 11  1  0
 10 32  1  0
 10 33  1  0
 11 12  1  0
 11 34  1  0
 11 35  1  0
 12 13  1  0
 12 36  1  0
 12 37  1  0
 13 14  1  0
 13 21  1  0
 13 38  1  6
 14 15  2  0
 14 20  1  0
 15 16  1  0
 16 17  1  0
 16 18  2  0
 17 39  1  0
 17 40  1  0
 17 41  1  0
 18 19  1  0
 18 20  1  0
 19 42  1  0
 19 43  1  0
 19 44  1  0
 21 45  1  0
 21 46  1  0
 22 23  1  0
 22 24  1  0
 23 47  1  0
 23 48  1  0
 23 49  1  0
M  END

