
     RDKit          3D

 54 55  0  0  0  0  0  0  0  0999 V2000
    0.9908   -0.7338   -0.4271 C   0  0  0  0  0  0  0  0  0  0  0  0
    2.5183   -0.6915   -0.5793 C   0  0  1  0  0  0  0  0  0  0  0  0
    3.0245   -1.5968   -1.7222 C   0  0  0  0  0  0  0  0  0  0  0  0
    2.7215   -1.0271   -3.1150 C   0  0  0  0  0  0  0  0  0  0  0  0
    3.2512    0.4050   -3.2633 C   0  0  0  0  0  0  0  0  0  0  0  0
    2.7378    1.3361   -2.1502 C   0  0  2  0  0  0  0  0  0  0  0  0
    3.2457    2.7706   -2.3157 C   0  0  0  0  0  0  0  0  0  0  0  0
    3.0546    0.7565   -0.7446 C   0  0  2  0  0  0  0  0  0  0  0  0
    4.4741    0.8285   -0.4237 N   0  0  0  0  0  0  0  0  0  0  0  0
    4.9708    1.6848    0.5409 C   0  0  0  0  0  0  0  0  0  0  0  0
    4.2446    2.4107    1.2147 O   0  0  0  0  0  0  0  0  0  0  0  0
    6.3382    1.6511    0.6637 N   0  0  0  0  0  0  0  0  0  0  0  0
    7.0990    2.3904    1.6760 C   0  0  1  0  0  0  0  0  0  0  0  0
    6.9275    3.9121    1.4844 C   0  0  0  0  0  0  0  0  0  0  0  0
    6.6677    1.9786    3.1041 C   0  0  0  0  0  0  0  0  0  0  0  0
    8.5518    2.0005    1.4584 C   0  0  0  0  0  0  0  0  0  0  0  0
    9.7160    2.5276    1.9928 C   0  0  0  0  0  0  0  0  0  0  0  0
   10.7077    1.7604    1.4664 N   0  0  0  0  0  0  0  0  0  0  0  0
   12.1619    1.8605    1.6793 C   0  0  1  0  0  0  0  0  0  0  0  0
   12.6908    0.5875    2.3442 C   0  0  0  0  0  0  0  0  0  0  0  0
   12.8717    2.1872    0.3634 C   0  0  0  0  0  0  0  0  0  0  0  0
   10.2048    0.8236    0.6597 N   0  0  0  0  0  0  0  0  0  0  0  0
    8.9102    0.9637    0.6544 N   0  0  0  0  0  0  0  0  0  0  0  0
    0.6496   -1.7617   -0.2221 H   0  0  0  0  0  0  0  0  0  0  0  0
    0.4600   -0.3879   -1.3278 H   0  0  0  0  0  0  0  0  0  0  0  0
    0.6621   -0.0996    0.4120 H   0  0  0  0  0  0  0  0  0  0  0  0
    2.9464   -1.0682    0.3652 H   0  0  0  0  0  0  0  0  0  0  0  0
    2.5954   -2.6081   -1.6172 H   0  0  0  0  0  0  0  0  0  0  0  0
    4.1182   -1.7263   -1.6208 H   0  0  0  0  0  0  0  0  0  0  0  0
    1.6315   -1.0313   -3.2923 H   0  0  0  0  0  0  0  0  0  0  0  0
    3.1571   -1.6785   -3.8915 H   0  0  0  0  0  0  0  0  0  0  0  0
    2.9750    0.8166   -4.2492 H   0  0  0  0  0  0  0  0  0  0  0  0
    4.3585    0.3930   -3.2464 H   0  0  0  0  0  0  0  0  0  0  0  0
    1.6356    1.3619   -2.2291 H   0  0  0  0  0  0  0  0  0  0  0  0
    4.3468    2.8078   -2.2936 H   0  0  0  0  0  0  0  0  0  0  0  0
    2.8796    3.4222   -1.5071 H   0  0  0  0  0  0  0  0  0  0  0  0
    2.9160    3.1961   -3.2778 H   0  0  0  0  0  0  0  0  0  0  0  0
    2.5752    1.3966    0.0099 H   0  0  0  0  0  0  0  0  0  0  0  0
    5.1295    0.3105   -0.9953 H   0  0  0  0  0  0  0  0  0  0  0  0
    6.8792    0.9456    0.1700 H   0  0  0  0  0  0  0  0  0  0  0  0
    5.8680    4.1762    1.5975 H   0  0  0  0  0  0  0  0  0  0  0  0
    7.2642    4.2122    0.4804 H   0  0  0  0  0  0  0  0  0  0  0  0
    7.5145    4.4695    2.2319 H   0  0  0  0  0  0  0  0  0  0  0  0
    5.6042    2.2134    3.2469 H   0  0  0  0  0  0  0  0  0  0  0  0
    7.2604    2.5158    3.8615 H   0  0  0  0  0  0  0  0  0  0  0  0
    6.8176    0.8977    3.2499 H   0  0  0  0  0  0  0  0  0  0  0  0
    9.9128    3.3506    2.6737 H   0  0  0  0  0  0  0  0  0  0  0  0
   12.2853    2.7067    2.3739 H   0  0  0  0  0  0  0  0  0  0  0  0
   12.5384   -0.2808    1.6865 H   0  0  0  0  0  0  0  0  0  0  0  0
   12.1743    0.3945    3.2968 H   0  0  0  0  0  0  0  0  0  0  0  0
   13.7677    0.6887    2.5491 H   0  0  0  0  0  0  0  0  0  0  0  0
   12.7262    1.3745   -0.3633 H   0  0  0  0  0  0  0  0  0  0  0  0
   13.9512    2.3132    0.5387 H   0  0  0  0  0  0  0  0  0  0  0  0
   12.4820    3.1180   -0.0762 H   0  0  0  0  0  0  0  0  0  0  0  0
  1  2  1  0
  1 24  1  0
  1 25  1  0
  1 26  1  0
  2  3  1  0
  2  8  1  0
  2 27  1  1
  3  4  1  0
  3 28  1  0
  3 29  1  0
  4  5  1  0
  4 30  1  0
  4 31  1  0
  5  6  1  0
  5 32  1  0
  5 33  1  0
  6  7  1  0
  6  8  1  0
  6 34  1  6
  7 35  1  0
  7 36  1  0
  7 37  1  0
  8  9  1  0
  8 38  1  1
  9 10  1  0
  9 39  1  0
 10 11  2  0
 10 12  1  0
 13 12  1  6
 12 40  1  0
 13 14  1  0
 13 15  1  0
 13 16  1  0
 14 41  1  0
 14 42  1  0
 14 43  1  0
 15 44  1  0
 15 45  1  0
 15 46  1  0
 16 17  2  0
 16 23  1  0
 17 18  1  0
 17 47  1  0
 18 19  1  0
 18 22  1  0
 19 20  1  0
 19 21  1  0
 19 48  1  1
 20 49  1  0
 20 50  1  0
 20 51  1  0
 21 52  1  0
 21 53  1  0
 21 54  1  0
 22 23  2  0
M  END

