
     RDKit          3D

 32 33  0  0  0  0  0  0  0  0999 V2000
    0.7231    0.0760    0.6501 C   0  0  0  0  0  0  0  0  0  0  0  0
    2.2455    0.1223    0.4089 C   0  0  1  0  0  0  0  0  0  0  0  0
    2.8293    1.4424    0.8605 C   0  0  0  0  0  0  0  0  0  0  0  0
    3.4072    2.3412    0.0457 C   0  0  0  0  0  0  0  0  0  0  0  0
    3.9918    3.6436    0.4079 C   0  0  0  0  0  0  0  0  0  0  0  0
    4.0633    4.1200    1.7334 C   0  0  0  0  0  0  0  0  0  0  0  0
    4.6257    5.3627    2.0200 C   0  0  0  0  0  0  0  0  0  0  0  0
    5.1342    6.1661    0.9918 C   0  0  0  0  0  0  0  0  0  0  0  0
    5.0739    5.7101   -0.3272 C   0  0  0  0  0  0  0  0  0  0  0  0
    4.5101    4.4646   -0.6125 C   0  0  0  0  0  0  0  0  0  0  0  0
    2.9784   -1.0481    1.0645 C   0  0  0  0  0  0  0  0  0  0  0  0
    3.8610   -1.8420    0.3158 C   0  0  0  0  0  0  0  0  0  0  0  0
    4.5582   -2.9060    0.8943 C   0  0  0  0  0  0  0  0  0  0  0  0
    4.3705   -3.1750    2.2470 C   0  0  0  0  0  0  0  0  0  0  0  0
    5.0343   -4.1946    2.8139 F   0  0  0  0  0  0  0  0  0  0  0  0
    3.5062   -2.4081    3.0250 C   0  0  0  0  0  0  0  0  0  0  0  0
    2.8166   -1.3509    2.4273 C   0  0  0  0  0  0  0  0  0  0  0  0
    0.2212    0.8796    0.0892 H   0  0  0  0  0  0  0  0  0  0  0  0
    0.4746    0.2131    1.7148 H   0  0  0  0  0  0  0  0  0  0  0  0
    0.3029   -0.8900    0.3283 H   0  0  0  0  0  0  0  0  0  0  0  0
    2.4133    0.0401   -0.6777 H   0  0  0  0  0  0  0  0  0  0  0  0
    2.7552    1.6467    1.9357 H   0  0  0  0  0  0  0  0  0  0  0  0
    3.4597    2.1002   -1.0235 H   0  0  0  0  0  0  0  0  0  0  0  0
    3.6771    3.5097    2.5527 H   0  0  0  0  0  0  0  0  0  0  0  0
    4.6703    5.7091    3.0560 H   0  0  0  0  0  0  0  0  0  0  0  0
    5.5752    7.1397    1.2203 H   0  0  0  0  0  0  0  0  0  0  0  0
    5.4682    6.3262   -1.1396 H   0  0  0  0  0  0  0  0  0  0  0  0
    4.4673    4.1151   -1.6481 H   0  0  0  0  0  0  0  0  0  0  0  0
    4.0089   -1.6256   -0.7458 H   0  0  0  0  0  0  0  0  0  0  0  0
    5.2425   -3.5270    0.3127 H   0  0  0  0  0  0  0  0  0  0  0  0
    3.3827   -2.6473    4.0832 H   0  0  0  0  0  0  0  0  0  0  0  0
    2.1388   -0.7548    3.0436 H   0  0  0  0  0  0  0  0  0  0  0  0
  1  2  1  0
  1 18  1  0
  1 19  1  0
  1 20  1  0
  2  3  1  0
  2 11  1  0
  2 21  1  6
  3  4  2  0
  3 22  1  0
  4  5  1  0
  4 23  1  0
  5  6  2  0
  5 10  1  0
  6  7  1  0
  6 24  1  0
  7  8  2  0
  7 25  1  0
  8  9  1  0
  8 26  1  0
  9 10  2  0
  9 27  1  0
 10 28  1  0
 11 12  2  0
 11 17  1  0
 12 13  1  0
 12 29  1  0
 13 14  2  0
 13 30  1  0
 14 15  1  0
 14 16  1  0
 16 17  2  0
 16 31  1  0
 17 32  1  0
M  END

