
     RDKit          3D

 30 30  0  0  0  0  0  0  0  0999 V2000
    0.9823   -0.4966   -0.0204 C   0  0  0  0  0  0  0  0  0  0  0  0
    2.3448   -0.2310    0.2076 O   0  0  0  0  0  0  0  0  0  0  0  0
    2.6291    0.9467    0.9179 C   0  0  1  0  0  0  0  0  0  0  0  0
    2.1678    0.8289    2.3866 C   0  0  0  0  0  0  0  0  0  0  0  0
    2.0763   -0.2681    2.8980 O   0  0  0  0  0  0  0  0  0  0  0  0
    1.8574    2.0480    3.2312 C   0  0  0  0  0  0  0  0  0  0  0  0
    1.7679    1.8356    4.6219 C   0  0  0  0  0  0  0  0  0  0  0  0
    1.4714    2.8605    5.5131 C   0  0  0  0  0  0  0  0  0  0  0  0
    1.2380    4.1424    5.0177 C   0  0  0  0  0  0  0  0  0  0  0  0
    0.9476    5.1486    5.8372 F   0  0  0  0  0  0  0  0  0  0  0  0
    1.3030    4.3936    3.6460 C   0  0  0  0  0  0  0  0  0  0  0  0
    1.0694    5.6140    3.1715 F   0  0  0  0  0  0  0  0  0  0  0  0
    1.6114    3.3500    2.7680 C   0  0  0  0  0  0  0  0  0  0  0  0
    1.6440    3.6688    1.4685 F   0  0  0  0  0  0  0  0  0  0  0  0
    4.1664    1.1623    0.8016 C   0  0  1  0  0  0  0  0  0  0  0  0
    4.6464    2.5321    1.2935 C   0  0  0  0  0  0  0  0  0  0  0  0
    4.9593    0.0151    1.4385 C   0  0  0  0  0  0  0  0  0  0  0  0
    0.9276   -1.3776   -0.6762 H   0  0  0  0  0  0  0  0  0  0  0  0
    0.4789    0.3509   -0.5286 H   0  0  0  0  0  0  0  0  0  0  0  0
    0.4359   -0.7247    0.9127 H   0  0  0  0  0  0  0  0  0  0  0  0
    2.1192    1.8049    0.4461 H   0  0  0  0  0  0  0  0  0  0  0  0
    1.9394    0.8186    4.9775 H   0  0  0  0  0  0  0  0  0  0  0  0
    1.4119    2.6915    6.5897 H   0  0  0  0  0  0  0  0  0  0  0  0
    4.3324    1.1170   -0.2889 H   0  0  0  0  0  0  0  0  0  0  0  0
    4.5524    2.6351    2.3871 H   0  0  0  0  0  0  0  0  0  0  0  0
    4.0924    3.3593    0.8249 H   0  0  0  0  0  0  0  0  0  0  0  0
    5.7127    2.6623    1.0504 H   0  0  0  0  0  0  0  0  0  0  0  0
    4.8946    0.0346    2.5389 H   0  0  0  0  0  0  0  0  0  0  0  0
    6.0244    0.0941    1.1673 H   0  0  0  0  0  0  0  0  0  0  0  0
    4.5833   -0.9585    1.0957 H   0  0  0  0  0  0  0  0  0  0  0  0
  1  2  1  0
  1 18  1  0
  1 19  1  0
  1 20  1  0
  2  3  1  0
  3  4  1  0
  3 15  1  0
  3 21  1  6
  4  5  2  0
  4  6  1  0
  6  7  2  0
  6 13  1  0
  7  8  1  0
  7 22  1  0
  8  9  2  0
  8 23  1  0
  9 10  1  0
  9 11  1  0
 11 12  1  0
 11 13  2  0
 13 14  1  0
 15 16  1  0
 15 17  1  0
 15 24  1  6
 16 25  1  0
 16 26  1  0
 16 27  1  0
 17 28  1  0
 17 29  1  0
 17 30  1  0
M  END

