
     RDKit          3D

 40 42  0  0  0  0  0  0  0  0999 V2000
    1.7901    1.1655   -0.7808 C   0  0  0  0  0  0  0  0  0  0  0  0
    2.6546    0.1882    0.0117 C   0  0  0  0  0  0  0  0  0  0  0  0
    3.1098   -1.0509   -0.7939 C   0  0  1  0  0  0  0  0  0  0  0  0
    4.1549   -1.8335    0.0278 C   0  0  0  0  0  0  0  0  0  0  0  0
    5.2260   -1.3165    0.2969 O   0  0  0  0  0  0  0  0  0  0  0  0
    3.8161   -3.0836    0.4530 N   0  0  0  0  0  0  0  0  0  0  0  0
    2.5863   -3.8013    0.1483 C   0  0  0  0  0  0  0  0  0  0  0  0
    1.4957   -2.8113   -0.2405 C   0  0  0  0  0  0  0  0  0  0  0  0
    2.0075   -1.8974   -1.2541 N   0  0  0  0  0  0  0  0  0  0  0  0
    1.5243   -2.0245   -2.5470 C   0  0  0  0  0  0  0  0  0  0  0  0
    0.6451   -2.8409   -2.8045 O   0  0  0  0  0  0  0  0  0  0  0  0
    2.0792   -1.1390   -3.6204 C   0  0  1  0  0  0  0  0  0  0  0  0
    1.9597   -1.6199   -5.0526 C   0  0  0  0  0  0  0  0  0  0  0  0
    1.1318   -0.4549   -4.6208 C   0  0  1  0  0  0  0  0  0  0  0  0
   -0.4044   -0.5445   -4.5363 C   0  0  0  0  0  0  0  0  0  0  0  0
   -0.8874    0.9109   -4.6649 C   0  0  0  0  0  0  0  0  0  0  0  0
    0.1554    1.5573   -5.5883 C   0  0  0  0  0  0  0  0  0  0  0  0
    1.4831    0.9765   -5.0736 C   0  0  0  0  0  0  0  0  0  0  0  0
    1.4842    2.0148   -0.1500 H   0  0  0  0  0  0  0  0  0  0  0  0
    0.8743    0.6851   -1.1598 H   0  0  0  0  0  0  0  0  0  0  0  0
    2.3356    1.5760   -1.6463 H   0  0  0  0  0  0  0  0  0  0  0  0
    2.1140   -0.1456    0.9145 H   0  0  0  0  0  0  0  0  0  0  0  0
    3.5706    0.6839    0.3679 H   0  0  0  0  0  0  0  0  0  0  0  0
    3.6792   -0.6961   -1.6616 H   0  0  0  0  0  0  0  0  0  0  0  0
    4.5612   -3.5683    0.9455 H   0  0  0  0  0  0  0  0  0  0  0  0
    2.2728   -4.3788    1.0342 H   0  0  0  0  0  0  0  0  0  0  0  0
    2.7424   -4.5209   -0.6770 H   0  0  0  0  0  0  0  0  0  0  0  0
    1.1713   -2.2391    0.6458 H   0  0  0  0  0  0  0  0  0  0  0  0
    0.6289   -3.3340   -0.6599 H   0  0  0  0  0  0  0  0  0  0  0  0
    2.9678   -0.5522   -3.3872 H   0  0  0  0  0  0  0  0  0  0  0  0
    1.4457   -2.5769   -5.1785 H   0  0  0  0  0  0  0  0  0  0  0  0
    2.8145   -1.4470   -5.7138 H   0  0  0  0  0  0  0  0  0  0  0  0
   -0.7582   -1.0538   -3.6306 H   0  0  0  0  0  0  0  0  0  0  0  0
   -0.7755   -1.1375   -5.3895 H   0  0  0  0  0  0  0  0  0  0  0  0
   -0.8672    1.4083   -3.6788 H   0  0  0  0  0  0  0  0  0  0  0  0
   -1.9178    0.9884   -5.0458 H   0  0  0  0  0  0  0  0  0  0  0  0
    0.1343    2.6585   -5.5781 H   0  0  0  0  0  0  0  0  0  0  0  0
   -0.0202    1.2355   -6.6298 H   0  0  0  0  0  0  0  0  0  0  0  0
    1.8331    1.5698   -4.2110 H   0  0  0  0  0  0  0  0  0  0  0  0
    2.2879    0.9951   -5.8259 H   0  0  0  0  0  0  0  0  0  0  0  0
  1  2  1  0
  1 19  1  0
  1 20  1  0
  1 21  1  0
  2  3  1  0
  2 22  1  0
  2 23  1  0
  3  4  1  0
  3  9  1  0
  3 24  1  6
  4  5  2  0
  4  6  1  0
  6  7  1  0
  6 25  1  0
  7  8  1  0
  7 26  1  0
  7 27  1  0
  8  9  1  0
  8 28  1  0
  8 29  1  0
  9 10  1  0
 10 11  2  0
 10 12  1  0
 12 13  1  0
 12 14  1  0
 12 30  1  1
 14 13  1  6
 13 31  1  0
 13 32  1  0
 14 15  1  0
 14 18  1  0
 15 16  1  0
 15 33  1  0
 15 34  1  0
 16 17  1  0
 16 35  1  0
 16 36  1  0
 17 18  1  0
 17 37  1  0
 17 38  1  0
 18 39  1  0
 18 40  1  0
M  END

