
     RDKit          3D

 48 51  0  0  0  0  0  0  0  0999 V2000
   10.0506    3.4952    5.1590 C   0  0  0  0  0  0  0  0  0  0  0  0
    9.3154    3.5503    3.8304 C   0  0  0  0  0  0  0  0  0  0  0  0
    8.0715    2.8246    3.8804 O   0  0  0  0  0  0  0  0  0  0  0  0
    8.1143    1.5096    3.6330 C   0  0  0  0  0  0  0  0  0  0  0  0
    9.1244    0.8916    3.3624 O   0  0  0  0  0  0  0  0  0  0  0  0
    6.7850    0.8784    3.7190 C   0  0  0  0  0  0  0  0  0  0  0  0
    5.7098    1.6546    4.0569 O   0  0  0  0  0  0  0  0  0  0  0  0
    4.6261    0.8381    4.0644 C   0  0  0  0  0  0  0  0  0  0  0  0
    3.3143    1.2148    4.3525 C   0  0  0  0  0  0  0  0  0  0  0  0
    2.3536    0.2063    4.2941 C   0  0  0  0  0  0  0  0  0  0  0  0
    2.6974   -1.1229    3.9599 C   0  0  0  0  0  0  0  0  0  0  0  0
    4.0111   -1.4837    3.6750 C   0  0  0  0  0  0  0  0  0  0  0  0
    4.9987   -0.4806    3.7294 C   0  0  0  0  0  0  0  0  0  0  0  0
    6.4250   -0.4338    3.5018 C   0  0  0  0  0  0  0  0  0  0  0  0
    7.3225   -1.5592    3.1058 C   0  0  0  0  0  0  0  0  0  0  0  0
    7.9624   -2.5243    4.5545 S   0  0  0  0  0  0  0  0  0  0  0  0
    6.9997   -3.9965    4.4199 C   0  0  0  0  0  0  0  0  0  0  0  0
    6.1017   -4.2740    3.5102 N   0  0  0  0  0  0  0  0  0  0  0  0
    5.6445   -5.5459    3.8188 C   0  0  0  0  0  0  0  0  0  0  0  0
    4.6852   -6.3420    3.1781 C   0  0  0  0  0  0  0  0  0  0  0  0
    4.4145   -7.6020    3.7130 C   0  0  0  0  0  0  0  0  0  0  0  0
    5.0809   -8.0698    4.8628 C   0  0  0  0  0  0  0  0  0  0  0  0
    6.0414   -7.2919    5.5153 C   0  0  0  0  0  0  0  0  0  0  0  0
    6.3076   -6.0318    4.9733 C   0  0  0  0  0  0  0  0  0  0  0  0
    7.1874   -5.0158    5.3411 N   0  0  0  0  0  0  0  0  0  0  0  0
    8.0704   -5.0104    6.4878 C   0  0  0  0  0  0  0  0  0  0  0  0
    7.4019   -4.3951    7.7387 C   0  0  0  0  0  0  0  0  0  0  0  0
    8.2754   -4.4427    8.9116 C   0  0  0  0  0  0  0  0  0  0  0  0
    8.9862   -4.4973    9.8247 N   0  0  0  0  0  0  0  0  0  0  0  0
   10.9527    4.1261    5.1120 H   0  0  0  0  0  0  0  0  0  0  0  0
   10.3653    2.4670    5.3908 H   0  0  0  0  0  0  0  0  0  0  0  0
    9.4135    3.8653    5.9771 H   0  0  0  0  0  0  0  0  0  0  0  0
    9.9349    3.1409    3.0190 H   0  0  0  0  0  0  0  0  0  0  0  0
    9.0229    4.5793    3.5771 H   0  0  0  0  0  0  0  0  0  0  0  0
    3.0648    2.2460    4.6070 H   0  0  0  0  0  0  0  0  0  0  0  0
    1.3105    0.4498    4.5109 H   0  0  0  0  0  0  0  0  0  0  0  0
    1.9117   -1.8816    3.9261 H   0  0  0  0  0  0  0  0  0  0  0  0
    4.2829   -2.5110    3.4232 H   0  0  0  0  0  0  0  0  0  0  0  0
    8.2232   -1.1817    2.6104 H   0  0  0  0  0  0  0  0  0  0  0  0
    6.8049   -2.2923    2.4727 H   0  0  0  0  0  0  0  0  0  0  0  0
    4.1743   -5.9767    2.2849 H   0  0  0  0  0  0  0  0  0  0  0  0
    3.6710   -8.2422    3.2319 H   0  0  0  0  0  0  0  0  0  0  0  0
    4.8431   -9.0619    5.2541 H   0  0  0  0  0  0  0  0  0  0  0  0
    6.5526   -7.6632    6.4064 H   0  0  0  0  0  0  0  0  0  0  0  0
    8.9828   -4.4492    6.2351 H   0  0  0  0  0  0  0  0  0  0  0  0
    8.3789   -6.0461    6.6934 H   0  0  0  0  0  0  0  0  0  0  0  0
    6.4678   -4.9335    7.9680 H   0  0  0  0  0  0  0  0  0  0  0  0
    7.1323   -3.3459    7.5351 H   0  0  0  0  0  0  0  0  0  0  0  0
  1  2  1  0
  1 30  1  0
  1 31  1  0
  1 32  1  0
  2  3  1  0
  2 33  1  0
  2 34  1  0
  3  4  1  0
  4  5  2  0
  4  6  1  0
  6  7  1  0
  6 14  2  0
  7  8  1  0
  8  9  2  0
  8 13  1  0
  9 10  1  0
  9 35  1  0
 10 11  2  0
 10 36  1  0
 11 12  1  0
 11 37  1  0
 12 13  2  0
 12 38  1  0
 13 14  1  0
 14 15  1  0
 15 16  1  0
 15 39  1  0
 15 40  1  0
 16 17  1  0
 17 18  2  0
 17 25  1  0
 18 19  1  0
 19 20  2  0
 19 24  1  0
 20 21  1  0
 20 41  1  0
 21 22  2  0
 21 42  1  0
 22 23  1  0
 22 43  1  0
 23 24  2  0
 23 44  1  0
 24 25  1  0
 25 26  1  0
 26 27  1  0
 26 45  1  0
 26 46  1  0
 27 28  1  0
 27 47  1  0
 27 48  1  0
 28 29  3  0
M  END

