
     RDKit          3D

 43 43  0  0  0  0  0  0  0  0999 V2000
    6.2195    0.5839    0.8181 O   0  0  0  0  0  0  0  0  0  0  0  0
    6.6084    0.4174    1.9481 C   0  0  0  0  0  0  0  0  0  0  0  0
    5.9609    1.0070    2.9728 O   0  0  0  0  0  0  0  0  0  0  0  0
    7.7857   -0.4811    2.2982 C   0  0  0  0  0  0  0  0  0  0  0  0
    7.4263   -1.9842    2.2864 C   0  0  0  0  0  0  0  0  0  0  0  0
    6.6947   -2.4573    1.0172 C   0  0  0  0  0  0  0  0  0  0  0  0
    7.2862   -1.9822   -0.2172 N   0  0  0  0  0  0  0  0  0  0  0  0
    8.1492   -2.7468   -0.9535 C   0  0  0  0  0  0  0  0  0  0  0  0
    8.4875   -3.8776   -0.6328 O   0  0  0  0  0  0  0  0  0  0  0  0
    8.5831   -2.1448   -2.1400 N   0  0  0  0  0  0  0  0  0  0  0  0
    9.7605   -2.6974   -2.8350 C   0  0  1  0  0  0  0  0  0  0  0  0
    9.6901   -2.4022   -4.3410 C   0  0  0  0  0  0  0  0  0  0  0  0
    8.4653   -3.0003   -5.0417 C   0  0  0  0  0  0  0  0  0  0  0  0
    7.2588   -2.3541   -4.7092 O   0  0  0  0  0  0  0  0  0  0  0  0
   11.0633   -2.2517   -2.1693 C   0  0  0  0  0  0  0  0  0  0  0  0
   11.6241   -3.0358   -1.1467 C   0  0  0  0  0  0  0  0  0  0  0  0
   12.7894   -2.6305   -0.4915 C   0  0  0  0  0  0  0  0  0  0  0  0
   13.4171   -1.4339   -0.8424 C   0  0  0  0  0  0  0  0  0  0  0  0
   12.8664   -0.6446   -1.8580 C   0  0  0  0  0  0  0  0  0  0  0  0
   13.5641    0.6220   -2.2878 C   0  0  1  0  0  0  0  0  0  0  0  0
   14.2187    1.2044   -1.2670 F   0  0  0  0  0  0  0  0  0  0  0  0
   14.4754    0.3859   -3.2519 F   0  0  0  0  0  0  0  0  0  0  0  0
   12.7004    1.5283   -2.7824 F   0  0  0  0  0  0  0  0  0  0  0  0
   11.6992   -1.0510   -2.5150 C   0  0  0  0  0  0  0  0  0  0  0  0
    6.3906    0.7951    3.8134 H   0  0  0  0  0  0  0  0  0  0  0  0
    8.2221   -0.2096    3.2739 H   0  0  0  0  0  0  0  0  0  0  0  0
    8.5559   -0.2941    1.5356 H   0  0  0  0  0  0  0  0  0  0  0  0
    6.8001   -2.2318    3.1612 H   0  0  0  0  0  0  0  0  0  0  0  0
    8.3653   -2.5497    2.3982 H   0  0  0  0  0  0  0  0  0  0  0  0
    5.6439   -2.1277    1.0423 H   0  0  0  0  0  0  0  0  0  0  0  0
    6.6995   -3.5560    0.9916 H   0  0  0  0  0  0  0  0  0  0  0  0
    7.0357   -1.0378   -0.4967 H   0  0  0  0  0  0  0  0  0  0  0  0
    8.5061   -1.1310   -2.1783 H   0  0  0  0  0  0  0  0  0  0  0  0
    9.6776   -3.7842   -2.6927 H   0  0  0  0  0  0  0  0  0  0  0  0
   10.6062   -2.8016   -4.8080 H   0  0  0  0  0  0  0  0  0  0  0  0
    9.6903   -1.3136   -4.5270 H   0  0  0  0  0  0  0  0  0  0  0  0
    8.4209   -4.0907   -4.8309 H   0  0  0  0  0  0  0  0  0  0  0  0
    8.5903   -2.8966   -6.1321 H   0  0  0  0  0  0  0  0  0  0  0  0
    7.1981   -2.3771   -3.7419 H   0  0  0  0  0  0  0  0  0  0  0  0
   11.1224   -3.9614   -0.8560 H   0  0  0  0  0  0  0  0  0  0  0  0
   13.2116   -3.2528    0.3015 H   0  0  0  0  0  0  0  0  0  0  0  0
   14.3253   -1.1103   -0.3307 H   0  0  0  0  0  0  0  0  0  0  0  0
   11.2903   -0.4139   -3.3009 H   0  0  0  0  0  0  0  0  0  0  0  0
  1  2  2  0
  2  3  1  0
  2  4  1  0
  3 25  1  0
  4  5  1  0
  4 26  1  0
  4 27  1  0
  5  6  1  0
  5 28  1  0
  5 29  1  0
  6  7  1  0
  6 30  1  0
  6 31  1  0
  7  8  1  0
  7 32  1  0
  8  9  2  0
  8 10  1  0
 10 11  1  0
 10 33  1  0
 11 12  1  0
 11 15  1  0
 11 34  1  6
 12 13  1  0
 12 35  1  0
 12 36  1  0
 13 14  1  0
 13 37  1  0
 13 38  1  0
 14 39  1  0
 15 16  2  0
 15 24  1  0
 16 17  1  0
 16 40  1  0
 17 18  2  0
 17 41  1  0
 18 19  1  0
 18 42  1  0
 19 20  1  0
 19 24  2  0
 20 21  1  1
 20 22  1  0
 20 23  1  0
 24 43  1  0
M  END

