
     RDKit          3D

 40 42  0  0  0  0  0  0  0  0999 V2000
    1.6676    1.5337   -3.1148 C   0  0  0  0  0  0  0  0  0  0  0  0
    1.8891    0.9373   -1.7164 C   0  0  1  0  0  0  0  0  0  0  0  0
    0.5370    0.6509   -1.0309 C   0  0  0  0  0  0  0  0  0  0  0  0
    0.6494    0.3357    0.3805 N   0  0  0  0  0  0  0  0  0  0  0  0
    0.6108    1.2354    1.4287 C   0  0  0  0  0  0  0  0  0  0  0  0
    0.8509    0.4933    2.5640 C   0  0  0  0  0  0  0  0  0  0  0  0
    1.0395   -0.8273    2.2416 N   0  0  0  0  0  0  0  0  0  0  0  0
    0.9183   -0.8869    0.9348 C   0  0  0  0  0  0  0  0  0  0  0  0
    2.7077   -0.2717   -1.7059 N   0  0  0  0  0  0  0  0  0  0  0  0
    4.1454   -0.0838   -1.7523 C   0  0  1  0  0  0  0  0  0  0  0  0
    4.8348    0.3797   -0.4434 C   0  0  0  0  0  0  0  0  0  0  0  0
    5.9105   -0.7341   -0.6357 C   0  0  2  0  0  0  0  0  0  0  0  0
    7.2958   -0.2978   -1.0736 C   0  0  0  0  0  0  0  0  0  0  0  0
    7.8940    0.8574   -0.5431 C   0  0  0  0  0  0  0  0  0  0  0  0
    9.1919    1.2382   -0.8929 C   0  0  0  0  0  0  0  0  0  0  0  0
    9.9167    0.4527   -1.7916 C   0  0  0  0  0  0  0  0  0  0  0  0
   11.6884    0.9657   -2.2846 Br  0  0  0  0  0  0  0  0  0  0  0  0
    9.3550   -0.7064   -2.3307 C   0  0  0  0  0  0  0  0  0  0  0  0
    8.0556   -1.0701   -1.9677 C   0  0  0  0  0  0  0  0  0  0  0  0
    4.9875   -1.3787   -1.7153 C   0  0  0  0  0  0  0  0  0  0  0  0
    1.1198    2.4892   -3.0725 H   0  0  0  0  0  0  0  0  0  0  0  0
    1.0854    0.8420   -3.7487 H   0  0  0  0  0  0  0  0  0  0  0  0
    2.6279    1.7224   -3.6189 H   0  0  0  0  0  0  0  0  0  0  0  0
    2.4124    1.6829   -1.0931 H   0  0  0  0  0  0  0  0  0  0  0  0
    0.0433   -0.1933   -1.5404 H   0  0  0  0  0  0  0  0  0  0  0  0
   -0.1292    1.5211   -1.1355 H   0  0  0  0  0  0  0  0  0  0  0  0
    0.4050    2.2922    1.2731 H   0  0  0  0  0  0  0  0  0  0  0  0
    0.8867    0.8446    3.5952 H   0  0  0  0  0  0  0  0  0  0  0  0
    1.0242   -1.7789    0.3186 H   0  0  0  0  0  0  0  0  0  0  0  0
    2.4132   -0.9022   -2.4534 H   0  0  0  0  0  0  0  0  0  0  0  0
    4.4753    0.5581   -2.5971 H   0  0  0  0  0  0  0  0  0  0  0  0
    4.1963    0.1862    0.4301 H   0  0  0  0  0  0  0  0  0  0  0  0
    5.1880    1.4207   -0.4102 H   0  0  0  0  0  0  0  0  0  0  0  0
    6.0277   -1.3699    0.2583 H   0  0  0  0  0  0  0  0  0  0  0  0
    7.3422    1.4776    0.1673 H   0  0  0  0  0  0  0  0  0  0  0  0
    9.6363    2.1404   -0.4690 H   0  0  0  0  0  0  0  0  0  0  0  0
    9.9265   -1.3210   -3.0284 H   0  0  0  0  0  0  0  0  0  0  0  0
    7.6333   -1.9843   -2.3917 H   0  0  0  0  0  0  0  0  0  0  0  0
    4.4030   -2.2136   -1.3017 H   0  0  0  0  0  0  0  0  0  0  0  0
    5.4506   -1.6963   -2.6611 H   0  0  0  0  0  0  0  0  0  0  0  0
  1  2  1  0
  1 21  1  0
  1 22  1  0
  1 23  1  0
  2  3  1  0
  2  9  1  0
  2 24  1  1
  3  4  1  0
  3 25  1  0
  3 26  1  0
  4  5  1  0
  4  8  1  0
  5  6  2  0
  5 27  1  0
  6  7  1  0
  6 28  1  0
  7  8  2  0
  8 29  1  0
  9 10  1  0
  9 30  1  0
 10 11  1  0
 10 20  1  0
 10 31  1  6
 11 12  1  0
 11 32  1  0
 11 33  1  0
 12 13  1  0
 12 20  1  0
 12 34  1  1
 13 14  2  0
 13 19  1  0
 14 15  1  0
 14 35  1  0
 15 16  2  0
 15 36  1  0
 16 17  1  0
 16 18  1  0
 18 19  2  0
 18 37  1  0
 19 38  1  0
 20 39  1  0
 20 40  1  0
M  END

