
     RDKit          3D

140152  0  0  0  0  0  0  0  0999 V2000
    5.8672   10.1855    2.8418 C   0  0  0  0  0  0  0  0  0  0  0  0
    5.1765    9.6020    1.6083 C   0  0  0  0  0  0  0  0  0  0  0  0
    4.8304    8.1154    1.7494 C   0  0  0  0  0  0  0  0  0  0  0  0
    4.1413    7.5424    0.5083 C   0  0  0  0  0  0  0  0  0  0  0  0
    3.7437    6.0388    0.5633 C   0  0  2  0  0  0  0  0  0  0  0  0
    3.0682    5.6687   -0.7889 C   0  0  0  0  0  0  0  0  0  0  0  0
    2.5918    4.2223   -0.9445 C   0  0  0  0  0  0  0  0  0  0  0  0
    1.9368    3.9512   -2.3036 C   0  0  0  0  0  0  0  0  0  0  0  0
    1.4538    2.5096   -2.4699 C   0  0  0  0  0  0  0  0  0  0  0  0
    2.8378    5.7312    1.7568 C   0  0  0  0  0  0  0  0  0  0  0  0
    1.5776    6.2461    2.0539 C   0  0  0  0  0  0  0  0  0  0  0  0
    0.9191    5.8184    3.2158 C   0  0  0  0  0  0  0  0  0  0  0  0
    1.5177    4.8840    4.0710 C   0  0  0  0  0  0  0  0  0  0  0  0
    2.7826    4.3629    3.7791 C   0  0  0  0  0  0  0  0  0  0  0  0
    3.4393    4.7897    2.6199 C   0  0  0  0  0  0  0  0  0  0  0  0
    4.7509    4.4247    2.0654 C   0  0  0  0  0  0  0  0  0  0  0  0
    5.7359    3.5471    2.5290 C   0  0  0  0  0  0  0  0  0  0  0  0
    6.9135    3.3939    1.7912 C   0  0  0  0  0  0  0  0  0  0  0  0
    7.1187    4.1006    0.5914 C   0  0  0  0  0  0  0  0  0  0  0  0
    8.3860    3.9258   -0.1864 C   0  0  0  0  0  0  0  0  0  0  0  0
    8.4236    3.1513   -1.3382 C   0  0  0  0  0  0  0  0  0  0  0  0
    9.6690    3.0356   -2.0515 C   0  0  0  0  0  0  0  0  0  0  0  0
   10.7767    3.6425   -1.6683 N   0  0  0  0  0  0  0  0  0  0  0  0
   10.7668    4.4033   -0.5473 C   0  0  0  0  0  0  0  0  0  0  0  0
   11.9744    5.0467   -0.1523 C   0  0  0  0  0  0  0  0  0  0  0  0
   12.0153    5.8336    0.9786 C   0  0  0  0  0  0  0  0  0  0  0  0
   10.8488    6.0142    1.7633 C   0  0  0  0  0  0  0  0  0  0  0  0
    9.6628    5.4034    1.4067 C   0  0  0  0  0  0  0  0  0  0  0  0
    9.5873    4.5798    0.2488 C   0  0  0  0  0  0  0  0  0  0  0  0
    9.7230    2.2094   -3.2839 C   0  0  0  0  0  0  0  0  0  0  0  0
   10.7992    2.3307   -4.1771 C   0  0  0  0  0  0  0  0  0  0  0  0
   10.8765    1.5575   -5.3350 C   0  0  0  0  0  0  0  0  0  0  0  0
    9.8507    0.6243   -5.6082 C   0  0  0  0  0  0  0  0  0  0  0  0
    8.7744    0.5031   -4.7152 C   0  0  0  0  0  0  0  0  0  0  0  0
    8.6971    1.2763   -3.5572 C   0  0  0  0  0  0  0  0  0  0  0  0
    7.5742    1.1132   -2.5602 C   0  0  0  0  0  0  0  0  0  0  0  0
    7.2083    2.4473   -1.9032 C   0  0  0  0  0  0  0  0  0  0  0  0
    9.9053   -0.2026   -6.8403 C   0  0  0  0  0  0  0  0  0  0  0  0
    8.7979   -0.8096   -7.2238 N   0  0  0  0  0  0  0  0  0  0  0  0
    8.8086   -1.5717   -8.3439 C   0  0  0  0  0  0  0  0  0  0  0  0
    7.6012   -2.2152   -8.7392 C   0  0  0  0  0  0  0  0  0  0  0  0
    7.5613   -3.0042   -9.8688 C   0  0  0  0  0  0  0  0  0  0  0  0
    8.7287   -3.1869  -10.6516 C   0  0  0  0  0  0  0  0  0  0  0  0
    9.9145   -2.5760  -10.2947 C   0  0  0  0  0  0  0  0  0  0  0  0
    9.9890   -1.7499   -9.1384 C   0  0  0  0  0  0  0  0  0  0  0  0
   11.1900   -1.0957   -8.7031 C   0  0  0  0  0  0  0  0  0  0  0  0
   12.4588   -1.2723   -9.4779 C   0  0  0  0  0  0  0  0  0  0  0  0
   12.6637   -0.5758  -10.6828 C   0  0  0  0  0  0  0  0  0  0  0  0
   13.8373   -0.7456  -11.4229 C   0  0  0  0  0  0  0  0  0  0  0  0
   14.8210   -1.6197  -10.9510 C   0  0  0  0  0  0  0  0  0  0  0  0
   14.6407   -2.3107   -9.7323 C   0  0  0  0  0  0  0  0  0  0  0  0
   13.4599   -2.1466   -9.0103 C   0  0  0  0  0  0  0  0  0  0  0  0
   15.8554   -3.1922   -9.4212 C   0  0  1  0  0  0  0  0  0  0  0  0
   16.6725   -2.6544   -8.2008 C   0  0  0  0  0  0  0  0  0  0  0  0
   16.0157   -2.6794   -6.8170 C   0  0  0  0  0  0  0  0  0  0  0  0
   16.9571   -2.1821   -5.7126 C   0  0  0  0  0  0  0  0  0  0  0  0
   16.3195   -2.1833   -4.3225 C   0  0  0  0  0  0  0  0  0  0  0  0
   15.4778   -4.6830   -9.2150 C   0  0  0  0  0  0  0  0  0  0  0  0
   14.7708   -5.3677  -10.3887 C   0  0  0  0  0  0  0  0  0  0  0  0
   14.4190   -6.8322  -10.1046 C   0  0  0  0  0  0  0  0  0  0  0  0
   13.7141   -7.5261  -11.2711 C   0  0  0  0  0  0  0  0  0  0  0  0
   16.7066   -2.9686  -10.6753 C   0  0  0  0  0  0  0  0  0  0  0  0
   17.9366   -3.5329  -11.0087 C   0  0  0  0  0  0  0  0  0  0  0  0
   18.5626   -3.1549  -12.2049 C   0  0  0  0  0  0  0  0  0  0  0  0
   17.9654   -2.2158  -13.0560 C   0  0  0  0  0  0  0  0  0  0  0  0
   16.7322   -1.6441  -12.7271 C   0  0  0  0  0  0  0  0  0  0  0  0
   16.1055   -2.0260  -11.5358 C   0  0  0  0  0  0  0  0  0  0  0  0
   11.1512   -0.3192   -7.5524 C   0  0  0  0  0  0  0  0  0  0  0  0
   12.3659    0.3864   -6.9883 C   0  0  0  0  0  0  0  0  0  0  0  0
   11.9992    1.7207   -6.3321 C   0  0  0  0  0  0  0  0  0  0  0  0
    6.1182    4.9805    0.1339 C   0  0  0  0  0  0  0  0  0  0  0  0
    4.9454    5.1420    0.8661 C   0  0  0  0  0  0  0  0  0  0  0  0
    6.1010   11.2539    2.7083 H   0  0  0  0  0  0  0  0  0  0  0  0
    6.8141    9.6619    3.0557 H   0  0  0  0  0  0  0  0  0  0  0  0
    5.2314   10.0930    3.7383 H   0  0  0  0  0  0  0  0  0  0  0  0
    5.8229    9.7440    0.7229 H   0  0  0  0  0  0  0  0  0  0  0  0
    4.2534   10.1731    1.3987 H   0  0  0  0  0  0  0  0  0  0  0  0
    4.1823    7.9764    2.6322 H   0  0  0  0  0  0  0  0  0  0  0  0
    5.7541    7.5475    1.9572 H   0  0  0  0  0  0  0  0  0  0  0  0
    4.7950    7.6889   -0.3703 H   0  0  0  0  0  0  0  0  0  0  0  0
    3.2270    8.1262    0.2989 H   0  0  0  0  0  0  0  0  0  0  0  0
    3.7797    5.9067   -1.6000 H   0  0  0  0  0  0  0  0  0  0  0  0
    2.2113    6.3503   -0.9364 H   0  0  0  0  0  0  0  0  0  0  0  0
    1.8743    3.9788   -0.1418 H   0  0  0  0  0  0  0  0  0  0  0  0
    3.4440    3.5333   -0.8097 H   0  0  0  0  0  0  0  0  0  0  0  0
    2.6531    4.1949   -3.1097 H   0  0  0  0  0  0  0  0  0  0  0  0
    1.0855    4.6427   -2.4424 H   0  0  0  0  0  0  0  0  0  0  0  0
    2.2877    1.7940   -2.3746 H   0  0  0  0  0  0  0  0  0  0  0  0
    0.9890    2.3488   -3.4558 H   0  0  0  0  0  0  0  0  0  0  0  0
    0.7069    2.2464   -1.7022 H   0  0  0  0  0  0  0  0  0  0  0  0
    1.1001    6.9759    1.3941 H   0  0  0  0  0  0  0  0  0  0  0  0
   -0.0697    6.2174    3.4564 H   0  0  0  0  0  0  0  0  0  0  0  0
    0.9921    4.5602    4.9730 H   0  0  0  0  0  0  0  0  0  0  0  0
    3.2462    3.6340    4.4491 H   0  0  0  0  0  0  0  0  0  0  0  0
    5.5956    2.9853    3.4561 H   0  0  0  0  0  0  0  0  0  0  0  0
    7.6906    2.7124    2.1464 H   0  0  0  0  0  0  0  0  0  0  0  0
   12.8540    4.8888   -0.7794 H   0  0  0  0  0  0  0  0  0  0  0  0
   12.9472    6.3232    1.2732 H   0  0  0  0  0  0  0  0  0  0  0  0
   10.8891    6.6441    2.6556 H   0  0  0  0  0  0  0  0  0  0  0  0
    8.7677    5.5509    2.0133 H   0  0  0  0  0  0  0  0  0  0  0  0
   11.5815    3.0542   -3.9395 H   0  0  0  0  0  0  0  0  0  0  0  0
    7.9921   -0.2204   -4.9528 H   0  0  0  0  0  0  0  0  0  0  0  0
    7.8864    0.3977   -1.7755 H   0  0  0  0  0  0  0  0  0  0  0  0
    6.6919    0.6717   -3.0486 H   0  0  0  0  0  0  0  0  0  0  0  0
    6.4537    2.2975   -1.1184 H   0  0  0  0  0  0  0  0  0  0  0  0
    6.7400    3.1014   -2.6633 H   0  0  0  0  0  0  0  0  0  0  0  0
    6.7209   -2.0558   -8.1134 H   0  0  0  0  0  0  0  0  0  0  0  0
    6.6295   -3.4937  -10.1636 H   0  0  0  0  0  0  0  0  0  0  0  0
    8.6893   -3.8186  -11.5427 H   0  0  0  0  0  0  0  0  0  0  0  0
   10.8104   -2.7254  -10.8996 H   0  0  0  0  0  0  0  0  0  0  0  0
   11.8870    0.1024  -11.0450 H   0  0  0  0  0  0  0  0  0  0  0  0
   13.9726   -0.2058  -12.3636 H   0  0  0  0  0  0  0  0  0  0  0  0
   13.2866   -2.7010   -8.0854 H   0  0  0  0  0  0  0  0  0  0  0  0
   16.9767   -1.6188   -8.4307 H   0  0  0  0  0  0  0  0  0  0  0  0
   17.6090   -3.2382   -8.1555 H   0  0  0  0  0  0  0  0  0  0  0  0
   15.6826   -3.7013   -6.5651 H   0  0  0  0  0  0  0  0  0  0  0  0
   15.1096   -2.0504   -6.8186 H   0  0  0  0  0  0  0  0  0  0  0  0
   17.3002   -1.1613   -5.9610 H   0  0  0  0  0  0  0  0  0  0  0  0
   17.8679   -2.8084   -5.7017 H   0  0  0  0  0  0  0  0  0  0  0  0
   15.4283   -1.5343   -4.2888 H   0  0  0  0  0  0  0  0  0  0  0  0
   17.0219   -1.8216   -3.5548 H   0  0  0  0  0  0  0  0  0  0  0  0
   15.9987   -3.1968   -4.0286 H   0  0  0  0  0  0  0  0  0  0  0  0
   14.8385   -4.7643   -8.3196 H   0  0  0  0  0  0  0  0  0  0  0  0
   16.4015   -5.2392   -8.9714 H   0  0  0  0  0  0  0  0  0  0  0  0
   15.4075   -5.3156  -11.2889 H   0  0  0  0  0  0  0  0  0  0  0  0
   13.8474   -4.8154  -10.6370 H   0  0  0  0  0  0  0  0  0  0  0  0
   13.7803   -6.8863   -9.2040 H   0  0  0  0  0  0  0  0  0  0  0  0
   15.3414   -7.3860   -9.8500 H   0  0  0  0  0  0  0  0  0  0  0  0
   12.7680   -7.0195  -11.5255 H   0  0  0  0  0  0  0  0  0  0  0  0
   13.4760   -8.5756  -11.0346 H   0  0  0  0  0  0  0  0  0  0  0  0
   14.3420   -7.5229  -12.1778 H   0  0  0  0  0  0  0  0  0  0  0  0
   18.4146   -4.2657  -10.3526 H   0  0  0  0  0  0  0  0  0  0  0  0
   19.5251   -3.5965  -12.4757 H   0  0  0  0  0  0  0  0  0  0  0  0
   18.4665   -1.9296  -13.9843 H   0  0  0  0  0  0  0  0  0  0  0  0
   16.2680   -0.9132  -13.3944 H   0  0  0  0  0  0  0  0  0  0  0  0
   13.1202    0.5365   -7.7733 H   0  0  0  0  0  0  0  0  0  0  0  0
   12.8355   -0.2667   -6.2276 H   0  0  0  0  0  0  0  0  0  0  0  0
   11.6865    2.4353   -7.1174 H   0  0  0  0  0  0  0  0  0  0  0  0
   12.8813    2.1633   -5.8443 H   0  0  0  0  0  0  0  0  0  0  0  0
    6.2787    5.5348   -0.7951 H   0  0  0  0  0  0  0  0  0  0  0  0
  1  2  1  0
  1 73  1  0
  1 74  1  0
  1 75  1  0
  2  3  1  0
  2 76  1  0
  2 77  1  0
  3  4  1  0
  3 78  1  0
  3 79  1  0
  5  4  1  6
  4 80  1  0
  4 81  1  0
  5  6  1  0
  5 10  1  0
  5 72  1  0
  6  7  1  0
  6 82  1  0
  6 83  1  0
  7  8  1  0
  7 84  1  0
  7 85  1  0
  8  9  1  0
  8 86  1  0
  8 87  1  0
  9 88  1  0
  9 89  1  0
  9 90  1  0
 10 11  2  0
 10 15  1  0
 11 12  1  0
 11 91  1  0
 12 13  2  0
 12 92  1  0
 13 14  1  0
 13 93  1  0
 14 15  2  0
 14 94  1  0
 15 16  1  0
 16 17  2  0
 16 72  1  0
 17 18  1  0
 17 95  1  0
 18 19  2  0
 18 96  1  0
 19 20  1  0
 19 71  1  0
 20 21  2  0
 20 29  1  0
 21 22  1  0
 21 37  1  0
 22 23  2  0
 22 30  1  0
 23 24  1  0
 24 25  2  0
 24 29  1  0
 25 26  1  0
 25 97  1  0
 26 27  2  0
 26 98  1  0
 27 28  1  0
 27 99  1  0
 28 29  2  0
 28100  1  0
 30 31  2  0
 30 35  1  0
 31 32  1  0
 31101  1  0
 32 33  2  0
 32 70  1  0
 33 34  1  0
 33 38  1  0
 34 35  2  0
 34102  1  0
 35 36  1  0
 36 37  1  0
 36103  1  0
 36104  1  0
 37105  1  0
 37106  1  0
 38 39  2  0
 38 68  1  0
 39 40  1  0
 40 41  2  0
 40 45  1  0
 41 42  1  0
 41107  1  0
 42 43  2  0
 42108  1  0
 43 44  1  0
 43109  1  0
 44 45  2  0
 44110  1  0
 45 46  1  0
 46 47  1  0
 46 68  2  0
 47 48  2  0
 47 52  1  0
 48 49  1  0
 48111  1  0
 49 50  2  0
 49112  1  0
 50 51  1  0
 50 67  1  0
 51 52  2  0
 51 53  1  0
 52113  1  0
 53 54  1  1
 53 58  1  0
 53 62  1  0
 54 55  1  0
 54114  1  0
 54115  1  0
 55 56  1  0
 55116  1  0
 55117  1  0
 56 57  1  0
 56118  1  0
 56119  1  0
 57120  1  0
 57121  1  0
 57122  1  0
 58 59  1  0
 58123  1  0
 58124  1  0
 59 60  1  0
 59125  1  0
 59126  1  0
 60 61  1  0
 60127  1  0
 60128  1  0
 61129  1  0
 61130  1  0
 61131  1  0
 62 63  1  0
 62 67  2  0
 63 64  2  0
 63132  1  0
 64 65  1  0
 64133  1  0
 65 66  2  0
 65134  1  0
 66 67  1  0
 66135  1  0
 68 69  1  0
 69 70  1  0
 69136  1  0
 69137  1  0
 70138  1  0
 70139  1  0
 71 72  2  0
 71140  1  0
M  END

