
     RDKit          3D

 43 44  0  0  0  0  0  0  0  0999 V2000
    5.3996    0.0210    1.1453 C   0  0  0  0  0  0  0  0  0  0  0  0
    6.4227   -0.4914    0.1180 C   0  0  1  0  0  0  0  0  0  0  0  0
    7.8564   -0.3145    0.6232 C   0  0  0  0  0  0  0  0  0  0  0  0
    6.2277   -1.8908   -0.2767 N   0  0  0  0  0  0  0  0  0  0  0  0
    5.0432   -2.1952   -1.0659 C   0  0  0  0  0  0  0  0  0  0  0  0
    5.1885   -1.7430   -2.4943 C   0  0  0  0  0  0  0  0  0  0  0  0
    6.3129   -1.9141   -3.3611 C   0  0  0  0  0  0  0  0  0  0  0  0
    5.9061   -1.3564   -4.5403 C   0  0  0  0  0  0  0  0  0  0  0  0
    6.5501   -1.1647   -5.8734 C   0  0  0  0  0  0  0  0  0  0  0  0
    6.7561    0.3122   -6.2547 C   0  0  0  0  0  0  0  0  0  0  0  0
    7.3933    0.4880   -7.6340 C   0  0  0  0  0  0  0  0  0  0  0  0
    7.6000    1.9503   -8.0265 C   0  0  0  0  0  0  0  0  0  0  0  0
    8.2515    2.0651   -9.3222 N   0  0  0  0  0  0  0  0  0  0  0  0
    8.5587    3.4032   -9.7371 C   0  0  1  0  0  0  0  0  0  0  0  0
    8.5199    3.7695  -11.1892 C   0  0  0  0  0  0  0  0  0  0  0  0
    7.5052    4.3754  -10.2421 C   0  0  0  0  0  0  0  0  0  0  0  0
    4.6502   -0.8850   -4.3945 O   0  0  0  0  0  0  0  0  0  0  0  0
    4.2044   -1.1245   -3.1049 N   0  0  0  0  0  0  0  0  0  0  0  0
    5.5576    1.0891    1.3661 H   0  0  0  0  0  0  0  0  0  0  0  0
    5.4909   -0.5337    2.0960 H   0  0  0  0  0  0  0  0  0  0  0  0
    4.3650   -0.0897    0.7851 H   0  0  0  0  0  0  0  0  0  0  0  0
    6.3101    0.1082   -0.8031 H   0  0  0  0  0  0  0  0  0  0  0  0
    8.0262   -0.9144    1.5348 H   0  0  0  0  0  0  0  0  0  0  0  0
    8.0658    0.7370    0.8760 H   0  0  0  0  0  0  0  0  0  0  0  0
    8.5786   -0.6469   -0.1372 H   0  0  0  0  0  0  0  0  0  0  0  0
    6.2667   -2.4932    0.5442 H   0  0  0  0  0  0  0  0  0  0  0  0
    4.0945   -1.7728   -0.6772 H   0  0  0  0  0  0  0  0  0  0  0  0
    4.9184   -3.2917   -1.0665 H   0  0  0  0  0  0  0  0  0  0  0  0
    7.2666   -2.3759   -3.1231 H   0  0  0  0  0  0  0  0  0  0  0  0
    5.9256   -1.6542   -6.6422 H   0  0  0  0  0  0  0  0  0  0  0  0
    7.5157   -1.6945   -5.8673 H   0  0  0  0  0  0  0  0  0  0  0  0
    7.3861    0.7964   -5.4878 H   0  0  0  0  0  0  0  0  0  0  0  0
    5.7811    0.8272   -6.2205 H   0  0  0  0  0  0  0  0  0  0  0  0
    6.7568   -0.0045   -8.3940 H   0  0  0  0  0  0  0  0  0  0  0  0
    8.3693   -0.0263   -7.6755 H   0  0  0  0  0  0  0  0  0  0  0  0
    8.2472    2.4407   -7.2765 H   0  0  0  0  0  0  0  0  0  0  0  0
    6.6259    2.4889   -7.9792 H   0  0  0  0  0  0  0  0  0  0  0  0
    7.7142    1.5784  -10.0381 H   0  0  0  0  0  0  0  0  0  0  0  0
    9.3705    3.8492   -9.1478 H   0  0  0  0  0  0  0  0  0  0  0  0
    8.1680    3.0105  -11.8964 H   0  0  0  0  0  0  0  0  0  0  0  0
    9.3144    4.4054  -11.5897 H   0  0  0  0  0  0  0  0  0  0  0  0
    6.4745    4.0123  -10.3090 H   0  0  0  0  0  0  0  0  0  0  0  0
    7.5929    5.4364   -9.9883 H   0  0  0  0  0  0  0  0  0  0  0  0
  1  2  1  0
  1 19  1  0
  1 20  1  0
  1 21  1  0
  2  3  1  0
  2  4  1  0
  2 22  1  6
  3 23  1  0
  3 24  1  0
  3 25  1  0
  4  5  1  0
  4 26  1  0
  5  6  1  0
  5 27  1  0
  5 28  1  0
  6  7  1  0
  6 18  2  0
  7  8  2  0
  7 29  1  0
  8  9  1  0
  8 17  1  0
  9 10  1  0
  9 30  1  0
  9 31  1  0
 10 11  1  0
 10 32  1  0
 10 33  1  0
 11 12  1  0
 11 34  1  0
 11 35  1  0
 12 13  1  0
 12 36  1  0
 12 37  1  0
 13 14  1  0
 13 38  1  0
 14 15  1  0
 14 16  1  0
 14 39  1  1
 15 16  1  0
 15 40  1  0
 15 41  1  0
 16 42  1  0
 16 43  1  0
 17 18  1  0
M  END

