
     RDKit          3D

 57 57  0  0  0  0  0  0  0  0999 V2000
    2.7572    2.5011    1.8686 C   0  0  0  0  0  0  0  0  0  0  0  0
    3.1188    1.0296    1.7968 C   0  0  0  0  0  0  0  0  0  0  0  0
    2.3205    0.1612    2.0759 O   0  0  0  0  0  0  0  0  0  0  0  0
    4.5429    0.7077    1.3670 C   0  0  0  0  0  0  0  0  0  0  0  0
    4.7779   -0.7673    1.0699 C   0  0  0  0  0  0  0  0  0  0  0  0
    6.2563   -1.1426    1.1325 C   0  0  0  0  0  0  0  0  0  0  0  0
    7.0588   -0.5383    1.8287 O   0  0  0  0  0  0  0  0  0  0  0  0
    6.6164   -2.2246    0.3808 N   0  0  0  0  0  0  0  0  0  0  0  0
    7.9638   -2.7951    0.4346 C   0  0  1  0  0  0  0  0  0  0  0  0
    7.9487   -4.2505   -0.0569 C   0  0  0  0  0  0  0  0  0  0  0  0
    7.7482   -4.3566   -1.5744 C   0  0  0  0  0  0  0  0  0  0  0  0
    8.7096   -3.5284   -2.2951 N   0  0  0  0  0  0  0  0  0  0  0  0
    9.4806   -4.1006   -3.2815 C   0  0  0  0  0  0  0  0  0  0  0  0
    9.3985   -5.2913   -3.5533 O   0  0  0  0  0  0  0  0  0  0  0  0
   10.4609   -3.1995   -4.0283 C   0  0  0  0  0  0  0  0  0  0  0  0
   11.1226   -3.9388   -5.1964 C   0  0  0  0  0  0  0  0  0  0  0  0
   12.1418   -3.1469   -5.8635 N   0  0  0  0  0  0  0  0  0  0  0  0
   11.8268   -2.0946   -6.6699 C   0  0  0  0  0  0  0  0  0  0  0  0
   10.6914   -1.6981   -6.8600 O   0  0  0  0  0  0  0  0  0  0  0  0
   12.9525   -1.5734   -7.2089 O   0  0  0  0  0  0  0  0  0  0  0  0
   12.9170   -0.4246   -8.1149 C   0  0  1  0  0  0  0  0  0  0  0  0
   12.3382    0.7975   -7.3933 C   0  0  0  0  0  0  0  0  0  0  0  0
   14.3946   -0.2064   -8.4473 C   0  0  0  0  0  0  0  0  0  0  0  0
   12.1234   -0.7757   -9.3782 C   0  0  0  0  0  0  0  0  0  0  0  0
    8.7217   -2.1222   -1.9013 C   0  0  0  0  0  0  0  0  0  0  0  0
    8.9689   -1.9735   -0.3968 C   0  0  0  0  0  0  0  0  0  0  0  0
    1.7847    2.6238    2.3630 H   0  0  0  0  0  0  0  0  0  0  0  0
    2.6975    2.9152    0.8473 H   0  0  0  0  0  0  0  0  0  0  0  0
    3.5320    3.0753    2.4017 H   0  0  0  0  0  0  0  0  0  0  0  0
    5.2189    1.0146    2.1862 H   0  0  0  0  0  0  0  0  0  0  0  0
    4.8228    1.3500    0.5137 H   0  0  0  0  0  0  0  0  0  0  0  0
    4.3407   -1.0544    0.0993 H   0  0  0  0  0  0  0  0  0  0  0  0
    4.2431   -1.3652    1.8281 H   0  0  0  0  0  0  0  0  0  0  0  0
    5.8987   -2.7055   -0.1479 H   0  0  0  0  0  0  0  0  0  0  0  0
    8.2818   -2.7573    1.4884 H   0  0  0  0  0  0  0  0  0  0  0  0
    7.1657   -4.8234    0.4680 H   0  0  0  0  0  0  0  0  0  0  0  0
    8.9142   -4.7125    0.2050 H   0  0  0  0  0  0  0  0  0  0  0  0
    6.7210   -4.0460   -1.8547 H   0  0  0  0  0  0  0  0  0  0  0  0
    7.8771   -5.3887   -1.9221 H   0  0  0  0  0  0  0  0  0  0  0  0
   11.2358   -2.8381   -3.3288 H   0  0  0  0  0  0  0  0  0  0  0  0
    9.9509   -2.3072   -4.4227 H   0  0  0  0  0  0  0  0  0  0  0  0
   10.3470   -4.2310   -5.9209 H   0  0  0  0  0  0  0  0  0  0  0  0
   11.5844   -4.8686   -4.8391 H   0  0  0  0  0  0  0  0  0  0  0  0
   13.1182   -3.4003   -5.7837 H   0  0  0  0  0  0  0  0  0  0  0  0
   12.9043    1.0006   -6.4705 H   0  0  0  0  0  0  0  0  0  0  0  0
   11.2837    0.6383   -7.1350 H   0  0  0  0  0  0  0  0  0  0  0  0
   12.4148    1.6842   -8.0420 H   0  0  0  0  0  0  0  0  0  0  0  0
   14.9707    0.0026   -7.5330 H   0  0  0  0  0  0  0  0  0  0  0  0
   14.5102    0.6450   -9.1352 H   0  0  0  0  0  0  0  0  0  0  0  0
   14.8200   -1.1019   -8.9254 H   0  0  0  0  0  0  0  0  0  0  0  0
   11.0671   -0.9554   -9.1415 H   0  0  0  0  0  0  0  0  0  0  0  0
   12.5395   -1.6785   -9.8525 H   0  0  0  0  0  0  0  0  0  0  0  0
   12.1899    0.0515  -10.1023 H   0  0  0  0  0  0  0  0  0  0  0  0
    7.7472   -1.6638   -2.1600 H   0  0  0  0  0  0  0  0  0  0  0  0
    9.4856   -1.5783   -2.4671 H   0  0  0  0  0  0  0  0  0  0  0  0
    8.9077   -0.9168   -0.0969 H   0  0  0  0  0  0  0  0  0  0  0  0
    9.9878   -2.3247   -0.1597 H   0  0  0  0  0  0  0  0  0  0  0  0
  1  2  1  0
  1 27  1  0
  1 28  1  0
  1 29  1  0
  2  3  2  0
  2  4  1  0
  4  5  1  0
  4 30  1  0
  4 31  1  0
  5  6  1  0
  5 32  1  0
  5 33  1  0
  6  7  2  0
  6  8  1  0
  8  9  1  0
  8 34  1  0
  9 10  1  0
  9 26  1  0
  9 35  1  1
 10 11  1  0
 10 36  1  0
 10 37  1  0
 11 12  1  0
 11 38  1  0
 11 39  1  0
 12 13  1  0
 12 25  1  0
 13 14  2  0
 13 15  1  0
 15 16  1  0
 15 40  1  0
 15 41  1  0
 16 17  1  0
 16 42  1  0
 16 43  1  0
 17 18  1  0
 17 44  1  0
 18 19  2  0
 18 20  1  0
 21 20  1  1
 21 22  1  0
 21 23  1  0
 21 24  1  0
 22 45  1  0
 22 46  1  0
 22 47  1  0
 23 48  1  0
 23 49  1  0
 23 50  1  0
 24 51  1  0
 24 52  1  0
 24 53  1  0
 25 26  1  0
 25 54  1  0
 25 55  1  0
 26 56  1  0
 26 57  1  0
M  END

