
     RDKit          3D

 40 41  0  0  0  0  0  0  0  0999 V2000
    7.1771    3.6973   -5.1465 C   0  0  0  0  0  0  0  0  0  0  0  0
    7.0204    2.8149   -3.9327 C   0  0  0  0  0  0  0  0  0  0  0  0
    7.7005    3.0865   -2.7375 C   0  0  0  0  0  0  0  0  0  0  0  0
    7.5603    2.2594   -1.6194 C   0  0  0  0  0  0  0  0  0  0  0  0
    6.7338    1.1327   -1.6768 C   0  0  0  0  0  0  0  0  0  0  0  0
    6.5638    0.2273   -0.4766 C   0  0  1  0  0  0  0  0  0  0  0  0
    6.9995    0.8478    0.6586 F   0  0  0  0  0  0  0  0  0  0  0  0
    5.2434   -0.0481   -0.2902 F   0  0  0  0  0  0  0  0  0  0  0  0
    7.2884   -1.1542   -0.5735 C   0  0  1  0  0  0  0  0  0  0  0  0
    6.9687   -1.8418    0.5621 F   0  0  0  0  0  0  0  0  0  0  0  0
    6.6693   -1.8118   -1.6053 F   0  0  0  0  0  0  0  0  0  0  0  0
    8.8020   -1.1464   -0.8277 C   0  0  1  0  0  0  0  0  0  0  0  0
    9.6635   -0.5540    0.3124 C   0  0  0  0  0  0  0  0  0  0  0  0
    9.8502   -1.5007    1.5093 C   0  0  0  0  0  0  0  0  0  0  0  0
   10.3912   -2.8897    1.1099 C   0  0  2  0  0  0  0  0  0  0  0  0
   11.8811   -2.8597    0.7359 C   0  0  0  0  0  0  0  0  0  0  0  0
    9.5108   -3.4930   -0.0048 C   0  0  0  0  0  0  0  0  0  0  0  0
    9.3279   -2.5523   -1.2060 C   0  0  0  0  0  0  0  0  0  0  0  0
    6.0378    0.8540   -2.8634 C   0  0  0  0  0  0  0  0  0  0  0  0
    6.1842    1.6850   -3.9717 C   0  0  0  0  0  0  0  0  0  0  0  0
    7.7558    4.6040   -4.9176 H   0  0  0  0  0  0  0  0  0  0  0  0
    6.1975    4.0097   -5.5436 H   0  0  0  0  0  0  0  0  0  0  0  0
    7.6977    3.1640   -5.9603 H   0  0  0  0  0  0  0  0  0  0  0  0
    8.3476    3.9657   -2.6740 H   0  0  0  0  0  0  0  0  0  0  0  0
    8.0872    2.5004   -0.6949 H   0  0  0  0  0  0  0  0  0  0  0  0
    8.9174   -0.5014   -1.7140 H   0  0  0  0  0  0  0  0  0  0  0  0
    9.2564    0.4055    0.6587 H   0  0  0  0  0  0  0  0  0  0  0  0
   10.6485   -0.3232   -0.1279 H   0  0  0  0  0  0  0  0  0  0  0  0
    8.8845   -1.6249    2.0232 H   0  0  0  0  0  0  0  0  0  0  0  0
   10.5319   -1.0289    2.2378 H   0  0  0  0  0  0  0  0  0  0  0  0
   10.2990   -3.5452    1.9940 H   0  0  0  0  0  0  0  0  0  0  0  0
   12.0877   -2.2288   -0.1438 H   0  0  0  0  0  0  0  0  0  0  0  0
   12.2495   -3.8725    0.5037 H   0  0  0  0  0  0  0  0  0  0  0  0
   12.4886   -2.4676    1.5680 H   0  0  0  0  0  0  0  0  0  0  0  0
    8.5227   -3.7400    0.4146 H   0  0  0  0  0  0  0  0  0  0  0  0
    9.9474   -4.4448   -0.3536 H   0  0  0  0  0  0  0  0  0  0  0  0
    8.6644   -3.0127   -1.9525 H   0  0  0  0  0  0  0  0  0  0  0  0
   10.2978   -2.4055   -1.7106 H   0  0  0  0  0  0  0  0  0  0  0  0
    5.3789   -0.0138   -2.9124 H   0  0  0  0  0  0  0  0  0  0  0  0
    5.6324    1.4557   -4.8879 H   0  0  0  0  0  0  0  0  0  0  0  0
  1  2  1  0
  1 21  1  0
  1 22  1  0
  1 23  1  0
  2  3  2  0
  2 20  1  0
  3  4  1  0
  3 24  1  0
  4  5  2  0
  4 25  1  0
  5  6  1  0
  5 19  1  0
  6  7  1  1
  6  8  1  0
  6  9  1  0
  9 10  1  1
  9 11  1  0
  9 12  1  0
 12 13  1  0
 12 18  1  0
 12 26  1  6
 13 14  1  0
 13 27  1  0
 13 28  1  0
 14 15  1  0
 14 29  1  0
 14 30  1  0
 15 16  1  0
 15 17  1  0
 15 31  1  1
 16 32  1  0
 16 33  1  0
 16 34  1  0
 17 18  1  0
 17 35  1  0
 17 36  1  0
 18 37  1  0
 18 38  1  0
 19 20  2  0
 19 39  1  0
 20 40  1  0
M  END

