
     RDKit          3D

 42 43  0  0  0  0  0  0  0  0999 V2000
    0.0479   -0.3434   -1.5742 C   0  0  0  0  0  0  0  0  0  0  0  0
    1.4477    0.1490   -1.1721 C   0  0  0  0  0  0  0  0  0  0  0  0
    2.5757   -0.6947   -1.7301 C   0  0  0  0  0  0  0  0  0  0  0  0
    3.3384   -0.2054   -2.8024 C   0  0  0  0  0  0  0  0  0  0  0  0
    4.3317   -0.9754   -3.4051 C   0  0  0  0  0  0  0  0  0  0  0  0
    4.5840   -2.2669   -2.9417 C   0  0  0  0  0  0  0  0  0  0  0  0
    3.8634   -2.7946   -1.8637 C   0  0  0  0  0  0  0  0  0  0  0  0
    4.1495   -4.1862   -1.3539 C   0  0  0  0  0  0  0  0  0  0  0  0
    2.8657   -1.9946   -1.2603 C   0  0  0  0  0  0  0  0  0  0  0  0
    2.1425   -2.5706   -0.1744 N   0  0  0  0  0  0  0  0  0  0  0  0
    2.0452   -2.1182    1.0972 C   0  0  0  0  0  0  0  0  0  0  0  0
    2.4718   -1.0691    1.5543 O   0  0  0  0  0  0  0  0  0  0  0  0
    1.2802   -3.1310    1.9866 C   0  0  0  0  0  0  0  0  0  0  0  0
    0.8773   -4.1952    1.5369 O   0  0  0  0  0  0  0  0  0  0  0  0
    1.1594   -2.6638    3.2529 N   0  0  0  0  0  0  0  0  0  0  0  0
    0.5476   -3.2635    4.3606 C   0  0  0  0  0  0  0  0  0  0  0  0
   -0.0684   -4.5262    4.2955 C   0  0  0  0  0  0  0  0  0  0  0  0
   -0.6675   -5.0853    5.4240 C   0  0  0  0  0  0  0  0  0  0  0  0
   -0.6820   -4.4228    6.6584 C   0  0  0  0  0  0  0  0  0  0  0  0
   -1.3229   -5.0285    7.8829 C   0  0  0  0  0  0  0  0  0  0  0  0
   -0.0686   -3.1621    6.7263 C   0  0  0  0  0  0  0  0  0  0  0  0
    0.5322   -2.5953    5.6051 C   0  0  0  0  0  0  0  0  0  0  0  0
    1.3460   -0.8716    5.7814 Br  0  0  0  0  0  0  0  0  0  0  0  0
   -0.7301    0.3136   -1.1531 H   0  0  0  0  0  0  0  0  0  0  0  0
   -0.1449   -1.3643   -1.2097 H   0  0  0  0  0  0  0  0  0  0  0  0
   -0.0736   -0.3514   -2.6694 H   0  0  0  0  0  0  0  0  0  0  0  0
    1.5311    0.2002   -0.0766 H   0  0  0  0  0  0  0  0  0  0  0  0
    1.5806    1.1799   -1.5379 H   0  0  0  0  0  0  0  0  0  0  0  0
    3.1333    0.8024   -3.1735 H   0  0  0  0  0  0  0  0  0  0  0  0
    4.9083   -0.5703   -4.2404 H   0  0  0  0  0  0  0  0  0  0  0  0
    5.3605   -2.8760   -3.4120 H   0  0  0  0  0  0  0  0  0  0  0  0
    5.0178   -4.6217   -1.8681 H   0  0  0  0  0  0  0  0  0  0  0  0
    3.2977   -4.8708   -1.5158 H   0  0  0  0  0  0  0  0  0  0  0  0
    4.3562   -4.1893   -0.2713 H   0  0  0  0  0  0  0  0  0  0  0  0
    1.7732   -3.5158   -0.2801 H   0  0  0  0  0  0  0  0  0  0  0  0
    1.5881   -1.7449    3.3868 H   0  0  0  0  0  0  0  0  0  0  0  0
   -0.0665   -5.0546    3.3443 H   0  0  0  0  0  0  0  0  0  0  0  0
   -1.1374   -6.0685    5.3353 H   0  0  0  0  0  0  0  0  0  0  0  0
   -1.8188   -5.9811    7.6462 H   0  0  0  0  0  0  0  0  0  0  0  0
   -2.0782   -4.3532    8.3177 H   0  0  0  0  0  0  0  0  0  0  0  0
   -0.5760   -5.2260    8.6703 H   0  0  0  0  0  0  0  0  0  0  0  0
   -0.0570   -2.6087    7.6677 H   0  0  0  0  0  0  0  0  0  0  0  0
  1  2  1  0
  1 24  1  0
  1 25  1  0
  1 26  1  0
  2  3  1  0
  2 27  1  0
  2 28  1  0
  3  4  2  0
  3  9  1  0
  4  5  1  0
  4 29  1  0
  5  6  2  0
  5 30  1  0
  6  7  1  0
  6 31  1  0
  7  8  1  0
  7  9  2  0
  8 32  1  0
  8 33  1  0
  8 34  1  0
  9 10  1  0
 10 11  1  0
 10 35  1  0
 11 12  2  0
 11 13  1  0
 13 14  2  0
 13 15  1  0
 15 16  1  0
 15 36  1  0
 16 17  2  0
 16 22  1  0
 17 18  1  0
 17 37  1  0
 18 19  2  0
 18 38  1  0
 19 20  1  0
 19 21  1  0
 20 39  1  0
 20 40  1  0
 20 41  1  0
 21 22  2  0
 21 42  1  0
 22 23  1  0
M  END

