
     RDKit          3D

 41 45  0  0  0  0  0  0  0  0999 V2000
    0.7781   -0.1578    0.1385 C   0  0  0  0  0  0  0  0  0  0  0  0
    2.2603    0.0997    0.0442 C   0  0  0  0  0  0  0  0  0  0  0  0
    2.7492    1.3954   -0.0747 C   0  0  0  0  0  0  0  0  0  0  0  0
    4.1349    1.6443   -0.1116 C   0  0  0  0  0  0  0  0  0  0  0  0
    4.8869    2.8804   -0.1570 C   0  0  0  0  0  0  0  0  0  0  0  0
    4.5263    4.2331   -0.2423 C   0  0  0  0  0  0  0  0  0  0  0  0
    5.5266    5.2050   -0.2351 C   0  0  0  0  0  0  0  0  0  0  0  0
    6.8821    4.8381   -0.1397 C   0  0  0  0  0  0  0  0  0  0  0  0
    7.2668    3.4985   -0.0552 C   0  0  0  0  0  0  0  0  0  0  0  0
    6.2591    2.5247   -0.0704 C   0  0  0  0  0  0  0  0  0  0  0  0
    6.3768    1.1404    0.0122 N   0  0  0  0  0  0  0  0  0  0  0  0
    7.5707    0.5067    0.5363 C   0  0  0  0  0  0  0  0  0  0  0  0
    5.0853    0.5909   -0.0474 C   0  0  0  0  0  0  0  0  0  0  0  0
    4.6047   -0.7365   -0.0601 C   0  0  0  0  0  0  0  0  0  0  0  0
    3.2008   -0.9672    0.0454 C   0  0  0  0  0  0  0  0  0  0  0  0
    3.0265   -2.4087    0.0823 C   0  0  0  0  0  0  0  0  0  0  0  0
    1.9194   -3.2680    0.2012 C   0  0  0  0  0  0  0  0  0  0  0  0
    2.1156   -4.6490    0.1747 C   0  0  0  0  0  0  0  0  0  0  0  0
    3.4043   -5.1916    0.0277 C   0  0  0  0  0  0  0  0  0  0  0  0
    4.5228   -4.3653   -0.0888 C   0  0  0  0  0  0  0  0  0  0  0  0
    4.3226   -2.9792   -0.0541 C   0  0  0  0  0  0  0  0  0  0  0  0
    5.2678   -1.9667   -0.1578 N   0  0  0  0  0  0  0  0  0  0  0  0
    6.5854   -2.2047   -0.7131 C   0  0  0  0  0  0  0  0  0  0  0  0
    0.2127    0.7846    0.0952 H   0  0  0  0  0  0  0  0  0  0  0  0
    0.5116   -0.6641    1.0819 H   0  0  0  0  0  0  0  0  0  0  0  0
    0.4207   -0.8010   -0.6834 H   0  0  0  0  0  0  0  0  0  0  0  0
    2.0511    2.2356   -0.1109 H   0  0  0  0  0  0  0  0  0  0  0  0
    3.4745    4.5221   -0.3115 H   0  0  0  0  0  0  0  0  0  0  0  0
    5.2583    6.2620   -0.3044 H   0  0  0  0  0  0  0  0  0  0  0  0
    7.6511    5.6149   -0.1377 H   0  0  0  0  0  0  0  0  0  0  0  0
    8.3229    3.2280    0.0054 H   0  0  0  0  0  0  0  0  0  0  0  0
    7.3016   -0.3821    1.1207 H   0  0  0  0  0  0  0  0  0  0  0  0
    8.0854    1.2033    1.2158 H   0  0  0  0  0  0  0  0  0  0  0  0
    8.2844    0.2108   -0.2513 H   0  0  0  0  0  0  0  0  0  0  0  0
    0.9117   -2.8689    0.3143 H   0  0  0  0  0  0  0  0  0  0  0  0
    1.2568   -5.3178    0.2703 H   0  0  0  0  0  0  0  0  0  0  0  0
    3.5357   -6.2766    0.0114 H   0  0  0  0  0  0  0  0  0  0  0  0
    5.5219   -4.7944   -0.1875 H   0  0  0  0  0  0  0  0  0  0  0  0
    6.5381   -3.0517   -1.4147 H   0  0  0  0  0  0  0  0  0  0  0  0
    7.3411   -2.4408    0.0553 H   0  0  0  0  0  0  0  0  0  0  0  0
    6.9192   -1.3273   -1.2803 H   0  0  0  0  0  0  0  0  0  0  0  0
  1  2  1  0
  1 24  1  0
  1 25  1  0
  1 26  1  0
  2  3  2  0
  2 15  1  0
  3  4  1  0
  3 27  1  0
  4  5  1  0
  4 13  2  0
  5  6  2  0
  5 10  1  0
  6  7  1  0
  6 28  1  0
  7  8  2  0
  7 29  1  0
  8  9  1  0
  8 30  1  0
  9 10  2  0
  9 31  1  0
 10 11  1  0
 11 12  1  0
 11 13  1  0
 12 32  1  0
 12 33  1  0
 12 34  1  0
 13 14  1  0
 14 15  2  0
 14 22  1  0
 15 16  1  0
 16 17  2  0
 16 21  1  0
 17 18  1  0
 17 35  1  0
 18 19  2  0
 18 36  1  0
 19 20  1  0
 19 37  1  0
 20 21  2  0
 20 38  1  0
 21 22  1  0
 22 23  1  0
 23 39  1  0
 23 40  1  0
 23 41  1  0
M  END

