
     RDKit          3D

 36 35  0  0  0  0  0  0  0  0999 V2000
    3.7563   -3.9232    2.2579 C   0  0  0  0  0  0  0  0  0  0  0  0
    3.3352   -2.1630    2.4586 S   0  0  0  0  0  0  0  0  0  0  0  0
    4.5181   -1.3798    1.2634 C   0  0  1  0  0  0  0  0  0  0  0  0
    3.9804   -1.3849   -0.1661 C   0  0  0  0  0  0  0  0  0  0  0  0
    4.8220    0.0435    1.7526 C   0  0  0  0  0  0  0  0  0  0  0  0
    5.4817    0.0720    3.0407 N   0  0  0  0  0  0  0  0  0  0  0  0
    6.6856    0.6798    3.2501 C   0  0  0  0  0  0  0  0  0  0  0  0
    7.2820    1.2724    2.3570 O   0  0  0  0  0  0  0  0  0  0  0  0
    7.2197    0.5772    4.6759 C   0  0  0  0  0  0  0  0  0  0  0  0
    8.7326    0.2353    4.7399 C   0  0  1  0  0  0  0  0  0  0  0  0
    9.5750    1.2594    4.1294 N   0  0  0  0  0  0  0  0  0  0  0  0
    9.2189   -0.0540    6.1837 C   0  0  1  0  0  0  0  0  0  0  0  0
    8.4074   -1.1426    6.9002 C   0  0  0  0  0  0  0  0  0  0  0  0
   10.7106   -0.4175    6.1918 C   0  0  0  0  0  0  0  0  0  0  0  0
    3.0947   -4.4849    2.9329 H   0  0  0  0  0  0  0  0  0  0  0  0
    4.8019   -4.1219    2.5389 H   0  0  0  0  0  0  0  0  0  0  0  0
    3.5769   -4.2677    1.2284 H   0  0  0  0  0  0  0  0  0  0  0  0
    5.4503   -1.9659    1.3217 H   0  0  0  0  0  0  0  0  0  0  0  0
    3.0570   -0.7892   -0.2410 H   0  0  0  0  0  0  0  0  0  0  0  0
    3.7489   -2.4054   -0.5064 H   0  0  0  0  0  0  0  0  0  0  0  0
    4.7244   -0.9587   -0.8608 H   0  0  0  0  0  0  0  0  0  0  0  0
    3.8835    0.6296    1.7809 H   0  0  0  0  0  0  0  0  0  0  0  0
    5.4966    0.5432    1.0419 H   0  0  0  0  0  0  0  0  0  0  0  0
    5.0473   -0.4542    3.7915 H   0  0  0  0  0  0  0  0  0  0  0  0
    6.6211   -0.1557    5.2372 H   0  0  0  0  0  0  0  0  0  0  0  0
    7.0610    1.5580    5.1612 H   0  0  0  0  0  0  0  0  0  0  0  0
    8.8811   -0.6951    4.1572 H   0  0  0  0  0  0  0  0  0  0  0  0
    9.4888    2.1272    4.6644 H   0  0  0  0  0  0  0  0  0  0  0  0
    9.2020    1.4693    3.2016 H   0  0  0  0  0  0  0  0  0  0  0  0
    9.0959    0.8890    6.7544 H   0  0  0  0  0  0  0  0  0  0  0  0
    8.4075   -2.0821    6.3201 H   0  0  0  0  0  0  0  0  0  0  0  0
    7.3597   -0.8558    7.0781 H   0  0  0  0  0  0  0  0  0  0  0  0
    8.8502   -1.3667    7.8838 H   0  0  0  0  0  0  0  0  0  0  0  0
   10.8753   -1.3850    5.6862 H   0  0  0  0  0  0  0  0  0  0  0  0
   11.0867   -0.5122    7.2233 H   0  0  0  0  0  0  0  0  0  0  0  0
   11.3034    0.3372    5.6593 H   0  0  0  0  0  0  0  0  0  0  0  0
  1  2  1  0
  1 15  1  0
  1 16  1  0
  1 17  1  0
  2  3  1  0
  3  4  1  0
  3  5  1  0
  3 18  1  6
  4 19  1  0
  4 20  1  0
  4 21  1  0
  5  6  1  0
  5 22  1  0
  5 23  1  0
  6  7  1  0
  6 24  1  0
  7  8  2  0
  7  9  1  0
  9 10  1  0
  9 25  1  0
  9 26  1  0
 10 11  1  0
 10 12  1  0
 10 27  1  6
 11 28  1  0
 11 29  1  0
 12 13  1  0
 12 14  1  0
 12 30  1  1
 13 31  1  0
 13 32  1  0
 13 33  1  0
 14 34  1  0
 14 35  1  0
 14 36  1  0
M  END

