
     RDKit          3D

 80 89  0  0  0  0  0  0  0  0999 V2000
    7.0933   -3.2037   -3.0319 C   0  0  0  0  0  0  0  0  0  0  0  0
    7.6985   -2.5009   -1.9844 C   0  0  0  0  0  0  0  0  0  0  0  0
    6.9252   -1.7176   -1.1270 C   0  0  0  0  0  0  0  0  0  0  0  0
    5.5304   -1.6395   -1.2896 C   0  0  0  0  0  0  0  0  0  0  0  0
    4.7432   -0.7450   -0.3924 C   0  0  0  0  0  0  0  0  0  0  0  0
    5.3141    0.4031   -0.0808 N   0  0  0  0  0  0  0  0  0  0  0  0
    4.6164    1.3285    0.6208 C   0  0  0  0  0  0  0  0  0  0  0  0
    5.2139    2.5705    0.9683 C   0  0  0  0  0  0  0  0  0  0  0  0
    4.4712    3.5293    1.6259 C   0  0  0  0  0  0  0  0  0  0  0  0
    3.1111    3.2899    1.9608 C   0  0  0  0  0  0  0  0  0  0  0  0
    2.5101    2.0883    1.6471 C   0  0  0  0  0  0  0  0  0  0  0  0
    3.2557    1.0782    0.9812 C   0  0  0  0  0  0  0  0  0  0  0  0
    2.6995   -0.1304    0.7232 N   0  0  0  0  0  0  0  0  0  0  0  0
    3.4082   -1.0507    0.0983 C   0  0  0  0  0  0  0  0  0  0  0  0
    2.7616   -2.3935   -0.0000 C   0  0  0  0  0  0  0  0  0  0  0  0
    3.4706   -3.5804    0.2325 C   0  0  0  0  0  0  0  0  0  0  0  0
    2.8148   -4.8218    0.2417 C   0  0  0  0  0  0  0  0  0  0  0  0
    3.6198   -6.0625    0.4534 C   0  0  0  0  0  0  0  0  0  0  0  0
    4.7943   -6.0813   -0.1449 N   0  0  0  0  0  0  0  0  0  0  0  0
    5.5369   -7.2142   -0.1213 C   0  0  0  0  0  0  0  0  0  0  0  0
    6.8084   -7.2550   -0.7548 C   0  0  0  0  0  0  0  0  0  0  0  0
    7.5234   -8.4346   -0.7790 C   0  0  0  0  0  0  0  0  0  0  0  0
    7.0013   -9.6116   -0.1776 C   0  0  0  0  0  0  0  0  0  0  0  0
    5.7752   -9.5957    0.4548 C   0  0  0  0  0  0  0  0  0  0  0  0
    5.0226   -8.3911    0.5070 C   0  0  0  0  0  0  0  0  0  0  0  0
    3.8475   -8.3431    1.1797 N   0  0  0  0  0  0  0  0  0  0  0  0
    3.1630   -7.2156    1.2140 C   0  0  0  0  0  0  0  0  0  0  0  0
    1.9607   -7.2099    2.0968 C   0  0  0  0  0  0  0  0  0  0  0  0
    1.6561   -6.1191    2.9306 C   0  0  0  0  0  0  0  0  0  0  0  0
    0.5589   -6.1699    3.7926 C   0  0  0  0  0  0  0  0  0  0  0  0
   -0.2557   -7.3056    3.8296 C   0  0  0  0  0  0  0  0  0  0  0  0
    0.0446   -8.3999    3.0118 C   0  0  0  0  0  0  0  0  0  0  0  0
    1.1496   -8.3571    2.1609 C   0  0  0  0  0  0  0  0  0  0  0  0
    1.4363   -4.8710   -0.0145 C   0  0  0  0  0  0  0  0  0  0  0  0
    0.7221   -3.6927   -0.2717 C   0  0  0  0  0  0  0  0  0  0  0  0
   -0.6715   -3.7490   -0.5386 N   0  0  0  0  0  0  0  0  0  0  0  0
   -1.6648   -3.0639    0.1698 C   0  0  0  0  0  0  0  0  0  0  0  0
   -1.5447   -2.2018    1.2678 C   0  0  0  0  0  0  0  0  0  0  0  0
   -2.7156   -1.6625    1.8025 C   0  0  0  0  0  0  0  0  0  0  0  0
   -3.9796   -1.9703    1.2647 C   0  0  0  0  0  0  0  0  0  0  0  0
   -4.0948   -2.8347    0.1771 C   0  0  0  0  0  0  0  0  0  0  0  0
   -2.9342   -3.3919   -0.3794 C   0  0  0  0  0  0  0  0  0  0  0  0
   -2.6919   -4.3136   -1.4721 C   0  0  0  0  0  0  0  0  0  0  0  0
   -3.5264   -4.9660   -2.3911 C   0  0  0  0  0  0  0  0  0  0  0  0
   -2.9575   -5.7930   -3.3587 C   0  0  0  0  0  0  0  0  0  0  0  0
   -1.5621   -5.9668   -3.4197 C   0  0  0  0  0  0  0  0  0  0  0  0
   -0.7090   -5.3299   -2.5173 C   0  0  0  0  0  0  0  0  0  0  0  0
   -1.2854   -4.5099   -1.5383 C   0  0  0  0  0  0  0  0  0  0  0  0
    1.3824   -2.4593   -0.2529 C   0  0  0  0  0  0  0  0  0  0  0  0
    4.9333   -2.3433   -2.3503 C   0  0  0  0  0  0  0  0  0  0  0  0
    5.7100   -3.1162   -3.2153 C   0  0  0  0  0  0  0  0  0  0  0  0
    7.6991   -3.8120   -3.7086 H   0  0  0  0  0  0  0  0  0  0  0  0
    8.7804   -2.5582   -1.8386 H   0  0  0  0  0  0  0  0  0  0  0  0
    7.3924   -1.1485   -0.3215 H   0  0  0  0  0  0  0  0  0  0  0  0
    6.2559    2.7348    0.6865 H   0  0  0  0  0  0  0  0  0  0  0  0
    4.9270    4.4871    1.8892 H   0  0  0  0  0  0  0  0  0  0  0  0
    2.5413    4.0670    2.4764 H   0  0  0  0  0  0  0  0  0  0  0  0
    1.4708    1.8742    1.9044 H   0  0  0  0  0  0  0  0  0  0  0  0
    4.5437   -3.5603    0.4207 H   0  0  0  0  0  0  0  0  0  0  0  0
    7.1779   -6.3389   -1.2202 H   0  0  0  0  0  0  0  0  0  0  0  0
    8.4998   -8.4715   -1.2689 H   0  0  0  0  0  0  0  0  0  0  0  0
    7.5841  -10.5355   -0.2141 H   0  0  0  0  0  0  0  0  0  0  0  0
    5.3585  -10.4822    0.9370 H   0  0  0  0  0  0  0  0  0  0  0  0
    2.2893   -5.2300    2.9193 H   0  0  0  0  0  0  0  0  0  0  0  0
    0.3401   -5.3170    4.4399 H   0  0  0  0  0  0  0  0  0  0  0  0
   -1.1202   -7.3392    4.4975 H   0  0  0  0  0  0  0  0  0  0  0  0
   -0.5843   -9.2934    3.0396 H   0  0  0  0  0  0  0  0  0  0  0  0
    1.4027   -9.2146    1.5349 H   0  0  0  0  0  0  0  0  0  0  0  0
    0.9057   -5.8231   -0.0165 H   0  0  0  0  0  0  0  0  0  0  0  0
   -0.5709   -1.9546    1.6932 H   0  0  0  0  0  0  0  0  0  0  0  0
   -2.6461   -0.9858    2.6581 H   0  0  0  0  0  0  0  0  0  0  0  0
   -4.8761   -1.5288    1.7065 H   0  0  0  0  0  0  0  0  0  0  0  0
   -5.0769   -3.0784   -0.2360 H   0  0  0  0  0  0  0  0  0  0  0  0
   -4.6094   -4.8242   -2.3505 H   0  0  0  0  0  0  0  0  0  0  0  0
   -3.5973   -6.3074   -4.0797 H   0  0  0  0  0  0  0  0  0  0  0  0
   -1.1339   -6.6120   -4.1911 H   0  0  0  0  0  0  0  0  0  0  0  0
    0.3718   -5.4654   -2.5799 H   0  0  0  0  0  0  0  0  0  0  0  0
    0.8282   -1.5388   -0.4362 H   0  0  0  0  0  0  0  0  0  0  0  0
    3.8564   -2.2744   -2.5139 H   0  0  0  0  0  0  0  0  0  0  0  0
    5.2312   -3.6499   -4.0399 H   0  0  0  0  0  0  0  0  0  0  0  0
  1  2  2  0
  1 51  1  0
  1 52  1  0
  2  3  1  0
  2 53  1  0
  3  4  2  0
  3 54  1  0
  4  5  1  0
  4 50  1  0
  5  6  2  0
  5 14  1  0
  6  7  1  0
  7  8  2  0
  7 12  1  0
  8  9  1  0
  8 55  1  0
  9 10  2  0
  9 56  1  0
 10 11  1  0
 10 57  1  0
 11 12  2  0
 11 58  1  0
 12 13  1  0
 13 14  2  0
 14 15  1  0
 15 16  2  0
 15 49  1  0
 16 17  1  0
 16 59  1  0
 17 18  1  0
 17 34  2  0
 18 19  2  0
 18 27  1  0
 19 20  1  0
 20 21  2  0
 20 25  1  0
 21 22  1  0
 21 60  1  0
 22 23  2  0
 22 61  1  0
 23 24  1  0
 23 62  1  0
 24 25  2  0
 24 63  1  0
 25 26  1  0
 26 27  2  0
 27 28  1  0
 28 29  2  0
 28 33  1  0
 29 30  1  0
 29 64  1  0
 30 31  2  0
 30 65  1  0
 31 32  1  0
 31 66  1  0
 32 33  2  0
 32 67  1  0
 33 68  1  0
 34 35  1  0
 34 69  1  0
 35 36  1  0
 35 49  2  0
 36 37  1  0
 36 48  1  0
 37 38  2  0
 37 42  1  0
 38 39  1  0
 38 70  1  0
 39 40  2  0
 39 71  1  0
 40 41  1  0
 40 72  1  0
 41 42  2  0
 41 73  1  0
 42 43  1  0
 43 44  1  0
 43 48  2  0
 44 45  2  0
 44 74  1  0
 45 46  1  0
 45 75  1  0
 46 47  2  0
 46 76  1  0
 47 48  1  0
 47 77  1  0
 49 78  1  0
 50 51  2  0
 50 79  1  0
 51 80  1  0
M  END

