
     RDKit          3D

 43 43  0  0  0  0  0  0  0  0999 V2000
    0.7923   -0.1744    0.1822 C   0  0  0  0  0  0  0  0  0  0  0  0
    2.3231   -0.2157    0.0727 C   0  0  1  0  0  0  0  0  0  0  0  0
    2.8603   -1.5718   -0.4319 C   0  0  0  0  0  0  0  0  0  0  0  0
    2.5999   -1.8042   -1.9274 C   0  0  0  0  0  0  0  0  0  0  0  0
    3.1556   -0.6509   -2.7731 C   0  0  0  0  0  0  0  0  0  0  0  0
    2.6145    0.7034   -2.2964 C   0  0  0  0  0  0  0  0  0  0  0  0
    2.8750    0.9363   -0.8037 C   0  0  2  0  0  0  0  0  0  0  0  0
    4.2853    1.0760   -0.6446 O   0  0  0  0  0  0  0  0  0  0  0  0
    4.7175    1.7996    0.4846 C   0  0  0  0  0  0  0  0  0  0  0  0
    6.2343    1.9357    0.4390 C   0  0  0  0  0  0  0  0  0  0  0  0
    6.7468    2.7096   -0.7783 C   0  0  0  0  0  0  0  0  0  0  0  0
    8.2741    2.7916   -0.8479 C   0  0  0  0  0  0  0  0  0  0  0  0
    8.7710    3.5713   -2.0718 C   0  0  0  0  0  0  0  0  0  0  0  0
   10.2968    3.6287   -2.1257 C   0  0  0  0  0  0  0  0  0  0  0  0
   10.8471    4.5679   -3.5790 S   0  0  1  0  0  0  0  0  0  0  0  0
   10.5250    3.8297   -4.7925 O   0  0  0  0  0  0  0  0  0  0  0  0
   10.4889    5.9709   -3.4208 O   0  0  0  0  0  0  0  0  0  0  0  0
   12.9721    4.4196   -3.2909 Cl  0  0  0  0  0  0  0  0  0  0  0  0
    0.4320   -0.9487    0.8785 H   0  0  0  0  0  0  0  0  0  0  0  0
    0.2919   -0.3458   -0.7836 H   0  0  0  0  0  0  0  0  0  0  0  0
    0.4455    0.8006    0.5629 H   0  0  0  0  0  0  0  0  0  0  0  0
    2.7159   -0.0603    1.0929 H   0  0  0  0  0  0  0  0  0  0  0  0
    2.4254   -2.3897    0.1679 H   0  0  0  0  0  0  0  0  0  0  0  0
    3.9490   -1.5973   -0.2567 H   0  0  0  0  0  0  0  0  0  0  0  0
    1.5151   -1.9072   -2.1117 H   0  0  0  0  0  0  0  0  0  0  0  0
    3.0523   -2.7601   -2.2408 H   0  0  0  0  0  0  0  0  0  0  0  0
    2.9133   -0.8001   -3.8387 H   0  0  0  0  0  0  0  0  0  0  0  0
    4.2561   -0.6398   -2.6972 H   0  0  0  0  0  0  0  0  0  0  0  0
    1.5275    0.7584   -2.4785 H   0  0  0  0  0  0  0  0  0  0  0  0
    3.0728    1.5293   -2.8640 H   0  0  0  0  0  0  0  0  0  0  0  0
    2.3889    1.8845   -0.4954 H   0  0  0  0  0  0  0  0  0  0  0  0
    4.4202    1.2957    1.4259 H   0  0  0  0  0  0  0  0  0  0  0  0
    4.2440    2.8050    0.4968 H   0  0  0  0  0  0  0  0  0  0  0  0
    6.6752    0.9231    0.4494 H   0  0  0  0  0  0  0  0  0  0  0  0
    6.5637    2.4306    1.3701 H   0  0  0  0  0  0  0  0  0  0  0  0
    6.3259    3.7320   -0.7658 H   0  0  0  0  0  0  0  0  0  0  0  0
    6.3586    2.2298   -1.6917 H   0  0  0  0  0  0  0  0  0  0  0  0
    8.6962    1.7703   -0.8674 H   0  0  0  0  0  0  0  0  0  0  0  0
    8.6644    3.2650    0.0717 H   0  0  0  0  0  0  0  0  0  0  0  0
    8.3728    4.5991   -2.0508 H   0  0  0  0  0  0  0  0  0  0  0  0
    8.3946    3.1011   -2.9950 H   0  0  0  0  0  0  0  0  0  0  0  0
   10.7626    2.6385   -2.2334 H   0  0  0  0  0  0  0  0  0  0  0  0
   10.7397    4.1512   -1.2656 H   0  0  0  0  0  0  0  0  0  0  0  0
  1  2  1  0
  1 19  1  0
  1 20  1  0
  1 21  1  0
  2  3  1  0
  2  7  1  0
  2 22  1  1
  3  4  1  0
  3 23  1  0
  3 24  1  0
  4  5  1  0
  4 25  1  0
  4 26  1  0
  5  6  1  0
  5 27  1  0
  5 28  1  0
  6  7  1  0
  6 29  1  0
  6 30  1  0
  7  8  1  0
  7 31  1  1
  8  9  1  0
  9 10  1  0
  9 32  1  0
  9 33  1  0
 10 11  1  0
 10 34  1  0
 10 35  1  0
 11 12  1  0
 11 36  1  0
 11 37  1  0
 12 13  1  0
 12 38  1  0
 12 39  1  0
 13 14  1  0
 13 40  1  0
 13 41  1  0
 14 15  1  0
 14 42  1  0
 14 43  1  0
 15 16  2  0
 15 17  2  0
 15 18  1  1
M  END

