
     RDKit          3D

 30 29  0  0  0  0  0  0  0  0999 V2000
    3.4223   -0.2254    3.5015 C   0  0  0  0  0  0  0  0  0  0  0  0
    3.0138    0.3354    2.2169 N   0  0  0  0  0  0  0  0  0  0  0  0
    3.0206   -0.5503    1.0522 C   0  0  1  0  0  0  0  0  0  0  0  0
    2.5023   -1.9805    1.3250 C   0  0  0  0  0  0  0  0  0  0  0  0
    1.0495   -2.0599    1.7951 C   0  0  0  0  0  0  0  0  0  0  0  0
    0.7474   -2.1052    2.9804 O   0  0  0  0  0  0  0  0  0  0  0  0
    0.1266   -2.0827    0.7909 N   0  0  0  0  0  0  0  0  0  0  0  0
   -1.3134   -2.0794    1.0367 C   0  0  1  0  0  0  0  0  0  0  0  0
   -1.8752   -0.6517    1.0666 C   0  0  0  0  0  0  0  0  0  0  0  0
   -2.0197   -2.9631    0.0064 C   0  0  0  0  0  0  0  0  0  0  0  0
    2.1903    0.0460   -0.1074 C   0  0  0  0  0  0  0  0  0  0  0  0
    1.5433    1.1956    0.1922 N   0  0  0  0  0  0  0  0  0  0  0  0
    2.1279   -0.5182   -1.1912 O   0  0  0  0  0  0  0  0  0  0  0  0
    3.4678    0.5890    4.2409 H   0  0  0  0  0  0  0  0  0  0  0  0
    4.4162   -0.7220    3.4852 H   0  0  0  0  0  0  0  0  0  0  0  0
    2.6732   -0.9508    3.8487 H   0  0  0  0  0  0  0  0  0  0  0  0
    3.6047    1.1379    2.0019 H   0  0  0  0  0  0  0  0  0  0  0  0
    4.0410   -0.6850    0.6336 H   0  0  0  0  0  0  0  0  0  0  0  0
    3.1233   -2.4714    2.0856 H   0  0  0  0  0  0  0  0  0  0  0  0
    2.6247   -2.5322    0.3818 H   0  0  0  0  0  0  0  0  0  0  0  0
    0.4556   -1.9688   -0.1647 H   0  0  0  0  0  0  0  0  0  0  0  0
   -1.4373   -2.5162    2.0394 H   0  0  0  0  0  0  0  0  0  0  0  0
   -1.7401   -0.1537    0.0912 H   0  0  0  0  0  0  0  0  0  0  0  0
   -1.3625   -0.0538    1.8352 H   0  0  0  0  0  0  0  0  0  0  0  0
   -2.9524   -0.6575    1.2992 H   0  0  0  0  0  0  0  0  0  0  0  0
   -1.8869   -2.5680   -1.0160 H   0  0  0  0  0  0  0  0  0  0  0  0
   -3.1016   -3.0058    0.2067 H   0  0  0  0  0  0  0  0  0  0  0  0
   -1.6246   -3.9905    0.0293 H   0  0  0  0  0  0  0  0  0  0  0  0
    1.5152    1.4760    1.1690 H   0  0  0  0  0  0  0  0  0  0  0  0
    0.9144    1.5971   -0.4929 H   0  0  0  0  0  0  0  0  0  0  0  0
  1  2  1  0
  1 14  1  0
  1 15  1  0
  1 16  1  0
  2  3  1  0
  2 17  1  0
  3  4  1  0
  3 11  1  0
  3 18  1  6
  4  5  1  0
  4 19  1  0
  4 20  1  0
  5  6  2  0
  5  7  1  0
  7  8  1  0
  7 21  1  0
  8  9  1  0
  8 10  1  0
  8 22  1  1
  9 23  1  0
  9 24  1  0
  9 25  1  0
 10 26  1  0
 10 27  1  0
 10 28  1  0
 11 12  1  0
 11 13  2  0
 12 29  1  0
 12 30  1  0
M  END

