
     RDKit          3D

 50 51  0  0  0  0  0  0  0  0999 V2000
    1.8681    0.5814   -3.4581 C   0  0  0  0  0  0  0  0  0  0  0  0
    1.6170   -0.8792   -3.1667 C   0  0  0  0  0  0  0  0  0  0  0  0
    0.3222   -1.4167   -3.1992 C   0  0  0  0  0  0  0  0  0  0  0  0
    0.1107   -2.7762   -2.9511 C   0  0  0  0  0  0  0  0  0  0  0  0
    1.1882   -3.6161   -2.6653 C   0  0  0  0  0  0  0  0  0  0  0  0
    2.4972   -3.1075   -2.6226 C   0  0  0  0  0  0  0  0  0  0  0  0
    3.6664   -3.9963   -2.2633 C   0  0  0  0  0  0  0  0  0  0  0  0
    3.9155   -4.0746   -0.7413 C   0  0  0  0  0  0  0  0  0  0  0  0
    5.0522   -4.9218   -0.4062 N   0  0  0  0  0  0  0  0  0  0  0  0
    5.9077   -4.4638    0.6867 C   0  0  0  0  0  0  0  0  0  0  0  0
    5.3932   -4.8511    2.0898 C   0  0  2  0  0  0  0  0  0  0  0  0
    6.3103   -4.4033    3.2735 C   0  0  1  0  0  0  0  0  0  0  0  0
    6.4784   -2.8712    3.2477 C   0  0  0  0  0  0  0  0  0  0  0  0
    5.6315   -4.7804    4.6085 C   0  0  0  0  0  0  0  0  0  0  0  0
    7.6946   -5.0773    3.2113 C   0  0  0  0  0  0  0  0  0  0  0  0
    5.1910   -6.3008    2.0829 N   0  0  0  0  0  0  0  0  0  0  0  0
    4.2438   -6.7393    1.0646 C   0  0  0  0  0  0  0  0  0  0  0  0
    4.7574   -6.3619   -0.3383 C   0  0  2  0  0  0  0  0  0  0  0  0
    5.9598   -7.2107   -0.7673 C   0  0  0  0  0  0  0  0  0  0  0  0
    2.6865   -1.7409   -2.8738 C   0  0  0  0  0  0  0  0  0  0  0  0
    0.9316    1.1586   -3.4717 H   0  0  0  0  0  0  0  0  0  0  0  0
    2.3542    0.7145   -4.4402 H   0  0  0  0  0  0  0  0  0  0  0  0
    2.5351    1.0342   -2.7066 H   0  0  0  0  0  0  0  0  0  0  0  0
   -0.5277   -0.7659   -3.4241 H   0  0  0  0  0  0  0  0  0  0  0  0
   -0.9038   -3.1829   -2.9837 H   0  0  0  0  0  0  0  0  0  0  0  0
    1.0151   -4.6800   -2.4778 H   0  0  0  0  0  0  0  0  0  0  0  0
    4.5910   -3.6328   -2.7392 H   0  0  0  0  0  0  0  0  0  0  0  0
    3.4907   -5.0131   -2.6521 H   0  0  0  0  0  0  0  0  0  0  0  0
    2.9728   -4.3878   -0.2433 H   0  0  0  0  0  0  0  0  0  0  0  0
    4.1178   -3.0556   -0.3741 H   0  0  0  0  0  0  0  0  0  0  0  0
    6.0132   -3.3733    0.6014 H   0  0  0  0  0  0  0  0  0  0  0  0
    6.9127   -4.8962    0.5508 H   0  0  0  0  0  0  0  0  0  0  0  0
    4.4222   -4.3177    2.2368 H   0  0  0  0  0  0  0  0  0  0  0  0
    5.5019   -2.3583    3.2477 H   0  0  0  0  0  0  0  0  0  0  0  0
    7.0410   -2.5284    2.3660 H   0  0  0  0  0  0  0  0  0  0  0  0
    7.0320   -2.5318    4.1381 H   0  0  0  0  0  0  0  0  0  0  0  0
    4.6128   -4.3629    4.6739 H   0  0  0  0  0  0  0  0  0  0  0  0
    6.2096   -4.3848    5.4591 H   0  0  0  0  0  0  0  0  0  0  0  0
    5.5655   -5.8709    4.7541 H   0  0  0  0  0  0  0  0  0  0  0  0
    8.2703   -4.7529    2.3306 H   0  0  0  0  0  0  0  0  0  0  0  0
    7.5967   -6.1716    3.1629 H   0  0  0  0  0  0  0  0  0  0  0  0
    8.2882   -4.8190    4.1037 H   0  0  0  0  0  0  0  0  0  0  0  0
    4.8866   -6.6240    2.9972 H   0  0  0  0  0  0  0  0  0  0  0  0
    3.2364   -6.2847    1.2057 H   0  0  0  0  0  0  0  0  0  0  0  0
    4.1154   -7.8320    1.1397 H   0  0  0  0  0  0  0  0  0  0  0  0
    3.9417   -6.5575   -1.0535 H   0  0  0  0  0  0  0  0  0  0  0  0
    6.7757   -7.1524   -0.0324 H   0  0  0  0  0  0  0  0  0  0  0  0
    6.3383   -6.8671   -1.7417 H   0  0  0  0  0  0  0  0  0  0  0  0
    5.6722   -8.2708   -0.8562 H   0  0  0  0  0  0  0  0  0  0  0  0
    3.7034   -1.3345   -2.8468 H   0  0  0  0  0  0  0  0  0  0  0  0
  1  2  1  0
  1 21  1  0
  1 22  1  0
  1 23  1  0
  2  3  2  0
  2 20  1  0
  3  4  1  0
  3 24  1  0
  4  5  2  0
  4 25  1  0
  5  6  1  0
  5 26  1  0
  6  7  1  0
  6 20  2  0
  7  8  1  0
  7 27  1  0
  7 28  1  0
  8  9  1  0
  8 29  1  0
  8 30  1  0
  9 10  1  0
  9 18  1  0
 10 11  1  0
 10 31  1  0
 10 32  1  0
 11 12  1  0
 11 16  1  0
 11 33  1  1
 12 13  1  1
 12 14  1  0
 12 15  1  0
 13 34  1  0
 13 35  1  0
 13 36  1  0
 14 37  1  0
 14 38  1  0
 14 39  1  0
 15 40  1  0
 15 41  1  0
 15 42  1  0
 16 17  1  0
 16 43  1  0
 17 18  1  0
 17 44  1  0
 17 45  1  0
 18 19  1  0
 18 46  1  6
 19 47  1  0
 19 48  1  0
 19 49  1  0
 20 50  1  0
M  END

