
     RDKit          3D

 58 61  0  0  0  0  0  0  0  0999 V2000
    1.3783    1.3828    1.1326 C   0  0  0  0  0  0  0  0  0  0  0  0
    2.7886    0.9956    0.7575 C   0  0  0  0  0  0  0  0  0  0  0  0
    3.8511    1.1553    1.6525 C   0  0  0  0  0  0  0  0  0  0  0  0
    5.1645    0.7966    1.3165 C   0  0  0  0  0  0  0  0  0  0  0  0
    6.2687    0.9576    2.3339 C   0  0  0  0  0  0  0  0  0  0  0  0
    5.4149    0.2739    0.0318 C   0  0  0  0  0  0  0  0  0  0  0  0
    6.7510   -0.0603   -0.3524 N   0  0  0  0  0  0  0  0  0  0  0  0
    7.7697    0.9535   -0.5927 C   0  0  0  0  0  0  0  0  0  0  0  0
    8.8816    0.2052   -1.3918 C   0  0  2  0  0  0  0  0  0  0  0  0
    8.7208    0.4865   -2.8903 C   0  0  0  0  0  0  0  0  0  0  0  0
    8.0216   -0.2213   -3.6047 O   0  0  0  0  0  0  0  0  0  0  0  0
    9.3576    1.5861   -3.3879 N   0  0  0  0  0  0  0  0  0  0  0  0
    9.2439    1.9265   -4.8053 C   0  0  0  0  0  0  0  0  0  0  0  0
   10.3731    2.9500   -5.0386 C   0  0  1  0  0  0  0  0  0  0  0  0
   11.3169    2.3982   -5.1950 H   0  0  0  0  0  0  0  0  0  0  0  0
   10.2215    3.8726   -6.1432 N   0  0  0  0  0  0  0  0  0  0  0  0
   10.4609    3.6663   -3.6670 C   0  0  2  0  0  0  0  0  0  0  0  0
    9.5881    4.3413   -3.6122 H   0  0  0  0  0  0  0  0  0  0  0  0
   11.7057    4.4946   -3.4304 C   0  0  0  0  0  0  0  0  0  0  0  0
   11.6107    5.8820   -3.2472 C   0  0  0  0  0  0  0  0  0  0  0  0
   12.7509    6.6635   -3.0383 C   0  0  0  0  0  0  0  0  0  0  0  0
   14.0135    6.0667   -3.0084 C   0  0  0  0  0  0  0  0  0  0  0  0
   14.1252    4.6846   -3.1912 C   0  0  0  0  0  0  0  0  0  0  0  0
   12.9829    3.9088   -3.4001 C   0  0  0  0  0  0  0  0  0  0  0  0
   10.2284    2.5197   -2.6639 C   0  0  0  0  0  0  0  0  0  0  0  0
    8.6293   -1.2752   -1.0696 C   0  0  0  0  0  0  0  0  0  0  0  0
    7.1799   -1.3521   -0.5969 C   0  0  0  0  0  0  0  0  0  0  0  0
    6.5219   -2.3572   -0.4413 O   0  0  0  0  0  0  0  0  0  0  0  0
    4.3607    0.0843   -0.8919 C   0  0  0  0  0  0  0  0  0  0  0  0
    4.6007   -0.5267   -2.2487 C   0  0  0  0  0  0  0  0  0  0  0  0
    3.0672    0.4527   -0.5043 C   0  0  0  0  0  0  0  0  0  0  0  0
    1.3243    1.7761    2.1586 H   0  0  0  0  0  0  0  0  0  0  0  0
    0.6951    0.5195    1.0665 H   0  0  0  0  0  0  0  0  0  0  0  0
    0.9814    2.1569    0.4542 H   0  0  0  0  0  0  0  0  0  0  0  0
    3.6548    1.5579    2.6509 H   0  0  0  0  0  0  0  0  0  0  0  0
    5.8577    0.9957    3.3534 H   0  0  0  0  0  0  0  0  0  0  0  0
    6.8392    1.8910    2.1813 H   0  0  0  0  0  0  0  0  0  0  0  0
    6.9858    0.1242    2.2857 H   0  0  0  0  0  0  0  0  0  0  0  0
    8.1751    1.3597    0.3514 H   0  0  0  0  0  0  0  0  0  0  0  0
    7.3442    1.8002   -1.1566 H   0  0  0  0  0  0  0  0  0  0  0  0
    9.8718    0.5336   -1.0491 H   0  0  0  0  0  0  0  0  0  0  0  0
    8.2589    2.3820   -5.0259 H   0  0  0  0  0  0  0  0  0  0  0  0
    9.3246    1.0219   -5.4264 H   0  0  0  0  0  0  0  0  0  0  0  0
    9.3043    4.3207   -6.1230 H   0  0  0  0  0  0  0  0  0  0  0  0
   10.2986    3.3934   -7.0393 H   0  0  0  0  0  0  0  0  0  0  0  0
   10.6268    6.3587   -3.2731 H   0  0  0  0  0  0  0  0  0  0  0  0
   12.6508    7.7431   -2.8997 H   0  0  0  0  0  0  0  0  0  0  0  0
   14.9071    6.6744   -2.8453 H   0  0  0  0  0  0  0  0  0  0  0  0
   15.1086    4.2075   -3.1729 H   0  0  0  0  0  0  0  0  0  0  0  0
   13.0946    2.8305   -3.5463 H   0  0  0  0  0  0  0  0  0  0  0  0
    9.7629    2.8863   -1.7357 H   0  0  0  0  0  0  0  0  0  0  0  0
   11.1853    2.0427   -2.3853 H   0  0  0  0  0  0  0  0  0  0  0  0
    9.2806   -1.6392   -0.2585 H   0  0  0  0  0  0  0  0  0  0  0  0
    8.7563   -1.9342   -1.9379 H   0  0  0  0  0  0  0  0  0  0  0  0
    5.5194   -0.1530   -2.7249 H   0  0  0  0  0  0  0  0  0  0  0  0
    3.7515   -0.3366   -2.9212 H   0  0  0  0  0  0  0  0  0  0  0  0
    4.7301   -1.6172   -2.1528 H   0  0  0  0  0  0  0  0  0  0  0  0
    2.2485    0.3093   -1.2165 H   0  0  0  0  0  0  0  0  0  0  0  0
  1  2  1  0
  1 32  1  0
  1 33  1  0
  1 34  1  0
  2  3  2  0
  2 31  1  0
  3  4  1  0
  3 35  1  0
  4  5  1  0
  4  6  2  0
  5 36  1  0
  5 37  1  0
  5 38  1  0
  6  7  1  0
  6 29  1  0
  7  8  1  0
  7 27  1  0
  8  9  1  0
  8 39  1  0
  8 40  1  0
  9 10  1  0
  9 26  1  0
  9 41  1  1
 10 11  2  0
 10 12  1  0
 12 13  1  0
 12 25  1  0
 13 14  1  0
 13 42  1  0
 13 43  1  0
 14 15  1  6
 14 16  1  0
 14 17  1  0
 16 44  1  0
 16 45  1  0
 17 18  1  6
 17 19  1  0
 17 25  1  0
 19 20  2  0
 19 24  1  0
 20 21  1  0
 20 46  1  0
 21 22  2  0
 21 47  1  0
 22 23  1  0
 22 48  1  0
 23 24  2  0
 23 49  1  0
 24 50  1  0
 25 51  1  0
 25 52  1  0
 26 27  1  0
 26 53  1  0
 26 54  1  0
 27 28  2  0
 29 30  1  0
 29 31  2  0
 30 55  1  0
 30 56  1  0
 30 57  1  0
 31 58  1  0
M  END

