
     RDKit          3D

 50 51  0  0  0  0  0  0  0  0999 V2000
    1.1420    0.1877    0.2172 C   0  0  0  0  0  0  0  0  0  0  0  0
    2.6029   -0.0381   -0.1972 C   0  0  1  0  0  0  0  0  0  0  0  0
    2.9086   -1.4728   -0.7064 C   0  0  1  0  0  0  0  0  0  0  0  0
    2.4800   -2.4557    0.2872 N   0  0  0  0  0  0  0  0  0  0  0  0
    3.2097   -3.7203    0.2784 C   0  0  0  0  0  0  0  0  0  0  0  0
    2.6950   -4.6490    1.3576 C   0  0  0  0  0  0  0  0  0  0  0  0
    3.2714   -4.5993    2.6369 C   0  0  0  0  0  0  0  0  0  0  0  0
    2.8126   -5.4195    3.6677 C   0  0  0  0  0  0  0  0  0  0  0  0
    3.5656   -5.3315    5.2420 Cl  0  0  0  0  0  0  0  0  0  0  0  0
    1.7581   -6.3112    3.4534 C   0  0  0  0  0  0  0  0  0  0  0  0
    1.1638   -6.3663    2.1932 C   0  0  0  0  0  0  0  0  0  0  0  0
    1.6263   -5.5406    1.1636 C   0  0  0  0  0  0  0  0  0  0  0  0
    0.7385   -5.6580   -0.5314 Br  0  0  0  0  0  0  0  0  0  0  0  0
    2.3635   -1.7103   -2.1273 C   0  0  0  0  0  0  0  0  0  0  0  0
    2.8718   -0.6379   -3.0959 C   0  0  0  0  0  0  0  0  0  0  0  0
    2.5579    0.7641   -2.5729 C   0  0  0  0  0  0  0  0  0  0  0  0
    3.0480    0.9367   -1.2064 N   0  0  0  0  0  0  0  0  0  0  0  0
    3.7720    2.0672   -0.9131 C   0  0  0  0  0  0  0  0  0  0  0  0
    4.0972    2.8999   -1.7404 O   0  0  0  0  0  0  0  0  0  0  0  0
    4.0771    2.1339    0.4031 O   0  0  0  0  0  0  0  0  0  0  0  0
    4.8717    3.2320    0.9565 C   0  0  1  0  0  0  0  0  0  0  0  0
    4.1352    4.5631    0.7685 C   0  0  0  0  0  0  0  0  0  0  0  0
    4.9626    2.8722    2.4413 C   0  0  0  0  0  0  0  0  0  0  0  0
    6.2657    3.2502    0.3196 C   0  0  0  0  0  0  0  0  0  0  0  0
    0.8668   -0.5105    1.0215 H   0  0  0  0  0  0  0  0  0  0  0  0
    0.4323    0.0539   -0.6146 H   0  0  0  0  0  0  0  0  0  0  0  0
    1.0199    1.2112    0.6029 H   0  0  0  0  0  0  0  0  0  0  0  0
    3.2233    0.1129    0.6918 H   0  0  0  0  0  0  0  0  0  0  0  0
    4.0101   -1.5363   -0.7624 H   0  0  0  0  0  0  0  0  0  0  0  0
    1.4813   -2.6405    0.1945 H   0  0  0  0  0  0  0  0  0  0  0  0
    4.2709   -3.5018    0.4812 H   0  0  0  0  0  0  0  0  0  0  0  0
    3.1759   -4.2508   -0.6947 H   0  0  0  0  0  0  0  0  0  0  0  0
    4.0915   -3.9046    2.8266 H   0  0  0  0  0  0  0  0  0  0  0  0
    1.4067   -6.9524    4.2631 H   0  0  0  0  0  0  0  0  0  0  0  0
    0.3358   -7.0528    2.0095 H   0  0  0  0  0  0  0  0  0  0  0  0
    1.2581   -1.6957   -2.1014 H   0  0  0  0  0  0  0  0  0  0  0  0
    2.6510   -2.7160   -2.4754 H   0  0  0  0  0  0  0  0  0  0  0  0
    2.4221   -0.7669   -4.0945 H   0  0  0  0  0  0  0  0  0  0  0  0
    3.9644   -0.7388   -3.2199 H   0  0  0  0  0  0  0  0  0  0  0  0
    1.4643    0.9355   -2.6050 H   0  0  0  0  0  0  0  0  0  0  0  0
    3.0266    1.5407   -3.1884 H   0  0  0  0  0  0  0  0  0  0  0  0
    3.1257    4.5063    1.2053 H   0  0  0  0  0  0  0  0  0  0  0  0
    4.0475    4.8168   -0.2951 H   0  0  0  0  0  0  0  0  0  0  0  0
    4.6840    5.3675    1.2832 H   0  0  0  0  0  0  0  0  0  0  0  0
    3.9586    2.8136    2.8884 H   0  0  0  0  0  0  0  0  0  0  0  0
    5.5418    3.6347    2.9839 H   0  0  0  0  0  0  0  0  0  0  0  0
    5.4574    1.8982    2.5754 H   0  0  0  0  0  0  0  0  0  0  0  0
    6.2068    3.4914   -0.7490 H   0  0  0  0  0  0  0  0  0  0  0  0
    6.7525    2.2691    0.4370 H   0  0  0  0  0  0  0  0  0  0  0  0
    6.8934    4.0037    0.8210 H   0  0  0  0  0  0  0  0  0  0  0  0
  1  2  1  0
  1 25  1  0
  1 26  1  0
  1 27  1  0
  2  3  1  0
  2 17  1  0
  2 28  1  1
  3  4  1  0
  3 14  1  0
  3 29  1  6
  4  5  1  0
  4 30  1  0
  5  6  1  0
  5 31  1  0
  5 32  1  0
  6  7  2  0
  6 12  1  0
  7  8  1  0
  7 33  1  0
  8  9  1  0
  8 10  2  0
 10 11  1  0
 10 34  1  0
 11 12  2  0
 11 35  1  0
 12 13  1  0
 14 15  1  0
 14 36  1  0
 14 37  1  0
 15 16  1  0
 15 38  1  0
 15 39  1  0
 16 17  1  0
 16 40  1  0
 16 41  1  0
 17 18  1  0
 18 19  2  0
 18 20  1  0
 21 20  1  6
 21 22  1  0
 21 23  1  0
 21 24  1  0
 22 42  1  0
 22 43  1  0
 22 44  1  0
 23 45  1  0
 23 46  1  0
 23 47  1  0
 24 48  1  0
 24 49  1  0
 24 50  1  0
M  END

