
     RDKit          3D

 24 24  0  0  0  0  0  0  0  0999 V2000
    0.9386    1.7938    2.1362 C   0  0  0  0  0  0  0  0  0  0  0  0
    2.4478    1.5865    2.2520 C   0  0  0  0  0  0  0  0  0  0  0  0
    3.0256    0.7842    1.0674 C   0  0  0  0  0  0  0  0  0  0  0  0
    4.5024    0.6071    1.1456 C   0  0  0  0  0  0  0  0  0  0  0  0
    5.2775    1.6298    0.6906 O   0  0  0  0  0  0  0  0  0  0  0  0
    6.5797    1.3097    0.9141 C   0  0  0  0  0  0  0  0  0  0  0  0
    7.8609    2.5541    0.3781 Br  0  0  0  0  0  0  0  0  0  0  0  0
    6.6890    0.0914    1.5132 C   0  0  0  0  0  0  0  0  0  0  0  0
    5.3329   -0.3622    1.6592 C   0  0  0  0  0  0  0  0  0  0  0  0
    4.8507   -1.8851    2.4316 S   0  0  1  0  0  0  0  0  0  0  0  0
    4.9062   -3.1118    1.1075 C   0  0  0  0  0  0  0  0  0  0  0  0
    5.9024   -2.2385    3.3913 O   0  0  0  0  0  0  0  0  0  0  0  0
    3.4450   -1.7618    2.8486 O   0  0  0  0  0  0  0  0  0  0  0  0
    0.5488    2.3589    2.9972 H   0  0  0  0  0  0  0  0  0  0  0  0
    0.4050    0.8296    2.1019 H   0  0  0  0  0  0  0  0  0  0  0  0
    0.6756    2.3537    1.2228 H   0  0  0  0  0  0  0  0  0  0  0  0
    2.6850    1.0395    3.1787 H   0  0  0  0  0  0  0  0  0  0  0  0
    2.9610    2.5615    2.3132 H   0  0  0  0  0  0  0  0  0  0  0  0
    2.7878    1.2925    0.1175 H   0  0  0  0  0  0  0  0  0  0  0  0
    2.5576   -0.2102    1.0510 H   0  0  0  0  0  0  0  0  0  0  0  0
    7.5929   -0.4181    1.8343 H   0  0  0  0  0  0  0  0  0  0  0  0
    5.9282   -3.1678    0.7109 H   0  0  0  0  0  0  0  0  0  0  0  0
    4.1819   -2.8425    0.3282 H   0  0  0  0  0  0  0  0  0  0  0  0
    4.6263   -4.0604    1.5871 H   0  0  0  0  0  0  0  0  0  0  0  0
  1  2  1  0
  1 14  1  0
  1 15  1  0
  1 16  1  0
  2  3  1  0
  2 17  1  0
  2 18  1  0
  3  4  1  0
  3 19  1  0
  3 20  1  0
  4  5  1  0
  4  9  2  0
  5  6  1  0
  6  7  1  0
  6  8  2  0
  8  9  1  0
  8 21  1  0
  9 10  1  0
 10 11  1  6
 10 12  2  0
 10 13  2  0
 11 22  1  0
 11 23  1  0
 11 24  1  0
M  END

