
     RDKit          3D

 38 39  0  0  0  0  0  0  0  0999 V2000
    0.9858    2.4288    2.0514 C   0  0  0  0  0  0  0  0  0  0  0  0
    2.3951    2.1125    1.5589 C   0  0  0  0  0  0  0  0  0  0  0  0
    2.9906    0.5529    2.3198 S   0  0  0  0  0  0  0  0  0  0  0  0
    4.6679    0.4558    1.6009 C   0  0  1  0  0  0  0  0  0  0  0  0
    5.6961    1.5479    2.0168 C   0  0  0  0  0  0  0  0  0  0  0  0
    6.4610    0.5109    2.8852 C   0  0  0  0  0  0  0  0  0  0  0  0
    5.5470   -0.6280    2.3374 C   0  0  1  0  0  0  0  0  0  0  0  0
    4.9124   -1.4554    3.2824 O   0  0  0  0  0  0  0  0  0  0  0  0
    6.2392   -1.5777    1.3629 C   0  0  0  0  0  0  0  0  0  0  0  0
    7.1614   -2.4600    2.0387 N   0  0  0  0  0  0  0  0  0  0  0  0
    8.5176   -2.3984    1.8629 C   0  0  0  0  0  0  0  0  0  0  0  0
    9.0478   -1.6281    1.0689 O   0  0  0  0  0  0  0  0  0  0  0  0
    9.2893   -3.3524    2.7055 C   0  0  0  0  0  0  0  0  0  0  0  0
   10.6345   -3.3983    2.6169 C   0  0  0  0  0  0  0  0  0  0  0  0
   11.5103   -4.2662    3.3575 C   0  0  0  0  0  0  0  0  0  0  0  0
   12.8830   -4.4043    3.3513 C   0  0  0  0  0  0  0  0  0  0  0  0
   13.1956   -5.4268    4.2974 C   0  0  0  0  0  0  0  0  0  0  0  0
   11.9956   -5.8421    4.8081 C   0  0  0  0  0  0  0  0  0  0  0  0
   10.9754   -5.1500    4.2520 O   0  0  0  0  0  0  0  0  0  0  0  0
    0.6201    3.3607    1.5913 H   0  0  0  0  0  0  0  0  0  0  0  0
    0.9650    2.5592    3.1450 H   0  0  0  0  0  0  0  0  0  0  0  0
    0.2809    1.6229    1.7932 H   0  0  0  0  0  0  0  0  0  0  0  0
    3.0876    2.9313    1.8118 H   0  0  0  0  0  0  0  0  0  0  0  0
    2.4071    1.9916    0.4630 H   0  0  0  0  0  0  0  0  0  0  0  0
    4.5715    0.2933    0.5150 H   0  0  0  0  0  0  0  0  0  0  0  0
    5.2714    2.3949    2.5726 H   0  0  0  0  0  0  0  0  0  0  0  0
    6.2755    1.9392    1.1688 H   0  0  0  0  0  0  0  0  0  0  0  0
    6.3453    0.6582    3.9694 H   0  0  0  0  0  0  0  0  0  0  0  0
    7.5314    0.3905    2.6651 H   0  0  0  0  0  0  0  0  0  0  0  0
    4.4697   -0.8942    3.9350 H   0  0  0  0  0  0  0  0  0  0  0  0
    6.8163   -1.0128    0.6189 H   0  0  0  0  0  0  0  0  0  0  0  0
    5.4620   -2.1604    0.8352 H   0  0  0  0  0  0  0  0  0  0  0  0
    6.7825   -3.0070    2.8027 H   0  0  0  0  0  0  0  0  0  0  0  0
    8.7537   -4.0182    3.3887 H   0  0  0  0  0  0  0  0  0  0  0  0
   11.1152   -2.7115    1.9130 H   0  0  0  0  0  0  0  0  0  0  0  0
   13.5753   -3.8320    2.7375 H   0  0  0  0  0  0  0  0  0  0  0  0
   14.1790   -5.8081    4.5639 H   0  0  0  0  0  0  0  0  0  0  0  0
   11.7213   -6.5910    5.5468 H   0  0  0  0  0  0  0  0  0  0  0  0
  1  2  1  0
  1 20  1  0
  1 21  1  0
  1 22  1  0
  2  3  1  0
  2 23  1  0
  2 24  1  0
  3  4  1  0
  4  5  1  0
  4  7  1  0
  4 25  1  6
  5  6  1  0
  5 26  1  0
  5 27  1  0
  6  7  1  0
  6 28  1  0
  6 29  1  0
  7  8  1  1
  7  9  1  0
  8 30  1  0
  9 10  1  0
  9 31  1  0
  9 32  1  0
 10 11  1  0
 10 33  1  0
 11 12  2  0
 11 13  1  0
 13 14  2  0
 13 34  1  0
 14 15  1  0
 14 35  1  0
 15 16  2  0
 15 19  1  0
 16 17  1  0
 16 36  1  0
 17 18  2  0
 17 37  1  0
 18 19  1  0
 18 38  1  0
M  END

