
     RDKit          3D

 56 59  0  0  0  0  0  0  0  0999 V2000
    0.3272   -0.2171   -3.5920 C   0  0  0  0  0  0  0  0  0  0  0  0
    1.2308   -0.5310   -2.4285 C   0  0  0  0  0  0  0  0  0  0  0  0
    1.5624    0.4413   -1.4836 C   0  0  0  0  0  0  0  0  0  0  0  0
    2.4167    0.0511   -0.4206 C   0  0  0  0  0  0  0  0  0  0  0  0
    2.8395    0.9185    0.5595 N   0  0  0  0  0  0  0  0  0  0  0  0
    3.4924    0.4263    1.7712 C   0  0  0  0  0  0  0  0  0  0  0  0
    4.5626    1.4091    2.2324 C   0  0  0  0  0  0  0  0  0  0  0  0
    4.0343    2.7116    2.3942 O   0  0  0  0  0  0  0  0  0  0  0  0
    3.4902    3.1945    1.1876 C   0  0  0  0  0  0  0  0  0  0  0  0
    2.3709    2.2929    0.6613 C   0  0  0  0  0  0  0  0  0  0  0  0
    2.8546   -1.2161   -0.3427 N   0  0  0  0  0  0  0  0  0  0  0  0
    2.4811   -2.0622   -1.3100 C   0  0  0  0  0  0  0  0  0  0  0  0
    2.9499   -3.3469   -1.2375 N   0  0  0  0  0  0  0  0  0  0  0  0
    3.8693   -3.8268   -0.2310 C   0  0  2  0  0  0  0  0  0  0  0  0
    4.6413   -3.0687   -0.0350 H   0  0  0  0  0  0  0  0  0  0  0  0
    4.4586   -5.1858   -0.6253 C   0  0  0  0  0  0  0  0  0  0  0  0
    3.4388   -6.1300   -0.1688 N   0  0  0  0  0  0  0  0  0  0  0  0
    3.4136   -7.4153   -0.6112 C   0  0  0  0  0  0  0  0  0  0  0  0
    4.1929   -7.8806   -1.4214 O   0  0  0  0  0  0  0  0  0  0  0  0
    2.3934   -8.1015   -0.0377 O   0  0  0  0  0  0  0  0  0  0  0  0
    2.2583   -9.4915   -0.3952 C   0  0  0  0  0  0  0  0  0  0  0  0
    2.9957  -10.4023    0.5581 C   0  0  0  0  0  0  0  0  0  0  0  0
    2.3172  -11.0234    1.6169 C   0  0  0  0  0  0  0  0  0  0  0  0
    2.9967  -11.8569    2.5101 C   0  0  0  0  0  0  0  0  0  0  0  0
    4.3682  -12.0764    2.3539 C   0  0  0  0  0  0  0  0  0  0  0  0
    5.0546  -11.4606    1.3017 C   0  0  0  0  0  0  0  0  0  0  0  0
    4.3743  -10.6300    0.4082 C   0  0  0  0  0  0  0  0  0  0  0  0
    2.5420   -5.5511    0.8340 C   0  0  0  0  0  0  0  0  0  0  0  0
    3.1426   -4.1707    1.0858 C   0  0  1  0  0  0  0  0  0  0  0  0
    2.4072   -3.4078    1.3767 H   0  0  0  0  0  0  0  0  0  0  0  0
    4.0988   -4.2579    2.0932 F   0  0  0  0  0  0  0  0  0  0  0  0
    1.6883   -1.7876   -2.3564 N   0  0  0  0  0  0  0  0  0  0  0  0
   -0.0224    0.8248   -3.5809 H   0  0  0  0  0  0  0  0  0  0  0  0
   -0.5456   -0.8893   -3.5804 H   0  0  0  0  0  0  0  0  0  0  0  0
    0.8579   -0.4062   -4.5390 H   0  0  0  0  0  0  0  0  0  0  0  0
    1.1542    1.4450   -1.5735 H   0  0  0  0  0  0  0  0  0  0  0  0
    3.9260   -0.5582    1.5625 H   0  0  0  0  0  0  0  0  0  0  0  0
    2.7410    0.3054    2.5776 H   0  0  0  0  0  0  0  0  0  0  0  0
    5.3956    1.4228    1.4992 H   0  0  0  0  0  0  0  0  0  0  0  0
    4.9660    1.1009    3.2087 H   0  0  0  0  0  0  0  0  0  0  0  0
    4.2820    3.2766    0.4136 H   0  0  0  0  0  0  0  0  0  0  0  0
    3.0971    4.2032    1.3874 H   0  0  0  0  0  0  0  0  0  0  0  0
    2.0586    2.6651   -0.3222 H   0  0  0  0  0  0  0  0  0  0  0  0
    1.4969    2.3563    1.3413 H   0  0  0  0  0  0  0  0  0  0  0  0
    2.6549   -3.9564   -1.9907 H   0  0  0  0  0  0  0  0  0  0  0  0
    5.4184   -5.3519   -0.1073 H   0  0  0  0  0  0  0  0  0  0  0  0
    4.6375   -5.2889   -1.7052 H   0  0  0  0  0  0  0  0  0  0  0  0
    2.6197   -9.6241   -1.4242 H   0  0  0  0  0  0  0  0  0  0  0  0
    1.1778   -9.6880   -0.3582 H   0  0  0  0  0  0  0  0  0  0  0  0
    1.2434  -10.8548    1.7418 H   0  0  0  0  0  0  0  0  0  0  0  0
    2.4538  -12.3366    3.3287 H   0  0  0  0  0  0  0  0  0  0  0  0
    4.9019  -12.7287    3.0501 H   0  0  0  0  0  0  0  0  0  0  0  0
    6.1269  -11.6313    1.1745 H   0  0  0  0  0  0  0  0  0  0  0  0
    4.9065  -10.1399   -0.4103 H   0  0  0  0  0  0  0  0  0  0  0  0
    2.5219   -6.1419    1.7619 H   0  0  0  0  0  0  0  0  0  0  0  0
    1.5090   -5.4749    0.4548 H   0  0  0  0  0  0  0  0  0  0  0  0
  1  2  1  0
  1 33  1  0
  1 34  1  0
  1 35  1  0
  2  3  2  0
  2 32  1  0
  3  4  1  0
  3 36  1  0
  4  5  1  0
  4 11  2  0
  5  6  1  0
  5 10  1  0
  6  7  1  0
  6 37  1  0
  6 38  1  0
  7  8  1  0
  7 39  1  0
  7 40  1  0
  8  9  1  0
  9 10  1  0
  9 41  1  0
  9 42  1  0
 10 43  1  0
 10 44  1  0
 11 12  1  0
 12 13  1  0
 12 32  2  0
 13 14  1  0
 13 45  1  0
 14 15  1  1
 14 16  1  0
 14 29  1  0
 16 17  1  0
 16 46  1  0
 16 47  1  0
 17 18  1  0
 17 28  1  0
 18 19  2  0
 18 20  1  0
 20 21  1  0
 21 22  1  0
 21 48  1  0
 21 49  1  0
 22 23  2  0
 22 27  1  0
 23 24  1  0
 23 50  1  0
 24 25  2  0
 24 51  1  0
 25 26  1  0
 25 52  1  0
 26 27  2  0
 26 53  1  0
 27 54  1  0
 28 29  1  0
 28 55  1  0
 28 56  1  0
 29 30  1  1
 29 31  1  0
M  END

