
     RDKit          3D

 33 34  0  0  0  0  0  0  0  0999 V2000
    4.8106   -0.5456   -2.0511 C   0  0  0  0  0  0  0  0  0  0  0  0
    4.2358   -0.1439   -0.7201 C   0  0  0  0  0  0  0  0  0  0  0  0
    4.5136    1.0738   -0.1364 C   0  0  0  0  0  0  0  0  0  0  0  0
    3.7501    1.2954    1.3875 S   0  0  0  0  0  0  0  0  0  0  0  0
    3.0177   -0.2802    1.3055 C   0  0  0  0  0  0  0  0  0  0  0  0
    2.1208   -0.7368    2.4081 C   0  0  0  0  0  0  0  0  0  0  0  0
    1.1315   -1.4080    2.2384 O   0  0  0  0  0  0  0  0  0  0  0  0
    2.4416   -0.3134    3.6405 O   0  0  0  0  0  0  0  0  0  0  0  0
    3.3598   -0.9175    0.1219 C   0  0  0  0  0  0  0  0  0  0  0  0
    2.8574   -2.6316   -0.2245 S   0  0  1  0  0  0  0  0  0  0  0  0
    3.3601   -2.9623   -1.5599 O   0  0  0  0  0  0  0  0  0  0  0  0
    3.2235   -3.4039    0.9547 O   0  0  0  0  0  0  0  0  0  0  0  0
    1.1971   -2.6307   -0.3221 N   0  0  0  0  0  0  0  0  0  0  0  0
    0.5393   -2.0946   -1.5131 C   0  0  1  0  0  0  0  0  0  0  0  0
    0.3449   -3.1637   -2.6134 C   0  0  0  0  0  0  0  0  0  0  0  0
   -0.5905   -2.5915   -3.6851 C   0  0  0  0  0  0  0  0  0  0  0  0
   -1.6161   -1.3117   -2.8323 S   0  0  2  0  0  0  0  0  0  0  0  0
   -3.0333   -1.6857   -2.8160 O   0  0  0  0  0  0  0  0  0  0  0  0
   -1.1798    0.0110   -3.3045 O   0  0  0  0  0  0  0  0  0  0  0  0
   -0.8609   -1.5791   -1.1816 C   0  0  0  0  0  0  0  0  0  0  0  0
    5.4597    0.2530   -2.4373 H   0  0  0  0  0  0  0  0  0  0  0  0
    4.0185   -0.7440   -2.7872 H   0  0  0  0  0  0  0  0  0  0  0  0
    5.3930   -1.4740   -1.9704 H   0  0  0  0  0  0  0  0  0  0  0  0
    5.1299    1.8706   -0.5520 H   0  0  0  0  0  0  0  0  0  0  0  0
    3.3277    0.0793    3.6583 H   0  0  0  0  0  0  0  0  0  0  0  0
    0.8115   -2.3554    0.5886 H   0  0  0  0  0  0  0  0  0  0  0  0
    1.1140   -1.2493   -1.9363 H   0  0  0  0  0  0  0  0  0  0  0  0
   -0.1049   -4.0503   -2.1395 H   0  0  0  0  0  0  0  0  0  0  0  0
    1.3165   -3.4655   -3.0267 H   0  0  0  0  0  0  0  0  0  0  0  0
   -1.2822   -3.3250   -4.1187 H   0  0  0  0  0  0  0  0  0  0  0  0
   -0.0708   -2.0463   -4.4847 H   0  0  0  0  0  0  0  0  0  0  0  0
   -1.4647   -2.3337   -0.6556 H   0  0  0  0  0  0  0  0  0  0  0  0
   -0.8910   -0.6183   -0.6509 H   0  0  0  0  0  0  0  0  0  0  0  0
  1  2  1  0
  1 21  1  0
  1 22  1  0
  1 23  1  0
  2  3  1  0
  2  9  2  0
  3  4  2  0
  3 24  1  0
  4  5  1  0
  5  6  2  0
  5  9  1  0
  6  7  1  0
  6  8  1  0
  8 25  1  0
  9 10  1  0
 10 11  2  0
 10 12  2  0
 10 13  1  6
 13 14  1  0
 13 26  1  0
 14 15  1  0
 14 20  1  0
 14 27  1  6
 15 16  1  0
 15 28  1  0
 15 29  1  0
 17 16  1  6
 16 30  1  0
 16 31  1  0
 17 18  2  0
 17 19  2  0
 17 20  1  0
 20 32  1  0
 20 33  1  0
M  CHG  2   4   1   7  -1
M  END

