
     RDKit          3D

 38 41  0  0  0  0  0  0  0  0999 V2000
    8.1222    7.4897    4.5311 O   0  0  0  0  0  0  0  0  0  0  0  0
    7.9608    6.2992    4.5698 C   0  0  0  0  0  0  0  0  0  0  0  0
    8.7216    5.4954    5.3397 O   0  0  0  0  0  0  0  0  0  0  0  0
    6.9147    5.6128    3.7774 C   0  0  0  0  0  0  0  0  0  0  0  0
    5.9745    6.0992    2.9020 C   0  0  0  0  0  0  0  0  0  0  0  0
    5.2419    4.9714    2.4446 C   0  0  0  0  0  0  0  0  0  0  0  0
    5.7796    3.8649    3.0673 C   0  0  0  0  0  0  0  0  0  0  0  0
    5.3718    2.4413    2.9315 C   0  0  0  0  0  0  0  0  0  0  0  0
    4.4454    2.2092    2.1757 O   0  0  0  0  0  0  0  0  0  0  0  0
    6.0852    1.3258    3.7064 C   0  0  2  0  0  0  0  0  0  0  0  0
    5.9606    1.5440    5.2431 C   0  0  0  0  0  0  0  0  0  0  0  0
    6.6542    0.3911    5.9964 C   0  0  1  0  0  0  0  0  0  0  0  0
    5.9856   -0.9462    5.6272 C   0  0  0  0  0  0  0  0  0  0  0  0
    6.1148   -1.1794    4.1099 C   0  0  2  0  0  0  0  0  0  0  0  0
    7.6050   -1.2336    3.7229 C   0  0  0  0  0  0  0  0  0  0  0  0
    8.2759    0.1034    4.0893 C   0  0  2  0  0  0  0  0  0  0  0  0
    8.1448    0.3465    5.6058 C   0  0  0  0  0  0  0  0  0  0  0  0
    7.5926    1.2546    3.3241 C   0  0  0  0  0  0  0  0  0  0  0  0
    5.4277   -0.0291    3.3516 C   0  0  0  0  0  0  0  0  0  0  0  0
    6.8024    4.2601    3.8819 O   0  0  0  0  0  0  0  0  0  0  0  0
    8.4439    4.5714    5.2401 H   0  0  0  0  0  0  0  0  0  0  0  0
    5.8452    7.1455    2.6364 H   0  0  0  0  0  0  0  0  0  0  0  0
    4.4132    4.9424    1.7417 H   0  0  0  0  0  0  0  0  0  0  0  0
    4.8938    1.5909    5.5213 H   0  0  0  0  0  0  0  0  0  0  0  0
    6.4104    2.5045    5.5370 H   0  0  0  0  0  0  0  0  0  0  0  0
    6.5601    0.5682    7.0813 H   0  0  0  0  0  0  0  0  0  0  0  0
    4.9219   -0.9326    5.9210 H   0  0  0  0  0  0  0  0  0  0  0  0
    6.4597   -1.7733    6.1833 H   0  0  0  0  0  0  0  0  0  0  0  0
    5.6264   -2.1303    3.8380 H   0  0  0  0  0  0  0  0  0  0  0  0
    7.7107   -1.4277    2.6416 H   0  0  0  0  0  0  0  0  0  0  0  0
    8.1066   -2.0654    4.2470 H   0  0  0  0  0  0  0  0  0  0  0  0
    9.3427    0.0746    3.8091 H   0  0  0  0  0  0  0  0  0  0  0  0
    8.6413    1.2929    5.8852 H   0  0  0  0  0  0  0  0  0  0  0  0
    8.6585   -0.4550    6.1635 H   0  0  0  0  0  0  0  0  0  0  0  0
    7.6880    1.0958    2.2363 H   0  0  0  0  0  0  0  0  0  0  0  0
    8.0972    2.2055    3.5537 H   0  0  0  0  0  0  0  0  0  0  0  0
    4.3542    0.0097    3.5949 H   0  0  0  0  0  0  0  0  0  0  0  0
    5.4871   -0.1914    2.2638 H   0  0  0  0  0  0  0  0  0  0  0  0
  1  2  2  0
  2  3  1  0
  2  4  1  0
  3 21  1  0
  4  5  2  0
  4 20  1  0
  5  6  1  0
  5 22  1  0
  6  7  2  0
  6 23  1  0
  7  8  1  0
  7 20  1  0
  8  9  2  0
 10  8  1  6
 10 11  1  0
 10 18  1  0
 10 19  1  0
 11 12  1  0
 11 24  1  0
 11 25  1  0
 12 13  1  0
 12 17  1  0
 12 26  1  1
 13 14  1  0
 13 27  1  0
 13 28  1  0
 14 15  1  0
 14 19  1  0
 14 29  1  1
 15 16  1  0
 15 30  1  0
 15 31  1  0
 16 17  1  0
 16 18  1  0
 16 32  1  6
 17 33  1  0
 17 34  1  0
 18 35  1  0
 18 36  1  0
 19 37  1  0
 19 38  1  0
M  END

