
     RDKit          3D

 53 56  0  0  0  0  0  0  0  0999 V2000
    0.5677    0.7676   -1.9624 C   0  0  0  0  0  0  0  0  0  0  0  0
    2.0206    1.0182   -1.5525 C   0  0  1  0  0  0  0  0  0  0  0  0
    2.1135    1.7391   -0.2003 C   0  0  0  0  0  0  0  0  0  0  0  0
    2.7337   -0.2587   -1.5398 N   0  0  0  0  0  0  0  0  0  0  0  0
    4.0744   -0.4285   -1.7627 C   0  0  0  0  0  0  0  0  0  0  0  0
    4.9363    0.6768   -1.9379 C   0  0  0  0  0  0  0  0  0  0  0  0
    6.2916    0.4774   -2.2183 C   0  0  0  0  0  0  0  0  0  0  0  0
    7.2091    1.6055   -2.4048 C   0  0  0  0  0  0  0  0  0  0  0  0
    8.5892    1.5115   -2.7011 C   0  0  0  0  0  0  0  0  0  0  0  0
    9.1953    2.6952   -2.8197 N   0  0  0  0  0  0  0  0  0  0  0  0
    8.2221    3.5909   -2.6029 N   0  0  0  0  0  0  0  0  0  0  0  0
    8.3691    4.9413   -2.6212 C   0  0  0  0  0  0  0  0  0  0  0  0
    7.2524    5.7032   -2.3749 C   0  0  0  0  0  0  0  0  0  0  0  0
    7.3423    7.4380   -2.3773 Cl  0  0  0  0  0  0  0  0  0  0  0  0
    6.0081    5.0498   -2.1153 C   0  0  0  0  0  0  0  0  0  0  0  0
    5.8832    3.7433   -2.1011 N   0  0  0  0  0  0  0  0  0  0  0  0
    6.9721    2.9894   -2.3411 C   0  0  0  0  0  0  0  0  0  0  0  0
    6.8420   -0.7496   -2.3441 N   0  0  0  0  0  0  0  0  0  0  0  0
    6.0396   -1.7895   -2.1724 C   0  0  0  0  0  0  0  0  0  0  0  0
    4.6723   -1.7243   -1.8536 C   0  0  0  0  0  0  0  0  0  0  0  0
    3.9773   -3.0337   -1.6766 C   0  0  0  0  0  0  0  0  0  0  0  0
    4.3613   -4.0610   -2.2192 O   0  0  0  0  0  0  0  0  0  0  0  0
    2.8651   -3.0478   -0.8437 N   0  0  0  0  0  0  0  0  0  0  0  0
    2.2461   -4.3217   -0.5207 C   0  0  0  0  0  0  0  0  0  0  0  0
    3.0146   -5.1090    0.5348 C   0  0  1  0  0  0  0  0  0  0  0  0
    2.9606   -4.4080    1.7388 F   0  0  0  0  0  0  0  0  0  0  0  0
    2.4907   -6.5294    0.7511 C   0  0  1  0  0  0  0  0  0  0  0  0
    2.5047   -7.2389   -0.4636 O   0  0  0  0  0  0  0  0  0  0  0  0
    3.0553   -7.2685    1.9920 C   0  0  0  0  0  0  0  0  0  0  0  0
    1.7578   -7.3315    2.5979 O   0  0  0  0  0  0  0  0  0  0  0  0
    1.1408   -6.6779    1.4826 C   0  0  0  0  0  0  0  0  0  0  0  0
    0.0067    1.7133   -1.9972 H   0  0  0  0  0  0  0  0  0  0  0  0
    0.0615    0.1083   -1.2363 H   0  0  0  0  0  0  0  0  0  0  0  0
    0.5084    0.2979   -2.9568 H   0  0  0  0  0  0  0  0  0  0  0  0
    2.4812    1.6626   -2.3224 H   0  0  0  0  0  0  0  0  0  0  0  0
    1.6261    1.1441    0.5894 H   0  0  0  0  0  0  0  0  0  0  0  0
    1.6171    2.7216   -0.2478 H   0  0  0  0  0  0  0  0  0  0  0  0
    3.1604    1.9031    0.0955 H   0  0  0  0  0  0  0  0  0  0  0  0
    2.1652   -1.0969   -1.5873 H   0  0  0  0  0  0  0  0  0  0  0  0
    4.5643    1.6966   -1.8683 H   0  0  0  0  0  0  0  0  0  0  0  0
    9.1514    0.5884   -2.8302 H   0  0  0  0  0  0  0  0  0  0  0  0
    9.3664    5.3287   -2.8308 H   0  0  0  0  0  0  0  0  0  0  0  0
    5.1187    5.6580   -1.9194 H   0  0  0  0  0  0  0  0  0  0  0  0
    6.4832   -2.7853   -2.2787 H   0  0  0  0  0  0  0  0  0  0  0  0
    2.8335   -2.3378   -0.1172 H   0  0  0  0  0  0  0  0  0  0  0  0
    2.1951   -4.9252   -1.4347 H   0  0  0  0  0  0  0  0  0  0  0  0
    1.2192   -4.1411   -0.1655 H   0  0  0  0  0  0  0  0  0  0  0  0
    4.0778   -5.1653    0.2367 H   0  0  0  0  0  0  0  0  0  0  0  0
    3.3856   -7.1755   -0.8622 H   0  0  0  0  0  0  0  0  0  0  0  0
    3.7780   -6.7039    2.6062 H   0  0  0  0  0  0  0  0  0  0  0  0
    3.4637   -8.2658    1.7487 H   0  0  0  0  0  0  0  0  0  0  0  0
    0.6385   -5.7394    1.7751 H   0  0  0  0  0  0  0  0  0  0  0  0
    0.4348   -7.3272    0.9361 H   0  0  0  0  0  0  0  0  0  0  0  0
  1  2  1  0
  1 32  1  0
  1 33  1  0
  1 34  1  0
  2  3  1  0
  2  4  1  0
  2 35  1  6
  3 36  1  0
  3 37  1  0
  3 38  1  0
  4  5  1  0
  4 39  1  0
  5  6  2  0
  5 20  1  0
  6  7  1  0
  6 40  1  0
  7  8  1  0
  7 18  2  0
  8  9  1  0
  8 17  2  0
  9 10  2  0
  9 41  1  0
 10 11  1  0
 11 12  1  0
 11 17  1  0
 12 13  2  0
 12 42  1  0
 13 14  1  0
 13 15  1  0
 15 16  2  0
 15 43  1  0
 16 17  1  0
 18 19  1  0
 19 20  2  0
 19 44  1  0
 20 21  1  0
 21 22  2  0
 21 23  1  0
 23 24  1  0
 23 45  1  0
 24 25  1  0
 24 46  1  0
 24 47  1  0
 25 26  1  0
 25 27  1  0
 25 48  1  6
 27 28  1  6
 27 29  1  0
 27 31  1  0
 28 49  1  0
 29 30  1  0
 29 50  1  0
 29 51  1  0
 30 31  1  0
 31 52  1  0
 31 53  1  0
M  END

