
     RDKit          3D

 69 72  0  0  0  0  0  0  0  0999 V2000
    3.9236   -1.2039    1.2124 C   0  0  0  0  0  0  0  0  0  0  0  0
    2.9106   -0.2332    0.5837 C   0  0  1  0  0  0  0  0  0  0  0  0
    2.6710   -0.6220   -0.8844 C   0  0  0  0  0  0  0  0  0  0  0  0
    1.6237   -0.3790    1.1945 O   0  0  0  0  0  0  0  0  0  0  0  0
    1.5311   -0.2044    2.5968 C   0  0  0  0  0  0  0  0  0  0  0  0
    0.0585   -0.0714    2.9625 C   0  0  0  0  0  0  0  0  0  0  0  0
   -0.1830    0.0303    4.4703 C   0  0  0  0  0  0  0  0  0  0  0  0
    0.5176    1.1338    5.1009 N   0  0  0  0  0  0  0  0  0  0  0  0
    0.0746    2.4741    4.7334 C   0  0  0  0  0  0  0  0  0  0  0  0
    0.8006    3.3926    5.7344 C   0  0  0  0  0  0  0  0  0  0  0  0
    1.1054    2.4758    6.9514 C   0  0  0  0  0  0  0  0  0  0  0  0
    0.5052    1.1155    6.5576 C   0  0  0  0  0  0  0  0  0  0  0  0
    3.3618    1.2374    0.6523 C   0  0  0  0  0  0  0  0  0  0  0  0
    2.4086    2.2564    0.4946 C   0  0  0  0  0  0  0  0  0  0  0  0
    2.7689    3.6006    0.5029 C   0  0  0  0  0  0  0  0  0  0  0  0
    4.1150    3.9718    0.6760 C   0  0  0  0  0  0  0  0  0  0  0  0
    4.5255    5.3175    0.6691 N   0  0  0  0  0  0  0  0  0  0  0  0
    3.7847    6.4470    0.5165 C   0  0  0  0  0  0  0  0  0  0  0  0
    2.5736    6.5357    0.3551 O   0  0  0  0  0  0  0  0  0  0  0  0
    4.6140    7.6855    0.5664 C   0  0  0  0  0  0  0  0  0  0  0  0
    5.9242    7.7898    0.7394 N   0  0  0  0  0  0  0  0  0  0  0  0
    6.1966    9.1187    0.7116 C   0  0  0  0  0  0  0  0  0  0  0  0
    5.0216    9.8458    0.5165 C   0  0  0  0  0  0  0  0  0  0  0  0
    4.7902   11.2415    0.4169 C   0  0  0  0  0  0  0  0  0  0  0  0
    4.6065   12.3863    0.3364 N   0  0  0  0  0  0  0  0  0  0  0  0
    4.0256    8.8972    0.4274 N   0  0  0  0  0  0  0  0  0  0  0  0
    3.0281    9.0298    0.2861 H   0  0  0  0  0  0  0  0  0  0  0  0
    5.1014    2.9681    0.8439 C   0  0  0  0  0  0  0  0  0  0  0  0
    6.5493    3.3026    1.0207 C   0  0  0  0  0  0  0  0  0  0  0  0
    6.9899    3.9973    2.0894 C   0  0  0  0  0  0  0  0  0  0  0  0
    8.4220    4.4141    2.3036 C   0  0  0  0  0  0  0  0  0  0  0  0
    9.2735    4.2603    1.0383 C   0  0  0  0  0  0  0  0  0  0  0  0
    8.9774    2.9270    0.3456 C   0  0  0  0  0  0  0  0  0  0  0  0
    7.5033    2.8345   -0.0655 C   0  0  0  0  0  0  0  0  0  0  0  0
    4.6964    1.6232    0.8184 C   0  0  0  0  0  0  0  0  0  0  0  0
    3.4816   -2.2114    1.2436 H   0  0  0  0  0  0  0  0  0  0  0  0
    4.2027   -0.9141    2.2361 H   0  0  0  0  0  0  0  0  0  0  0  0
    4.8451   -1.2614    0.6148 H   0  0  0  0  0  0  0  0  0  0  0  0
    2.3224   -1.6649   -0.9426 H   0  0  0  0  0  0  0  0  0  0  0  0
    3.5942   -0.5173   -1.4737 H   0  0  0  0  0  0  0  0  0  0  0  0
    1.8997    0.0242   -1.3277 H   0  0  0  0  0  0  0  0  0  0  0  0
    2.0858    0.6905    2.9304 H   0  0  0  0  0  0  0  0  0  0  0  0
    1.9668   -1.0713    3.1324 H   0  0  0  0  0  0  0  0  0  0  0  0
   -0.4847   -0.9485    2.5727 H   0  0  0  0  0  0  0  0  0  0  0  0
   -0.3636    0.8034    2.4400 H   0  0  0  0  0  0  0  0  0  0  0  0
    0.1622   -0.9015    4.9522 H   0  0  0  0  0  0  0  0  0  0  0  0
   -1.2824    0.0867    4.6588 H   0  0  0  0  0  0  0  0  0  0  0  0
   -1.0316    2.5764    4.8449 H   0  0  0  0  0  0  0  0  0  0  0  0
    0.3193    2.7086    3.6860 H   0  0  0  0  0  0  0  0  0  0  0  0
    0.1823    4.2626    6.0019 H   0  0  0  0  0  0  0  0  0  0  0  0
    1.7329    3.7793    5.2968 H   0  0  0  0  0  0  0  0  0  0  0  0
    0.6729    2.8538    7.8900 H   0  0  0  0  0  0  0  0  0  0  0  0
    2.1913    2.3865    7.1048 H   0  0  0  0  0  0  0  0  0  0  0  0
   -0.5347    1.0243    6.9542 H   0  0  0  0  0  0  0  0  0  0  0  0
    1.0756    0.2554    6.9457 H   0  0  0  0  0  0  0  0  0  0  0  0
    1.3587    1.9849    0.3681 H   0  0  0  0  0  0  0  0  0  0  0  0
    2.0207    4.3795    0.3728 H   0  0  0  0  0  0  0  0  0  0  0  0
    5.5243    5.4739    0.8047 H   0  0  0  0  0  0  0  0  0  0  0  0
    7.2026    9.5185    0.8285 H   0  0  0  0  0  0  0  0  0  0  0  0
    6.2724    4.2792    2.8690 H   0  0  0  0  0  0  0  0  0  0  0  0
    8.8520    3.8157    3.1308 H   0  0  0  0  0  0  0  0  0  0  0  0
    8.4455    5.4590    2.6597 H   0  0  0  0  0  0  0  0  0  0  0  0
   10.3442    4.3444    1.2857 H   0  0  0  0  0  0  0  0  0  0  0  0
    9.0448    5.0888    0.3438 H   0  0  0  0  0  0  0  0  0  0  0  0
    9.2159    2.0992    1.0377 H   0  0  0  0  0  0  0  0  0  0  0  0
    9.6229    2.7921   -0.5376 H   0  0  0  0  0  0  0  0  0  0  0  0
    7.2477    1.8004   -0.3531 H   0  0  0  0  0  0  0  0  0  0  0  0
    7.3190    3.4357   -0.9768 H   0  0  0  0  0  0  0  0  0  0  0  0
    5.4690    0.8641    0.9518 H   0  0  0  0  0  0  0  0  0  0  0  0
  1  2  1  0
  1 36  1  0
  1 37  1  0
  1 38  1  0
  2  3  1  0
  2  4  1  1
  2 13  1  0
  3 39  1  0
  3 40  1  0
  3 41  1  0
  4  5  1  0
  5  6  1  0
  5 42  1  0
  5 43  1  0
  6  7  1  0
  6 44  1  0
  6 45  1  0
  7  8  1  0
  7 46  1  0
  7 47  1  0
  8  9  1  0
  8 12  1  0
  9 10  1  0
  9 48  1  0
  9 49  1  0
 10 11  1  0
 10 50  1  0
 10 51  1  0
 11 12  1  0
 11 52  1  0
 11 53  1  0
 12 54  1  0
 12 55  1  0
 13 14  2  0
 13 35  1  0
 14 15  1  0
 14 56  1  0
 15 16  2  0
 15 57  1  0
 16 17  1  0
 16 28  1  0
 17 18  1  0
 17 58  1  0
 18 19  2  0
 18 20  1  0
 20 21  2  0
 20 26  1  0
 21 22  1  0
 22 23  2  0
 22 59  1  0
 23 24  1  0
 23 26  1  0
 24 25  3  0
 26 27  1  0
 28 29  1  0
 28 35  2  0
 29 30  2  0
 29 34  1  0
 30 31  1  0
 30 60  1  0
 31 32  1  0
 31 61  1  0
 31 62  1  0
 32 33  1  0
 32 63  1  0
 32 64  1  0
 33 34  1  0
 33 65  1  0
 33 66  1  0
 34 67  1  0
 34 68  1  0
 35 69  1  0
M  END

