
     RDKit          3D

 40 43  0  0  0  0  0  0  0  0999 V2000
    4.7397   -2.0220    0.7758 C   0  0  0  0  0  0  0  0  0  0  0  0
    4.0882   -3.2245    1.4150 C   0  0  0  0  0  0  0  0  0  0  0  0
    4.8756   -4.2431    1.9585 C   0  0  0  0  0  0  0  0  0  0  0  0
    4.3058   -5.3695    2.5568 C   0  0  0  0  0  0  0  0  0  0  0  0
    5.1614   -6.4585    3.1448 C   0  0  1  0  0  0  0  0  0  0  0  0
    6.4754   -6.2265    2.9713 F   0  0  0  0  0  0  0  0  0  0  0  0
    4.9541   -6.5960    4.4700 F   0  0  0  0  0  0  0  0  0  0  0  0
    4.8919   -7.6579    2.5916 F   0  0  0  0  0  0  0  0  0  0  0  0
    2.9125   -5.4801    2.6130 C   0  0  0  0  0  0  0  0  0  0  0  0
    2.1003   -4.4833    2.0813 C   0  0  0  0  0  0  0  0  0  0  0  0
    2.6741   -3.3475    1.4778 C   0  0  0  0  0  0  0  0  0  0  0  0
    1.9213   -2.3026    0.9199 N   0  0  0  0  0  0  0  0  0  0  0  0
    0.5636   -2.0947    0.8040 C   0  0  0  0  0  0  0  0  0  0  0  0
   -0.3000   -2.9999    1.2819 N   0  0  0  0  0  0  0  0  0  0  0  0
   -1.5962   -2.7325    1.1350 C   0  0  0  0  0  0  0  0  0  0  0  0
   -2.1327   -1.6631    0.5647 N   0  0  0  0  0  0  0  0  0  0  0  0
   -1.2695   -0.7665    0.0908 C   0  0  0  0  0  0  0  0  0  0  0  0
    0.1178   -0.9044    0.1689 C   0  0  0  0  0  0  0  0  0  0  0  0
    1.0565    0.1385   -0.3820 C   0  0  0  0  0  0  0  0  0  0  0  0
    0.3101    1.2965   -1.0061 C   0  0  0  0  0  0  0  0  0  0  0  0
    0.9896    2.3783   -1.5846 C   0  0  0  0  0  0  0  0  0  0  0  0
    0.3013    3.4468   -2.1595 C   0  0  0  0  0  0  0  0  0  0  0  0
   -1.0989    3.4462   -2.1627 C   0  0  0  0  0  0  0  0  0  0  0  0
   -1.7964    2.3827   -1.5943 C   0  0  0  0  0  0  0  0  0  0  0  0
   -1.0908    1.3183   -1.0217 C   0  0  0  0  0  0  0  0  0  0  0  0
   -1.8557    0.3108   -0.4844 O   0  0  0  0  0  0  0  0  0  0  0  0
    5.8346   -2.0986    0.8201 H   0  0  0  0  0  0  0  0  0  0  0  0
    4.4606   -1.0799    1.2821 H   0  0  0  0  0  0  0  0  0  0  0  0
    4.4653   -1.9179   -0.2898 H   0  0  0  0  0  0  0  0  0  0  0  0
    5.9623   -4.1541    1.9124 H   0  0  0  0  0  0  0  0  0  0  0  0
    2.4500   -6.3546    3.0763 H   0  0  0  0  0  0  0  0  0  0  0  0
    1.0177   -4.5629    2.1211 H   0  0  0  0  0  0  0  0  0  0  0  0
    2.4840   -1.5608    0.5281 H   0  0  0  0  0  0  0  0  0  0  0  0
   -2.2935   -3.4811    1.5305 H   0  0  0  0  0  0  0  0  0  0  0  0
    1.7309   -0.3130   -1.1371 H   0  0  0  0  0  0  0  0  0  0  0  0
    1.7198    0.5194    0.4205 H   0  0  0  0  0  0  0  0  0  0  0  0
    2.0837    2.3758   -1.5804 H   0  0  0  0  0  0  0  0  0  0  0  0
    0.8537    4.2778   -2.6038 H   0  0  0  0  0  0  0  0  0  0  0  0
   -1.6496    4.2772   -2.6097 H   0  0  0  0  0  0  0  0  0  0  0  0
   -2.8873    2.3504   -1.5801 H   0  0  0  0  0  0  0  0  0  0  0  0
  1  2  1  0
  1 27  1  0
  1 28  1  0
  1 29  1  0
  2  3  2  0
  2 11  1  0
  3  4  1  0
  3 30  1  0
  4  5  1  0
  4  9  2  0
  5  6  1  1
  5  7  1  0
  5  8  1  0
  9 10  1  0
  9 31  1  0
 10 11  2  0
 10 32  1  0
 11 12  1  0
 12 13  1  0
 12 33  1  0
 13 14  2  0
 13 18  1  0
 14 15  1  0
 15 16  2  0
 15 34  1  0
 16 17  1  0
 17 18  2  0
 17 26  1  0
 18 19  1  0
 19 20  1  0
 19 35  1  0
 19 36  1  0
 20 21  2  0
 20 25  1  0
 21 22  1  0
 21 37  1  0
 22 23  2  0
 22 38  1  0
 23 24  1  0
 23 39  1  0
 24 25  2  0
 24 40  1  0
 25 26  1  0
M  END

