
     RDKit          3D

 73 77  0  0  0  0  0  0  0  0999 V2000
    2.4394   -1.3895   -1.7341 C   0  0  0  0  0  0  0  0  0  0  0  0
    2.2305    0.1218   -1.8539 C   0  0  0  0  0  0  0  0  0  0  0  0
    2.9805    0.9679   -0.8162 C   0  0  0  0  0  0  0  0  0  0  0  0
    4.4468    0.8015   -0.8313 N   0  0  0  0  0  0  0  0  0  0  0  0
    5.0655   -0.1503    0.0926 C   0  0  0  0  0  0  0  0  0  0  0  0
    4.3897   -0.2165    1.4750 C   0  0  0  0  0  0  0  0  0  0  0  0
    3.7142   -1.1996    1.7499 O   0  0  0  0  0  0  0  0  0  0  0  0
    4.5553    0.8191    2.3610 N   0  0  0  0  0  0  0  0  0  0  0  0
    4.0393    0.6272    3.7177 C   0  0  0  0  0  0  0  0  0  0  0  0
    5.1458    0.0814    4.6367 C   0  0  0  0  0  0  0  0  0  0  0  0
    6.4215    0.8338    4.3739 C   0  0  0  0  0  0  0  0  0  0  0  0
    7.8333    0.7480    5.3877 S   0  0  0  0  0  0  0  0  0  0  0  0
    8.7103    1.8266    4.3492 C   0  0  0  0  0  0  0  0  0  0  0  0
    7.9544    2.2275    3.2802 C   0  0  0  0  0  0  0  0  0  0  0  0
    6.6406    1.6540    3.2895 C   0  0  0  0  0  0  0  0  0  0  0  0
    5.5596    1.9003    2.2510 C   0  0  2  0  0  0  0  0  0  0  0  0
    4.9168    3.2893    2.3545 C   0  0  0  0  0  0  0  0  0  0  0  0
    4.2657    3.8410    1.2347 C   0  0  0  0  0  0  0  0  0  0  0  0
    3.6472    5.0834    1.2965 C   0  0  0  0  0  0  0  0  0  0  0  0
    3.6610    5.8247    2.4924 C   0  0  0  0  0  0  0  0  0  0  0  0
    3.0325    7.0260    2.4595 O   0  0  0  0  0  0  0  0  0  0  0  0
    3.0083    7.8249    3.6205 C   0  0  0  0  0  0  0  0  0  0  0  0
    4.3131    5.2958    3.6147 C   0  0  0  0  0  0  0  0  0  0  0  0
    4.9331    4.0420    3.5331 C   0  0  0  0  0  0  0  0  0  0  0  0
    5.1239    1.4361   -1.8500 C   0  0  0  0  0  0  0  0  0  0  0  0
    4.5634    2.2618   -2.5575 O   0  0  0  0  0  0  0  0  0  0  0  0
    6.6117    1.0869   -2.0867 C   0  0  1  0  0  0  0  0  0  0  0  0
    6.8946    0.9367   -3.5823 C   0  0  0  0  0  0  0  0  0  0  0  0
    6.8700    2.0304   -4.4617 C   0  0  0  0  0  0  0  0  0  0  0  0
    7.1331    1.8530   -5.8213 C   0  0  0  0  0  0  0  0  0  0  0  0
    7.4265    0.5821   -6.3276 C   0  0  0  0  0  0  0  0  0  0  0  0
    7.4539   -0.5130   -5.4619 C   0  0  0  0  0  0  0  0  0  0  0  0
    7.1890   -0.3332   -4.1003 C   0  0  0  0  0  0  0  0  0  0  0  0
    7.5436    2.0939   -1.4070 C   0  0  0  0  0  0  0  0  0  0  0  0
    8.7784    1.6503   -0.9041 C   0  0  0  0  0  0  0  0  0  0  0  0
    9.6795    2.5434   -0.3195 C   0  0  0  0  0  0  0  0  0  0  0  0
    9.3581    3.9013   -0.2231 C   0  0  0  0  0  0  0  0  0  0  0  0
    8.1296    4.3533   -0.7130 C   0  0  0  0  0  0  0  0  0  0  0  0
    7.2290    3.4590   -1.3011 C   0  0  0  0  0  0  0  0  0  0  0  0
    1.7642   -1.9342   -2.4129 H   0  0  0  0  0  0  0  0  0  0  0  0
    2.2575   -1.7464   -0.7075 H   0  0  0  0  0  0  0  0  0  0  0  0
    3.4679   -1.6776   -2.0067 H   0  0  0  0  0  0  0  0  0  0  0  0
    1.1578    0.3583   -1.7368 H   0  0  0  0  0  0  0  0  0  0  0  0
    2.5104    0.4693   -2.8617 H   0  0  0  0  0  0  0  0  0  0  0  0
    2.6207    0.7298    0.1938 H   0  0  0  0  0  0  0  0  0  0  0  0
    2.7680    2.0289   -1.0040 H   0  0  0  0  0  0  0  0  0  0  0  0
    6.1263    0.0965    0.2205 H   0  0  0  0  0  0  0  0  0  0  0  0
    5.0005   -1.1841   -0.2816 H   0  0  0  0  0  0  0  0  0  0  0  0
    3.1954   -0.0692    3.6687 H   0  0  0  0  0  0  0  0  0  0  0  0
    3.6789    1.5989    4.0879 H   0  0  0  0  0  0  0  0  0  0  0  0
    5.2873   -0.9964    4.4412 H   0  0  0  0  0  0  0  0  0  0  0  0
    4.8346    0.1719    5.6910 H   0  0  0  0  0  0  0  0  0  0  0  0
    9.7370    2.0997    4.5887 H   0  0  0  0  0  0  0  0  0  0  0  0
    8.3150    2.9032    2.5029 H   0  0  0  0  0  0  0  0  0  0  0  0
    6.0121    1.8385    1.2539 H   0  0  0  0  0  0  0  0  0  0  0  0
    4.2480    3.2891    0.2933 H   0  0  0  0  0  0  0  0  0  0  0  0
    3.1465    5.5109    0.4254 H   0  0  0  0  0  0  0  0  0  0  0  0
    2.4511    8.7357    3.3628 H   0  0  0  0  0  0  0  0  0  0  0  0
    4.0254    8.1087    3.9468 H   0  0  0  0  0  0  0  0  0  0  0  0
    2.4963    7.3183    4.4587 H   0  0  0  0  0  0  0  0  0  0  0  0
    4.3529    5.8467    4.5545 H   0  0  0  0  0  0  0  0  0  0  0  0
    5.4489    3.6557    4.4147 H   0  0  0  0  0  0  0  0  0  0  0  0
    6.8279    0.1055   -1.6484 H   0  0  0  0  0  0  0  0  0  0  0  0
    6.6356    3.0244   -4.0814 H   0  0  0  0  0  0  0  0  0  0  0  0
    7.1081    2.7158   -6.4922 H   0  0  0  0  0  0  0  0  0  0  0  0
    7.6338    0.4479   -7.3924 H   0  0  0  0  0  0  0  0  0  0  0  0
    7.6824   -1.5117   -5.8433 H   0  0  0  0  0  0  0  0  0  0  0  0
    7.2126   -1.1978   -3.4299 H   0  0  0  0  0  0  0  0  0  0  0  0
    9.0426    0.5916   -0.9819 H   0  0  0  0  0  0  0  0  0  0  0  0
   10.6358    2.1762    0.0619 H   0  0  0  0  0  0  0  0  0  0  0  0
   10.0619    4.6032    0.2314 H   0  0  0  0  0  0  0  0  0  0  0  0
    7.8655    5.4112   -0.6383 H   0  0  0  0  0  0  0  0  0  0  0  0
    6.2732    3.8222   -1.6833 H   0  0  0  0  0  0  0  0  0  0  0  0
  1  2  1  0
  1 40  1  0
  1 41  1  0
  1 42  1  0
  2  3  1  0
  2 43  1  0
  2 44  1  0
  3  4  1  0
  3 45  1  0
  3 46  1  0
  4  5  1  0
  4 25  1  0
  5  6  1  0
  5 47  1  0
  5 48  1  0
  6  7  2  0
  6  8  1  0
  8  9  1  0
  8 16  1  0
  9 10  1  0
  9 49  1  0
  9 50  1  0
 10 11  1  0
 10 51  1  0
 10 52  1  0
 11 12  1  0
 11 15  2  0
 12 13  1  0
 13 14  2  0
 13 53  1  0
 14 15  1  0
 14 54  1  0
 15 16  1  0
 16 17  1  0
 16 55  1  6
 17 18  2  0
 17 24  1  0
 18 19  1  0
 18 56  1  0
 19 20  2  0
 19 57  1  0
 20 21  1  0
 20 23  1  0
 21 22  1  0
 22 58  1  0
 22 59  1  0
 22 60  1  0
 23 24  2  0
 23 61  1  0
 24 62  1  0
 25 26  2  0
 25 27  1  0
 27 28  1  0
 27 34  1  0
 27 63  1  1
 28 29  2  0
 28 33  1  0
 29 30  1  0
 29 64  1  0
 30 31  2  0
 30 65  1  0
 31 32  1  0
 31 66  1  0
 32 33  2  0
 32 67  1  0
 33 68  1  0
 34 35  2  0
 34 39  1  0
 35 36  1  0
 35 69  1  0
 36 37  2  0
 36 70  1  0
 37 38  1  0
 37 71  1  0
 38 39  2  0
 38 72  1  0
 39 73  1  0
M  END

