
     RDKit          3D

 32 33  0  0  0  0  0  0  0  0999 V2000
    4.2574    0.2549    1.2724 C   0  0  0  0  0  0  0  0  0  0  0  0
    3.3379    0.4086    0.2158 O   0  0  0  0  0  0  0  0  0  0  0  0
    3.7777    0.2763   -1.0574 C   0  0  0  0  0  0  0  0  0  0  0  0
    5.0874   -0.0325   -1.4465 C   0  0  0  0  0  0  0  0  0  0  0  0
    5.4221   -0.1378   -2.8030 C   0  0  0  0  0  0  0  0  0  0  0  0
    4.4717    0.0578   -3.8112 C   0  0  0  0  0  0  0  0  0  0  0  0
    4.8404   -0.0882   -5.2714 C   0  0  0  0  0  0  0  0  0  0  0  0
    4.8017   -1.5347   -5.7870 C   0  0  1  0  0  0  0  0  0  0  0  0
    3.4166   -2.2019   -5.8628 C   0  0  0  0  0  0  0  0  0  0  0  0
    3.6718   -3.4703   -6.6952 C   0  0  0  0  0  0  0  0  0  0  0  0
    4.7591   -3.0671   -7.7281 C   0  0  0  0  0  0  0  0  0  0  0  0
    5.2950   -1.7030   -7.2328 C   0  0  2  0  0  0  0  0  0  0  0  0
    7.2627   -1.5265   -7.3997 Br  0  0  0  0  0  0  0  0  0  0  0  0
    3.1569    0.3686   -3.4188 C   0  0  0  0  0  0  0  0  0  0  0  0
    2.8248    0.4737   -2.0772 C   0  0  0  0  0  0  0  0  0  0  0  0
    1.5678    0.7762   -1.7258 F   0  0  0  0  0  0  0  0  0  0  0  0
    3.6957    0.4106    2.2031 H   0  0  0  0  0  0  0  0  0  0  0  0
    5.0722    1.0001    1.2190 H   0  0  0  0  0  0  0  0  0  0  0  0
    4.7034   -0.7563    1.2881 H   0  0  0  0  0  0  0  0  0  0  0  0
    5.8600   -0.1893   -0.6933 H   0  0  0  0  0  0  0  0  0  0  0  0
    6.4554   -0.3722   -3.0741 H   0  0  0  0  0  0  0  0  0  0  0  0
    5.8586    0.3028   -5.4299 H   0  0  0  0  0  0  0  0  0  0  0  0
    4.1658    0.5291   -5.8902 H   0  0  0  0  0  0  0  0  0  0  0  0
    5.4439   -2.1566   -5.1373 H   0  0  0  0  0  0  0  0  0  0  0  0
    2.7130   -1.5301   -6.3885 H   0  0  0  0  0  0  0  0  0  0  0  0
    2.9873   -2.4083   -4.8710 H   0  0  0  0  0  0  0  0  0  0  0  0
    2.7603   -3.8664   -7.1672 H   0  0  0  0  0  0  0  0  0  0  0  0
    4.0598   -4.2638   -6.0363 H   0  0  0  0  0  0  0  0  0  0  0  0
    4.3482   -2.9622   -8.7440 H   0  0  0  0  0  0  0  0  0  0  0  0
    5.5609   -3.8156   -7.7876 H   0  0  0  0  0  0  0  0  0  0  0  0
    4.9196   -0.8791   -7.8549 H   0  0  0  0  0  0  0  0  0  0  0  0
    2.3696    0.5423   -4.1562 H   0  0  0  0  0  0  0  0  0  0  0  0
  1  2  1  0
  1 17  1  0
  1 18  1  0
  1 19  1  0
  2  3  1  0
  3  4  2  0
  3 15  1  0
  4  5  1  0
  4 20  1  0
  5  6  2  0
  5 21  1  0
  6  7  1  0
  6 14  1  0
  7  8  1  0
  7 22  1  0
  7 23  1  0
  8  9  1  0
  8 12  1  0
  8 24  1  1
  9 10  1  0
  9 25  1  0
  9 26  1  0
 10 11  1  0
 10 27  1  0
 10 28  1  0
 11 12  1  0
 11 29  1  0
 11 30  1  0
 12 13  1  0
 12 31  1  6
 14 15  2  0
 14 32  1  0
 15 16  1  0
M  END

