
     RDKit          3D

 48 51  0  0  0  0  0  0  0  0999 V2000
    6.5827    0.0256    2.1139 C   0  0  0  0  0  0  0  0  0  0  0  0
    5.6099   -0.1739    1.1195 O   0  0  0  0  0  0  0  0  0  0  0  0
    5.9368   -1.1741    0.1928 C   0  0  0  0  0  0  0  0  0  0  0  0
    4.8224   -1.1908   -0.8530 C   0  0  0  0  0  0  0  0  0  0  0  0
    4.9870   -2.2272   -1.8580 N   0  0  0  0  0  0  0  0  0  0  0  0
    5.5389   -2.1110   -3.1265 C   0  0  0  0  0  0  0  0  0  0  0  0
    6.0395   -0.8160   -3.6820 C   0  0  0  0  0  0  0  0  0  0  0  0
    7.1936   -0.4086   -2.9613 O   0  0  0  0  0  0  0  0  0  0  0  0
    7.8208    0.7501   -3.3126 C   0  0  0  0  0  0  0  0  0  0  0  0
    7.3502    1.6319   -4.2702 C   0  0  0  0  0  0  0  0  0  0  0  0
    8.0596    2.8306   -4.5407 C   0  0  0  0  0  0  0  0  0  0  0  0
    9.2185    3.1394   -3.8672 C   0  0  0  0  0  0  0  0  0  0  0  0
    9.7382    2.2439   -2.8882 C   0  0  0  0  0  0  0  0  0  0  0  0
   10.9413    2.5168   -2.1791 C   0  0  0  0  0  0  0  0  0  0  0  0
   11.4380    1.6278   -1.2483 C   0  0  0  0  0  0  0  0  0  0  0  0
   10.7548    0.4152   -0.9870 C   0  0  0  0  0  0  0  0  0  0  0  0
    9.5816    0.1190   -1.6527 C   0  0  0  0  0  0  0  0  0  0  0  0
    9.0411    1.0232   -2.6065 C   0  0  0  0  0  0  0  0  0  0  0  0
    5.5499   -3.2375   -3.7941 N   0  0  0  0  0  0  0  0  0  0  0  0
    4.9851   -4.1688   -2.9484 C   0  0  0  0  0  0  0  0  0  0  0  0
    4.7411   -5.5352   -3.1497 C   0  0  0  0  0  0  0  0  0  0  0  0
    4.1435   -6.2499   -2.1144 C   0  0  0  0  0  0  0  0  0  0  0  0
    3.8591   -7.7221   -2.2633 C   0  0  1  0  0  0  0  0  0  0  0  0
    4.2124   -8.1940   -3.4700 F   0  0  0  0  0  0  0  0  0  0  0  0
    4.5191   -8.4515   -1.3403 F   0  0  0  0  0  0  0  0  0  0  0  0
    2.5488   -7.9943   -2.0951 F   0  0  0  0  0  0  0  0  0  0  0  0
    3.7880   -5.6245   -0.8944 C   0  0  0  0  0  0  0  0  0  0  0  0
    4.0238   -4.2717   -0.6775 C   0  0  0  0  0  0  0  0  0  0  0  0
    4.6272   -3.5551   -1.7208 C   0  0  0  0  0  0  0  0  0  0  0  0
    6.2260    0.8294    2.7739 H   0  0  0  0  0  0  0  0  0  0  0  0
    7.5577    0.3269    1.6825 H   0  0  0  0  0  0  0  0  0  0  0  0
    6.7437   -0.8865    2.7237 H   0  0  0  0  0  0  0  0  0  0  0  0
    6.0181   -2.1676    0.6824 H   0  0  0  0  0  0  0  0  0  0  0  0
    6.9043   -0.9682   -0.3038 H   0  0  0  0  0  0  0  0  0  0  0  0
    4.7827   -0.2097   -1.3461 H   0  0  0  0  0  0  0  0  0  0  0  0
    3.8549   -1.3360   -0.3476 H   0  0  0  0  0  0  0  0  0  0  0  0
    5.2571   -0.0358   -3.6187 H   0  0  0  0  0  0  0  0  0  0  0  0
    6.2758   -0.9854   -4.7445 H   0  0  0  0  0  0  0  0  0  0  0  0
    6.4352    1.4253   -4.8246 H   0  0  0  0  0  0  0  0  0  0  0  0
    7.6664    3.5131   -5.2983 H   0  0  0  0  0  0  0  0  0  0  0  0
    9.7564    4.0668   -4.0778 H   0  0  0  0  0  0  0  0  0  0  0  0
   11.4717    3.4494   -2.3900 H   0  0  0  0  0  0  0  0  0  0  0  0
   12.3651    1.8540   -0.7154 H   0  0  0  0  0  0  0  0  0  0  0  0
   11.1633   -0.2918   -0.2605 H   0  0  0  0  0  0  0  0  0  0  0  0
    9.0620   -0.8218   -1.4687 H   0  0  0  0  0  0  0  0  0  0  0  0
    5.0130   -6.0135   -4.0906 H   0  0  0  0  0  0  0  0  0  0  0  0
    3.3187   -6.2202   -0.1086 H   0  0  0  0  0  0  0  0  0  0  0  0
    3.7467   -3.8011    0.2678 H   0  0  0  0  0  0  0  0  0  0  0  0
  1  2  1  0
  1 30  1  0
  1 31  1  0
  1 32  1  0
  2  3  1  0
  3  4  1  0
  3 33  1  0
  3 34  1  0
  4  5  1  0
  4 35  1  0
  4 36  1  0
  5  6  1  0
  5 29  1  0
  6  7  1  0
  6 19  2  0
  7  8  1  0
  7 37  1  0
  7 38  1  0
  8  9  1  0
  9 10  2  0
  9 18  1  0
 10 11  1  0
 10 39  1  0
 11 12  2  0
 11 40  1  0
 12 13  1  0
 12 41  1  0
 13 14  1  0
 13 18  2  0
 14 15  2  0
 14 42  1  0
 15 16  1  0
 15 43  1  0
 16 17  2  0
 16 44  1  0
 17 18  1  0
 17 45  1  0
 19 20  1  0
 20 21  1  0
 20 29  2  0
 21 22  2  0
 21 46  1  0
 22 23  1  0
 22 27  1  0
 23 24  1  6
 23 25  1  0
 23 26  1  0
 27 28  2  0
 27 47  1  0
 28 29  1  0
 28 48  1  0
M  END

