
     RDKit          3D

 48 49  0  0  0  0  0  0  0  0999 V2000
    4.6798   -1.6313   -0.9407 C   0  0  0  0  0  0  0  0  0  0  0  0
    5.7425   -0.6898   -0.3984 C   0  0  0  0  0  0  0  0  0  0  0  0
    5.6166    0.6356   -0.9452 O   0  0  0  0  0  0  0  0  0  0  0  0
    4.7416    1.4766   -0.3462 C   0  0  0  0  0  0  0  0  0  0  0  0
    4.0880    1.1432    0.6202 O   0  0  0  0  0  0  0  0  0  0  0  0
    4.7301    2.8005   -1.0241 C   0  0  0  0  0  0  0  0  0  0  0  0
    3.9658    3.8232   -0.5659 C   0  0  0  0  0  0  0  0  0  0  0  0
    2.9944    3.8603    0.5679 C   0  0  0  0  0  0  0  0  0  0  0  0
    4.0254    5.0561   -1.1592 O   0  0  0  0  0  0  0  0  0  0  0  0
    5.0388    5.4055   -2.0115 C   0  0  0  0  0  0  0  0  0  0  0  0
    5.0472    6.8873   -2.1975 C   0  0  0  0  0  0  0  0  0  0  0  0
    5.8538    4.4576   -2.5379 C   0  0  0  0  0  0  0  0  0  0  0  0
    7.0099    4.8208   -3.4004 C   0  0  0  0  0  0  0  0  0  0  0  0
    7.3369    5.9341   -3.7555 O   0  0  0  0  0  0  0  0  0  0  0  0
    7.7088    3.7190   -3.7596 O   0  0  0  0  0  0  0  0  0  0  0  0
    8.8640    3.9102   -4.5965 C   0  0  0  0  0  0  0  0  0  0  0  0
    8.4930    3.9848   -6.0685 C   0  0  0  0  0  0  0  0  0  0  0  0
    5.5759    2.9808   -2.2798 C   0  0  2  0  0  0  0  0  0  0  0  0
    4.9212    2.3129   -3.4970 C   0  0  0  0  0  0  0  0  0  0  0  0
    5.5577    1.2641   -4.1774 C   0  0  0  0  0  0  0  0  0  0  0  0
    4.9636    0.6529   -5.2871 C   0  0  0  0  0  0  0  0  0  0  0  0
    3.7156    1.0775   -5.7434 C   0  0  0  0  0  0  0  0  0  0  0  0
    3.0902    2.1214   -5.0603 C   0  0  0  0  0  0  0  0  0  0  0  0
    1.7659    2.5892   -5.5257 N   0  0  0  0  0  0  0  0  0  0  0  0
    1.2794    2.0315   -6.4962 O   0  0  0  0  0  0  0  0  0  0  0  0
    1.2403    3.5040   -4.9114 O   0  0  0  0  0  0  0  0  0  0  0  0
    3.6685    2.7407   -3.9535 C   0  0  0  0  0  0  0  0  0  0  0  0
    4.8560   -2.6503   -0.5602 H   0  0  0  0  0  0  0  0  0  0  0  0
    4.7047   -1.6650   -2.0409 H   0  0  0  0  0  0  0  0  0  0  0  0
    3.6772   -1.3150   -0.6182 H   0  0  0  0  0  0  0  0  0  0  0  0
    6.7514   -1.0148   -0.6919 H   0  0  0  0  0  0  0  0  0  0  0  0
    5.6896   -0.6286    0.6984 H   0  0  0  0  0  0  0  0  0  0  0  0
    2.8657    2.8729    1.0172 H   0  0  0  0  0  0  0  0  0  0  0  0
    2.0302    4.2440    0.1961 H   0  0  0  0  0  0  0  0  0  0  0  0
    3.3486    4.5738    1.3308 H   0  0  0  0  0  0  0  0  0  0  0  0
    4.0412    7.2110   -2.5109 H   0  0  0  0  0  0  0  0  0  0  0  0
    5.7945    7.1943   -2.9328 H   0  0  0  0  0  0  0  0  0  0  0  0
    5.2529    7.3770   -1.2308 H   0  0  0  0  0  0  0  0  0  0  0  0
    9.5024    3.0389   -4.3891 H   0  0  0  0  0  0  0  0  0  0  0  0
    9.3874    4.8233   -4.2772 H   0  0  0  0  0  0  0  0  0  0  0  0
    7.9339    3.0895   -6.3817 H   0  0  0  0  0  0  0  0  0  0  0  0
    9.4072    4.0522   -6.6800 H   0  0  0  0  0  0  0  0  0  0  0  0
    7.8798    4.8748   -6.2716 H   0  0  0  0  0  0  0  0  0  0  0  0
    6.5340    2.4745   -2.1230 H   0  0  0  0  0  0  0  0  0  0  0  0
    6.5347    0.9240   -3.8284 H   0  0  0  0  0  0  0  0  0  0  0  0
    5.4784   -0.1624   -5.8011 H   0  0  0  0  0  0  0  0  0  0  0  0
    3.2227    0.6256   -6.6033 H   0  0  0  0  0  0  0  0  0  0  0  0
    3.1248    3.5504   -3.4668 H   0  0  0  0  0  0  0  0  0  0  0  0
  1  2  1  0
  1 28  1  0
  1 29  1  0
  1 30  1  0
  2  3  1  0
  2 31  1  0
  2 32  1  0
  3  4  1  0
  4  5  2  0
  4  6  1  0
  6  7  2  0
  6 18  1  0
  7  8  1  0
  7  9  1  0
  8 33  1  0
  8 34  1  0
  8 35  1  0
  9 10  1  0
 10 11  1  0
 10 12  2  0
 11 36  1  0
 11 37  1  0
 11 38  1  0
 12 13  1  0
 12 18  1  0
 13 14  2  0
 13 15  1  0
 15 16  1  0
 16 17  1  0
 16 39  1  0
 16 40  1  0
 17 41  1  0
 17 42  1  0
 17 43  1  0
 18 19  1  0
 18 44  1  1
 19 20  2  0
 19 27  1  0
 20 21  1  0
 20 45  1  0
 21 22  2  0
 21 46  1  0
 22 23  1  0
 22 47  1  0
 23 24  1  0
 23 27  2  0
 24 25  2  0
 24 26  1  0
 27 48  1  0
M  CHG  2  24   1  26  -1
M  END

