
     RDKit          3D

 52 54  0  0  0  0  0  0  0  0999 V2000
    6.2374   -0.9925    1.2502 C   0  0  0  0  0  0  0  0  0  0  0  0
    4.7617   -0.7004    0.9346 C   0  0  1  0  0  0  0  0  0  0  0  0
    3.7962   -1.2101    2.0425 C   0  0  0  0  0  0  0  0  0  0  0  0
    3.9231   -0.4918    3.3849 C   0  0  0  0  0  0  0  0  0  0  0  0
    4.9554   -0.5170    4.0418 O   0  0  0  0  0  0  0  0  0  0  0  0
    2.8095    0.1738    3.8071 N   0  0  0  0  0  0  0  0  0  0  0  0
    2.7465    0.8499    5.1065 C   0  0  1  0  0  0  0  0  0  0  0  0
    3.3938    2.2496    5.0805 C   0  0  0  0  0  0  0  0  0  0  0  0
    2.5499    3.2597    4.2993 C   0  0  0  0  0  0  0  0  0  0  0  0
    1.1535    3.3024    4.7652 N   0  0  0  0  0  0  0  0  0  0  0  0
    0.7952    4.3993    5.9995 S   0  0  1  0  0  0  0  0  0  0  0  0
   -0.5230    4.0183    6.5136 O   0  0  0  0  0  0  0  0  0  0  0  0
    1.9358    4.5540    6.9139 O   0  0  0  0  0  0  0  0  0  0  0  0
    0.6588    5.9276    5.1366 C   0  0  0  0  0  0  0  0  0  0  0  0
   -0.2835    6.3337    4.1587 C   0  0  0  0  0  0  0  0  0  0  0  0
   -0.0808    7.5957    3.8091 N   0  0  0  0  0  0  0  0  0  0  0  0
    0.9675    8.0136    4.5453 N   0  0  0  0  0  0  0  0  0  0  0  0
    1.4467    9.3744    4.3970 C   0  0  0  0  0  0  0  0  0  0  0  0
    1.4473    7.0469    5.3619 C   0  0  0  0  0  0  0  0  0  0  0  0
    0.4854    1.9976    4.7986 C   0  0  0  0  0  0  0  0  0  0  0  0
    1.2875    0.9480    5.5822 C   0  0  0  0  0  0  0  0  0  0  0  0
    4.4900    0.7575    0.5910 C   0  0  0  0  0  0  0  0  0  0  0  0
    3.7090    1.1073   -0.5194 C   0  0  0  0  0  0  0  0  0  0  0  0
    3.4450    2.4516   -0.7873 C   0  0  0  0  0  0  0  0  0  0  0  0
    3.9701    3.4156    0.0775 C   0  0  0  0  0  0  0  0  0  0  0  0
    4.7194    3.1080    1.1394 N   0  0  0  0  0  0  0  0  0  0  0  0
    4.9752    1.8187    1.3776 C   0  0  0  0  0  0  0  0  0  0  0  0
    6.3943   -2.0783    1.3527 H   0  0  0  0  0  0  0  0  0  0  0  0
    6.5530   -0.5326    2.1957 H   0  0  0  0  0  0  0  0  0  0  0  0
    6.8859   -0.6297    0.4374 H   0  0  0  0  0  0  0  0  0  0  0  0
    4.4985   -1.2833    0.0351 H   0  0  0  0  0  0  0  0  0  0  0  0
    4.0170   -2.2736    2.2338 H   0  0  0  0  0  0  0  0  0  0  0  0
    2.7606   -1.1552    1.6692 H   0  0  0  0  0  0  0  0  0  0  0  0
    1.9893    0.1680    3.2143 H   0  0  0  0  0  0  0  0  0  0  0  0
    3.3248    0.2225    5.8017 H   0  0  0  0  0  0  0  0  0  0  0  0
    4.4036    2.1777    4.6499 H   0  0  0  0  0  0  0  0  0  0  0  0
    3.4992    2.6065    6.1172 H   0  0  0  0  0  0  0  0  0  0  0  0
    2.5308    3.0046    3.2262 H   0  0  0  0  0  0  0  0  0  0  0  0
    2.9829    4.2676    4.3672 H   0  0  0  0  0  0  0  0  0  0  0  0
   -1.0873    5.7513    3.7109 H   0  0  0  0  0  0  0  0  0  0  0  0
    1.7779    9.5480    3.3625 H   0  0  0  0  0  0  0  0  0  0  0  0
    2.2897    9.5355    5.0812 H   0  0  0  0  0  0  0  0  0  0  0  0
    0.6416   10.0846    4.6358 H   0  0  0  0  0  0  0  0  0  0  0  0
    2.2852    7.1933    6.0392 H   0  0  0  0  0  0  0  0  0  0  0  0
    0.3409    1.6845    3.7471 H   0  0  0  0  0  0  0  0  0  0  0  0
   -0.5141    2.1288    5.2313 H   0  0  0  0  0  0  0  0  0  0  0  0
    0.7953   -0.0370    5.5118 H   0  0  0  0  0  0  0  0  0  0  0  0
    1.2856    1.2339    6.6464 H   0  0  0  0  0  0  0  0  0  0  0  0
    3.3119    0.3257   -1.1750 H   0  0  0  0  0  0  0  0  0  0  0  0
    2.8442    2.7488   -1.6502 H   0  0  0  0  0  0  0  0  0  0  0  0
    3.7770    4.4810   -0.0967 H   0  0  0  0  0  0  0  0  0  0  0  0
    5.6002    1.6056    2.2512 H   0  0  0  0  0  0  0  0  0  0  0  0
  1  2  1  0
  1 28  1  0
  1 29  1  0
  1 30  1  0
  2  3  1  0
  2 22  1  0
  2 31  1  6
  3  4  1  0
  3 32  1  0
  3 33  1  0
  4  5  2  0
  4  6  1  0
  6  7  1  0
  6 34  1  0
  7  8  1  0
  7 21  1  0
  7 35  1  1
  8  9  1  0
  8 36  1  0
  8 37  1  0
  9 10  1  0
  9 38  1  0
  9 39  1  0
 10 11  1  0
 10 20  1  0
 11 12  2  0
 11 13  2  0
 11 14  1  6
 14 15  1  0
 14 19  2  0
 15 16  2  0
 15 40  1  0
 16 17  1  0
 17 18  1  0
 17 19  1  0
 18 41  1  0
 18 42  1  0
 18 43  1  0
 19 44  1  0
 20 21  1  0
 20 45  1  0
 20 46  1  0
 21 47  1  0
 21 48  1  0
 22 23  2  0
 22 27  1  0
 23 24  1  0
 23 49  1  0
 24 25  2  0
 24 50  1  0
 25 26  1  0
 25 51  1  0
 26 27  2  0
 27 52  1  0
M  END

