
     RDKit          3D

 52 55  0  0  0  0  0  0  0  0999 V2000
   14.9143  -11.9398   -5.0372 C   0  0  0  0  0  0  0  0  0  0  0  0
   14.8932  -10.4738   -5.4229 C   0  0  0  0  0  0  0  0  0  0  0  0
   14.3443   -9.7398   -4.3350 O   0  0  0  0  0  0  0  0  0  0  0  0
   14.2159   -8.3994   -4.4164 C   0  0  0  0  0  0  0  0  0  0  0  0
   13.6743   -7.7563   -3.2857 C   0  0  0  0  0  0  0  0  0  0  0  0
   13.5092   -6.3805   -3.2625 C   0  0  0  0  0  0  0  0  0  0  0  0
   13.8636   -5.5930   -4.3781 C   0  0  0  0  0  0  0  0  0  0  0  0
   13.6546   -4.1311   -4.4322 C   0  0  0  0  0  0  0  0  0  0  0  0
   13.2249   -3.6483   -5.6209 O   0  0  0  0  0  0  0  0  0  0  0  0
   13.8666   -3.2078   -3.4469 C   0  0  0  0  0  0  0  0  0  0  0  0
   14.4092   -3.4076   -2.1007 C   0  0  0  0  0  0  0  0  0  0  0  0
   14.8161   -4.4070   -1.5436 O   0  0  0  0  0  0  0  0  0  0  0  0
   14.3468   -2.0289   -1.4088 C   0  0  0  0  0  0  0  0  0  0  0  0
   14.6751   -1.7811   -0.2653 O   0  0  0  0  0  0  0  0  0  0  0  0
   13.8082   -1.1570   -2.3141 N   0  0  0  0  0  0  0  0  0  0  0  0
   13.5969    0.2467   -2.0168 C   0  0  0  0  0  0  0  0  0  0  0  0
   12.1615    0.5964   -1.6166 C   0  0  2  0  0  0  0  0  0  0  0  0
   12.1347    1.6925   -1.4512 H   0  0  0  0  0  0  0  0  0  0  0  0
   11.6060   -0.1375   -0.3627 C   0  0  0  0  0  0  0  0  0  0  0  0
   10.4406   -0.9780   -0.9145 C   0  0  0  0  0  0  0  0  0  0  0  0
   10.0529   -0.1925   -2.1681 C   0  0  0  0  0  0  0  0  0  0  0  0
   11.2858    0.2658   -2.6986 O   0  0  0  0  0  0  0  0  0  0  0  0
   13.5815   -1.7247   -3.6540 C   0  0  1  0  0  0  0  0  0  0  0  0
   12.5308   -1.5598   -3.9388 H   0  0  0  0  0  0  0  0  0  0  0  0
   14.4675   -1.0676   -4.6985 C   0  0  0  0  0  0  0  0  0  0  0  0
   15.8393   -1.1009   -4.8007 C   0  0  0  0  0  0  0  0  0  0  0  0
   16.3396   -0.3385   -5.8982 C   0  0  0  0  0  0  0  0  0  0  0  0
   15.3408    0.2691   -6.6185 C   0  0  0  0  0  0  0  0  0  0  0  0
   13.7829   -0.0823   -5.9590 S   0  0  0  0  0  0  0  0  0  0  0  0
   14.3970   -6.2459   -5.5049 C   0  0  0  0  0  0  0  0  0  0  0  0
   14.5811   -7.6295   -5.5333 C   0  0  0  0  0  0  0  0  0  0  0  0
   15.3348  -12.5418   -5.8574 H   0  0  0  0  0  0  0  0  0  0  0  0
   13.8966  -12.3012   -4.8252 H   0  0  0  0  0  0  0  0  0  0  0  0
   15.5299  -12.0962   -4.1384 H   0  0  0  0  0  0  0  0  0  0  0  0
   14.2803  -10.3137   -6.3298 H   0  0  0  0  0  0  0  0  0  0  0  0
   15.9141  -10.1098   -5.6427 H   0  0  0  0  0  0  0  0  0  0  0  0
   13.3938   -8.3707   -2.4282 H   0  0  0  0  0  0  0  0  0  0  0  0
   13.0977   -5.9072   -2.3730 H   0  0  0  0  0  0  0  0  0  0  0  0
   12.9678   -4.3859   -6.1929 H   0  0  0  0  0  0  0  0  0  0  0  0
   13.8769    0.8402   -2.9013 H   0  0  0  0  0  0  0  0  0  0  0  0
   14.2734    0.5155   -1.1908 H   0  0  0  0  0  0  0  0  0  0  0  0
   11.2402    0.5998    0.3687 H   0  0  0  0  0  0  0  0  0  0  0  0
   12.3760   -0.7418    0.1364 H   0  0  0  0  0  0  0  0  0  0  0  0
    9.6107   -1.0933   -0.2010 H   0  0  0  0  0  0  0  0  0  0  0  0
   10.7863   -1.9850   -1.1977 H   0  0  0  0  0  0  0  0  0  0  0  0
    9.3934    0.6629   -1.9111 H   0  0  0  0  0  0  0  0  0  0  0  0
    9.5470   -0.7915   -2.9410 H   0  0  0  0  0  0  0  0  0  0  0  0
   16.4739   -1.6599   -4.1103 H   0  0  0  0  0  0  0  0  0  0  0  0
   17.3990   -0.2461   -6.1436 H   0  0  0  0  0  0  0  0  0  0  0  0
   15.4343    0.9036   -7.4989 H   0  0  0  0  0  0  0  0  0  0  0  0
   14.7143   -5.6621   -6.3739 H   0  0  0  0  0  0  0  0  0  0  0  0
   15.0168   -8.0905   -6.4192 H   0  0  0  0  0  0  0  0  0  0  0  0
  1  2  1  0
  1 32  1  0
  1 33  1  0
  1 34  1  0
  2  3  1  0
  2 35  1  0
  2 36  1  0
  3  4  1  0
  4  5  2  0
  4 31  1  0
  5  6  1  0
  5 37  1  0
  6  7  2  0
  6 38  1  0
  7  8  1  0
  7 30  1  0
  8  9  1  0
  8 10  2  0
  9 39  1  0
 10 11  1  0
 10 23  1  0
 11 12  2  0
 11 13  1  0
 13 14  2  0
 13 15  1  0
 15 16  1  0
 15 23  1  0
 16 17  1  0
 16 40  1  0
 16 41  1  0
 17 18  1  1
 17 19  1  0
 17 22  1  0
 19 20  1  0
 19 42  1  0
 19 43  1  0
 20 21  1  0
 20 44  1  0
 20 45  1  0
 21 22  1  0
 21 46  1  0
 21 47  1  0
 23 24  1  6
 23 25  1  0
 25 26  2  0
 25 29  1  0
 26 27  1  0
 26 48  1  0
 27 28  2  0
 27 49  1  0
 28 29  1  0
 28 50  1  0
 30 31  2  0
 30 51  1  0
 31 52  1  0
M  END

