
     RDKit          3D

 32 34  0  0  0  0  0  0  0  0999 V2000
    3.8837   -1.0308   -1.8610 C   0  0  0  0  0  0  0  0  0  0  0  0
    2.7417   -1.2757   -0.8607 C   0  0  1  0  0  0  0  0  0  0  0  0
    1.4902   -0.4546   -1.2123 C   0  0  0  0  0  0  0  0  0  0  0  0
    2.4099   -2.7394   -0.7909 C   0  0  0  0  0  0  0  0  0  0  0  0
    2.5501   -3.4467    0.3024 N   0  0  0  0  0  0  0  0  0  0  0  0
    2.1458   -4.7265   -0.0790 O   0  0  0  0  0  0  0  0  0  0  0  0
    1.7956   -4.6541   -1.3709 C   0  0  0  0  0  0  0  0  0  0  0  0
    1.2804   -5.8771   -2.0380 C   0  0  0  0  0  0  0  0  0  0  0  0
   -0.4117   -6.3757   -1.4571 S   0  0  0  0  0  0  0  0  0  0  0  0
   -0.0009   -7.2443    0.0113 C   0  0  0  0  0  0  0  0  0  0  0  0
    0.5762   -8.4315    0.0854 N   0  0  0  0  0  0  0  0  0  0  0  0
    0.7319   -8.7790    1.3766 N   0  0  0  0  0  0  0  0  0  0  0  0
    0.2302   -7.7941    2.1188 C   0  0  0  0  0  0  0  0  0  0  0  0
    0.1210   -7.6385    3.5256 C   0  0  0  0  0  0  0  0  0  0  0  0
   -0.4407   -6.4873    4.0200 C   0  0  0  0  0  0  0  0  0  0  0  0
   -0.9048   -5.4641    3.1333 C   0  0  0  0  0  0  0  0  0  0  0  0
   -0.8035   -5.6200    1.7796 C   0  0  0  0  0  0  0  0  0  0  0  0
   -0.2491   -6.7787    1.2911 N   0  0  0  0  0  0  0  0  0  0  0  0
    1.9354   -3.4612   -1.8661 N   0  0  0  0  0  0  0  0  0  0  0  0
    4.1369    0.0404   -1.8986 H   0  0  0  0  0  0  0  0  0  0  0  0
    3.5897   -1.3509   -2.8730 H   0  0  0  0  0  0  0  0  0  0  0  0
    4.7912   -1.5862   -1.5776 H   0  0  0  0  0  0  0  0  0  0  0  0
    3.0839   -0.9927    0.1478 H   0  0  0  0  0  0  0  0  0  0  0  0
    1.0938   -0.7516   -2.1960 H   0  0  0  0  0  0  0  0  0  0  0  0
    1.7336    0.6189   -1.2490 H   0  0  0  0  0  0  0  0  0  0  0  0
    0.6930   -0.5978   -0.4662 H   0  0  0  0  0  0  0  0  0  0  0  0
    1.9410   -6.7412   -1.8832 H   0  0  0  0  0  0  0  0  0  0  0  0
    1.1804   -5.6777   -3.1124 H   0  0  0  0  0  0  0  0  0  0  0  0
    0.4919   -8.4399    4.1653 H   0  0  0  0  0  0  0  0  0  0  0  0
   -0.5348   -6.3418    5.0982 H   0  0  0  0  0  0  0  0  0  0  0  0
   -1.3415   -4.5463    3.5296 H   0  0  0  0  0  0  0  0  0  0  0  0
   -1.1289   -4.8901    1.0380 H   0  0  0  0  0  0  0  0  0  0  0  0
  1  2  1  0
  1 20  1  0
  1 21  1  0
  1 22  1  0
  2  3  1  0
  2  4  1  0
  2 23  1  1
  3 24  1  0
  3 25  1  0
  3 26  1  0
  4  5  2  0
  4 19  1  0
  5  6  1  0
  6  7  1  0
  7  8  1  0
  7 19  2  0
  8  9  1  0
  8 27  1  0
  8 28  1  0
  9 10  1  0
 10 11  2  0
 10 18  1  0
 11 12  1  0
 12 13  2  0
 13 14  1  0
 13 18  1  0
 14 15  2  0
 14 29  1  0
 15 16  1  0
 15 30  1  0
 16 17  2  0
 16 31  1  0
 17 18  1  0
 17 32  1  0
M  END

