
     RDKit          3D

 30 29  0  0  0  0  0  0  0  0999 V2000
    1.9828    1.8942    0.6731 C   0  0  0  0  0  0  0  0  0  0  0  0
    3.1812    1.0973    0.4876 N   0  0  0  0  0  0  0  0  0  0  0  0
    3.5188    0.2610    1.6254 C   0  0  0  0  0  0  0  0  0  0  0  0
    4.7316   -0.6160    1.3262 C   0  0  0  0  0  0  0  0  0  0  0  0
    4.9773   -1.6641    2.4084 C   0  0  0  0  0  0  0  0  0  0  0  0
    4.0708   -2.1520    3.0626 O   0  0  0  0  0  0  0  0  0  0  0  0
    6.2871   -2.0330    2.5730 N   0  0  0  0  0  0  0  0  0  0  0  0
    6.7023   -3.1231    3.4389 C   0  0  0  0  0  0  0  0  0  0  0  0
    7.4195   -2.6499    4.7270 C   0  0  1  0  0  0  0  0  0  0  0  0
    6.4555   -1.9208    5.6693 C   0  0  0  0  0  0  0  0  0  0  0  0
    8.0650   -3.8508    5.4165 C   0  0  0  0  0  0  0  0  0  0  0  0
    8.4962   -1.7798    4.3629 O   0  0  0  0  0  0  0  0  0  0  0  0
    1.8117    2.5289   -0.2108 H   0  0  0  0  0  0  0  0  0  0  0  0
    1.9996    2.5547    1.5698 H   0  0  0  0  0  0  0  0  0  0  0  0
    1.1065    1.2322    0.7775 H   0  0  0  0  0  0  0  0  0  0  0  0
    3.9667    1.7061    0.2578 H   0  0  0  0  0  0  0  0  0  0  0  0
    2.6670   -0.4016    1.8485 H   0  0  0  0  0  0  0  0  0  0  0  0
    3.7005    0.8397    2.5615 H   0  0  0  0  0  0  0  0  0  0  0  0
    5.6365   -0.0007    1.1729 H   0  0  0  0  0  0  0  0  0  0  0  0
    4.5495   -1.1458    0.3742 H   0  0  0  0  0  0  0  0  0  0  0  0
    6.9834   -1.6296    1.9582 H   0  0  0  0  0  0  0  0  0  0  0  0
    7.3927   -3.7755    2.8789 H   0  0  0  0  0  0  0  0  0  0  0  0
    5.8024   -3.7022    3.6914 H   0  0  0  0  0  0  0  0  0  0  0  0
    5.6390   -2.5794    6.0016 H   0  0  0  0  0  0  0  0  0  0  0  0
    5.9905   -1.0576    5.1657 H   0  0  0  0  0  0  0  0  0  0  0  0
    7.0014   -1.5550    6.5527 H   0  0  0  0  0  0  0  0  0  0  0  0
    7.3119   -4.6113    5.6750 H   0  0  0  0  0  0  0  0  0  0  0  0
    8.5731   -3.5314    6.3386 H   0  0  0  0  0  0  0  0  0  0  0  0
    8.8169   -4.3102    4.7563 H   0  0  0  0  0  0  0  0  0  0  0  0
    8.1048   -0.9349    4.1036 H   0  0  0  0  0  0  0  0  0  0  0  0
  1  2  1  0
  1 13  1  0
  1 14  1  0
  1 15  1  0
  2  3  1  0
  2 16  1  0
  3  4  1  0
  3 17  1  0
  3 18  1  0
  4  5  1  0
  4 19  1  0
  4 20  1  0
  5  6  2  0
  5  7  1  0
  7  8  1  0
  7 21  1  0
  8  9  1  0
  8 22  1  0
  8 23  1  0
  9 10  1  0
  9 11  1  0
  9 12  1  6
 10 24  1  0
 10 25  1  0
 10 26  1  0
 11 27  1  0
 11 28  1  0
 11 29  1  0
 12 30  1  0
M  END

