
     RDKit          3D

 35 36  0  0  0  0  0  0  0  0999 V2000
    2.4856    3.8179   -0.6451 C   0  0  0  0  0  0  0  0  0  0  0  0
    2.7076    3.3868    0.7291 N   0  0  0  0  0  0  0  0  0  0  0  0
    2.8435    1.9496    0.9024 C   0  0  0  0  0  0  0  0  0  0  0  0
    4.2814    1.4322    0.7176 C   0  0  0  0  0  0  0  0  0  0  0  0
    4.5052    0.2530    0.5148 O   0  0  0  0  0  0  0  0  0  0  0  0
    5.2187    2.4218    0.8523 N   0  0  0  0  0  0  0  0  0  0  0  0
    6.6148    2.3409    0.7933 C   0  0  0  0  0  0  0  0  0  0  0  0
    7.3539    3.5297    0.9550 C   0  0  0  0  0  0  0  0  0  0  0  0
    8.7420    3.5124    0.9083 C   0  0  0  0  0  0  0  0  0  0  0  0
    9.4426    2.3157    0.6853 C   0  0  0  0  0  0  0  0  0  0  0  0
   10.9458    2.3967    0.6547 C   0  0  0  0  0  0  0  0  0  0  0  0
   11.5425    3.3807    1.0652 O   0  0  0  0  0  0  0  0  0  0  0  0
   11.6068    1.3186    0.1226 N   0  0  0  0  0  0  0  0  0  0  0  0
   13.0358    1.2274    0.1216 C   0  0  1  0  0  0  0  0  0  0  0  0
   13.7012    0.5139   -1.0255 C   0  0  0  0  0  0  0  0  0  0  0  0
   13.8317    2.0098   -0.8891 C   0  0  0  0  0  0  0  0  0  0  0  0
    8.6990    1.1341    0.5382 C   0  0  0  0  0  0  0  0  0  0  0  0
    7.3050    1.1316    0.5887 C   0  0  0  0  0  0  0  0  0  0  0  0
    2.3778    4.9128   -0.6809 H   0  0  0  0  0  0  0  0  0  0  0  0
    1.5896    3.3634   -1.1167 H   0  0  0  0  0  0  0  0  0  0  0  0
    3.3559    3.5518   -1.2668 H   0  0  0  0  0  0  0  0  0  0  0  0
    1.9844    3.7566    1.3407 H   0  0  0  0  0  0  0  0  0  0  0  0
    2.2072    1.3472    0.2246 H   0  0  0  0  0  0  0  0  0  0  0  0
    2.5513    1.6754    1.9301 H   0  0  0  0  0  0  0  0  0  0  0  0
    4.7944    3.3372    1.0133 H   0  0  0  0  0  0  0  0  0  0  0  0
    6.8258    4.4730    1.1226 H   0  0  0  0  0  0  0  0  0  0  0  0
    9.3212    4.4273    1.0457 H   0  0  0  0  0  0  0  0  0  0  0  0
   11.0778    0.5152   -0.1903 H   0  0  0  0  0  0  0  0  0  0  0  0
   13.4890    1.1168    1.1149 H   0  0  0  0  0  0  0  0  0  0  0  0
   13.0586    0.1314   -1.8249 H   0  0  0  0  0  0  0  0  0  0  0  0
   14.5654   -0.1181   -0.8038 H   0  0  0  0  0  0  0  0  0  0  0  0
   13.2681    2.6379   -1.5830 H   0  0  0  0  0  0  0  0  0  0  0  0
   14.7875    2.4303   -0.5660 H   0  0  0  0  0  0  0  0  0  0  0  0
    9.1988    0.1707    0.4048 H   0  0  0  0  0  0  0  0  0  0  0  0
    6.7388    0.2094    0.4788 H   0  0  0  0  0  0  0  0  0  0  0  0
  1  2  1  0
  1 19  1  0
  1 20  1  0
  1 21  1  0
  2  3  1  0
  2 22  1  0
  3  4  1  0
  3 23  1  0
  3 24  1  0
  4  5  2  0
  4  6  1  0
  6  7  1  0
  6 25  1  0
  7  8  2  0
  7 18  1  0
  8  9  1  0
  8 26  1  0
  9 10  2  0
  9 27  1  0
 10 11  1  0
 10 17  1  0
 11 12  2  0
 11 13  1  0
 13 14  1  0
 13 28  1  0
 14 15  1  0
 14 16  1  0
 14 29  1  1
 15 16  1  0
 15 30  1  0
 15 31  1  0
 16 32  1  0
 16 33  1  0
 17 18  2  0
 17 34  1  0
 18 35  1  0
M  END

