
     RDKit          3D

 57 60  0  0  0  0  0  0  0  0999 V2000
    2.5476    0.2252   -1.7553 C   0  0  0  0  0  0  0  0  0  0  0  0
    2.4657    0.0646   -0.2353 C   0  0  1  0  0  0  0  0  0  0  0  0
    1.0975   -0.0232    0.1589 O   0  0  0  0  0  0  0  0  0  0  0  0
    0.3009    1.0991    0.0585 C   0  0  0  0  0  0  0  0  0  0  0  0
    0.6232    2.3165    0.6579 C   0  0  0  0  0  0  0  0  0  0  0  0
   -0.2355    3.4154    0.5347 C   0  0  0  0  0  0  0  0  0  0  0  0
   -1.4263    3.2774   -0.1827 C   0  0  0  0  0  0  0  0  0  0  0  0
   -1.7651    2.0530   -0.7627 C   0  0  0  0  0  0  0  0  0  0  0  0
   -0.9143    0.9378   -0.6526 C   0  0  0  0  0  0  0  0  0  0  0  0
   -1.2449   -0.3020   -1.1681 N   0  0  0  0  0  0  0  0  0  0  0  0
    3.1652   -1.2176    0.3381 C   0  0  1  0  0  0  0  0  0  0  0  0
    2.7258   -1.4605    1.6889 O   0  0  0  0  0  0  0  0  0  0  0  0
    2.6301   -0.4999    2.6692 C   0  0  0  0  0  0  0  0  0  0  0  0
    3.5023    0.5750    2.8470 C   0  0  0  0  0  0  0  0  0  0  0  0
    3.3183    1.4721    3.9099 C   0  0  0  0  0  0  0  0  0  0  0  0
    2.2698    1.2737    4.8076 C   0  0  0  0  0  0  0  0  0  0  0  0
    1.4126    0.1804    4.6528 C   0  0  0  0  0  0  0  0  0  0  0  0
    1.5737   -0.7237    3.5915 C   0  0  0  0  0  0  0  0  0  0  0  0
    0.7228   -1.8006    3.3944 N   0  0  0  0  0  0  0  0  0  0  0  0
    2.6758   -2.4533   -0.4430 C   0  0  0  0  0  0  0  0  0  0  0  0
    3.4237   -3.0095   -1.4908 C   0  0  0  0  0  0  0  0  0  0  0  0
    2.9321   -4.0930   -2.2270 C   0  0  0  0  0  0  0  0  0  0  0  0
    1.6837   -4.6407   -1.9252 C   0  0  0  0  0  0  0  0  0  0  0  0
    0.9285   -4.0921   -0.8835 C   0  0  0  0  0  0  0  0  0  0  0  0
    1.4172   -3.0075   -0.1501 C   0  0  0  0  0  0  0  0  0  0  0  0
    4.7063   -1.1340    0.3483 C   0  0  0  0  0  0  0  0  0  0  0  0
    5.4610   -0.0808   -0.1876 C   0  0  0  0  0  0  0  0  0  0  0  0
    6.8596   -0.0807   -0.1027 C   0  0  0  0  0  0  0  0  0  0  0  0
    7.5285   -1.1315    0.5248 C   0  0  0  0  0  0  0  0  0  0  0  0
    6.7869   -2.1836    1.0738 C   0  0  0  0  0  0  0  0  0  0  0  0
    5.3955   -2.1818    0.9856 C   0  0  0  0  0  0  0  0  0  0  0  0
    2.1017    1.1904   -2.0395 H   0  0  0  0  0  0  0  0  0  0  0  0
    1.9871   -0.5752   -2.2576 H   0  0  0  0  0  0  0  0  0  0  0  0
    3.5789    0.2025   -2.1315 H   0  0  0  0  0  0  0  0  0  0  0  0
    2.9223    0.9405    0.2510 H   0  0  0  0  0  0  0  0  0  0  0  0
    1.5443    2.3977    1.2390 H   0  0  0  0  0  0  0  0  0  0  0  0
    0.0242    4.3656    1.0066 H   0  0  0  0  0  0  0  0  0  0  0  0
   -2.1064    4.1268   -0.2875 H   0  0  0  0  0  0  0  0  0  0  0  0
   -2.7059    1.9468   -1.3107 H   0  0  0  0  0  0  0  0  0  0  0  0
   -1.8942   -0.3246   -1.9440 H   0  0  0  0  0  0  0  0  0  0  0  0
   -0.4925   -0.9792   -1.2107 H   0  0  0  0  0  0  0  0  0  0  0  0
    4.3405    0.7110    2.1654 H   0  0  0  0  0  0  0  0  0  0  0  0
    4.0057    2.3122    4.0325 H   0  0  0  0  0  0  0  0  0  0  0  0
    2.1169    1.9646    5.6403 H   0  0  0  0  0  0  0  0  0  0  0  0
    0.5939    0.0209    5.3606 H   0  0  0  0  0  0  0  0  0  0  0  0
    0.1920   -2.1015    4.2030 H   0  0  0  0  0  0  0  0  0  0  0  0
    1.1221   -2.5621    2.8577 H   0  0  0  0  0  0  0  0  0  0  0  0
    4.4046   -2.5994   -1.7374 H   0  0  0  0  0  0  0  0  0  0  0  0
    3.5347   -4.5123   -3.0370 H   0  0  0  0  0  0  0  0  0  0  0  0
    1.3017   -5.4911   -2.4959 H   0  0  0  0  0  0  0  0  0  0  0  0
   -0.0508   -4.5115   -0.6372 H   0  0  0  0  0  0  0  0  0  0  0  0
    0.8199   -2.5712    0.6499 H   0  0  0  0  0  0  0  0  0  0  0  0
    4.9773    0.7681   -0.6698 H   0  0  0  0  0  0  0  0  0  0  0  0
    7.4232    0.7535   -0.5283 H   0  0  0  0  0  0  0  0  0  0  0  0
    8.6194   -1.1299    0.5921 H   0  0  0  0  0  0  0  0  0  0  0  0
    7.2962   -3.0095    1.5770 H   0  0  0  0  0  0  0  0  0  0  0  0
    4.8225   -2.9996    1.4265 H   0  0  0  0  0  0  0  0  0  0  0  0
  1  2  1  0
  1 32  1  0
  1 33  1  0
  1 34  1  0
  2  3  1  0
  2 11  1  0
  2 35  1  1
  3  4  1  0
  4  5  2  0
  4  9  1  0
  5  6  1  0
  5 36  1  0
  6  7  2  0
  6 37  1  0
  7  8  1  0
  7 38  1  0
  8  9  2  0
  8 39  1  0
  9 10  1  0
 10 40  1  0
 10 41  1  0
 11 12  1  1
 11 20  1  0
 11 26  1  0
 12 13  1  0
 13 14  2  0
 13 18  1  0
 14 15  1  0
 14 42  1  0
 15 16  2  0
 15 43  1  0
 16 17  1  0
 16 44  1  0
 17 18  2  0
 17 45  1  0
 18 19  1  0
 19 46  1  0
 19 47  1  0
 20 21  2  0
 20 25  1  0
 21 22  1  0
 21 48  1  0
 22 23  2  0
 22 49  1  0
 23 24  1  0
 23 50  1  0
 24 25  2  0
 24 51  1  0
 25 52  1  0
 26 27  2  0
 26 31  1  0
 27 28  1  0
 27 53  1  0
 28 29  2  0
 28 54  1  0
 29 30  1  0
 29 55  1  0
 30 31  2  0
 30 56  1  0
 31 57  1  0
M  END

