
     RDKit          3D

 37 39  0  0  0  0  0  0  0  0999 V2000
    2.6594    4.7463    0.0171 C   0  0  0  0  0  0  0  0  0  0  0  0
    3.7329    4.1314    0.6921 O   0  0  0  0  0  0  0  0  0  0  0  0
    3.5166    2.9776    1.3734 C   0  0  0  0  0  0  0  0  0  0  0  0
    2.2746    2.3357    1.4785 C   0  0  0  0  0  0  0  0  0  0  0  0
    2.1814    1.1423    2.2064 C   0  0  0  0  0  0  0  0  0  0  0  0
    3.2969    0.5859    2.8271 C   0  0  0  0  0  0  0  0  0  0  0  0
    4.5442    1.2294    2.7290 C   0  0  0  0  0  0  0  0  0  0  0  0
    5.7638    0.7073    3.4802 C   0  0  1  0  0  0  0  0  0  0  0  0
    5.7753    1.0363    4.9174 N   0  0  0  0  0  0  0  0  0  0  0  0
    5.9749   -0.7803    3.3443 C   0  0  0  0  0  0  0  0  0  0  0  0
    5.7614   -1.5577    2.3006 N   0  0  0  0  0  0  0  0  0  0  0  0
    6.1943   -2.7872    2.7204 C   0  0  0  0  0  0  0  0  0  0  0  0
    6.1460   -3.9914    1.8748 C   0  0  0  0  0  0  0  0  0  0  0  0
    5.6386   -3.9110    0.5672 C   0  0  0  0  0  0  0  0  0  0  0  0
    5.5899   -5.0488   -0.2407 C   0  0  0  0  0  0  0  0  0  0  0  0
    6.0459   -6.2783    0.2454 C   0  0  0  0  0  0  0  0  0  0  0  0
    6.5524   -6.3640    1.5475 C   0  0  0  0  0  0  0  0  0  0  0  0
    6.6030   -5.2300    2.3585 C   0  0  0  0  0  0  0  0  0  0  0  0
    6.6609   -2.7950    3.9685 N   0  0  0  0  0  0  0  0  0  0  0  0
    6.5133   -1.5151    4.3448 N   0  0  0  0  0  0  0  0  0  0  0  0
    6.7799   -1.1692    5.2606 H   0  0  0  0  0  0  0  0  0  0  0  0
    4.6421    2.4166    2.0032 C   0  0  0  0  0  0  0  0  0  0  0  0
    3.0654    5.6471   -0.4628 H   0  0  0  0  0  0  0  0  0  0  0  0
    1.8524    5.0447    0.7108 H   0  0  0  0  0  0  0  0  0  0  0  0
    2.2318    4.0890   -0.7616 H   0  0  0  0  0  0  0  0  0  0  0  0
    1.3854    2.7446    0.9986 H   0  0  0  0  0  0  0  0  0  0  0  0
    1.2140    0.6378    2.2763 H   0  0  0  0  0  0  0  0  0  0  0  0
    3.2060   -0.3594    3.3665 H   0  0  0  0  0  0  0  0  0  0  0  0
    6.6537    1.1915    3.0415 H   0  0  0  0  0  0  0  0  0  0  0  0
    4.8525    0.8470    5.3142 H   0  0  0  0  0  0  0  0  0  0  0  0
    5.9270    2.0372    5.0383 H   0  0  0  0  0  0  0  0  0  0  0  0
    5.2862   -2.9451    0.2008 H   0  0  0  0  0  0  0  0  0  0  0  0
    5.1935   -4.9755   -1.2569 H   0  0  0  0  0  0  0  0  0  0  0  0
    6.0074   -7.1684   -0.3883 H   0  0  0  0  0  0  0  0  0  0  0  0
    6.9105   -7.3225    1.9327 H   0  0  0  0  0  0  0  0  0  0  0  0
    6.9968   -5.2880    3.3751 H   0  0  0  0  0  0  0  0  0  0  0  0
    5.5971    2.9379    1.8984 H   0  0  0  0  0  0  0  0  0  0  0  0
  1  2  1  0
  1 23  1  0
  1 24  1  0
  1 25  1  0
  2  3  1  0
  3  4  2  0
  3 22  1  0
  4  5  1  0
  4 26  1  0
  5  6  2  0
  5 27  1  0
  6  7  1  0
  6 28  1  0
  7  8  1  0
  7 22  2  0
  8  9  1  0
  8 10  1  0
  8 29  1  6
  9 30  1  0
  9 31  1  0
 10 11  2  0
 10 20  1  0
 11 12  1  0
 12 13  1  0
 12 19  2  0
 13 14  2  0
 13 18  1  0
 14 15  1  0
 14 32  1  0
 15 16  2  0
 15 33  1  0
 16 17  1  0
 16 34  1  0
 17 18  2  0
 17 35  1  0
 18 36  1  0
 19 20  1  0
 20 21  1  0
 22 37  1  0
M  END

