
     RDKit          3D

 39 40  0  0  0  0  0  0  0  0999 V2000
    5.9439    1.3664    1.1533 C   0  0  0  0  0  0  0  0  0  0  0  0
    5.2575    0.6882    0.1140 O   0  0  0  0  0  0  0  0  0  0  0  0
    4.2746    1.3485   -0.5990 C   0  0  0  0  0  0  0  0  0  0  0  0
    3.8183    2.6239   -0.2600 C   0  0  0  0  0  0  0  0  0  0  0  0
    2.8068    3.2285   -1.0154 C   0  0  0  0  0  0  0  0  0  0  0  0
    2.2405    2.5831   -2.1177 C   0  0  0  0  0  0  0  0  0  0  0  0
    1.1578    3.2272   -2.9488 C   0  0  0  0  0  0  0  0  0  0  0  0
    2.7296    1.3058   -2.4412 C   0  0  0  0  0  0  0  0  0  0  0  0
    3.7327    0.6649   -1.7103 C   0  0  0  0  0  0  0  0  0  0  0  0
    4.2001   -0.7294   -2.1329 C   0  0  1  0  0  0  0  0  0  0  0  0
    5.6021   -0.8893   -2.0935 O   0  0  0  0  0  0  0  0  0  0  0  0
    3.4654   -1.8707   -1.4001 C   0  0  0  0  0  0  0  0  0  0  0  0
    3.6616   -1.8429    0.0310 N   0  0  0  0  0  0  0  0  0  0  0  0
    3.1202   -2.7373    0.9092 C   0  0  0  0  0  0  0  0  0  0  0  0
    2.2472   -3.7733    0.4938 C   0  0  0  0  0  0  0  0  0  0  0  0
    1.7046   -4.6579    1.4184 C   0  0  0  0  0  0  0  0  0  0  0  0
    2.0058   -4.5554    2.7900 C   0  0  0  0  0  0  0  0  0  0  0  0
    1.4432   -5.4697    3.7369 C   0  0  0  0  0  0  0  0  0  0  0  0
    0.9867   -6.2110    4.5079 N   0  0  0  0  0  0  0  0  0  0  0  0
    2.8789   -3.5272    3.2089 C   0  0  0  0  0  0  0  0  0  0  0  0
    3.4217   -2.6421    2.2932 C   0  0  0  0  0  0  0  0  0  0  0  0
    6.7100    0.6730    1.5247 H   0  0  0  0  0  0  0  0  0  0  0  0
    5.2641    1.6307    1.9809 H   0  0  0  0  0  0  0  0  0  0  0  0
    6.4332    2.2813    0.7792 H   0  0  0  0  0  0  0  0  0  0  0  0
    4.2351    3.1582    0.5934 H   0  0  0  0  0  0  0  0  0  0  0  0
    2.4602    4.2261   -0.7323 H   0  0  0  0  0  0  0  0  0  0  0  0
    0.8490    4.1954   -2.5284 H   0  0  0  0  0  0  0  0  0  0  0  0
    0.2627    2.5863   -3.0104 H   0  0  0  0  0  0  0  0  0  0  0  0
    1.4978    3.4049   -3.9832 H   0  0  0  0  0  0  0  0  0  0  0  0
    2.3140    0.7867   -3.3112 H   0  0  0  0  0  0  0  0  0  0  0  0
    3.9174   -0.8485   -3.1916 H   0  0  0  0  0  0  0  0  0  0  0  0
    5.9180   -0.4958   -1.2673 H   0  0  0  0  0  0  0  0  0  0  0  0
    3.8343   -2.8203   -1.8339 H   0  0  0  0  0  0  0  0  0  0  0  0
    2.3873   -1.8012   -1.6400 H   0  0  0  0  0  0  0  0  0  0  0  0
    4.3309   -1.1732    0.3931 H   0  0  0  0  0  0  0  0  0  0  0  0
    1.9942   -3.8875   -0.5604 H   0  0  0  0  0  0  0  0  0  0  0  0
    1.0339   -5.4490    1.0761 H   0  0  0  0  0  0  0  0  0  0  0  0
    3.1263   -3.4322    4.2684 H   0  0  0  0  0  0  0  0  0  0  0  0
    4.0942   -1.8513    2.6372 H   0  0  0  0  0  0  0  0  0  0  0  0
  1  2  1  0
  1 22  1  0
  1 23  1  0
  1 24  1  0
  2  3  1  0
  3  4  2  0
  3  9  1  0
  4  5  1  0
  4 25  1  0
  5  6  2  0
  5 26  1  0
  6  7  1  0
  6  8  1  0
  7 27  1  0
  7 28  1  0
  7 29  1  0
  8  9  2  0
  8 30  1  0
  9 10  1  0
 10 11  1  0
 10 12  1  0
 10 31  1  6
 11 32  1  0
 12 13  1  0
 12 33  1  0
 12 34  1  0
 13 14  1  0
 13 35  1  0
 14 15  2  0
 14 21  1  0
 15 16  1  0
 15 36  1  0
 16 17  2  0
 16 37  1  0
 17 18  1  0
 17 20  1  0
 18 19  3  0
 20 21  2  0
 20 38  1  0
 21 39  1  0
M  END

