
     RDKit          3D

 68 67  0  0  0  0  0  0  0  0999 V2000
    0.5979   -0.0128   -0.0378 S   0  0  0  0  0  0  0  0  0  0  0  0
    2.2526    0.0849   -0.1132 C   0  0  0  0  0  0  0  0  0  0  0  0
    3.1309    1.3310   -1.0581 S   0  0  0  0  0  0  0  0  0  0  0  0
    3.0767   -0.7685    0.5307 N   0  0  0  0  0  0  0  0  0  0  0  0
    4.5337   -0.7702    0.5285 C   0  0  0  0  0  0  0  0  0  0  0  0
    5.0787   -1.9077    1.3898 C   0  0  0  0  0  0  0  0  0  0  0  0
    6.6082   -1.9555    1.4215 C   0  0  0  0  0  0  0  0  0  0  0  0
    7.1660   -3.0929    2.2822 C   0  0  0  0  0  0  0  0  0  0  0  0
    8.6961   -3.1459    2.3172 C   0  0  0  0  0  0  0  0  0  0  0  0
    9.2564   -4.2828    3.1768 C   0  0  0  0  0  0  0  0  0  0  0  0
   10.7866   -4.3369    3.2122 C   0  0  0  0  0  0  0  0  0  0  0  0
   11.3475   -5.4739    4.0713 C   0  0  0  0  0  0  0  0  0  0  0  0
   12.8776   -5.5284    4.1067 C   0  0  0  0  0  0  0  0  0  0  0  0
   13.4388   -6.6654    4.9655 C   0  0  0  0  0  0  0  0  0  0  0  0
   14.9689   -6.7201    5.0009 C   0  0  0  0  0  0  0  0  0  0  0  0
   15.5302   -7.8571    5.8597 C   0  0  0  0  0  0  0  0  0  0  0  0
   17.0603   -7.9118    5.8952 C   0  0  0  0  0  0  0  0  0  0  0  0
   17.6215   -9.0487    6.7541 C   0  0  0  0  0  0  0  0  0  0  0  0
   19.1516   -9.1031    6.7898 C   0  0  0  0  0  0  0  0  0  0  0  0
   19.7125  -10.2399    7.6490 C   0  0  0  0  0  0  0  0  0  0  0  0
   21.2426  -10.2931    7.6848 C   0  0  0  0  0  0  0  0  0  0  0  0
   21.8032  -11.4306    8.5441 C   0  0  0  0  0  0  0  0  0  0  0  0
   23.3353  -11.4750    8.5796 C   0  0  0  0  0  0  0  0  0  0  0  0
   23.8814  -12.6203    9.4307 C   0  0  0  0  0  0  0  0  0  0  0  0
   25.7128  -12.6681    9.5768 S   0  0  0  0  0  0  0  0  0  0  0  0
    1.9935    1.9111   -1.4955 H   0  0  0  0  0  0  0  0  0  0  0  0
    2.5927   -1.4812    1.0699 H   0  0  0  0  0  0  0  0  0  0  0  0
    4.9088    0.1996    0.9049 H   0  0  0  0  0  0  0  0  0  0  0  0
    4.9056   -0.8717   -0.5079 H   0  0  0  0  0  0  0  0  0  0  0  0
    4.6859   -2.8676    1.0080 H   0  0  0  0  0  0  0  0  0  0  0  0
    4.6899   -1.7977    2.4185 H   0  0  0  0  0  0  0  0  0  0  0  0
    6.9963   -0.9901    1.7950 H   0  0  0  0  0  0  0  0  0  0  0  0
    6.9921   -2.0555    0.3897 H   0  0  0  0  0  0  0  0  0  0  0  0
    6.7753   -4.0577    1.9090 H   0  0  0  0  0  0  0  0  0  0  0  0
    6.7799   -2.9927    3.3135 H   0  0  0  0  0  0  0  0  0  0  0  0
    9.0859   -2.1803    2.6897 H   0  0  0  0  0  0  0  0  0  0  0  0
    9.0811   -3.2447    1.2852 H   0  0  0  0  0  0  0  0  0  0  0  0
    8.8658   -5.2481    2.8043 H   0  0  0  0  0  0  0  0  0  0  0  0
    8.8709   -4.1837    4.2087 H   0  0  0  0  0  0  0  0  0  0  0  0
   11.1770   -3.3714    3.5847 H   0  0  0  0  0  0  0  0  0  0  0  0
   11.1718   -4.4354    2.1801 H   0  0  0  0  0  0  0  0  0  0  0  0
   10.9568   -6.4392    3.6987 H   0  0  0  0  0  0  0  0  0  0  0  0
   10.9621   -5.3753    5.1033 H   0  0  0  0  0  0  0  0  0  0  0  0
   13.2683   -4.5630    4.4793 H   0  0  0  0  0  0  0  0  0  0  0  0
   13.2629   -5.6267    3.0745 H   0  0  0  0  0  0  0  0  0  0  0  0
   13.0480   -7.6308    4.5929 H   0  0  0  0  0  0  0  0  0  0  0  0
   13.0535   -6.5671    5.9976 H   0  0  0  0  0  0  0  0  0  0  0  0
   15.3597   -5.7547    5.3735 H   0  0  0  0  0  0  0  0  0  0  0  0
   15.3542   -6.8183    3.9688 H   0  0  0  0  0  0  0  0  0  0  0  0
   15.1394   -8.8225    5.4871 H   0  0  0  0  0  0  0  0  0  0  0  0
   15.1448   -7.7588    6.8918 H   0  0  0  0  0  0  0  0  0  0  0  0
   17.4510   -6.9464    6.2677 H   0  0  0  0  0  0  0  0  0  0  0  0
   17.4456   -8.0101    4.8631 H   0  0  0  0  0  0  0  0  0  0  0  0
   17.2309  -10.0142    6.3815 H   0  0  0  0  0  0  0  0  0  0  0  0
   17.2360   -8.9504    7.7862 H   0  0  0  0  0  0  0  0  0  0  0  0
   19.5422   -8.1377    7.1624 H   0  0  0  0  0  0  0  0  0  0  0  0
   19.5372   -9.2016    5.7578 H   0  0  0  0  0  0  0  0  0  0  0  0
   19.3225  -11.2055    7.2763 H   0  0  0  0  0  0  0  0  0  0  0  0
   19.3269  -10.1415    8.6810 H   0  0  0  0  0  0  0  0  0  0  0  0
   21.6332   -9.3284    8.0585 H   0  0  0  0  0  0  0  0  0  0  0  0
   21.6288  -10.3916    6.6532 H   0  0  0  0  0  0  0  0  0  0  0  0
   21.4155  -12.3962    8.1691 H   0  0  0  0  0  0  0  0  0  0  0  0
   21.4165  -11.3332    9.5756 H   0  0  0  0  0  0  0  0  0  0  0  0
   23.7324  -10.5202    8.9653 H   0  0  0  0  0  0  0  0  0  0  0  0
   23.7245  -11.5709    7.5496 H   0  0  0  0  0  0  0  0  0  0  0  0
   23.5230  -13.5955    9.0638 H   0  0  0  0  0  0  0  0  0  0  0  0
   23.5330  -12.5288   10.4725 H   0  0  0  0  0  0  0  0  0  0  0  0
   25.9687  -12.9083    8.2692 H   0  0  0  0  0  0  0  0  0  0  0  0
  1  2  2  0
  2  3  1  0
  2  4  1  0
  3 26  1  0
  4  5  1  0
  4 27  1  0
  5  6  1  0
  5 28  1  0
  5 29  1  0
  6  7  1  0
  6 30  1  0
  6 31  1  0
  7  8  1  0
  7 32  1  0
  7 33  1  0
  8  9  1  0
  8 34  1  0
  8 35  1  0
  9 10  1  0
  9 36  1  0
  9 37  1  0
 10 11  1  0
 10 38  1  0
 10 39  1  0
 11 12  1  0
 11 40  1  0
 11 41  1  0
 12 13  1  0
 12 42  1  0
 12 43  1  0
 13 14  1  0
 13 44  1  0
 13 45  1  0
 14 15  1  0
 14 46  1  0
 14 47  1  0
 15 16  1  0
 15 48  1  0
 15 49  1  0
 16 17  1  0
 16 50  1  0
 16 51  1  0
 17 18  1  0
 17 52  1  0
 17 53  1  0
 18 19  1  0
 18 54  1  0
 18 55  1  0
 19 20  1  0
 19 56  1  0
 19 57  1  0
 20 21  1  0
 20 58  1  0
 20 59  1  0
 21 22  1  0
 21 60  1  0
 21 61  1  0
 22 23  1  0
 22 62  1  0
 22 63  1  0
 23 24  1  0
 23 64  1  0
 23 65  1  0
 24 25  1  0
 24 66  1  0
 24 67  1  0
 25 68  1  0
M  END

