
     RDKit          3D

 92 92  0  0  0  0  0  0  0  0999 V2000
   16.3140    1.9077    9.4113 C   0  0  0  0  0  0  0  0  0  0  0  0
   15.4320    2.2262    8.2031 C   0  0  0  0  0  0  0  0  0  0  0  0
   16.2103    2.7708    7.0012 C   0  0  0  0  0  0  0  0  0  0  0  0
   15.3345    3.0924    5.7868 C   0  0  0  0  0  0  0  0  0  0  0  0
   16.1127    3.6378    4.5857 C   0  0  0  0  0  0  0  0  0  0  0  0
   15.2362    3.9601    3.3718 C   0  0  0  0  0  0  0  0  0  0  0  0
   16.0141    4.5071    2.1712 C   0  0  0  0  0  0  0  0  0  0  0  0
   15.1374    4.8306    0.9577 C   0  0  0  0  0  0  0  0  0  0  0  0
   15.9150    5.3799   -0.2420 C   0  0  0  0  0  0  0  0  0  0  0  0
   15.0381    5.7049   -1.4550 C   0  0  0  0  0  0  0  0  0  0  0  0
   15.8154    6.2571   -2.6536 C   0  0  0  0  0  0  0  0  0  0  0  0
   14.9384    6.5832   -3.8660 C   0  0  0  0  0  0  0  0  0  0  0  0
   15.7147    7.1405   -5.0632 C   0  0  0  0  0  0  0  0  0  0  0  0
   14.8270    7.4665   -6.2706 C   0  0  0  0  0  0  0  0  0  0  0  0
   15.5532    8.0989   -7.4659 C   0  0  0  0  0  0  0  0  0  0  0  0
   16.5334    7.1539   -8.1721 C   0  0  0  0  0  0  0  0  0  0  0  0
   17.1798    7.7494   -9.3502 N   0  0  0  0  0  0  0  0  0  0  0  0
   16.5323    7.6433  -10.5678 C   0  0  0  0  0  0  0  0  0  0  0  0
   15.4505    7.0838  -10.6605 O   0  0  0  0  0  0  0  0  0  0  0  0
   17.2368    8.2432  -11.7835 C   0  0  0  0  0  0  0  0  0  0  0  0
   16.5099    7.9465  -13.0939 C   0  0  0  0  0  0  0  0  0  0  0  0
   17.1901    8.5715  -14.3148 C   0  0  0  0  0  0  0  0  0  0  0  0
   16.4699    8.2794  -15.6345 C   0  0  0  0  0  0  0  0  0  0  0  0
   17.1410    8.9046  -16.8609 C   0  0  0  0  0  0  0  0  0  0  0  0
   16.4204    8.6123  -18.1802 C   0  0  0  0  0  0  0  0  0  0  0  0
   17.0904    9.2381  -19.4076 C   0  0  0  0  0  0  0  0  0  0  0  0
   16.3643    8.9414  -20.7205 C   0  0  0  0  0  0  0  0  0  0  0  0
   18.4175    8.4446   -9.1677 C   0  0  0  0  0  0  0  0  0  0  0  0
   18.4488    9.8405   -8.9999 C   0  0  0  0  0  0  0  0  0  0  0  0
   19.6520   10.5085   -8.7990 C   0  0  0  0  0  0  0  0  0  0  0  0
   20.8623    9.7938   -8.7505 C   0  0  0  0  0  0  0  0  0  0  0  0
   21.9827   10.5292   -8.5479 O   0  0  0  0  0  0  0  0  0  0  0  0
   23.2343    9.8826   -8.4863 C   0  0  0  0  0  0  0  0  0  0  0  0
   20.8431    8.3989   -8.9093 C   0  0  0  0  0  0  0  0  0  0  0  0
   19.6262    7.7410   -9.1170 C   0  0  0  0  0  0  0  0  0  0  0  0
   15.7218    1.5190   10.2553 H   0  0  0  0  0  0  0  0  0  0  0  0
   16.8481    2.8055    9.7657 H   0  0  0  0  0  0  0  0  0  0  0  0
   17.0760    1.1497    9.1630 H   0  0  0  0  0  0  0  0  0  0  0  0
   14.6570    2.9584    8.4949 H   0  0  0  0  0  0  0  0  0  0  0  0
   14.8828    1.3169    7.8973 H   0  0  0  0  0  0  0  0  0  0  0  0
   16.9862    2.0387    6.7082 H   0  0  0  0  0  0  0  0  0  0  0  0
   16.7602    3.6811    7.3061 H   0  0  0  0  0  0  0  0  0  0  0  0
   14.5585    3.8238    6.0807 H   0  0  0  0  0  0  0  0  0  0  0  0
   14.7851    2.1820    5.4823 H   0  0  0  0  0  0  0  0  0  0  0  0
   16.8885    2.9064    4.2913 H   0  0  0  0  0  0  0  0  0  0  0  0
   16.6623    4.5481    4.8903 H   0  0  0  0  0  0  0  0  0  0  0  0
   14.4599    4.6907    3.6665 H   0  0  0  0  0  0  0  0  0  0  0  0
   14.6872    3.0497    3.0664 H   0  0  0  0  0  0  0  0  0  0  0  0
   16.7901    3.7763    1.8759 H   0  0  0  0  0  0  0  0  0  0  0  0
   16.5635    5.4171    2.4769 H   0  0  0  0  0  0  0  0  0  0  0  0
   14.3607    5.5604    1.2535 H   0  0  0  0  0  0  0  0  0  0  0  0
   14.5890    3.9204    0.6510 H   0  0  0  0  0  0  0  0  0  0  0  0
   16.6914    4.6500   -0.5385 H   0  0  0  0  0  0  0  0  0  0  0  0
   16.4639    6.2898    0.0651 H   0  0  0  0  0  0  0  0  0  0  0  0
   14.2608    6.4335   -1.1580 H   0  0  0  0  0  0  0  0  0  0  0  0
   14.4904    4.7949   -1.7634 H   0  0  0  0  0  0  0  0  0  0  0  0
   16.5926    5.5283   -2.9509 H   0  0  0  0  0  0  0  0  0  0  0  0
   16.3633    7.1669   -2.3447 H   0  0  0  0  0  0  0  0  0  0  0  0
   14.1591    7.3093   -3.5679 H   0  0  0  0  0  0  0  0  0  0  0  0
   14.3930    5.6729   -4.1774 H   0  0  0  0  0  0  0  0  0  0  0  0
   16.4958    6.4135   -5.3504 H   0  0  0  0  0  0  0  0  0  0  0  0
   16.2558    8.0544   -4.7535 H   0  0  0  0  0  0  0  0  0  0  0  0
   14.0273    8.1547   -5.9440 H   0  0  0  0  0  0  0  0  0  0  0  0
   14.3096    6.5477   -6.6041 H   0  0  0  0  0  0  0  0  0  0  0  0
   16.0906    9.0055   -7.1336 H   0  0  0  0  0  0  0  0  0  0  0  0
   14.8084    8.4221   -8.2110 H   0  0  0  0  0  0  0  0  0  0  0  0
   15.9900    6.2604   -8.5135 H   0  0  0  0  0  0  0  0  0  0  0  0
   17.3317    6.8310   -7.4868 H   0  0  0  0  0  0  0  0  0  0  0  0
   18.2762    7.8737  -11.8178 H   0  0  0  0  0  0  0  0  0  0  0  0
   17.3307    9.3333  -11.6342 H   0  0  0  0  0  0  0  0  0  0  0  0
   15.4694    8.3026  -13.0154 H   0  0  0  0  0  0  0  0  0  0  0  0
   16.4312    6.8538  -13.2246 H   0  0  0  0  0  0  0  0  0  0  0  0
   18.2339    8.2106  -14.3823 H   0  0  0  0  0  0  0  0  0  0  0  0
   17.2638    9.6666  -14.1752 H   0  0  0  0  0  0  0  0  0  0  0  0
   15.4264    8.6387  -15.5657 H   0  0  0  0  0  0  0  0  0  0  0  0
   16.3984    7.1848  -15.7750 H   0  0  0  0  0  0  0  0  0  0  0  0
   18.1850    8.5450  -16.9286 H   0  0  0  0  0  0  0  0  0  0  0  0
   17.2120    9.9994  -16.7194 H   0  0  0  0  0  0  0  0  0  0  0  0
   15.3762    8.9715  -18.1130 H   0  0  0  0  0  0  0  0  0  0  0  0
   16.3496    7.5176  -18.3228 H   0  0  0  0  0  0  0  0  0  0  0  0
   18.1337    8.8786  -19.4737 H   0  0  0  0  0  0  0  0  0  0  0  0
   17.1606   10.3319  -19.2639 H   0  0  0  0  0  0  0  0  0  0  0  0
   16.3106    7.8565  -20.9128 H   0  0  0  0  0  0  0  0  0  0  0  0
   16.8731    9.4062  -21.5803 H   0  0  0  0  0  0  0  0  0  0  0  0
   15.3292    9.3222  -20.7012 H   0  0  0  0  0  0  0  0  0  0  0  0
   17.5122   10.4018   -9.0312 H   0  0  0  0  0  0  0  0  0  0  0  0
   19.6847   11.5922   -8.6707 H   0  0  0  0  0  0  0  0  0  0  0  0
   23.9838   10.6672   -8.3166 H   0  0  0  0  0  0  0  0  0  0  0  0
   23.4736    9.3581   -9.4291 H   0  0  0  0  0  0  0  0  0  0  0  0
   23.2822    9.1570   -7.6542 H   0  0  0  0  0  0  0  0  0  0  0  0
   21.7638    7.8163   -8.8772 H   0  0  0  0  0  0  0  0  0  0  0  0
   19.6137    6.6558   -9.2452 H   0  0  0  0  0  0  0  0  0  0  0  0
  1  2  1  0
  1 36  1  0
  1 37  1  0
  1 38  1  0
  2  3  1  0
  2 39  1  0
  2 40  1  0
  3  4  1  0
  3 41  1  0
  3 42  1  0
  4  5  1  0
  4 43  1  0
  4 44  1  0
  5  6  1  0
  5 45  1  0
  5 46  1  0
  6  7  1  0
  6 47  1  0
  6 48  1  0
  7  8  1  0
  7 49  1  0
  7 50  1  0
  8  9  1  0
  8 51  1  0
  8 52  1  0
  9 10  1  0
  9 53  1  0
  9 54  1  0
 10 11  1  0
 10 55  1  0
 10 56  1  0
 11 12  1  0
 11 57  1  0
 11 58  1  0
 12 13  1  0
 12 59  1  0
 12 60  1  0
 13 14  1  0
 13 61  1  0
 13 62  1  0
 14 15  1  0
 14 63  1  0
 14 64  1  0
 15 16  1  0
 15 65  1  0
 15 66  1  0
 16 17  1  0
 16 67  1  0
 16 68  1  0
 17 18  1  0
 17 28  1  0
 18 19  2  0
 18 20  1  0
 20 21  1  0
 20 69  1  0
 20 70  1  0
 21 22  1  0
 21 71  1  0
 21 72  1  0
 22 23  1  0
 22 73  1  0
 22 74  1  0
 23 24  1  0
 23 75  1  0
 23 76  1  0
 24 25  1  0
 24 77  1  0
 24 78  1  0
 25 26  1  0
 25 79  1  0
 25 80  1  0
 26 27  1  0
 26 81  1  0
 26 82  1  0
 27 83  1  0
 27 84  1  0
 27 85  1  0
 28 29  2  0
 28 35  1  0
 29 30  1  0
 29 86  1  0
 30 31  2  0
 30 87  1  0
 31 32  1  0
 31 34  1  0
 32 33  1  0
 33 88  1  0
 33 89  1  0
 33 90  1  0
 34 35  2  0
 34 91  1  0
 35 92  1  0
M  END

