
     RDKit          3D

 38 38  0  0  0  0  0  0  0  0999 V2000
    0.7075    0.4195   -0.9865 C   0  0  0  0  0  0  0  0  0  0  0  0
    2.2334    0.3970   -0.7691 C   0  0  1  0  0  0  0  0  0  0  0  0
    2.7945   -0.8978   -0.3817 N   0  0  0  0  0  0  0  0  0  0  0  0
    2.6779   -1.9511   -1.3877 C   0  0  0  0  0  0  0  0  0  0  0  0
    3.4451   -1.5455   -2.6462 C   0  0  0  0  0  0  0  0  0  0  0  0
    3.0202   -0.1539   -3.1376 C   0  0  0  0  0  0  0  0  0  0  0  0
    3.0070    0.9143   -2.0204 C   0  0  2  0  0  0  0  0  0  0  0  0
    4.4321    1.3550   -1.6664 C   0  0  0  0  0  0  0  0  0  0  0  0
    5.4101    0.6726   -1.9640 O   0  0  0  0  0  0  0  0  0  0  0  0
    4.6288    2.5549   -1.0100 N   0  0  0  0  0  0  0  0  0  0  0  0
    6.0152    3.0122   -0.8574 C   0  0  0  0  0  0  0  0  0  0  0  0
    6.7935    2.4856    0.3604 C   0  0  0  0  0  0  0  0  0  0  0  0
    6.5788    1.1601    0.6493 N   0  0  0  0  0  0  0  0  0  0  0  0
    7.5264    3.2079    1.0039 O   0  0  0  0  0  0  0  0  0  0  0  0
    3.5854    3.4645   -0.5639 C   0  0  0  0  0  0  0  0  0  0  0  0
    3.2764    3.5293    0.9453 C   0  0  0  0  0  0  0  0  0  0  0  0
    3.8358    2.5712    1.7298 N   0  0  0  0  0  0  0  0  0  0  0  0
    2.5313    4.3974    1.3578 O   0  0  0  0  0  0  0  0  0  0  0  0
    0.1936    0.0302   -0.0923 H   0  0  0  0  0  0  0  0  0  0  0  0
    0.3864   -0.1863   -1.8467 H   0  0  0  0  0  0  0  0  0  0  0  0
    0.3487    1.4486   -1.1506 H   0  0  0  0  0  0  0  0  0  0  0  0
    2.4395    1.0721    0.0746 H   0  0  0  0  0  0  0  0  0  0  0  0
    2.3967   -1.1974    0.5062 H   0  0  0  0  0  0  0  0  0  0  0  0
    1.6231   -2.1871   -1.6537 H   0  0  0  0  0  0  0  0  0  0  0  0
    3.1058   -2.8762   -0.9681 H   0  0  0  0  0  0  0  0  0  0  0  0
    3.2757   -2.2897   -3.4425 H   0  0  0  0  0  0  0  0  0  0  0  0
    4.5205   -1.5309   -2.4232 H   0  0  0  0  0  0  0  0  0  0  0  0
    2.0029   -0.2088   -3.5614 H   0  0  0  0  0  0  0  0  0  0  0  0
    3.6802    0.1760   -3.9541 H   0  0  0  0  0  0  0  0  0  0  0  0
    2.4686    1.7957   -2.4047 H   0  0  0  0  0  0  0  0  0  0  0  0
    6.0296    4.1069   -0.7836 H   0  0  0  0  0  0  0  0  0  0  0  0
    6.5798    2.7080   -1.7537 H   0  0  0  0  0  0  0  0  0  0  0  0
    6.2685    0.5562   -0.1143 H   0  0  0  0  0  0  0  0  0  0  0  0
    7.1992    0.7581    1.3461 H   0  0  0  0  0  0  0  0  0  0  0  0
    2.6330    3.2351   -1.0582 H   0  0  0  0  0  0  0  0  0  0  0  0
    3.8354    4.4959   -0.8599 H   0  0  0  0  0  0  0  0  0  0  0  0
    4.5326    1.9112    1.3930 H   0  0  0  0  0  0  0  0  0  0  0  0
    3.6783    2.6427    2.7292 H   0  0  0  0  0  0  0  0  0  0  0  0
  1  2  1  0
  1 19  1  0
  1 20  1  0
  1 21  1  0
  2  3  1  0
  2  7  1  0
  2 22  1  1
  3  4  1  0
  3 23  1  0
  4  5  1  0
  4 24  1  0
  4 25  1  0
  5  6  1  0
  5 26  1  0
  5 27  1  0
  6  7  1  0
  6 28  1  0
  6 29  1  0
  7  8  1  0
  7 30  1  6
  8  9  2  0
  8 10  1  0
 10 11  1  0
 10 15  1  0
 11 12  1  0
 11 31  1  0
 11 32  1  0
 12 13  1  0
 12 14  2  0
 13 33  1  0
 13 34  1  0
 15 16  1  0
 15 35  1  0
 15 36  1  0
 16 17  1  0
 16 18  2  0
 17 37  1  0
 17 38  1  0
M  END

