
     RDKit          3D

 37 39  0  0  0  0  0  0  0  0999 V2000
    2.0359    0.8703   -0.7986 C   0  0  0  0  0  0  0  0  0  0  0  0
    3.2251    0.2073   -0.1744 C   0  0  0  0  0  0  0  0  0  0  0  0
    3.5522   -1.0402   -0.3407 N   0  0  0  0  0  0  0  0  0  0  0  0
    4.6828   -1.3730    0.3594 C   0  0  0  0  0  0  0  0  0  0  0  0
    5.2609   -0.3721    1.0994 C   0  0  0  0  0  0  0  0  0  0  0  0
    6.5259   -0.4259    1.9184 C   0  0  0  0  0  0  0  0  0  0  0  0
    7.7513   -0.2085    1.1600 N   0  0  0  0  0  0  0  0  0  0  0  0
    8.3215   -1.2780    0.4858 C   0  0  0  0  0  0  0  0  0  0  0  0
    7.9565   -2.4333    0.6544 O   0  0  0  0  0  0  0  0  0  0  0  0
    9.3366   -0.9303   -0.3790 N   0  0  0  0  0  0  0  0  0  0  0  0
   10.1416   -1.9544   -1.0379 C   0  0  2  0  0  0  0  0  0  0  0  0
   11.3209   -2.4356   -0.1620 C   0  0  0  0  0  0  0  0  0  0  0  0
   12.3005   -1.3015    0.1988 C   0  0  0  0  0  0  0  0  0  0  0  0
   12.5785   -0.4473   -1.0077 C   0  0  0  0  0  0  0  0  0  0  0  0
   13.5498    0.5509   -1.2911 C   0  0  0  0  0  0  0  0  0  0  0  0
   13.3974    1.0548   -2.5121 N   0  0  0  0  0  0  0  0  0  0  0  0
   12.3405    0.4009   -3.0224 N   0  0  0  0  0  0  0  0  0  0  0  0
   12.0323    0.6152   -3.9632 H   0  0  0  0  0  0  0  0  0  0  0  0
   11.8100   -0.5116   -2.1624 C   0  0  0  0  0  0  0  0  0  0  0  0
   10.6484   -1.4280   -2.3977 C   0  0  0  0  0  0  0  0  0  0  0  0
    4.3209    1.0846    0.8923 S   0  0  0  0  0  0  0  0  0  0  0  0
    1.5171    0.1305   -1.4231 H   0  0  0  0  0  0  0  0  0  0  0  0
    2.3291    1.7248   -1.4300 H   0  0  0  0  0  0  0  0  0  0  0  0
    1.3327    1.2455   -0.0370 H   0  0  0  0  0  0  0  0  0  0  0  0
    5.0864   -2.3859    0.3044 H   0  0  0  0  0  0  0  0  0  0  0  0
    6.6095   -1.4252    2.3660 H   0  0  0  0  0  0  0  0  0  0  0  0
    6.4859    0.3063    2.7396 H   0  0  0  0  0  0  0  0  0  0  0  0
    7.8669    0.7124    0.7496 H   0  0  0  0  0  0  0  0  0  0  0  0
    9.7466   -0.0058   -0.2973 H   0  0  0  0  0  0  0  0  0  0  0  0
    9.4636   -2.8023   -1.2034 H   0  0  0  0  0  0  0  0  0  0  0  0
   11.8580   -3.2249   -0.7165 H   0  0  0  0  0  0  0  0  0  0  0  0
   10.9164   -2.9038    0.7482 H   0  0  0  0  0  0  0  0  0  0  0  0
   13.2329   -1.7264    0.6064 H   0  0  0  0  0  0  0  0  0  0  0  0
   11.8753   -0.6875    1.0145 H   0  0  0  0  0  0  0  0  0  0  0  0
   14.3540    0.9170   -0.6519 H   0  0  0  0  0  0  0  0  0  0  0  0
   10.9538   -2.2854   -3.0240 H   0  0  0  0  0  0  0  0  0  0  0  0
    9.8250   -0.9228   -2.9297 H   0  0  0  0  0  0  0  0  0  0  0  0
  1  2  1  0
  1 22  1  0
  1 23  1  0
  1 24  1  0
  2  3  2  0
  2 21  1  0
  3  4  1  0
  4  5  2  0
  4 25  1  0
  5  6  1  0
  5 21  1  0
  6  7  1  0
  6 26  1  0
  6 27  1  0
  7  8  1  0
  7 28  1  0
  8  9  2  0
  8 10  1  0
 10 11  1  0
 10 29  1  0
 11 12  1  0
 11 20  1  0
 11 30  1  6
 12 13  1  0
 12 31  1  0
 12 32  1  0
 13 14  1  0
 13 33  1  0
 13 34  1  0
 14 15  1  0
 14 19  2  0
 15 16  2  0
 15 35  1  0
 16 17  1  0
 17 18  1  0
 17 19  1  0
 19 20  1  0
 20 36  1  0
 20 37  1  0
M  END

