
     RDKit          3D

 44 45  0  0  0  0  0  0  0  0999 V2000
    3.2120    7.7146   -1.7705 C   0  0  0  0  0  0  0  0  0  0  0  0
    4.0270    6.9435   -2.6407 O   0  0  0  0  0  0  0  0  0  0  0  0
    4.0565    5.5981   -2.4963 C   0  0  0  0  0  0  0  0  0  0  0  0
    3.3915    4.8936   -1.4885 C   0  0  0  0  0  0  0  0  0  0  0  0
    3.4446    3.4890   -1.4345 C   0  0  0  0  0  0  0  0  0  0  0  0
    2.6733    2.7550   -0.3646 C   0  0  0  0  0  0  0  0  0  0  0  0
    1.2499    2.9889   -0.5088 O   0  0  0  0  0  0  0  0  0  0  0  0
    0.6854    3.9279    0.2558 C   0  0  0  0  0  0  0  0  0  0  0  0
    1.2382    4.5462    1.1318 O   0  0  0  0  0  0  0  0  0  0  0  0
   -0.7747    4.1301   -0.1434 C   0  0  0  0  0  0  0  0  0  0  0  0
   -1.3004    5.3369    0.4350 N   0  0  0  0  0  0  0  0  0  0  0  0
   -0.8577    6.6193    0.0359 C   0  0  0  0  0  0  0  0  0  0  0  0
   -0.1090    6.8350   -0.8924 O   0  0  0  0  0  0  0  0  0  0  0  0
   -1.4503    7.5043    0.8871 N   0  0  0  0  0  0  0  0  0  0  0  0
   -2.2014    6.8715    1.9700 C   0  0  2  0  0  0  0  0  0  0  0  0
   -3.6762    7.2938    1.9868 C   0  0  0  0  0  0  0  0  0  0  0  0
   -1.5305    7.0849    3.3370 C   0  0  0  0  0  0  0  0  0  0  0  0
   -2.0732    5.3840    1.5784 C   0  0  0  0  0  0  0  0  0  0  0  0
   -2.5507    4.4408    2.1627 O   0  0  0  0  0  0  0  0  0  0  0  0
    4.1939    2.7909   -2.3844 C   0  0  0  0  0  0  0  0  0  0  0  0
    4.8919    3.4896   -3.3762 C   0  0  0  0  0  0  0  0  0  0  0  0
    4.8258    4.8759   -3.4411 C   0  0  0  0  0  0  0  0  0  0  0  0
    5.4474    5.5244   -4.4902 O   0  0  0  0  0  0  0  0  0  0  0  0
    6.4883    6.3704   -4.2008 C   0  0  1  0  0  0  0  0  0  0  0  0
    7.5872    5.6539   -3.8506 F   0  0  0  0  0  0  0  0  0  0  0  0
    6.7719    7.0319   -5.3301 F   0  0  0  0  0  0  0  0  0  0  0  0
    3.2881    8.7518   -2.1222 H   0  0  0  0  0  0  0  0  0  0  0  0
    3.5755    7.6606   -0.7289 H   0  0  0  0  0  0  0  0  0  0  0  0
    2.1582    7.3928   -1.7976 H   0  0  0  0  0  0  0  0  0  0  0  0
    2.8069    5.4351   -0.7459 H   0  0  0  0  0  0  0  0  0  0  0  0
    2.9733    3.0737    0.6437 H   0  0  0  0  0  0  0  0  0  0  0  0
    2.8049    1.6696   -0.4614 H   0  0  0  0  0  0  0  0  0  0  0  0
   -1.3746    3.2843    0.2260 H   0  0  0  0  0  0  0  0  0  0  0  0
   -0.8412    4.1587   -1.2401 H   0  0  0  0  0  0  0  0  0  0  0  0
   -1.2096    8.4873    0.8566 H   0  0  0  0  0  0  0  0  0  0  0  0
   -3.7701    8.3542    2.2704 H   0  0  0  0  0  0  0  0  0  0  0  0
   -4.2301    6.6861    2.7171 H   0  0  0  0  0  0  0  0  0  0  0  0
   -4.1352    7.1569    0.9962 H   0  0  0  0  0  0  0  0  0  0  0  0
   -1.5692    8.1490    3.6209 H   0  0  0  0  0  0  0  0  0  0  0  0
   -0.4783    6.7642    3.3077 H   0  0  0  0  0  0  0  0  0  0  0  0
   -2.0532    6.4985    4.1067 H   0  0  0  0  0  0  0  0  0  0  0  0
    4.2364    1.6994   -2.3586 H   0  0  0  0  0  0  0  0  0  0  0  0
    5.4864    2.9696   -4.1294 H   0  0  0  0  0  0  0  0  0  0  0  0
    6.2605    7.0817   -3.3915 H   0  0  0  0  0  0  0  0  0  0  0  0
  1  2  1  0
  1 27  1  0
  1 28  1  0
  1 29  1  0
  2  3  1  0
  3  4  2  0
  3 22  1  0
  4  5  1  0
  4 30  1  0
  5  6  1  0
  5 20  2  0
  6  7  1  0
  6 31  1  0
  6 32  1  0
  7  8  1  0
  8  9  2  0
  8 10  1  0
 10 11  1  0
 10 33  1  0
 10 34  1  0
 11 12  1  0
 11 18  1  0
 12 13  2  0
 12 14  1  0
 14 15  1  0
 14 35  1  0
 15 16  1  1
 15 17  1  0
 15 18  1  0
 16 36  1  0
 16 37  1  0
 16 38  1  0
 17 39  1  0
 17 40  1  0
 17 41  1  0
 18 19  2  0
 20 21  1  0
 20 42  1  0
 21 22  2  0
 21 43  1  0
 22 23  1  0
 23 24  1  0
 24 25  1  0
 24 26  1  0
 24 44  1  1
M  END

