
     RDKit          3D

 71 73  0  0  0  0  0  0  0  0999 V2000
    5.4843   -2.8903   -0.6803 C   0  0  0  0  0  0  0  0  0  0  0  0
    5.3498   -1.7751    0.1696 O   0  0  0  0  0  0  0  0  0  0  0  0
    4.0284   -1.5027    0.5443 C   0  0  0  0  0  0  0  0  0  0  0  0
    4.0212   -0.2044    1.3723 C   0  0  1  0  0  0  0  0  0  0  0  0
    4.6532    1.0004    0.6494 C   0  0  0  0  0  0  0  0  0  0  0  0
    4.3200    1.1896   -0.8333 C   0  0  1  0  0  0  0  0  0  0  0  0
    2.8816    1.2891   -1.0714 N   0  0  0  0  0  0  0  0  0  0  0  0
    2.3131    0.9405   -2.2552 C   0  0  0  0  0  0  0  0  0  0  0  0
    2.9977    0.6125   -3.2302 O   0  0  0  0  0  0  0  0  0  0  0  0
    0.8134    0.9745   -2.3418 C   0  0  0  0  0  0  0  0  0  0  0  0
    0.2412    0.8534   -3.6183 C   0  0  0  0  0  0  0  0  0  0  0  0
   -1.1404    0.8724   -3.7860 C   0  0  0  0  0  0  0  0  0  0  0  0
   -2.0058    1.0047   -2.6823 C   0  0  0  0  0  0  0  0  0  0  0  0
   -3.4817    1.0259   -2.8592 C   0  0  0  0  0  0  0  0  0  0  0  0
   -4.1063    0.2306   -3.8393 C   0  0  0  0  0  0  0  0  0  0  0  0
   -5.4924    0.2500   -4.0049 C   0  0  0  0  0  0  0  0  0  0  0  0
   -6.2875    1.0670   -3.1956 C   0  0  0  0  0  0  0  0  0  0  0  0
   -5.6829    1.8636   -2.2185 C   0  0  0  0  0  0  0  0  0  0  0  0
   -4.2969    1.8423   -2.0518 C   0  0  0  0  0  0  0  0  0  0  0  0
   -1.4242    1.1125   -1.4047 C   0  0  0  0  0  0  0  0  0  0  0  0
   -0.0405    1.0971   -1.2325 C   0  0  0  0  0  0  0  0  0  0  0  0
    5.0756    2.4400   -1.3778 C   0  0  0  0  0  0  0  0  0  0  0  0
    5.6104    3.2446   -0.6237 O   0  0  0  0  0  0  0  0  0  0  0  0
    5.0837    2.5155   -2.7289 N   0  0  0  0  0  0  0  0  0  0  0  0
    5.6112    3.6341   -3.5314 C   0  0  1  0  0  0  0  0  0  0  0  0
    5.3663    3.2618   -5.0009 C   0  0  0  0  0  0  0  0  0  0  0  0
    4.8515    4.9312   -3.1906 C   0  0  0  0  0  0  0  0  0  0  0  0
    7.1324    3.8671   -3.2541 C   0  0  0  0  0  0  0  0  0  0  0  0
    8.0438    2.6738   -3.4291 C   0  0  0  0  0  0  0  0  0  0  0  0
    8.6482    2.3820   -4.6637 C   0  0  0  0  0  0  0  0  0  0  0  0
    9.4845    1.2739   -4.8260 C   0  0  0  0  0  0  0  0  0  0  0  0
    9.7221    0.4469   -3.7317 C   0  0  0  0  0  0  0  0  0  0  0  0
   10.5257   -0.6209   -3.8763 F   0  0  0  0  0  0  0  0  0  0  0  0
    9.1538    0.7090   -2.4876 C   0  0  0  0  0  0  0  0  0  0  0  0
    8.3205    1.8211   -2.3456 C   0  0  0  0  0  0  0  0  0  0  0  0
    2.6191    0.0758    1.9187 C   0  0  0  0  0  0  0  0  0  0  0  0
    1.9313    1.0205    1.6160 O   0  0  0  0  0  0  0  0  0  0  0  0
    2.1469   -0.8243    2.8020 O   0  0  0  0  0  0  0  0  0  0  0  0
    5.1252   -3.8205   -0.1962 H   0  0  0  0  0  0  0  0  0  0  0  0
    6.5523   -3.0032   -0.9131 H   0  0  0  0  0  0  0  0  0  0  0  0
    4.9258   -2.7536   -1.6266 H   0  0  0  0  0  0  0  0  0  0  0  0
    3.6098   -2.3458    1.1369 H   0  0  0  0  0  0  0  0  0  0  0  0
    3.3741   -1.3930   -0.3435 H   0  0  0  0  0  0  0  0  0  0  0  0
    4.6511   -0.4060    2.2591 H   0  0  0  0  0  0  0  0  0  0  0  0
    5.7436    0.8879    0.7089 H   0  0  0  0  0  0  0  0  0  0  0  0
    4.4179    1.9255    1.1951 H   0  0  0  0  0  0  0  0  0  0  0  0
    4.6826    0.3255   -1.4118 H   0  0  0  0  0  0  0  0  0  0  0  0
    2.3116    1.5854   -0.2830 H   0  0  0  0  0  0  0  0  0  0  0  0
    0.9098    0.7513   -4.4747 H   0  0  0  0  0  0  0  0  0  0  0  0
   -1.5573    0.8077   -4.7935 H   0  0  0  0  0  0  0  0  0  0  0  0
   -3.5004   -0.4306   -4.4631 H   0  0  0  0  0  0  0  0  0  0  0  0
   -5.9549   -0.3833   -4.7665 H   0  0  0  0  0  0  0  0  0  0  0  0
   -7.3726    1.0831   -3.3257 H   0  0  0  0  0  0  0  0  0  0  0  0
   -6.2936    2.5128   -1.5857 H   0  0  0  0  0  0  0  0  0  0  0  0
   -3.8366    2.4882   -1.3006 H   0  0  0  0  0  0  0  0  0  0  0  0
   -2.0658    1.1806   -0.5235 H   0  0  0  0  0  0  0  0  0  0  0  0
    0.3543    1.1570   -0.2159 H   0  0  0  0  0  0  0  0  0  0  0  0
    4.5493    1.7895   -3.2138 H   0  0  0  0  0  0  0  0  0  0  0  0
    4.2908    3.1101   -5.1856 H   0  0  0  0  0  0  0  0  0  0  0  0
    5.8931    2.3356   -5.2756 H   0  0  0  0  0  0  0  0  0  0  0  0
    5.7147    4.0675   -5.6647 H   0  0  0  0  0  0  0  0  0  0  0  0
    3.7777    4.8148   -3.4065 H   0  0  0  0  0  0  0  0  0  0  0  0
    5.2331    5.7722   -3.7911 H   0  0  0  0  0  0  0  0  0  0  0  0
    4.9692    5.1796   -2.1268 H   0  0  0  0  0  0  0  0  0  0  0  0
    7.2208    4.2407   -2.2249 H   0  0  0  0  0  0  0  0  0  0  0  0
    7.4560    4.6791   -3.9258 H   0  0  0  0  0  0  0  0  0  0  0  0
    8.4718    3.0397   -5.5191 H   0  0  0  0  0  0  0  0  0  0  0  0
    9.9581    1.0473   -5.7834 H   0  0  0  0  0  0  0  0  0  0  0  0
    9.3754    0.0480   -1.6470 H   0  0  0  0  0  0  0  0  0  0  0  0
    7.8854    2.0467   -1.3692 H   0  0  0  0  0  0  0  0  0  0  0  0
    2.8106   -1.5028    2.9935 H   0  0  0  0  0  0  0  0  0  0  0  0
  1  2  1  0
  1 39  1  0
  1 40  1  0
  1 41  1  0
  2  3  1  0
  3  4  1  0
  3 42  1  0
  3 43  1  0
  4  5  1  0
  4 36  1  0
  4 44  1  1
  5  6  1  0
  5 45  1  0
  5 46  1  0
  6  7  1  0
  6 22  1  0
  6 47  1  6
  7  8  1  0
  7 48  1  0
  8  9  2  0
  8 10  1  0
 10 11  2  0
 10 21  1  0
 11 12  1  0
 11 49  1  0
 12 13  2  0
 12 50  1  0
 13 14  1  0
 13 20  1  0
 14 15  2  0
 14 19  1  0
 15 16  1  0
 15 51  1  0
 16 17  2  0
 16 52  1  0
 17 18  1  0
 17 53  1  0
 18 19  2  0
 18 54  1  0
 19 55  1  0
 20 21  2  0
 20 56  1  0
 21 57  1  0
 22 23  2  0
 22 24  1  0
 25 24  1  1
 24 58  1  0
 25 26  1  0
 25 27  1  0
 25 28  1  0
 26 59  1  0
 26 60  1  0
 26 61  1  0
 27 62  1  0
 27 63  1  0
 27 64  1  0
 28 29  1  0
 28 65  1  0
 28 66  1  0
 29 30  2  0
 29 35  1  0
 30 31  1  0
 30 67  1  0
 31 32  2  0
 31 68  1  0
 32 33  1  0
 32 34  1  0
 34 35  2  0
 34 69  1  0
 35 70  1  0
 36 37  2  0
 36 38  1  0
 38 71  1  0
M  END

