
     RDKit          3D

 80 82  0  0  0  0  0  0  0  0999 V2000
   12.9649    6.0566   -0.2175 C   0  0  0  0  0  0  0  0  0  0  0  0
   12.3726    5.1487    0.6875 O   0  0  0  0  0  0  0  0  0  0  0  0
   11.2126    4.5392    0.3590 C   0  0  0  0  0  0  0  0  0  0  0  0
   10.6900    3.6516    1.3229 C   0  0  0  0  0  0  0  0  0  0  0  0
    9.5039    2.9733    1.0869 C   0  0  0  0  0  0  0  0  0  0  0  0
    8.8290    3.1850   -0.1253 C   0  0  0  0  0  0  0  0  0  0  0  0
    7.3410    2.2783   -0.4814 S   0  0  1  0  0  0  0  0  0  0  0  0
    6.9174    2.6158   -1.8436 O   0  0  0  0  0  0  0  0  0  0  0  0
    7.5265    0.8704   -0.0969 O   0  0  0  0  0  0  0  0  0  0  0  0
    6.1770    2.8749    0.6521 N   0  0  0  0  0  0  0  0  0  0  0  0
    5.3971    1.8127    1.2898 C   0  0  0  0  0  0  0  0  0  0  0  0
    6.1906    1.0862    2.3957 C   0  0  0  0  0  0  0  0  0  0  0  0
    7.1042    1.6627    2.9717 O   0  0  0  0  0  0  0  0  0  0  0  0
    5.8053   -0.1813    2.7675 N   0  0  0  0  0  0  0  0  0  0  0  0
    6.7221   -0.8950    3.6849 C   0  0  0  0  0  0  0  0  0  0  0  0
    6.4513   -0.7669    5.1756 C   0  0  0  0  0  0  0  0  0  0  0  0
    6.3281    0.4850    5.8041 C   0  0  0  0  0  0  0  0  0  0  0  0
    6.1306    0.5555    7.1841 C   0  0  0  0  0  0  0  0  0  0  0  0
    6.0701   -0.6096    7.9564 C   0  0  0  0  0  0  0  0  0  0  0  0
    6.2062   -1.8691    7.3569 C   0  0  0  0  0  0  0  0  0  0  0  0
    6.1513   -3.1403    8.1701 C   0  0  0  0  0  0  0  0  0  0  0  0
    6.3901   -1.9228    5.9647 C   0  0  0  0  0  0  0  0  0  0  0  0
    4.8476   -0.9981    1.9974 C   0  0  1  0  0  0  0  0  0  0  0  0
    5.5179   -1.9278    0.9835 C   0  0  0  0  0  0  0  0  0  0  0  0
    3.8108   -1.7477    2.8772 C   0  0  0  0  0  0  0  0  0  0  0  0
    3.3566   -2.8193    2.5043 O   0  0  0  0  0  0  0  0  0  0  0  0
    3.3871   -1.0726    3.9752 N   0  0  0  0  0  0  0  0  0  0  0  0
    2.2838   -1.4864    4.8741 C   0  0  1  0  0  0  0  0  0  0  0  0
    2.5919   -2.8534    5.5129 C   0  0  0  0  0  0  0  0  0  0  0  0
    2.1835   -0.4099    5.9648 C   0  0  0  0  0  0  0  0  0  0  0  0
    0.9680   -1.5533    4.0766 C   0  0  0  0  0  0  0  0  0  0  0  0
    5.4901    4.0751    0.2672 C   0  0  0  0  0  0  0  0  0  0  0  0
    4.3485    4.0131   -0.5489 C   0  0  0  0  0  0  0  0  0  0  0  0
    3.6679    5.1672   -0.9337 C   0  0  0  0  0  0  0  0  0  0  0  0
    4.1416    6.4159   -0.5182 C   0  0  0  0  0  0  0  0  0  0  0  0
    5.2786    6.4966    0.2842 C   0  0  0  0  0  0  0  0  0  0  0  0
    5.9626    5.3396    0.6895 C   0  0  0  0  0  0  0  0  0  0  0  0
    7.0952    5.5023    1.4252 O   0  0  0  0  0  0  0  0  0  0  0  0
    7.0734    5.0724    2.7845 C   0  0  0  0  0  0  0  0  0  0  0  0
    9.3324    4.0556   -1.0900 C   0  0  0  0  0  0  0  0  0  0  0  0
   10.5278    4.7382   -0.8510 C   0  0  0  0  0  0  0  0  0  0  0  0
   13.8831    6.4200    0.2625 H   0  0  0  0  0  0  0  0  0  0  0  0
   12.3041    6.9167   -0.4256 H   0  0  0  0  0  0  0  0  0  0  0  0
   13.2288    5.5689   -1.1728 H   0  0  0  0  0  0  0  0  0  0  0  0
   11.2438    3.5160    2.2538 H   0  0  0  0  0  0  0  0  0  0  0  0
    9.0854    2.2995    1.8367 H   0  0  0  0  0  0  0  0  0  0  0  0
    4.9945    1.1082    0.5500 H   0  0  0  0  0  0  0  0  0  0  0  0
    4.5365    2.2992    1.7759 H   0  0  0  0  0  0  0  0  0  0  0  0
    7.7374   -0.5246    3.4774 H   0  0  0  0  0  0  0  0  0  0  0  0
    6.6977   -1.9580    3.4119 H   0  0  0  0  0  0  0  0  0  0  0  0
    6.4180    1.3953    5.2101 H   0  0  0  0  0  0  0  0  0  0  0  0
    6.0377    1.5315    7.6684 H   0  0  0  0  0  0  0  0  0  0  0  0
    5.9233   -0.5392    9.0379 H   0  0  0  0  0  0  0  0  0  0  0  0
    6.0479   -2.9291    9.2446 H   0  0  0  0  0  0  0  0  0  0  0  0
    7.0632   -3.7443    8.0309 H   0  0  0  0  0  0  0  0  0  0  0  0
    5.2995   -3.7733    7.8689 H   0  0  0  0  0  0  0  0  0  0  0  0
    6.4883   -2.9013    5.4830 H   0  0  0  0  0  0  0  0  0  0  0  0
    4.2098   -0.2994    1.4398 H   0  0  0  0  0  0  0  0  0  0  0  0
    6.1222   -2.7036    1.4769 H   0  0  0  0  0  0  0  0  0  0  0  0
    6.1673   -1.3445    0.3144 H   0  0  0  0  0  0  0  0  0  0  0  0
    4.7480   -2.4472    0.3984 H   0  0  0  0  0  0  0  0  0  0  0  0
    3.9079   -0.2404    4.2292 H   0  0  0  0  0  0  0  0  0  0  0  0
    3.5239   -2.8033    6.0961 H   0  0  0  0  0  0  0  0  0  0  0  0
    2.7013   -3.6239    4.7382 H   0  0  0  0  0  0  0  0  0  0  0  0
    1.7744   -3.1468    6.1905 H   0  0  0  0  0  0  0  0  0  0  0  0
    3.1209   -0.3355    6.5389 H   0  0  0  0  0  0  0  0  0  0  0  0
    1.3727   -0.6562    6.6665 H   0  0  0  0  0  0  0  0  0  0  0  0
    1.9613    0.5783    5.5285 H   0  0  0  0  0  0  0  0  0  0  0  0
    1.0441   -2.2933    3.2683 H   0  0  0  0  0  0  0  0  0  0  0  0
    0.7315   -0.5721    3.6343 H   0  0  0  0  0  0  0  0  0  0  0  0
    0.1355   -1.8408    4.7381 H   0  0  0  0  0  0  0  0  0  0  0  0
    4.0104    3.0372   -0.9029 H   0  0  0  0  0  0  0  0  0  0  0  0
    2.7836    5.0930   -1.5707 H   0  0  0  0  0  0  0  0  0  0  0  0
    3.6243    7.3299   -0.8211 H   0  0  0  0  0  0  0  0  0  0  0  0
    5.6719    7.4585    0.6197 H   0  0  0  0  0  0  0  0  0  0  0  0
    8.0306    5.3879    3.2221 H   0  0  0  0  0  0  0  0  0  0  0  0
    6.9845    3.9791    2.8678 H   0  0  0  0  0  0  0  0  0  0  0  0
    6.2513    5.5657    3.3352 H   0  0  0  0  0  0  0  0  0  0  0  0
    8.7888    4.1943   -2.0256 H   0  0  0  0  0  0  0  0  0  0  0  0
   10.9120    5.4174   -1.6116 H   0  0  0  0  0  0  0  0  0  0  0  0
  1  2  1  0
  1 42  1  0
  1 43  1  0
  1 44  1  0
  2  3  1  0
  3  4  2  0
  3 41  1  0
  4  5  1  0
  4 45  1  0
  5  6  2  0
  5 46  1  0
  6  7  1  0
  6 40  1  0
  7  8  2  0
  7  9  2  0
  7 10  1  1
 10 11  1  0
 10 32  1  0
 11 12  1  0
 11 47  1  0
 11 48  1  0
 12 13  2  0
 12 14  1  0
 14 15  1  0
 14 23  1  0
 15 16  1  0
 15 49  1  0
 15 50  1  0
 16 17  2  0
 16 22  1  0
 17 18  1  0
 17 51  1  0
 18 19  2  0
 18 52  1  0
 19 20  1  0
 19 53  1  0
 20 21  1  0
 20 22  2  0
 21 54  1  0
 21 55  1  0
 21 56  1  0
 22 57  1  0
 23 24  1  0
 23 25  1  0
 23 58  1  6
 24 59  1  0
 24 60  1  0
 24 61  1  0
 25 26  2  0
 25 27  1  0
 28 27  1  6
 27 62  1  0
 28 29  1  0
 28 30  1  0
 28 31  1  0
 29 63  1  0
 29 64  1  0
 29 65  1  0
 30 66  1  0
 30 67  1  0
 30 68  1  0
 31 69  1  0
 31 70  1  0
 31 71  1  0
 32 33  2  0
 32 37  1  0
 33 34  1  0
 33 72  1  0
 34 35  2  0
 34 73  1  0
 35 36  1  0
 35 74  1  0
 36 37  2  0
 36 75  1  0
 37 38  1  0
 38 39  1  0
 39 76  1  0
 39 77  1  0
 39 78  1  0
 40 41  2  0
 40 79  1  0
 41 80  1  0
M  END

