
     RDKit          3D

 45 46  0  0  0  0  0  0  0  0999 V2000
    2.6175    6.3571    0.7080 C   0  0  0  0  0  0  0  0  0  0  0  0
    3.3061    5.4263   -0.2909 C   0  0  0  0  0  0  0  0  0  0  0  0
    3.7457    4.0623    0.2963 C   0  0  1  0  0  0  0  0  0  0  0  0
    2.5714    3.1940    0.7622 C   0  0  0  0  0  0  0  0  0  0  0  0
    4.5395    3.3147   -0.7773 C   0  0  0  0  0  0  0  0  0  0  0  0
    4.0209    2.7343   -1.7012 O   0  0  0  0  0  0  0  0  0  0  0  0
    5.9295    3.4043   -0.6216 N   0  0  0  0  0  0  0  0  0  0  0  0
    6.8554    2.8411   -1.4874 C   0  0  0  0  0  0  0  0  0  0  0  0
    6.8137    1.6253   -1.9305 N   0  0  0  0  0  0  0  0  0  0  0  0
    7.7920    1.3467   -2.8247 N   0  0  0  0  0  0  0  0  0  0  0  0
    8.6103    2.3400   -3.0552 C   0  0  0  0  0  0  0  0  0  0  0  0
    9.9806    2.3053   -4.1466 S   0  0  0  0  0  0  0  0  0  0  0  0
    9.8949    0.5740   -4.7762 C   0  0  0  0  0  0  0  0  0  0  0  0
    8.8961    0.3685   -5.9299 C   0  0  0  0  0  0  0  0  0  0  0  0
    9.2854    0.3150   -7.0824 O   0  0  0  0  0  0  0  0  0  0  0  0
    7.6036    0.2577   -5.5062 N   0  0  0  0  0  0  0  0  0  0  0  0
    6.4189    0.1946   -6.2660 C   0  0  0  0  0  0  0  0  0  0  0  0
    6.3978    0.0358   -7.6583 C   0  0  0  0  0  0  0  0  0  0  0  0
    5.1567   -0.0020   -8.3071 C   0  0  0  0  0  0  0  0  0  0  0  0
    3.9590    0.1137   -7.6090 C   0  0  0  0  0  0  0  0  0  0  0  0
    3.9859    0.2744   -6.2109 C   0  0  0  0  0  0  0  0  0  0  0  0
    2.7850    0.3912   -5.5928 O   0  0  0  0  0  0  0  0  0  0  0  0
    2.7401    0.5194   -4.1854 C   0  0  0  0  0  0  0  0  0  0  0  0
    5.2139    0.3117   -5.5420 C   0  0  0  0  0  0  0  0  0  0  0  0
    8.1965    3.7927   -2.1629 S   0  0  0  0  0  0  0  0  0  0  0  0
    2.3845    7.3254    0.2381 H   0  0  0  0  0  0  0  0  0  0  0  0
    3.2598    6.5583    1.5820 H   0  0  0  0  0  0  0  0  0  0  0  0
    1.6697    5.9384    1.0798 H   0  0  0  0  0  0  0  0  0  0  0  0
    4.1963    5.9353   -0.7016 H   0  0  0  0  0  0  0  0  0  0  0  0
    2.6446    5.2318   -1.1522 H   0  0  0  0  0  0  0  0  0  0  0  0
    4.4100    4.2581    1.1585 H   0  0  0  0  0  0  0  0  0  0  0  0
    1.9162    2.9563   -0.0890 H   0  0  0  0  0  0  0  0  0  0  0  0
    1.9786    3.7071    1.5331 H   0  0  0  0  0  0  0  0  0  0  0  0
    2.9257    2.2426    1.1882 H   0  0  0  0  0  0  0  0  0  0  0  0
    6.2823    3.9732    0.1399 H   0  0  0  0  0  0  0  0  0  0  0  0
    9.7048   -0.0898   -3.9206 H   0  0  0  0  0  0  0  0  0  0  0  0
   10.9003    0.3924   -5.1764 H   0  0  0  0  0  0  0  0  0  0  0  0
    7.4717    0.3636   -4.4970 H   0  0  0  0  0  0  0  0  0  0  0  0
    7.3320   -0.0477   -8.2078 H   0  0  0  0  0  0  0  0  0  0  0  0
    5.1318   -0.1259   -9.3932 H   0  0  0  0  0  0  0  0  0  0  0  0
    2.9916    0.0853   -8.1135 H   0  0  0  0  0  0  0  0  0  0  0  0
    1.6780    0.5975   -3.9158 H   0  0  0  0  0  0  0  0  0  0  0  0
    3.2674    1.4177   -3.8225 H   0  0  0  0  0  0  0  0  0  0  0  0
    3.1707   -0.3656   -3.6826 H   0  0  0  0  0  0  0  0  0  0  0  0
    5.2565    0.4495   -4.4609 H   0  0  0  0  0  0  0  0  0  0  0  0
  1  2  1  0
  1 26  1  0
  1 27  1  0
  1 28  1  0
  2  3  1  0
  2 29  1  0
  2 30  1  0
  3  4  1  0
  3  5  1  0
  3 31  1  1
  4 32  1  0
  4 33  1  0
  4 34  1  0
  5  6  2  0
  5  7  1  0
  7  8  1  0
  7 35  1  0
  8  9  2  0
  8 25  1  0
  9 10  1  0
 10 11  2  0
 11 12  1  0
 11 25  1  0
 12 13  1  0
 13 14  1  0
 13 36  1  0
 13 37  1  0
 14 15  2  0
 14 16  1  0
 16 17  1  0
 16 38  1  0
 17 18  2  0
 17 24  1  0
 18 19  1  0
 18 39  1  0
 19 20  2  0
 19 40  1  0
 20 21  1  0
 20 41  1  0
 21 22  1  0
 21 24  2  0
 22 23  1  0
 23 42  1  0
 23 43  1  0
 23 44  1  0
 24 45  1  0
M  END

