
     RDKit          3D

 43 45  0  0  0  0  0  0  0  0999 V2000
    1.1224    0.0668   -0.5090 Br  0  0  0  0  0  0  0  0  0  0  0  0
    3.0151    0.0519   -0.3722 C   0  0  0  0  0  0  0  0  0  0  0  0
    3.7417   -1.1428   -0.3198 C   0  0  0  0  0  0  0  0  0  0  0  0
    5.0631   -1.1592   -0.2216 N   0  0  0  0  0  0  0  0  0  0  0  0
    5.7011    0.0307   -0.1768 C   0  0  0  0  0  0  0  0  0  0  0  0
    7.0657    0.0200   -0.0958 N   0  0  0  0  0  0  0  0  0  0  0  0
    7.8297   -1.2175    0.0258 C   0  0  0  0  0  0  0  0  0  0  0  0
    9.0310   -1.1932   -0.9331 C   0  0  0  0  0  0  0  0  0  0  0  0
    9.8676   -0.0021   -0.7970 N   0  0  0  0  0  0  0  0  0  0  0  0
   10.8065   -0.0046    0.3215 C   0  0  0  0  0  0  0  0  0  0  0  0
   11.9505   -1.0199    0.1652 C   0  0  0  0  0  0  0  0  0  0  0  0
   12.6905   -0.9821   -1.1767 C   0  0  0  0  0  0  0  0  0  0  0  0
   13.3185    0.3766   -1.4971 C   0  0  0  0  0  0  0  0  0  0  0  0
   14.1372    0.3457   -2.7015 N   0  0  0  0  0  0  0  0  0  0  0  0
   13.8199    0.8240   -3.9348 C   0  0  0  0  0  0  0  0  0  0  0  0
   14.8915    0.5058   -4.7549 C   0  0  0  0  0  0  0  0  0  0  0  0
   15.0784    0.9063   -6.5846 Br  0  0  0  0  0  0  0  0  0  0  0  0
   15.8082   -0.1709   -3.9176 C   0  0  0  0  0  0  0  0  0  0  0  0
   15.3326   -0.2609   -2.6787 N   0  0  0  0  0  0  0  0  0  0  0  0
    9.0492    1.1998   -0.9261 C   0  0  0  0  0  0  0  0  0  0  0  0
    7.8485    1.2446    0.0326 C   0  0  0  0  0  0  0  0  0  0  0  0
    5.0814    1.2305   -0.2138 N   0  0  0  0  0  0  0  0  0  0  0  0
    3.7598    1.2348   -0.3119 C   0  0  0  0  0  0  0  0  0  0  0  0
    3.2277   -2.1104   -0.3571 H   0  0  0  0  0  0  0  0  0  0  0  0
    7.1657   -2.0606   -0.1969 H   0  0  0  0  0  0  0  0  0  0  0  0
    8.1758   -1.3349    1.0720 H   0  0  0  0  0  0  0  0  0  0  0  0
    8.6504   -1.2296   -1.9696 H   0  0  0  0  0  0  0  0  0  0  0  0
    9.6392   -2.0978   -0.7834 H   0  0  0  0  0  0  0  0  0  0  0  0
   10.3250   -0.1789    1.3091 H   0  0  0  0  0  0  0  0  0  0  0  0
   11.2327    1.0110    0.3818 H   0  0  0  0  0  0  0  0  0  0  0  0
   11.5707   -2.0434    0.3241 H   0  0  0  0  0  0  0  0  0  0  0  0
   12.6621   -0.8443    0.9917 H   0  0  0  0  0  0  0  0  0  0  0  0
   12.0007   -1.2499   -1.9931 H   0  0  0  0  0  0  0  0  0  0  0  0
   13.4950   -1.7347   -1.1704 H   0  0  0  0  0  0  0  0  0  0  0  0
   13.9649    0.7108   -0.6695 H   0  0  0  0  0  0  0  0  0  0  0  0
   12.5427    1.1396   -1.6537 H   0  0  0  0  0  0  0  0  0  0  0  0
   12.8871    1.3434   -4.1403 H   0  0  0  0  0  0  0  0  0  0  0  0
   16.7833   -0.5818   -4.1754 H   0  0  0  0  0  0  0  0  0  0  0  0
    8.6658    1.2469   -1.9617 H   0  0  0  0  0  0  0  0  0  0  0  0
    9.6796    2.0901   -0.7695 H   0  0  0  0  0  0  0  0  0  0  0  0
    7.1983    2.0993   -0.1873 H   0  0  0  0  0  0  0  0  0  0  0  0
    8.1985    1.3516    1.0787 H   0  0  0  0  0  0  0  0  0  0  0  0
    3.2607    2.2105   -0.3428 H   0  0  0  0  0  0  0  0  0  0  0  0
  1  2  1  0
  2  3  2  0
  2 23  1  0
  3  4  1  0
  3 24  1  0
  4  5  2  0
  5  6  1  0
  5 22  1  0
  6  7  1  0
  6 21  1  0
  7  8  1  0
  7 25  1  0
  7 26  1  0
  8  9  1  0
  8 27  1  0
  8 28  1  0
  9 10  1  0
  9 20  1  0
 10 11  1  0
 10 29  1  0
 10 30  1  0
 11 12  1  0
 11 31  1  0
 11 32  1  0
 12 13  1  0
 12 33  1  0
 12 34  1  0
 13 14  1  0
 13 35  1  0
 13 36  1  0
 14 15  1  0
 14 19  1  0
 15 16  2  0
 15 37  1  0
 16 17  1  0
 16 18  1  0
 18 19  2  0
 18 38  1  0
 20 21  1  0
 20 39  1  0
 20 40  1  0
 21 41  1  0
 21 42  1  0
 22 23  2  0
 23 43  1  0
M  END

