
     RDKit          3D

 58 60  0  0  0  0  0  0  0  0999 V2000
   10.5246    1.2459   -4.2156 C   0  0  0  0  0  0  0  0  0  0  0  0
    9.0786    1.6160   -4.0227 C   0  0  0  0  0  0  0  0  0  0  0  0
    8.5151    1.7285   -2.7489 C   0  0  0  0  0  0  0  0  0  0  0  0
    7.1579    2.0841   -2.6994 C   0  0  0  0  0  0  0  0  0  0  0  0
    6.4323    2.2314   -1.5186 N   0  0  0  0  0  0  0  0  0  0  0  0
    6.9889    2.5954    0.0441 S   0  0  1  0  0  0  0  0  0  0  0  0
    5.7807    2.5105    0.8580 O   0  0  0  0  0  0  0  0  0  0  0  0
    8.1698    1.7709    0.2941 O   0  0  0  0  0  0  0  0  0  0  0  0
    7.5102    4.3032   -0.0106 C   0  0  0  0  0  0  0  0  0  0  0  0
    6.5544    5.3178    0.1169 C   0  0  0  0  0  0  0  0  0  0  0  0
    6.9377    6.6551    0.0652 C   0  0  0  0  0  0  0  0  0  0  0  0
    8.2985    6.9874   -0.1095 C   0  0  0  0  0  0  0  0  0  0  0  0
    8.7629    8.3028   -0.1726 N   0  0  0  0  0  0  0  0  0  0  0  0
    8.0460    9.4922   -0.0970 C   0  0  0  0  0  0  0  0  0  0  0  0
    6.8352    9.5346    0.0464 O   0  0  0  0  0  0  0  0  0  0  0  0
    8.9017   10.7016   -0.2088 C   0  0  0  0  0  0  0  0  0  0  0  0
    8.3435   11.9285   -0.1524 C   0  0  0  0  0  0  0  0  0  0  0  0
    9.0034   13.2301   -0.2423 C   0  0  0  0  0  0  0  0  0  0  0  0
   10.3932   13.3904   -0.4137 C   0  0  0  0  0  0  0  0  0  0  0  0
   10.9623   14.6586   -0.4923 C   0  0  0  0  0  0  0  0  0  0  0  0
   10.1792   15.8235   -0.4045 C   0  0  0  0  0  0  0  0  0  0  0  0
   10.8195   17.2017   -0.4927 C   0  0  1  0  0  0  0  0  0  0  0  0
   10.3201   17.9890   -1.7170 C   0  0  0  0  0  0  0  0  0  0  0  0
   10.6306   18.0064    0.8053 C   0  0  0  0  0  0  0  0  0  0  0  0
    8.7937   15.6648   -0.2336 C   0  0  0  0  0  0  0  0  0  0  0  0
    8.2190   14.3981   -0.1544 C   0  0  0  0  0  0  0  0  0  0  0  0
    9.2501    5.9518   -0.2188 C   0  0  0  0  0  0  0  0  0  0  0  0
    8.8641    4.6168   -0.1681 C   0  0  0  0  0  0  0  0  0  0  0  0
    6.4401    2.2842   -3.8095 N   0  0  0  0  0  0  0  0  0  0  0  0
    7.0665    2.1366   -4.9824 C   0  0  0  0  0  0  0  0  0  0  0  0
    6.2564    2.3428   -6.2341 C   0  0  0  0  0  0  0  0  0  0  0  0
    8.3567    1.8235   -5.1348 N   0  0  0  0  0  0  0  0  0  0  0  0
   11.0430    1.0810   -3.2609 H   0  0  0  0  0  0  0  0  0  0  0  0
   11.0426    2.0416   -4.7749 H   0  0  0  0  0  0  0  0  0  0  0  0
   10.5981    0.3327   -4.8273 H   0  0  0  0  0  0  0  0  0  0  0  0
    9.0799    1.5219   -1.8421 H   0  0  0  0  0  0  0  0  0  0  0  0
    5.4532    2.4734   -1.6622 H   0  0  0  0  0  0  0  0  0  0  0  0
    5.5056    5.0586    0.2743 H   0  0  0  0  0  0  0  0  0  0  0  0
    6.2059    7.4527    0.1647 H   0  0  0  0  0  0  0  0  0  0  0  0
    9.7645    8.3979   -0.2932 H   0  0  0  0  0  0  0  0  0  0  0  0
    9.9807   10.5691   -0.3362 H   0  0  0  0  0  0  0  0  0  0  0  0
    7.2555   11.9459   -0.0223 H   0  0  0  0  0  0  0  0  0  0  0  0
   11.0405   12.5136   -0.4872 H   0  0  0  0  0  0  0  0  0  0  0  0
   12.0439   14.7522   -0.6257 H   0  0  0  0  0  0  0  0  0  0  0  0
   11.9034   17.0403   -0.6250 H   0  0  0  0  0  0  0  0  0  0  0  0
    9.2413   18.2043   -1.6451 H   0  0  0  0  0  0  0  0  0  0  0  0
   10.4879   17.4293   -2.6504 H   0  0  0  0  0  0  0  0  0  0  0  0
   10.8461   18.9540   -1.7988 H   0  0  0  0  0  0  0  0  0  0  0  0
    9.5662   18.2222    0.9944 H   0  0  0  0  0  0  0  0  0  0  0  0
   11.1588   18.9717    0.7438 H   0  0  0  0  0  0  0  0  0  0  0  0
   11.0210   17.4592    1.6776 H   0  0  0  0  0  0  0  0  0  0  0  0
    8.1487   16.5443   -0.1607 H   0  0  0  0  0  0  0  0  0  0  0  0
    7.1379   14.3020   -0.0214 H   0  0  0  0  0  0  0  0  0  0  0  0
   10.3087    6.2001   -0.3381 H   0  0  0  0  0  0  0  0  0  0  0  0
    9.6057    3.8198   -0.2321 H   0  0  0  0  0  0  0  0  0  0  0  0
    5.2272    2.6312   -5.9866 H   0  0  0  0  0  0  0  0  0  0  0  0
    6.2456    1.4172   -6.8317 H   0  0  0  0  0  0  0  0  0  0  0  0
    6.7209    3.1197   -6.8614 H   0  0  0  0  0  0  0  0  0  0  0  0
  1  2  1  0
  1 33  1  0
  1 34  1  0
  1 35  1  0
  2  3  2  0
  2 32  1  0
  3  4  1  0
  3 36  1  0
  4  5  1  0
  4 29  2  0
  6  5  1  6
  5 37  1  0
  6  7  2  0
  6  8  2  0
  6  9  1  0
  9 10  2  0
  9 28  1  0
 10 11  1  0
 10 38  1  0
 11 12  2  0
 11 39  1  0
 12 13  1  0
 12 27  1  0
 13 14  1  0
 13 40  1  0
 14 15  2  0
 14 16  1  0
 16 17  2  0
 16 41  1  0
 17 18  1  0
 17 42  1  0
 18 19  2  0
 18 26  1  0
 19 20  1  0
 19 43  1  0
 20 21  2  0
 20 44  1  0
 21 22  1  0
 21 25  1  0
 22 23  1  0
 22 24  1  0
 22 45  1  6
 23 46  1  0
 23 47  1  0
 23 48  1  0
 24 49  1  0
 24 50  1  0
 24 51  1  0
 25 26  2  0
 25 52  1  0
 26 53  1  0
 27 28  2  0
 27 54  1  0
 28 55  1  0
 29 30  1  0
 30 31  1  0
 30 32  2  0
 31 56  1  0
 31 57  1  0
 31 58  1  0
M  END

