
     RDKit          3D

 66 70  0  0  0  0  0  0  0  0999 V2000
    2.5897   -0.3655   -1.2611 C   0  0  0  0  0  0  0  0  0  0  0  0
    2.1098   -0.4534    0.0617 O   0  0  0  0  0  0  0  0  0  0  0  0
    2.6222    0.3772    0.9947 C   0  0  0  0  0  0  0  0  0  0  0  0
    3.5985    1.3251    0.7671 C   0  0  0  0  0  0  0  0  0  0  0  0
    4.0798    2.1611    1.8164 C   0  0  0  0  0  0  0  0  0  0  0  0
    5.0430    3.0773    1.5273 N   0  0  0  0  0  0  0  0  0  0  0  0
    5.4729    3.8409    2.5100 C   0  0  0  0  0  0  0  0  0  0  0  0
    5.0074    3.7767    3.8446 C   0  0  0  0  0  0  0  0  0  0  0  0
    4.0281    2.8463    4.1500 C   0  0  0  0  0  0  0  0  0  0  0  0
    3.4855    2.6711    5.3898 O   0  0  0  0  0  0  0  0  0  0  0  0
    3.9185    3.4291    6.4641 C   0  0  0  0  0  0  0  0  0  0  0  0
    3.2451    4.6024    6.8069 C   0  0  0  0  0  0  0  0  0  0  0  0
    3.6247    5.3406    7.9294 C   0  0  0  0  0  0  0  0  0  0  0  0
    4.6982    4.9006    8.7266 C   0  0  0  0  0  0  0  0  0  0  0  0
    5.1498    5.5775    9.8739 N   0  0  0  0  0  0  0  0  0  0  0  0
    4.6592    6.7554   10.4269 C   0  0  0  0  0  0  0  0  0  0  0  0
    3.7254    7.3825    9.9639 O   0  0  0  0  0  0  0  0  0  0  0  0
    5.3593    7.1281   11.5656 N   0  0  0  0  0  0  0  0  0  0  0  0
    5.1521    8.2519   12.3881 C   0  0  0  0  0  0  0  0  0  0  0  0
    4.1447    9.2023   12.1783 C   0  0  0  0  0  0  0  0  0  0  0  0
    4.0373   10.2742   13.0669 C   0  0  0  0  0  0  0  0  0  0  0  0
    4.8824   10.4572   14.1701 C   0  0  0  0  0  0  0  0  0  0  0  0
    4.7163   11.6398   15.0591 C   0  0  0  0  0  0  0  0  0  0  0  0
    4.7524   11.5337   16.4632 C   0  0  0  0  0  0  0  0  0  0  0  0
    4.5467   12.6521   17.2727 C   0  0  0  0  0  0  0  0  0  0  0  0
    4.3046   13.9058   16.7021 C   0  0  0  0  0  0  0  0  0  0  0  0
    4.2698   14.0293   15.3107 C   0  0  0  0  0  0  0  0  0  0  0  0
    4.4738   12.9097   14.5007 C   0  0  0  0  0  0  0  0  0  0  0  0
    5.8967    9.4835   14.3654 C   0  0  0  0  0  0  0  0  0  0  0  0
    6.7295    9.6677   15.4233 O   0  0  0  0  0  0  0  0  0  0  0  0
    7.8010    8.7820   15.6425 C   0  0  0  0  0  0  0  0  0  0  0  0
    6.0235    8.4042   13.4846 C   0  0  0  0  0  0  0  0  0  0  0  0
    5.3670    3.7136    8.3704 C   0  0  0  0  0  0  0  0  0  0  0  0
    4.9827    2.9808    7.2495 C   0  0  0  0  0  0  0  0  0  0  0  0
    3.5271    1.9969    3.1227 C   0  0  0  0  0  0  0  0  0  0  0  0
    2.5202    1.0169    3.3502 C   0  0  0  0  0  0  0  0  0  0  0  0
    2.0688    0.2190    2.3191 C   0  0  0  0  0  0  0  0  0  0  0  0
    1.1194   -0.7369    2.4291 O   0  0  0  0  0  0  0  0  0  0  0  0
    0.5217   -0.9562    3.6858 C   0  0  0  0  0  0  0  0  0  0  0  0
    2.0421   -1.1191   -1.8427 H   0  0  0  0  0  0  0  0  0  0  0  0
    3.6719   -0.5806   -1.3186 H   0  0  0  0  0  0  0  0  0  0  0  0
    2.4050    0.6325   -1.6975 H   0  0  0  0  0  0  0  0  0  0  0  0
    4.0406    1.4762   -0.2162 H   0  0  0  0  0  0  0  0  0  0  0  0
    6.2487    4.5762    2.2601 H   0  0  0  0  0  0  0  0  0  0  0  0
    5.4126    4.4463    4.6032 H   0  0  0  0  0  0  0  0  0  0  0  0
    2.4090    4.9363    6.1888 H   0  0  0  0  0  0  0  0  0  0  0  0
    3.0987    6.2528    8.1990 H   0  0  0  0  0  0  0  0  0  0  0  0
    5.9305    5.1307   10.3387 H   0  0  0  0  0  0  0  0  0  0  0  0
    6.1237    6.5326   11.8592 H   0  0  0  0  0  0  0  0  0  0  0  0
    3.4612    9.0955   11.3410 H   0  0  0  0  0  0  0  0  0  0  0  0
    3.2376   11.0005   12.9040 H   0  0  0  0  0  0  0  0  0  0  0  0
    4.9362   10.5618   16.9219 H   0  0  0  0  0  0  0  0  0  0  0  0
    4.5718   12.5423   18.3603 H   0  0  0  0  0  0  0  0  0  0  0  0
    4.1465   14.7806   17.3383 H   0  0  0  0  0  0  0  0  0  0  0  0
    4.0897   15.0044   14.8503 H   0  0  0  0  0  0  0  0  0  0  0  0
    4.4634   13.0231   13.4140 H   0  0  0  0  0  0  0  0  0  0  0  0
    8.3344    9.1510   16.5289 H   0  0  0  0  0  0  0  0  0  0  0  0
    8.5014    8.7631   14.7877 H   0  0  0  0  0  0  0  0  0  0  0  0
    7.4533    7.7514   15.8406 H   0  0  0  0  0  0  0  0  0  0  0  0
    6.8116    7.6658   13.6394 H   0  0  0  0  0  0  0  0  0  0  0  0
    6.1997    3.3548    8.9834 H   0  0  0  0  0  0  0  0  0  0  0  0
    5.5000    2.0574    6.9820 H   0  0  0  0  0  0  0  0  0  0  0  0
    2.1184    0.9172    4.3564 H   0  0  0  0  0  0  0  0  0  0  0  0
   -0.2111   -1.7625    3.5477 H   0  0  0  0  0  0  0  0  0  0  0  0
    0.0004   -0.0542    4.0548 H   0  0  0  0  0  0  0  0  0  0  0  0
    1.2631   -1.2687    4.4435 H   0  0  0  0  0  0  0  0  0  0  0  0
  1  2  1  0
  1 40  1  0
  1 41  1  0
  1 42  1  0
  2  3  1  0
  3  4  2  0
  3 37  1  0
  4  5  1  0
  4 43  1  0
  5  6  2  0
  5 35  1  0
  6  7  1  0
  7  8  2  0
  7 44  1  0
  8  9  1  0
  8 45  1  0
  9 10  1  0
  9 35  2  0
 10 11  1  0
 11 12  2  0
 11 34  1  0
 12 13  1  0
 12 46  1  0
 13 14  2  0
 13 47  1  0
 14 15  1  0
 14 33  1  0
 15 16  1  0
 15 48  1  0
 16 17  2  0
 16 18  1  0
 18 19  1  0
 18 49  1  0
 19 20  2  0
 19 32  1  0
 20 21  1  0
 20 50  1  0
 21 22  2  0
 21 51  1  0
 22 23  1  0
 22 29  1  0
 23 24  2  0
 23 28  1  0
 24 25  1  0
 24 52  1  0
 25 26  2  0
 25 53  1  0
 26 27  1  0
 26 54  1  0
 27 28  2  0
 27 55  1  0
 28 56  1  0
 29 30  1  0
 29 32  2  0
 30 31  1  0
 31 57  1  0
 31 58  1  0
 31 59  1  0
 32 60  1  0
 33 34  2  0
 33 61  1  0
 34 62  1  0
 35 36  1  0
 36 37  2  0
 36 63  1  0
 37 38  1  0
 38 39  1  0
 39 64  1  0
 39 65  1  0
 39 66  1  0
M  END

