
     RDKit          3D

 48 52  0  0  0  0  0  0  0  0999 V2000
    0.5864   -0.4431    0.0375 C   0  0  0  0  0  0  0  0  0  0  0  0
    2.0104   -0.1840    0.1141 N   0  0  0  0  0  0  0  0  0  0  0  0
    2.4878    1.1788    0.2063 C   0  0  0  0  0  0  0  0  0  0  0  0
    2.9251   -1.2172    0.0163 C   0  0  0  0  0  0  0  0  0  0  0  0
    2.4722   -2.5790   -0.1074 C   0  0  0  0  0  0  0  0  0  0  0  0
    3.3515   -3.6280   -0.1976 C   0  0  0  0  0  0  0  0  0  0  0  0
    4.7619   -3.4256   -0.1775 C   0  0  0  0  0  0  0  0  0  0  0  0
    5.5838   -4.4987   -0.2565 N   0  0  0  0  0  0  0  0  0  0  0  0
    6.8738   -4.2464   -0.2397 C   0  0  0  0  0  0  0  0  0  0  0  0
    7.4764   -2.9463   -0.1545 C   0  0  0  0  0  0  0  0  0  0  0  0
    6.6359   -1.8490   -0.0493 C   0  0  0  0  0  0  0  0  0  0  0  0
    5.2360   -2.0661   -0.0627 C   0  0  0  0  0  0  0  0  0  0  0  0
    4.3034   -0.9963    0.0324 C   0  0  0  0  0  0  0  0  0  0  0  0
    8.9004   -3.2074   -0.1595 C   0  0  0  0  0  0  0  0  0  0  0  0
   10.0283   -2.2632   -0.0770 C   0  0  0  0  0  0  0  0  0  0  0  0
   11.2659   -2.6873    0.4454 C   0  0  0  0  0  0  0  0  0  0  0  0
   12.3450   -1.8080    0.5211 C   0  0  0  0  0  0  0  0  0  0  0  0
   12.2131   -0.4864    0.0787 C   0  0  0  0  0  0  0  0  0  0  0  0
   10.9927   -0.0557   -0.4478 C   0  0  0  0  0  0  0  0  0  0  0  0
    9.9100   -0.9353   -0.5271 C   0  0  0  0  0  0  0  0  0  0  0  0
    9.1144   -4.5062   -0.2287 N   0  0  0  0  0  0  0  0  0  0  0  0
    7.9251   -5.1572   -0.2816 N   0  0  0  0  0  0  0  0  0  0  0  0
    7.9103   -6.5728   -0.3897 C   0  0  0  0  0  0  0  0  0  0  0  0
    9.1306   -7.2628   -0.4990 C   0  0  0  0  0  0  0  0  0  0  0  0
    9.1344   -8.6534   -0.6017 C   0  0  0  0  0  0  0  0  0  0  0  0
    7.9358   -9.3743   -0.5997 C   0  0  0  0  0  0  0  0  0  0  0  0
    6.7272   -8.6821   -0.4933 C   0  0  0  0  0  0  0  0  0  0  0  0
    6.7015   -7.2892   -0.3878 C   0  0  0  0  0  0  0  0  0  0  0  0
    0.0417    0.5038    0.1432 H   0  0  0  0  0  0  0  0  0  0  0  0
    0.2384   -1.1146    0.8432 H   0  0  0  0  0  0  0  0  0  0  0  0
    0.2861   -0.8944   -0.9270 H   0  0  0  0  0  0  0  0  0  0  0  0
    1.6341    1.8631    0.2920 H   0  0  0  0  0  0  0  0  0  0  0  0
    3.0761    1.4791   -0.6823 H   0  0  0  0  0  0  0  0  0  0  0  0
    3.1308    1.3305    1.0929 H   0  0  0  0  0  0  0  0  0  0  0  0
    1.4042   -2.7936   -0.1290 H   0  0  0  0  0  0  0  0  0  0  0  0
    2.9885   -4.6538   -0.2878 H   0  0  0  0  0  0  0  0  0  0  0  0
    7.0233   -0.8333    0.0530 H   0  0  0  0  0  0  0  0  0  0  0  0
    4.7070    0.0120    0.1182 H   0  0  0  0  0  0  0  0  0  0  0  0
   11.3626   -3.7163    0.7958 H   0  0  0  0  0  0  0  0  0  0  0  0
   13.2965   -2.1538    0.9334 H   0  0  0  0  0  0  0  0  0  0  0  0
   13.0592    0.2026    0.1420 H   0  0  0  0  0  0  0  0  0  0  0  0
   10.8829    0.9704   -0.8084 H   0  0  0  0  0  0  0  0  0  0  0  0
    8.9749   -0.5936   -0.9737 H   0  0  0  0  0  0  0  0  0  0  0  0
   10.0603   -6.6965   -0.5030 H   0  0  0  0  0  0  0  0  0  0  0  0
   10.0898   -9.1781   -0.6863 H   0  0  0  0  0  0  0  0  0  0  0  0
    7.9451  -10.4639   -0.6813 H   0  0  0  0  0  0  0  0  0  0  0  0
    5.7810   -9.2298   -0.4908 H   0  0  0  0  0  0  0  0  0  0  0  0
    5.7605   -6.7495   -0.3078 H   0  0  0  0  0  0  0  0  0  0  0  0
  1  2  1  0
  1 29  1  0
  1 30  1  0
  1 31  1  0
  2  3  1  0
  2  4  1  0
  3 32  1  0
  3 33  1  0
  3 34  1  0
  4  5  2  0
  4 13  1  0
  5  6  1  0
  5 35  1  0
  6  7  2  0
  6 36  1  0
  7  8  1  0
  7 12  1  0
  8  9  2  0
  9 10  1  0
  9 22  1  0
 10 11  2  0
 10 14  1  0
 11 12  1  0
 11 37  1  0
 12 13  2  0
 13 38  1  0
 14 15  1  0
 14 21  2  0
 15 16  2  0
 15 20  1  0
 16 17  1  0
 16 39  1  0
 17 18  2  0
 17 40  1  0
 18 19  1  0
 18 41  1  0
 19 20  2  0
 19 42  1  0
 20 43  1  0
 21 22  1  0
 22 23  1  0
 23 24  2  0
 23 28  1  0
 24 25  1  0
 24 44  1  0
 25 26  2  0
 25 45  1  0
 26 27  1  0
 26 46  1  0
 27 28  2  0
 27 47  1  0
 28 48  1  0
M  END

