
     RDKit          3D

 34 33  0  0  0  0  0  0  0  0999 V2000
    1.8270    0.6155    4.3004 C   0  0  0  0  0  0  0  0  0  0  0  0
    2.4688    0.4760    3.1368 C   0  0  0  0  0  0  0  0  0  0  0  0
    3.1155    1.5869    2.3579 C   0  0  0  0  0  0  0  0  0  0  0  0
    4.6228    1.3869    2.1710 C   0  0  0  0  0  0  0  0  0  0  0  0
    5.3008    2.4824    1.3623 C   0  0  0  0  0  0  0  0  0  0  0  0
    4.6941    3.4589    0.9734 O   0  0  0  0  0  0  0  0  0  0  0  0
    6.7799    2.2803    1.0224 C   0  0  1  0  0  0  0  0  0  0  0  0
    6.8588    1.7754   -0.4403 C   0  0  0  0  0  0  0  0  0  0  0  0
    8.2128    1.3741   -0.8037 N   0  0  0  0  0  0  0  0  0  0  0  0
    7.5843    3.5746    1.2224 C   0  0  0  0  0  0  0  0  0  0  0  0
    7.6667    4.1098    2.6659 C   0  0  1  0  0  0  0  0  0  0  0  0
    8.3943    3.1489    3.6161 C   0  0  0  0  0  0  0  0  0  0  0  0
    8.3338    5.4915    2.6787 C   0  0  0  0  0  0  0  0  0  0  0  0
    1.3784   -0.2395    4.8141 H   0  0  0  0  0  0  0  0  0  0  0  0
    1.7206    1.5940    4.7814 H   0  0  0  0  0  0  0  0  0  0  0  0
    2.5478   -0.5279    2.6964 H   0  0  0  0  0  0  0  0  0  0  0  0
    2.9343    2.5568    2.8471 H   0  0  0  0  0  0  0  0  0  0  0  0
    2.6508    1.6634    1.3585 H   0  0  0  0  0  0  0  0  0  0  0  0
    4.8464    0.4164    1.6892 H   0  0  0  0  0  0  0  0  0  0  0  0
    5.1369    1.3348    3.1492 H   0  0  0  0  0  0  0  0  0  0  0  0
    7.1934    1.4748    1.6500 H   0  0  0  0  0  0  0  0  0  0  0  0
    6.4167    2.5563   -1.0938 H   0  0  0  0  0  0  0  0  0  0  0  0
    6.2098    0.8882   -0.5400 H   0  0  0  0  0  0  0  0  0  0  0  0
    8.7846    2.1892   -1.0236 H   0  0  0  0  0  0  0  0  0  0  0  0
    8.1973    0.8067   -1.6503 H   0  0  0  0  0  0  0  0  0  0  0  0
    7.1299    4.3505    0.5835 H   0  0  0  0  0  0  0  0  0  0  0  0
    8.6132    3.4091    0.8567 H   0  0  0  0  0  0  0  0  0  0  0  0
    6.6330    4.2417    3.0363 H   0  0  0  0  0  0  0  0  0  0  0  0
    9.4316    2.9735    3.2815 H   0  0  0  0  0  0  0  0  0  0  0  0
    7.8991    2.1675    3.6833 H   0  0  0  0  0  0  0  0  0  0  0  0
    8.4404    3.5625    4.6367 H   0  0  0  0  0  0  0  0  0  0  0  0
    9.3718    5.4322    2.3071 H   0  0  0  0  0  0  0  0  0  0  0  0
    8.3701    5.9107    3.6974 H   0  0  0  0  0  0  0  0  0  0  0  0
    7.7911    6.2065    2.0397 H   0  0  0  0  0  0  0  0  0  0  0  0
  1  2  2  0
  1 14  1  0
  1 15  1  0
  2  3  1  0
  2 16  1  0
  3  4  1  0
  3 17  1  0
  3 18  1  0
  4  5  1  0
  4 19  1  0
  4 20  1  0
  5  6  2  0
  5  7  1  0
  7  8  1  0
  7 10  1  0
  7 21  1  1
  8  9  1  0
  8 22  1  0
  8 23  1  0
  9 24  1  0
  9 25  1  0
 10 11  1  0
 10 26  1  0
 10 27  1  0
 11 12  1  0
 11 13  1  0
 11 28  1  1
 12 29  1  0
 12 30  1  0
 12 31  1  0
 13 32  1  0
 13 33  1  0
 13 34  1  0
M  END

