
     RDKit          3D

 42 44  0  0  0  0  0  0  0  0999 V2000
    1.1135   -0.2084    0.6423 C   0  0  0  0  0  0  0  0  0  0  0  0
    2.5864   -0.0419    0.2382 C   0  0  0  0  0  0  0  0  0  0  0  0
    2.9257   -0.5917   -1.1189 C   0  0  0  0  0  0  0  0  0  0  0  0
    3.3017    0.1071   -2.2327 C   0  0  0  0  0  0  0  0  0  0  0  0
    3.5358   -0.7209   -3.3898 C   0  0  0  0  0  0  0  0  0  0  0  0
    3.9071   -0.4535   -4.7485 C   0  0  0  0  0  0  0  0  0  0  0  0
    4.2561    0.7973   -5.2163 N   0  0  0  0  0  0  0  0  0  0  0  0
    4.3625    1.0248   -6.6592 C   0  0  0  0  0  0  0  0  0  0  0  0
    3.9445    2.4566   -7.0084 C   0  0  0  0  0  0  0  0  0  0  0  0
    4.7180    3.5276   -6.2104 C   0  0  2  0  0  0  0  0  0  0  0  0
    6.1747    3.7205   -6.6664 C   0  0  0  0  0  0  0  0  0  0  0  0
    6.2991    4.4911   -8.3040 S   0  0  1  0  0  0  0  0  0  0  0  0
    7.9569    4.8272   -8.4022 N   0  0  0  0  0  0  0  0  0  0  0  0
    6.0042    3.4851   -9.3312 O   0  0  0  0  0  0  0  0  0  0  0  0
    5.5845    5.7702   -8.2489 O   0  0  0  0  0  0  0  0  0  0  0  0
    4.6584    3.1784   -4.7082 C   0  0  0  0  0  0  0  0  0  0  0  0
    5.0640    1.7282   -4.4328 C   0  0  0  0  0  0  0  0  0  0  0  0
    3.8818   -1.4546   -5.6385 N   0  0  0  0  0  0  0  0  0  0  0  0
    3.5796   -2.6905   -5.2334 C   0  0  0  0  0  0  0  0  0  0  0  0
    3.3004   -3.0815   -3.9955 N   0  0  0  0  0  0  0  0  0  0  0  0
    3.2721   -2.0837   -3.1127 C   0  0  0  0  0  0  0  0  0  0  0  0
    2.8211   -2.3202   -1.4333 S   0  0  0  0  0  0  0  0  0  0  0  0
    0.9341    0.2201    1.6411 H   0  0  0  0  0  0  0  0  0  0  0  0
    0.8233   -1.2704    0.6745 H   0  0  0  0  0  0  0  0  0  0  0  0
    0.4469    0.2977   -0.0735 H   0  0  0  0  0  0  0  0  0  0  0  0
    3.2281   -0.5214    0.9991 H   0  0  0  0  0  0  0  0  0  0  0  0
    2.8553    1.0274    0.2417 H   0  0  0  0  0  0  0  0  0  0  0  0
    3.3720    1.1943   -2.2180 H   0  0  0  0  0  0  0  0  0  0  0  0
    3.7261    0.2960   -7.1725 H   0  0  0  0  0  0  0  0  0  0  0  0
    5.3963    0.8194   -7.0041 H   0  0  0  0  0  0  0  0  0  0  0  0
    2.8714    2.5705   -6.7810 H   0  0  0  0  0  0  0  0  0  0  0  0
    4.0681    2.6143   -8.0895 H   0  0  0  0  0  0  0  0  0  0  0  0
    4.2229    4.5014   -6.3564 H   0  0  0  0  0  0  0  0  0  0  0  0
    6.7537    2.7887   -6.7397 H   0  0  0  0  0  0  0  0  0  0  0  0
    6.7100    4.4118   -5.9988 H   0  0  0  0  0  0  0  0  0  0  0  0
    8.3494    4.3444   -9.2111 H   0  0  0  0  0  0  0  0  0  0  0  0
    8.0957    5.8363   -8.4682 H   0  0  0  0  0  0  0  0  0  0  0  0
    3.6232    3.3264   -4.3575 H   0  0  0  0  0  0  0  0  0  0  0  0
    5.2991    3.8592   -4.1225 H   0  0  0  0  0  0  0  0  0  0  0  0
    4.9804    1.5002   -3.3661 H   0  0  0  0  0  0  0  0  0  0  0  0
    6.1343    1.5816   -4.6911 H   0  0  0  0  0  0  0  0  0  0  0  0
    3.5750   -3.4662   -6.0090 H   0  0  0  0  0  0  0  0  0  0  0  0
  1  2  1  0
  1 23  1  0
  1 24  1  0
  1 25  1  0
  2  3  1  0
  2 26  1  0
  2 27  1  0
  3  4  2  0
  3 22  1  0
  4  5  1  0
  4 28  1  0
  5  6  2  0
  5 21  1  0
  6  7  1  0
  6 18  1  0
  7  8  1  0
  7 17  1  0
  8  9  1  0
  8 29  1  0
  8 30  1  0
  9 10  1  0
  9 31  1  0
  9 32  1  0
 10 11  1  0
 10 16  1  0
 10 33  1  1
 11 12  1  0
 11 34  1  0
 11 35  1  0
 12 13  1  6
 12 14  2  0
 12 15  2  0
 13 36  1  0
 13 37  1  0
 16 17  1  0
 16 38  1  0
 16 39  1  0
 17 40  1  0
 17 41  1  0
 18 19  2  0
 19 20  1  0
 19 42  1  0
 20 21  2  0
 21 22  1  0
M  END

