
     RDKit          3D

 35 39  0  0  0  0  0  0  0  0999 V2000
    1.4673   -3.7048    2.3512 O   0  0  0  0  0  0  0  0  0  0  0  0
    2.8039   -3.4320    2.2785 C   0  0  0  0  0  0  0  0  0  0  0  0
    3.5071   -3.6907    3.2171 O   0  0  0  0  0  0  0  0  0  0  0  0
    3.3052   -2.8102    1.0079 C   0  0  0  0  0  0  0  0  0  0  0  0
    4.6822   -2.7868    0.7618 C   0  0  0  0  0  0  0  0  0  0  0  0
    5.1709   -2.2113   -0.4122 C   0  0  0  0  0  0  0  0  0  0  0  0
    4.2818   -1.6539   -1.3383 C   0  0  0  0  0  0  0  0  0  0  0  0
    2.9062   -1.6506   -1.0898 C   0  0  0  0  0  0  0  0  0  0  0  0
    2.4043   -2.2179    0.0907 C   0  0  0  0  0  0  0  0  0  0  0  0
    0.9905   -2.2771    0.5053 C   0  0  0  0  0  0  0  0  0  0  0  0
    0.6460   -3.6159    1.1253 C   0  0  1  0  0  0  0  0  0  0  0  0
    1.0140   -4.8209    0.2732 C   0  0  0  0  0  0  0  0  0  0  0  0
    0.3066   -5.9578    0.2838 C   0  0  0  0  0  0  0  0  0  0  0  0
   -0.9747   -6.0858    1.0300 C   0  0  0  0  0  0  0  0  0  0  0  0
   -1.5780   -7.1435    1.0886 O   0  0  0  0  0  0  0  0  0  0  0  0
   -1.5025   -4.8367    1.6067 C   0  0  0  0  0  0  0  0  0  0  0  0
   -0.7988   -3.6905    1.5687 C   0  0  0  0  0  0  0  0  0  0  0  0
   -1.3937   -2.5458    1.9923 O   0  0  0  0  0  0  0  0  0  0  0  0
   -1.0853   -1.3446    1.4250 C   0  0  0  0  0  0  0  0  0  0  0  0
   -1.9218   -0.3035    1.6566 C   0  0  0  0  0  0  0  0  0  0  0  0
   -1.6442    1.0376    1.1231 C   0  0  0  0  0  0  0  0  0  0  0  0
   -2.4000    1.9839    1.2983 O   0  0  0  0  0  0  0  0  0  0  0  0
   -0.3731    1.1838    0.3730 C   0  0  0  0  0  0  0  0  0  0  0  0
    0.4588    0.1411    0.1688 C   0  0  0  0  0  0  0  0  0  0  0  0
    0.1487   -1.2063    0.6461 C   0  0  0  0  0  0  0  0  0  0  0  0
    5.3511   -3.2249    1.5054 H   0  0  0  0  0  0  0  0  0  0  0  0
    6.2452   -2.2005   -0.6096 H   0  0  0  0  0  0  0  0  0  0  0  0
    4.6617   -1.2198   -2.2663 H   0  0  0  0  0  0  0  0  0  0  0  0
    2.2196   -1.2332   -1.8287 H   0  0  0  0  0  0  0  0  0  0  0  0
    1.9518   -4.7591   -0.2823 H   0  0  0  0  0  0  0  0  0  0  0  0
    0.6338   -6.8454   -0.2633 H   0  0  0  0  0  0  0  0  0  0  0  0
   -2.5234   -4.8442    1.9923 H   0  0  0  0  0  0  0  0  0  0  0  0
   -2.8196   -0.4398    2.2609 H   0  0  0  0  0  0  0  0  0  0  0  0
   -0.1393    2.1877    0.0116 H   0  0  0  0  0  0  0  0  0  0  0  0
    1.3992    0.2907   -0.3607 H   0  0  0  0  0  0  0  0  0  0  0  0
  1  2  1  0
 11  1  1  1
  2  3  2  0
  2  4  1  0
  4  5  1  0
  4  9  2  0
  5  6  2  0
  5 26  1  0
  6  7  1  0
  6 27  1  0
  7  8  2  0
  7 28  1  0
  8  9  1  0
  8 29  1  0
  9 10  1  0
 10 11  1  0
 10 25  2  0
 11 12  1  0
 11 17  1  0
 12 13  2  0
 12 30  1  0
 13 14  1  0
 13 31  1  0
 14 15  2  0
 14 16  1  0
 16 17  2  0
 16 32  1  0
 17 18  1  0
 18 19  1  0
 19 20  2  0
 19 25  1  0
 20 21  1  0
 20 33  1  0
 21 22  2  0
 21 23  1  0
 23 24  2  0
 23 34  1  0
 24 25  1  0
 24 35  1  0
M  END

