
     RDKit          3D

 40 42  0  0  0  0  0  0  0  0999 V2000
    9.1664    4.7312    9.0320 C   0  0  0  0  0  0  0  0  0  0  0  0
    8.8978    4.1409    7.7435 N   0  0  0  0  0  0  0  0  0  0  0  0
    8.6395    2.7856    7.5657 C   0  0  0  0  0  0  0  0  0  0  0  0
    8.6090    1.9581    8.4504 O   0  0  0  0  0  0  0  0  0  0  0  0
    8.4095    2.5681    6.0637 C   0  0  0  0  0  0  0  0  0  0  0  0
    8.5721    3.9438    5.4730 C   0  0  0  0  0  0  0  0  0  0  0  0
    8.4816    4.3902    4.1623 C   0  0  0  0  0  0  0  0  0  0  0  0
    8.6867    5.7635    3.8973 C   0  0  0  0  0  0  0  0  0  0  0  0
    8.6191    6.3259    2.6048 N   0  0  0  0  0  0  0  0  0  0  0  0
    8.3620    5.6995    1.4238 C   0  0  0  0  0  0  0  0  0  0  0  0
    8.1497    4.5020    1.2946 O   0  0  0  0  0  0  0  0  0  0  0  0
    8.3162    6.5391    0.1522 C   0  0  2  0  0  0  0  0  0  0  0  0
    8.6151    5.8775   -0.6659 H   0  0  0  0  0  0  0  0  0  0  0  0
    8.6440    8.0048   -0.1551 C   0  0  2  0  0  0  0  0  0  0  0  0
    9.1076    8.1259   -1.1406 H   0  0  0  0  0  0  0  0  0  0  0  0
    9.0699    9.0617    0.8100 C   0  0  0  0  0  0  0  0  0  0  0  0
    8.9512    9.0242    2.0158 O   0  0  0  0  0  0  0  0  0  0  0  0
    9.6063   10.1601    0.2468 O   0  0  0  0  0  0  0  0  0  0  0  0
    7.1961    7.4820   -0.2130 C   0  0  1  0  0  0  0  0  0  0  0  0
    6.5826    7.3424   -1.5961 C   0  0  0  0  0  0  0  0  0  0  0  0
    6.2029    7.9163    0.8510 C   0  0  0  0  0  0  0  0  0  0  0  0
    8.9750    6.6410    4.9587 C   0  0  0  0  0  0  0  0  0  0  0  0
    9.0662    6.1893    6.2802 C   0  0  0  0  0  0  0  0  0  0  0  0
    8.8614    4.8330    6.5244 C   0  0  0  0  0  0  0  0  0  0  0  0
    9.1234    3.9272    9.7790 H   0  0  0  0  0  0  0  0  0  0  0  0
    8.4165    5.5005    9.2841 H   0  0  0  0  0  0  0  0  0  0  0  0
   10.1663    5.1971    9.0582 H   0  0  0  0  0  0  0  0  0  0  0  0
    7.4092    2.1310    5.9080 H   0  0  0  0  0  0  0  0  0  0  0  0
    9.1391    1.8323    5.6866 H   0  0  0  0  0  0  0  0  0  0  0  0
    8.2596    3.7158    3.3383 H   0  0  0  0  0  0  0  0  0  0  0  0
    8.7889    7.3348    2.5555 H   0  0  0  0  0  0  0  0  0  0  0  0
    9.6258   10.0775   -0.7170 H   0  0  0  0  0  0  0  0  0  0  0  0
    7.3246    7.0254   -2.3450 H   0  0  0  0  0  0  0  0  0  0  0  0
    6.1396    8.2954   -1.9304 H   0  0  0  0  0  0  0  0  0  0  0  0
    5.7799    6.5871   -1.5801 H   0  0  0  0  0  0  0  0  0  0  0  0
    6.6657    8.0710    1.8321 H   0  0  0  0  0  0  0  0  0  0  0  0
    5.4212    7.1474    0.9594 H   0  0  0  0  0  0  0  0  0  0  0  0
    5.7106    8.8571    0.5551 H   0  0  0  0  0  0  0  0  0  0  0  0
    9.1321    7.7012    4.7427 H   0  0  0  0  0  0  0  0  0  0  0  0
    9.2919    6.8899    7.0861 H   0  0  0  0  0  0  0  0  0  0  0  0
  1  2  1  0
  1 25  1  0
  1 26  1  0
  1 27  1  0
  2  3  1  0
  2 24  1  0
  3  4  2  0
  3  5  1  0
  5  6  1  0
  5 28  1  0
  5 29  1  0
  6  7  2  0
  6 24  1  0
  7  8  1  0
  7 30  1  0
  8  9  1  0
  8 22  2  0
  9 10  1  0
  9 31  1  0
 10 11  2  0
 10 12  1  0
 12 13  1  6
 12 14  1  0
 12 19  1  0
 14 15  1  6
 14 16  1  0
 14 19  1  0
 16 17  2  0
 16 18  1  0
 18 32  1  0
 19 20  1  6
 19 21  1  0
 20 33  1  0
 20 34  1  0
 20 35  1  0
 21 36  1  0
 21 37  1  0
 21 38  1  0
 22 23  1  0
 22 39  1  0
 23 24  2  0
 23 40  1  0
M  END

