
     RDKit          3D

 49 52  0  0  0  0  0  0  0  0999 V2000
    2.3198    0.0583    1.6241 C   0  0  0  0  0  0  0  0  0  0  0  0
    2.4327    0.0307    0.2132 O   0  0  0  0  0  0  0  0  0  0  0  0
    2.7878   -1.1054   -0.4114 C   0  0  0  0  0  0  0  0  0  0  0  0
    3.0680   -2.2999    0.2413 C   0  0  0  0  0  0  0  0  0  0  0  0
    3.4314   -3.4347   -0.4972 C   0  0  0  0  0  0  0  0  0  0  0  0
    3.5320   -3.4344   -1.8917 C   0  0  0  0  0  0  0  0  0  0  0  0
    3.9132   -4.6100   -2.6386 C   0  0  0  0  0  0  0  0  0  0  0  0
    4.2135   -5.8939   -2.2603 C   0  0  0  0  0  0  0  0  0  0  0  0
    4.2074   -6.3881   -0.9226 C   0  0  0  0  0  0  0  0  0  0  0  0
    4.2198   -6.8483    0.1470 N   0  0  0  0  0  0  0  0  0  0  0  0
    4.5745   -6.8482   -3.3621 C   0  0  0  0  0  0  0  0  0  0  0  0
    4.6060   -6.5155   -4.5371 O   0  0  0  0  0  0  0  0  0  0  0  0
    4.8726   -8.1364   -2.9724 N   0  0  0  0  0  0  0  0  0  0  0  0
    5.2285   -9.1559   -3.8377 C   0  0  0  0  0  0  0  0  0  0  0  0
    5.3532   -8.9531   -5.5617 S   0  0  0  0  0  0  0  0  0  0  0  0
    5.8137  -10.6321   -5.7633 C   0  0  0  0  0  0  0  0  0  0  0  0
    5.8711  -11.3058   -4.5727 C   0  0  0  0  0  0  0  0  0  0  0  0
    5.5307  -10.4597   -3.4540 C   0  0  0  0  0  0  0  0  0  0  0  0
    5.5031  -10.8838   -2.0959 C   0  0  0  0  0  0  0  0  0  0  0  0
    5.4770  -11.2113   -0.9794 N   0  0  0  0  0  0  0  0  0  0  0  0
    6.2337  -12.7664   -4.4833 C   0  0  0  0  0  0  0  0  0  0  0  0
    6.8777  -13.2626   -5.7872 C   0  0  0  0  0  0  0  0  0  0  0  0
    6.1152  -12.7647   -7.0222 C   0  0  0  0  0  0  0  0  0  0  0  0
    6.1219  -11.2288   -7.1093 C   0  0  0  0  0  0  0  0  0  0  0  0
    3.2420   -2.1924   -2.5948 C   0  0  0  0  0  0  0  0  0  0  0  0
    3.3040   -2.0584   -4.0093 C   0  0  0  0  0  0  0  0  0  0  0  0
    3.0206   -0.8608   -4.6374 C   0  0  0  0  0  0  0  0  0  0  0  0
    2.6564    0.2779   -3.8865 C   0  0  0  0  0  0  0  0  0  0  0  0
    2.5827    0.1920   -2.5121 C   0  0  0  0  0  0  0  0  0  0  0  0
    2.8695   -1.0283   -1.8445 C   0  0  0  0  0  0  0  0  0  0  0  0
    2.0174    1.0793    1.8897 H   0  0  0  0  0  0  0  0  0  0  0  0
    3.2829   -0.1730    2.1105 H   0  0  0  0  0  0  0  0  0  0  0  0
    1.5540   -0.6509    1.9819 H   0  0  0  0  0  0  0  0  0  0  0  0
    3.0124   -2.3756    1.3264 H   0  0  0  0  0  0  0  0  0  0  0  0
    3.6428   -4.3459    0.0607 H   0  0  0  0  0  0  0  0  0  0  0  0
    3.9899   -4.5007   -3.7218 H   0  0  0  0  0  0  0  0  0  0  0  0
    4.8352   -8.3775   -1.9831 H   0  0  0  0  0  0  0  0  0  0  0  0
    5.3221  -13.3535   -4.2646 H   0  0  0  0  0  0  0  0  0  0  0  0
    6.9074  -12.9387   -3.6274 H   0  0  0  0  0  0  0  0  0  0  0  0
    6.9247  -14.3634   -5.7841 H   0  0  0  0  0  0  0  0  0  0  0  0
    7.9216  -12.9045   -5.8391 H   0  0  0  0  0  0  0  0  0  0  0  0
    5.0711  -13.1220   -6.9732 H   0  0  0  0  0  0  0  0  0  0  0  0
    6.5507  -13.1888   -7.9413 H   0  0  0  0  0  0  0  0  0  0  0  0
    5.3966  -10.8840   -7.8659 H   0  0  0  0  0  0  0  0  0  0  0  0
    7.1120  -10.8783   -7.4576 H   0  0  0  0  0  0  0  0  0  0  0  0
    3.5789   -2.9116   -4.6287 H   0  0  0  0  0  0  0  0  0  0  0  0
    3.0798   -0.7982   -5.7269 H   0  0  0  0  0  0  0  0  0  0  0  0
    2.4339    1.2203   -4.3926 H   0  0  0  0  0  0  0  0  0  0  0  0
    2.3030    1.0580   -1.9123 H   0  0  0  0  0  0  0  0  0  0  0  0
  1  2  1  0
  1 31  1  0
  1 32  1  0
  1 33  1  0
  2  3  1  0
  3  4  2  0
  3 30  1  0
  4  5  1  0
  4 34  1  0
  5  6  2  0
  5 35  1  0
  6  7  1  0
  6 25  1  0
  7  8  2  0
  7 36  1  0
  8  9  1  0
  8 11  1  0
  9 10  3  0
 11 12  2  0
 11 13  1  0
 13 14  1  0
 13 37  1  0
 14 15  1  0
 14 18  2  0
 15 16  1  0
 16 17  2  0
 16 24  1  0
 17 18  1  0
 17 21  1  0
 18 19  1  0
 19 20  3  0
 21 22  1  0
 21 38  1  0
 21 39  1  0
 22 23  1  0
 22 40  1  0
 22 41  1  0
 23 24  1  0
 23 42  1  0
 23 43  1  0
 24 44  1  0
 24 45  1  0
 25 26  1  0
 25 30  2  0
 26 27  2  0
 26 46  1  0
 27 28  1  0
 27 47  1  0
 28 29  2  0
 28 48  1  0
 29 30  1  0
 29 49  1  0
M  END

