
     RDKit          3D

 35 37  0  0  0  0  0  0  0  0999 V2000
    3.8987   -6.3498   -7.5502 O   0  0  0  0  0  0  0  0  0  0  0  0
    3.1169   -5.8821   -6.7392 N   0  0  0  0  0  0  0  0  0  0  0  0
    1.9846   -5.5053   -6.9908 O   0  0  0  0  0  0  0  0  0  0  0  0
    3.5786   -5.7635   -5.3384 C   0  0  0  0  0  0  0  0  0  0  0  0
    4.8731   -6.1649   -5.0149 C   0  0  0  0  0  0  0  0  0  0  0  0
    5.3044   -6.0493   -3.6922 C   0  0  0  0  0  0  0  0  0  0  0  0
    4.4458   -5.5516   -2.6965 C   0  0  0  0  0  0  0  0  0  0  0  0
    4.9121   -5.3812   -1.2521 C   0  0  2  0  0  0  0  0  0  0  0  0
    4.5351   -4.4197   -0.8788 H   0  0  0  0  0  0  0  0  0  0  0  0
    6.3256   -5.2847   -1.1524 O   0  0  0  0  0  0  0  0  0  0  0  0
    7.0874   -6.4208   -1.0460 C   0  0  0  0  0  0  0  0  0  0  0  0
    8.4663   -6.2681   -1.2503 C   0  0  0  0  0  0  0  0  0  0  0  0
    9.3039   -7.3760   -1.1487 C   0  0  0  0  0  0  0  0  0  0  0  0
    8.7766   -8.6390   -0.8449 C   0  0  0  0  0  0  0  0  0  0  0  0
    7.4068   -8.7771   -0.6332 C   0  0  0  0  0  0  0  0  0  0  0  0
    6.5442   -7.6733   -0.7240 C   0  0  0  0  0  0  0  0  0  0  0  0
    5.0539   -7.8426   -0.5074 C   0  0  2  0  0  0  0  0  0  0  0  0
    4.8811   -8.4454    0.3936 H   0  0  0  0  0  0  0  0  0  0  0  0
    4.4101   -8.5249   -1.5575 O   0  0  0  0  0  0  0  0  0  0  0  0
    4.4215   -6.4556   -0.2506 C   0  0  2  0  0  0  0  0  0  0  0  0
    2.6393   -6.5700   -0.1755 Cl  0  0  0  0  0  0  0  0  0  0  0  0
    4.8252   -5.9403    1.1775 N   0  0  0  0  0  0  0  0  0  0  0  0
    4.6188   -4.7683    1.4077 O   0  0  0  0  0  0  0  0  0  0  0  0
    5.2741   -6.7553    1.9547 O   0  0  0  0  0  0  0  0  0  0  0  0
    3.1564   -5.1281   -3.0632 C   0  0  0  0  0  0  0  0  0  0  0  0
    2.7133   -5.2374   -4.3797 C   0  0  0  0  0  0  0  0  0  0  0  0
    5.5254   -6.5506   -5.7979 H   0  0  0  0  0  0  0  0  0  0  0  0
    6.3276   -6.3352   -3.4475 H   0  0  0  0  0  0  0  0  0  0  0  0
    8.8519   -5.2744   -1.4860 H   0  0  0  0  0  0  0  0  0  0  0  0
   10.3782   -7.2540   -1.3077 H   0  0  0  0  0  0  0  0  0  0  0  0
    9.4345   -9.5071   -0.7667 H   0  0  0  0  0  0  0  0  0  0  0  0
    6.9819   -9.7540   -0.3875 H   0  0  0  0  0  0  0  0  0  0  0  0
    4.7054   -8.1635   -2.4048 H   0  0  0  0  0  0  0  0  0  0  0  0
    2.4898   -4.7045   -2.3109 H   0  0  0  0  0  0  0  0  0  0  0  0
    1.7160   -4.9154   -4.6777 H   0  0  0  0  0  0  0  0  0  0  0  0
  1  2  2  0
  2  3  1  0
  2  4  1  0
  4  5  2  0
  4 26  1  0
  5  6  1  0
  5 27  1  0
  6  7  2  0
  6 28  1  0
  7  8  1  0
  7 25  1  0
  8  9  1  1
  8 10  1  0
  8 20  1  0
 10 11  1  0
 11 12  2  0
 11 16  1  0
 12 13  1  0
 12 29  1  0
 13 14  2  0
 13 30  1  0
 14 15  1  0
 14 31  1  0
 15 16  2  0
 15 32  1  0
 16 17  1  0
 17 18  1  1
 17 19  1  0
 17 20  1  0
 19 33  1  0
 20 21  1  1
 20 22  1  0
 22 23  2  0
 22 24  1  0
 25 26  2  0
 25 34  1  0
 26 35  1  0
M  CHG  4   2   1   3  -1  22   1  24  -1
M  END

