
     RDKit          3D

 34 35  0  0  0  0  0  0  0  0999 V2000
    1.8182   -0.3934   -1.5834 C   0  0  0  0  0  0  0  0  0  0  0  0
    2.9593   -0.3529   -0.6151 C   0  0  0  0  0  0  0  0  0  0  0  0
    3.5660    0.7932   -0.3195 N   0  0  0  0  0  0  0  0  0  0  0  0
    4.5332    0.4952    0.5705 N   0  0  0  0  0  0  0  0  0  0  0  0
    5.3455    1.5512    1.1381 C   0  0  0  0  0  0  0  0  0  0  0  0
    4.5362   -0.8334    0.8550 C   0  0  0  0  0  0  0  0  0  0  0  0
    5.6527   -1.5413    1.9670 Cl  0  0  0  0  0  0  0  0  0  0  0  0
    3.5375   -1.4401    0.1066 C   0  0  0  0  0  0  0  0  0  0  0  0
    3.1747   -2.8903    0.0482 C   0  0  0  0  0  0  0  0  0  0  0  0
    1.7905   -3.1459    0.2946 O   0  0  0  0  0  0  0  0  0  0  0  0
    1.2425   -2.9593    1.5332 C   0  0  0  0  0  0  0  0  0  0  0  0
    2.0015   -2.8101    2.7024 C   0  0  0  0  0  0  0  0  0  0  0  0
    1.3636   -2.6598    3.9371 C   0  0  0  0  0  0  0  0  0  0  0  0
   -0.0293   -2.6493    4.0177 C   0  0  0  0  0  0  0  0  0  0  0  0
   -0.7806   -2.7828    2.8483 C   0  0  0  0  0  0  0  0  0  0  0  0
   -0.1709   -2.9379    1.5955 C   0  0  0  0  0  0  0  0  0  0  0  0
   -1.0386   -3.0184    0.3670 C   0  0  0  0  0  0  0  0  0  0  0  0
   -2.0163   -2.2209    0.1266 N   0  0  0  0  0  0  0  0  0  0  0  0
   -0.7787   -4.0673   -0.4870 N   0  0  0  0  0  0  0  0  0  0  0  0
    1.7145    0.5861   -2.0703 H   0  0  0  0  0  0  0  0  0  0  0  0
    0.8681   -0.6370   -1.0813 H   0  0  0  0  0  0  0  0  0  0  0  0
    1.9770   -1.1577   -2.3617 H   0  0  0  0  0  0  0  0  0  0  0  0
    5.5507    2.2889    0.3517 H   0  0  0  0  0  0  0  0  0  0  0  0
    6.2890    1.1312    1.5088 H   0  0  0  0  0  0  0  0  0  0  0  0
    4.8217    2.0510    1.9693 H   0  0  0  0  0  0  0  0  0  0  0  0
    3.8146   -3.4767    0.7288 H   0  0  0  0  0  0  0  0  0  0  0  0
    3.3296   -3.2879   -0.9669 H   0  0  0  0  0  0  0  0  0  0  0  0
    3.0901   -2.8010    2.6619 H   0  0  0  0  0  0  0  0  0  0  0  0
    1.9696   -2.5486    4.8399 H   0  0  0  0  0  0  0  0  0  0  0  0
   -0.5294   -2.5373    4.9823 H   0  0  0  0  0  0  0  0  0  0  0  0
   -1.8723   -2.7766    2.8965 H   0  0  0  0  0  0  0  0  0  0  0  0
   -2.1039   -1.5299    0.8736 H   0  0  0  0  0  0  0  0  0  0  0  0
    0.1806   -4.3901   -0.5268 H   0  0  0  0  0  0  0  0  0  0  0  0
   -1.2535   -3.9983   -1.3821 H   0  0  0  0  0  0  0  0  0  0  0  0
  1  2  1  0
  1 20  1  0
  1 21  1  0
  1 22  1  0
  2  3  2  0
  2  8  1  0
  3  4  1  0
  4  5  1  0
  4  6  1  0
  5 23  1  0
  5 24  1  0
  5 25  1  0
  6  7  1  0
  6  8  2  0
  8  9  1  0
  9 10  1  0
  9 26  1  0
  9 27  1  0
 10 11  1  0
 11 12  2  0
 11 16  1  0
 12 13  1  0
 12 28  1  0
 13 14  2  0
 13 29  1  0
 14 15  1  0
 14 30  1  0
 15 16  2  0
 15 31  1  0
 16 17  1  0
 17 18  2  0
 17 19  1  0
 18 32  1  0
 19 33  1  0
 19 34  1  0
M  END

