
     RDKit          3D

 40 40  0  0  0  0  0  0  0  0999 V2000
    5.1237   -2.0182   -0.5073 C   0  0  0  0  0  0  0  0  0  0  0  0
    4.3062   -0.8070   -0.1382 C   0  0  0  0  0  0  0  0  0  0  0  0
    4.9275    0.4119    0.1558 C   0  0  0  0  0  0  0  0  0  0  0  0
    6.2711    0.4692    0.1009 F   0  0  0  0  0  0  0  0  0  0  0  0
    4.2334    1.5634    0.4997 C   0  0  0  0  0  0  0  0  0  0  0  0
    2.8371    1.5127    0.5497 C   0  0  0  0  0  0  0  0  0  0  0  0
    2.1203    2.7884    0.9276 C   0  0  0  0  0  0  0  0  0  0  0  0
    0.7703    2.8058    0.7283 N   0  0  0  0  0  0  0  0  0  0  0  0
    2.7229    3.7440    1.3881 O   0  0  0  0  0  0  0  0  0  0  0  0
    2.1674    0.3136    0.2764 C   0  0  0  0  0  0  0  0  0  0  0  0
    2.8916   -0.8394   -0.0676 C   0  0  0  0  0  0  0  0  0  0  0  0
    2.2582   -2.0660   -0.3486 N   0  0  0  0  0  0  0  0  0  0  0  0
    0.9117   -2.3623   -0.4026 C   0  0  0  0  0  0  0  0  0  0  0  0
    0.0266   -1.5442   -0.2229 O   0  0  0  0  0  0  0  0  0  0  0  0
    0.6106   -3.8359   -0.6774 C   0  0  0  0  0  0  0  0  0  0  0  0
   -0.6654   -4.0198   -1.5049 C   0  0  0  0  0  0  0  0  0  0  0  0
   -1.1988   -5.4672   -1.6909 C   0  0  1  0  0  0  0  0  0  0  0  0
   -0.1667   -6.3527   -2.4072 C   0  0  0  0  0  0  0  0  0  0  0  0
   -1.5827   -6.0942   -0.3409 C   0  0  0  0  0  0  0  0  0  0  0  0
   -2.4135   -5.4605   -2.5222 N   0  0  0  0  0  0  0  0  0  0  0  0
    6.1930   -1.7760   -0.5192 H   0  0  0  0  0  0  0  0  0  0  0  0
    4.8589   -2.3999   -1.5092 H   0  0  0  0  0  0  0  0  0  0  0  0
    4.9821   -2.8438    0.2130 H   0  0  0  0  0  0  0  0  0  0  0  0
    4.7574    2.4914    0.7292 H   0  0  0  0  0  0  0  0  0  0  0  0
    0.2850    2.0882    0.2082 H   0  0  0  0  0  0  0  0  0  0  0  0
    0.2823    3.6683    0.9370 H   0  0  0  0  0  0  0  0  0  0  0  0
    1.0866    0.2279    0.3393 H   0  0  0  0  0  0  0  0  0  0  0  0
    2.8805   -2.8422   -0.5325 H   0  0  0  0  0  0  0  0  0  0  0  0
    0.4938   -4.3147    0.3113 H   0  0  0  0  0  0  0  0  0  0  0  0
    1.4749   -4.3221   -1.1590 H   0  0  0  0  0  0  0  0  0  0  0  0
   -0.5018   -3.5867   -2.5084 H   0  0  0  0  0  0  0  0  0  0  0  0
   -1.4565   -3.4105   -1.0381 H   0  0  0  0  0  0  0  0  0  0  0  0
    0.7481   -6.4857   -1.8088 H   0  0  0  0  0  0  0  0  0  0  0  0
    0.1252   -5.9135   -3.3767 H   0  0  0  0  0  0  0  0  0  0  0  0
   -0.5975   -7.3457   -2.6043 H   0  0  0  0  0  0  0  0  0  0  0  0
   -0.7121   -6.2225    0.3206 H   0  0  0  0  0  0  0  0  0  0  0  0
   -2.0375   -7.0822   -0.5058 H   0  0  0  0  0  0  0  0  0  0  0  0
   -2.3189   -5.4669    0.1897 H   0  0  0  0  0  0  0  0  0  0  0  0
   -2.2120   -5.0389   -3.4308 H   0  0  0  0  0  0  0  0  0  0  0  0
   -3.1252   -4.8667   -2.0923 H   0  0  0  0  0  0  0  0  0  0  0  0
  1  2  1  0
  1 21  1  0
  1 22  1  0
  1 23  1  0
  2  3  2  0
  2 11  1  0
  3  4  1  0
  3  5  1  0
  5  6  2  0
  5 24  1  0
  6  7  1  0
  6 10  1  0
  7  8  1  0
  7  9  2  0
  8 25  1  0
  8 26  1  0
 10 11  2  0
 10 27  1  0
 11 12  1  0
 12 13  1  0
 12 28  1  0
 13 14  2  0
 13 15  1  0
 15 16  1  0
 15 29  1  0
 15 30  1  0
 16 17  1  0
 16 31  1  0
 16 32  1  0
 17 18  1  0
 17 19  1  0
 17 20  1  6
 18 33  1  0
 18 34  1  0
 18 35  1  0
 19 36  1  0
 19 37  1  0
 19 38  1  0
 20 39  1  0
 20 40  1  0
M  END

