
     RDKit          3D

 45 47  0  0  0  0  0  0  0  0999 V2000
    1.3123    0.5007    1.0372 C   0  0  0  0  0  0  0  0  0  0  0  0
    2.6005    0.1769    0.5666 O   0  0  0  0  0  0  0  0  0  0  0  0
    3.1785   -0.9876    0.9570 C   0  0  0  0  0  0  0  0  0  0  0  0
    4.4610   -1.2474    0.4451 C   0  0  0  0  0  0  0  0  0  0  0  0
    5.1293   -2.4203    0.7884 C   0  0  0  0  0  0  0  0  0  0  0  0
    4.5500   -3.3668    1.6506 C   0  0  0  0  0  0  0  0  0  0  0  0
    5.3117   -4.6152    2.0807 C   0  0  1  0  0  0  0  0  0  0  0  0
    5.9171   -4.4121    3.4935 C   0  0  0  0  0  0  0  0  0  0  0  0
    6.7518   -3.2328    3.5814 N   0  0  0  0  0  0  0  0  0  0  0  0
    8.1019   -3.3028    3.7911 C   0  0  0  0  0  0  0  0  0  0  0  0
    8.6996   -4.3554    3.9635 O   0  0  0  0  0  0  0  0  0  0  0  0
    8.8448   -2.0086    3.8141 C   0  0  0  0  0  0  0  0  0  0  0  0
   10.1973   -1.9068    4.0500 C   0  0  0  0  0  0  0  0  0  0  0  0
   10.6860   -0.5717    4.0216 C   0  0  0  0  0  0  0  0  0  0  0  0
    9.6866    0.3351    3.7600 C   0  0  0  0  0  0  0  0  0  0  0  0
    9.8415    2.0477    3.6358 Cl  0  0  0  0  0  0  0  0  0  0  0  0
    8.1403   -0.4288    3.5450 S   0  0  0  0  0  0  0  0  0  0  0  0
    4.4504   -5.7908    2.0613 N   0  0  0  0  0  0  0  0  0  0  0  0
    3.9106   -6.1310    0.7446 C   0  0  0  0  0  0  0  0  0  0  0  0
    3.2258   -7.4868    0.9669 C   0  0  0  0  0  0  0  0  0  0  0  0
    4.0146   -8.1216    2.1426 C   0  0  0  0  0  0  0  0  0  0  0  0
    5.0324   -7.0405    2.5558 C   0  0  0  0  0  0  0  0  0  0  0  0
    3.2712   -3.0946    2.1544 C   0  0  0  0  0  0  0  0  0  0  0  0
    2.5829   -1.9246    1.8171 C   0  0  0  0  0  0  0  0  0  0  0  0
    1.0526    1.4726    0.5965 H   0  0  0  0  0  0  0  0  0  0  0  0
    1.2854    0.5900    2.1386 H   0  0  0  0  0  0  0  0  0  0  0  0
    0.5590   -0.2453    0.7246 H   0  0  0  0  0  0  0  0  0  0  0  0
    4.9097   -0.5138   -0.2277 H   0  0  0  0  0  0  0  0  0  0  0  0
    6.1237   -2.6080    0.3733 H   0  0  0  0  0  0  0  0  0  0  0  0
    6.1726   -4.7458    1.3832 H   0  0  0  0  0  0  0  0  0  0  0  0
    6.5621   -5.2575    3.7628 H   0  0  0  0  0  0  0  0  0  0  0  0
    5.0938   -4.3571    4.2272 H   0  0  0  0  0  0  0  0  0  0  0  0
    6.3136   -2.3340    3.4155 H   0  0  0  0  0  0  0  0  0  0  0  0
   10.8036   -2.7933    4.2377 H   0  0  0  0  0  0  0  0  0  0  0  0
   11.7236   -0.2809    4.1846 H   0  0  0  0  0  0  0  0  0  0  0  0
    4.7282   -6.2297   -0.0077 H   0  0  0  0  0  0  0  0  0  0  0  0
    3.2266   -5.3517    0.3790 H   0  0  0  0  0  0  0  0  0  0  0  0
    3.2425   -8.1046    0.0566 H   0  0  0  0  0  0  0  0  0  0  0  0
    2.1707   -7.3406    1.2436 H   0  0  0  0  0  0  0  0  0  0  0  0
    4.5223   -9.0552    1.8580 H   0  0  0  0  0  0  0  0  0  0  0  0
    3.3413   -8.3617    2.9791 H   0  0  0  0  0  0  0  0  0  0  0  0
    6.0211   -7.2395    2.0817 H   0  0  0  0  0  0  0  0  0  0  0  0
    5.1930   -7.0127    3.6433 H   0  0  0  0  0  0  0  0  0  0  0  0
    2.7980   -3.8284    2.8116 H   0  0  0  0  0  0  0  0  0  0  0  0
    1.5864   -1.7565    2.2264 H   0  0  0  0  0  0  0  0  0  0  0  0
  1  2  1  0
  1 25  1  0
  1 26  1  0
  1 27  1  0
  2  3  1  0
  3  4  2  0
  3 24  1  0
  4  5  1  0
  4 28  1  0
  5  6  2  0
  5 29  1  0
  6  7  1  0
  6 23  1  0
  7  8  1  0
  7 18  1  0
  7 30  1  6
  8  9  1  0
  8 31  1  0
  8 32  1  0
  9 10  1  0
  9 33  1  0
 10 11  2  0
 10 12  1  0
 12 13  2  0
 12 17  1  0
 13 14  1  0
 13 34  1  0
 14 15  2  0
 14 35  1  0
 15 16  1  0
 15 17  1  0
 18 19  1  0
 18 22  1  0
 19 20  1  0
 19 36  1  0
 19 37  1  0
 20 21  1  0
 20 38  1  0
 20 39  1  0
 21 22  1  0
 21 40  1  0
 21 41  1  0
 22 42  1  0
 22 43  1  0
 23 24  2  0
 23 44  1  0
 24 45  1  0
M  END

