
     RDKit          3D

 41 42  0  0  0  0  0  0  0  0999 V2000
    0.3875    0.3589    1.4053 C   0  0  0  0  0  0  0  0  0  0  0  0
    1.6982    0.2806    0.6406 C   0  0  0  0  0  0  0  0  0  0  0  0
    2.6460   -0.5935    1.2861 O   0  0  0  0  0  0  0  0  0  0  0  0
    3.4025   -0.0552    2.2843 C   0  0  0  0  0  0  0  0  0  0  0  0
    3.3178    1.1044    2.6165 O   0  0  0  0  0  0  0  0  0  0  0  0
    4.3133   -1.0289    2.8985 C   0  0  0  0  0  0  0  0  0  0  0  0
    5.2395   -0.7088    3.9248 C   0  0  0  0  0  0  0  0  0  0  0  0
    5.9124   -1.7747    4.3190 N   0  0  0  0  0  0  0  0  0  0  0  0
    5.4430   -2.7942    3.5640 N   0  0  0  0  0  0  0  0  0  0  0  0
    5.9937   -4.1203    3.7818 C   0  0  0  0  0  0  0  0  0  0  0  0
    4.4758   -2.4071    2.6871 C   0  0  0  0  0  0  0  0  0  0  0  0
    3.7727   -3.3469    1.7312 C   0  0  0  0  0  0  0  0  0  0  0  0
    4.0017   -3.1090    0.3072 N   0  0  0  0  0  0  0  0  0  0  0  0
    5.3751   -3.2800   -0.1887 C   0  0  1  0  0  0  0  0  0  0  0  0
    5.8059   -4.7561   -0.1858 C   0  0  0  0  0  0  0  0  0  0  0  0
    5.4902   -2.6776   -1.5633 C   0  0  0  0  0  0  0  0  0  0  0  0
    6.3989   -1.7887   -1.8994 N   0  0  0  0  0  0  0  0  0  0  0  0
    6.2315   -1.4890   -3.2238 N   0  0  0  0  0  0  0  0  0  0  0  0
    5.2237   -2.2022   -3.6558 C   0  0  0  0  0  0  0  0  0  0  0  0
    4.7042   -2.9784   -2.6536 N   0  0  0  0  0  0  0  0  0  0  0  0
    3.5965   -3.9157   -2.7613 C   0  0  0  0  0  0  0  0  0  0  0  0
   -0.3344    0.9756    0.8460 H   0  0  0  0  0  0  0  0  0  0  0  0
    0.5389    0.8213    2.3915 H   0  0  0  0  0  0  0  0  0  0  0  0
   -0.0510   -0.6418    1.5444 H   0  0  0  0  0  0  0  0  0  0  0  0
    2.1515    1.2766    0.5339 H   0  0  0  0  0  0  0  0  0  0  0  0
    1.5521   -0.1559   -0.3584 H   0  0  0  0  0  0  0  0  0  0  0  0
    5.4172    0.2679    4.3725 H   0  0  0  0  0  0  0  0  0  0  0  0
    6.6622   -4.0453    4.6469 H   0  0  0  0  0  0  0  0  0  0  0  0
    6.5730   -4.4640    2.9112 H   0  0  0  0  0  0  0  0  0  0  0  0
    5.2009   -4.8511    4.0016 H   0  0  0  0  0  0  0  0  0  0  0  0
    2.6894   -3.2503    1.8998 H   0  0  0  0  0  0  0  0  0  0  0  0
    4.0327   -4.3870    1.9749 H   0  0  0  0  0  0  0  0  0  0  0  0
    3.6841   -2.1609    0.1067 H   0  0  0  0  0  0  0  0  0  0  0  0
    6.1119   -2.7077    0.4098 H   0  0  0  0  0  0  0  0  0  0  0  0
    5.1326   -5.3744   -0.7988 H   0  0  0  0  0  0  0  0  0  0  0  0
    5.8042   -5.1759    0.8314 H   0  0  0  0  0  0  0  0  0  0  0  0
    6.8283   -4.8503   -0.5808 H   0  0  0  0  0  0  0  0  0  0  0  0
    4.8211   -2.1933   -4.6687 H   0  0  0  0  0  0  0  0  0  0  0  0
    2.8587   -3.5292   -3.4792 H   0  0  0  0  0  0  0  0  0  0  0  0
    3.1266   -4.0183   -1.7748 H   0  0  0  0  0  0  0  0  0  0  0  0
    3.9411   -4.9032   -3.1088 H   0  0  0  0  0  0  0  0  0  0  0  0
  1  2  1  0
  1 22  1  0
  1 23  1  0
  1 24  1  0
  2  3  1  0
  2 25  1  0
  2 26  1  0
  3  4  1  0
  4  5  2  0
  4  6  1  0
  6  7  1  0
  6 11  2  0
  7  8  2  0
  7 27  1  0
  8  9  1  0
  9 10  1  0
  9 11  1  0
 10 28  1  0
 10 29  1  0
 10 30  1  0
 11 12  1  0
 12 13  1  0
 12 31  1  0
 12 32  1  0
 13 14  1  0
 13 33  1  0
 14 15  1  0
 14 16  1  0
 14 34  1  1
 15 35  1  0
 15 36  1  0
 15 37  1  0
 16 17  2  0
 16 20  1  0
 17 18  1  0
 18 19  2  0
 19 20  1  0
 19 38  1  0
 20 21  1  0
 21 39  1  0
 21 40  1  0
 21 41  1  0
M  END

