
     RDKit          3D

 34 36  0  0  0  0  0  0  0  0999 V2000
    1.3952    0.7303   -0.0844 C   0  0  0  0  0  0  0  0  0  0  0  0
    2.5318    0.5097    0.1438 N   0  0  0  0  0  0  0  0  0  0  0  0
    3.8774    0.3277    0.3495 C   0  0  0  0  0  0  0  0  0  0  0  0
    4.8069    1.2640   -0.3373 C   0  0  0  0  0  0  0  0  0  0  0  0
    6.0199    1.1771   -0.2453 O   0  0  0  0  0  0  0  0  0  0  0  0
    4.1759    2.3095   -1.0242 N   0  0  0  0  0  0  0  0  0  0  0  0
    4.4586    2.5610   -2.2330 C   0  0  0  0  0  0  0  0  0  0  0  0
    4.3311   -0.7062    1.1454 C   0  0  0  0  0  0  0  0  0  0  0  0
    5.6607   -0.9502    1.3908 N   0  0  0  0  0  0  0  0  0  0  0  0
    5.8868   -2.0254    2.2112 C   0  0  0  0  0  0  0  0  0  0  0  0
    7.2027   -2.3855    2.5512 C   0  0  0  0  0  0  0  0  0  0  0  0
    8.3170   -1.5673    2.0116 C   0  0  0  0  0  0  0  0  0  0  0  0
    8.1953   -0.5999    1.2677 O   0  0  0  0  0  0  0  0  0  0  0  0
    9.6011   -1.9380    2.3908 N   0  0  0  0  0  0  0  0  0  0  0  0
   10.3541   -1.3664    2.0165 H   0  0  0  0  0  0  0  0  0  0  0  0
    9.9782   -2.9936    3.2034 C   0  0  0  0  0  0  0  0  0  0  0  0
   11.1285   -3.2472    3.4771 O   0  0  0  0  0  0  0  0  0  0  0  0
    8.9001   -3.7261    3.6649 N   0  0  0  0  0  0  0  0  0  0  0  0
    9.1225   -4.5187    4.2613 H   0  0  0  0  0  0  0  0  0  0  0  0
    7.5390   -3.5342    3.4156 C   0  0  0  0  0  0  0  0  0  0  0  0
    6.7571   -4.3207    3.9237 O   0  0  0  0  0  0  0  0  0  0  0  0
    4.5383   -2.5553    2.5471 C   0  0  0  0  0  0  0  0  0  0  0  0
    4.0894   -3.6226    3.3345 C   0  0  0  0  0  0  0  0  0  0  0  0
    2.7122   -3.8483    3.4479 C   0  0  0  0  0  0  0  0  0  0  0  0
    1.7855   -3.0339    2.7920 C   0  0  0  0  0  0  0  0  0  0  0  0
    2.2151   -1.9636    2.0002 C   0  0  0  0  0  0  0  0  0  0  0  0
    3.5872   -1.7311    1.8830 C   0  0  0  0  0  0  0  0  0  0  0  0
    4.0215    3.4453   -2.7182 H   0  0  0  0  0  0  0  0  0  0  0  0
    5.1397    1.9316   -2.8349 H   0  0  0  0  0  0  0  0  0  0  0  0
    6.4419   -0.3935    1.0075 H   0  0  0  0  0  0  0  0  0  0  0  0
    4.8076   -4.2585    3.8418 H   0  0  0  0  0  0  0  0  0  0  0  0
    2.3624   -4.6807    4.0633 H   0  0  0  0  0  0  0  0  0  0  0  0
    0.7156   -3.2297    2.8948 H   0  0  0  0  0  0  0  0  0  0  0  0
    1.4885   -1.3330    1.4925 H   0  0  0  0  0  0  0  0  0  0  0  0
  1  2  2  0
  2  3  2  0
  3  4  1  0
  3  8  1  0
  4  5  2  0
  4  6  1  0
  6  7  2  0
  7 28  1  0
  7 29  1  0
  8  9  2  0
  8 27  1  0
  9 10  1  0
  9 30  1  0
 10 11  2  0
 10 22  1  0
 11 12  1  0
 11 20  1  0
 12 13  1  0
 12 14  2  0
 14 15  1  0
 14 16  1  0
 16 17  1  0
 16 18  2  0
 18 19  1  0
 18 20  1  0
 20 21  2  0
 22 23  2  0
 22 27  1  0
 23 24  1  0
 23 31  1  0
 24 25  2  0
 24 32  1  0
 25 26  1  0
 25 33  1  0
 26 27  2  0
 26 34  1  0
M  CHG  7   1  -2   2   1   9   1  13  -1  14   1  17  -1  18   1
M  END

