
     RDKit          3D

 33 32  0  0  0  0  0  0  0  0999 V2000
    1.0500    2.2304   -2.0766 C   0  0  0  0  0  0  0  0  0  0  0  0
    2.4898    2.3331   -1.8857 N   0  0  0  0  0  0  0  0  0  0  0  0
    3.0161    1.8588   -0.6041 C   0  0  1  0  0  0  0  0  0  0  0  0
    2.6018    0.4143   -0.2954 C   0  0  0  0  0  0  0  0  0  0  0  0
    4.5569    1.9313   -0.5817 C   0  0  0  0  0  0  0  0  0  0  0  0
    5.1688    1.9541    0.4753 O   0  0  0  0  0  0  0  0  0  0  0  0
    5.1392    1.9157   -1.8108 N   0  0  0  0  0  0  0  0  0  0  0  0
    6.5806    1.8682   -2.0276 C   0  0  1  0  0  0  0  0  0  0  0  0
    6.9637    0.6036   -2.8038 C   0  0  0  0  0  0  0  0  0  0  0  0
    7.1004    3.1406   -2.7168 C   0  0  0  0  0  0  0  0  0  0  0  0
    6.8483    4.4351   -1.9417 C   0  0  0  0  0  0  0  0  0  0  0  0
    7.5191    5.6569   -2.5699 C   0  0  0  0  0  0  0  0  0  0  0  0
    8.9240    5.5299   -2.6831 O   0  0  0  0  0  0  0  0  0  0  0  0
    0.7713    2.7493   -3.0068 H   0  0  0  0  0  0  0  0  0  0  0  0
    0.4488    2.6676   -1.2502 H   0  0  0  0  0  0  0  0  0  0  0  0
    0.7431    1.1796   -2.1894 H   0  0  0  0  0  0  0  0  0  0  0  0
    2.7648    3.3082   -2.0018 H   0  0  0  0  0  0  0  0  0  0  0  0
    2.6892    2.4903    0.2488 H   0  0  0  0  0  0  0  0  0  0  0  0
    2.8792   -0.2553   -1.1256 H   0  0  0  0  0  0  0  0  0  0  0  0
    1.5190    0.3264   -0.1213 H   0  0  0  0  0  0  0  0  0  0  0  0
    3.1195    0.0808    0.6151 H   0  0  0  0  0  0  0  0  0  0  0  0
    4.4969    1.8610   -2.5994 H   0  0  0  0  0  0  0  0  0  0  0  0
    7.0156    1.8146   -1.0172 H   0  0  0  0  0  0  0  0  0  0  0  0
    6.5077    0.6010   -3.8090 H   0  0  0  0  0  0  0  0  0  0  0  0
    6.6268   -0.3002   -2.2737 H   0  0  0  0  0  0  0  0  0  0  0  0
    8.0554    0.5404   -2.9348 H   0  0  0  0  0  0  0  0  0  0  0  0
    6.6513    3.2191   -3.7258 H   0  0  0  0  0  0  0  0  0  0  0  0
    8.1858    3.0357   -2.8783 H   0  0  0  0  0  0  0  0  0  0  0  0
    7.2063    4.3194   -0.9011 H   0  0  0  0  0  0  0  0  0  0  0  0
    5.7646    4.6291   -1.8602 H   0  0  0  0  0  0  0  0  0  0  0  0
    7.2404    6.5671   -2.0006 H   0  0  0  0  0  0  0  0  0  0  0  0
    7.1481    5.8015   -3.5990 H   0  0  0  0  0  0  0  0  0  0  0  0
    9.2887    5.4506   -1.7914 H   0  0  0  0  0  0  0  0  0  0  0  0
  1  2  1  0
  1 14  1  0
  1 15  1  0
  1 16  1  0
  2  3  1  0
  2 17  1  0
  3  4  1  0
  3  5  1  0
  3 18  1  1
  4 19  1  0
  4 20  1  0
  4 21  1  0
  5  6  2  0
  5  7  1  0
  7  8  1  0
  7 22  1  0
  8  9  1  0
  8 10  1  0
  8 23  1  1
  9 24  1  0
  9 25  1  0
  9 26  1  0
 10 11  1  0
 10 27  1  0
 10 28  1  0
 11 12  1  0
 11 29  1  0
 11 30  1  0
 12 13  1  0
 12 31  1  0
 12 32  1  0
 13 33  1  0
M  END

