
     RDKit          3D

 47 49  0  0  0  0  0  0  0  0999 V2000
    1.1488    0.0942    0.6533 C   0  0  0  0  0  0  0  0  0  0  0  0
    2.5896    0.1688    0.2192 C   0  0  0  0  0  0  0  0  0  0  0  0
    3.2184    1.3979    0.0022 C   0  0  0  0  0  0  0  0  0  0  0  0
    4.5486    1.4890   -0.4126 C   0  0  0  0  0  0  0  0  0  0  0  0
    5.2810    0.3193   -0.6335 C   0  0  0  0  0  0  0  0  0  0  0  0
    6.7146    0.4642   -1.0772 C   0  0  0  0  0  0  0  0  0  0  0  0
    7.3565    1.4793   -0.8503 O   0  0  0  0  0  0  0  0  0  0  0  0
    7.2404   -0.6052   -1.7546 N   0  0  0  0  0  0  0  0  0  0  0  0
    8.6071   -0.6354   -2.2438 C   0  0  0  0  0  0  0  0  0  0  0  0
    9.3028   -1.9404   -1.9212 C   0  0  1  0  0  0  0  0  0  0  0  0
    9.1185   -3.1464   -2.8147 C   0  0  0  0  0  0  0  0  0  0  0  0
   10.4407   -2.4219   -2.7812 C   0  0  0  0  0  0  0  0  0  0  0  0
    4.6788   -0.9278   -0.4007 C   0  0  0  0  0  0  0  0  0  0  0  0
    3.3392   -1.0236    0.0181 C   0  0  0  0  0  0  0  0  0  0  0  0
    2.7185   -2.2535    0.2242 N   0  0  0  0  0  0  0  0  0  0  0  0
    3.4463   -3.5044    0.2168 C   0  0  0  0  0  0  0  0  0  0  0  0
    2.5192   -4.6917    0.3741 C   0  0  0  0  0  0  0  0  0  0  0  0
    1.3358   -4.7834   -0.3798 C   0  0  0  0  0  0  0  0  0  0  0  0
    0.4992   -5.8900   -0.2613 C   0  0  0  0  0  0  0  0  0  0  0  0
    0.8136   -6.9306    0.6278 C   0  0  0  0  0  0  0  0  0  0  0  0
   -0.1282   -8.1015    0.6983 C   0  0  0  0  0  0  0  0  0  0  0  0
   -0.9445   -8.3393   -0.1519 O   0  0  0  0  0  0  0  0  0  0  0  0
   -0.0236   -8.8975    1.7872 O   0  0  0  0  0  0  0  0  0  0  0  0
    1.9994   -6.8482    1.3724 C   0  0  0  0  0  0  0  0  0  0  0  0
    2.8392   -5.7390    1.2485 C   0  0  0  0  0  0  0  0  0  0  0  0
    0.7012    1.0958    0.7176 H   0  0  0  0  0  0  0  0  0  0  0  0
    1.0382   -0.3745    1.6495 H   0  0  0  0  0  0  0  0  0  0  0  0
    0.5432   -0.5039   -0.0501 H   0  0  0  0  0  0  0  0  0  0  0  0
    2.6424    2.3139    0.1625 H   0  0  0  0  0  0  0  0  0  0  0  0
    5.0341    2.4531   -0.5686 H   0  0  0  0  0  0  0  0  0  0  0  0
    6.6202   -1.3529   -2.0387 H   0  0  0  0  0  0  0  0  0  0  0  0
    9.1207    0.2179   -1.7778 H   0  0  0  0  0  0  0  0  0  0  0  0
    8.6333   -0.4659   -3.3379 H   0  0  0  0  0  0  0  0  0  0  0  0
    9.3842   -2.1430   -0.8472 H   0  0  0  0  0  0  0  0  0  0  0  0
    8.5007   -3.0324   -3.7120 H   0  0  0  0  0  0  0  0  0  0  0  0
    9.0539   -4.1355   -2.3524 H   0  0  0  0  0  0  0  0  0  0  0  0
   10.7157   -1.8183   -3.6520 H   0  0  0  0  0  0  0  0  0  0  0  0
   11.2893   -2.9075   -2.2919 H   0  0  0  0  0  0  0  0  0  0  0  0
    5.2729   -1.8359   -0.5064 H   0  0  0  0  0  0  0  0  0  0  0  0
    1.9333   -2.2354    0.8650 H   0  0  0  0  0  0  0  0  0  0  0  0
    4.2338   -3.5457    0.9976 H   0  0  0  0  0  0  0  0  0  0  0  0
    3.9742   -3.5979   -0.7505 H   0  0  0  0  0  0  0  0  0  0  0  0
    1.0774   -3.9739   -1.0664 H   0  0  0  0  0  0  0  0  0  0  0  0
   -0.4128   -5.9745   -0.8552 H   0  0  0  0  0  0  0  0  0  0  0  0
    0.5719   -8.5047    2.4402 H   0  0  0  0  0  0  0  0  0  0  0  0
    2.3011   -7.6589    2.0426 H   0  0  0  0  0  0  0  0  0  0  0  0
    3.7594   -5.6909    1.8370 H   0  0  0  0  0  0  0  0  0  0  0  0
  1  2  1  0
  1 26  1  0
  1 27  1  0
  1 28  1  0
  2  3  2  0
  2 14  1  0
  3  4  1  0
  3 29  1  0
  4  5  2  0
  4 30  1  0
  5  6  1  0
  5 13  1  0
  6  7  2  0
  6  8  1  0
  8  9  1  0
  8 31  1  0
  9 10  1  0
  9 32  1  0
  9 33  1  0
 10 11  1  0
 10 12  1  0
 10 34  1  1
 11 12  1  0
 11 35  1  0
 11 36  1  0
 12 37  1  0
 12 38  1  0
 13 14  2  0
 13 39  1  0
 14 15  1  0
 15 16  1  0
 15 40  1  0
 16 17  1  0
 16 41  1  0
 16 42  1  0
 17 18  2  0
 17 25  1  0
 18 19  1  0
 18 43  1  0
 19 20  2  0
 19 44  1  0
 20 21  1  0
 20 24  1  0
 21 22  2  0
 21 23  1  0
 23 45  1  0
 24 25  2  0
 24 46  1  0
 25 47  1  0
M  END

