
     RDKit          3D

 64 67  0  0  0  0  0  0  0  0999 V2000
    0.3655    0.2943    0.5001 C   0  0  0  0  0  0  0  0  0  0  0  0
    1.8721    0.2482    0.2423 C   0  0  1  0  0  0  0  0  0  0  0  0
    2.3945    0.5211    1.1735 H   0  0  0  0  0  0  0  0  0  0  0  0
    2.3785   -1.1339   -0.1901 C   0  0  0  0  0  0  0  0  0  0  0  0
    1.9878   -1.4091   -1.5709 N   0  0  0  0  0  0  0  0  0  0  0  0
    1.3717   -2.5962   -1.8766 C   0  0  0  0  0  0  0  0  0  0  0  0
    1.0975   -3.4347   -1.0388 O   0  0  0  0  0  0  0  0  0  0  0  0
    1.0449   -2.8460   -3.3685 C   0  0  0  0  0  0  0  0  0  0  0  0
    0.2939   -4.0561   -3.5683 N   0  0  0  0  0  0  0  0  0  0  0  0
    0.8339   -5.3165   -3.6895 C   0  0  0  0  0  0  0  0  0  0  0  0
   -0.1679   -6.2583   -3.7872 C   0  0  0  0  0  0  0  0  0  0  0  0
    0.0327   -8.0088   -3.9355 S   0  0  0  0  0  0  0  0  0  0  0  0
    0.0559   -8.2353   -5.7623 C   0  0  0  0  0  0  0  0  0  0  0  0
    1.3524   -7.9095   -6.5166 C   0  0  0  0  0  0  0  0  0  0  0  0
    1.3128   -7.6821   -7.7151 O   0  0  0  0  0  0  0  0  0  0  0  0
    2.4977   -7.9522   -5.7835 N   0  0  0  0  0  0  0  0  0  0  0  0
    3.8196   -7.7442   -6.3507 C   0  0  2  0  0  0  0  0  0  0  0  0
    4.7026   -8.9958   -6.2027 C   0  0  0  0  0  0  0  0  0  0  0  0
    6.1037   -8.7780   -6.7892 C   0  0  0  0  0  0  0  0  0  0  0  0
    6.7870   -7.5457   -6.1828 C   0  0  0  0  0  0  0  0  0  0  0  0
    5.9123   -6.2942   -6.3316 C   0  0  0  0  0  0  0  0  0  0  0  0
    4.5106   -6.5095   -5.7452 C   0  0  0  0  0  0  0  0  0  0  0  0
   -1.4191   -5.5424   -3.6919 C   0  0  0  0  0  0  0  0  0  0  0  0
   -2.7697   -5.9307   -3.7162 C   0  0  0  0  0  0  0  0  0  0  0  0
   -3.7521   -4.9530   -3.5936 C   0  0  0  0  0  0  0  0  0  0  0  0
   -3.4088   -3.5921   -3.4448 C   0  0  0  0  0  0  0  0  0  0  0  0
   -2.0781   -3.1807   -3.4157 C   0  0  0  0  0  0  0  0  0  0  0  0
   -1.0895   -4.1662   -3.5445 C   0  0  0  0  0  0  0  0  0  0  0  0
    2.4196   -0.3799   -2.5083 C   0  0  0  0  0  0  0  0  0  0  0  0
    1.9267    1.0016   -2.0481 C   0  0  2  0  0  0  0  0  0  0  0  0
    0.8214    1.0103   -2.1406 H   0  0  0  0  0  0  0  0  0  0  0  0
    2.5068    2.1327   -2.8812 C   0  0  0  0  0  0  0  0  0  0  0  0
    2.3001    1.2353   -0.6995 O   0  0  0  0  0  0  0  0  0  0  0  0
    0.1111   -0.3289    1.3713 H   0  0  0  0  0  0  0  0  0  0  0  0
   -0.2190   -0.0819   -0.3534 H   0  0  0  0  0  0  0  0  0  0  0  0
    0.0517    1.3283    0.7088 H   0  0  0  0  0  0  0  0  0  0  0  0
    1.9754   -1.9336    0.4433 H   0  0  0  0  0  0  0  0  0  0  0  0
    3.4817   -1.1503   -0.1177 H   0  0  0  0  0  0  0  0  0  0  0  0
    1.9854   -2.9072   -3.9406 H   0  0  0  0  0  0  0  0  0  0  0  0
    0.4773   -2.0035   -3.7911 H   0  0  0  0  0  0  0  0  0  0  0  0
    1.9125   -5.4578   -3.7033 H   0  0  0  0  0  0  0  0  0  0  0  0
   -0.7530   -7.6552   -6.2260 H   0  0  0  0  0  0  0  0  0  0  0  0
   -0.1695   -9.3022   -5.9288 H   0  0  0  0  0  0  0  0  0  0  0  0
    2.4009   -8.1274   -4.7859 H   0  0  0  0  0  0  0  0  0  0  0  0
    3.6457   -7.5592   -7.4231 H   0  0  0  0  0  0  0  0  0  0  0  0
    4.2051   -9.8515   -6.6876 H   0  0  0  0  0  0  0  0  0  0  0  0
    4.7884   -9.2472   -5.1281 H   0  0  0  0  0  0  0  0  0  0  0  0
    6.0201   -8.6451   -7.8834 H   0  0  0  0  0  0  0  0  0  0  0  0
    6.7223   -9.6776   -6.6335 H   0  0  0  0  0  0  0  0  0  0  0  0
    7.7711   -7.3826   -6.6533 H   0  0  0  0  0  0  0  0  0  0  0  0
    6.9819   -7.7283   -5.1095 H   0  0  0  0  0  0  0  0  0  0  0  0
    5.8186   -6.0421   -7.4038 H   0  0  0  0  0  0  0  0  0  0  0  0
    6.3951   -5.4267   -5.8509 H   0  0  0  0  0  0  0  0  0  0  0  0
    3.8777   -5.6221   -5.9121 H   0  0  0  0  0  0  0  0  0  0  0  0
    4.5883   -6.6460   -4.6491 H   0  0  0  0  0  0  0  0  0  0  0  0
   -3.0303   -6.9865   -3.8225 H   0  0  0  0  0  0  0  0  0  0  0  0
   -4.8067   -5.2393   -3.6075 H   0  0  0  0  0  0  0  0  0  0  0  0
   -4.2014   -2.8463   -3.3444 H   0  0  0  0  0  0  0  0  0  0  0  0
   -1.8262   -2.1256   -3.2870 H   0  0  0  0  0  0  0  0  0  0  0  0
    2.0477   -0.5837   -3.5198 H   0  0  0  0  0  0  0  0  0  0  0  0
    3.5264   -0.3637   -2.5561 H   0  0  0  0  0  0  0  0  0  0  0  0
    2.2192    2.0336   -3.9397 H   0  0  0  0  0  0  0  0  0  0  0  0
    3.6059    2.1376   -2.8107 H   0  0  0  0  0  0  0  0  0  0  0  0
    2.1382    3.0991   -2.5079 H   0  0  0  0  0  0  0  0  0  0  0  0
  1  2  1  0
  1 34  1  0
  1 35  1  0
  1 36  1  0
  2  3  1  1
  2  4  1  0
  2 33  1  0
  4  5  1  0
  4 37  1  0
  4 38  1  0
  5  6  1  0
  5 29  1  0
  6  7  2  0
  6  8  1  0
  8  9  1  0
  8 39  1  0
  8 40  1  0
  9 10  1  0
  9 28  1  0
 10 11  2  0
 10 41  1  0
 11 12  1  0
 11 23  1  0
 12 13  1  0
 13 14  1  0
 13 42  1  0
 13 43  1  0
 14 15  2  0
 14 16  1  0
 16 17  1  0
 16 44  1  0
 17 18  1  0
 17 22  1  0
 17 45  1  6
 18 19  1  0
 18 46  1  0
 18 47  1  0
 19 20  1  0
 19 48  1  0
 19 49  1  0
 20 21  1  0
 20 50  1  0
 20 51  1  0
 21 22  1  0
 21 52  1  0
 21 53  1  0
 22 54  1  0
 22 55  1  0
 23 24  1  0
 23 28  2  0
 24 25  2  0
 24 56  1  0
 25 26  1  0
 25 57  1  0
 26 27  2  0
 26 58  1  0
 27 28  1  0
 27 59  1  0
 29 30  1  0
 29 60  1  0
 29 61  1  0
 30 31  1  1
 30 32  1  0
 30 33  1  0
 32 62  1  0
 32 63  1  0
 32 64  1  0
M  END

