
     RDKit          3D

 19 19  0  0  0  0  0  0  0  0999 V2000
    1.7168    1.1872    0.2081 O   0  0  0  0  0  0  0  0  0  0  0  0
    2.3224    0.1695    0.0008 C   0  0  0  0  0  0  0  0  0  0  0  0
    2.5487   -0.2759   -1.2491 O   0  0  0  0  0  0  0  0  0  0  0  0
    2.9157   -0.7154    1.0942 C   0  0  1  0  0  0  0  0  0  0  0  0
    2.4073   -0.4605    2.5250 C   0  0  0  0  0  0  0  0  0  0  0  0
    2.3777   -1.8596    3.2148 C   0  0  0  0  0  0  0  0  0  0  0  0
    3.0168   -2.8441    2.2139 C   0  0  0  0  0  0  0  0  0  0  0  0
    2.6877   -2.2246    0.8566 C   0  0  2  0  0  0  0  0  0  0  0  0
    3.3996   -2.7275   -0.2683 O   0  0  0  0  0  0  0  0  0  0  0  0
    2.9767   -1.1576   -1.2170 H   0  0  0  0  0  0  0  0  0  0  0  0
    4.0119   -0.5594    1.0519 H   0  0  0  0  0  0  0  0  0  0  0  0
    1.4101    0.0011    2.4908 H   0  0  0  0  0  0  0  0  0  0  0  0
    3.0570    0.2509    3.0544 H   0  0  0  0  0  0  0  0  0  0  0  0
    1.3377   -2.1601    3.4184 H   0  0  0  0  0  0  0  0  0  0  0  0
    2.8989   -1.8638    4.1832 H   0  0  0  0  0  0  0  0  0  0  0  0
    2.6567   -3.8790    2.3148 H   0  0  0  0  0  0  0  0  0  0  0  0
    4.1164   -2.8619    2.3354 H   0  0  0  0  0  0  0  0  0  0  0  0
    1.6245   -2.4016    0.6193 H   0  0  0  0  0  0  0  0  0  0  0  0
    4.3396   -2.7812   -0.0392 H   0  0  0  0  0  0  0  0  0  0  0  0
  1  2  2  0
  2  3  1  0
  2  4  1  0
  3 10  1  0
  4  5  1  0
  4  8  1  0
  4 11  1  1
  5  6  1  0
  5 12  1  0
  5 13  1  0
  6  7  1  0
  6 14  1  0
  6 15  1  0
  7  8  1  0
  7 16  1  0
  7 17  1  0
  8  9  1  0
  8 18  1  6
  9 19  1  0
M  END

