
     RDKit          3D

 44 46  0  0  0  0  0  0  0  0999 V2000
    4.4865   -0.0604    2.8621 C   0  0  0  0  0  0  0  0  0  0  0  0
    4.7534   -0.4581    1.4150 C   0  0  0  0  0  0  0  0  0  0  0  0
    3.5697   -1.0331    0.7929 N   0  0  0  0  0  0  0  0  0  0  0  0
    3.7461   -1.4586   -0.5941 C   0  0  0  0  0  0  0  0  0  0  0  0
    4.5465   -2.7253   -0.7191 C   0  0  0  0  0  0  0  0  0  0  0  0
    5.7539   -2.9154   -1.3700 C   0  0  0  0  0  0  0  0  0  0  0  0
    6.0880   -4.2268   -1.2232 N   0  0  0  0  0  0  0  0  0  0  0  0
    7.2884   -4.8942   -1.6788 C   0  0  0  0  0  0  0  0  0  0  0  0
    8.4967   -4.7208   -0.7586 C   0  0  2  0  0  0  0  0  0  0  0  0
    8.3022   -5.1287    0.7249 C   0  0  0  0  0  0  0  0  0  0  0  0
    8.9605   -3.9800    1.4521 C   0  0  0  0  0  0  0  0  0  0  0  0
    9.2582   -3.7709    2.7932 C   0  0  0  0  0  0  0  0  0  0  0  0
    9.8431   -2.5557    3.2076 C   0  0  0  0  0  0  0  0  0  0  0  0
   10.1852   -2.3320    4.6622 C   0  0  0  0  0  0  0  0  0  0  0  0
   10.1018   -1.5736    2.2391 C   0  0  0  0  0  0  0  0  0  0  0  0
    9.8053   -1.7656    0.8811 C   0  0  0  0  0  0  0  0  0  0  0  0
    9.2352   -2.9786    0.5127 C   0  0  0  0  0  0  0  0  0  0  0  0
    8.8815   -3.3263   -0.7582 O   0  0  0  0  0  0  0  0  0  0  0  0
    5.1706   -4.9016   -0.4979 N   0  0  0  0  0  0  0  0  0  0  0  0
    4.2293   -4.0126   -0.1875 C   0  0  0  0  0  0  0  0  0  0  0  0
    3.0187   -4.4010    0.6034 C   0  0  0  0  0  0  0  0  0  0  0  0
    5.3936    0.3523    3.3310 H   0  0  0  0  0  0  0  0  0  0  0  0
    4.1537   -0.9299    3.4502 H   0  0  0  0  0  0  0  0  0  0  0  0
    3.6995    0.7112    2.9278 H   0  0  0  0  0  0  0  0  0  0  0  0
    5.5580   -1.2116    1.3818 H   0  0  0  0  0  0  0  0  0  0  0  0
    5.1414    0.4232    0.8516 H   0  0  0  0  0  0  0  0  0  0  0  0
    2.7967   -0.3710    0.8482 H   0  0  0  0  0  0  0  0  0  0  0  0
    4.2225   -0.6749   -1.2257 H   0  0  0  0  0  0  0  0  0  0  0  0
    2.7381   -1.6213   -1.0142 H   0  0  0  0  0  0  0  0  0  0  0  0
    6.3967   -2.2234   -1.9103 H   0  0  0  0  0  0  0  0  0  0  0  0
    7.5495   -4.5125   -2.6779 H   0  0  0  0  0  0  0  0  0  0  0  0
    7.0499   -5.9635   -1.7714 H   0  0  0  0  0  0  0  0  0  0  0  0
    9.3345   -5.2889   -1.2049 H   0  0  0  0  0  0  0  0  0  0  0  0
    8.7680   -6.1036    0.9363 H   0  0  0  0  0  0  0  0  0  0  0  0
    7.2317   -5.2120    0.9771 H   0  0  0  0  0  0  0  0  0  0  0  0
    9.0392   -4.5474    3.5328 H   0  0  0  0  0  0  0  0  0  0  0  0
    9.3113   -2.4982    5.3142 H   0  0  0  0  0  0  0  0  0  0  0  0
   10.5443   -1.3073    4.8396 H   0  0  0  0  0  0  0  0  0  0  0  0
   10.9749   -3.0236    5.0035 H   0  0  0  0  0  0  0  0  0  0  0  0
   10.5540   -0.6275    2.5503 H   0  0  0  0  0  0  0  0  0  0  0  0
   10.0144   -0.9959    0.1359 H   0  0  0  0  0  0  0  0  0  0  0  0
    3.1496   -5.4045    1.0324 H   0  0  0  0  0  0  0  0  0  0  0  0
    2.1148   -4.4176   -0.0309 H   0  0  0  0  0  0  0  0  0  0  0  0
    2.8363   -3.6717    1.4067 H   0  0  0  0  0  0  0  0  0  0  0  0
  1  2  1  0
  1 22  1  0
  1 23  1  0
  1 24  1  0
  2  3  1  0
  2 25  1  0
  2 26  1  0
  3  4  1  0
  3 27  1  0
  4  5  1  0
  4 28  1  0
  4 29  1  0
  5  6  2  0
  5 20  1  0
  6  7  1  0
  6 30  1  0
  7  8  1  0
  7 19  1  0
  8  9  1  0
  8 31  1  0
  8 32  1  0
  9 10  1  0
  9 18  1  0
  9 33  1  6
 10 11  1  0
 10 34  1  0
 10 35  1  0
 11 12  1  0
 11 17  2  0
 12 13  2  0
 12 36  1  0
 13 14  1  0
 13 15  1  0
 14 37  1  0
 14 38  1  0
 14 39  1  0
 15 16  2  0
 15 40  1  0
 16 17  1  0
 16 41  1  0
 17 18  1  0
 19 20  2  0
 20 21  1  0
 21 42  1  0
 21 43  1  0
 21 44  1  0
M  END

