
     RDKit          3D

 35 38  0  0  0  0  0  0  0  0999 V2000
    1.2067    0.1707    1.4703 F   0  0  0  0  0  0  0  0  0  0  0  0
    2.4367    0.1169    0.9424 C   0  0  0  0  0  0  0  0  0  0  0  0
    2.6816    0.7421   -0.2775 C   0  0  0  0  0  0  0  0  0  0  0  0
    3.9659    0.6779   -0.8213 C   0  0  0  0  0  0  0  0  0  0  0  0
    5.0015   -0.0063   -0.1611 C   0  0  0  0  0  0  0  0  0  0  0  0
    6.3806    0.0164   -0.7117 C   0  0  0  0  0  0  0  0  0  0  0  0
    6.9915    1.2169   -1.0127 C   0  0  0  0  0  0  0  0  0  0  0  0
    8.3596    1.3011   -1.3835 C   0  0  0  0  0  0  0  0  0  0  0  0
    9.1254    0.1610   -1.4114 C   0  0  0  0  0  0  0  0  0  0  0  0
    8.5236   -1.0874   -1.1329 C   0  0  0  0  0  0  0  0  0  0  0  0
    9.0757   -2.2936   -1.1326 N   0  0  0  0  0  0  0  0  0  0  0  0
    8.0658   -3.1500   -0.8720 C   0  0  0  0  0  0  0  0  0  0  0  0
    6.8388   -2.5097   -0.7102 C   0  0  0  0  0  0  0  0  0  0  0  0
    5.5231   -3.1598   -0.5834 C   0  0  0  0  0  0  0  0  0  0  0  0
    5.3523   -4.1929    0.3582 C   0  0  0  0  0  0  0  0  0  0  0  0
    4.1462   -4.8924    0.4451 C   0  0  0  0  0  0  0  0  0  0  0  0
    3.0837   -4.5704   -0.4034 C   0  0  0  0  0  0  0  0  0  0  0  0
    3.2422   -3.5514   -1.3492 C   0  0  0  0  0  0  0  0  0  0  0  0
    4.4492   -2.8585   -1.4439 C   0  0  0  0  0  0  0  0  0  0  0  0
    7.1321   -1.1497   -0.8496 N   0  0  0  0  0  0  0  0  0  0  0  0
    4.7190   -0.6206    1.0731 C   0  0  0  0  0  0  0  0  0  0  0  0
    3.4424   -0.5621    1.6287 C   0  0  0  0  0  0  0  0  0  0  0  0
    1.8693    1.2634   -0.7874 H   0  0  0  0  0  0  0  0  0  0  0  0
    4.1653    1.1553   -1.7835 H   0  0  0  0  0  0  0  0  0  0  0  0
    6.4050    2.1280   -0.8890 H   0  0  0  0  0  0  0  0  0  0  0  0
    8.8002    2.2757   -1.6030 H   0  0  0  0  0  0  0  0  0  0  0  0
   10.1903    0.1638   -1.6463 H   0  0  0  0  0  0  0  0  0  0  0  0
    8.2171   -4.2300   -0.8507 H   0  0  0  0  0  0  0  0  0  0  0  0
    6.1748   -4.4377    1.0348 H   0  0  0  0  0  0  0  0  0  0  0  0
    4.0349   -5.6887    1.1858 H   0  0  0  0  0  0  0  0  0  0  0  0
    2.1372   -5.1123   -0.3319 H   0  0  0  0  0  0  0  0  0  0  0  0
    2.4213   -3.3007   -2.0260 H   0  0  0  0  0  0  0  0  0  0  0  0
    4.5674   -2.0835   -2.2033 H   0  0  0  0  0  0  0  0  0  0  0  0
    5.5103   -1.1440    1.6125 H   0  0  0  0  0  0  0  0  0  0  0  0
    3.2144   -1.0336    2.5863 H   0  0  0  0  0  0  0  0  0  0  0  0
  1  2  1  0
  2  3  2  0
  2 22  1  0
  3  4  1  0
  3 23  1  0
  4  5  2  0
  4 24  1  0
  5  6  1  0
  5 21  1  0
  6  7  2  0
  6 20  1  0
  7  8  1  0
  7 25  1  0
  8  9  2  0
  8 26  1  0
  9 10  1  0
  9 27  1  0
 10 11  2  0
 10 20  1  0
 11 12  1  0
 12 13  2  0
 12 28  1  0
 13 14  1  0
 13 20  1  0
 14 15  2  0
 14 19  1  0
 15 16  1  0
 15 29  1  0
 16 17  2  0
 16 30  1  0
 17 18  1  0
 17 31  1  0
 18 19  2  0
 18 32  1  0
 19 33  1  0
 21 22  2  0
 21 34  1  0
 22 35  1  0
M  END

