
     RDKit          3D

 39 41  0  0  0  0  0  0  0  0999 V2000
    1.3537    0.4209   -0.1674 C   0  0  0  0  0  0  0  0  0  0  0  0
    2.8625    0.1895   -0.0840 C   0  0  0  0  0  0  0  0  0  0  0  0
    3.2241   -1.1779    0.5066 C   0  0  0  0  0  0  0  0  0  0  0  0
    4.7035   -1.4280    0.6329 C   0  0  0  0  0  0  0  0  0  0  0  0
    5.5578   -0.4156    0.6976 N   0  0  0  0  0  0  0  0  0  0  0  0
    6.7896   -0.9770    0.7832 N   0  0  0  0  0  0  0  0  0  0  0  0
    7.9668   -0.1485    0.8788 C   0  0  0  0  0  0  0  0  0  0  0  0
    6.7326   -2.3357    0.7931 C   0  0  0  0  0  0  0  0  0  0  0  0
    7.8859   -3.1136    0.8495 N   0  0  0  0  0  0  0  0  0  0  0  0
    5.3826   -2.6905    0.6855 C   0  0  0  0  0  0  0  0  0  0  0  0
    4.8393   -4.0584    0.6362 C   0  0  0  0  0  0  0  0  0  0  0  0
    5.4766   -5.0685   -0.1190 C   0  0  0  0  0  0  0  0  0  0  0  0
    4.9849   -6.3739   -0.1413 C   0  0  0  0  0  0  0  0  0  0  0  0
    3.8297   -6.7096    0.5681 C   0  0  0  0  0  0  0  0  0  0  0  0
    3.1605   -5.7076    1.2998 C   0  0  0  0  0  0  0  0  0  0  0  0
    3.6719   -4.4090    1.3387 C   0  0  0  0  0  0  0  0  0  0  0  0
    2.0150   -5.9804    1.9975 O   0  0  0  0  0  0  0  0  0  0  0  0
    1.3880   -7.2025    1.6437 C   0  0  0  0  0  0  0  0  0  0  0  0
    2.4204   -8.3123    1.5324 C   0  0  0  0  0  0  0  0  0  0  0  0
    3.3725   -7.9997    0.5292 O   0  0  0  0  0  0  0  0  0  0  0  0
    1.1206    1.4085   -0.5966 H   0  0  0  0  0  0  0  0  0  0  0  0
    0.8826    0.3735    0.8293 H   0  0  0  0  0  0  0  0  0  0  0  0
    0.8615   -0.3394   -0.7977 H   0  0  0  0  0  0  0  0  0  0  0  0
    3.3364    0.9772    0.5233 H   0  0  0  0  0  0  0  0  0  0  0  0
    3.3149    0.2789   -1.0866 H   0  0  0  0  0  0  0  0  0  0  0  0
    2.7785   -1.9832   -0.1028 H   0  0  0  0  0  0  0  0  0  0  0  0
    2.7501   -1.2725    1.5029 H   0  0  0  0  0  0  0  0  0  0  0  0
    7.7264    0.8295    0.4432 H   0  0  0  0  0  0  0  0  0  0  0  0
    8.7939   -0.6056    0.3141 H   0  0  0  0  0  0  0  0  0  0  0  0
    8.2881    0.0043    1.9253 H   0  0  0  0  0  0  0  0  0  0  0  0
    8.5530   -2.8192    1.5599 H   0  0  0  0  0  0  0  0  0  0  0  0
    7.6746   -4.1017    0.9607 H   0  0  0  0  0  0  0  0  0  0  0  0
    6.3529   -4.8205   -0.7226 H   0  0  0  0  0  0  0  0  0  0  0  0
    5.4794   -7.1575   -0.7197 H   0  0  0  0  0  0  0  0  0  0  0  0
    3.1374   -3.6764    1.9447 H   0  0  0  0  0  0  0  0  0  0  0  0
    0.8550   -7.0907    0.6803 H   0  0  0  0  0  0  0  0  0  0  0  0
    0.6500   -7.4243    2.4287 H   0  0  0  0  0  0  0  0  0  0  0  0
    1.9499   -9.2642    1.2448 H   0  0  0  0  0  0  0  0  0  0  0  0
    2.9263   -8.4497    2.5073 H   0  0  0  0  0  0  0  0  0  0  0  0
  1  2  1  0
  1 21  1  0
  1 22  1  0
  1 23  1  0
  2  3  1  0
  2 24  1  0
  2 25  1  0
  3  4  1  0
  3 26  1  0
  3 27  1  0
  4  5  2  0
  4 10  1  0
  5  6  1  0
  6  7  1  0
  6  8  1  0
  7 28  1  0
  7 29  1  0
  7 30  1  0
  8  9  1  0
  8 10  2  0
  9 31  1  0
  9 32  1  0
 10 11  1  0
 11 12  2  0
 11 16  1  0
 12 13  1  0
 12 33  1  0
 13 14  2  0
 13 34  1  0
 14 15  1  0
 14 20  1  0
 15 16  2  0
 15 17  1  0
 16 35  1  0
 17 18  1  0
 18 19  1  0
 18 36  1  0
 18 37  1  0
 19 20  1  0
 19 38  1  0
 19 39  1  0
M  END

