
     RDKit          3D

 81 89  0  0  0  0  0  0  0  0999 V2000
    1.7805   -0.0172    0.1967 F   0  0  0  0  0  0  0  0  0  0  0  0
    3.1437   -0.0408    0.4355 B   0  0  1  0  0  0  0  0  0  0  0  0
    3.8798   -0.1954   -0.7284 F   0  0  0  0  0  0  0  0  0  0  0  0
    3.5341    1.3097    1.1630 N   0  0  0  0  0  0  0  0  0  0  0  0
    4.0802    1.3700    2.4386 C   0  0  0  0  0  0  0  0  0  0  0  0
    4.2153    2.7390    2.8260 C   0  0  0  0  0  0  0  0  0  0  0  0
    4.8036    3.2103    4.0966 C   0  0  0  0  0  0  0  0  0  0  0  0
    5.8374    4.1674    4.0981 C   0  0  0  0  0  0  0  0  0  0  0  0
    6.4079    4.5996    5.2957 C   0  0  0  0  0  0  0  0  0  0  0  0
    5.9564    4.0902    6.5182 C   0  0  0  0  0  0  0  0  0  0  0  0
    4.9269    3.1457    6.5332 C   0  0  0  0  0  0  0  0  0  0  0  0
    4.3547    2.7101    5.3348 C   0  0  0  0  0  0  0  0  0  0  0  0
    3.7326    3.5022    1.7508 C   0  0  0  0  0  0  0  0  0  0  0  0
    3.6718    4.9803    1.6634 C   0  0  0  0  0  0  0  0  0  0  0  0
    4.2033    5.6644    0.5538 C   0  0  0  0  0  0  0  0  0  0  0  0
    4.1542    7.0582    0.4816 C   0  0  0  0  0  0  0  0  0  0  0  0
    3.5723    7.7977    1.5159 C   0  0  0  0  0  0  0  0  0  0  0  0
    3.0400    7.1314    2.6238 C   0  0  0  0  0  0  0  0  0  0  0  0
    3.0895    5.7377    2.6973 C   0  0  0  0  0  0  0  0  0  0  0  0
    3.3053    2.5769    0.7420 C   0  0  0  0  0  0  0  0  0  0  0  0
    2.6489    2.9319   -0.5352 C   0  0  0  0  0  0  0  0  0  0  0  0
    3.1016    2.4455   -1.7755 C   0  0  0  0  0  0  0  0  0  0  0  0
    2.4706    2.8357   -2.9585 C   0  0  0  0  0  0  0  0  0  0  0  0
    1.3779    3.7062   -2.9258 C   0  0  0  0  0  0  0  0  0  0  0  0
    0.9180    4.1924   -1.6979 C   0  0  0  0  0  0  0  0  0  0  0  0
    1.5524    3.8163   -0.5141 C   0  0  0  0  0  0  0  0  0  0  0  0
    4.4208    0.2102    3.1309 C   0  0  0  0  0  0  0  0  0  0  0  0
    4.1769   -1.0620    2.6184 C   0  0  0  0  0  0  0  0  0  0  0  0
    4.4846   -2.3443    3.1691 C   0  0  0  0  0  0  0  0  0  0  0  0
    5.1362   -2.5761    4.4744 C   0  0  0  0  0  0  0  0  0  0  0  0
    6.3448   -1.9333    4.8075 C   0  0  0  0  0  0  0  0  0  0  0  0
    6.9478   -2.1414    6.0510 C   0  0  0  0  0  0  0  0  0  0  0  0
    6.3570   -2.9968    6.9845 C   0  0  0  0  0  0  0  0  0  0  0  0
    5.1597   -3.6463    6.6646 C   0  0  0  0  0  0  0  0  0  0  0  0
    4.5564   -3.4412    5.4233 C   0  0  0  0  0  0  0  0  0  0  0  0
    3.9990   -3.2928    2.2541 C   0  0  0  0  0  0  0  0  0  0  0  0
    4.0678   -4.7679    2.3765 C   0  0  0  0  0  0  0  0  0  0  0  0
    2.9198   -5.5650    2.2082 C   0  0  0  0  0  0  0  0  0  0  0  0
    2.9879   -6.9540    2.3353 C   0  0  0  0  0  0  0  0  0  0  0  0
    4.2045   -7.5760    2.6322 C   0  0  0  0  0  0  0  0  0  0  0  0
    5.3531   -6.7968    2.8013 C   0  0  0  0  0  0  0  0  0  0  0  0
    5.2857   -5.4077    2.6751 C   0  0  0  0  0  0  0  0  0  0  0  0
    3.4191   -2.5619    1.1657 C   0  0  0  0  0  0  0  0  0  0  0  0
    2.8577   -3.1508   -0.0699 C   0  0  0  0  0  0  0  0  0  0  0  0
    1.5673   -2.8361   -0.5339 C   0  0  0  0  0  0  0  0  0  0  0  0
    1.0646   -3.4447   -1.6857 C   0  0  0  0  0  0  0  0  0  0  0  0
    1.8385   -4.3666   -2.3958 C   0  0  0  0  0  0  0  0  0  0  0  0
    3.1234   -4.6840   -1.9443 C   0  0  0  0  0  0  0  0  0  0  0  0
    3.6257   -4.0886   -0.7874 C   0  0  0  0  0  0  0  0  0  0  0  0
    3.5207   -1.2326    1.4062 N   0  0  0  0  0  0  0  0  0  0  0  0
    6.1996    4.5643    3.1478 H   0  0  0  0  0  0  0  0  0  0  0  0
    7.2133    5.3384    5.2745 H   0  0  0  0  0  0  0  0  0  0  0  0
    6.4036    4.4316    7.4552 H   0  0  0  0  0  0  0  0  0  0  0  0
    4.5598    2.7487    7.4831 H   0  0  0  0  0  0  0  0  0  0  0  0
    3.5314    1.9924    5.3580 H   0  0  0  0  0  0  0  0  0  0  0  0
    4.6635    5.0957   -0.2569 H   0  0  0  0  0  0  0  0  0  0  0  0
    4.5750    7.5693   -0.3882 H   0  0  0  0  0  0  0  0  0  0  0  0
    3.5331    8.8885    1.4582 H   0  0  0  0  0  0  0  0  0  0  0  0
    2.5796    7.6997    3.4363 H   0  0  0  0  0  0  0  0  0  0  0  0
    2.6649    5.2246    3.5629 H   0  0  0  0  0  0  0  0  0  0  0  0
    3.9425    1.7550   -1.8100 H   0  0  0  0  0  0  0  0  0  0  0  0
    2.8364    2.4508   -3.9138 H   0  0  0  0  0  0  0  0  0  0  0  0
    0.8842    4.0044   -3.8544 H   0  0  0  0  0  0  0  0  0  0  0  0
    0.0603    4.8687   -1.6605 H   0  0  0  0  0  0  0  0  0  0  0  0
    1.1876    4.1984    0.4409 H   0  0  0  0  0  0  0  0  0  0  0  0
    4.8929    0.3014    4.1088 H   0  0  0  0  0  0  0  0  0  0  0  0
    6.8287   -1.2848    4.0736 H   0  0  0  0  0  0  0  0  0  0  0  0
    7.8883   -1.6367    6.2869 H   0  0  0  0  0  0  0  0  0  0  0  0
    6.8288   -3.1604    7.9567 H   0  0  0  0  0  0  0  0  0  0  0  0
    4.6901   -4.3168    7.3890 H   0  0  0  0  0  0  0  0  0  0  0  0
    3.6187   -3.9461    5.1835 H   0  0  0  0  0  0  0  0  0  0  0  0
    1.9642   -5.0880    1.9803 H   0  0  0  0  0  0  0  0  0  0  0  0
    2.0836   -7.5537    2.2027 H   0  0  0  0  0  0  0  0  0  0  0  0
    4.2574   -8.6634    2.7303 H   0  0  0  0  0  0  0  0  0  0  0  0
    6.3100   -7.2733    3.0297 H   0  0  0  0  0  0  0  0  0  0  0  0
    6.1891   -4.8070    2.8014 H   0  0  0  0  0  0  0  0  0  0  0  0
    0.9625   -2.1089    0.0051 H   0  0  0  0  0  0  0  0  0  0  0  0
    0.0592   -3.1914   -2.0315 H   0  0  0  0  0  0  0  0  0  0  0  0
    1.4423   -4.8362   -3.2999 H   0  0  0  0  0  0  0  0  0  0  0  0
    3.7389   -5.3994   -2.4955 H   0  0  0  0  0  0  0  0  0  0  0  0
    4.6296   -4.3398   -0.4404 H   0  0  0  0  0  0  0  0  0  0  0  0
  2  1  1  6
  2  3  1  0
  2  4  1  0
  2 50  1  0
  4  5  1  0
  4 20  1  0
  5  6  2  0
  5 27  1  0
  6  7  1  0
  6 13  1  0
  7  8  2  0
  7 12  1  0
  8  9  1  0
  8 51  1  0
  9 10  2  0
  9 52  1  0
 10 11  1  0
 10 53  1  0
 11 12  2  0
 11 54  1  0
 12 55  1  0
 13 14  1  0
 13 20  2  0
 14 15  2  0
 14 19  1  0
 15 16  1  0
 15 56  1  0
 16 17  2  0
 16 57  1  0
 17 18  1  0
 17 58  1  0
 18 19  2  0
 18 59  1  0
 19 60  1  0
 20 21  1  0
 21 22  2  0
 21 26  1  0
 22 23  1  0
 22 61  1  0
 23 24  2  0
 23 62  1  0
 24 25  1  0
 24 63  1  0
 25 26  2  0
 25 64  1  0
 26 65  1  0
 27 28  2  0
 27 66  1  0
 28 29  1  0
 28 50  1  0
 29 30  1  0
 29 36  2  0
 30 31  2  0
 30 35  1  0
 31 32  1  0
 31 67  1  0
 32 33  2  0
 32 68  1  0
 33 34  1  0
 33 69  1  0
 34 35  2  0
 34 70  1  0
 35 71  1  0
 36 37  1  0
 36 43  1  0
 37 38  2  0
 37 42  1  0
 38 39  1  0
 38 72  1  0
 39 40  2  0
 39 73  1  0
 40 41  1  0
 40 74  1  0
 41 42  2  0
 41 75  1  0
 42 76  1  0
 43 44  1  0
 43 50  2  0
 44 45  2  0
 44 49  1  0
 45 46  1  0
 45 77  1  0
 46 47  2  0
 46 78  1  0
 47 48  1  0
 47 79  1  0
 48 49  2  0
 48 80  1  0
 49 81  1  0
M  CHG  2   2  -1  50   1
M  END

