
     RDKit          3D

 54 58  0  0  0  0  0  0  0  0999 V2000
    2.0876    0.0442    0.6745 N   0  0  0  0  0  0  0  0  0  0  0  0
    3.2102    0.2637    0.4890 C   0  0  0  0  0  0  0  0  0  0  0  0
    4.6691    0.4717    0.2706 C   0  0  1  0  0  0  0  0  0  0  0  0
    5.2921    0.8802    1.6072 C   0  0  0  0  0  0  0  0  0  0  0  0
    4.6893    1.8611    2.4106 C   0  0  0  0  0  0  0  0  0  0  0  0
    5.2723    2.2499    3.6184 C   0  0  0  0  0  0  0  0  0  0  0  0
    6.4618    1.6551    4.0499 C   0  0  0  0  0  0  0  0  0  0  0  0
    7.0547    0.6619    3.2672 C   0  0  0  0  0  0  0  0  0  0  0  0
    6.4736    0.2735    2.0561 C   0  0  0  0  0  0  0  0  0  0  0  0
    5.2260   -0.7610   -0.1409 O   0  0  0  0  0  0  0  0  0  0  0  0
    4.9565   -0.9263   -1.5298 C   0  0  2  0  0  0  0  0  0  0  0  0
    3.8721   -1.1205   -1.6544 H   0  0  0  0  0  0  0  0  0  0  0  0
    5.7008   -2.1185   -2.0845 C   0  0  0  0  0  0  0  0  0  0  0  0
    5.3627   -2.6017   -3.3590 C   0  0  0  0  0  0  0  0  0  0  0  0
    6.0407   -3.6892   -3.9126 C   0  0  0  0  0  0  0  0  0  0  0  0
    7.0624   -4.3187   -3.1933 C   0  0  0  0  0  0  0  0  0  0  0  0
    7.3957   -3.8522   -1.9197 C   0  0  0  0  0  0  0  0  0  0  0  0
    6.7202   -2.7584   -1.3675 C   0  0  0  0  0  0  0  0  0  0  0  0
    5.2635    0.4580   -2.1534 C   0  0  2  0  0  0  0  0  0  0  0  0
    4.6237    0.6096   -3.0299 H   0  0  0  0  0  0  0  0  0  0  0  0
    6.7397    0.7136   -2.5326 C   0  0  0  0  0  0  0  0  0  0  0  0
    7.3637    1.3800   -1.3047 C   0  0  0  0  0  0  0  0  0  0  0  0
    6.2362    2.2895   -0.8116 C   0  0  0  0  0  0  0  0  0  0  0  0
    4.9149    1.4879   -1.0042 C   0  0  2  0  0  0  0  0  0  0  0  0
    3.8229    2.3864   -1.3433 N   0  0  0  0  0  0  0  0  0  0  0  0
    3.5544    3.5536   -0.5116 C   0  0  0  0  0  0  0  0  0  0  0  0
    2.9799    4.6797   -1.3733 C   0  0  0  0  0  0  0  0  0  0  0  0
    1.8245    4.2651   -2.0696 O   0  0  0  0  0  0  0  0  0  0  0  0
    2.0748    3.1279   -2.8703 C   0  0  0  0  0  0  0  0  0  0  0  0
    2.6040    1.9634   -2.0320 C   0  0  0  0  0  0  0  0  0  0  0  0
    3.7472    2.3175    2.1014 H   0  0  0  0  0  0  0  0  0  0  0  0
    4.7868    3.0147    4.2298 H   0  0  0  0  0  0  0  0  0  0  0  0
    6.9162    1.9560    4.9972 H   0  0  0  0  0  0  0  0  0  0  0  0
    7.9747    0.1761    3.6025 H   0  0  0  0  0  0  0  0  0  0  0  0
    6.9292   -0.5156    1.4597 H   0  0  0  0  0  0  0  0  0  0  0  0
    4.5562   -2.1246   -3.9240 H   0  0  0  0  0  0  0  0  0  0  0  0
    5.7653   -4.0522   -4.9062 H   0  0  0  0  0  0  0  0  0  0  0  0
    7.5907   -5.1736   -3.6228 H   0  0  0  0  0  0  0  0  0  0  0  0
    8.1857   -4.3442   -1.3463 H   0  0  0  0  0  0  0  0  0  0  0  0
    6.9735   -2.4039   -0.3681 H   0  0  0  0  0  0  0  0  0  0  0  0
    6.7687    1.4151   -3.3828 H   0  0  0  0  0  0  0  0  0  0  0  0
    7.2597   -0.2005   -2.8535 H   0  0  0  0  0  0  0  0  0  0  0  0
    8.2824    1.9419   -1.5362 H   0  0  0  0  0  0  0  0  0  0  0  0
    7.6261    0.6288   -0.5441 H   0  0  0  0  0  0  0  0  0  0  0  0
    6.1707    3.1665   -1.4744 H   0  0  0  0  0  0  0  0  0  0  0  0
    6.3885    2.6536    0.2127 H   0  0  0  0  0  0  0  0  0  0  0  0
    4.4756    3.9057   -0.0281 H   0  0  0  0  0  0  0  0  0  0  0  0
    2.8210    3.3252    0.2920 H   0  0  0  0  0  0  0  0  0  0  0  0
    3.7588    5.0212   -2.0872 H   0  0  0  0  0  0  0  0  0  0  0  0
    2.6848    5.5341   -0.7440 H   0  0  0  0  0  0  0  0  0  0  0  0
    2.8086    3.3718   -3.6670 H   0  0  0  0  0  0  0  0  0  0  0  0
    1.1188    2.8557   -3.3443 H   0  0  0  0  0  0  0  0  0  0  0  0
    2.8022    1.1086   -2.6927 H   0  0  0  0  0  0  0  0  0  0  0  0
    1.8102    1.6543   -1.3265 H   0  0  0  0  0  0  0  0  0  0  0  0
  1  2  3  0
  3  2  1  1
  3  4  1  0
  3 10  1  0
  3 24  1  0
  4  5  2  0
  4  9  1  0
  5  6  1  0
  5 31  1  0
  6  7  2  0
  6 32  1  0
  7  8  1  0
  7 33  1  0
  8  9  2  0
  8 34  1  0
  9 35  1  0
 10 11  1  0
 11 12  1  1
 11 13  1  0
 11 19  1  0
 13 14  2  0
 13 18  1  0
 14 15  1  0
 14 36  1  0
 15 16  2  0
 15 37  1  0
 16 17  1  0
 16 38  1  0
 17 18  2  0
 17 39  1  0
 18 40  1  0
 19 20  1  6
 19 21  1  0
 19 24  1  0
 21 22  1  0
 21 41  1  0
 21 42  1  0
 22 23  1  0
 22 43  1  0
 22 44  1  0
 23 24  1  0
 23 45  1  0
 23 46  1  0
 24 25  1  6
 25 26  1  0
 25 30  1  0
 26 27  1  0
 26 47  1  0
 26 48  1  0
 27 28  1  0
 27 49  1  0
 27 50  1  0
 28 29  1  0
 29 30  1  0
 29 51  1  0
 29 52  1  0
 30 53  1  0
 30 54  1  0
M  END

