
     RDKit          3D

 64 68  0  0  0  0  0  0  0  0999 V2000
    3.5239    0.8161   -1.9893 C   0  0  0  0  0  0  0  0  0  0  0  0
    2.5773    0.1083   -2.9653 C   0  0  1  0  0  0  0  0  0  0  0  0
    1.5258   -0.7355   -2.2361 C   0  0  0  0  0  0  0  0  0  0  0  0
    1.9070    1.1201   -3.8974 C   0  0  0  0  0  0  0  0  0  0  0  0
    3.3415   -0.7299   -3.8889 O   0  0  0  0  0  0  0  0  0  0  0  0
    4.0912   -1.7700   -3.4557 C   0  0  0  0  0  0  0  0  0  0  0  0
    4.2284   -2.1196   -2.2987 O   0  0  0  0  0  0  0  0  0  0  0  0
    4.6746   -2.3920   -4.5208 N   0  0  0  0  0  0  0  0  0  0  0  0
    5.6085   -3.4882   -4.3535 C   0  0  0  0  0  0  0  0  0  0  0  0
    7.0550   -3.0338   -4.1094 C   0  0  0  0  0  0  0  0  0  0  0  0
    8.0337   -4.1934   -3.9299 C   0  0  0  0  0  0  0  0  0  0  0  0
    8.3042   -4.9791   -5.1982 C   0  0  0  0  0  0  0  0  0  0  0  0
    7.8845   -4.6931   -6.2973 O   0  0  0  0  0  0  0  0  0  0  0  0
    9.0972   -6.0345   -4.9449 O   0  0  0  0  0  0  0  0  0  0  0  0
    9.4700   -6.9187   -6.0300 C   0  0  0  0  0  0  0  0  0  0  0  0
   10.9684   -7.0413   -6.1278 C   0  0  0  0  0  0  0  0  0  0  0  0
   11.5892   -8.1546   -5.5916 C   0  0  0  0  0  0  0  0  0  0  0  0
   12.9838   -8.3158   -5.6389 C   0  0  0  0  0  0  0  0  0  0  0  0
   13.8122   -7.3617   -6.2226 C   0  0  0  0  0  0  0  0  0  0  0  0
   15.2797   -7.5266   -6.2693 C   0  0  0  0  0  0  0  0  0  0  0  0
   15.9180   -8.6432   -5.7306 C   0  0  0  0  0  0  0  0  0  0  0  0
   17.3173   -8.7958   -5.7758 C   0  0  0  0  0  0  0  0  0  0  0  0
   18.1032   -7.8278   -6.3635 C   0  0  0  0  0  0  0  0  0  0  0  0
   17.5096   -6.6682   -6.9292 C   0  0  0  0  0  0  0  0  0  0  0  0
   18.3074   -5.6627   -7.5375 C   0  0  0  0  0  0  0  0  0  0  0  0
   17.7171   -4.5427   -8.0821 C   0  0  0  0  0  0  0  0  0  0  0  0
   16.3179   -4.3855   -8.0410 C   0  0  0  0  0  0  0  0  0  0  0  0
   15.4840   -5.3390   -7.4581 C   0  0  0  0  0  0  0  0  0  0  0  0
   14.0148   -5.1778   -7.4139 C   0  0  0  0  0  0  0  0  0  0  0  0
   13.3836   -4.0628   -7.9621 C   0  0  0  0  0  0  0  0  0  0  0  0
   11.9875   -3.9105   -7.9211 C   0  0  0  0  0  0  0  0  0  0  0  0
   11.1933   -4.8693   -7.3273 C   0  0  0  0  0  0  0  0  0  0  0  0
   11.7752   -6.0303   -6.7477 C   0  0  0  0  0  0  0  0  0  0  0  0
   13.2071   -6.1907   -6.7934 C   0  0  0  0  0  0  0  0  0  0  0  0
   16.0815   -6.5100   -6.8854 C   0  0  0  0  0  0  0  0  0  0  0  0
    2.9565    1.5283   -1.3698 H   0  0  0  0  0  0  0  0  0  0  0  0
    4.2908    1.3811   -2.5424 H   0  0  0  0  0  0  0  0  0  0  0  0
    4.0224    0.0931   -1.3314 H   0  0  0  0  0  0  0  0  0  0  0  0
    0.8834   -0.0834   -1.6236 H   0  0  0  0  0  0  0  0  0  0  0  0
    2.0021   -1.4780   -1.5835 H   0  0  0  0  0  0  0  0  0  0  0  0
    0.8856   -1.2601   -2.9628 H   0  0  0  0  0  0  0  0  0  0  0  0
    1.2895    1.8234   -3.3183 H   0  0  0  0  0  0  0  0  0  0  0  0
    1.2615    0.6064   -4.6260 H   0  0  0  0  0  0  0  0  0  0  0  0
    2.6635    1.6951   -4.4529 H   0  0  0  0  0  0  0  0  0  0  0  0
    4.5505   -1.9689   -5.4325 H   0  0  0  0  0  0  0  0  0  0  0  0
    5.5617   -4.1205   -5.2528 H   0  0  0  0  0  0  0  0  0  0  0  0
    5.2641   -4.0885   -3.4969 H   0  0  0  0  0  0  0  0  0  0  0  0
    7.0728   -2.4078   -3.2034 H   0  0  0  0  0  0  0  0  0  0  0  0
    7.3853   -2.4043   -4.9520 H   0  0  0  0  0  0  0  0  0  0  0  0
    7.6905   -4.9035   -3.1579 H   0  0  0  0  0  0  0  0  0  0  0  0
    9.0125   -3.8315   -3.5713 H   0  0  0  0  0  0  0  0  0  0  0  0
    9.0084   -6.5497   -6.9549 H   0  0  0  0  0  0  0  0  0  0  0  0
    9.0337   -7.8988   -5.7878 H   0  0  0  0  0  0  0  0  0  0  0  0
   10.9835   -8.9315   -5.1170 H   0  0  0  0  0  0  0  0  0  0  0  0
   13.4075   -9.2179   -5.1986 H   0  0  0  0  0  0  0  0  0  0  0  0
   15.3344   -9.4319   -5.2561 H   0  0  0  0  0  0  0  0  0  0  0  0
   17.7732   -9.6884   -5.3404 H   0  0  0  0  0  0  0  0  0  0  0  0
   19.1900   -7.9373   -6.4029 H   0  0  0  0  0  0  0  0  0  0  0  0
   19.3922   -5.7935   -7.5648 H   0  0  0  0  0  0  0  0  0  0  0  0
   18.3293   -3.7678   -8.5499 H   0  0  0  0  0  0  0  0  0  0  0  0
   15.8939   -3.4842   -8.4832 H   0  0  0  0  0  0  0  0  0  0  0  0
   13.9713   -3.2799   -8.4409 H   0  0  0  0  0  0  0  0  0  0  0  0
   11.5304   -3.0230   -8.3658 H   0  0  0  0  0  0  0  0  0  0  0  0
   10.1122   -4.7291   -7.3068 H   0  0  0  0  0  0  0  0  0  0  0  0
  1  2  1  0
  1 36  1  0
  1 37  1  0
  1 38  1  0
  2  3  1  0
  2  4  1  0
  2  5  1  6
  3 39  1  0
  3 40  1  0
  3 41  1  0
  4 42  1  0
  4 43  1  0
  4 44  1  0
  5  6  1  0
  6  7  2  0
  6  8  1  0
  8  9  1  0
  8 45  1  0
  9 10  1  0
  9 46  1  0
  9 47  1  0
 10 11  1  0
 10 48  1  0
 10 49  1  0
 11 12  1  0
 11 50  1  0
 11 51  1  0
 12 13  2  0
 12 14  1  0
 14 15  1  0
 15 16  1  0
 15 52  1  0
 15 53  1  0
 16 17  2  0
 16 33  1  0
 17 18  1  0
 17 54  1  0
 18 19  2  0
 18 55  1  0
 19 20  1  0
 19 34  1  0
 20 21  2  0
 20 35  1  0
 21 22  1  0
 21 56  1  0
 22 23  2  0
 22 57  1  0
 23 24  1  0
 23 58  1  0
 24 25  1  0
 24 35  2  0
 25 26  2  0
 25 59  1  0
 26 27  1  0
 26 60  1  0
 27 28  2  0
 27 61  1  0
 28 29  1  0
 28 35  1  0
 29 30  1  0
 29 34  2  0
 30 31  2  0
 30 62  1  0
 31 32  1  0
 31 63  1  0
 32 33  2  0
 32 64  1  0
 33 34  1  0
M  END

