
     RDKit          3D

 45 46  0  0  0  0  0  0  0  0999 V2000
    2.9052   -1.3477   -0.9773 C   0  0  0  0  0  0  0  0  0  0  0  0
    2.4591   -0.0796   -0.2380 C   0  0  1  0  0  0  0  0  0  0  0  0
    2.7365   -0.2388    1.1893 N   0  0  0  0  0  0  0  0  0  0  0  0
    2.2844    0.8273    2.0814 C   0  0  1  0  0  0  0  0  0  0  0  0
    0.7571    0.8641    2.1218 C   0  0  0  0  0  0  0  0  0  0  0  0
   -0.0047   -0.3160    2.1527 C   0  0  0  0  0  0  0  0  0  0  0  0
   -1.4005   -0.2681    2.2069 C   0  0  0  0  0  0  0  0  0  0  0  0
   -2.0644    0.9627    2.2252 C   0  0  0  0  0  0  0  0  0  0  0  0
   -1.3199    2.1445    2.1784 C   0  0  0  0  0  0  0  0  0  0  0  0
    0.0763    2.0916    2.1222 C   0  0  0  0  0  0  0  0  0  0  0  0
    2.9637    0.6899    3.4990 C   0  0  1  0  0  0  0  0  0  0  0  0
    4.4939    0.8334    3.3403 C   0  0  0  0  0  0  0  0  0  0  0  0
    2.4799    1.8297    4.4144 C   0  0  0  0  0  0  0  0  0  0  0  0
    2.6491   -0.6621    4.1637 C   0  0  0  0  0  0  0  0  0  0  0  0
    3.0565    1.1786   -0.8783 C   0  0  0  0  0  0  0  0  0  0  0  0
    2.2433    2.0889   -1.5673 C   0  0  0  0  0  0  0  0  0  0  0  0
    2.7740    3.2324   -2.1732 C   0  0  0  0  0  0  0  0  0  0  0  0
    4.1458    3.4744   -2.0859 C   0  0  0  0  0  0  0  0  0  0  0  0
    4.8874    5.0320   -2.9039 Br  0  0  0  0  0  0  0  0  0  0  0  0
    4.9831    2.5883   -1.4011 C   0  0  0  0  0  0  0  0  0  0  0  0
    4.4320    1.4522   -0.8053 C   0  0  0  0  0  0  0  0  0  0  0  0
    2.4118   -2.2308   -0.5440 H   0  0  0  0  0  0  0  0  0  0  0  0
    3.9960   -1.4928   -0.8967 H   0  0  0  0  0  0  0  0  0  0  0  0
    2.6580   -1.2895   -2.0481 H   0  0  0  0  0  0  0  0  0  0  0  0
    1.3648    0.0005   -0.3445 H   0  0  0  0  0  0  0  0  0  0  0  0
    3.7232   -0.4359    1.3335 H   0  0  0  0  0  0  0  0  0  0  0  0
    2.6070    1.8241    1.7116 H   0  0  0  0  0  0  0  0  0  0  0  0
    0.5120   -1.2766    2.1137 H   0  0  0  0  0  0  0  0  0  0  0  0
   -1.9741   -1.1987    2.2305 H   0  0  0  0  0  0  0  0  0  0  0  0
   -3.1562    1.0000    2.2653 H   0  0  0  0  0  0  0  0  0  0  0  0
   -1.8272    3.1130    2.1781 H   0  0  0  0  0  0  0  0  0  0  0  0
    0.6491    3.0219    2.0721 H   0  0  0  0  0  0  0  0  0  0  0  0
    4.7574    1.7554    2.7964 H   0  0  0  0  0  0  0  0  0  0  0  0
    4.9523   -0.0184    2.8115 H   0  0  0  0  0  0  0  0  0  0  0  0
    4.9756    0.8792    4.3300 H   0  0  0  0  0  0  0  0  0  0  0  0
    2.6950    2.8189    3.9773 H   0  0  0  0  0  0  0  0  0  0  0  0
    2.9953    1.7777    5.3870 H   0  0  0  0  0  0  0  0  0  0  0  0
    1.3984    1.7725    4.6050 H   0  0  0  0  0  0  0  0  0  0  0  0
    2.9442   -1.5057    3.5218 H   0  0  0  0  0  0  0  0  0  0  0  0
    1.5759   -0.7644    4.3834 H   0  0  0  0  0  0  0  0  0  0  0  0
    3.1936   -0.7516    5.1181 H   0  0  0  0  0  0  0  0  0  0  0  0
    1.1667    1.9055   -1.6316 H   0  0  0  0  0  0  0  0  0  0  0  0
    2.1249    3.9305   -2.7048 H   0  0  0  0  0  0  0  0  0  0  0  0
    6.0546    2.7853   -1.3361 H   0  0  0  0  0  0  0  0  0  0  0  0
    5.0982    0.7683   -0.2709 H   0  0  0  0  0  0  0  0  0  0  0  0
  1  2  1  0
  1 22  1  0
  1 23  1  0
  1 24  1  0
  2  3  1  0
  2 15  1  0
  2 25  1  1
  3  4  1  0
  3 26  1  0
  4  5  1  0
  4 11  1  0
  4 27  1  6
  5  6  2  0
  5 10  1  0
  6  7  1  0
  6 28  1  0
  7  8  2  0
  7 29  1  0
  8  9  1  0
  8 30  1  0
  9 10  2  0
  9 31  1  0
 10 32  1  0
 11 12  1  6
 11 13  1  0
 11 14  1  0
 12 33  1  0
 12 34  1  0
 12 35  1  0
 13 36  1  0
 13 37  1  0
 13 38  1  0
 14 39  1  0
 14 40  1  0
 14 41  1  0
 15 16  2  0
 15 21  1  0
 16 17  1  0
 16 42  1  0
 17 18  2  0
 17 43  1  0
 18 19  1  0
 18 20  1  0
 20 21  2  0
 20 44  1  0
 21 45  1  0
M  END

