
     RDKit          3D

 32 36  0  0  0  0  0  0  0  0999 V2000
    3.1896    1.8680    0.3613 C   0  0  0  0  0  0  0  0  0  0  0  0
    3.2769    0.4863   -0.2054 C   0  0  0  0  0  0  0  0  0  0  0  0
    2.2578   -0.2344   -0.7524 C   0  0  0  0  0  0  0  0  0  0  0  0
    2.7928   -1.8019   -1.2912 S   0  0  0  0  0  0  0  0  0  0  0  0
    4.4113   -1.4365   -0.7536 C   0  0  0  0  0  0  0  0  0  0  0  0
    4.4872   -0.2027   -0.2119 N   0  0  0  0  0  0  0  0  0  0  0  0
    5.8493    0.3855    0.3593 B   0  0  2  0  0  0  0  0  0  0  0  0
    5.7043    0.6623    1.7095 F   0  0  0  0  0  0  0  0  0  0  0  0
    6.1902    1.5310   -0.3427 F   0  0  0  0  0  0  0  0  0  0  0  0
    6.8803   -0.7428    0.1254 N   0  0  0  0  0  0  0  0  0  0  0  0
    6.5919   -1.9475   -0.4547 C   0  0  0  0  0  0  0  0  0  0  0  0
    7.8239   -2.7543   -0.5060 C   0  0  0  0  0  0  0  0  0  0  0  0
    8.1718   -4.0172   -0.9584 C   0  0  0  0  0  0  0  0  0  0  0  0
    9.5264   -4.4177   -0.8069 C   0  0  0  0  0  0  0  0  0  0  0  0
   10.4953   -3.5975   -0.2292 C   0  0  0  0  0  0  0  0  0  0  0  0
   10.1583   -2.2967    0.2424 C   0  0  0  0  0  0  0  0  0  0  0  0
   10.9850   -1.3070    0.8596 C   0  0  0  0  0  0  0  0  0  0  0  0
   10.4317   -0.0940    1.2439 C   0  0  0  0  0  0  0  0  0  0  0  0
    9.0541    0.2405    1.0592 C   0  0  0  0  0  0  0  0  0  0  0  0
    8.2468   -0.7080    0.4637 C   0  0  0  0  0  0  0  0  0  0  0  0
    8.8124   -1.9407    0.0736 C   0  0  0  0  0  0  0  0  0  0  0  0
    5.4017   -2.3154   -0.8928 N   0  0  0  0  0  0  0  0  0  0  0  0
    2.1644    2.2519    0.2761 H   0  0  0  0  0  0  0  0  0  0  0  0
    3.8783    2.5440   -0.1676 H   0  0  0  0  0  0  0  0  0  0  0  0
    3.4928    1.8691    1.4194 H   0  0  0  0  0  0  0  0  0  0  0  0
    1.2223    0.0783   -0.8647 H   0  0  0  0  0  0  0  0  0  0  0  0
    7.4389   -4.6857   -1.4152 H   0  0  0  0  0  0  0  0  0  0  0  0
    9.8196   -5.4102   -1.1579 H   0  0  0  0  0  0  0  0  0  0  0  0
   11.5231   -3.9598   -0.1388 H   0  0  0  0  0  0  0  0  0  0  0  0
   12.0466   -1.5037    1.0281 H   0  0  0  0  0  0  0  0  0  0  0  0
   11.0772    0.6521    1.7145 H   0  0  0  0  0  0  0  0  0  0  0  0
    8.6705    1.2095    1.3807 H   0  0  0  0  0  0  0  0  0  0  0  0
  1  2  1  0
  1 23  1  0
  1 24  1  0
  1 25  1  0
  2  3  2  0
  2  6  1  0
  3  4  1  0
  3 26  1  0
  4  5  2  0
  5  6  1  0
  5 22  1  0
  6  7  1  0
  7  8  1  1
  7  9  1  0
  7 10  1  0
 10 11  1  0
 10 20  1  0
 11 12  1  0
 11 22  2  0
 12 13  2  0
 12 21  1  0
 13 14  1  0
 13 27  1  0
 14 15  2  0
 14 28  1  0
 15 16  1  0
 15 29  1  0
 16 17  1  0
 16 21  2  0
 17 18  2  0
 17 30  1  0
 18 19  1  0
 18 31  1  0
 19 20  2  0
 19 32  1  0
 20 21  1  0
M  CHG  2   4   1   7  -1
M  END

