
     RDKit          3D

 46 48  0  0  0  0  0  0  0  0999 V2000
    2.8920    2.1072    0.6054 C   0  0  0  0  0  0  0  0  0  0  0  0
    2.6109    0.7209    0.0143 C   0  0  1  0  0  0  0  0  0  0  0  0
    1.1367    0.3106    0.2514 C   0  0  0  0  0  0  0  0  0  0  0  0
    0.4912    0.7328    1.1952 O   0  0  0  0  0  0  0  0  0  0  0  0
    0.6934   -0.6050   -0.6639 N   0  0  0  0  0  0  0  0  0  0  0  0
   -0.5235   -1.2864   -0.7161 C   0  0  0  0  0  0  0  0  0  0  0  0
   -1.5853   -1.1142    0.1890 C   0  0  0  0  0  0  0  0  0  0  0  0
   -2.7595   -1.8584    0.0387 C   0  0  0  0  0  0  0  0  0  0  0  0
   -2.9029   -2.7792   -1.0025 C   0  0  0  0  0  0  0  0  0  0  0  0
   -1.8544   -2.9626   -1.9115 C   0  0  0  0  0  0  0  0  0  0  0  0
   -0.6942   -2.2208   -1.7544 C   0  0  0  0  0  0  0  0  0  0  0  0
    0.3309   -2.3852   -2.6239 F   0  0  0  0  0  0  0  0  0  0  0  0
    3.0059    0.5055   -1.3852 N   0  0  0  0  0  0  0  0  0  0  0  0
    2.5713    1.5466   -2.3068 C   0  0  0  0  0  0  0  0  0  0  0  0
    4.4085    0.1320   -1.5808 C   0  0  0  0  0  0  0  0  0  0  0  0
    4.7878   -1.1902   -0.9433 C   0  0  0  0  0  0  0  0  0  0  0  0
    4.0853   -2.3692   -1.2528 C   0  0  0  0  0  0  0  0  0  0  0  0
    4.4613   -3.5881   -0.6922 C   0  0  0  0  0  0  0  0  0  0  0  0
    5.5426   -3.6607    0.1930 C   0  0  0  0  0  0  0  0  0  0  0  0
    6.2408   -2.4842    0.5259 C   0  0  0  0  0  0  0  0  0  0  0  0
    5.8592   -1.2660   -0.0465 C   0  0  0  0  0  0  0  0  0  0  0  0
    7.2885   -2.4979    1.4046 O   0  0  0  0  0  0  0  0  0  0  0  0
    7.3801   -3.6772    2.1892 C   0  0  0  0  0  0  0  0  0  0  0  0
    7.1761   -4.9062    1.3189 C   0  0  0  0  0  0  0  0  0  0  0  0
    5.8922   -4.8744    0.7151 O   0  0  0  0  0  0  0  0  0  0  0  0
    2.6166    2.1135    1.6684 H   0  0  0  0  0  0  0  0  0  0  0  0
    2.3021    2.8940    0.1117 H   0  0  0  0  0  0  0  0  0  0  0  0
    3.9594    2.3630    0.5178 H   0  0  0  0  0  0  0  0  0  0  0  0
    3.1828   -0.0169    0.6045 H   0  0  0  0  0  0  0  0  0  0  0  0
    1.3796   -0.7982   -1.3940 H   0  0  0  0  0  0  0  0  0  0  0  0
   -1.4647   -0.3955    0.9971 H   0  0  0  0  0  0  0  0  0  0  0  0
   -3.5743   -1.7114    0.7517 H   0  0  0  0  0  0  0  0  0  0  0  0
   -3.8240   -3.3557   -1.1123 H   0  0  0  0  0  0  0  0  0  0  0  0
   -1.9201   -3.6710   -2.7397 H   0  0  0  0  0  0  0  0  0  0  0  0
    1.5029    1.7652   -2.1564 H   0  0  0  0  0  0  0  0  0  0  0  0
    2.6986    1.1981   -3.3441 H   0  0  0  0  0  0  0  0  0  0  0  0
    3.1304    2.4994   -2.2019 H   0  0  0  0  0  0  0  0  0  0  0  0
    5.1048    0.9216   -1.2249 H   0  0  0  0  0  0  0  0  0  0  0  0
    4.5654    0.0616   -2.6711 H   0  0  0  0  0  0  0  0  0  0  0  0
    3.2390   -2.3376   -1.9427 H   0  0  0  0  0  0  0  0  0  0  0  0
    3.9327   -4.5129   -0.9334 H   0  0  0  0  0  0  0  0  0  0  0  0
    6.4247   -0.3744    0.2353 H   0  0  0  0  0  0  0  0  0  0  0  0
    6.6196   -3.6572    2.9926 H   0  0  0  0  0  0  0  0  0  0  0  0
    8.3783   -3.6791    2.6511 H   0  0  0  0  0  0  0  0  0  0  0  0
    7.2279   -5.8285    1.9159 H   0  0  0  0  0  0  0  0  0  0  0  0
    7.9602   -4.9462    0.5391 H   0  0  0  0  0  0  0  0  0  0  0  0
  1  2  1  0
  1 26  1  0
  1 27  1  0
  1 28  1  0
  2  3  1  0
  2 13  1  0
  2 29  1  1
  3  4  2  0
  3  5  1  0
  5  6  1  0
  5 30  1  0
  6  7  2  0
  6 11  1  0
  7  8  1  0
  7 31  1  0
  8  9  2  0
  8 32  1  0
  9 10  1  0
  9 33  1  0
 10 11  2  0
 10 34  1  0
 11 12  1  0
 13 14  1  0
 13 15  1  0
 14 35  1  0
 14 36  1  0
 14 37  1  0
 15 16  1  0
 15 38  1  0
 15 39  1  0
 16 17  2  0
 16 21  1  0
 17 18  1  0
 17 40  1  0
 18 19  2  0
 18 41  1  0
 19 20  1  0
 19 25  1  0
 20 21  2  0
 20 22  1  0
 21 42  1  0
 22 23  1  0
 23 24  1  0
 23 43  1  0
 23 44  1  0
 24 25  1  0
 24 45  1  0
 24 46  1  0
M  END

