
     RDKit          3D

 29 29  0  0  0  0  0  0  0  0999 V2000
    1.4077    1.0430   -5.7995 C   0  0  0  0  0  0  0  0  0  0  0  0
    2.8559    1.2500   -5.4741 C   0  0  0  0  0  0  0  0  0  0  0  0
    3.4554    0.8750   -4.3355 C   0  0  0  0  0  0  0  0  0  0  0  0
    4.8997    1.0894   -4.0272 C   0  0  0  0  0  0  0  0  0  0  0  0
    5.0668    2.1699   -2.5116 S   0  0  0  0  0  0  0  0  0  0  0  0
    4.6663    1.2965   -1.3468 O   0  0  0  0  0  0  0  0  0  0  0  0
    6.9569    2.1876   -2.4893 C   0  0  0  0  0  0  0  0  0  0  0  0
    7.5476    3.1212   -3.4720 C   0  0  0  0  0  0  0  0  0  0  0  0
    7.6440    2.9851   -4.7601 N   0  0  0  0  0  0  0  0  0  0  0  0
    8.2133    4.1668   -5.2170 C   0  0  0  0  0  0  0  0  0  0  0  0
    8.4941    4.3887   -6.6675 C   0  0  0  0  0  0  0  0  0  0  0  0
    8.4345    4.9870   -4.1425 C   0  0  0  0  0  0  0  0  0  0  0  0
    9.0101    6.3432   -3.9506 C   0  0  0  0  0  0  0  0  0  0  0  0
    8.0026    4.3176   -3.0256 O   0  0  0  0  0  0  0  0  0  0  0  0
    1.2873    0.4319   -6.7115 H   0  0  0  0  0  0  0  0  0  0  0  0
    0.9050    2.0052   -6.0026 H   0  0  0  0  0  0  0  0  0  0  0  0
    0.8716    0.5433   -4.9783 H   0  0  0  0  0  0  0  0  0  0  0  0
    3.4615    1.7443   -6.2462 H   0  0  0  0  0  0  0  0  0  0  0  0
    2.8712    0.3805   -3.5497 H   0  0  0  0  0  0  0  0  0  0  0  0
    5.4639    1.5682   -4.8423 H   0  0  0  0  0  0  0  0  0  0  0  0
    5.3985    0.1545   -3.7199 H   0  0  0  0  0  0  0  0  0  0  0  0
    7.2756    1.1488   -2.6524 H   0  0  0  0  0  0  0  0  0  0  0  0
    7.1843    2.4890   -1.4588 H   0  0  0  0  0  0  0  0  0  0  0  0
    7.5683    4.3147   -7.2611 H   0  0  0  0  0  0  0  0  0  0  0  0
    9.1862    3.6222   -7.0529 H   0  0  0  0  0  0  0  0  0  0  0  0
    8.9401    5.3768   -6.8490 H   0  0  0  0  0  0  0  0  0  0  0  0
    9.2911    6.7778   -4.9195 H   0  0  0  0  0  0  0  0  0  0  0  0
    9.9106    6.3129   -3.3141 H   0  0  0  0  0  0  0  0  0  0  0  0
    8.2873    7.0209   -3.4663 H   0  0  0  0  0  0  0  0  0  0  0  0
  1  2  1  0
  1 15  1  0
  1 16  1  0
  1 17  1  0
  2  3  2  0
  2 18  1  0
  3  4  1  0
  3 19  1  0
  4  5  1  0
  4 20  1  0
  4 21  1  0
  5  6  1  1
  5  7  1  0
  7  8  1  0
  7 22  1  0
  7 23  1  0
  8  9  2  0
  8 14  1  0
  9 10  1  0
 10 11  1  0
 10 12  2  0
 11 24  1  0
 11 25  1  0
 11 26  1  0
 12 13  1  0
 12 14  1  0
 13 27  1  0
 13 28  1  0
 13 29  1  0
M  CHG  2   5   1   6  -1
M  END

