
     RDKit          3D

 36 38  0  0  0  0  0  0  0  0999 V2000
    2.3316   -0.7331   -2.7704 C   0  0  0  0  0  0  0  0  0  0  0  0
    2.9606   -2.1027   -2.7411 C   0  0  0  0  0  0  0  0  0  0  0  0
    4.0333   -2.3904   -3.5957 C   0  0  0  0  0  0  0  0  0  0  0  0
    4.6382   -3.6511   -3.6032 C   0  0  0  0  0  0  0  0  0  0  0  0
    5.9712   -3.9510   -4.6869 Cl  0  0  0  0  0  0  0  0  0  0  0  0
    4.1920   -4.6676   -2.7573 C   0  0  0  0  0  0  0  0  0  0  0  0
    3.1249   -4.4028   -1.8998 C   0  0  0  0  0  0  0  0  0  0  0  0
    2.5169   -3.1434   -1.8946 C   0  0  0  0  0  0  0  0  0  0  0  0
    1.1799   -2.9075   -0.7119 S   0  0  1  0  0  0  0  0  0  0  0  0
    0.9820   -4.1987   -0.0374 O   0  0  0  0  0  0  0  0  0  0  0  0
    1.4405   -1.6866    0.0582 O   0  0  0  0  0  0  0  0  0  0  0  0
   -0.1853   -2.5937   -1.6327 N   0  0  0  0  0  0  0  0  0  0  0  0
   -1.2651   -3.5760   -1.7858 C   0  0  0  0  0  0  0  0  0  0  0  0
   -2.4619   -3.2922   -0.9331 C   0  0  0  0  0  0  0  0  0  0  0  0
   -3.6642   -3.0324   -1.4115 N   0  0  0  0  0  0  0  0  0  0  0  0
   -4.5175   -2.8061   -0.3594 N   0  0  0  0  0  0  0  0  0  0  0  0
   -3.8020   -2.9316    0.7296 C   0  0  0  0  0  0  0  0  0  0  0  0
   -2.5063   -3.2441    0.4355 N   0  0  0  0  0  0  0  0  0  0  0  0
   -1.6383   -3.3316    1.6103 C   0  0  0  0  0  0  0  0  0  0  0  0
   -2.6783   -3.4162    2.7594 C   0  0  0  0  0  0  0  0  0  0  0  0
   -3.9866   -2.7797    2.2095 C   0  0  0  0  0  0  0  0  0  0  0  0
    2.8892   -0.0623   -3.4379 H   0  0  0  0  0  0  0  0  0  0  0  0
    2.2978   -0.2915   -1.7642 H   0  0  0  0  0  0  0  0  0  0  0  0
    1.2940   -0.7917   -3.1384 H   0  0  0  0  0  0  0  0  0  0  0  0
    4.4081   -1.6169   -4.2684 H   0  0  0  0  0  0  0  0  0  0  0  0
    4.6731   -5.6464   -2.7685 H   0  0  0  0  0  0  0  0  0  0  0  0
    2.7545   -5.1730   -1.2224 H   0  0  0  0  0  0  0  0  0  0  0  0
   -0.4663   -1.6198   -1.5387 H   0  0  0  0  0  0  0  0  0  0  0  0
   -0.8410   -4.5662   -1.5632 H   0  0  0  0  0  0  0  0  0  0  0  0
   -1.6175   -3.5830   -2.8276 H   0  0  0  0  0  0  0  0  0  0  0  0
   -1.0012   -2.4334    1.6744 H   0  0  0  0  0  0  0  0  0  0  0  0
   -0.9691   -4.1994    1.5522 H   0  0  0  0  0  0  0  0  0  0  0  0
   -2.3153   -2.9265    3.6738 H   0  0  0  0  0  0  0  0  0  0  0  0
   -2.8594   -4.4747    3.0032 H   0  0  0  0  0  0  0  0  0  0  0  0
   -4.0676   -1.7116    2.4763 H   0  0  0  0  0  0  0  0  0  0  0  0
   -4.8956   -3.2756    2.5787 H   0  0  0  0  0  0  0  0  0  0  0  0
  1  2  1  0
  1 22  1  0
  1 23  1  0
  1 24  1  0
  2  3  2  0
  2  8  1  0
  3  4  1  0
  3 25  1  0
  4  5  1  0
  4  6  2  0
  6  7  1  0
  6 26  1  0
  7  8  2  0
  7 27  1  0
  8  9  1  0
  9 10  2  0
  9 11  2  0
  9 12  1  6
 12 13  1  0
 12 28  1  0
 13 14  1  0
 13 29  1  0
 13 30  1  0
 14 15  2  0
 14 18  1  0
 15 16  1  0
 16 17  2  0
 17 18  1  0
 17 21  1  0
 18 19  1  0
 19 20  1  0
 19 31  1  0
 19 32  1  0
 20 21  1  0
 20 33  1  0
 20 34  1  0
 21 35  1  0
 21 36  1  0
M  END

