
     RDKit          3D

 48 50  0  0  0  0  0  0  0  0999 V2000
    9.2267    3.8627   -2.8144 C   0  0  0  0  0  0  0  0  0  0  0  0
    8.3955    3.0934   -1.7867 C   0  0  1  0  0  0  0  0  0  0  0  0
    8.7391    1.6096   -1.7468 C   0  0  0  0  0  0  0  0  0  0  0  0
    8.6155    3.6141   -0.4749 O   0  0  0  0  0  0  0  0  0  0  0  0
    7.8246    4.7110   -0.0826 C   0  0  0  0  0  0  0  0  0  0  0  0
    6.4224    4.3381    0.4037 C   0  0  0  0  0  0  0  0  0  0  0  0
    6.3792    3.0805    1.7406 S   0  0  0  0  0  0  0  0  0  0  0  0
    7.1347    4.0142    3.0322 C   0  0  0  0  0  0  0  0  0  0  0  0
    7.0867    5.3194    3.1713 N   0  0  0  0  0  0  0  0  0  0  0  0
    7.7934    5.6391    4.2963 N   0  0  0  0  0  0  0  0  0  0  0  0
    8.2377    4.5223    4.8286 C   0  0  0  0  0  0  0  0  0  0  0  0
    9.0621    4.4733    6.0542 C   0  0  0  0  0  0  0  0  0  0  0  0
   10.2579    5.2140    6.0845 C   0  0  0  0  0  0  0  0  0  0  0  0
   11.0631    5.2485    7.2221 C   0  0  0  0  0  0  0  0  0  0  0  0
   10.6836    4.5382    8.3645 C   0  0  0  0  0  0  0  0  0  0  0  0
    9.4918    3.8114    8.3705 C   0  0  0  0  0  0  0  0  0  0  0  0
    8.6879    3.7905    7.2274 C   0  0  0  0  0  0  0  0  0  0  0  0
    7.1609    2.9290    7.3125 Cl  0  0  0  0  0  0  0  0  0  0  0  0
    7.8595    3.4435    4.0511 N   0  0  0  0  0  0  0  0  0  0  0  0
    8.3128    2.0514    4.1409 C   0  0  0  0  0  0  0  0  0  0  0  0
    9.7654    1.8537    3.7459 C   0  0  0  0  0  0  0  0  0  0  0  0
   10.2064    2.1601    2.4470 C   0  0  0  0  0  0  0  0  0  0  0  0
   11.5431    1.9612    2.0941 C   0  0  0  0  0  0  0  0  0  0  0  0
   12.4534    1.4483    3.0251 C   0  0  0  0  0  0  0  0  0  0  0  0
   12.0202    1.1364    4.3158 C   0  0  0  0  0  0  0  0  0  0  0  0
   10.6836    1.3417    4.6731 C   0  0  0  0  0  0  0  0  0  0  0  0
    9.0497    3.4784   -3.8318 H   0  0  0  0  0  0  0  0  0  0  0  0
   10.2997    3.7630   -2.5850 H   0  0  0  0  0  0  0  0  0  0  0  0
    8.9767    4.9354   -2.8139 H   0  0  0  0  0  0  0  0  0  0  0  0
    7.3232    3.1977   -2.0479 H   0  0  0  0  0  0  0  0  0  0  0  0
    9.7945    1.4706   -1.4621 H   0  0  0  0  0  0  0  0  0  0  0  0
    8.5822    1.1426   -2.7317 H   0  0  0  0  0  0  0  0  0  0  0  0
    8.1151    1.0896   -1.0048 H   0  0  0  0  0  0  0  0  0  0  0  0
    7.7132    5.4474   -0.9038 H   0  0  0  0  0  0  0  0  0  0  0  0
    8.3619    5.2198    0.7314 H   0  0  0  0  0  0  0  0  0  0  0  0
    5.8139    3.8845   -0.3938 H   0  0  0  0  0  0  0  0  0  0  0  0
    5.9040    5.2369    0.7670 H   0  0  0  0  0  0  0  0  0  0  0  0
   10.5421    5.7656    5.1867 H   0  0  0  0  0  0  0  0  0  0  0  0
   11.9884    5.8290    7.2159 H   0  0  0  0  0  0  0  0  0  0  0  0
   11.3088    4.5550    9.2605 H   0  0  0  0  0  0  0  0  0  0  0  0
    9.1666    3.2711    9.2610 H   0  0  0  0  0  0  0  0  0  0  0  0
    7.6582    1.4683    3.4769 H   0  0  0  0  0  0  0  0  0  0  0  0
    8.1368    1.6945    5.1637 H   0  0  0  0  0  0  0  0  0  0  0  0
    9.5100    2.5498    1.6992 H   0  0  0  0  0  0  0  0  0  0  0  0
   11.8725    2.2069    1.0812 H   0  0  0  0  0  0  0  0  0  0  0  0
   13.4982    1.2924    2.7438 H   0  0  0  0  0  0  0  0  0  0  0  0
   12.7236    0.7366    5.0507 H   0  0  0  0  0  0  0  0  0  0  0  0
   10.3510    1.1036    5.6873 H   0  0  0  0  0  0  0  0  0  0  0  0
  1  2  1  0
  1 27  1  0
  1 28  1  0
  1 29  1  0
  2  3  1  0
  2  4  1  0
  2 30  1  6
  3 31  1  0
  3 32  1  0
  3 33  1  0
  4  5  1  0
  5  6  1  0
  5 34  1  0
  5 35  1  0
  6  7  1  0
  6 36  1  0
  6 37  1  0
  7  8  1  0
  8  9  2  0
  8 19  1  0
  9 10  1  0
 10 11  2  0
 11 12  1  0
 11 19  1  0
 12 13  2  0
 12 17  1  0
 13 14  1  0
 13 38  1  0
 14 15  2  0
 14 39  1  0
 15 16  1  0
 15 40  1  0
 16 17  2  0
 16 41  1  0
 17 18  1  0
 19 20  1  0
 20 21  1  0
 20 42  1  0
 20 43  1  0
 21 22  2  0
 21 26  1  0
 22 23  1  0
 22 44  1  0
 23 24  2  0
 23 45  1  0
 24 25  1  0
 24 46  1  0
 25 26  2  0
 25 47  1  0
 26 48  1  0
M  END

