
     RDKit          3D

 31 30  0  0  0  0  0  0  0  0999 V2000
    6.5897   12.0370    2.7474 C   0  0  0  0  0  0  0  0  0  0  0  0
    6.0610   10.8062    3.2382 O   0  0  0  0  0  0  0  0  0  0  0  0
    6.8796    9.7362    3.1740 C   0  0  0  0  0  0  0  0  0  0  0  0
    7.9995    9.7889    2.7274 O   0  0  0  0  0  0  0  0  0  0  0  0
    6.2076    8.5013    3.7365 C   0  0  0  0  0  0  0  0  0  0  0  0
    7.0471    7.2333    3.5980 C   0  0  0  0  0  0  0  0  0  0  0  0
    6.3675    6.0080    4.2118 C   0  0  0  0  0  0  0  0  0  0  0  0
    7.1235    4.6936    4.0236 C   0  0  2  0  0  0  0  0  0  0  0  0
    7.2596    4.5244    2.9371 H   0  0  0  0  0  0  0  0  0  0  0  0
    6.3069    3.6655    4.5621 O   0  0  0  0  0  0  0  0  0  0  0  0
    8.5271    4.6998    4.6701 C   0  0  0  0  0  0  0  0  0  0  0  0
    9.0626    3.2951    4.9626 C   0  0  2  0  0  0  0  0  0  0  0  0
    8.5109    2.9036    5.8394 H   0  0  0  0  0  0  0  0  0  0  0  0
   10.5555    3.2824    5.2708 C   0  0  0  0  0  0  0  0  0  0  0  0
    8.7621    2.4760    3.8253 O   0  0  0  0  0  0  0  0  0  0  0  0
    5.7985   12.7857    2.8790 H   0  0  0  0  0  0  0  0  0  0  0  0
    6.8603   11.9527    1.6836 H   0  0  0  0  0  0  0  0  0  0  0  0
    7.4894   12.3313    3.3095 H   0  0  0  0  0  0  0  0  0  0  0  0
    5.2269    8.3955    3.2412 H   0  0  0  0  0  0  0  0  0  0  0  0
    5.9706    8.7099    4.7953 H   0  0  0  0  0  0  0  0  0  0  0  0
    8.0305    7.4104    4.0625 H   0  0  0  0  0  0  0  0  0  0  0  0
    7.2542    7.0545    2.5287 H   0  0  0  0  0  0  0  0  0  0  0  0
    5.3645    5.8719    3.7722 H   0  0  0  0  0  0  0  0  0  0  0  0
    6.2075    6.1604    5.2951 H   0  0  0  0  0  0  0  0  0  0  0  0
    6.7069    2.8363    4.2587 H   0  0  0  0  0  0  0  0  0  0  0  0
    8.5023    5.2528    5.6253 H   0  0  0  0  0  0  0  0  0  0  0  0
    9.2295    5.2309    4.0053 H   0  0  0  0  0  0  0  0  0  0  0  0
   10.9025    2.2641    5.5177 H   0  0  0  0  0  0  0  0  0  0  0  0
   10.7861    3.9273    6.1338 H   0  0  0  0  0  0  0  0  0  0  0  0
   11.1319    3.6424    4.4036 H   0  0  0  0  0  0  0  0  0  0  0  0
    9.1440    1.6007    3.9720 H   0  0  0  0  0  0  0  0  0  0  0  0
  1  2  1  0
  1 16  1  0
  1 17  1  0
  1 18  1  0
  2  3  1  0
  3  4  2  0
  3  5  1  0
  5  6  1  0
  5 19  1  0
  5 20  1  0
  6  7  1  0
  6 21  1  0
  6 22  1  0
  7  8  1  0
  7 23  1  0
  7 24  1  0
  8  9  1  6
  8 10  1  0
  8 11  1  0
 10 25  1  0
 11 12  1  0
 11 26  1  0
 11 27  1  0
 12 13  1  1
 12 14  1  0
 12 15  1  0
 14 28  1  0
 14 29  1  0
 14 30  1  0
 15 31  1  0
M  END

