
     RDKit          3D

 47 50  0  0  0  0  0  0  0  0999 V2000
    5.0912    1.9588    1.5843 O   0  0  0  0  0  0  0  0  0  0  0  0
    4.2474    0.8206    1.2104 S   0  0  1  0  0  0  0  0  0  0  0  0
    3.7986   -0.1919    2.1589 O   0  0  0  0  0  0  0  0  0  0  0  0
    2.8096    1.4931    0.5904 N   0  0  0  0  0  0  0  0  0  0  0  0
    2.8641    2.5868   -0.3196 C   0  0  0  0  0  0  0  0  0  0  0  0
    2.7948    2.3279   -1.6964 C   0  0  0  0  0  0  0  0  0  0  0  0
    2.9419    3.3409   -2.6420 C   0  0  0  0  0  0  0  0  0  0  0  0
    2.9356    3.0272   -4.1104 C   0  0  1  0  0  0  0  0  0  0  0  0
    2.2544    1.9028   -4.3874 F   0  0  0  0  0  0  0  0  0  0  0  0
    2.3982    4.0221   -4.8370 F   0  0  0  0  0  0  0  0  0  0  0  0
    4.1925    2.8436   -4.5917 F   0  0  0  0  0  0  0  0  0  0  0  0
    3.1802    4.6496   -2.1937 C   0  0  0  0  0  0  0  0  0  0  0  0
    3.2234    4.9252   -0.8361 C   0  0  0  0  0  0  0  0  0  0  0  0
    3.0380    3.9242    0.1541 C   0  0  0  0  0  0  0  0  0  0  0  0
    3.0140    4.2943    1.4882 N   0  0  0  0  0  0  0  0  0  0  0  0
    4.0446    5.1734    2.0445 C   0  0  0  0  0  0  0  0  0  0  0  0
    3.4470    6.0911    3.1074 C   0  0  0  0  0  0  0  0  0  0  0  0
    2.7797    5.3504    4.1058 O   0  0  0  0  0  0  0  0  0  0  0  0
    1.7555    4.5470    3.5585 C   0  0  0  0  0  0  0  0  0  0  0  0
    2.2940    3.5573    2.5235 C   0  0  0  0  0  0  0  0  0  0  0  0
    5.0577   -0.0230   -0.0961 C   0  0  0  0  0  0  0  0  0  0  0  0
    4.9860   -1.3630   -0.4663 C   0  0  0  0  0  0  0  0  0  0  0  0
    5.7373   -1.5938   -1.5816 N   0  0  0  0  0  0  0  0  0  0  0  0
    6.2509   -0.4177   -1.8939 C   0  0  0  0  0  0  0  0  0  0  0  0
    5.8650    0.5699   -1.0448 N   0  0  0  0  0  0  0  0  0  0  0  0
    6.5198    1.8545   -1.2866 C   0  0  0  0  0  0  0  0  0  0  0  0
    7.0731    1.6479   -2.7208 C   0  0  0  0  0  0  0  0  0  0  0  0
    7.2198    0.1123   -2.9078 C   0  0  0  0  0  0  0  0  0  0  0  0
    2.1514    0.7483    0.3662 H   0  0  0  0  0  0  0  0  0  0  0  0
    2.6495    1.2965   -2.0251 H   0  0  0  0  0  0  0  0  0  0  0  0
    3.2934    5.4617   -2.9149 H   0  0  0  0  0  0  0  0  0  0  0  0
    3.3436    5.9603   -0.5134 H   0  0  0  0  0  0  0  0  0  0  0  0
    4.5070    5.7728    1.2492 H   0  0  0  0  0  0  0  0  0  0  0  0
    4.8394    4.5497    2.4978 H   0  0  0  0  0  0  0  0  0  0  0  0
    2.7478    6.8083    2.6275 H   0  0  0  0  0  0  0  0  0  0  0  0
    4.2427    6.6647    3.6073 H   0  0  0  0  0  0  0  0  0  0  0  0
    0.9774    5.1847    3.0886 H   0  0  0  0  0  0  0  0  0  0  0  0
    1.2958    3.9987    4.3950 H   0  0  0  0  0  0  0  0  0  0  0  0
    1.4549    3.0110    2.0757 H   0  0  0  0  0  0  0  0  0  0  0  0
    2.9481    2.8199    3.0230 H   0  0  0  0  0  0  0  0  0  0  0  0
    4.4288   -2.1483    0.0431 H   0  0  0  0  0  0  0  0  0  0  0  0
    7.3089    2.0142   -0.5336 H   0  0  0  0  0  0  0  0  0  0  0  0
    5.8078    2.6869   -1.2131 H   0  0  0  0  0  0  0  0  0  0  0  0
    8.0163    2.1900   -2.8750 H   0  0  0  0  0  0  0  0  0  0  0  0
    6.3406    2.0370   -3.4432 H   0  0  0  0  0  0  0  0  0  0  0  0
    8.2400   -0.2410   -2.6760 H   0  0  0  0  0  0  0  0  0  0  0  0
    6.9862   -0.2216   -3.9292 H   0  0  0  0  0  0  0  0  0  0  0  0
  1  2  2  0
  2  3  2  0
  2  4  1  6
  2 21  1  0
  4  5  1  0
  4 29  1  0
  5  6  2  0
  5 14  1  0
  6  7  1  0
  6 30  1  0
  7  8  1  0
  7 12  2  0
  8  9  1  1
  8 10  1  0
  8 11  1  0
 12 13  1  0
 12 31  1  0
 13 14  2  0
 13 32  1  0
 14 15  1  0
 15 16  1  0
 15 20  1  0
 16 17  1  0
 16 33  1  0
 16 34  1  0
 17 18  1  0
 17 35  1  0
 17 36  1  0
 18 19  1  0
 19 20  1  0
 19 37  1  0
 19 38  1  0
 20 39  1  0
 20 40  1  0
 21 22  2  0
 21 25  1  0
 22 23  1  0
 22 41  1  0
 23 24  2  0
 24 25  1  0
 24 28  1  0
 25 26  1  0
 26 27  1  0
 26 42  1  0
 26 43  1  0
 27 28  1  0
 27 44  1  0
 27 45  1  0
 28 46  1  0
 28 47  1  0
M  END

