
     RDKit          3D

 29 30  0  0  0  0  0  0  0  0999 V2000
    1.0242    0.0396    0.0421 C   0  0  0  0  0  0  0  0  0  0  0  0
    2.5296    0.0685    0.0104 C   0  0  0  0  0  0  0  0  0  0  0  0
    3.2874   -1.0956    0.1336 C   0  0  0  0  0  0  0  0  0  0  0  0
    4.6959   -1.0987    0.1074 C   0  0  0  0  0  0  0  0  0  0  0  0
    5.4921   -2.2945    0.2315 C   0  0  0  0  0  0  0  0  0  0  0  0
    6.8552   -2.2796    0.2008 C   0  0  0  0  0  0  0  0  0  0  0  0
    7.7033   -3.5140    0.3511 C   0  0  0  0  0  0  0  0  0  0  0  0
    8.2557   -3.7104    1.7747 C   0  0  0  0  0  0  0  0  0  0  0  0
    7.1759   -3.9235    2.7354 N   0  0  0  0  0  0  0  0  0  0  0  0
    7.5713   -0.9951    0.0499 C   0  0  0  0  0  0  0  0  0  0  0  0
    8.7884   -0.8764    0.0299 O   0  0  0  0  0  0  0  0  0  0  0  0
    6.7516    0.1255   -0.0754 N   0  0  0  0  0  0  0  0  0  0  0  0
    7.2558    1.0013   -0.1845 H   0  0  0  0  0  0  0  0  0  0  0  0
    5.3731    0.1357   -0.0513 C   0  0  0  0  0  0  0  0  0  0  0  0
    4.6378    1.3253   -0.1782 C   0  0  0  0  0  0  0  0  0  0  0  0
    3.2482    1.2775   -0.1462 C   0  0  0  0  0  0  0  0  0  0  0  0
    2.3699    2.7841   -0.3080 Cl  0  0  0  0  0  0  0  0  0  0  0  0
    0.6546   -0.9878    0.1692 H   0  0  0  0  0  0  0  0  0  0  0  0
    0.5953    0.4491   -0.8870 H   0  0  0  0  0  0  0  0  0  0  0  0
    0.6282    0.6542    0.8670 H   0  0  0  0  0  0  0  0  0  0  0  0
    2.7706   -2.0516    0.2561 H   0  0  0  0  0  0  0  0  0  0  0  0
    4.9706   -3.2488    0.3540 H   0  0  0  0  0  0  0  0  0  0  0  0
    8.5566   -3.4405   -0.3415 H   0  0  0  0  0  0  0  0  0  0  0  0
    7.1084   -4.4012    0.0841 H   0  0  0  0  0  0  0  0  0  0  0  0
    8.9245   -2.8580    2.0112 H   0  0  0  0  0  0  0  0  0  0  0  0
    8.8893   -4.6135    1.7676 H   0  0  0  0  0  0  0  0  0  0  0  0
    6.6650   -3.0527    2.8876 H   0  0  0  0  0  0  0  0  0  0  0  0
    7.5595   -4.1839    3.6440 H   0  0  0  0  0  0  0  0  0  0  0  0
    5.1457    2.2833   -0.3015 H   0  0  0  0  0  0  0  0  0  0  0  0
  1  2  1  0
  1 18  1  0
  1 19  1  0
  1 20  1  0
  2  3  2  0
  2 16  1  0
  3  4  1  0
  3 21  1  0
  4  5  1  0
  4 14  2  0
  5  6  2  0
  5 22  1  0
  6  7  1  0
  6 10  1  0
  7  8  1  0
  7 23  1  0
  7 24  1  0
  8  9  1  0
  8 25  1  0
  8 26  1  0
  9 27  1  0
  9 28  1  0
 10 11  2  0
 10 12  1  0
 12 13  1  0
 12 14  1  0
 14 15  1  0
 15 16  2  0
 15 29  1  0
 16 17  1  0
M  END

