
     RDKit          3D

 59 61  0  0  0  0  0  0  0  0999 V2000
    1.8541   -1.3050    0.9491 C   0  0  0  0  0  0  0  0  0  0  0  0
    1.8147    0.0676    0.6189 O   0  0  0  0  0  0  0  0  0  0  0  0
    2.7289    0.9104    1.1462 C   0  0  0  0  0  0  0  0  0  0  0  0
    3.7565    0.5217    2.0267 C   0  0  0  0  0  0  0  0  0  0  0  0
    4.6490    1.4730    2.5142 C   0  0  0  0  0  0  0  0  0  0  0  0
    4.5570    2.8317    2.1505 C   0  0  0  0  0  0  0  0  0  0  0  0
    5.4660    3.8600    2.6354 C   0  0  0  0  0  0  0  0  0  0  0  0
    6.5212    3.7116    3.4752 C   0  0  0  0  0  0  0  0  0  0  0  0
    7.3526    4.8279    3.8882 C   0  0  0  0  0  0  0  0  0  0  0  0
    8.4404    4.6377    4.7489 C   0  0  0  0  0  0  0  0  0  0  0  0
    9.2229    5.7429    5.1103 C   0  0  0  0  0  0  0  0  0  0  0  0
   10.3827    5.6144    5.9714 C   0  0  0  0  0  0  0  0  0  0  0  0
   11.1636    6.6834    6.2756 C   0  0  0  0  0  0  0  0  0  0  0  0
   12.3490    6.7150    7.1175 C   0  0  0  0  0  0  0  0  0  0  0  0
   12.8640    5.5860    7.7866 C   0  0  0  0  0  0  0  0  0  0  0  0
   14.0028    5.6637    8.5840 C   0  0  0  0  0  0  0  0  0  0  0  0
   14.6691    6.8949    8.7362 C   0  0  0  0  0  0  0  0  0  0  0  0
   15.7783    7.0754    9.4854 O   0  0  0  0  0  0  0  0  0  0  0  0
   16.3396    5.9827   10.1817 C   0  0  0  0  0  0  0  0  0  0  0  0
   14.1710    8.0343    8.0771 C   0  0  0  0  0  0  0  0  0  0  0  0
   13.0355    7.9408    7.2871 C   0  0  0  0  0  0  0  0  0  0  0  0
    8.9460    6.9295    4.6623 O   0  0  0  0  0  0  0  0  0  0  0  0
    7.7686    7.2634    3.8144 B   0  0  2  0  0  0  0  0  0  0  0  0
    8.1928    7.8849    2.5774 O   0  0  0  0  0  0  0  0  0  0  0  0
    8.9328    8.9995    2.5217 C   0  0  0  0  0  0  0  0  0  0  0  0
    9.1139    9.4657    1.0915 C   0  0  0  0  0  0  0  0  0  0  0  0
    9.4040    9.5668    3.4791 O   0  0  0  0  0  0  0  0  0  0  0  0
    6.8551    8.1470    4.5218 O   0  0  0  0  0  0  0  0  0  0  0  0
    6.3065    7.8249    5.6924 C   0  0  0  0  0  0  0  0  0  0  0  0
    5.4492    8.9444    6.2400 C   0  0  0  0  0  0  0  0  0  0  0  0
    6.4726    6.7634    6.2550 O   0  0  0  0  0  0  0  0  0  0  0  0
    7.0615    6.0051    3.4156 O   0  0  0  0  0  0  0  0  0  0  0  0
    3.5157    3.1971    1.2651 C   0  0  0  0  0  0  0  0  0  0  0  0
    2.6191    2.2622    0.7704 C   0  0  0  0  0  0  0  0  0  0  0  0
    1.0239   -1.7787    0.4089 H   0  0  0  0  0  0  0  0  0  0  0  0
    1.7169   -1.4695    2.0326 H   0  0  0  0  0  0  0  0  0  0  0  0
    2.8021   -1.7751    0.6327 H   0  0  0  0  0  0  0  0  0  0  0  0
    3.8651   -0.5178    2.3358 H   0  0  0  0  0  0  0  0  0  0  0  0
    5.4356    1.1447    3.1970 H   0  0  0  0  0  0  0  0  0  0  0  0
    5.2715    4.8759    2.2771 H   0  0  0  0  0  0  0  0  0  0  0  0
    6.7954    2.7376    3.8862 H   0  0  0  0  0  0  0  0  0  0  0  0
    8.6738    3.6462    5.1317 H   0  0  0  0  0  0  0  0  0  0  0  0
   10.5920    4.6132    6.3543 H   0  0  0  0  0  0  0  0  0  0  0  0
   10.8676    7.6384    5.8279 H   0  0  0  0  0  0  0  0  0  0  0  0
   12.3643    4.6200    7.6871 H   0  0  0  0  0  0  0  0  0  0  0  0
   14.3653    4.7656    9.0841 H   0  0  0  0  0  0  0  0  0  0  0  0
   17.2193    6.3705   10.7120 H   0  0  0  0  0  0  0  0  0  0  0  0
   16.6608    5.1802    9.4941 H   0  0  0  0  0  0  0  0  0  0  0  0
   15.6338    5.5609   10.9192 H   0  0  0  0  0  0  0  0  0  0  0  0
   14.6993    8.9808    8.2066 H   0  0  0  0  0  0  0  0  0  0  0  0
   12.6577    8.8330    6.7808 H   0  0  0  0  0  0  0  0  0  0  0  0
    9.5462    8.6562    0.4830 H   0  0  0  0  0  0  0  0  0  0  0  0
    9.7626   10.3496    1.0637 H   0  0  0  0  0  0  0  0  0  0  0  0
    8.1319    9.7067    0.6543 H   0  0  0  0  0  0  0  0  0  0  0  0
    4.6738    9.2157    5.5069 H   0  0  0  0  0  0  0  0  0  0  0  0
    6.0709    9.8401    6.3955 H   0  0  0  0  0  0  0  0  0  0  0  0
    4.9870    8.6372    7.1859 H   0  0  0  0  0  0  0  0  0  0  0  0
    3.4182    4.2440    0.9654 H   0  0  0  0  0  0  0  0  0  0  0  0
    1.8166    2.5471    0.0875 H   0  0  0  0  0  0  0  0  0  0  0  0
  1  2  1  0
  1 35  1  0
  1 36  1  0
  1 37  1  0
  2  3  1  0
  3  4  2  0
  3 34  1  0
  4  5  1  0
  4 38  1  0
  5  6  2  0
  5 39  1  0
  6  7  1  0
  6 33  1  0
  7  8  2  0
  7 40  1  0
  8  9  1  0
  8 41  1  0
  9 10  1  0
  9 32  2  0
 10 11  2  0
 10 42  1  0
 11 12  1  0
 11 22  1  0
 12 13  2  0
 12 43  1  0
 13 14  1  0
 13 44  1  0
 14 15  2  0
 14 21  1  0
 15 16  1  0
 15 45  1  0
 16 17  2  0
 16 46  1  0
 17 18  1  0
 17 20  1  0
 18 19  1  0
 19 47  1  0
 19 48  1  0
 19 49  1  0
 20 21  2  0
 20 50  1  0
 21 51  1  0
 22 23  1  0
 23 24  1  6
 23 28  1  0
 23 32  1  0
 24 25  1  0
 25 26  1  0
 25 27  2  0
 26 52  1  0
 26 53  1  0
 26 54  1  0
 28 29  1  0
 29 30  1  0
 29 31  2  0
 30 55  1  0
 30 56  1  0
 30 57  1  0
 33 34  2  0
 33 58  1  0
 34 59  1  0
M  CHG  2  23  -1  32   1
M  END

