
     RDKit          3D

 71 77  0  0  0  0  0  0  0  0999 V2000
   -0.2522   -1.0383   -5.8519 C   0  0  0  0  0  0  0  0  0  0  0  0
    1.0137   -1.0491   -5.2289 O   0  0  0  0  0  0  0  0  0  0  0  0
    1.7030   -2.2046   -5.1531 C   0  0  0  0  0  0  0  0  0  0  0  0
    1.2669   -3.4360   -5.6500 C   0  0  0  0  0  0  0  0  0  0  0  0
    2.0602   -4.5825   -5.5276 C   0  0  0  0  0  0  0  0  0  0  0  0
    3.3127   -4.5177   -4.9055 C   0  0  0  0  0  0  0  0  0  0  0  0
    4.1527   -5.6999   -4.7200 C   0  0  0  0  0  0  0  0  0  0  0  0
    4.8971   -5.6919   -3.5690 O   0  0  0  0  0  0  0  0  0  0  0  0
    5.5757   -6.8766   -3.4819 C   0  0  0  0  0  0  0  0  0  0  0  0
    6.2234   -7.5313   -2.3983 C   0  0  0  0  0  0  0  0  0  0  0  0
    6.9247   -8.5290   -3.1104 C   0  0  0  0  0  0  0  0  0  0  0  0
    6.1636   -9.6636   -3.6260 C   0  0  0  0  0  0  0  0  0  0  0  0
    5.3756   -9.1292   -4.6570 C   0  0  0  0  0  0  0  0  0  0  0  0
    4.6115   -9.8025   -5.7257 C   0  0  0  0  0  0  0  0  0  0  0  0
    4.5572  -11.1796   -5.8986 C   0  0  0  0  0  0  0  0  0  0  0  0
    5.0905  -12.1701   -4.9205 C   0  0  0  0  0  0  0  0  0  0  0  0
    6.3050  -12.8198   -5.1353 C   0  0  0  0  0  0  0  0  0  0  0  0
    6.7908  -13.7455   -4.2011 C   0  0  0  0  0  0  0  0  0  0  0  0
    6.0610  -14.0506   -3.0505 C   0  0  0  0  0  0  0  0  0  0  0  0
    6.4400  -14.9334   -2.0998 O   0  0  0  0  0  0  0  0  0  0  0  0
    7.6493  -15.6387   -2.2622 C   0  0  0  0  0  0  0  0  0  0  0  0
    4.8085  -13.4068   -2.8325 C   0  0  0  0  0  0  0  0  0  0  0  0
    4.1511  -13.7700   -1.7066 O   0  0  0  0  0  0  0  0  0  0  0  0
    2.8860  -13.2108   -1.4409 C   0  0  0  0  0  0  0  0  0  0  0  0
    4.3445  -12.4774   -3.7636 C   0  0  0  0  0  0  0  0  0  0  0  0
    3.9548  -11.7393   -7.0921 C   0  0  0  0  0  0  0  0  0  0  0  0
    3.8768  -13.0220   -7.2799 N   0  0  0  0  0  0  0  0  0  0  0  0
    3.4088  -13.6818   -8.7275 S   0  0  1  0  0  0  0  0  0  0  0  0
    4.1685  -13.1344   -9.8500 O   0  0  0  0  0  0  0  0  0  0  0  0
    3.2864  -15.1160   -8.5195 O   0  0  0  0  0  0  0  0  0  0  0  0
    1.6070  -13.0904   -8.9820 C   0  0  1  0  0  0  0  0  0  0  0  0
    1.0721  -12.6825   -7.8274 F   0  0  0  0  0  0  0  0  0  0  0  0
    1.5559  -12.0856   -9.8547 F   0  0  0  0  0  0  0  0  0  0  0  0
    0.8912  -14.1024   -9.4535 F   0  0  0  0  0  0  0  0  0  0  0  0
    3.4683  -10.9020   -8.0331 O   0  0  0  0  0  0  0  0  0  0  0  0
    3.4361   -9.5496   -7.8839 C   0  0  0  0  0  0  0  0  0  0  0  0
    2.8605   -8.8355   -8.9362 C   0  0  0  0  0  0  0  0  0  0  0  0
    2.8030   -7.4494   -8.8414 C   0  0  0  0  0  0  0  0  0  0  0  0
    3.2825   -6.7970   -7.7012 C   0  0  0  0  0  0  0  0  0  0  0  0
    3.8408   -7.5137   -6.6347 C   0  0  0  0  0  0  0  0  0  0  0  0
    4.3534   -6.8982   -5.4123 C   0  0  0  0  0  0  0  0  0  0  0  0
    5.2201   -7.6739   -4.5948 C   0  0  0  0  0  0  0  0  0  0  0  0
    3.9633   -8.9398   -6.7310 C   0  0  0  0  0  0  0  0  0  0  0  0
    3.7489   -3.2756   -4.3822 C   0  0  0  0  0  0  0  0  0  0  0  0
    2.9698   -2.1293   -4.5011 C   0  0  0  0  0  0  0  0  0  0  0  0
    3.3165   -0.9069   -4.0417 O   0  0  0  0  0  0  0  0  0  0  0  0
    4.5498   -0.7479   -3.3762 C   0  0  0  0  0  0  0  0  0  0  0  0
   -0.6158   -0.0037   -5.7990 H   0  0  0  0  0  0  0  0  0  0  0  0
   -0.9701   -1.6980   -5.3324 H   0  0  0  0  0  0  0  0  0  0  0  0
   -0.1896   -1.3433   -6.9119 H   0  0  0  0  0  0  0  0  0  0  0  0
    0.2919   -3.5169   -6.1301 H   0  0  0  0  0  0  0  0  0  0  0  0
    1.6744   -5.5342   -5.8928 H   0  0  0  0  0  0  0  0  0  0  0  0
    5.7552   -7.6250   -1.4105 H   0  0  0  0  0  0  0  0  0  0  0  0
    7.4465   -8.0630   -3.9588 H   0  0  0  0  0  0  0  0  0  0  0  0
    6.0760  -10.6742   -3.2332 H   0  0  0  0  0  0  0  0  0  0  0  0
    6.8857  -12.6111   -6.0358 H   0  0  0  0  0  0  0  0  0  0  0  0
    7.7445  -14.2378   -4.3902 H   0  0  0  0  0  0  0  0  0  0  0  0
    7.7452  -16.2981   -1.3892 H   0  0  0  0  0  0  0  0  0  0  0  0
    8.5208  -14.9596   -2.2952 H   0  0  0  0  0  0  0  0  0  0  0  0
    7.6452  -16.2556   -3.1789 H   0  0  0  0  0  0  0  0  0  0  0  0
    2.5383  -13.6581   -0.5000 H   0  0  0  0  0  0  0  0  0  0  0  0
    2.1578  -13.4429   -2.2390 H   0  0  0  0  0  0  0  0  0  0  0  0
    2.9375  -12.1133   -1.3168 H   0  0  0  0  0  0  0  0  0  0  0  0
    3.3869  -11.9811   -3.6076 H   0  0  0  0  0  0  0  0  0  0  0  0
    2.4822   -9.3873   -9.7973 H   0  0  0  0  0  0  0  0  0  0  0  0
    2.3785   -6.8665   -9.6621 H   0  0  0  0  0  0  0  0  0  0  0  0
    3.2365   -5.7098   -7.6455 H   0  0  0  0  0  0  0  0  0  0  0  0
    4.7139   -3.2320   -3.8811 H   0  0  0  0  0  0  0  0  0  0  0  0
    4.6162    0.3109   -3.0931 H   0  0  0  0  0  0  0  0  0  0  0  0
    5.4045   -0.9989   -4.0301 H   0  0  0  0  0  0  0  0  0  0  0  0
    4.6068   -1.3683   -2.4636 H   0  0  0  0  0  0  0  0  0  0  0  0
  1  2  1  0
  1 48  1  0
  1 49  1  0
  1 50  1  0
  2  3  1  0
  3  4  2  0
  3 45  1  0
  4  5  1  0
  4 51  1  0
  5  6  2  0
  5 52  1  0
  6  7  1  0
  6 44  1  0
  7  8  1  0
  7 41  2  0
  8  9  1  0
  9 10  2  0
  9 42  1  0
 10 11  1  0
 10 53  1  0
 11 12  2  0
 11 54  1  0
 12 13  1  0
 12 55  1  0
 13 14  1  0
 13 42  2  0
 14 15  2  0
 14 43  1  0
 15 16  1  0
 15 26  1  0
 16 17  2  0
 16 25  1  0
 17 18  1  0
 17 56  1  0
 18 19  2  0
 18 57  1  0
 19 20  1  0
 19 22  1  0
 20 21  1  0
 21 58  1  0
 21 59  1  0
 21 60  1  0
 22 23  1  0
 22 25  2  0
 23 24  1  0
 24 61  1  0
 24 62  1  0
 24 63  1  0
 25 64  1  0
 26 27  2  0
 26 35  1  0
 28 27  1  1
 28 29  2  0
 28 30  2  0
 28 31  1  0
 31 32  1  1
 31 33  1  0
 31 34  1  0
 35 36  1  0
 36 37  1  0
 36 43  2  0
 37 38  2  0
 37 65  1  0
 38 39  1  0
 38 66  1  0
 39 40  2  0
 39 67  1  0
 40 41  1  0
 40 43  1  0
 41 42  1  0
 44 45  2  0
 44 68  1  0
 45 46  1  0
 46 47  1  0
 47 69  1  0
 47 70  1  0
 47 71  1  0
M  END

