
     RDKit          3D

 63 65  0  0  0  0  0  0  0  0999 V2000
    7.9264    0.7330   -5.5414 C   0  0  0  0  0  0  0  0  0  0  0  0
    7.6738    0.3816   -4.0964 C   0  0  0  0  0  0  0  0  0  0  0  0
    7.3043   -0.9178   -3.7152 C   0  0  0  0  0  0  0  0  0  0  0  0
    7.0622   -1.2403   -2.3778 C   0  0  0  0  0  0  0  0  0  0  0  0
    7.1985   -0.2502   -1.4010 C   0  0  0  0  0  0  0  0  0  0  0  0
    6.9333   -0.6632    0.3293 S   0  0  1  0  0  0  0  0  0  0  0  0
    6.6123    0.5816    1.0304 O   0  0  0  0  0  0  0  0  0  0  0  0
    6.0472   -1.8282    0.3701 O   0  0  0  0  0  0  0  0  0  0  0  0
    8.4145   -1.1783    0.9421 N   0  0  0  0  0  0  0  0  0  0  0  0
    9.4500   -0.1786    1.2096 C   0  0  0  0  0  0  0  0  0  0  0  0
   10.3674   -0.6847    2.3253 C   0  0  0  0  0  0  0  0  0  0  0  0
   10.9316   -2.0711    2.0017 C   0  0  0  0  0  0  0  0  0  0  0  0
    9.8035   -3.0682    1.6774 C   0  0  2  0  0  0  0  0  0  0  0  0
   10.3887   -4.4063    1.2193 C   0  0  0  0  0  0  0  0  0  0  0  0
   11.0903   -4.4843    0.2206 O   0  0  0  0  0  0  0  0  0  0  0  0
   10.0882   -5.4780    2.0091 N   0  0  0  0  0  0  0  0  0  0  0  0
   10.4233   -6.8525    1.6389 C   0  0  1  0  0  0  0  0  0  0  0  0
   11.9339   -7.1033    1.6234 C   0  0  0  0  0  0  0  0  0  0  0  0
    9.7372   -7.7992    2.6208 C   0  0  0  0  0  0  0  0  0  0  0  0
    8.3611   -7.4785    2.6725 O   0  0  0  0  0  0  0  0  0  0  0  0
    7.5217   -8.1939    3.4800 C   0  0  0  0  0  0  0  0  0  0  0  0
    6.1756   -7.8065    3.4762 C   0  0  0  0  0  0  0  0  0  0  0  0
    5.2639   -8.4902    4.2757 C   0  0  0  0  0  0  0  0  0  0  0  0
    5.6488   -9.5650    5.0933 C   0  0  0  0  0  0  0  0  0  0  0  0
    4.6338  -10.2840    5.9479 C   0  0  0  0  0  0  0  0  0  0  0  0
    7.0058   -9.9523    5.0931 C   0  0  0  0  0  0  0  0  0  0  0  0
    7.4749  -11.1012    5.9526 C   0  0  0  0  0  0  0  0  0  0  0  0
    7.9284   -9.2641    4.2874 C   0  0  0  0  0  0  0  0  0  0  0  0
    8.8993   -2.5049    0.5646 C   0  0  0  0  0  0  0  0  0  0  0  0
    7.5520    1.0576   -1.7540 C   0  0  0  0  0  0  0  0  0  0  0  0
    7.7889    1.3614   -3.0939 C   0  0  0  0  0  0  0  0  0  0  0  0
    7.8600   -0.1509   -6.1921 H   0  0  0  0  0  0  0  0  0  0  0  0
    8.9258    1.1790   -5.6746 H   0  0  0  0  0  0  0  0  0  0  0  0
    7.1936    1.4738   -5.9033 H   0  0  0  0  0  0  0  0  0  0  0  0
    7.1955   -1.6922   -4.4795 H   0  0  0  0  0  0  0  0  0  0  0  0
    6.7495   -2.2460   -2.0922 H   0  0  0  0  0  0  0  0  0  0  0  0
    8.9567    0.7547    1.5095 H   0  0  0  0  0  0  0  0  0  0  0  0
   10.0470    0.0210    0.2949 H   0  0  0  0  0  0  0  0  0  0  0  0
    9.7905   -0.7232    3.2651 H   0  0  0  0  0  0  0  0  0  0  0  0
   11.1863    0.0381    2.4752 H   0  0  0  0  0  0  0  0  0  0  0  0
   11.5362   -2.4491    2.8427 H   0  0  0  0  0  0  0  0  0  0  0  0
   11.6016   -2.0183    1.1266 H   0  0  0  0  0  0  0  0  0  0  0  0
    9.1828   -3.2109    2.5785 H   0  0  0  0  0  0  0  0  0  0  0  0
    9.3172   -5.3731    2.6604 H   0  0  0  0  0  0  0  0  0  0  0  0
   10.0230   -7.0514    0.6275 H   0  0  0  0  0  0  0  0  0  0  0  0
   12.3728   -6.9127    2.6163 H   0  0  0  0  0  0  0  0  0  0  0  0
   12.4130   -6.4385    0.8940 H   0  0  0  0  0  0  0  0  0  0  0  0
   12.1474   -8.1466    1.3405 H   0  0  0  0  0  0  0  0  0  0  0  0
   10.1925   -7.6967    3.6253 H   0  0  0  0  0  0  0  0  0  0  0  0
    9.8885   -8.8410    2.2858 H   0  0  0  0  0  0  0  0  0  0  0  0
    5.8655   -6.9735    2.8421 H   0  0  0  0  0  0  0  0  0  0  0  0
    4.2152   -8.1796    4.2652 H   0  0  0  0  0  0  0  0  0  0  0  0
    3.6302   -9.8518    5.8228 H   0  0  0  0  0  0  0  0  0  0  0  0
    4.8878  -10.2311    7.0207 H   0  0  0  0  0  0  0  0  0  0  0  0
    4.5686  -11.3563    5.6948 H   0  0  0  0  0  0  0  0  0  0  0  0
    7.2715  -10.9174    7.0214 H   0  0  0  0  0  0  0  0  0  0  0  0
    8.5552  -11.2748    5.8421 H   0  0  0  0  0  0  0  0  0  0  0  0
    6.9555  -12.0396    5.6937 H   0  0  0  0  0  0  0  0  0  0  0  0
    8.9715   -9.5821    4.3038 H   0  0  0  0  0  0  0  0  0  0  0  0
    8.0301   -3.1590    0.4167 H   0  0  0  0  0  0  0  0  0  0  0  0
    9.4808   -2.4747   -0.3777 H   0  0  0  0  0  0  0  0  0  0  0  0
    7.6162    1.8272   -0.9830 H   0  0  0  0  0  0  0  0  0  0  0  0
    8.0607    2.3844   -3.3701 H   0  0  0  0  0  0  0  0  0  0  0  0
  1  2  1  0
  1 32  1  0
  1 33  1  0
  1 34  1  0
  2  3  2  0
  2 31  1  0
  3  4  1  0
  3 35  1  0
  4  5  2  0
  4 36  1  0
  6  5  1  6
  5 30  1  0
  6  7  2  0
  6  8  2  0
  6  9  1  0
  9 10  1  0
  9 29  1  0
 10 11  1  0
 10 37  1  0
 10 38  1  0
 11 12  1  0
 11 39  1  0
 11 40  1  0
 12 13  1  0
 12 41  1  0
 12 42  1  0
 13 14  1  0
 13 29  1  0
 13 43  1  1
 14 15  2  0
 14 16  1  0
 16 17  1  0
 16 44  1  0
 17 18  1  0
 17 19  1  0
 17 45  1  6
 18 46  1  0
 18 47  1  0
 18 48  1  0
 19 20  1  0
 19 49  1  0
 19 50  1  0
 20 21  1  0
 21 22  2  0
 21 28  1  0
 22 23  1  0
 22 51  1  0
 23 24  2  0
 23 52  1  0
 24 25  1  0
 24 26  1  0
 25 53  1  0
 25 54  1  0
 25 55  1  0
 26 27  1  0
 26 28  2  0
 27 56  1  0
 27 57  1  0
 27 58  1  0
 28 59  1  0
 29 60  1  0
 29 61  1  0
 30 31  2  0
 30 62  1  0
 31 63  1  0
M  END

