
     RDKit          3D

 35 37  0  0  0  0  0  0  0  0999 V2000
    1.0380    1.2165    0.5181 N   0  0  0  0  0  0  0  0  0  0  0  0
    2.1488    0.9095    0.3707 C   0  0  0  0  0  0  0  0  0  0  0  0
    3.5260    0.5662    0.1634 C   0  0  0  0  0  0  0  0  0  0  0  0
    4.1249   -0.5415    0.6943 C   0  0  0  0  0  0  0  0  0  0  0  0
    3.6138   -1.6086    1.5457 C   0  0  0  0  0  0  0  0  0  0  0  0
    4.5326   -2.6213    1.9136 C   0  0  0  0  0  0  0  0  0  0  0  0
    4.1565   -3.6877    2.7223 C   0  0  0  0  0  0  0  0  0  0  0  0
    2.8381   -3.7473    3.1746 C   0  0  0  0  0  0  0  0  0  0  0  0
    2.4248   -4.8758    4.0353 N   0  0  0  0  0  0  0  0  0  0  0  0
    3.2706   -5.7113    4.3109 O   0  0  0  0  0  0  0  0  0  0  0  0
    1.2654   -4.8991    4.4143 O   0  0  0  0  0  0  0  0  0  0  0  0
    1.8993   -2.7703    2.8363 C   0  0  0  0  0  0  0  0  0  0  0  0
    2.2861   -1.7076    2.0265 C   0  0  0  0  0  0  0  0  0  0  0  0
    4.3061    1.4896   -0.6789 C   0  0  0  0  0  0  0  0  0  0  0  0
    5.5675    1.3334   -0.9712 N   0  0  0  0  0  0  0  0  0  0  0  0
    6.0531    2.3347   -1.7727 C   0  0  0  0  0  0  0  0  0  0  0  0
    7.4682    2.3175   -2.2029 C   0  0  0  0  0  0  0  0  0  0  0  0
    8.0014    3.3222   -3.0319 C   0  0  0  0  0  0  0  0  0  0  0  0
    9.3389    3.2875   -3.4259 C   0  0  0  0  0  0  0  0  0  0  0  0
   10.1727    2.2480   -3.0001 C   0  0  0  0  0  0  0  0  0  0  0  0
    9.6546    1.2443   -2.1767 C   0  0  0  0  0  0  0  0  0  0  0  0
    8.3164    1.2775   -1.7815 C   0  0  0  0  0  0  0  0  0  0  0  0
    5.1085    3.2932   -2.0998 C   0  0  0  0  0  0  0  0  0  0  0  0
    3.5875    2.9274   -1.3878 S   0  0  0  0  0  0  0  0  0  0  0  0
    5.1802   -0.6326    0.4234 H   0  0  0  0  0  0  0  0  0  0  0  0
    5.5618   -2.5615    1.5520 H   0  0  0  0  0  0  0  0  0  0  0  0
    4.8579   -4.4705    3.0092 H   0  0  0  0  0  0  0  0  0  0  0  0
    0.8804   -2.8573    3.2123 H   0  0  0  0  0  0  0  0  0  0  0  0
    1.5447   -0.9528    1.7701 H   0  0  0  0  0  0  0  0  0  0  0  0
    7.3697    4.1433   -3.3775 H   0  0  0  0  0  0  0  0  0  0  0  0
    9.7330    4.0775   -4.0701 H   0  0  0  0  0  0  0  0  0  0  0  0
   11.2205    2.2217   -3.3095 H   0  0  0  0  0  0  0  0  0  0  0  0
   10.2977    0.4277   -1.8386 H   0  0  0  0  0  0  0  0  0  0  0  0
    7.9083    0.4965   -1.1392 H   0  0  0  0  0  0  0  0  0  0  0  0
    5.2293    4.1825   -2.7137 H   0  0  0  0  0  0  0  0  0  0  0  0
  1  2  3  0
  2  3  1  0
  3  4  2  0
  3 14  1  0
  4  5  1  0
  4 25  1  0
  5  6  2  0
  5 13  1  0
  6  7  1  0
  6 26  1  0
  7  8  2  0
  7 27  1  0
  8  9  1  0
  8 12  1  0
  9 10  2  0
  9 11  1  0
 12 13  2  0
 12 28  1  0
 13 29  1  0
 14 15  2  0
 14 24  1  0
 15 16  1  0
 16 17  1  0
 16 23  2  0
 17 18  2  0
 17 22  1  0
 18 19  1  0
 18 30  1  0
 19 20  2  0
 19 31  1  0
 20 21  1  0
 20 32  1  0
 21 22  2  0
 21 33  1  0
 22 34  1  0
 23 24  1  0
 23 35  1  0
M  CHG  2   9   1  11  -1
M  END

