
     RDKit          3D

 50 52  0  0  0  0  0  0  0  0999 V2000
    2.0504   -1.7646   -2.3454 O   0  0  0  0  0  0  0  0  0  0  0  0
    3.0669   -1.2856   -1.9074 C   0  0  0  0  0  0  0  0  0  0  0  0
    4.2441   -1.8829   -2.1062 O   0  0  0  0  0  0  0  0  0  0  0  0
    3.0065    0.0137   -1.0858 C   0  0  0  0  0  0  0  0  0  0  0  0
    4.3120    0.7093   -0.7004 C   0  0  0  0  0  0  0  0  0  0  0  0
    5.1102    1.2683   -1.9015 C   0  0  1  0  0  0  0  0  0  0  0  0
    4.6217    2.6705   -2.3087 C   0  0  0  0  0  0  0  0  0  0  0  0
    5.3141    3.2548   -3.5225 C   0  0  0  0  0  0  0  0  0  0  0  0
    5.1459    2.6794   -4.7939 C   0  0  0  0  0  0  0  0  0  0  0  0
    5.7971    3.2060   -5.9109 C   0  0  0  0  0  0  0  0  0  0  0  0
    6.6312    4.3222   -5.7798 C   0  0  0  0  0  0  0  0  0  0  0  0
    6.8045    4.9079   -4.5240 C   0  0  0  0  0  0  0  0  0  0  0  0
    6.1499    4.3768   -3.4066 C   0  0  0  0  0  0  0  0  0  0  0  0
    6.5442    1.3114   -1.6179 N   0  0  0  0  0  0  0  0  0  0  0  0
    7.2584    0.1536   -1.5141 C   0  0  0  0  0  0  0  0  0  0  0  0
    6.6991   -0.9525   -1.5242 O   0  0  0  0  0  0  0  0  0  0  0  0
    8.6306    0.2552   -1.3677 N   0  0  0  0  0  0  0  0  0  0  0  0
    9.3980   -0.9943   -1.4992 C   0  0  0  0  0  0  0  0  0  0  0  0
    9.7170   -1.3836   -2.9203 C   0  0  0  0  0  0  0  0  0  0  0  0
    8.9343   -2.0994   -3.7973 C   0  0  0  0  0  0  0  0  0  0  0  0
    9.5303   -2.2545   -5.0855 C   0  0  0  0  0  0  0  0  0  0  0  0
   10.7602   -1.6527   -5.1779 C   0  0  0  0  0  0  0  0  0  0  0  0
   11.2043   -0.8912   -3.6897 S   0  0  0  0  0  0  0  0  0  0  0  0
    9.3247    1.5011   -1.5490 C   0  0  1  0  0  0  0  0  0  0  0  0
    9.1607    2.6096   -0.5285 C   0  0  0  0  0  0  0  0  0  0  0  0
   10.4500    1.8435   -0.6065 C   0  0  0  0  0  0  0  0  0  0  0  0
    5.0564   -1.4279   -1.7715 H   0  0  0  0  0  0  0  0  0  0  0  0
    2.4447   -0.2480   -0.1734 H   0  0  0  0  0  0  0  0  0  0  0  0
    2.3349    0.6835   -1.6472 H   0  0  0  0  0  0  0  0  0  0  0  0
    4.9487    0.0033   -0.1493 H   0  0  0  0  0  0  0  0  0  0  0  0
    4.0944    1.5327    0.0012 H   0  0  0  0  0  0  0  0  0  0  0  0
    4.9590    0.5893   -2.7594 H   0  0  0  0  0  0  0  0  0  0  0  0
    4.7418    3.3513   -1.4489 H   0  0  0  0  0  0  0  0  0  0  0  0
    3.5381    2.5981   -2.4970 H   0  0  0  0  0  0  0  0  0  0  0  0
    4.4932    1.8095   -4.9120 H   0  0  0  0  0  0  0  0  0  0  0  0
    5.6505    2.7446   -6.8908 H   0  0  0  0  0  0  0  0  0  0  0  0
    7.1390    4.7350   -6.6550 H   0  0  0  0  0  0  0  0  0  0  0  0
    7.4465    5.7855   -4.4115 H   0  0  0  0  0  0  0  0  0  0  0  0
    6.2791    4.8524   -2.4292 H   0  0  0  0  0  0  0  0  0  0  0  0
    7.0407    2.1794   -1.7741 H   0  0  0  0  0  0  0  0  0  0  0  0
    8.7991   -1.7900   -1.0408 H   0  0  0  0  0  0  0  0  0  0  0  0
   10.3219   -0.8820   -0.9145 H   0  0  0  0  0  0  0  0  0  0  0  0
    7.9562   -2.4932   -3.5169 H   0  0  0  0  0  0  0  0  0  0  0  0
    9.0655   -2.7974   -5.9103 H   0  0  0  0  0  0  0  0  0  0  0  0
   11.4347   -1.6220   -6.0325 H   0  0  0  0  0  0  0  0  0  0  0  0
    9.4648    1.8150   -2.5932 H   0  0  0  0  0  0  0  0  0  0  0  0
    8.5089    2.4085    0.3253 H   0  0  0  0  0  0  0  0  0  0  0  0
    9.1342    3.6403   -0.8942 H   0  0  0  0  0  0  0  0  0  0  0  0
   10.6610    1.1413    0.2042 H   0  0  0  0  0  0  0  0  0  0  0  0
   11.3332    2.3297   -1.0287 H   0  0  0  0  0  0  0  0  0  0  0  0
  1  2  2  0
  2  3  1  0
  2  4  1  0
  3 27  1  0
  4  5  1  0
  4 28  1  0
  4 29  1  0
  5  6  1  0
  5 30  1  0
  5 31  1  0
  6  7  1  0
  6 14  1  0
  6 32  1  6
  7  8  1  0
  7 33  1  0
  7 34  1  0
  8  9  2  0
  8 13  1  0
  9 10  1  0
  9 35  1  0
 10 11  2  0
 10 36  1  0
 11 12  1  0
 11 37  1  0
 12 13  2  0
 12 38  1  0
 13 39  1  0
 14 15  1  0
 14 40  1  0
 15 16  2  0
 15 17  1  0
 17 18  1  0
 17 24  1  0
 18 19  1  0
 18 41  1  0
 18 42  1  0
 19 20  2  0
 19 23  1  0
 20 21  1  0
 20 43  1  0
 21 22  2  0
 21 44  1  0
 22 23  1  0
 22 45  1  0
 24 25  1  0
 24 26  1  0
 24 46  1  6
 25 26  1  0
 25 47  1  0
 25 48  1  0
 26 49  1  0
 26 50  1  0
M  END

