
     RDKit          3D

 77 82  0  0  0  0  0  0  0  0999 V2000
    0.0749   -5.4711   -4.2271 C   0  0  0  0  0  0  0  0  0  0  0  0
    1.2076   -4.8812   -4.8211 O   0  0  0  0  0  0  0  0  0  0  0  0
    2.2716   -4.5476   -4.0466 C   0  0  0  0  0  0  0  0  0  0  0  0
    3.3488   -3.9538   -4.7138 C   0  0  0  0  0  0  0  0  0  0  0  0
    4.4838   -3.5508   -4.0001 C   0  0  0  0  0  0  0  0  0  0  0  0
    5.4713   -2.9778   -4.7358 O   0  0  0  0  0  0  0  0  0  0  0  0
    6.6466   -2.5240   -4.0790 C   0  0  0  0  0  0  0  0  0  0  0  0
    7.5553   -1.9387   -5.1074 C   0  0  0  0  0  0  0  0  0  0  0  0
    7.6804   -0.6124   -5.3508 N   0  0  0  0  0  0  0  0  0  0  0  0
    8.5234   -0.4952   -6.3350 N   0  0  0  0  0  0  0  0  0  0  0  0
    8.8871   -1.7288   -6.6735 N   0  0  0  0  0  0  0  0  0  0  0  0
    9.8715   -2.0690   -7.7601 C   0  0  1  0  0  0  0  0  0  0  0  0
   10.5259   -0.7523   -8.2491 C   0  0  0  0  0  0  0  0  0  0  0  0
   11.9030   -0.5187   -8.1508 C   0  0  0  0  0  0  0  0  0  0  0  0
   12.4677    0.6622   -8.6512 C   0  0  0  0  0  0  0  0  0  0  0  0
   11.6635    1.6261   -9.2565 C   0  0  0  0  0  0  0  0  0  0  0  0
   10.2866    1.3987   -9.3684 C   0  0  0  0  0  0  0  0  0  0  0  0
    9.7273    0.2215   -8.8771 C   0  0  0  0  0  0  0  0  0  0  0  0
   10.8989   -3.0250   -7.1090 C   0  0  0  0  0  0  0  0  0  0  0  0
   11.3387   -4.1946   -7.7393 C   0  0  0  0  0  0  0  0  0  0  0  0
   12.2948   -5.0176   -7.1312 C   0  0  0  0  0  0  0  0  0  0  0  0
   12.8214   -4.6863   -5.8829 C   0  0  0  0  0  0  0  0  0  0  0  0
   12.3854   -3.5210   -5.2423 C   0  0  0  0  0  0  0  0  0  0  0  0
   11.4350   -2.7011   -5.8496 C   0  0  0  0  0  0  0  0  0  0  0  0
    9.1280   -2.7422   -8.9450 C   0  0  0  0  0  0  0  0  0  0  0  0
    7.9280   -3.4529   -8.7896 C   0  0  0  0  0  0  0  0  0  0  0  0
    7.3187   -4.0747   -9.8851 C   0  0  0  0  0  0  0  0  0  0  0  0
    7.9017   -4.0148  -11.1517 C   0  0  0  0  0  0  0  0  0  0  0  0
    9.1046   -3.3226  -11.3156 C   0  0  0  0  0  0  0  0  0  0  0  0
    9.7066   -2.6900  -10.2260 C   0  0  0  0  0  0  0  0  0  0  0  0
    8.3149   -2.6583   -5.9244 N   0  0  0  0  0  0  0  0  0  0  0  0
    4.5503   -3.7468   -2.6125 C   0  0  0  0  0  0  0  0  0  0  0  0
    3.4796   -4.3617   -1.9541 C   0  0  0  0  0  0  0  0  0  0  0  0
    3.6242   -4.5440   -0.4616 C   0  0  0  0  0  0  0  0  0  0  0  0
    4.4027   -3.8650    0.1940 O   0  0  0  0  0  0  0  0  0  0  0  0
    2.8431   -5.5127    0.1058 N   0  0  0  0  0  0  0  0  0  0  0  0
    2.8873   -5.7998    1.5391 C   0  0  1  0  0  0  0  0  0  0  0  0
    1.5494   -6.3964    2.0079 C   0  0  0  0  0  0  0  0  0  0  0  0
    1.3755   -7.8493    1.5504 C   0  0  0  0  0  0  0  0  0  0  0  0
    2.5076   -8.6470    1.9937 N   0  0  0  0  0  0  0  0  0  0  0  0
    3.7800   -8.1806    1.4533 C   0  0  0  0  0  0  0  0  0  0  0  0
    4.0458   -6.7473    1.9167 C   0  0  0  0  0  0  0  0  0  0  0  0
    2.3315   -4.7565   -2.6579 C   0  0  0  0  0  0  0  0  0  0  0  0
   -0.6449   -5.6519   -5.0367 H   0  0  0  0  0  0  0  0  0  0  0  0
   -0.3923   -4.8066   -3.4777 H   0  0  0  0  0  0  0  0  0  0  0  0
    0.3164   -6.4358   -3.7442 H   0  0  0  0  0  0  0  0  0  0  0  0
    3.2970   -3.7932   -5.7911 H   0  0  0  0  0  0  0  0  0  0  0  0
    7.1506   -3.3626   -3.5684 H   0  0  0  0  0  0  0  0  0  0  0  0
    6.4063   -1.7462   -3.3352 H   0  0  0  0  0  0  0  0  0  0  0  0
   12.5551   -1.2596   -7.6900 H   0  0  0  0  0  0  0  0  0  0  0  0
   13.5457    0.8197   -8.5641 H   0  0  0  0  0  0  0  0  0  0  0  0
   12.1032    2.5486   -9.6444 H   0  0  0  0  0  0  0  0  0  0  0  0
    9.6434    2.1439   -9.8430 H   0  0  0  0  0  0  0  0  0  0  0  0
    8.6540    0.0581   -8.9800 H   0  0  0  0  0  0  0  0  0  0  0  0
   10.9345   -4.4786   -8.7107 H   0  0  0  0  0  0  0  0  0  0  0  0
   12.6207   -5.9278   -7.6410 H   0  0  0  0  0  0  0  0  0  0  0  0
   13.5641   -5.3318   -5.4073 H   0  0  0  0  0  0  0  0  0  0  0  0
   12.7863   -3.2494   -4.2624 H   0  0  0  0  0  0  0  0  0  0  0  0
   11.1082   -1.7931   -5.3376 H   0  0  0  0  0  0  0  0  0  0  0  0
    7.4618   -3.5380   -7.8093 H   0  0  0  0  0  0  0  0  0  0  0  0
    6.3792   -4.6133   -9.7373 H   0  0  0  0  0  0  0  0  0  0  0  0
    7.4236   -4.5025  -12.0050 H   0  0  0  0  0  0  0  0  0  0  0  0
    9.5775   -3.2654  -12.2994 H   0  0  0  0  0  0  0  0  0  0  0  0
   10.6401   -2.1463  -10.3777 H   0  0  0  0  0  0  0  0  0  0  0  0
    5.4001   -3.4321   -2.0097 H   0  0  0  0  0  0  0  0  0  0  0  0
    2.3633   -6.1616   -0.5049 H   0  0  0  0  0  0  0  0  0  0  0  0
    3.0603   -4.8308    2.0291 H   0  0  0  0  0  0  0  0  0  0  0  0
    0.7118   -5.7746    1.6511 H   0  0  0  0  0  0  0  0  0  0  0  0
    1.5321   -6.3785    3.1094 H   0  0  0  0  0  0  0  0  0  0  0  0
    1.2378   -7.8749    0.4397 H   0  0  0  0  0  0  0  0  0  0  0  0
    0.4495   -8.2658    1.9792 H   0  0  0  0  0  0  0  0  0  0  0  0
    2.3618   -9.6316    1.7821 H   0  0  0  0  0  0  0  0  0  0  0  0
    3.8102   -8.2148    0.3380 H   0  0  0  0  0  0  0  0  0  0  0  0
    4.5834   -8.8460    1.8082 H   0  0  0  0  0  0  0  0  0  0  0  0
    4.9854   -6.3608    1.4932 H   0  0  0  0  0  0  0  0  0  0  0  0
    4.1506   -6.7453    3.0147 H   0  0  0  0  0  0  0  0  0  0  0  0
    1.4800   -5.1770   -2.1251 H   0  0  0  0  0  0  0  0  0  0  0  0
  1  2  1  0
  1 44  1  0
  1 45  1  0
  1 46  1  0
  2  3  1  0
  3  4  2  0
  3 43  1  0
  4  5  1  0
  4 47  1  0
  5  6  1  0
  5 32  2  0
  6  7  1  0
  7  8  1  0
  7 48  1  0
  7 49  1  0
  8  9  1  0
  8 31  2  0
  9 10  2  0
 10 11  1  0
 11 12  1  0
 11 31  1  0
 12 13  1  6
 12 19  1  0
 12 25  1  0
 13 14  2  0
 13 18  1  0
 14 15  1  0
 14 50  1  0
 15 16  2  0
 15 51  1  0
 16 17  1  0
 16 52  1  0
 17 18  2  0
 17 53  1  0
 18 54  1  0
 19 20  2  0
 19 24  1  0
 20 21  1  0
 20 55  1  0
 21 22  2  0
 21 56  1  0
 22 23  1  0
 22 57  1  0
 23 24  2  0
 23 58  1  0
 24 59  1  0
 25 26  2  0
 25 30  1  0
 26 27  1  0
 26 60  1  0
 27 28  2  0
 27 61  1  0
 28 29  1  0
 28 62  1  0
 29 30  2  0
 29 63  1  0
 30 64  1  0
 32 33  1  0
 32 65  1  0
 33 34  1  0
 33 43  2  0
 34 35  2  0
 34 36  1  0
 36 37  1  0
 36 66  1  0
 37 38  1  0
 37 42  1  0
 37 67  1  1
 38 39  1  0
 38 68  1  0
 38 69  1  0
 39 40  1  0
 39 70  1  0
 39 71  1  0
 40 41  1  0
 40 72  1  0
 41 42  1  0
 41 73  1  0
 41 74  1  0
 42 75  1  0
 42 76  1  0
 43 77  1  0
M  END

