
     RDKit          3D

 29 30  0  0  0  0  0  0  0  0999 V2000
    2.2398   -5.5062    0.8095 C   0  0  0  0  0  0  0  0  0  0  0  0
    1.9249   -4.3069    0.1122 O   0  0  0  0  0  0  0  0  0  0  0  0
    2.7966   -3.2739    0.2043 C   0  0  0  0  0  0  0  0  0  0  0  0
    3.8879   -3.3885    0.9275 N   0  0  0  0  0  0  0  0  0  0  0  0
    4.7263   -2.3407    0.9954 C   0  0  0  0  0  0  0  0  0  0  0  0
    4.4817   -1.1451    0.3320 C   0  0  0  0  0  0  0  0  0  0  0  0
    3.3173   -1.0172   -0.4421 C   0  0  0  0  0  0  0  0  0  0  0  0
    2.4409   -2.1005   -0.5195 C   0  0  0  0  0  0  0  0  0  0  0  0
    1.2385   -2.1428   -1.2377 N   0  0  0  0  0  0  0  0  0  0  0  0
    0.6974   -1.1553   -2.0204 C   0  0  0  0  0  0  0  0  0  0  0  0
    1.2047   -0.0618   -2.1887 O   0  0  0  0  0  0  0  0  0  0  0  0
   -0.6256   -1.5080   -2.6647 C   0  0  0  0  0  0  0  0  0  0  0  0
   -1.6335   -0.5333   -2.7862 C   0  0  0  0  0  0  0  0  0  0  0  0
   -1.4590    0.6613   -2.2319 F   0  0  0  0  0  0  0  0  0  0  0  0
   -2.8390   -0.7677   -3.4445 C   0  0  0  0  0  0  0  0  0  0  0  0
   -3.0554   -2.0222   -4.0171 C   0  0  0  0  0  0  0  0  0  0  0  0
   -4.6862   -2.3651   -4.9270 Br  0  0  0  0  0  0  0  0  0  0  0  0
   -2.0954   -3.0316   -3.9274 C   0  0  0  0  0  0  0  0  0  0  0  0
   -0.9118   -2.7495   -3.2522 C   0  0  0  0  0  0  0  0  0  0  0  0
   -0.0008   -3.7331   -3.1647 F   0  0  0  0  0  0  0  0  0  0  0  0
    1.4175   -6.2028    0.6001 H   0  0  0  0  0  0  0  0  0  0  0  0
    2.3203   -5.3252    1.8924 H   0  0  0  0  0  0  0  0  0  0  0  0
    3.1948   -5.9282    0.4601 H   0  0  0  0  0  0  0  0  0  0  0  0
    5.6249   -2.4749    1.6070 H   0  0  0  0  0  0  0  0  0  0  0  0
    5.1850   -0.3137    0.4096 H   0  0  0  0  0  0  0  0  0  0  0  0
    3.0822   -0.1017   -0.9805 H   0  0  0  0  0  0  0  0  0  0  0  0
    0.7654   -3.0395   -1.1920 H   0  0  0  0  0  0  0  0  0  0  0  0
   -3.5815    0.0284   -3.4944 H   0  0  0  0  0  0  0  0  0  0  0  0
   -2.2433   -4.0177   -4.3668 H   0  0  0  0  0  0  0  0  0  0  0  0
  1  2  1  0
  1 21  1  0
  1 22  1  0
  1 23  1  0
  2  3  1  0
  3  4  2  0
  3  8  1  0
  4  5  1  0
  5  6  2  0
  5 24  1  0
  6  7  1  0
  6 25  1  0
  7  8  2  0
  7 26  1  0
  8  9  1  0
  9 10  1  0
  9 27  1  0
 10 11  2  0
 10 12  1  0
 12 13  2  0
 12 19  1  0
 13 14  1  0
 13 15  1  0
 15 16  2  0
 15 28  1  0
 16 17  1  0
 16 18  1  0
 18 19  2  0
 18 29  1  0
 19 20  1  0
M  END

