
     RDKit          3D

 40 42  0  0  0  0  0  0  0  0999 V2000
    4.4257   -2.6143    2.6236 C   0  0  0  0  0  0  0  0  0  0  0  0
    5.0584   -3.7393    2.0627 O   0  0  0  0  0  0  0  0  0  0  0  0
    5.0276   -3.9094    0.7124 C   0  0  0  0  0  0  0  0  0  0  0  0
    5.6668   -5.0623    0.2172 C   0  0  0  0  0  0  0  0  0  0  0  0
    5.6911   -5.3270   -1.1440 C   0  0  0  0  0  0  0  0  0  0  0  0
    5.0769   -4.4479   -2.0554 C   0  0  0  0  0  0  0  0  0  0  0  0
    5.1557   -4.7950   -3.3747 O   0  0  0  0  0  0  0  0  0  0  0  0
    4.5754   -3.9539   -4.3534 C   0  0  0  0  0  0  0  0  0  0  0  0
    4.8154   -4.5864   -5.7161 C   0  0  0  0  0  0  0  0  0  0  0  0
    4.1714   -5.9901   -5.8828 C   0  0  1  0  0  0  0  0  0  0  0  0
    2.7075   -5.9021   -5.7566 C   0  0  0  0  0  0  0  0  0  0  0  0
    1.5579   -5.7898   -5.6600 N   0  0  0  0  0  0  0  0  0  0  0  0
    4.5949   -6.6682   -7.1832 C   0  0  0  0  0  0  0  0  0  0  0  0
    5.6722   -7.5614   -7.1710 C   0  0  0  0  0  0  0  0  0  0  0  0
    6.1472   -8.1716   -8.3494 C   0  0  0  0  0  0  0  0  0  0  0  0
    5.4974   -7.8510   -9.5267 C   0  0  0  0  0  0  0  0  0  0  0  0
    4.4184   -6.9621   -9.5474 C   0  0  0  0  0  0  0  0  0  0  0  0
    3.9441   -6.3557   -8.3998 C   0  0  0  0  0  0  0  0  0  0  0  0
    3.9678   -6.8274  -10.8292 O   0  0  0  0  0  0  0  0  0  0  0  0
    4.7575   -7.6997  -11.6342 C   0  0  0  0  0  0  0  0  0  0  0  0
    5.7460   -8.2929  -10.7945 O   0  0  0  0  0  0  0  0  0  0  0  0
    4.4421   -3.3018   -1.5700 C   0  0  0  0  0  0  0  0  0  0  0  0
    4.4172   -3.0338   -0.1909 C   0  0  0  0  0  0  0  0  0  0  0  0
    4.5667   -2.6825    3.7110 H   0  0  0  0  0  0  0  0  0  0  0  0
    3.3418   -2.5977    2.4054 H   0  0  0  0  0  0  0  0  0  0  0  0
    4.8711   -1.6674    2.2657 H   0  0  0  0  0  0  0  0  0  0  0  0
    6.1402   -5.7397    0.9309 H   0  0  0  0  0  0  0  0  0  0  0  0
    6.1856   -6.2196   -1.5329 H   0  0  0  0  0  0  0  0  0  0  0  0
    5.0388   -2.9495   -4.3232 H   0  0  0  0  0  0  0  0  0  0  0  0
    3.4926   -3.8283   -4.1640 H   0  0  0  0  0  0  0  0  0  0  0  0
    5.8991   -4.6988   -5.8756 H   0  0  0  0  0  0  0  0  0  0  0  0
    4.4375   -3.9096   -6.4990 H   0  0  0  0  0  0  0  0  0  0  0  0
    4.5227   -6.6043   -5.0382 H   0  0  0  0  0  0  0  0  0  0  0  0
    6.1609   -7.7974   -6.2224 H   0  0  0  0  0  0  0  0  0  0  0  0
    6.9847   -8.8705   -8.3359 H   0  0  0  0  0  0  0  0  0  0  0  0
    3.0895   -5.6780   -8.4372 H   0  0  0  0  0  0  0  0  0  0  0  0
    5.2489   -7.1223  -12.4372 H   0  0  0  0  0  0  0  0  0  0  0  0
    4.1159   -8.4885  -12.0695 H   0  0  0  0  0  0  0  0  0  0  0  0
    3.9535   -2.5992   -2.2453 H   0  0  0  0  0  0  0  0  0  0  0  0
    3.9116   -2.1319    0.1546 H   0  0  0  0  0  0  0  0  0  0  0  0
  1  2  1  0
  1 24  1  0
  1 25  1  0
  1 26  1  0
  2  3  1  0
  3  4  2  0
  3 23  1  0
  4  5  1  0
  4 27  1  0
  5  6  2  0
  5 28  1  0
  6  7  1  0
  6 22  1  0
  7  8  1  0
  8  9  1  0
  8 29  1  0
  8 30  1  0
  9 10  1  0
  9 31  1  0
  9 32  1  0
 10 11  1  0
 10 13  1  0
 10 33  1  1
 11 12  3  0
 13 14  2  0
 13 18  1  0
 14 15  1  0
 14 34  1  0
 15 16  2  0
 15 35  1  0
 16 17  1  0
 16 21  1  0
 17 18  2  0
 17 19  1  0
 18 36  1  0
 19 20  1  0
 20 21  1  0
 20 37  1  0
 20 38  1  0
 22 23  2  0
 22 39  1  0
 23 40  1  0
M  END

