
     RDKit          3D

 51 53  0  0  0  0  0  0  0  0999 V2000
   -4.6547    5.6069  -10.9720 C   0  0  0  0  0  0  0  0  0  0  0  0
   -3.3803    6.0001  -11.5410 N   0  0  0  0  0  0  0  0  0  0  0  0
   -3.3384    7.0157  -12.5751 C   0  0  0  0  0  0  0  0  0  0  0  0
   -2.2166    5.4083  -11.1024 C   0  0  0  0  0  0  0  0  0  0  0  0
   -2.2245    4.4113  -10.0925 C   0  0  0  0  0  0  0  0  0  0  0  0
   -1.0422    3.8236   -9.6624 C   0  0  0  0  0  0  0  0  0  0  0  0
    0.2140    4.1779  -10.1964 C   0  0  0  0  0  0  0  0  0  0  0  0
    1.4127    3.5194   -9.7028 C   0  0  0  0  0  0  0  0  0  0  0  0
    2.6960    3.7049  -10.0898 C   0  0  0  0  0  0  0  0  0  0  0  0
    3.7822    2.9383   -9.4545 C   0  0  0  0  0  0  0  0  0  0  0  0
    3.5926    2.1381   -8.5216 O   0  0  0  0  0  0  0  0  0  0  0  0
    5.0325    3.1461   -9.9506 N   0  0  0  0  0  0  0  0  0  0  0  0
    6.2440    2.6667   -9.2827 C   0  0  2  0  0  0  0  0  0  0  0  0
    6.1038    2.8320   -8.1977 H   0  0  0  0  0  0  0  0  0  0  0  0
    7.4829    3.4401   -9.7647 C   0  0  0  0  0  0  0  0  0  0  0  0
    7.3565    4.9356   -9.6771 C   0  0  0  0  0  0  0  0  0  0  0  0
    7.5601    5.7268   -8.5675 C   0  0  0  0  0  0  0  0  0  0  0  0
    7.3016    7.0486   -8.8700 N   0  0  0  0  0  0  0  0  0  0  0  0
    7.3919    7.8222   -8.2256 H   0  0  0  0  0  0  0  0  0  0  0  0
    6.9249    7.1500  -10.1898 C   0  0  0  0  0  0  0  0  0  0  0  0
    6.5696    8.2687  -10.9562 C   0  0  0  0  0  0  0  0  0  0  0  0
    6.2357    8.0590  -12.2917 C   0  0  0  0  0  0  0  0  0  0  0  0
    6.2607    6.7651  -12.8572 C   0  0  0  0  0  0  0  0  0  0  0  0
    6.6174    5.6556  -12.0959 C   0  0  0  0  0  0  0  0  0  0  0  0
    6.9510    5.8322  -10.7364 C   0  0  0  0  0  0  0  0  0  0  0  0
    6.4480    1.1367   -9.4643 C   0  0  0  0  0  0  0  0  0  0  0  0
    7.4508    0.6761   -9.9515 O   0  0  0  0  0  0  0  0  0  0  0  0
    5.4569    0.3805   -9.0111 O   0  0  0  0  0  0  0  0  0  0  0  0
    0.2173    5.1718  -11.1996 C   0  0  0  0  0  0  0  0  0  0  0  0
   -0.9514    5.7709  -11.6429 C   0  0  0  0  0  0  0  0  0  0  0  0
   -5.4592    6.1816  -11.4478 H   0  0  0  0  0  0  0  0  0  0  0  0
   -4.7018    5.7984   -9.8842 H   0  0  0  0  0  0  0  0  0  0  0  0
   -4.8679    4.5340  -11.1310 H   0  0  0  0  0  0  0  0  0  0  0  0
   -4.3579    7.3621  -12.7865 H   0  0  0  0  0  0  0  0  0  0  0  0
   -2.9113    6.6317  -13.5196 H   0  0  0  0  0  0  0  0  0  0  0  0
   -2.7410    7.8950  -12.2719 H   0  0  0  0  0  0  0  0  0  0  0  0
   -3.1616    4.0915   -9.6391 H   0  0  0  0  0  0  0  0  0  0  0  0
   -1.0874    3.0579   -8.8827 H   0  0  0  0  0  0  0  0  0  0  0  0
    1.2627    2.7746   -8.9129 H   0  0  0  0  0  0  0  0  0  0  0  0
    2.9672    4.4208  -10.8710 H   0  0  0  0  0  0  0  0  0  0  0  0
    5.1483    3.8437  -10.6777 H   0  0  0  0  0  0  0  0  0  0  0  0
    7.7053    3.1312  -10.7980 H   0  0  0  0  0  0  0  0  0  0  0  0
    8.3360    3.0815   -9.1711 H   0  0  0  0  0  0  0  0  0  0  0  0
    7.8792    5.4409   -7.5662 H   0  0  0  0  0  0  0  0  0  0  0  0
    6.5557    9.2720  -10.5228 H   0  0  0  0  0  0  0  0  0  0  0  0
    5.9550    8.9118  -12.9147 H   0  0  0  0  0  0  0  0  0  0  0  0
    6.0053    6.6376  -13.9120 H   0  0  0  0  0  0  0  0  0  0  0  0
    6.6545    4.6636  -12.5557 H   0  0  0  0  0  0  0  0  0  0  0  0
    4.7057    0.9508   -8.6755 H   0  0  0  0  0  0  0  0  0  0  0  0
    1.1624    5.4877  -11.6474 H   0  0  0  0  0  0  0  0  0  0  0  0
   -0.8835    6.5315  -12.4196 H   0  0  0  0  0  0  0  0  0  0  0  0
  1  2  1  0
  1 31  1  0
  1 32  1  0
  1 33  1  0
  2  3  1  0
  2  4  1  0
  3 34  1  0
  3 35  1  0
  3 36  1  0
  4  5  2  0
  4 30  1  0
  5  6  1  0
  5 37  1  0
  6  7  2  0
  6 38  1  0
  7  8  1  0
  7 29  1  0
  8  9  2  0
  8 39  1  0
  9 10  1  0
  9 40  1  0
 10 11  2  0
 10 12  1  0
 12 13  1  0
 12 41  1  0
 13 14  1  1
 13 15  1  0
 13 26  1  0
 15 16  1  0
 15 42  1  0
 15 43  1  0
 16 17  2  0
 16 25  1  0
 17 18  1  0
 17 44  1  0
 18 19  1  0
 18 20  1  0
 20 21  1  0
 20 25  2  0
 21 22  2  0
 21 45  1  0
 22 23  1  0
 22 46  1  0
 23 24  2  0
 23 47  1  0
 24 25  1  0
 24 48  1  0
 26 27  2  0
 26 28  1  0
 28 49  1  0
 29 30  2  0
 29 50  1  0
 30 51  1  0
M  END

