
     RDKit          3D

 37 39  0  0  0  0  0  0  0  0999 V2000
    1.1445   -0.7111   -1.2729 O   0  0  0  0  0  0  0  0  0  0  0  0
    2.1213   -0.4536   -0.5910 C   0  0  0  0  0  0  0  0  0  0  0  0
    3.1473   -1.5458   -0.3025 C   0  0  0  0  0  0  0  0  0  0  0  0
    4.2058   -1.2967    0.7673 C   0  0  0  0  0  0  0  0  0  0  0  0
    5.1516   -0.2418    0.4171 N   0  0  0  0  0  0  0  0  0  0  0  0
    6.5372   -0.5901    0.1073 C   0  0  0  0  0  0  0  0  0  0  0  0
    7.4488   -0.6251    1.3498 C   0  0  0  0  0  0  0  0  0  0  0  0
    8.8836   -0.9325    1.0057 C   0  0  0  0  0  0  0  0  0  0  0  0
    9.7616   -0.0046    0.3474 C   0  0  0  0  0  0  0  0  0  0  0  0
   11.0109   -0.5171    0.1139 C   0  0  0  0  0  0  0  0  0  0  0  0
   11.1494   -2.1432    0.6888 S   0  0  0  0  0  0  0  0  0  0  0  0
    9.5111   -2.1334    1.2465 C   0  0  0  0  0  0  0  0  0  0  0  0
    4.8045    1.0788    0.4014 C   0  0  0  0  0  0  0  0  0  0  0  0
    5.6177    1.9664    0.1878 O   0  0  0  0  0  0  0  0  0  0  0  0
    3.3386    1.4727    0.6966 C   0  0  2  0  0  0  0  0  0  0  0  0
    3.0439    1.4948    2.2069 C   0  0  1  0  0  0  0  0  0  0  0  0
    1.7018    1.9536    2.7155 C   0  0  0  0  0  0  0  0  0  0  0  0
    2.1277    0.5217    2.9063 C   0  0  0  0  0  0  0  0  0  0  0  0
    2.3152    0.8243   -0.1213 N   0  0  0  0  0  0  0  0  0  0  0  0
    3.6342   -1.7682   -1.2675 H   0  0  0  0  0  0  0  0  0  0  0  0
    2.5562   -2.4407   -0.0514 H   0  0  0  0  0  0  0  0  0  0  0  0
    4.7841   -2.2197    0.9136 H   0  0  0  0  0  0  0  0  0  0  0  0
    3.7325   -1.0781    1.7353 H   0  0  0  0  0  0  0  0  0  0  0  0
    6.9184    0.1577   -0.6008 H   0  0  0  0  0  0  0  0  0  0  0  0
    6.5485   -1.5695   -0.3972 H   0  0  0  0  0  0  0  0  0  0  0  0
    7.0684   -1.3706    2.0674 H   0  0  0  0  0  0  0  0  0  0  0  0
    7.3860    0.3600    1.8402 H   0  0  0  0  0  0  0  0  0  0  0  0
    9.4665    1.0096    0.0703 H   0  0  0  0  0  0  0  0  0  0  0  0
   11.8619   -0.0283   -0.3585 H   0  0  0  0  0  0  0  0  0  0  0  0
    9.0955   -3.0153    1.7333 H   0  0  0  0  0  0  0  0  0  0  0  0
    3.3434    2.5233    0.3742 H   0  0  0  0  0  0  0  0  0  0  0  0
    3.9072    1.8475    2.7814 H   0  0  0  0  0  0  0  0  0  0  0  0
    0.9134    2.1418    1.9800 H   0  0  0  0  0  0  0  0  0  0  0  0
    1.6756    2.6211    3.5811 H   0  0  0  0  0  0  0  0  0  0  0  0
    1.6089   -0.2281    2.3026 H   0  0  0  0  0  0  0  0  0  0  0  0
    2.4043    0.1806    3.9080 H   0  0  0  0  0  0  0  0  0  0  0  0
    1.5731    1.4376   -0.4479 H   0  0  0  0  0  0  0  0  0  0  0  0
  1  2  2  0
  2  3  1  0
  2 19  1  0
  3  4  1  0
  3 20  1  0
  3 21  1  0
  4  5  1  0
  4 22  1  0
  4 23  1  0
  5  6  1  0
  5 13  1  0
  6  7  1  0
  6 24  1  0
  6 25  1  0
  7  8  1  0
  7 26  1  0
  7 27  1  0
  8  9  1  0
  8 12  2  0
  9 10  2  0
  9 28  1  0
 10 11  1  0
 10 29  1  0
 11 12  1  0
 12 30  1  0
 13 14  2  0
 13 15  1  0
 15 16  1  0
 15 19  1  0
 15 31  1  6
 16 17  1  0
 16 18  1  0
 16 32  1  1
 17 18  1  0
 17 33  1  0
 17 34  1  0
 18 35  1  0
 18 36  1  0
 19 37  1  0
M  END

