
     RDKit          3D

 29 30  0  0  0  0  0  0  0  0999 V2000
    3.1656    0.8177   -1.1235 C   0  0  0  0  0  0  0  0  0  0  0  0
    2.3801    0.1085   -0.0188 C   0  0  0  0  0  0  0  0  0  0  0  0
    2.9163    0.2832    1.4251 C   0  0  1  0  0  0  0  0  0  0  0  0
    4.2730   -0.3515    1.6200 C   0  0  0  0  0  0  0  0  0  0  0  0
    5.4067    0.3837    1.7185 C   0  0  0  0  0  0  0  0  0  0  0  0
    6.7567   -0.1912    1.9574 C   0  0  0  0  0  0  0  0  0  0  0  0
    7.9065    0.5519    1.6307 C   0  0  0  0  0  0  0  0  0  0  0  0
    9.1826    0.0214    1.8321 C   0  0  0  0  0  0  0  0  0  0  0  0
    9.3396   -1.2583    2.3712 C   0  0  0  0  0  0  0  0  0  0  0  0
    8.2050   -2.0017    2.7155 C   0  0  0  0  0  0  0  0  0  0  0  0
    6.9299   -1.4724    2.5164 C   0  0  0  0  0  0  0  0  0  0  0  0
    5.3863    1.7868    1.5100 N   0  0  0  0  0  0  0  0  0  0  0  0
    4.2742    2.4065    1.5749 C   0  0  0  0  0  0  0  0  0  0  0  0
    2.9615    1.7454    1.9155 C   0  0  0  0  0  0  0  0  0  0  0  0
    2.7488    0.5738   -2.1138 H   0  0  0  0  0  0  0  0  0  0  0  0
    4.2252    0.5175   -1.1238 H   0  0  0  0  0  0  0  0  0  0  0  0
    3.1305    1.9140   -1.0167 H   0  0  0  0  0  0  0  0  0  0  0  0
    2.3466   -0.9741   -0.2363 H   0  0  0  0  0  0  0  0  0  0  0  0
    1.3294    0.4512   -0.0338 H   0  0  0  0  0  0  0  0  0  0  0  0
    2.2053   -0.2586    2.0727 H   0  0  0  0  0  0  0  0  0  0  0  0
    4.3252   -1.4433    1.6271 H   0  0  0  0  0  0  0  0  0  0  0  0
    7.7749    1.5511    1.2147 H   0  0  0  0  0  0  0  0  0  0  0  0
   10.0618    0.6143    1.5656 H   0  0  0  0  0  0  0  0  0  0  0  0
   10.3386   -1.6720    2.5317 H   0  0  0  0  0  0  0  0  0  0  0  0
    8.3147   -2.9970    3.1545 H   0  0  0  0  0  0  0  0  0  0  0  0
    6.0580   -2.0553    2.8213 H   0  0  0  0  0  0  0  0  0  0  0  0
    4.2827    3.4902    1.3782 H   0  0  0  0  0  0  0  0  0  0  0  0
    2.1172    2.3357    1.5235 H   0  0  0  0  0  0  0  0  0  0  0  0
    2.8627    1.7657    3.0186 H   0  0  0  0  0  0  0  0  0  0  0  0
  1  2  1  0
  1 15  1  0
  1 16  1  0
  1 17  1  0
  2  3  1  0
  2 18  1  0
  2 19  1  0
  3  4  1  0
  3 14  1  0
  3 20  1  1
  4  5  2  0
  4 21  1  0
  5  6  1  0
  5 12  1  0
  6  7  2  0
  6 11  1  0
  7  8  1  0
  7 22  1  0
  8  9  2  0
  8 23  1  0
  9 10  1  0
  9 24  1  0
 10 11  2  0
 10 25  1  0
 11 26  1  0
 12 13  2  0
 13 14  1  0
 13 27  1  0
 14 28  1  0
 14 29  1  0
M  END

