
     RDKit          3D

 57 62  0  0  0  0  0  0  0  0999 V2000
    0.9614   -0.3370    0.1660 O   0  0  0  0  0  0  0  0  0  0  0  0
    2.1721   -0.1562    0.1678 C   0  0  0  0  0  0  0  0  0  0  0  0
    3.0196   -1.2368    0.3533 N   0  0  0  0  0  0  0  0  0  0  0  0
    2.5356   -2.1212    0.4830 H   0  0  0  0  0  0  0  0  0  0  0  0
    4.3933   -1.2060    0.3794 C   0  0  0  0  0  0  0  0  0  0  0  0
    5.1428   -2.3798    0.5744 C   0  0  0  0  0  0  0  0  0  0  0  0
    6.5306   -2.3345    0.5782 C   0  0  0  0  0  0  0  0  0  0  0  0
    7.1790   -1.1041    0.3820 C   0  0  0  0  0  0  0  0  0  0  0  0
    9.0865   -1.0465    0.3778 Br  0  0  0  0  0  0  0  0  0  0  0  0
    6.4547    0.0640    0.1919 C   0  0  0  0  0  0  0  0  0  0  0  0
    5.0396    0.0434    0.1934 C   0  0  0  0  0  0  0  0  0  0  0  0
    4.2268    1.2363   -0.0050 C   0  0  0  0  0  0  0  0  0  0  0  0
    4.9552    2.5215   -0.2500 C   0  0  0  0  0  0  0  0  0  0  0  0
    5.5498    3.2271    0.8076 C   0  0  0  0  0  0  0  0  0  0  0  0
    6.2604    4.4049    0.5642 C   0  0  0  0  0  0  0  0  0  0  0  0
    6.3911    4.8914   -0.7403 C   0  0  0  0  0  0  0  0  0  0  0  0
    5.8124    4.1882   -1.8006 C   0  0  0  0  0  0  0  0  0  0  0  0
    5.1019    3.0092   -1.5579 C   0  0  0  0  0  0  0  0  0  0  0  0
    2.8428    1.1570   -0.0074 C   0  0  0  0  0  0  0  0  0  0  0  0
    1.9482    2.3111   -0.1599 C   0  0  0  0  0  0  0  0  0  0  0  0
    2.2938    3.5047    0.2105 N   0  0  0  0  0  0  0  0  0  0  0  0
    1.3223    4.3920   -0.0841 N   0  0  0  0  0  0  0  0  0  0  0  0
    1.3948    5.7133    0.3602 C   0  0  0  0  0  0  0  0  0  0  0  0
    2.5068    6.1592    1.1062 C   0  0  0  0  0  0  0  0  0  0  0  0
    2.5615    7.4764    1.5560 C   0  0  0  0  0  0  0  0  0  0  0  0
    1.5257    8.3781    1.2823 C   0  0  0  0  0  0  0  0  0  0  0  0
    0.4270    7.9371    0.5416 C   0  0  0  0  0  0  0  0  0  0  0  0
    0.3534    6.6211    0.0796 C   0  0  0  0  0  0  0  0  0  0  0  0
    0.2126    3.7975   -0.8549 C   0  0  1  0  0  0  0  0  0  0  0  0
    0.1457    4.2892   -2.2959 C   0  0  0  0  0  0  0  0  0  0  0  0
    1.2999    4.6702   -2.9956 C   0  0  0  0  0  0  0  0  0  0  0  0
    1.2201    5.0592   -4.3358 C   0  0  0  0  0  0  0  0  0  0  0  0
   -0.0129    5.0731   -4.9950 C   0  0  0  0  0  0  0  0  0  0  0  0
   -1.1688    4.6984   -4.3038 C   0  0  0  0  0  0  0  0  0  0  0  0
   -1.0879    4.3114   -2.9633 C   0  0  0  0  0  0  0  0  0  0  0  0
    0.5362    2.2842   -0.7279 C   0  0  0  0  0  0  0  0  0  0  0  0
    4.6255   -3.3317    0.7200 H   0  0  0  0  0  0  0  0  0  0  0  0
    7.1120   -3.2452    0.7291 H   0  0  0  0  0  0  0  0  0  0  0  0
    6.9754    1.0083    0.0409 H   0  0  0  0  0  0  0  0  0  0  0  0
    5.4427    2.8556    1.8297 H   0  0  0  0  0  0  0  0  0  0  0  0
    6.7130    4.9467    1.3987 H   0  0  0  0  0  0  0  0  0  0  0  0
    6.9460    5.8136   -0.9301 H   0  0  0  0  0  0  0  0  0  0  0  0
    5.9177    4.5562   -2.8245 H   0  0  0  0  0  0  0  0  0  0  0  0
    4.6527    2.4610   -2.3899 H   0  0  0  0  0  0  0  0  0  0  0  0
    3.3138    5.4594    1.3183 H   0  0  0  0  0  0  0  0  0  0  0  0
    3.4312    7.8034    2.1326 H   0  0  0  0  0  0  0  0  0  0  0  0
    1.5771    9.4090    1.6397 H   0  0  0  0  0  0  0  0  0  0  0  0
   -0.3911    8.6251    0.3120 H   0  0  0  0  0  0  0  0  0  0  0  0
   -0.5092    6.3101   -0.5096 H   0  0  0  0  0  0  0  0  0  0  0  0
   -0.7439    4.0287   -0.3597 H   0  0  0  0  0  0  0  0  0  0  0  0
    2.2651    4.6743   -2.4835 H   0  0  0  0  0  0  0  0  0  0  0  0
    2.1274    5.3585   -4.8672 H   0  0  0  0  0  0  0  0  0  0  0  0
   -0.0736    5.3806   -6.0420 H   0  0  0  0  0  0  0  0  0  0  0  0
   -2.1387    4.7128   -4.8078 H   0  0  0  0  0  0  0  0  0  0  0  0
   -1.9976    4.0239   -2.4270 H   0  0  0  0  0  0  0  0  0  0  0  0
    0.4719    1.7572   -1.6901 H   0  0  0  0  0  0  0  0  0  0  0  0
   -0.1407    1.7616   -0.0392 H   0  0  0  0  0  0  0  0  0  0  0  0
  1  2  2  0
  2  3  1  0
  2 19  1  0
  3  4  1  0
  3  5  1  0
  5  6  2  0
  5 11  1  0
  6  7  1  0
  6 37  1  0
  7  8  2  0
  7 38  1  0
  8  9  1  0
  8 10  1  0
 10 11  2  0
 10 39  1  0
 11 12  1  0
 12 13  1  0
 12 19  2  0
 13 14  2  0
 13 18  1  0
 14 15  1  0
 14 40  1  0
 15 16  2  0
 15 41  1  0
 16 17  1  0
 16 42  1  0
 17 18  2  0
 17 43  1  0
 18 44  1  0
 19 20  1  0
 20 21  2  0
 20 36  1  0
 21 22  1  0
 22 23  1  0
 22 29  1  0
 23 24  2  0
 23 28  1  0
 24 25  1  0
 24 45  1  0
 25 26  2  0
 25 46  1  0
 26 27  1  0
 26 47  1  0
 27 28  2  0
 27 48  1  0
 28 49  1  0
 29 30  1  0
 29 36  1  0
 29 50  1  1
 30 31  2  0
 30 35  1  0
 31 32  1  0
 31 51  1  0
 32 33  2  0
 32 52  1  0
 33 34  1  0
 33 53  1  0
 34 35  2  0
 34 54  1  0
 35 55  1  0
 36 56  1  0
 36 57  1  0
M  END

