
     RDKit          3D

 38 39  0  0  0  0  0  0  0  0999 V2000
    2.4533    1.5886   -2.8064 C   0  0  0  0  0  0  0  0  0  0  0  0
    2.3466    0.7383   -1.5405 C   0  0  0  0  0  0  0  0  0  0  0  0
    3.1335    1.2865   -0.3295 C   0  0  1  0  0  0  0  0  0  0  0  0
    2.8370    0.4649    0.9377 C   0  0  0  0  0  0  0  0  0  0  0  0
    4.6310    1.3862   -0.5905 C   0  0  0  0  0  0  0  0  0  0  0  0
    5.2971    2.6201   -0.5177 C   0  0  0  0  0  0  0  0  0  0  0  0
    6.6703    2.7217   -0.7403 C   0  0  0  0  0  0  0  0  0  0  0  0
    7.4355    1.5833   -1.0470 C   0  0  0  0  0  0  0  0  0  0  0  0
    8.8834    1.6598   -1.2861 C   0  0  0  0  0  0  0  0  0  0  0  0
    9.7298    2.7352   -1.2634 C   0  0  0  0  0  0  0  0  0  0  0  0
   10.9872    2.2920   -1.5547 O   0  0  0  0  0  0  0  0  0  0  0  0
   10.8575    0.9538   -1.7419 C   0  0  0  0  0  0  0  0  0  0  0  0
   12.0876    0.1711   -2.0563 C   0  0  0  0  0  0  0  0  0  0  0  0
   11.7933   -1.2616   -2.5026 C   0  0  0  0  0  0  0  0  0  0  0  0
   13.0428   -1.9871   -2.7051 N   0  0  0  0  0  0  0  0  0  0  0  0
    9.6414    0.5326   -1.5964 N   0  0  0  0  0  0  0  0  0  0  0  0
    6.7749    0.3443   -1.1222 C   0  0  0  0  0  0  0  0  0  0  0  0
    5.4020    0.2520   -0.8976 C   0  0  0  0  0  0  0  0  0  0  0  0
    1.8525    1.1603   -3.6246 H   0  0  0  0  0  0  0  0  0  0  0  0
    3.4942    1.6625   -3.1588 H   0  0  0  0  0  0  0  0  0  0  0  0
    2.0898    2.6153   -2.6305 H   0  0  0  0  0  0  0  0  0  0  0  0
    2.6824   -0.2924   -1.7547 H   0  0  0  0  0  0  0  0  0  0  0  0
    1.2856    0.6502   -1.2461 H   0  0  0  0  0  0  0  0  0  0  0  0
    2.7719    2.3148   -0.1478 H   0  0  0  0  0  0  0  0  0  0  0  0
    3.1550   -0.5840    0.8191 H   0  0  0  0  0  0  0  0  0  0  0  0
    1.7571    0.4621    1.1597 H   0  0  0  0  0  0  0  0  0  0  0  0
    3.3645    0.8753    1.8127 H   0  0  0  0  0  0  0  0  0  0  0  0
    4.7262    3.5229   -0.2812 H   0  0  0  0  0  0  0  0  0  0  0  0
    7.1482    3.7026   -0.6742 H   0  0  0  0  0  0  0  0  0  0  0  0
    9.6164    3.7983   -1.0767 H   0  0  0  0  0  0  0  0  0  0  0  0
   12.7462    0.1406   -1.1702 H   0  0  0  0  0  0  0  0  0  0  0  0
   12.6586    0.7106   -2.8332 H   0  0  0  0  0  0  0  0  0  0  0  0
   11.1231   -1.2306   -3.3870 H   0  0  0  0  0  0  0  0  0  0  0  0
   11.2174   -1.7643   -1.7096 H   0  0  0  0  0  0  0  0  0  0  0  0
   13.5255   -1.6397   -3.5354 H   0  0  0  0  0  0  0  0  0  0  0  0
   12.8541   -2.9731   -2.8829 H   0  0  0  0  0  0  0  0  0  0  0  0
    7.3608   -0.5451   -1.3599 H   0  0  0  0  0  0  0  0  0  0  0  0
    4.9234   -0.7291   -0.9632 H   0  0  0  0  0  0  0  0  0  0  0  0
  1  2  1  0
  1 19  1  0
  1 20  1  0
  1 21  1  0
  2  3  1  0
  2 22  1  0
  2 23  1  0
  3  4  1  0
  3  5  1  0
  3 24  1  1
  4 25  1  0
  4 26  1  0
  4 27  1  0
  5  6  2  0
  5 18  1  0
  6  7  1  0
  6 28  1  0
  7  8  2  0
  7 29  1  0
  8  9  1  0
  8 17  1  0
  9 10  2  0
  9 16  1  0
 10 11  1  0
 10 30  1  0
 11 12  1  0
 12 13  1  0
 12 16  2  0
 13 14  1  0
 13 31  1  0
 13 32  1  0
 14 15  1  0
 14 33  1  0
 14 34  1  0
 15 35  1  0
 15 36  1  0
 17 18  2  0
 17 37  1  0
 18 38  1  0
M  END

