
     RDKit          3D

 56 57  0  0  0  0  0  0  0  0999 V2000
    2.7680    1.6154   -2.3272 C   0  0  0  0  0  0  0  0  0  0  0  0
    2.2577    1.4547   -1.1028 C   0  0  0  0  0  0  0  0  0  0  0  0
    3.0032    1.0699    0.1548 C   0  0  0  0  0  0  0  0  0  0  0  0
    4.5026    0.8656    0.0112 C   0  0  0  0  0  0  0  0  0  0  0  0
    4.8863   -0.4608   -0.2519 C   0  0  0  0  0  0  0  0  0  0  0  0
    3.8827   -1.3800   -0.3348 O   0  0  0  0  0  0  0  0  0  0  0  0
    4.1716   -2.7322   -0.6014 C   0  0  0  0  0  0  0  0  0  0  0  0
    6.2389   -0.8355   -0.4232 C   0  0  0  0  0  0  0  0  0  0  0  0
    7.2124    0.1296   -0.3582 C   0  0  0  0  0  0  0  0  0  0  0  0
    6.8935    1.4884   -0.1210 C   0  0  0  0  0  0  0  0  0  0  0  0
    7.9592    2.4310   -0.1056 C   0  0  0  0  0  0  0  0  0  0  0  0
    7.7076    3.7622    0.0906 C   0  0  0  0  0  0  0  0  0  0  0  0
    6.3742    4.1804    0.3013 C   0  0  0  0  0  0  0  0  0  0  0  0
    5.2893    3.3154    0.3255 C   0  0  0  0  0  0  0  0  0  0  0  0
    3.9101    3.9090    0.5997 C   0  0  0  0  0  0  0  0  0  0  0  0
    3.8182    5.4139    0.8609 C   0  0  0  0  0  0  0  0  0  0  0  0
    4.3424    5.7910    2.1635 N   0  0  0  0  0  0  0  0  0  0  0  0
    3.8458    6.8882    2.8395 C   0  0  0  0  0  0  0  0  0  0  0  0
    2.8904    7.5381    2.4407 O   0  0  0  0  0  0  0  0  0  0  0  0
    4.5274    7.1942    4.0044 N   0  0  0  0  0  0  0  0  0  0  0  0
    4.0225    8.2172    4.9035 C   0  0  0  0  0  0  0  0  0  0  0  0
    2.9618    7.7248    5.8959 C   0  0  0  0  0  0  0  0  0  0  0  0
    2.4617    8.8248    6.8353 C   0  0  0  0  0  0  0  0  0  0  0  0
    1.3948    8.3532    7.8284 C   0  0  0  0  0  0  0  0  0  0  0  0
    0.8949    9.4581    8.7600 C   0  0  0  0  0  0  0  0  0  0  0  0
    5.5160    1.8938    0.0830 C   0  0  0  0  0  0  0  0  0  0  0  0
    2.1299    1.8813   -3.1744 H   0  0  0  0  0  0  0  0  0  0  0  0
    3.8358    1.4874   -2.5282 H   0  0  0  0  0  0  0  0  0  0  0  0
    1.1776    1.5944   -0.9610 H   0  0  0  0  0  0  0  0  0  0  0  0
    2.5662    0.1233    0.5067 H   0  0  0  0  0  0  0  0  0  0  0  0
    2.7636    1.7917    0.9431 H   0  0  0  0  0  0  0  0  0  0  0  0
    3.2064   -3.2564   -0.6216 H   0  0  0  0  0  0  0  0  0  0  0  0
    4.8047   -3.1857    0.1826 H   0  0  0  0  0  0  0  0  0  0  0  0
    4.6668   -2.8649   -1.5800 H   0  0  0  0  0  0  0  0  0  0  0  0
    6.5123   -1.8725   -0.6138 H   0  0  0  0  0  0  0  0  0  0  0  0
    8.2613   -0.1432   -0.5000 H   0  0  0  0  0  0  0  0  0  0  0  0
    8.9774    2.0664   -0.2648 H   0  0  0  0  0  0  0  0  0  0  0  0
    8.5153    4.4980    0.0888 H   0  0  0  0  0  0  0  0  0  0  0  0
    6.2063    5.2477    0.4481 H   0  0  0  0  0  0  0  0  0  0  0  0
    3.4711    3.4177    1.4813 H   0  0  0  0  0  0  0  0  0  0  0  0
    3.2474    3.6795   -0.2489 H   0  0  0  0  0  0  0  0  0  0  0  0
    2.7616    5.7143    0.8573 H   0  0  0  0  0  0  0  0  0  0  0  0
    4.2950    5.9862    0.0418 H   0  0  0  0  0  0  0  0  0  0  0  0
    5.2567    5.4380    2.4199 H   0  0  0  0  0  0  0  0  0  0  0  0
    5.1087    6.4708    4.4131 H   0  0  0  0  0  0  0  0  0  0  0  0
    3.5947    9.0113    4.2744 H   0  0  0  0  0  0  0  0  0  0  0  0
    4.8778    8.6546    5.4480 H   0  0  0  0  0  0  0  0  0  0  0  0
    3.3771    6.8896    6.4912 H   0  0  0  0  0  0  0  0  0  0  0  0
    2.1162    7.3110    5.3202 H   0  0  0  0  0  0  0  0  0  0  0  0
    2.0547    9.6587    6.2336 H   0  0  0  0  0  0  0  0  0  0  0  0
    3.3167    9.2494    7.3952 H   0  0  0  0  0  0  0  0  0  0  0  0
    1.8020    7.5195    8.4296 H   0  0  0  0  0  0  0  0  0  0  0  0
    0.5424    7.9287    7.2676 H   0  0  0  0  0  0  0  0  0  0  0  0
    1.7181    9.8788    9.3619 H   0  0  0  0  0  0  0  0  0  0  0  0
    0.1300    9.0839    9.4592 H   0  0  0  0  0  0  0  0  0  0  0  0
    0.4464   10.2897    8.1907 H   0  0  0  0  0  0  0  0  0  0  0  0
  1  2  2  0
  1 27  1  0
  1 28  1  0
  2  3  1  0
  2 29  1  0
  3  4  1  0
  3 30  1  0
  3 31  1  0
  4  5  2  0
  4 26  1  0
  5  6  1  0
  5  8  1  0
  6  7  1  0
  7 32  1  0
  7 33  1  0
  7 34  1  0
  8  9  2  0
  8 35  1  0
  9 10  1  0
  9 36  1  0
 10 11  1  0
 10 26  2  0
 11 12  2  0
 11 37  1  0
 12 13  1  0
 12 38  1  0
 13 14  2  0
 13 39  1  0
 14 15  1  0
 14 26  1  0
 15 16  1  0
 15 40  1  0
 15 41  1  0
 16 17  1  0
 16 42  1  0
 16 43  1  0
 17 18  1  0
 17 44  1  0
 18 19  2  0
 18 20  1  0
 20 21  1  0
 20 45  1  0
 21 22  1  0
 21 46  1  0
 21 47  1  0
 22 23  1  0
 22 48  1  0
 22 49  1  0
 23 24  1  0
 23 50  1  0
 23 51  1  0
 24 25  1  0
 24 52  1  0
 24 53  1  0
 25 54  1  0
 25 55  1  0
 25 56  1  0
M  END

