
     RDKit          3D

 49 51  0  0  0  0  0  0  0  0999 V2000
    0.9896    0.2946    0.7510 C   0  0  0  0  0  0  0  0  0  0  0  0
    2.4664    0.1501    0.4652 C   0  0  0  0  0  0  0  0  0  0  0  0
    3.2944    1.2790    0.4099 C   0  0  0  0  0  0  0  0  0  0  0  0
    4.6690    1.1872    0.1758 C   0  0  0  0  0  0  0  0  0  0  0  0
    5.5167    2.4348    0.1070 C   0  0  0  0  0  0  0  0  0  0  0  0
    5.2402   -0.0949    0.0132 C   0  0  0  0  0  0  0  0  0  0  0  0
    6.7311   -0.1775   -0.2342 C   0  0  0  0  0  0  0  0  0  0  0  0
    7.2535    0.2488   -1.2524 O   0  0  0  0  0  0  0  0  0  0  0  0
    7.4485   -0.7477    0.7835 N   0  0  0  0  0  0  0  0  0  0  0  0
    8.9032   -0.8312    0.7626 C   0  0  0  0  0  0  0  0  0  0  0  0
    9.5665    0.0390    1.7791 C   0  0  0  0  0  0  0  0  0  0  0  0
   10.2813    1.2034    1.7052 C   0  0  0  0  0  0  0  0  0  0  0  0
   10.6244    1.5560    3.0538 C   0  0  0  0  0  0  0  0  0  0  0  0
   10.0880    0.5817    3.8447 C   0  0  0  0  0  0  0  0  0  0  0  0
    9.4466   -0.3428    3.0841 O   0  0  0  0  0  0  0  0  0  0  0  0
    4.4387   -1.2525    0.0500 C   0  0  0  0  0  0  0  0  0  0  0  0
    5.0104   -2.6406   -0.1500 C   0  0  0  0  0  0  0  0  0  0  0  0
    3.0509   -1.1132    0.2672 C   0  0  0  0  0  0  0  0  0  0  0  0
    2.1954   -2.3595    0.3514 C   0  0  0  0  0  0  0  0  0  0  0  0
    2.1506   -3.0591    1.3511 O   0  0  0  0  0  0  0  0  0  0  0  0
    1.4742   -2.6306   -0.7803 N   0  0  0  0  0  0  0  0  0  0  0  0
    0.6363   -3.8166   -0.9104 C   0  0  0  0  0  0  0  0  0  0  0  0
    1.1108   -4.7705   -1.9562 C   0  0  0  0  0  0  0  0  0  0  0  0
    1.7109   -5.9995   -1.9143 C   0  0  0  0  0  0  0  0  0  0  0  0
    1.9440   -6.3848   -3.2775 C   0  0  0  0  0  0  0  0  0  0  0  0
    1.4719   -5.3589   -4.0437 C   0  0  0  0  0  0  0  0  0  0  0  0
    0.9637   -4.3767   -3.2550 O   0  0  0  0  0  0  0  0  0  0  0  0
    0.7224    1.3434    0.9442 H   0  0  0  0  0  0  0  0  0  0  0  0
    0.6988   -0.3009    1.6315 H   0  0  0  0  0  0  0  0  0  0  0  0
    0.3732   -0.0631   -0.0894 H   0  0  0  0  0  0  0  0  0  0  0  0
    2.8498    2.2673    0.5591 H   0  0  0  0  0  0  0  0  0  0  0  0
    4.9149    3.3340    0.3019 H   0  0  0  0  0  0  0  0  0  0  0  0
    5.9908    2.5301   -0.8812 H   0  0  0  0  0  0  0  0  0  0  0  0
    6.3358    2.4066    0.8449 H   0  0  0  0  0  0  0  0  0  0  0  0
    6.9614   -1.0093    1.6330 H   0  0  0  0  0  0  0  0  0  0  0  0
    9.2179   -0.5198   -0.2417 H   0  0  0  0  0  0  0  0  0  0  0  0
    9.2156   -1.8798    0.9128 H   0  0  0  0  0  0  0  0  0  0  0  0
   10.5306    1.7440    0.7945 H   0  0  0  0  0  0  0  0  0  0  0  0
   11.1957    2.4200    3.3871 H   0  0  0  0  0  0  0  0  0  0  0  0
   10.0804    0.4092    4.9179 H   0  0  0  0  0  0  0  0  0  0  0  0
    6.0585   -2.6243   -0.4718 H   0  0  0  0  0  0  0  0  0  0  0  0
    4.4339   -3.1922   -0.9092 H   0  0  0  0  0  0  0  0  0  0  0  0
    4.9396   -3.2281    0.7794 H   0  0  0  0  0  0  0  0  0  0  0  0
    1.6130   -2.0439   -1.5952 H   0  0  0  0  0  0  0  0  0  0  0  0
   -0.4033   -3.5145   -1.1298 H   0  0  0  0  0  0  0  0  0  0  0  0
    0.6479   -4.3126    0.0688 H   0  0  0  0  0  0  0  0  0  0  0  0
    1.9572   -6.5610   -1.0155 H   0  0  0  0  0  0  0  0  0  0  0  0
    2.4014   -7.3045   -3.6362 H   0  0  0  0  0  0  0  0  0  0  0  0
    1.4233   -5.1870   -5.1158 H   0  0  0  0  0  0  0  0  0  0  0  0
  1  2  1  0
  1 28  1  0
  1 29  1  0
  1 30  1  0
  2  3  2  0
  2 18  1  0
  3  4  1  0
  3 31  1  0
  4  5  1  0
  4  6  2  0
  5 32  1  0
  5 33  1  0
  5 34  1  0
  6  7  1  0
  6 16  1  0
  7  8  2  0
  7  9  1  0
  9 10  1  0
  9 35  1  0
 10 11  1  0
 10 36  1  0
 10 37  1  0
 11 12  2  0
 11 15  1  0
 12 13  1  0
 12 38  1  0
 13 14  2  0
 13 39  1  0
 14 15  1  0
 14 40  1  0
 16 17  1  0
 16 18  2  0
 17 41  1  0
 17 42  1  0
 17 43  1  0
 18 19  1  0
 19 20  2  0
 19 21  1  0
 21 22  1  0
 21 44  1  0
 22 23  1  0
 22 45  1  0
 22 46  1  0
 23 24  2  0
 23 27  1  0
 24 25  1  0
 24 47  1  0
 25 26  2  0
 25 48  1  0
 26 27  1  0
 26 49  1  0
M  END

