
     RDKit          3D

 42 43  0  0  0  0  0  0  0  0999 V2000
    0.6055    2.3114    0.1539 C   0  0  0  0  0  0  0  0  0  0  0  0
    1.6144    1.2069    0.4678 C   0  0  0  0  0  0  0  0  0  0  0  0
    2.6501    1.6197    1.5285 C   0  0  1  0  0  0  0  0  0  0  0  0
    3.6779    0.5179    1.8483 C   0  0  0  0  0  0  0  0  0  0  0  0
    4.7390    0.3730    0.7465 C   0  0  2  0  0  0  0  0  0  0  0  0
    5.7208   -0.6355    1.1341 N   0  0  0  0  0  0  0  0  0  0  0  0
    6.4297   -1.5249    0.3781 C   0  0  0  0  0  0  0  0  0  0  0  0
    7.2325   -2.2929    0.8843 O   0  0  0  0  0  0  0  0  0  0  0  0
    6.2097   -1.5259   -1.1454 C   0  0  0  0  0  0  0  0  0  0  0  0
    5.8585   -2.9056   -1.6625 C   0  0  0  0  0  0  0  0  0  0  0  0
    6.8938   -3.8389   -1.8327 C   0  0  0  0  0  0  0  0  0  0  0  0
    6.6500   -5.1309   -2.2981 C   0  0  0  0  0  0  0  0  0  0  0  0
    5.3463   -5.5279   -2.6053 C   0  0  0  0  0  0  0  0  0  0  0  0
    4.2999   -4.6285   -2.4151 C   0  0  0  0  0  0  0  0  0  0  0  0
    4.5329   -3.3237   -1.9351 C   0  0  0  0  0  0  0  0  0  0  0  0
    3.3493   -2.4147   -1.7445 C   0  0  0  0  0  0  0  0  0  0  0  0
    3.3506   -1.2187   -1.9148 O   0  0  0  0  0  0  0  0  0  0  0  0
    2.2070   -3.0241   -1.3562 O   0  0  0  0  0  0  0  0  0  0  0  0
    5.3598    1.7499    0.4629 C   0  0  0  0  0  0  0  0  0  0  0  0
    4.2590    2.7702    0.1673 C   0  0  0  0  0  0  0  0  0  0  0  0
    3.3123    2.8451    1.2158 O   0  0  0  0  0  0  0  0  0  0  0  0
   -0.1266    1.9784   -0.5983 H   0  0  0  0  0  0  0  0  0  0  0  0
    1.1081    3.2111   -0.2322 H   0  0  0  0  0  0  0  0  0  0  0  0
    0.0476    2.6130    1.0565 H   0  0  0  0  0  0  0  0  0  0  0  0
    2.1066    0.8679   -0.4589 H   0  0  0  0  0  0  0  0  0  0  0  0
    1.0884    0.3167    0.8548 H   0  0  0  0  0  0  0  0  0  0  0  0
    2.0977    1.8501    2.4553 H   0  0  0  0  0  0  0  0  0  0  0  0
    3.1655   -0.4445    2.0089 H   0  0  0  0  0  0  0  0  0  0  0  0
    4.1856    0.7813    2.7939 H   0  0  0  0  0  0  0  0  0  0  0  0
    4.2386    0.0205   -0.1656 H   0  0  0  0  0  0  0  0  0  0  0  0
    5.9873   -0.6642    2.1160 H   0  0  0  0  0  0  0  0  0  0  0  0
    7.1860   -1.2382   -1.5667 H   0  0  0  0  0  0  0  0  0  0  0  0
    5.4750   -0.7912   -1.4794 H   0  0  0  0  0  0  0  0  0  0  0  0
    7.9117   -3.5360   -1.5811 H   0  0  0  0  0  0  0  0  0  0  0  0
    7.4820   -5.8279   -2.4260 H   0  0  0  0  0  0  0  0  0  0  0  0
    5.1448   -6.5291   -2.9930 H   0  0  0  0  0  0  0  0  0  0  0  0
    3.2838   -4.9354   -2.6793 H   0  0  0  0  0  0  0  0  0  0  0  0
    2.3835   -3.9505   -1.1371 H   0  0  0  0  0  0  0  0  0  0  0  0
    6.0588    1.6918   -0.3886 H   0  0  0  0  0  0  0  0  0  0  0  0
    5.9400    2.0761    1.3440 H   0  0  0  0  0  0  0  0  0  0  0  0
    3.7696    2.5217   -0.7959 H   0  0  0  0  0  0  0  0  0  0  0  0
    4.6814    3.7816    0.0649 H   0  0  0  0  0  0  0  0  0  0  0  0
  1  2  1  0
  1 22  1  0
  1 23  1  0
  1 24  1  0
  2  3  1  0
  2 25  1  0
  2 26  1  0
  3  4  1  0
  3 21  1  0
  3 27  1  1
  4  5  1  0
  4 28  1  0
  4 29  1  0
  5  6  1  0
  5 19  1  0
  5 30  1  6
  6  7  1  0
  6 31  1  0
  7  8  2  0
  7  9  1  0
  9 10  1  0
  9 32  1  0
  9 33  1  0
 10 11  2  0
 10 15  1  0
 11 12  1  0
 11 34  1  0
 12 13  2  0
 12 35  1  0
 13 14  1  0
 13 36  1  0
 14 15  2  0
 14 37  1  0
 15 16  1  0
 16 17  2  0
 16 18  1  0
 18 38  1  0
 19 20  1  0
 19 39  1  0
 19 40  1  0
 20 21  1  0
 20 41  1  0
 20 42  1  0
M  END

