
     RDKit          3D

 27 28  0  0  0  0  0  0  0  0999 V2000
    1.2833    0.6978    1.0062 N   0  0  0  0  0  0  0  0  0  0  0  0
    2.3400    0.3662    0.6564 C   0  0  0  0  0  0  0  0  0  0  0  0
    3.6799    0.1487    0.1963 C   0  0  0  0  0  0  0  0  0  0  0  0
    4.4218    1.2759   -0.2181 C   0  0  0  0  0  0  0  0  0  0  0  0
    5.7245    1.1645   -0.6791 C   0  0  0  0  0  0  0  0  0  0  0  0
    6.3668   -0.0916   -0.7422 C   0  0  0  0  0  0  0  0  0  0  0  0
    7.6672   -0.1722   -1.2035 N   0  0  0  0  0  0  0  0  0  0  0  0
    8.4478   -1.3464   -1.3114 C   0  0  0  0  0  0  0  0  0  0  0  0
    9.5573   -1.5049   -0.4631 C   0  0  0  0  0  0  0  0  0  0  0  0
   10.3794   -2.6265   -0.5682 C   0  0  0  0  0  0  0  0  0  0  0  0
   11.8806   -2.8002    0.5875 Br  0  0  0  0  0  0  0  0  0  0  0  0
   10.0995   -3.6281   -1.5016 C   0  0  0  0  0  0  0  0  0  0  0  0
    8.9989   -3.4823   -2.3466 C   0  0  0  0  0  0  0  0  0  0  0  0
    8.1862   -2.3470   -2.2706 C   0  0  0  0  0  0  0  0  0  0  0  0
    6.7671   -2.1568   -3.5205 Br  0  0  0  0  0  0  0  0  0  0  0  0
    5.6484   -1.2243   -0.3171 C   0  0  0  0  0  0  0  0  0  0  0  0
    4.3407   -1.0953    0.1319 C   0  0  0  0  0  0  0  0  0  0  0  0
    3.6570   -2.3438    0.5549 N   0  0  0  0  0  0  0  0  0  0  0  0
    2.4686   -2.2747    0.8067 O   0  0  0  0  0  0  0  0  0  0  0  0
    4.3304   -3.3591    0.6183 O   0  0  0  0  0  0  0  0  0  0  0  0
    3.9452    2.2566   -0.1744 H   0  0  0  0  0  0  0  0  0  0  0  0
    6.2594    2.0617   -1.0014 H   0  0  0  0  0  0  0  0  0  0  0  0
    8.1776    0.7026   -1.2425 H   0  0  0  0  0  0  0  0  0  0  0  0
    9.7611   -0.7402    0.2881 H   0  0  0  0  0  0  0  0  0  0  0  0
   10.7360   -4.5109   -1.5759 H   0  0  0  0  0  0  0  0  0  0  0  0
    8.7790   -4.2499   -3.0904 H   0  0  0  0  0  0  0  0  0  0  0  0
    6.0921   -2.2174   -0.3180 H   0  0  0  0  0  0  0  0  0  0  0  0
  1  2  3  0
  2  3  1  0
  3  4  2  0
  3 17  1  0
  4  5  1  0
  4 21  1  0
  5  6  2  0
  5 22  1  0
  6  7  1  0
  6 16  1  0
  7  8  1  0
  7 23  1  0
  8  9  2  0
  8 14  1  0
  9 10  1  0
  9 24  1  0
 10 11  1  0
 10 12  2  0
 12 13  1  0
 12 25  1  0
 13 14  2  0
 13 26  1  0
 14 15  1  0
 16 17  2  0
 16 27  1  0
 17 18  1  0
 18 19  2  0
 18 20  1  0
M  CHG  2  18   1  20  -1
M  END

