
     RDKit          3D

158161  0  0  0  0  0  0  0  0999 V2000
    1.1716   -0.4311    0.3540 C   0  0  0  0  0  0  0  0  0  0  0  0
    2.6877   -0.3040    0.1202 C   0  0  1  0  0  0  0  0  0  0  0  0
    3.4632   -1.1212    1.1671 C   0  0  0  0  0  0  0  0  0  0  0  0
    3.1736   -0.6855   -1.7015 Si  0  0  1  0  0  4  0  0  0  0  0  0
    2.5998   -2.4006   -2.1072 C   0  0  0  0  0  0  0  0  0  0  0  0
    2.2151   -3.5331   -2.3704 C   0  0  0  0  0  0  0  0  0  0  0  0
    1.7583   -4.8512   -2.6845 C   0  0  0  0  0  0  0  0  0  0  0  0
    0.5781   -5.0391   -3.4567 C   0  0  0  0  0  0  0  0  0  0  0  0
    0.1444   -6.3114   -3.7571 C   0  0  0  0  0  0  0  0  0  0  0  0
    0.8506   -7.4576   -3.3121 C   0  0  0  0  0  0  0  0  0  0  0  0
    0.3954   -8.7929   -3.6292 C   0  0  0  0  0  0  0  0  0  0  0  0
   -0.7867   -8.9975   -4.4053 C   0  0  0  0  0  0  0  0  0  0  0  0
   -1.7981   -9.1881   -5.0700 C   0  0  0  0  0  0  0  0  0  0  0  0
   -3.3249   -9.4894   -6.0812 Si  0  0  1  0  0  4  0  0  0  0  0  0
   -3.7779   -7.8398   -6.9508 C   0  0  1  0  0  0  0  0  0  0  0  0
   -4.1468   -6.7282   -5.9529 C   0  0  0  0  0  0  0  0  0  0  0  0
   -2.6790   -7.3655   -7.9181 C   0  0  0  0  0  0  0  0  0  0  0  0
   -2.8521  -10.8027   -7.3992 C   0  0  1  0  0  0  0  0  0  0  0  0
   -2.3267  -12.1251   -6.8156 C   0  0  0  0  0  0  0  0  0  0  0  0
   -3.9486  -11.0547   -8.4494 C   0  0  0  0  0  0  0  0  0  0  0  0
   -4.7140   -9.9689   -4.8460 C   0  0  1  0  0  0  0  0  0  0  0  0
   -6.1003  -10.1190   -5.4974 C   0  0  0  0  0  0  0  0  0  0  0  0
   -4.3826  -11.1791   -3.9564 C   0  0  0  0  0  0  0  0  0  0  0  0
    1.1121   -9.8856   -3.1775 C   0  0  0  0  0  0  0  0  0  0  0  0
    2.2975   -9.7614   -2.4003 C   0  0  0  0  0  0  0  0  0  0  0  0
    3.0307  -10.9337   -1.9390 C   0  0  0  0  0  0  0  0  0  0  0  0
    2.6115  -12.2519   -2.2379 C   0  0  0  0  0  0  0  0  0  0  0  0
    3.3146  -13.3739   -1.7961 C   0  0  0  0  0  0  0  0  0  0  0  0
    2.8639  -14.6920   -2.1193 C   0  0  0  0  0  0  0  0  0  0  0  0
    2.4876  -15.8246   -2.3941 C   0  0  0  0  0  0  0  0  0  0  0  0
    1.9133  -17.5400   -2.8027 Si  0  0  1  0  0  4  0  0  0  0  0  0
    0.5525  -18.0129   -1.5344 C   0  0  1  0  0  0  0  0  0  0  0  0
    1.0864  -18.0565   -0.0919 C   0  0  0  0  0  0  0  0  0  0  0  0
   -0.6835  -17.1016   -1.6323 C   0  0  0  0  0  0  0  0  0  0  0  0
    1.1517  -17.4557   -4.5627 C   0  0  1  0  0  0  0  0  0  0  0  0
    2.1048  -16.9131   -5.6411 C   0  0  0  0  0  0  0  0  0  0  0  0
    0.4853  -18.7665   -5.0165 C   0  0  0  0  0  0  0  0  0  0  0  0
    3.4334  -18.6896   -2.5734 C   0  0  1  0  0  0  0  0  0  0  0  0
    3.1077  -20.1884   -2.6992 C   0  0  0  0  0  0  0  0  0  0  0  0
    4.6494  -18.3102   -3.4355 C   0  0  0  0  0  0  0  0  0  0  0  0
    4.4911  -13.1862   -1.0184 C   0  0  0  0  0  0  0  0  0  0  0  0
    4.9219  -11.9140   -0.7133 C   0  0  0  0  0  0  0  0  0  0  0  0
    4.2156  -10.7678   -1.1582 C   0  0  0  0  0  0  0  0  0  0  0  0
    4.6692   -9.4325   -0.8384 C   0  0  0  0  0  0  0  0  0  0  0  0
    5.8490   -9.2283   -0.0585 C   0  0  0  0  0  0  0  0  0  0  0  0
    6.8584   -9.0391    0.6094 C   0  0  0  0  0  0  0  0  0  0  0  0
    8.3820   -8.7404    1.6262 Si  0  0  1  0  0  4  0  0  0  0  0  0
    8.8288  -10.3909    2.4975 C   0  0  1  0  0  0  0  0  0  0  0  0
    7.7253  -10.8631    3.4605 C   0  0  0  0  0  0  0  0  0  0  0  0
    9.1996  -11.5032    1.5012 C   0  0  0  0  0  0  0  0  0  0  0  0
    9.7766   -8.2638    0.3961 C   0  0  1  0  0  0  0  0  0  0  0  0
    9.4504   -7.0543   -0.4963 C   0  0  0  0  0  0  0  0  0  0  0  0
   11.1603   -8.1144    1.0534 C   0  0  0  0  0  0  0  0  0  0  0  0
    7.9069   -7.4263    2.9425 C   0  0  1  0  0  0  0  0  0  0  0  0
    8.9991   -7.1773    3.9978 C   0  0  0  0  0  0  0  0  0  0  0  0
    7.3877   -6.1023    2.3566 C   0  0  0  0  0  0  0  0  0  0  0  0
    3.9537   -8.3398   -1.2917 C   0  0  0  0  0  0  0  0  0  0  0  0
    2.7698   -8.4638   -2.0712 C   0  0  0  0  0  0  0  0  0  0  0  0
    2.0376   -7.2916   -2.5341 C   0  0  0  0  0  0  0  0  0  0  0  0
    2.4603   -5.9733   -2.2409 C   0  0  0  0  0  0  0  0  0  0  0  0
    2.1879    0.5144   -2.8334 C   0  0  1  0  0  0  0  0  0  0  0  0
    2.5563    1.9930   -2.6142 C   0  0  0  0  0  0  0  0  0  0  0  0
    2.1838    0.1466   -4.3273 C   0  0  0  0  0  0  0  0  0  0  0  0
    5.0868   -0.6115   -1.9143 C   0  0  1  0  0  0  0  0  0  0  0  0
    5.7844   -1.9072   -1.4581 C   0  0  0  0  0  0  0  0  0  0  0  0
    5.5614   -0.2407   -3.3304 C   0  0  0  0  0  0  0  0  0  0  0  0
    0.9118   -0.1666    1.3940 H   0  0  0  0  0  0  0  0  0  0  0  0
    0.8262   -1.4641    0.1816 H   0  0  0  0  0  0  0  0  0  0  0  0
    0.5846    0.2275   -0.3051 H   0  0  0  0  0  0  0  0  0  0  0  0
    2.9631    0.7598    0.2607 H   0  0  0  0  0  0  0  0  0  0  0  0
    3.2953   -2.2041    1.0409 H   0  0  0  0  0  0  0  0  0  0  0  0
    3.1347   -0.8579    2.1880 H   0  0  0  0  0  0  0  0  0  0  0  0
    4.5482   -0.9425    1.1198 H   0  0  0  0  0  0  0  0  0  0  0  0
    0.0240   -4.1660   -3.8058 H   0  0  0  0  0  0  0  0  0  0  0  0
   -0.7606   -6.4555   -4.3492 H   0  0  0  0  0  0  0  0  0  0  0  0
   -4.6806   -8.0639   -7.5510 H   0  0  0  0  0  0  0  0  0  0  0  0
   -3.3018   -6.4907   -5.2848 H   0  0  0  0  0  0  0  0  0  0  0  0
   -5.0023   -7.0011   -5.3153 H   0  0  0  0  0  0  0  0  0  0  0  0
   -4.4166   -5.7973   -6.4818 H   0  0  0  0  0  0  0  0  0  0  0  0
   -1.7320   -7.1725   -7.3867 H   0  0  0  0  0  0  0  0  0  0  0  0
   -2.9726   -6.4257   -8.4178 H   0  0  0  0  0  0  0  0  0  0  0  0
   -2.4677   -8.1027   -8.7086 H   0  0  0  0  0  0  0  0  0  0  0  0
   -2.0017  -10.3205   -7.9180 H   0  0  0  0  0  0  0  0  0  0  0  0
   -3.1287  -12.7033   -6.3290 H   0  0  0  0  0  0  0  0  0  0  0  0
   -1.5340  -11.9615   -6.0688 H   0  0  0  0  0  0  0  0  0  0  0  0
   -1.9066  -12.7644   -7.6120 H   0  0  0  0  0  0  0  0  0  0  0  0
   -4.8286  -11.5523   -8.0096 H   0  0  0  0  0  0  0  0  0  0  0  0
   -3.5763  -11.7135   -9.2536 H   0  0  0  0  0  0  0  0  0  0  0  0
   -4.2998  -10.1257   -8.9266 H   0  0  0  0  0  0  0  0  0  0  0  0
   -4.7545   -9.0845   -4.1818 H   0  0  0  0  0  0  0  0  0  0  0  0
   -6.1460  -10.9987   -6.1603 H   0  0  0  0  0  0  0  0  0  0  0  0
   -6.3845   -9.2395   -6.0975 H   0  0  0  0  0  0  0  0  0  0  0  0
   -6.8814  -10.2558   -4.7291 H   0  0  0  0  0  0  0  0  0  0  0  0
   -4.3774  -12.1190   -4.5317 H   0  0  0  0  0  0  0  0  0  0  0  0
   -5.1363  -11.2948   -3.1578 H   0  0  0  0  0  0  0  0  0  0  0  0
   -3.3986  -11.0793   -3.4723 H   0  0  0  0  0  0  0  0  0  0  0  0
    0.7359  -10.8729   -3.4382 H   0  0  0  0  0  0  0  0  0  0  0  0
    1.7148  -12.4226   -2.8310 H   0  0  0  0  0  0  0  0  0  0  0  0
    0.2378  -19.0382   -1.8088 H   0  0  0  0  0  0  0  0  0  0  0  0
    1.4622  -17.0694    0.2257 H   0  0  0  0  0  0  0  0  0  0  0  0
    1.9091  -18.7786    0.0309 H   0  0  0  0  0  0  0  0  0  0  0  0
    0.2889  -18.3466    0.6146 H   0  0  0  0  0  0  0  0  0  0  0  0
   -0.4247  -16.0514   -1.4162 H   0  0  0  0  0  0  0  0  0  0  0  0
   -1.4554  -17.4054   -0.9036 H   0  0  0  0  0  0  0  0  0  0  0  0
   -1.1487  -17.1290   -2.6304 H   0  0  0  0  0  0  0  0  0  0  0  0
    0.3494  -16.7037   -4.4356 H   0  0  0  0  0  0  0  0  0  0  0  0
    2.9074  -17.6312   -5.8746 H   0  0  0  0  0  0  0  0  0  0  0  0
    2.5825  -15.9694   -5.3344 H   0  0  0  0  0  0  0  0  0  0  0  0
    1.5610  -16.7213   -6.5829 H   0  0  0  0  0  0  0  0  0  0  0  0
    1.2280  -19.5635   -5.1865 H   0  0  0  0  0  0  0  0  0  0  0  0
   -0.0541  -18.6229   -5.9692 H   0  0  0  0  0  0  0  0  0  0  0  0
   -0.2442  -19.1470   -4.2834 H   0  0  0  0  0  0  0  0  0  0  0  0
    3.7145  -18.4997   -1.5198 H   0  0  0  0  0  0  0  0  0  0  0  0
    2.8343  -20.4611   -3.7318 H   0  0  0  0  0  0  0  0  0  0  0  0
    2.2758  -20.4974   -2.0459 H   0  0  0  0  0  0  0  0  0  0  0  0
    3.9828  -20.8039   -2.4263 H   0  0  0  0  0  0  0  0  0  0  0  0
    4.4760  -18.5270   -4.5020 H   0  0  0  0  0  0  0  0  0  0  0  0
    5.5404  -18.8872   -3.1309 H   0  0  0  0  0  0  0  0  0  0  0  0
    4.9000  -17.2412   -3.3505 H   0  0  0  0  0  0  0  0  0  0  0  0
    5.0451  -14.0595   -0.6693 H   0  0  0  0  0  0  0  0  0  0  0  0
    5.8249  -11.7701   -0.1180 H   0  0  0  0  0  0  0  0  0  0  0  0
    9.7295  -10.1684    3.1012 H   0  0  0  0  0  0  0  0  0  0  0  0
    6.7800  -11.0545    2.9254 H   0  0  0  0  0  0  0  0  0  0  0  0
    7.5121  -10.1255    4.2502 H   0  0  0  0  0  0  0  0  0  0  0  0
    8.0152  -11.8034    3.9614 H   0  0  0  0  0  0  0  0  0  0  0  0
    8.3568  -11.7393    0.8298 H   0  0  0  0  0  0  0  0  0  0  0  0
    9.4656  -12.4346    2.0312 H   0  0  0  0  0  0  0  0  0  0  0  0
   10.0581  -11.2320    0.8669 H   0  0  0  0  0  0  0  0  0  0  0  0
    9.8190   -9.1491   -0.2667 H   0  0  0  0  0  0  0  0  0  0  0  0
    9.4434   -6.1137    0.0778 H   0  0  0  0  0  0  0  0  0  0  0  0
    8.4685   -7.1537   -0.9847 H   0  0  0  0  0  0  0  0  0  0  0  0
   10.2078   -6.9402   -1.2916 H   0  0  0  0  0  0  0  0  0  0  0  0
   11.2041   -7.2340    1.7154 H   0  0  0  0  0  0  0  0  0  0  0  0
   11.9448   -7.9794    0.2883 H   0  0  0  0  0  0  0  0  0  0  0  0
   11.4409   -8.9936    1.6557 H   0  0  0  0  0  0  0  0  0  0  0  0
    7.0528   -7.9063    3.4572 H   0  0  0  0  0  0  0  0  0  0  0  0
    9.8825   -6.6822    3.5621 H   0  0  0  0  0  0  0  0  0  0  0  0
    9.3455   -8.1073    4.4766 H   0  0  0  0  0  0  0  0  0  0  0  0
    8.6249   -6.5174    4.8001 H   0  0  0  0  0  0  0  0  0  0  0  0
    8.1936   -5.5262    1.8738 H   0  0  0  0  0  0  0  0  0  0  0  0
    6.9657   -5.4620    3.1510 H   0  0  0  0  0  0  0  0  0  0  0  0
    6.5982   -6.2636    1.6060 H   0  0  0  0  0  0  0  0  0  0  0  0
    4.3290   -7.3525   -1.0295 H   0  0  0  0  0  0  0  0  0  0  0  0
    3.3597   -5.8025   -1.6519 H   0  0  0  0  0  0  0  0  0  0  0  0
    1.1505    0.3793   -2.4736 H   0  0  0  0  0  0  0  0  0  0  0  0
    3.5882    2.2122   -2.9358 H   0  0  0  0  0  0  0  0  0  0  0  0
    2.4704    2.2962   -1.5581 H   0  0  0  0  0  0  0  0  0  0  0  0
    1.8919    2.6546   -3.1972 H   0  0  0  0  0  0  0  0  0  0  0  0
    3.1695    0.2974   -4.7939 H   0  0  0  0  0  0  0  0  0  0  0  0
    1.4652    0.7772   -4.8804 H   0  0  0  0  0  0  0  0  0  0  0  0
    1.8980   -0.9043   -4.4896 H   0  0  0  0  0  0  0  0  0  0  0  0
    5.4030    0.2023   -1.2325 H   0  0  0  0  0  0  0  0  0  0  0  0
    5.5222   -2.7482   -2.1204 H   0  0  0  0  0  0  0  0  0  0  0  0
    5.5154   -2.2041   -0.4340 H   0  0  0  0  0  0  0  0  0  0  0  0
    6.8818   -1.7894   -1.4916 H   0  0  0  0  0  0  0  0  0  0  0  0
    5.2437   -0.9914   -4.0731 H   0  0  0  0  0  0  0  0  0  0  0  0
    6.6642   -0.1960   -3.3688 H   0  0  0  0  0  0  0  0  0  0  0  0
    5.1840    0.7378   -3.6629 H   0  0  0  0  0  0  0  0  0  0  0  0
  1  2  1  0
  1 67  1  0
  1 68  1  0
  1 69  1  0
  2  3  1  0
  2  4  1  0
  2 70  1  1
  3 71  1  0
  3 72  1  0
  3 73  1  0
  4  5  1  6
  4 61  1  0
  4 64  1  0
  5  6  3  0
  6  7  1  0
  7  8  2  0
  7 60  1  0
  8  9  1  0
  8 74  1  0
  9 10  2  0
  9 75  1  0
 10 11  1  0
 10 59  1  0
 11 12  1  0
 11 24  2  0
 12 13  3  0
 14 13  1  1
 14 15  1  0
 14 18  1  0
 14 21  1  0
 15 16  1  0
 15 17  1  0
 15 76  1  6
 16 77  1  0
 16 78  1  0
 16 79  1  0
 17 80  1  0
 17 81  1  0
 17 82  1  0
 18 19  1  0
 18 20  1  0
 18 83  1  6
 19 84  1  0
 19 85  1  0
 19 86  1  0
 20 87  1  0
 20 88  1  0
 20 89  1  0
 21 22  1  0
 21 23  1  0
 21 90  1  1
 22 91  1  0
 22 92  1  0
 22 93  1  0
 23 94  1  0
 23 95  1  0
 23 96  1  0
 24 25  1  0
 24 97  1  0
 25 26  1  0
 25 58  2  0
 26 27  2  0
 26 43  1  0
 27 28  1  0
 27 98  1  0
 28 29  1  0
 28 41  2  0
 29 30  3  0
 31 30  1  1
 31 32  1  0
 31 35  1  0
 31 38  1  0
 32 33  1  0
 32 34  1  0
 32 99  1  6
 33100  1  0
 33101  1  0
 33102  1  0
 34103  1  0
 34104  1  0
 34105  1  0
 35 36  1  0
 35 37  1  0
 35106  1  1
 36107  1  0
 36108  1  0
 36109  1  0
 37110  1  0
 37111  1  0
 37112  1  0
 38 39  1  0
 38 40  1  0
 38113  1  1
 39114  1  0
 39115  1  0
 39116  1  0
 40117  1  0
 40118  1  0
 40119  1  0
 41 42  1  0
 41120  1  0
 42 43  2  0
 42121  1  0
 43 44  1  0
 44 45  1  0
 44 57  2  0
 45 46  3  0
 47 46  1  6
 47 48  1  0
 47 51  1  0
 47 54  1  0
 48 49  1  0
 48 50  1  0
 48122  1  1
 49123  1  0
 49124  1  0
 49125  1  0
 50126  1  0
 50127  1  0
 50128  1  0
 51 52  1  0
 51 53  1  0
 51129  1  6
 52130  1  0
 52131  1  0
 52132  1  0
 53133  1  0
 53134  1  0
 53135  1  0
 54 55  1  0
 54 56  1  0
 54136  1  1
 55137  1  0
 55138  1  0
 55139  1  0
 56140  1  0
 56141  1  0
 56142  1  0
 57 58  1  0
 57143  1  0
 58 59  1  0
 59 60  2  0
 60144  1  0
 61 62  1  0
 61 63  1  0
 61145  1  1
 62146  1  0
 62147  1  0
 62148  1  0
 63149  1  0
 63150  1  0
 63151  1  0
 64 65  1  0
 64 66  1  0
 64152  1  1
 65153  1  0
 65154  1  0
 65155  1  0
 66156  1  0
 66157  1  0
 66158  1  0
M  END

