
     RDKit          3D

 52 54  0  0  0  0  0  0  0  0999 V2000
    1.6896   -1.1343    1.2917 O   0  0  0  0  0  0  0  0  0  0  0  0
    2.2612   -0.7140    0.2947 C   0  0  0  0  0  0  0  0  0  0  0  0
    2.3867    0.6271    0.0459 N   0  0  0  0  0  0  0  0  0  0  0  0
    1.9024    1.6267    1.0000 C   0  0  1  0  0  0  0  0  0  0  0  0
    2.5699    2.9838    0.7331 C   0  0  0  0  0  0  0  0  0  0  0  0
    2.0570    3.6494   -0.5504 C   0  0  0  0  0  0  0  0  0  0  0  0
    0.5999    3.7318   -0.5569 N   0  0  0  0  0  0  0  0  0  0  0  0
   -0.0000    4.9483   -0.7925 C   0  0  0  0  0  0  0  0  0  0  0  0
    0.6554    5.9650   -0.9739 O   0  0  0  0  0  0  0  0  0  0  0  0
   -1.5286    4.9893   -0.8118 C   0  0  0  0  0  0  0  0  0  0  0  0
   -2.0575    6.3851   -1.1348 C   0  0  0  0  0  0  0  0  0  0  0  0
   -3.5740    6.4831   -1.1536 C   0  0  0  0  0  0  0  0  0  0  0  0
   -4.3261    5.4484   -2.4463 Cl  0  0  0  0  0  0  0  0  0  0  0  0
   -0.0838    2.4555   -0.3616 C   0  0  0  0  0  0  0  0  0  0  0  0
    0.3699    1.7788    0.9354 C   0  0  0  0  0  0  0  0  0  0  0  0
    2.8693   -1.6458   -0.7197 C   0  0  0  0  0  0  0  0  0  0  0  0
    3.1796   -1.2767   -2.0381 C   0  0  0  0  0  0  0  0  0  0  0  0
    3.7312   -2.1999   -2.9260 C   0  0  0  0  0  0  0  0  0  0  0  0
    3.9915   -3.5253   -2.5293 C   0  0  0  0  0  0  0  0  0  0  0  0
    4.5833   -4.5075   -3.4756 C   0  0  0  0  0  0  0  0  0  0  0  0
    5.5586   -4.1146   -4.4122 C   0  0  0  0  0  0  0  0  0  0  0  0
    6.1153   -5.0368   -5.3006 C   0  0  0  0  0  0  0  0  0  0  0  0
    5.7081   -6.3740   -5.2747 C   0  0  0  0  0  0  0  0  0  0  0  0
    4.7399   -6.7801   -4.3514 C   0  0  0  0  0  0  0  0  0  0  0  0
    4.1851   -5.8580   -3.4618 C   0  0  0  0  0  0  0  0  0  0  0  0
    3.6640   -3.8899   -1.2083 C   0  0  0  0  0  0  0  0  0  0  0  0
    3.1067   -2.9707   -0.3235 C   0  0  0  0  0  0  0  0  0  0  0  0
    3.0225    0.9231   -0.6836 H   0  0  0  0  0  0  0  0  0  0  0  0
    2.1662    1.2693    2.0088 H   0  0  0  0  0  0  0  0  0  0  0  0
    3.6666    2.8701    0.6869 H   0  0  0  0  0  0  0  0  0  0  0  0
    2.3543    3.6467    1.5864 H   0  0  0  0  0  0  0  0  0  0  0  0
    2.3922    3.0820   -1.4421 H   0  0  0  0  0  0  0  0  0  0  0  0
    2.4449    4.6700   -0.6531 H   0  0  0  0  0  0  0  0  0  0  0  0
   -1.9145    4.6530    0.1676 H   0  0  0  0  0  0  0  0  0  0  0  0
   -1.9157    4.2696   -1.5517 H   0  0  0  0  0  0  0  0  0  0  0  0
   -1.6495    6.7213   -2.1002 H   0  0  0  0  0  0  0  0  0  0  0  0
   -1.6823    7.1038   -0.3867 H   0  0  0  0  0  0  0  0  0  0  0  0
   -3.9026    7.5103   -1.3598 H   0  0  0  0  0  0  0  0  0  0  0  0
   -4.0220    6.1564   -0.2039 H   0  0  0  0  0  0  0  0  0  0  0  0
    0.1370    1.7897   -1.2184 H   0  0  0  0  0  0  0  0  0  0  0  0
   -1.1687    2.6050   -0.3501 H   0  0  0  0  0  0  0  0  0  0  0  0
   -0.0968    0.7881    1.0382 H   0  0  0  0  0  0  0  0  0  0  0  0
    0.0445    2.3868    1.7968 H   0  0  0  0  0  0  0  0  0  0  0  0
    2.9573   -0.2700   -2.4016 H   0  0  0  0  0  0  0  0  0  0  0  0
    3.9325   -1.8955   -3.9553 H   0  0  0  0  0  0  0  0  0  0  0  0
    5.9044   -3.0784   -4.4277 H   0  0  0  0  0  0  0  0  0  0  0  0
    6.8778   -4.7099   -6.0123 H   0  0  0  0  0  0  0  0  0  0  0  0
    6.1430   -7.0959   -5.9704 H   0  0  0  0  0  0  0  0  0  0  0  0
    4.4078   -7.8212   -4.3278 H   0  0  0  0  0  0  0  0  0  0  0  0
    3.4123   -6.1850   -2.7624 H   0  0  0  0  0  0  0  0  0  0  0  0
    3.8696   -4.9058   -0.8638 H   0  0  0  0  0  0  0  0  0  0  0  0
    2.8489   -3.2570    0.6979 H   0  0  0  0  0  0  0  0  0  0  0  0
  1  2  2  0
  2  3  1  0
  2 16  1  0
  3  4  1  0
  3 28  1  0
  4  5  1  0
  4 15  1  0
  4 29  1  1
  5  6  1  0
  5 30  1  0
  5 31  1  0
  6  7  1  0
  6 32  1  0
  6 33  1  0
  7  8  1  0
  7 14  1  0
  8  9  2  0
  8 10  1  0
 10 11  1  0
 10 34  1  0
 10 35  1  0
 11 12  1  0
 11 36  1  0
 11 37  1  0
 12 13  1  0
 12 38  1  0
 12 39  1  0
 14 15  1  0
 14 40  1  0
 14 41  1  0
 15 42  1  0
 15 43  1  0
 16 17  2  0
 16 27  1  0
 17 18  1  0
 17 44  1  0
 18 19  2  0
 18 45  1  0
 19 20  1  0
 19 26  1  0
 20 21  2  0
 20 25  1  0
 21 22  1  0
 21 46  1  0
 22 23  2  0
 22 47  1  0
 23 24  1  0
 23 48  1  0
 24 25  2  0
 24 49  1  0
 25 50  1  0
 26 27  2  0
 26 51  1  0
 27 52  1  0
M  END

