
     RDKit          3D

 50 51  0  0  0  0  0  0  0  0999 V2000
    2.4053    0.6977   -1.2044 C   0  0  0  0  0  0  0  0  0  0  0  0
    2.4607    0.1132    0.2001 C   0  0  0  0  0  0  0  0  0  0  0  0
    2.9320   -1.2338    0.2250 O   0  0  0  0  0  0  0  0  0  0  0  0
    4.2587   -1.5057    0.2229 C   0  0  0  0  0  0  0  0  0  0  0  0
    5.2749   -0.5477    0.1629 C   0  0  0  0  0  0  0  0  0  0  0  0
    6.6224   -0.9413    0.1683 C   0  0  0  0  0  0  0  0  0  0  0  0
    7.6444    0.1472    0.0887 C   0  0  0  0  0  0  0  0  0  0  0  0
    7.3574    1.3202    0.3592 O   0  0  0  0  0  0  0  0  0  0  0  0
    8.8981   -0.1950   -0.3016 N   0  0  0  0  0  0  0  0  0  0  0  0
   10.0092    0.7500   -0.3038 C   0  0  0  0  0  0  0  0  0  0  0  0
   10.3123    1.4167   -1.6392 C   0  0  1  0  0  0  0  0  0  0  0  0
    9.4299    2.5385   -2.1759 C   0  0  0  0  0  0  0  0  0  0  0  0
    9.6926    3.0705   -3.2300 O   0  0  0  0  0  0  0  0  0  0  0  0
    8.3949    2.9469   -1.4476 O   0  0  0  0  0  0  0  0  0  0  0  0
   11.7842    1.5960   -1.9957 C   0  0  0  0  0  0  0  0  0  0  0  0
   10.9764    0.5688   -2.7140 C   0  0  0  0  0  0  0  0  0  0  0  0
    6.9576   -2.2961    0.2691 C   0  0  0  0  0  0  0  0  0  0  0  0
    5.9494   -3.2666    0.3253 C   0  0  0  0  0  0  0  0  0  0  0  0
    6.3090   -4.5800    0.3690 O   0  0  0  0  0  0  0  0  0  0  0  0
    6.0079   -5.3111    1.5657 C   0  0  0  0  0  0  0  0  0  0  0  0
    6.4767   -6.7388    1.3727 C   0  0  0  0  0  0  0  0  0  0  0  0
    4.5954   -2.8824    0.2954 C   0  0  0  0  0  0  0  0  0  0  0  0
    3.6278   -3.8345    0.3829 O   0  0  0  0  0  0  0  0  0  0  0  0
    2.8902   -4.1230   -0.8134 C   0  0  0  0  0  0  0  0  0  0  0  0
    1.8442   -5.1671   -0.4828 C   0  0  0  0  0  0  0  0  0  0  0  0
    1.9709    1.7097   -1.1708 H   0  0  0  0  0  0  0  0  0  0  0  0
    1.7745    0.0755   -1.8581 H   0  0  0  0  0  0  0  0  0  0  0  0
    3.4035    0.7742   -1.6609 H   0  0  0  0  0  0  0  0  0  0  0  0
    1.4489    0.0589    0.6296 H   0  0  0  0  0  0  0  0  0  0  0  0
    3.0683    0.7393    0.8756 H   0  0  0  0  0  0  0  0  0  0  0  0
    5.0608    0.5181    0.1089 H   0  0  0  0  0  0  0  0  0  0  0  0
    9.0541   -1.1236   -0.6734 H   0  0  0  0  0  0  0  0  0  0  0  0
   10.9067    0.2046    0.0271 H   0  0  0  0  0  0  0  0  0  0  0  0
    9.7941    1.5065    0.4652 H   0  0  0  0  0  0  0  0  0  0  0  0
    8.1346    2.3776   -0.6764 H   0  0  0  0  0  0  0  0  0  0  0  0
   12.5213    1.2683   -1.2563 H   0  0  0  0  0  0  0  0  0  0  0  0
   12.0345    2.5091   -2.5390 H   0  0  0  0  0  0  0  0  0  0  0  0
   11.1487   -0.4882   -2.4864 H   0  0  0  0  0  0  0  0  0  0  0  0
   10.6850    0.7860   -3.7439 H   0  0  0  0  0  0  0  0  0  0  0  0
    7.9900   -2.6456    0.3233 H   0  0  0  0  0  0  0  0  0  0  0  0
    4.9254   -5.2719    1.7652 H   0  0  0  0  0  0  0  0  0  0  0  0
    6.5306   -4.8363    2.4178 H   0  0  0  0  0  0  0  0  0  0  0  0
    5.9492   -7.2096    0.5287 H   0  0  0  0  0  0  0  0  0  0  0  0
    6.2777   -7.3303    2.2800 H   0  0  0  0  0  0  0  0  0  0  0  0
    7.5572   -6.7733    1.1639 H   0  0  0  0  0  0  0  0  0  0  0  0
    3.5891   -4.4901   -1.5872 H   0  0  0  0  0  0  0  0  0  0  0  0
    2.4177   -3.1993   -1.1859 H   0  0  0  0  0  0  0  0  0  0  0  0
    2.3127   -6.0932   -0.1151 H   0  0  0  0  0  0  0  0  0  0  0  0
    1.2536   -5.4102   -1.3799 H   0  0  0  0  0  0  0  0  0  0  0  0
    1.1596   -4.7941    0.2945 H   0  0  0  0  0  0  0  0  0  0  0  0
  1  2  1  0
  1 26  1  0
  1 27  1  0
  1 28  1  0
  2  3  1  0
  2 29  1  0
  2 30  1  0
  3  4  1  0
  4  5  2  0
  4 22  1  0
  5  6  1  0
  5 31  1  0
  6  7  1  0
  6 17  2  0
  7  8  2  0
  7  9  1  0
  9 10  1  0
  9 32  1  0
 10 11  1  0
 10 33  1  0
 10 34  1  0
 11 12  1  6
 11 15  1  0
 11 16  1  0
 12 13  2  0
 12 14  1  0
 14 35  1  0
 15 16  1  0
 15 36  1  0
 15 37  1  0
 16 38  1  0
 16 39  1  0
 17 18  1  0
 17 40  1  0
 18 19  1  0
 18 22  2  0
 19 20  1  0
 20 21  1  0
 20 41  1  0
 20 42  1  0
 21 43  1  0
 21 44  1  0
 21 45  1  0
 22 23  1  0
 23 24  1  0
 24 25  1  0
 24 46  1  0
 24 47  1  0
 25 48  1  0
 25 49  1  0
 25 50  1  0
M  END

