
     RDKit          3D

 41 44  0  0  0  0  0  0  0  0999 V2000
    2.3118    2.5249  -10.0684 C   0  0  0  0  0  0  0  0  0  0  0  0
    2.8183    1.5446   -9.1698 O   0  0  0  0  0  0  0  0  0  0  0  0
    3.3073    1.9728   -7.9935 C   0  0  0  0  0  0  0  0  0  0  0  0
    3.3109    3.2378   -7.6982 N   0  0  0  0  0  0  0  0  0  0  0  0
    3.8204    3.6267   -6.4895 C   0  0  0  0  0  0  0  0  0  0  0  0
    4.3533    2.7904   -5.5346 C   0  0  0  0  0  0  0  0  0  0  0  0
    4.9539    3.2867   -4.2183 C   0  0  2  0  0  0  0  0  0  0  0  0
    4.9156    2.4382   -3.5211 H   0  0  0  0  0  0  0  0  0  0  0  0
    4.2652    4.5368   -3.6245 C   0  0  0  0  0  0  0  0  0  0  0  0
    5.1155    5.7468   -4.0997 C   0  0  0  0  0  0  0  0  0  0  0  0
    6.3417    5.1145   -4.7904 C   0  0  0  0  0  0  0  0  0  0  0  0
    6.3513    3.7439   -4.3110 N   0  0  0  0  0  0  0  0  0  0  0  0
    7.3297    2.8676   -4.9074 C   0  0  0  0  0  0  0  0  0  0  0  0
    4.3560    1.3746   -5.8406 C   0  0  0  0  0  0  0  0  0  0  0  0
    4.8415    0.4935   -4.9594 N   0  0  0  0  0  0  0  0  0  0  0  0
    4.8245   -0.8179   -5.2485 C   0  0  0  0  0  0  0  0  0  0  0  0
    5.3449   -1.7466   -4.2912 C   0  0  0  0  0  0  0  0  0  0  0  0
    5.3458   -3.0953   -4.5528 C   0  0  0  0  0  0  0  0  0  0  0  0
    4.8294   -3.6043   -5.7815 C   0  0  0  0  0  0  0  0  0  0  0  0
    4.3201   -2.7469   -6.7262 C   0  0  0  0  0  0  0  0  0  0  0  0
    4.3010   -1.3378   -6.4914 C   0  0  0  0  0  0  0  0  0  0  0  0
    3.7933   -0.4106   -7.4145 C   0  0  0  0  0  0  0  0  0  0  0  0
    3.8104    0.9481   -7.1075 C   0  0  0  0  0  0  0  0  0  0  0  0
    1.9670    1.9741  -10.9531 H   0  0  0  0  0  0  0  0  0  0  0  0
    3.0943    3.2472  -10.3475 H   0  0  0  0  0  0  0  0  0  0  0  0
    1.4782    3.0833   -9.6153 H   0  0  0  0  0  0  0  0  0  0  0  0
    3.7663    4.7038   -6.3083 H   0  0  0  0  0  0  0  0  0  0  0  0
    4.2955    4.4646   -2.5277 H   0  0  0  0  0  0  0  0  0  0  0  0
    3.2072    4.6097   -3.9142 H   0  0  0  0  0  0  0  0  0  0  0  0
    5.4207    6.3665   -3.2436 H   0  0  0  0  0  0  0  0  0  0  0  0
    4.5636    6.4060   -4.7878 H   0  0  0  0  0  0  0  0  0  0  0  0
    7.2908    5.6151   -4.5307 H   0  0  0  0  0  0  0  0  0  0  0  0
    6.2460    5.1785   -5.8999 H   0  0  0  0  0  0  0  0  0  0  0  0
    8.3429    3.2620   -4.7191 H   0  0  0  0  0  0  0  0  0  0  0  0
    7.2209    2.7519   -6.0105 H   0  0  0  0  0  0  0  0  0  0  0  0
    7.2623    1.8654   -4.4593 H   0  0  0  0  0  0  0  0  0  0  0  0
    5.7346   -1.3395   -3.3563 H   0  0  0  0  0  0  0  0  0  0  0  0
    5.7462   -3.7932   -3.8127 H   0  0  0  0  0  0  0  0  0  0  0  0
    4.8419   -4.6813   -5.9653 H   0  0  0  0  0  0  0  0  0  0  0  0
    3.9216   -3.1275   -7.6707 H   0  0  0  0  0  0  0  0  0  0  0  0
    3.3842   -0.7438   -8.3708 H   0  0  0  0  0  0  0  0  0  0  0  0
  1  2  1  0
  1 24  1  0
  1 25  1  0
  1 26  1  0
  2  3  1  0
  3  4  2  0
  3 23  1  0
  4  5  1  0
  5  6  2  0
  5 27  1  0
  6  7  1  0
  6 14  1  0
  7  8  1  1
  7  9  1  0
  7 12  1  0
  9 10  1  0
  9 28  1  0
  9 29  1  0
 10 11  1  0
 10 30  1  0
 10 31  1  0
 11 12  1  0
 11 32  1  0
 11 33  1  0
 12 13  1  0
 13 34  1  0
 13 35  1  0
 13 36  1  0
 14 15  1  0
 14 23  2  0
 15 16  2  0
 16 17  1  0
 16 21  1  0
 17 18  2  0
 17 37  1  0
 18 19  1  0
 18 38  1  0
 19 20  2  0
 19 39  1  0
 20 21  1  0
 20 40  1  0
 21 22  2  0
 22 23  1  0
 22 41  1  0
M  END

