
     RDKit          3D

 40 41  0  0  0  0  0  0  0  0999 V2000
    3.9952   -3.1167    2.5431 C   0  0  0  0  0  0  0  0  0  0  0  0
    4.6359   -2.2265    1.4832 C   0  0  0  0  0  0  0  0  0  0  0  0
    5.2690   -3.2474    0.0978 S   0  0  0  0  0  0  0  0  0  0  0  0
    5.9511   -1.9195   -0.9602 C   0  0  0  0  0  0  0  0  0  0  0  0
    6.5451   -2.5240   -2.2239 C   0  0  0  0  0  0  0  0  0  0  0  0
    7.0650   -1.4567   -2.9941 O   0  0  0  0  0  0  0  0  0  0  0  0
    7.6401   -1.6922   -4.2089 C   0  0  0  0  0  0  0  0  0  0  0  0
    7.7933   -3.0029   -4.7333 C   0  0  0  0  0  0  0  0  0  0  0  0
    8.3958   -3.1901   -5.9579 C   0  0  0  0  0  0  0  0  0  0  0  0
    8.8745   -2.0909   -6.7137 C   0  0  0  0  0  0  0  0  0  0  0  0
    9.5076   -2.2758   -7.9754 C   0  0  0  0  0  0  0  0  0  0  0  0
    9.9778   -1.2036   -8.7007 C   0  0  0  0  0  0  0  0  0  0  0  0
    9.8303    0.1084   -8.1842 C   0  0  0  0  0  0  0  0  0  0  0  0
    9.2197    0.3216   -6.9663 C   0  0  0  0  0  0  0  0  0  0  0  0
    8.7156   -0.7621   -6.1833 C   0  0  0  0  0  0  0  0  0  0  0  0
    8.0745   -0.5690   -4.9178 C   0  0  0  0  0  0  0  0  0  0  0  0
    7.8827    0.8007   -4.3074 C   0  0  0  0  0  0  0  0  0  0  0  0
    9.0473    1.2446   -3.4073 C   0  0  0  0  0  0  0  0  0  0  0  0
    8.7618    2.5417   -2.8011 N   0  0  0  0  0  0  0  0  0  0  0  0
    3.6142   -2.5047    3.3762 H   0  0  0  0  0  0  0  0  0  0  0  0
    4.7219   -3.8351    2.9541 H   0  0  0  0  0  0  0  0  0  0  0  0
    3.1503   -3.6882    2.1275 H   0  0  0  0  0  0  0  0  0  0  0  0
    5.4742   -1.6517    1.9103 H   0  0  0  0  0  0  0  0  0  0  0  0
    3.9039   -1.5049    1.0844 H   0  0  0  0  0  0  0  0  0  0  0  0
    6.7325   -1.3663   -0.4147 H   0  0  0  0  0  0  0  0  0  0  0  0
    5.1548   -1.2080   -1.2317 H   0  0  0  0  0  0  0  0  0  0  0  0
    5.7671   -3.0715   -2.7875 H   0  0  0  0  0  0  0  0  0  0  0  0
    7.3428   -3.2441   -1.9635 H   0  0  0  0  0  0  0  0  0  0  0  0
    7.4394   -3.8668   -4.1712 H   0  0  0  0  0  0  0  0  0  0  0  0
    8.5134   -4.2009   -6.3578 H   0  0  0  0  0  0  0  0  0  0  0  0
    9.6150   -3.2944   -8.3593 H   0  0  0  0  0  0  0  0  0  0  0  0
   10.4629   -1.3586   -9.6675 H   0  0  0  0  0  0  0  0  0  0  0  0
   10.2053    0.9600   -8.7579 H   0  0  0  0  0  0  0  0  0  0  0  0
    9.1237    1.3423   -6.5944 H   0  0  0  0  0  0  0  0  0  0  0  0
    6.9707    0.8098   -3.6948 H   0  0  0  0  0  0  0  0  0  0  0  0
    7.7346    1.5531   -5.0993 H   0  0  0  0  0  0  0  0  0  0  0  0
    9.9900    1.2108   -3.9957 H   0  0  0  0  0  0  0  0  0  0  0  0
    9.1621    0.5040   -2.5987 H   0  0  0  0  0  0  0  0  0  0  0  0
    8.7548    3.2709   -3.5165 H   0  0  0  0  0  0  0  0  0  0  0  0
    9.5020    2.7996   -2.1481 H   0  0  0  0  0  0  0  0  0  0  0  0
  1  2  1  0
  1 20  1  0
  1 21  1  0
  1 22  1  0
  2  3  1  0
  2 23  1  0
  2 24  1  0
  3  4  1  0
  4  5  1  0
  4 25  1  0
  4 26  1  0
  5  6  1  0
  5 27  1  0
  5 28  1  0
  6  7  1  0
  7  8  2  0
  7 16  1  0
  8  9  1  0
  8 29  1  0
  9 10  2  0
  9 30  1  0
 10 11  1  0
 10 15  1  0
 11 12  2  0
 11 31  1  0
 12 13  1  0
 12 32  1  0
 13 14  2  0
 13 33  1  0
 14 15  1  0
 14 34  1  0
 15 16  2  0
 16 17  1  0
 17 18  1  0
 17 35  1  0
 17 36  1  0
 18 19  1  0
 18 37  1  0
 18 38  1  0
 19 39  1  0
 19 40  1  0
M  END

