
     RDKit          3D

 50 54  0  0  0  0  0  0  0  0999 V2000
    1.0084   -0.1423    0.3109 N   0  0  0  0  0  0  0  0  0  0  0  0
    2.3675   -0.0853    0.0882 C   0  0  0  0  0  0  0  0  0  0  0  0
    2.9109    0.5793   -1.0309 C   0  0  0  0  0  0  0  0  0  0  0  0
    4.2854    0.6746   -1.2314 C   0  0  0  0  0  0  0  0  0  0  0  0
    5.2041    0.1214   -0.3162 C   0  0  0  0  0  0  0  0  0  0  0  0
    6.6633    0.1857   -0.5342 C   0  0  0  0  0  0  0  0  0  0  0  0
    7.5374   -0.8766   -0.3845 C   0  0  0  0  0  0  0  0  0  0  0  0
    8.8358   -0.5033   -0.6912 N   0  0  0  0  0  0  0  0  0  0  0  0
   10.0719   -1.2993   -0.6892 C   0  0  1  0  0  0  0  0  0  0  0  0
   10.4489   -1.8483    0.7019 C   0  0  0  0  0  0  0  0  0  0  0  0
    9.7063   -3.1284    1.1073 C   0  0  0  0  0  0  0  0  0  0  0  0
    9.8080   -4.2117    0.0275 C   0  0  2  0  0  0  0  0  0  0  0  0
    9.3339   -3.6904   -1.3323 C   0  0  0  0  0  0  0  0  0  0  0  0
   10.0850   -2.4195   -1.7497 C   0  0  0  0  0  0  0  0  0  0  0  0
    9.0474   -5.3436    0.4372 O   0  0  0  0  0  0  0  0  0  0  0  0
    9.8603   -6.4994    0.3385 C   0  0  0  0  0  0  0  0  0  0  0  0
   11.2654   -5.9298    0.5169 C   0  0  0  0  0  0  0  0  0  0  0  0
   11.1582   -4.6635   -0.1075 O   0  0  0  0  0  0  0  0  0  0  0  0
    8.8129    0.8272   -1.0468 C   0  0  0  0  0  0  0  0  0  0  0  0
    9.8816    1.5497   -1.4042 N   0  0  0  0  0  0  0  0  0  0  0  0
    9.5910    2.8170   -1.6710 C   0  0  0  0  0  0  0  0  0  0  0  0
    8.3954    3.4159   -1.5910 N   0  0  0  0  0  0  0  0  0  0  0  0
    7.3317    2.6887   -1.2235 C   0  0  0  0  0  0  0  0  0  0  0  0
    6.1374    3.3412   -1.1387 N   0  0  0  0  0  0  0  0  0  0  0  0
    7.4813    1.2995   -0.9576 C   0  0  0  0  0  0  0  0  0  0  0  0
    4.6715   -0.5441    0.8031 C   0  0  0  0  0  0  0  0  0  0  0  0
    3.2961   -0.6486    0.9923 C   0  0  0  0  0  0  0  0  0  0  0  0
    2.6852   -1.5011    2.4059 Cl  0  0  0  0  0  0  0  0  0  0  0  0
    0.4033   -0.0035   -0.4886 H   0  0  0  0  0  0  0  0  0  0  0  0
    0.6874   -0.8350    0.9773 H   0  0  0  0  0  0  0  0  0  0  0  0
    2.2259    1.0191   -1.7616 H   0  0  0  0  0  0  0  0  0  0  0  0
    4.6556    1.1754   -2.1285 H   0  0  0  0  0  0  0  0  0  0  0  0
    7.2954   -1.8968   -0.1040 H   0  0  0  0  0  0  0  0  0  0  0  0
   10.8320   -0.5595   -0.9752 H   0  0  0  0  0  0  0  0  0  0  0  0
   10.3114   -1.0612    1.4598 H   0  0  0  0  0  0  0  0  0  0  0  0
   11.5264   -2.0787    0.6724 H   0  0  0  0  0  0  0  0  0  0  0  0
    8.6389   -2.9377    1.3002 H   0  0  0  0  0  0  0  0  0  0  0  0
   10.1221   -3.5320    2.0443 H   0  0  0  0  0  0  0  0  0  0  0  0
    8.2491   -3.5136   -1.2665 H   0  0  0  0  0  0  0  0  0  0  0  0
    9.4826   -4.4855   -2.0796 H   0  0  0  0  0  0  0  0  0  0  0  0
    9.6940   -2.0301   -2.7026 H   0  0  0  0  0  0  0  0  0  0  0  0
   11.1397   -2.6886   -1.9229 H   0  0  0  0  0  0  0  0  0  0  0  0
    9.7478   -6.9885   -0.6486 H   0  0  0  0  0  0  0  0  0  0  0  0
    9.5660   -7.2139    1.1224 H   0  0  0  0  0  0  0  0  0  0  0  0
   12.0524   -6.5113    0.0134 H   0  0  0  0  0  0  0  0  0  0  0  0
   11.5259   -5.8324    1.5890 H   0  0  0  0  0  0  0  0  0  0  0  0
   10.4261    3.4566   -1.9832 H   0  0  0  0  0  0  0  0  0  0  0  0
    6.1760    4.3513   -1.2034 H   0  0  0  0  0  0  0  0  0  0  0  0
    5.3642    2.9196   -0.6421 H   0  0  0  0  0  0  0  0  0  0  0  0
    5.3375   -0.9800    1.5494 H   0  0  0  0  0  0  0  0  0  0  0  0
  1  2  1  0
  1 29  1  0
  1 30  1  0
  2  3  2  0
  2 27  1  0
  3  4  1  0
  3 31  1  0
  4  5  2  0
  4 32  1  0
  5  6  1  0
  5 26  1  0
  6  7  2  0
  6 25  1  0
  7  8  1  0
  7 33  1  0
  8  9  1  0
  8 19  1  0
  9 10  1  0
  9 14  1  0
  9 34  1  6
 10 11  1  0
 10 35  1  0
 10 36  1  0
 11 12  1  0
 11 37  1  0
 11 38  1  0
 12 13  1  0
 12 15  1  1
 12 18  1  0
 13 14  1  0
 13 39  1  0
 13 40  1  0
 14 41  1  0
 14 42  1  0
 15 16  1  0
 16 17  1  0
 16 43  1  0
 16 44  1  0
 17 18  1  0
 17 45  1  0
 17 46  1  0
 19 20  1  0
 19 25  2  0
 20 21  2  0
 21 22  1  0
 21 47  1  0
 22 23  2  0
 23 24  1  0
 23 25  1  0
 24 48  1  0
 24 49  1  0
 26 27  2  0
 26 50  1  0
 27 28  1  0
M  END

