
     RDKit          3D

 47 48  0  0  0  0  0  0  0  0999 V2000
    1.1529    0.3349    0.9163 C   0  0  0  0  0  0  0  0  0  0  0  0
    2.6195    0.1489    0.6100 C   0  0  0  0  0  0  0  0  0  0  0  0
    3.4309   -0.6905    1.3877 C   0  0  0  0  0  0  0  0  0  0  0  0
    4.7912   -0.8458    1.1086 C   0  0  0  0  0  0  0  0  0  0  0  0
    5.3932   -0.1659    0.0392 C   0  0  0  0  0  0  0  0  0  0  0  0
    6.8550   -0.3731   -0.2856 C   0  0  0  0  0  0  0  0  0  0  0  0
    7.0995   -1.6400   -1.1324 C   0  0  0  0  0  0  0  0  0  0  0  0
    8.4998   -1.8783   -1.4319 N   0  0  0  0  0  0  0  0  0  0  0  0
    9.3059   -2.6181   -0.6092 C   0  0  0  0  0  0  0  0  0  0  0  0
    8.8827   -3.1562    0.4042 O   0  0  0  0  0  0  0  0  0  0  0  0
   10.7686   -2.7034   -1.0266 C   0  0  0  0  0  0  0  0  0  0  0  0
   11.6909   -1.7591   -0.2271 C   0  0  0  0  0  0  0  0  0  0  0  0
   11.7224   -1.9538    1.3043 C   0  0  1  0  0  0  0  0  0  0  0  0
   12.1102   -3.3780    1.7551 C   0  0  0  0  0  0  0  0  0  0  0  0
   13.5915   -3.7032    1.5176 C   0  0  0  0  0  0  0  0  0  0  0  0
   14.5031   -2.6689    2.1930 C   0  0  0  0  0  0  0  0  0  0  0  0
   14.1542   -1.2381    1.7603 C   0  0  0  0  0  0  0  0  0  0  0  0
   12.6639   -0.9278    1.9741 C   0  0  0  0  0  0  0  0  0  0  0  0
    4.5813    0.6723   -0.7415 C   0  0  0  0  0  0  0  0  0  0  0  0
    3.2227    0.8273   -0.4616 C   0  0  0  0  0  0  0  0  0  0  0  0
    0.8102   -0.3633    1.6942 H   0  0  0  0  0  0  0  0  0  0  0  0
    0.5305    0.1750    0.0204 H   0  0  0  0  0  0  0  0  0  0  0  0
    0.9445    1.3585    1.2727 H   0  0  0  0  0  0  0  0  0  0  0  0
    2.9913   -1.2318    2.2307 H   0  0  0  0  0  0  0  0  0  0  0  0
    5.3980   -1.5055    1.7362 H   0  0  0  0  0  0  0  0  0  0  0  0
    7.4391   -0.4712    0.6434 H   0  0  0  0  0  0  0  0  0  0  0  0
    7.2498    0.5041   -0.8261 H   0  0  0  0  0  0  0  0  0  0  0  0
    6.5376   -1.5751   -2.0783 H   0  0  0  0  0  0  0  0  0  0  0  0
    6.7292   -2.5180   -0.5839 H   0  0  0  0  0  0  0  0  0  0  0  0
    8.9131   -1.4182   -2.2334 H   0  0  0  0  0  0  0  0  0  0  0  0
   10.8759   -2.4809   -2.1017 H   0  0  0  0  0  0  0  0  0  0  0  0
   11.0788   -3.7496   -0.8846 H   0  0  0  0  0  0  0  0  0  0  0  0
   11.3872   -0.7164   -0.4319 H   0  0  0  0  0  0  0  0  0  0  0  0
   12.7052   -1.8591   -0.6482 H   0  0  0  0  0  0  0  0  0  0  0  0
   10.7008   -1.7676    1.6727 H   0  0  0  0  0  0  0  0  0  0  0  0
   11.4529   -4.1213    1.2789 H   0  0  0  0  0  0  0  0  0  0  0  0
   11.9044   -3.4557    2.8381 H   0  0  0  0  0  0  0  0  0  0  0  0
   13.8069   -3.7292    0.4334 H   0  0  0  0  0  0  0  0  0  0  0  0
   13.8195   -4.7148    1.8943 H   0  0  0  0  0  0  0  0  0  0  0  0
   15.5633   -2.8871    1.9785 H   0  0  0  0  0  0  0  0  0  0  0  0
   14.3860   -2.7518    3.2899 H   0  0  0  0  0  0  0  0  0  0  0  0
   14.4184   -1.1052    0.6954 H   0  0  0  0  0  0  0  0  0  0  0  0
   14.7705   -0.5106    2.3155 H   0  0  0  0  0  0  0  0  0  0  0  0
   12.4320    0.0911    1.6171 H   0  0  0  0  0  0  0  0  0  0  0  0
   12.4577   -0.9265    3.0597 H   0  0  0  0  0  0  0  0  0  0  0  0
    5.0223    1.2193   -1.5808 H   0  0  0  0  0  0  0  0  0  0  0  0
    2.6179    1.4916   -1.0867 H   0  0  0  0  0  0  0  0  0  0  0  0
  1  2  1  0
  1 21  1  0
  1 22  1  0
  1 23  1  0
  2  3  2  0
  2 20  1  0
  3  4  1  0
  3 24  1  0
  4  5  2  0
  4 25  1  0
  5  6  1  0
  5 19  1  0
  6  7  1  0
  6 26  1  0
  6 27  1  0
  7  8  1  0
  7 28  1  0
  7 29  1  0
  8  9  1  0
  8 30  1  0
  9 10  2  0
  9 11  1  0
 11 12  1  0
 11 31  1  0
 11 32  1  0
 12 13  1  0
 12 33  1  0
 12 34  1  0
 13 14  1  0
 13 18  1  0
 13 35  1  1
 14 15  1  0
 14 36  1  0
 14 37  1  0
 15 16  1  0
 15 38  1  0
 15 39  1  0
 16 17  1  0
 16 40  1  0
 16 41  1  0
 17 18  1  0
 17 42  1  0
 17 43  1  0
 18 44  1  0
 18 45  1  0
 19 20  2  0
 19 46  1  0
 20 47  1  0
M  END

