
     RDKit          3D

 51 53  0  0  0  0  0  0  0  0999 V2000
    3.6190   -3.3357    1.0747 C   0  0  0  0  0  0  0  0  0  0  0  0
    3.6788   -1.8696    0.6610 C   0  0  0  0  0  0  0  0  0  0  0  0
    4.4470   -1.0803    1.6120 N   0  0  0  0  0  0  0  0  0  0  0  0
    4.5622    0.3288    1.2766 C   0  0  0  0  0  0  0  0  0  0  0  0
    5.2473    1.1436    2.3885 C   0  0  1  0  0  0  0  0  0  0  0  0
    6.7179    0.7496    2.6446 C   0  0  0  0  0  0  0  0  0  0  0  0
    7.6730    1.2535    1.5567 C   0  0  0  0  0  0  0  0  0  0  0  0
    7.5342    2.7008    1.3852 N   0  0  0  0  0  0  0  0  0  0  0  0
    8.6605    3.4738    1.4183 C   0  0  0  0  0  0  0  0  0  0  0  0
    9.7886    3.0017    1.5010 O   0  0  0  0  0  0  0  0  0  0  0  0
    8.5477    4.9908    1.3754 C   0  0  0  0  0  0  0  0  0  0  0  0
    9.5530    5.6860    0.6812 C   0  0  0  0  0  0  0  0  0  0  0  0
    9.5259    7.0749    0.7043 C   0  0  0  0  0  0  0  0  0  0  0  0
    8.5314    7.7290    1.4382 C   0  0  0  0  0  0  0  0  0  0  0  0
    8.4754    9.2004    1.4986 C   0  0  0  0  0  0  0  0  0  0  0  0
    9.2616    9.9259    0.9188 O   0  0  0  0  0  0  0  0  0  0  0  0
    7.4321    9.7070    2.2857 N   0  0  0  0  0  0  0  0  0  0  0  0
    7.2889   11.1588    2.4118 C   0  0  0  0  0  0  0  0  0  0  0  0
    6.4920    8.9429    2.9899 C   0  0  0  0  0  0  0  0  0  0  0  0
    5.6276    9.4791    3.6533 O   0  0  0  0  0  0  0  0  0  0  0  0
    6.6026    7.5536    2.8869 N   0  0  0  0  0  0  0  0  0  0  0  0
    5.6395    6.7311    3.6189 C   0  0  0  0  0  0  0  0  0  0  0  0
    7.5861    6.9403    2.1245 C   0  0  0  0  0  0  0  0  0  0  0  0
    7.5906    5.6048    2.0773 N   0  0  0  0  0  0  0  0  0  0  0  0
    6.1767    3.1301    1.0528 C   0  0  0  0  0  0  0  0  0  0  0  0
    5.1801    2.6614    2.1206 C   0  0  0  0  0  0  0  0  0  0  0  0
    3.0002   -3.9198    0.3757 H   0  0  0  0  0  0  0  0  0  0  0  0
    3.1964   -3.4356    2.0865 H   0  0  0  0  0  0  0  0  0  0  0  0
    4.6251   -3.7894    1.0834 H   0  0  0  0  0  0  0  0  0  0  0  0
    2.6548   -1.4554    0.6228 H   0  0  0  0  0  0  0  0  0  0  0  0
    4.0721   -1.7929   -0.3801 H   0  0  0  0  0  0  0  0  0  0  0  0
    5.3733   -1.4932    1.7171 H   0  0  0  0  0  0  0  0  0  0  0  0
    3.5387    0.7248    1.1498 H   0  0  0  0  0  0  0  0  0  0  0  0
    5.0656    0.4964    0.2960 H   0  0  0  0  0  0  0  0  0  0  0  0
    4.6764    0.9263    3.3068 H   0  0  0  0  0  0  0  0  0  0  0  0
    6.8247   -0.3427    2.7518 H   0  0  0  0  0  0  0  0  0  0  0  0
    7.0365    1.1804    3.6090 H   0  0  0  0  0  0  0  0  0  0  0  0
    7.4647    0.7545    0.5910 H   0  0  0  0  0  0  0  0  0  0  0  0
    8.7193    1.0469    1.8107 H   0  0  0  0  0  0  0  0  0  0  0  0
   10.3292    5.1271    0.1595 H   0  0  0  0  0  0  0  0  0  0  0  0
   10.2631    7.6827    0.1756 H   0  0  0  0  0  0  0  0  0  0  0  0
    8.0756   11.6211    1.8076 H   0  0  0  0  0  0  0  0  0  0  0  0
    7.3859   11.4593    3.4647 H   0  0  0  0  0  0  0  0  0  0  0  0
    6.2963   11.4727    2.0597 H   0  0  0  0  0  0  0  0  0  0  0  0
    5.0068    7.4054    4.2038 H   0  0  0  0  0  0  0  0  0  0  0  0
    6.1675    6.0286    4.2781 H   0  0  0  0  0  0  0  0  0  0  0  0
    5.0212    6.1477    2.9211 H   0  0  0  0  0  0  0  0  0  0  0  0
    5.9093    2.7031    0.0674 H   0  0  0  0  0  0  0  0  0  0  0  0
    6.1447    4.2187    0.9601 H   0  0  0  0  0  0  0  0  0  0  0  0
    4.1601    2.9539    1.8179 H   0  0  0  0  0  0  0  0  0  0  0  0
    5.4078    3.2037    3.0535 H   0  0  0  0  0  0  0  0  0  0  0  0
  1  2  1  0
  1 27  1  0
  1 28  1  0
  1 29  1  0
  2  3  1  0
  2 30  1  0
  2 31  1  0
  3  4  1  0
  3 32  1  0
  4  5  1  0
  4 33  1  0
  4 34  1  0
  5  6  1  0
  5 26  1  0
  5 35  1  1
  6  7  1  0
  6 36  1  0
  6 37  1  0
  7  8  1  0
  7 38  1  0
  7 39  1  0
  8  9  1  0
  8 25  1  0
  9 10  2  0
  9 11  1  0
 11 12  2  0
 11 24  1  0
 12 13  1  0
 12 40  1  0
 13 14  2  0
 13 41  1  0
 14 15  1  0
 14 23  1  0
 15 16  2  0
 15 17  1  0
 17 18  1  0
 17 19  1  0
 18 42  1  0
 18 43  1  0
 18 44  1  0
 19 20  2  0
 19 21  1  0
 21 22  1  0
 21 23  1  0
 22 45  1  0
 22 46  1  0
 22 47  1  0
 23 24  2  0
 25 26  1  0
 25 48  1  0
 25 49  1  0
 26 50  1  0
 26 51  1  0
M  END

