
     RDKit          3D

 56 59  0  0  0  0  0  0  0  0999 V2000
    0.1682    1.9084   -4.7554 C   0  0  0  0  0  0  0  0  0  0  0  0
   -0.3022    0.6037   -5.4233 C   0  0  1  0  0  0  0  0  0  0  0  0
   -1.7159    0.2722   -4.8912 C   0  0  0  0  0  0  0  0  0  0  0  0
   -0.3729    0.8416   -6.9497 C   0  0  0  0  0  0  0  0  0  0  0  0
    0.6470   -0.5734   -5.1285 C   0  0  0  0  0  0  0  0  0  0  0  0
    1.8047   -0.4536   -4.3434 C   0  0  0  0  0  0  0  0  0  0  0  0
    2.6355   -1.5446   -4.0840 C   0  0  0  0  0  0  0  0  0  0  0  0
    2.3560   -2.8165   -4.6139 C   0  0  0  0  0  0  0  0  0  0  0  0
    3.2483   -3.8638   -4.3650 N   0  0  0  0  0  0  0  0  0  0  0  0
    3.0412   -5.2406   -4.3626 C   0  0  0  0  0  0  0  0  0  0  0  0
    4.1586   -6.0940   -4.4815 C   0  0  0  0  0  0  0  0  0  0  0  0
    4.0161   -7.4767   -4.4434 C   0  0  0  0  0  0  0  0  0  0  0  0
    2.7541   -8.0863   -4.3001 C   0  0  0  0  0  0  0  0  0  0  0  0
    2.6010   -9.5614   -4.2752 C   0  0  0  0  0  0  0  0  0  0  0  0
    3.5885  -10.3945   -3.7141 C   0  0  0  0  0  0  0  0  0  0  0  0
    3.4441  -11.7803   -3.6913 C   0  0  0  0  0  0  0  0  0  0  0  0
    2.3037  -12.4078   -4.2270 C   0  0  0  0  0  0  0  0  0  0  0  0
    2.1494  -13.8860   -4.2021 C   0  0  0  0  0  0  0  0  0  0  0  0
    2.6164  -14.6475   -3.1130 C   0  0  0  0  0  0  0  0  0  0  0  0
    2.4719  -16.0361   -3.0894 C   0  0  0  0  0  0  0  0  0  0  0  0
    1.8557  -16.6996   -4.1546 C   0  0  0  0  0  0  0  0  0  0  0  0
    1.3861  -15.9590   -5.2436 C   0  0  0  0  0  0  0  0  0  0  0  0
    1.5315  -14.5705   -5.2667 C   0  0  0  0  0  0  0  0  0  0  0  0
    1.3157  -11.5766   -4.7874 C   0  0  0  0  0  0  0  0  0  0  0  0
    1.4609  -10.1909   -4.8117 C   0  0  0  0  0  0  0  0  0  0  0  0
    1.6461   -7.2268   -4.1769 C   0  0  0  0  0  0  0  0  0  0  0  0
    1.7758   -5.8398   -4.1990 C   0  0  0  0  0  0  0  0  0  0  0  0
    1.2086   -2.9478   -5.4200 C   0  0  0  0  0  0  0  0  0  0  0  0
    0.3820   -1.8507   -5.6561 C   0  0  0  0  0  0  0  0  0  0  0  0
   -0.5359    2.7227   -4.9887 H   0  0  0  0  0  0  0  0  0  0  0  0
    1.1621    2.2190   -5.1145 H   0  0  0  0  0  0  0  0  0  0  0  0
    0.2139    1.8157   -3.6589 H   0  0  0  0  0  0  0  0  0  0  0  0
   -2.4121    1.1021   -5.0979 H   0  0  0  0  0  0  0  0  0  0  0  0
   -1.6984    0.1051   -3.8024 H   0  0  0  0  0  0  0  0  0  0  0  0
   -2.1290   -0.6333   -5.3614 H   0  0  0  0  0  0  0  0  0  0  0  0
   -1.0532    1.6784   -7.1800 H   0  0  0  0  0  0  0  0  0  0  0  0
   -0.7432   -0.0450   -7.4867 H   0  0  0  0  0  0  0  0  0  0  0  0
    0.6206    1.0881   -7.3569 H   0  0  0  0  0  0  0  0  0  0  0  0
    2.0767    0.5070   -3.9050 H   0  0  0  0  0  0  0  0  0  0  0  0
    3.5193   -1.4098   -3.4530 H   0  0  0  0  0  0  0  0  0  0  0  0
    4.1906   -3.5739   -4.1339 H   0  0  0  0  0  0  0  0  0  0  0  0
    5.1519   -5.6570   -4.6210 H   0  0  0  0  0  0  0  0  0  0  0  0
    4.9062   -8.0986   -4.5640 H   0  0  0  0  0  0  0  0  0  0  0  0
    4.4815   -9.9486   -3.2702 H   0  0  0  0  0  0  0  0  0  0  0  0
    4.2423  -12.3896   -3.2610 H   0  0  0  0  0  0  0  0  0  0  0  0
    3.0770  -14.1417   -2.2612 H   0  0  0  0  0  0  0  0  0  0  0  0
    2.8356  -16.6027   -2.2280 H   0  0  0  0  0  0  0  0  0  0  0  0
    1.7422  -17.7865   -4.1363 H   0  0  0  0  0  0  0  0  0  0  0  0
    0.9101  -16.4666   -6.0868 H   0  0  0  0  0  0  0  0  0  0  0  0
    1.1824  -14.0092   -6.1365 H   0  0  0  0  0  0  0  0  0  0  0  0
    0.4074  -12.0219   -5.2000 H   0  0  0  0  0  0  0  0  0  0  0  0
    0.6780   -9.5848   -5.2734 H   0  0  0  0  0  0  0  0  0  0  0  0
    0.6519   -7.6519   -4.0196 H   0  0  0  0  0  0  0  0  0  0  0  0
    0.8919   -5.2190   -4.0527 H   0  0  0  0  0  0  0  0  0  0  0  0
    0.9734   -3.9043   -5.8871 H   0  0  0  0  0  0  0  0  0  0  0  0
   -0.4946   -2.0042   -6.2905 H   0  0  0  0  0  0  0  0  0  0  0  0
  2  1  1  1
  1 30  1  0
  1 31  1  0
  1 32  1  0
  2  3  1  0
  2  4  1  0
  2  5  1  0
  3 33  1  0
  3 34  1  0
  3 35  1  0
  4 36  1  0
  4 37  1  0
  4 38  1  0
  5  6  2  0
  5 29  1  0
  6  7  1  0
  6 39  1  0
  7  8  2  0
  7 40  1  0
  8  9  1  0
  8 28  1  0
  9 10  1  0
  9 41  1  0
 10 11  2  0
 10 27  1  0
 11 12  1  0
 11 42  1  0
 12 13  2  0
 12 43  1  0
 13 14  1  0
 13 26  1  0
 14 15  2  0
 14 25  1  0
 15 16  1  0
 15 44  1  0
 16 17  2  0
 16 45  1  0
 17 18  1  0
 17 24  1  0
 18 19  2  0
 18 23  1  0
 19 20  1  0
 19 46  1  0
 20 21  2  0
 20 47  1  0
 21 22  1  0
 21 48  1  0
 22 23  2  0
 22 49  1  0
 23 50  1  0
 24 25  2  0
 24 51  1  0
 25 52  1  0
 26 27  2  0
 26 53  1  0
 27 54  1  0
 28 29  2  0
 28 55  1  0
 29 56  1  0
M  END

