
     RDKit          3D

 37 39  0  0  0  0  0  0  0  0999 V2000
    0.6081    0.0158    0.7190 Cl  0  0  0  0  0  0  0  0  0  0  0  0
    2.2151    0.0668   -0.1210 C   0  0  0  0  0  0  0  0  0  0  0  0
    3.1748   -1.0210    0.3720 C   0  0  1  0  0  0  0  0  0  0  0  0
    2.6728   -2.4550    0.1034 C   0  0  0  0  0  0  0  0  0  0  0  0
    2.8275   -2.8583   -1.3733 C   0  0  0  0  0  0  0  0  0  0  0  0
    4.1890   -2.7156   -1.8973 N   0  0  0  0  0  0  0  0  0  0  0  0
    5.1441   -3.7397   -1.4732 C   0  0  2  0  0  0  0  0  0  0  0  0
    6.5115   -3.6690   -2.2390 C   0  0  0  0  0  0  0  0  0  0  0  0
    6.7302   -5.1152   -2.7392 C   0  0  2  0  0  0  0  0  0  0  0  0
    5.7771   -5.3648   -3.9277 C   0  0  0  0  0  0  0  0  0  0  0  0
    4.3706   -5.3769   -3.2509 C   0  0  0  0  0  0  0  0  0  0  0  0
    4.6991   -5.2034   -1.7492 C   0  0  1  0  0  0  0  0  0  0  0  0
    6.0495   -5.9378   -1.6271 C   0  0  0  0  0  0  0  0  0  0  0  0
    4.6410   -1.3357   -1.7177 C   0  0  0  0  0  0  0  0  0  0  0  0
    4.5737   -0.8345   -0.2612 C   0  0  0  0  0  0  0  0  0  0  0  0
    2.6280    1.0654    0.0777 H   0  0  0  0  0  0  0  0  0  0  0  0
    1.9977   -0.0081   -1.1949 H   0  0  0  0  0  0  0  0  0  0  0  0
    3.2636   -0.8785    1.4626 H   0  0  0  0  0  0  0  0  0  0  0  0
    1.6199   -2.5475    0.4141 H   0  0  0  0  0  0  0  0  0  0  0  0
    3.2476   -3.1525    0.7361 H   0  0  0  0  0  0  0  0  0  0  0  0
    2.1663   -2.2299   -1.9980 H   0  0  0  0  0  0  0  0  0  0  0  0
    2.4810   -3.8909   -1.5198 H   0  0  0  0  0  0  0  0  0  0  0  0
    5.3553   -3.6746   -0.3832 H   0  0  0  0  0  0  0  0  0  0  0  0
    7.3283   -3.3461   -1.5745 H   0  0  0  0  0  0  0  0  0  0  0  0
    6.4647   -2.9600   -3.0790 H   0  0  0  0  0  0  0  0  0  0  0  0
    7.7823   -5.3568   -2.9526 H   0  0  0  0  0  0  0  0  0  0  0  0
    6.0001   -6.3307   -4.4089 H   0  0  0  0  0  0  0  0  0  0  0  0
    5.8701   -4.5860   -4.7008 H   0  0  0  0  0  0  0  0  0  0  0  0
    3.8473   -6.3304   -3.4244 H   0  0  0  0  0  0  0  0  0  0  0  0
    3.7271   -4.5668   -3.6199 H   0  0  0  0  0  0  0  0  0  0  0  0
    3.9104   -5.5612   -1.0714 H   0  0  0  0  0  0  0  0  0  0  0  0
    5.9783   -7.0134   -1.8561 H   0  0  0  0  0  0  0  0  0  0  0  0
    6.5227   -5.8204   -0.6384 H   0  0  0  0  0  0  0  0  0  0  0  0
    4.0149   -0.6900   -2.3611 H   0  0  0  0  0  0  0  0  0  0  0  0
    5.6687   -1.2330   -2.0954 H   0  0  0  0  0  0  0  0  0  0  0  0
    4.8819    0.2250   -0.2179 H   0  0  0  0  0  0  0  0  0  0  0  0
    5.3059   -1.3900    0.3491 H   0  0  0  0  0  0  0  0  0  0  0  0
  1  2  1  0
  2  3  1  0
  2 16  1  0
  2 17  1  0
  3  4  1  0
  3 15  1  0
  3 18  1  1
  4  5  1  0
  4 19  1  0
  4 20  1  0
  5  6  1  0
  5 21  1  0
  5 22  1  0
  6  7  1  0
  6 14  1  0
  7  8  1  0
  7 12  1  0
  7 23  1  1
  8  9  1  0
  8 24  1  0
  8 25  1  0
  9 10  1  0
  9 13  1  0
  9 26  1  6
 10 11  1  0
 10 27  1  0
 10 28  1  0
 11 12  1  0
 11 29  1  0
 11 30  1  0
 12 13  1  0
 12 31  1  1
 13 32  1  0
 13 33  1  0
 14 15  1  0
 14 34  1  0
 14 35  1  0
 15 36  1  0
 15 37  1  0
M  END

