
     RDKit          3D

 31 32  0  0  0  0  0  0  0  0999 V2000
    3.0318   -0.2338   -1.2722 N   0  0  0  0  0  0  0  0  0  0  0  0
    2.5362    0.2580   -0.2028 C   0  0  0  0  0  0  0  0  0  0  0  0
    1.5121    1.1876   -0.1090 N   0  0  0  0  0  0  0  0  0  0  0  0
    3.1589   -0.0857    1.1223 C   0  0  0  0  0  0  0  0  0  0  0  0
    3.5979    0.9656    1.9447 C   0  0  0  0  0  0  0  0  0  0  0  0
    4.2356    0.7313    3.1591 C   0  0  0  0  0  0  0  0  0  0  0  0
    4.4394   -0.5850    3.5862 C   0  0  0  0  0  0  0  0  0  0  0  0
    5.1135   -0.7495    4.7653 O   0  0  0  0  0  0  0  0  0  0  0  0
    5.0576   -1.9267    5.4792 C   0  0  0  0  0  0  0  0  0  0  0  0
    6.2615   -2.5671    5.7852 C   0  0  0  0  0  0  0  0  0  0  0  0
    6.2584   -3.7167    6.5778 C   0  0  0  0  0  0  0  0  0  0  0  0
    5.0454   -4.2230    7.0536 C   0  0  0  0  0  0  0  0  0  0  0  0
    5.0360   -5.6651    8.0416 Cl  0  0  0  0  0  0  0  0  0  0  0  0
    3.8382   -3.5848    6.7494 C   0  0  0  0  0  0  0  0  0  0  0  0
    3.8450   -2.4311    5.9643 C   0  0  0  0  0  0  0  0  0  0  0  0
    3.9939   -1.6497    2.7963 C   0  0  0  0  0  0  0  0  0  0  0  0
    3.3542   -1.4061    1.5750 C   0  0  0  0  0  0  0  0  0  0  0  0
    2.8759   -2.6165    0.7884 C   0  0  1  0  0  0  0  0  0  0  0  0
    1.6438   -2.4281    0.2819 F   0  0  0  0  0  0  0  0  0  0  0  0
    3.6935   -2.9422   -0.2159 F   0  0  0  0  0  0  0  0  0  0  0  0
    2.7955   -3.7045    1.5879 F   0  0  0  0  0  0  0  0  0  0  0  0
    2.5172    0.0785   -2.1037 H   0  0  0  0  0  0  0  0  0  0  0  0
    0.9768    1.3718   -0.9511 H   0  0  0  0  0  0  0  0  0  0  0  0
    0.9716    1.2113    0.7485 H   0  0  0  0  0  0  0  0  0  0  0  0
    3.4450    1.9929    1.6073 H   0  0  0  0  0  0  0  0  0  0  0  0
    4.5886    1.5521    3.7862 H   0  0  0  0  0  0  0  0  0  0  0  0
    7.1953   -2.1515    5.4022 H   0  0  0  0  0  0  0  0  0  0  0  0
    7.1928   -4.2232    6.8246 H   0  0  0  0  0  0  0  0  0  0  0  0
    2.8997   -3.9874    7.1340 H   0  0  0  0  0  0  0  0  0  0  0  0
    2.9095   -1.9184    5.7317 H   0  0  0  0  0  0  0  0  0  0  0  0
    4.1319   -2.6757    3.1335 H   0  0  0  0  0  0  0  0  0  0  0  0
  1  2  2  0
  1 22  1  0
  2  3  1  0
  2  4  1  0
  3 23  1  0
  3 24  1  0
  4  5  2  0
  4 17  1  0
  5  6  1  0
  5 25  1  0
  6  7  2  0
  6 26  1  0
  7  8  1  0
  7 16  1  0
  8  9  1  0
  9 10  2  0
  9 15  1  0
 10 11  1  0
 10 27  1  0
 11 12  2  0
 11 28  1  0
 12 13  1  0
 12 14  1  0
 14 15  2  0
 14 29  1  0
 15 30  1  0
 16 17  2  0
 16 31  1  0
 17 18  1  0
 18 19  1  6
 18 20  1  0
 18 21  1  0
M  END

