
     RDKit          3D

 44 45  0  0  0  0  0  0  0  0999 V2000
    0.8787   -0.2450    0.8861 C   0  0  0  0  0  0  0  0  0  0  0  0
    2.3107   -0.1152    0.4265 C   0  0  0  0  0  0  0  0  0  0  0  0
    3.0520    1.0531    0.6469 C   0  0  0  0  0  0  0  0  0  0  0  0
    4.3844    1.1502    0.2361 C   0  0  0  0  0  0  0  0  0  0  0  0
    5.0391    0.0955   -0.4126 C   0  0  0  0  0  0  0  0  0  0  0  0
    6.5002    0.1841   -0.8639 C   0  0  0  0  0  0  0  0  0  0  0  0
    7.1883    1.4255   -0.6585 N   0  0  0  0  0  0  0  0  0  0  0  0
    6.9793    2.5610   -1.5424 C   0  0  0  0  0  0  0  0  0  0  0  0
    7.8765    3.6454   -0.9348 C   0  0  0  0  0  0  0  0  0  0  0  0
    7.8009    3.3457    0.5713 C   0  0  0  0  0  0  0  0  0  0  0  0
    7.7420    1.8055    0.6404 C   0  0  2  0  0  0  0  0  0  0  0  0
    9.1185    1.1601    0.8877 C   0  0  0  0  0  0  0  0  0  0  0  0
    9.6090    1.4588    2.2227 N   0  0  0  0  0  0  0  0  0  0  0  0
   10.9022    0.8795    2.5898 C   0  0  1  0  0  0  0  0  0  0  0  0
   12.0512    1.5909    1.8674 C   0  0  0  0  0  0  0  0  0  0  0  0
   11.0735    0.9686    4.1074 C   0  0  0  0  0  0  0  0  0  0  0  0
    4.2818   -1.0690   -0.6260 C   0  0  0  0  0  0  0  0  0  0  0  0
    5.0210   -2.4495   -1.4318 Cl  0  0  0  0  0  0  0  0  0  0  0  0
    2.9512   -1.1814   -0.2228 C   0  0  0  0  0  0  0  0  0  0  0  0
    0.4360    0.7378    1.1062 H   0  0  0  0  0  0  0  0  0  0  0  0
    0.8086   -0.8524    1.8054 H   0  0  0  0  0  0  0  0  0  0  0  0
    0.2530   -0.7381    0.1255 H   0  0  0  0  0  0  0  0  0  0  0  0
    2.5814    1.9045    1.1463 H   0  0  0  0  0  0  0  0  0  0  0  0
    4.9348    2.0742    0.4184 H   0  0  0  0  0  0  0  0  0  0  0  0
    6.5397   -0.0759   -1.9374 H   0  0  0  0  0  0  0  0  0  0  0  0
    7.0563   -0.6304   -0.3662 H   0  0  0  0  0  0  0  0  0  0  0  0
    5.9215    2.9039   -1.5766 H   0  0  0  0  0  0  0  0  0  0  0  0
    7.2604    2.3125   -2.5829 H   0  0  0  0  0  0  0  0  0  0  0  0
    7.5490    4.6643   -1.1910 H   0  0  0  0  0  0  0  0  0  0  0  0
    8.9100    3.5277   -1.2997 H   0  0  0  0  0  0  0  0  0  0  0  0
    6.8764    3.7767    0.9913 H   0  0  0  0  0  0  0  0  0  0  0  0
    8.6441    3.7419    1.1545 H   0  0  0  0  0  0  0  0  0  0  0  0
    7.0760    1.4874    1.4700 H   0  0  0  0  0  0  0  0  0  0  0  0
    9.8241    1.5540    0.1379 H   0  0  0  0  0  0  0  0  0  0  0  0
    9.0418    0.0663    0.6895 H   0  0  0  0  0  0  0  0  0  0  0  0
    8.9099    1.1651    2.9053 H   0  0  0  0  0  0  0  0  0  0  0  0
   10.9455   -0.1987    2.3056 H   0  0  0  0  0  0  0  0  0  0  0  0
   12.0622    2.6613    2.1305 H   0  0  0  0  0  0  0  0  0  0  0  0
   11.9622    1.5114    0.7732 H   0  0  0  0  0  0  0  0  0  0  0  0
   13.0200    1.1494    2.1509 H   0  0  0  0  0  0  0  0  0  0  0  0
   11.0351    2.0199    4.4366 H   0  0  0  0  0  0  0  0  0  0  0  0
   12.0369    0.5399    4.4237 H   0  0  0  0  0  0  0  0  0  0  0  0
   10.2748    0.4178    4.6329 H   0  0  0  0  0  0  0  0  0  0  0  0
    2.4153   -2.1124   -0.4211 H   0  0  0  0  0  0  0  0  0  0  0  0
  1  2  1  0
  1 20  1  0
  1 21  1  0
  1 22  1  0
  2  3  2  0
  2 19  1  0
  3  4  1  0
  3 23  1  0
  4  5  2  0
  4 24  1  0
  5  6  1  0
  5 17  1  0
  6  7  1  0
  6 25  1  0
  6 26  1  0
  7  8  1  0
  7 11  1  0
  8  9  1  0
  8 27  1  0
  8 28  1  0
  9 10  1  0
  9 29  1  0
  9 30  1  0
 10 11  1  0
 10 31  1  0
 10 32  1  0
 11 12  1  0
 11 33  1  1
 12 13  1  0
 12 34  1  0
 12 35  1  0
 13 14  1  0
 13 36  1  0
 14 15  1  0
 14 16  1  0
 14 37  1  6
 15 38  1  0
 15 39  1  0
 15 40  1  0
 16 41  1  0
 16 42  1  0
 16 43  1  0
 17 18  1  0
 17 19  2  0
 19 44  1  0
M  END

