
     RDKit          3D

 34 36  0  0  0  0  0  0  0  0999 V2000
    6.0487   -0.5188    1.9178 S   0  0  0  0  0  0  0  0  0  0  0  0
    4.4753   -0.0531    1.0996 C   0  0  0  0  0  0  0  0  0  0  0  0
    3.2496   -0.8807    1.4711 C   0  0  2  0  0  0  0  0  0  0  0  0
    2.3839   -0.4514    0.9274 H   0  0  0  0  0  0  0  0  0  0  0  0
    2.9058   -1.0202    2.9562 C   0  0  0  0  0  0  0  0  0  0  0  0
    2.2214   -2.2654    2.9966 O   0  0  0  0  0  0  0  0  0  0  0  0
    2.7998   -3.1027    2.0168 C   0  0  2  0  0  0  0  0  0  0  0  0
    1.6093   -3.8290    1.3495 C   0  0  0  0  0  0  0  0  0  0  0  0
    1.9848   -4.7277    0.2797 N   0  0  0  0  0  0  0  0  0  0  0  0
    2.4159   -4.4392   -0.9749 C   0  0  0  0  0  0  0  0  0  0  0  0
    2.6732   -5.5510   -1.6353 N   0  0  0  0  0  0  0  0  0  0  0  0
    2.3795   -6.5171   -0.7229 C   0  0  0  0  0  0  0  0  0  0  0  0
    1.9596   -6.0682    0.4485 N   0  0  0  0  0  0  0  0  0  0  0  0
    3.8334   -4.0561    2.6094 C   0  0  0  0  0  0  0  0  0  0  0  0
    3.7238   -4.4625    3.9454 C   0  0  0  0  0  0  0  0  0  0  0  0
    4.6415   -5.3581    4.4980 C   0  0  0  0  0  0  0  0  0  0  0  0
    5.6764   -5.8565    3.7024 C   0  0  0  0  0  0  0  0  0  0  0  0
    6.8295   -6.9787    4.3859 Cl  0  0  0  0  0  0  0  0  0  0  0  0
    5.8006   -5.4657    2.3660 C   0  0  0  0  0  0  0  0  0  0  0  0
    4.8787   -4.5668    1.8268 C   0  0  0  0  0  0  0  0  0  0  0  0
    3.4256   -2.2402    1.0658 O   0  0  0  0  0  0  0  0  0  0  0  0
    6.0485   -1.8025    1.4926 H   0  0  0  0  0  0  0  0  0  0  0  0
    4.6059   -0.0769    0.0073 H   0  0  0  0  0  0  0  0  0  0  0  0
    4.2994    0.9977    1.3795 H   0  0  0  0  0  0  0  0  0  0  0  0
    2.2265   -0.2381    3.3237 H   0  0  0  0  0  0  0  0  0  0  0  0
    3.8213   -1.0427    3.5722 H   0  0  0  0  0  0  0  0  0  0  0  0
    0.9289   -3.0551    0.9645 H   0  0  0  0  0  0  0  0  0  0  0  0
    1.0784   -4.4251    2.1018 H   0  0  0  0  0  0  0  0  0  0  0  0
    2.5272   -3.4184   -1.3374 H   0  0  0  0  0  0  0  0  0  0  0  0
    2.4728   -7.5839   -0.9268 H   0  0  0  0  0  0  0  0  0  0  0  0
    2.9168   -4.0625    4.5621 H   0  0  0  0  0  0  0  0  0  0  0  0
    4.5598   -5.6696    5.5405 H   0  0  0  0  0  0  0  0  0  0  0  0
    6.6131   -5.8645    1.7566 H   0  0  0  0  0  0  0  0  0  0  0  0
    4.9772   -4.2593    0.7840 H   0  0  0  0  0  0  0  0  0  0  0  0
  1  2  1  0
  1 22  1  0
  2  3  1  0
  2 23  1  0
  2 24  1  0
  3  4  1  6
  3  5  1  0
  3 21  1  0
  5  6  1  0
  5 25  1  0
  5 26  1  0
  6  7  1  0
  7  8  1  6
  7 14  1  0
  7 21  1  0
  8  9  1  0
  8 27  1  0
  8 28  1  0
  9 10  1  0
  9 13  1  0
 10 11  2  0
 10 29  1  0
 11 12  1  0
 12 13  2  0
 12 30  1  0
 14 15  2  0
 14 20  1  0
 15 16  1  0
 15 31  1  0
 16 17  2  0
 16 32  1  0
 17 18  1  0
 17 19  1  0
 19 20  2  0
 19 33  1  0
 20 34  1  0
M  END

