
     RDKit          3D

 46 46  0  0  0  0  0  0  0  0999 V2000
    0.8975   -1.4555   -1.6806 C   0  0  0  0  0  0  0  0  0  0  0  0
    2.1025   -0.7527   -1.2735 N   0  0  0  0  0  0  0  0  0  0  0  0
    2.1760    0.5735   -1.8633 C   0  0  0  0  0  0  0  0  0  0  0  0
    2.3450   -0.7855    0.1615 C   0  0  0  0  0  0  0  0  0  0  0  0
    3.8210   -0.9731    0.5775 C   0  0  1  0  0  0  0  0  0  0  0  0
    4.4712   -2.1945   -0.1212 C   0  0  0  0  0  0  0  0  0  0  0  0
    5.8875   -1.7543   -0.5211 C   0  0  2  0  0  0  0  0  0  0  0  0
    6.8564   -1.9880    0.4803 O   0  0  0  0  0  0  0  0  0  0  0  0
    5.6866   -0.2630   -0.8094 C   0  0  0  0  0  0  0  0  0  0  0  0
    4.7408    0.1512    0.2421 N   0  0  0  0  0  0  0  0  0  0  0  0
    5.0434    1.2203    1.0297 C   0  0  0  0  0  0  0  0  0  0  0  0
    6.0332    1.9294    0.7971 O   0  0  0  0  0  0  0  0  0  0  0  0
    4.2069    1.5154    2.2718 C   0  0  1  0  0  0  0  0  0  0  0  0
    5.0845    1.3092    3.5284 C   0  0  0  0  0  0  0  0  0  0  0  0
    4.6414    0.8330    4.5425 O   0  0  0  0  0  0  0  0  0  0  0  0
    6.3539    1.7108    3.4251 O   0  0  0  0  0  0  0  0  0  0  0  0
    3.5397    2.9579    2.2693 C   0  0  1  0  0  0  0  0  0  0  0  0
    2.8260    3.1842    0.9244 C   0  0  0  0  0  0  0  0  0  0  0  0
    2.4955    2.9928    3.4024 C   0  0  0  0  0  0  0  0  0  0  0  0
    4.5613    4.0906    2.4865 C   0  0  0  0  0  0  0  0  0  0  0  0
    0.8380   -1.4871   -2.7802 H   0  0  0  0  0  0  0  0  0  0  0  0
   -0.0390   -0.9787   -1.3105 H   0  0  0  0  0  0  0  0  0  0  0  0
    0.9154   -2.4948   -1.3178 H   0  0  0  0  0  0  0  0  0  0  0  0
    2.1619    0.4979   -2.9624 H   0  0  0  0  0  0  0  0  0  0  0  0
    3.1064    1.0782   -1.5715 H   0  0  0  0  0  0  0  0  0  0  0  0
    1.3275    1.2287   -1.5606 H   0  0  0  0  0  0  0  0  0  0  0  0
    1.8130   -1.6541    0.5825 H   0  0  0  0  0  0  0  0  0  0  0  0
    1.9223    0.1029    0.6755 H   0  0  0  0  0  0  0  0  0  0  0  0
    3.8260   -1.1085    1.6702 H   0  0  0  0  0  0  0  0  0  0  0  0
    3.8910   -2.4246   -1.0271 H   0  0  0  0  0  0  0  0  0  0  0  0
    4.4974   -3.0848    0.5231 H   0  0  0  0  0  0  0  0  0  0  0  0
    6.2470   -2.2932   -1.4103 H   0  0  0  0  0  0  0  0  0  0  0  0
    6.6273   -1.4796    1.2707 H   0  0  0  0  0  0  0  0  0  0  0  0
    5.2428   -0.1081   -1.8074 H   0  0  0  0  0  0  0  0  0  0  0  0
    6.6092    0.3235   -0.7318 H   0  0  0  0  0  0  0  0  0  0  0  0
    3.3853    0.8001    2.3789 H   0  0  0  0  0  0  0  0  0  0  0  0
    6.5170    2.0213    2.5007 H   0  0  0  0  0  0  0  0  0  0  0  0
    2.0784    2.4017    0.7223 H   0  0  0  0  0  0  0  0  0  0  0  0
    3.5364    3.2120    0.0834 H   0  0  0  0  0  0  0  0  0  0  0  0
    2.2950    4.1493    0.9400 H   0  0  0  0  0  0  0  0  0  0  0  0
    1.7021    2.2447    3.2409 H   0  0  0  0  0  0  0  0  0  0  0  0
    2.0182    3.9850    3.4430 H   0  0  0  0  0  0  0  0  0  0  0  0
    2.9495    2.7885    4.3826 H   0  0  0  0  0  0  0  0  0  0  0  0
    5.3352    4.0913    1.7065 H   0  0  0  0  0  0  0  0  0  0  0  0
    5.0564    4.0174    3.4664 H   0  0  0  0  0  0  0  0  0  0  0  0
    4.0406    5.0610    2.4522 H   0  0  0  0  0  0  0  0  0  0  0  0
  1  2  1  0
  1 21  1  0
  1 22  1  0
  1 23  1  0
  2  3  1  0
  2  4  1  0
  3 24  1  0
  3 25  1  0
  3 26  1  0
  4  5  1  0
  4 27  1  0
  4 28  1  0
  5  6  1  0
  5 10  1  0
  5 29  1  1
  6  7  1  0
  6 30  1  0
  6 31  1  0
  7  8  1  0
  7  9  1  0
  7 32  1  6
  8 33  1  0
  9 10  1  0
  9 34  1  0
  9 35  1  0
 10 11  1  0
 11 12  2  0
 11 13  1  0
 13 14  1  0
 13 17  1  0
 13 36  1  1
 14 15  2  0
 14 16  1  0
 16 37  1  0
 17 18  1  6
 17 19  1  0
 17 20  1  0
 18 38  1  0
 18 39  1  0
 18 40  1  0
 19 41  1  0
 19 42  1  0
 19 43  1  0
 20 44  1  0
 20 45  1  0
 20 46  1  0
M  END

