
     RDKit          3D

 44 46  0  0  0  0  0  0  0  0999 V2000
    1.0155   -1.1074    0.3033 C   0  0  0  0  0  0  0  0  0  0  0  0
    2.4387   -0.5615    0.1137 C   0  0  1  0  0  0  0  0  0  0  0  0
    3.4570   -1.6721   -0.2273 C   0  0  0  0  0  0  0  0  0  0  0  0
    3.3275   -2.1893   -1.6701 C   0  0  0  0  0  0  0  0  0  0  0  0
    3.3908   -1.0622   -2.7150 C   0  0  2  0  0  0  0  0  0  0  0  0
    4.7493   -0.5296   -2.8107 N   0  0  0  0  0  0  0  0  0  0  0  0
    5.2480   -0.0385   -3.9957 C   0  0  0  0  0  0  0  0  0  0  0  0
    4.5863   -0.0011   -5.0244 O   0  0  0  0  0  0  0  0  0  0  0  0
    6.5615    0.3943   -3.9308 N   0  0  0  0  0  0  0  0  0  0  0  0
    7.2074    1.0385   -5.0651 C   0  0  2  0  0  0  0  0  0  0  0  0
    8.5484    0.3571   -5.4118 C   0  0  0  0  0  0  0  0  0  0  0  0
    9.5702    0.4222   -4.2591 C   0  0  0  0  0  0  0  0  0  0  0  0
    9.5793    1.7960   -3.6468 C   0  0  0  0  0  0  0  0  0  0  0  0
   10.4570    2.4519   -2.7415 C   0  0  0  0  0  0  0  0  0  0  0  0
   10.0459    3.6852   -2.4624 N   0  0  0  0  0  0  0  0  0  0  0  0
    8.9152    3.8374   -3.1725 N   0  0  0  0  0  0  0  0  0  0  0  0
    8.4102    4.7138   -3.1194 H   0  0  0  0  0  0  0  0  0  0  0  0
    8.5877    2.7345   -3.9004 C   0  0  0  0  0  0  0  0  0  0  0  0
    7.4192    2.5532   -4.8191 C   0  0  0  0  0  0  0  0  0  0  0  0
    2.3580    0.0345   -2.3826 C   0  0  0  0  0  0  0  0  0  0  0  0
    2.5113    0.5575   -0.9486 C   0  0  0  0  0  0  0  0  0  0  0  0
    0.9876   -1.8677    1.1009 H   0  0  0  0  0  0  0  0  0  0  0  0
    0.6144   -1.5757   -0.6096 H   0  0  0  0  0  0  0  0  0  0  0  0
    0.3207   -0.3006    0.5880 H   0  0  0  0  0  0  0  0  0  0  0  0
    2.7423   -0.1226    1.0810 H   0  0  0  0  0  0  0  0  0  0  0  0
    3.3546   -2.5121    0.4808 H   0  0  0  0  0  0  0  0  0  0  0  0
    4.4771   -1.2759   -0.0648 H   0  0  0  0  0  0  0  0  0  0  0  0
    2.3621   -2.7081   -1.7898 H   0  0  0  0  0  0  0  0  0  0  0  0
    4.1082   -2.9388   -1.8830 H   0  0  0  0  0  0  0  0  0  0  0  0
    3.1554   -1.4663   -3.7107 H   0  0  0  0  0  0  0  0  0  0  0  0
    5.3638   -0.6180   -2.0115 H   0  0  0  0  0  0  0  0  0  0  0  0
    6.9942    0.5099   -3.0214 H   0  0  0  0  0  0  0  0  0  0  0  0
    6.5063    0.9109   -5.9002 H   0  0  0  0  0  0  0  0  0  0  0  0
    8.9673    0.8595   -6.3010 H   0  0  0  0  0  0  0  0  0  0  0  0
    8.3576   -0.6899   -5.6935 H   0  0  0  0  0  0  0  0  0  0  0  0
   10.5721    0.1454   -4.6275 H   0  0  0  0  0  0  0  0  0  0  0  0
    9.3165   -0.3378   -3.4964 H   0  0  0  0  0  0  0  0  0  0  0  0
   11.3724    2.0714   -2.2868 H   0  0  0  0  0  0  0  0  0  0  0  0
    7.6067    3.0564   -5.7854 H   0  0  0  0  0  0  0  0  0  0  0  0
    6.4957    2.9940   -4.4084 H   0  0  0  0  0  0  0  0  0  0  0  0
    1.3475   -0.3844   -2.5312 H   0  0  0  0  0  0  0  0  0  0  0  0
    2.4626    0.8528   -3.1121 H   0  0  0  0  0  0  0  0  0  0  0  0
    1.7487    1.3267   -0.7390 H   0  0  0  0  0  0  0  0  0  0  0  0
    3.4888    1.0652   -0.8628 H   0  0  0  0  0  0  0  0  0  0  0  0
  1  2  1  0
  1 22  1  0
  1 23  1  0
  1 24  1  0
  2  3  1  0
  2 21  1  0
  2 25  1  1
  3  4  1  0
  3 26  1  0
  3 27  1  0
  4  5  1  0
  4 28  1  0
  4 29  1  0
  5  6  1  0
  5 20  1  0
  5 30  1  6
  6  7  1  0
  6 31  1  0
  7  8  2  0
  7  9  1  0
  9 10  1  0
  9 32  1  0
 10 11  1  0
 10 19  1  0
 10 33  1  6
 11 12  1  0
 11 34  1  0
 11 35  1  0
 12 13  1  0
 12 36  1  0
 12 37  1  0
 13 14  1  0
 13 18  2  0
 14 15  2  0
 14 38  1  0
 15 16  1  0
 16 17  1  0
 16 18  1  0
 18 19  1  0
 19 39  1  0
 19 40  1  0
 20 21  1  0
 20 41  1  0
 20 42  1  0
 21 43  1  0
 21 44  1  0
M  END

