
     RDKit          3D

 43 44  0  0  0  0  0  0  0  0999 V2000
    0.8031   -0.4335   -0.0052 C   0  0  0  0  0  0  0  0  0  0  0  0
    2.3302   -0.3510    0.0196 C   0  0  0  0  0  0  0  0  0  0  0  0
    2.8911    0.8846   -0.7181 C   0  0  1  0  0  0  0  0  0  0  0  0
    2.3784    2.1778   -0.2462 N   0  0  0  0  0  0  0  0  0  0  0  0
    2.6290    2.5257    1.1428 C   0  0  0  0  0  0  0  0  0  0  0  0
    2.2083    3.9462    1.4700 C   0  0  0  0  0  0  0  0  0  0  0  0
    1.7246    4.2669    2.7477 C   0  0  0  0  0  0  0  0  0  0  0  0
    1.3712    5.5771    3.0776 C   0  0  0  0  0  0  0  0  0  0  0  0
    1.4927    6.6029    2.1287 C   0  0  0  0  0  0  0  0  0  0  0  0
    0.9942    8.2800    2.5314 S   0  0  0  0  0  0  0  0  0  0  0  0
    2.5715    8.9625    3.1624 C   0  0  0  0  0  0  0  0  0  0  0  0
    1.9592    6.2865    0.8439 C   0  0  0  0  0  0  0  0  0  0  0  0
    2.3157    4.9753    0.5214 C   0  0  0  0  0  0  0  0  0  0  0  0
    4.4202    0.9287   -0.7959 C   0  0  0  0  0  0  0  0  0  0  0  0
    5.0279    1.9592   -1.5318 C   0  0  0  0  0  0  0  0  0  0  0  0
    6.4148    2.0418   -1.6560 C   0  0  0  0  0  0  0  0  0  0  0  0
    7.2577    1.0994   -1.0454 C   0  0  0  0  0  0  0  0  0  0  0  0
    8.7600    1.1854   -1.1670 C   0  0  0  0  0  0  0  0  0  0  0  0
    6.6516    0.0720   -0.3091 C   0  0  0  0  0  0  0  0  0  0  0  0
    5.2612   -0.0135   -0.1859 C   0  0  0  0  0  0  0  0  0  0  0  0
    0.4462   -1.3502    0.4897 H   0  0  0  0  0  0  0  0  0  0  0  0
    0.4177   -0.4444   -1.0391 H   0  0  0  0  0  0  0  0  0  0  0  0
    0.3353    0.4194    0.5131 H   0  0  0  0  0  0  0  0  0  0  0  0
    2.7474   -1.2562   -0.4523 H   0  0  0  0  0  0  0  0  0  0  0  0
    2.6842   -0.3633    1.0648 H   0  0  0  0  0  0  0  0  0  0  0  0
    2.5335    0.8083   -1.7624 H   0  0  0  0  0  0  0  0  0  0  0  0
    1.3892    2.2748   -0.4667 H   0  0  0  0  0  0  0  0  0  0  0  0
    3.7164    2.4272    1.3178 H   0  0  0  0  0  0  0  0  0  0  0  0
    2.1467    1.8438    1.8755 H   0  0  0  0  0  0  0  0  0  0  0  0
    1.6163    3.4766    3.4969 H   0  0  0  0  0  0  0  0  0  0  0  0
    0.9872    5.8112    4.0733 H   0  0  0  0  0  0  0  0  0  0  0  0
    2.3675   10.0070    3.4415 H   0  0  0  0  0  0  0  0  0  0  0  0
    3.3522    8.9438    2.3879 H   0  0  0  0  0  0  0  0  0  0  0  0
    2.9160    8.4141    4.0514 H   0  0  0  0  0  0  0  0  0  0  0  0
    2.0380    7.0784    0.0950 H   0  0  0  0  0  0  0  0  0  0  0  0
    2.6735    4.7314   -0.4806 H   0  0  0  0  0  0  0  0  0  0  0  0
    4.3938    2.7107   -2.0082 H   0  0  0  0  0  0  0  0  0  0  0  0
    6.8541    2.8555   -2.2407 H   0  0  0  0  0  0  0  0  0  0  0  0
    9.0657    2.0038   -1.8357 H   0  0  0  0  0  0  0  0  0  0  0  0
    9.1863    0.2489   -1.5635 H   0  0  0  0  0  0  0  0  0  0  0  0
    9.2325    1.3619   -0.1856 H   0  0  0  0  0  0  0  0  0  0  0  0
    7.2770   -0.6803    0.1815 H   0  0  0  0  0  0  0  0  0  0  0  0
    4.8410   -0.8339    0.3980 H   0  0  0  0  0  0  0  0  0  0  0  0
  1  2  1  0
  1 21  1  0
  1 22  1  0
  1 23  1  0
  2  3  1  0
  2 24  1  0
  2 25  1  0
  3  4  1  0
  3 14  1  0
  3 26  1  6
  4  5  1  0
  4 27  1  0
  5  6  1  0
  5 28  1  0
  5 29  1  0
  6  7  2  0
  6 13  1  0
  7  8  1  0
  7 30  1  0
  8  9  2  0
  8 31  1  0
  9 10  1  0
  9 12  1  0
 10 11  1  0
 11 32  1  0
 11 33  1  0
 11 34  1  0
 12 13  2  0
 12 35  1  0
 13 36  1  0
 14 15  2  0
 14 20  1  0
 15 16  1  0
 15 37  1  0
 16 17  2  0
 16 38  1  0
 17 18  1  0
 17 19  1  0
 18 39  1  0
 18 40  1  0
 18 41  1  0
 19 20  2  0
 19 42  1  0
 20 43  1  0
M  END

