
     RDKit          3D

 50 53  0  0  0  0  0  0  0  0999 V2000
    4.0816    0.1828    1.6079 C   0  0  0  0  0  0  0  0  0  0  0  0
    3.0610    0.2205    0.4595 C   0  0  0  0  0  0  0  0  0  0  0  0
    3.2825    1.3559   -0.5142 C   0  0  0  0  0  0  0  0  0  0  0  0
    2.5119    2.5127   -0.4869 C   0  0  0  0  0  0  0  0  0  0  0  0
    2.7154    3.5940   -1.3746 C   0  0  0  0  0  0  0  0  0  0  0  0
    1.9332    4.8213   -1.3872 C   0  0  0  0  0  0  0  0  0  0  0  0
    0.8283    4.9569   -0.3734 C   0  0  0  0  0  0  0  0  0  0  0  0
   -0.0525    6.5654   -0.4619 S   0  0  0  0  0  0  0  0  0  0  0  0
   -1.2920    6.2127    0.7218 C   0  0  0  0  0  0  0  0  0  0  0  0
   -1.5281    5.0606    1.3271 N   0  0  0  0  0  0  0  0  0  0  0  0
   -2.5788    5.2827    2.1498 N   0  0  0  0  0  0  0  0  0  0  0  0
   -2.9824    6.4977    2.0731 N   0  0  0  0  0  0  0  0  0  0  0  0
   -2.1823    7.1247    1.1790 N   0  0  0  0  0  0  0  0  0  0  0  0
   -2.3859    8.5283    0.8232 C   0  0  0  0  0  0  0  0  0  0  0  0
   -3.1743    8.7260   -0.4539 C   0  0  0  0  0  0  0  0  0  0  0  0
   -4.5047    8.2756   -0.5496 C   0  0  0  0  0  0  0  0  0  0  0  0
   -5.2365    8.4596   -1.7148 C   0  0  0  0  0  0  0  0  0  0  0  0
   -4.6578    9.1065   -2.8245 C   0  0  0  0  0  0  0  0  0  0  0  0
   -5.4500    9.2411   -3.9140 O   0  0  0  0  0  0  0  0  0  0  0  0
   -4.9403    9.8716   -5.0688 C   0  0  0  0  0  0  0  0  0  0  0  0
   -3.3338    9.5611   -2.7411 C   0  0  0  0  0  0  0  0  0  0  0  0
   -2.6075    9.3631   -1.5605 C   0  0  0  0  0  0  0  0  0  0  0  0
    2.2315    5.7805   -2.3056 C   0  0  0  0  0  0  0  0  0  0  0  0
    3.3055    5.6407   -3.2824 C   0  0  0  0  0  0  0  0  0  0  0  0
    3.6184    6.4487   -4.1160 O   0  0  0  0  0  0  0  0  0  0  0  0
    4.0221    4.4496   -3.2216 O   0  0  0  0  0  0  0  0  0  0  0  0
    3.7510    3.4706   -2.3240 C   0  0  0  0  0  0  0  0  0  0  0  0
    4.5451    2.3224   -2.3800 C   0  0  0  0  0  0  0  0  0  0  0  0
    4.3159    1.2773   -1.4844 C   0  0  0  0  0  0  0  0  0  0  0  0
    5.0583    0.1443   -1.5018 O   0  0  0  0  0  0  0  0  0  0  0  0
    3.8752   -0.6613    2.2853 H   0  0  0  0  0  0  0  0  0  0  0  0
    4.0470    1.1099    2.2022 H   0  0  0  0  0  0  0  0  0  0  0  0
    5.1054    0.0638    1.2222 H   0  0  0  0  0  0  0  0  0  0  0  0
    2.0433    0.3042    0.8739 H   0  0  0  0  0  0  0  0  0  0  0  0
    3.1020   -0.7355   -0.0878 H   0  0  0  0  0  0  0  0  0  0  0  0
    1.7123    2.5739    0.2545 H   0  0  0  0  0  0  0  0  0  0  0  0
    1.2260    4.8439    0.6464 H   0  0  0  0  0  0  0  0  0  0  0  0
    0.0786    4.1622   -0.5022 H   0  0  0  0  0  0  0  0  0  0  0  0
   -1.3952    9.0013    0.7456 H   0  0  0  0  0  0  0  0  0  0  0  0
   -2.9034    8.9686    1.6880 H   0  0  0  0  0  0  0  0  0  0  0  0
   -4.9665    7.7683    0.3021 H   0  0  0  0  0  0  0  0  0  0  0  0
   -6.2684    8.1130   -1.7985 H   0  0  0  0  0  0  0  0  0  0  0  0
   -5.7488    9.8632   -5.8118 H   0  0  0  0  0  0  0  0  0  0  0  0
   -4.0695    9.3311   -5.4812 H   0  0  0  0  0  0  0  0  0  0  0  0
   -4.6482   10.9185   -4.8699 H   0  0  0  0  0  0  0  0  0  0  0  0
   -2.8558   10.0629   -3.5823 H   0  0  0  0  0  0  0  0  0  0  0  0
   -1.5745    9.7197   -1.5122 H   0  0  0  0  0  0  0  0  0  0  0  0
    1.6832    6.7204   -2.3751 H   0  0  0  0  0  0  0  0  0  0  0  0
    5.3353    2.2678   -3.1326 H   0  0  0  0  0  0  0  0  0  0  0  0
    5.7189    0.1920   -2.2059 H   0  0  0  0  0  0  0  0  0  0  0  0
  1  2  1  0
  1 31  1  0
  1 32  1  0
  1 33  1  0
  2  3  1  0
  2 34  1  0
  2 35  1  0
  3  4  2  0
  3 29  1  0
  4  5  1  0
  4 36  1  0
  5  6  1  0
  5 27  2  0
  6  7  1  0
  6 23  2  0
  7  8  1  0
  7 37  1  0
  7 38  1  0
  8  9  1  0
  9 10  2  0
  9 13  1  0
 10 11  1  0
 11 12  2  0
 12 13  1  0
 13 14  1  0
 14 15  1  0
 14 39  1  0
 14 40  1  0
 15 16  2  0
 15 22  1  0
 16 17  1  0
 16 41  1  0
 17 18  2  0
 17 42  1  0
 18 19  1  0
 18 21  1  0
 19 20  1  0
 20 43  1  0
 20 44  1  0
 20 45  1  0
 21 22  2  0
 21 46  1  0
 22 47  1  0
 23 24  1  0
 23 48  1  0
 24 25  2  0
 24 26  1  0
 26 27  1  0
 27 28  1  0
 28 29  2  0
 28 49  1  0
 29 30  1  0
 30 50  1  0
M  END

