
     RDKit          3D

 37 40  0  0  0  0  0  0  0  0999 V2000
    4.8631   -0.3923    1.1622 C   0  0  0  0  0  0  0  0  0  0  0  0
    5.0072   -0.4962   -0.2510 O   0  0  0  0  0  0  0  0  0  0  0  0
    4.0927   -1.2345   -0.9362 C   0  0  0  0  0  0  0  0  0  0  0  0
    3.2765   -0.6045   -1.8734 C   0  0  0  0  0  0  0  0  0  0  0  0
    2.3528   -1.3347   -2.6378 C   0  0  0  0  0  0  0  0  0  0  0  0
    1.4862   -0.6506   -3.6269 C   0  0  0  0  0  0  0  0  0  0  0  0
    0.6559   -1.2046   -4.3109 O   0  0  0  0  0  0  0  0  0  0  0  0
    2.2540   -2.7186   -2.4620 C   0  0  0  0  0  0  0  0  0  0  0  0
    3.0755   -3.3873   -1.5436 C   0  0  0  0  0  0  0  0  0  0  0  0
    2.9663   -4.8413   -1.3713 C   0  0  0  0  0  0  0  0  0  0  0  0
    1.7226   -5.4772   -1.3393 N   0  0  0  0  0  0  0  0  0  0  0  0
    0.8264   -5.0055   -1.3239 H   0  0  0  0  0  0  0  0  0  0  0  0
    1.8244   -6.8662   -1.1813 C   0  0  0  0  0  0  0  0  0  0  0  0
    0.9318   -7.6681   -1.1008 O   0  0  0  0  0  0  0  0  0  0  0  0
    3.2192   -7.0577   -1.1316 N   0  0  0  0  0  0  0  0  0  0  0  0
    3.9076   -5.8366   -1.2542 C   0  0  0  0  0  0  0  0  0  0  0  0
    5.3331   -6.1413   -1.3239 C   0  0  0  0  0  0  0  0  0  0  0  0
    6.4835   -5.3562   -1.4699 C   0  0  0  0  0  0  0  0  0  0  0  0
    7.7245   -6.0027   -1.5093 C   0  0  0  0  0  0  0  0  0  0  0  0
    7.8318   -7.3985   -1.4070 C   0  0  0  0  0  0  0  0  0  0  0  0
    6.6852   -8.1872   -1.2645 C   0  0  0  0  0  0  0  0  0  0  0  0
    5.4488   -7.5496   -1.2259 C   0  0  0  0  0  0  0  0  0  0  0  0
    4.0985   -8.1774   -1.1057 C   0  0  0  0  0  0  0  0  0  0  0  0
    3.7882   -9.3356   -1.0150 O   0  0  0  0  0  0  0  0  0  0  0  0
    3.9951   -2.6370   -0.7657 C   0  0  0  0  0  0  0  0  0  0  0  0
    4.8012   -3.2086    0.1528 O   0  0  0  0  0  0  0  0  0  0  0  0
    5.6366    0.3102    1.5011 H   0  0  0  0  0  0  0  0  0  0  0  0
    5.0088   -1.3617    1.6625 H   0  0  0  0  0  0  0  0  0  0  0  0
    3.8706    0.0129    1.4291 H   0  0  0  0  0  0  0  0  0  0  0  0
    3.3781    0.4770   -1.9956 H   0  0  0  0  0  0  0  0  0  0  0  0
    1.6538    0.4554   -3.7039 H   0  0  0  0  0  0  0  0  0  0  0  0
    1.5413   -3.2682   -3.0809 H   0  0  0  0  0  0  0  0  0  0  0  0
    6.4279   -4.2699   -1.5430 H   0  0  0  0  0  0  0  0  0  0  0  0
    8.6308   -5.4029   -1.6240 H   0  0  0  0  0  0  0  0  0  0  0  0
    8.8172   -7.8687   -1.4425 H   0  0  0  0  0  0  0  0  0  0  0  0
    6.7401   -9.2757   -1.1888 H   0  0  0  0  0  0  0  0  0  0  0  0
    4.5625   -4.1450    0.2636 H   0  0  0  0  0  0  0  0  0  0  0  0
  1  2  1  0
  1 27  1  0
  1 28  1  0
  1 29  1  0
  2  3  1  0
  3  4  2  0
  3 25  1  0
  4  5  1  0
  4 30  1  0
  5  6  1  0
  5  8  2  0
  6  7  2  0
  6 31  1  0
  8  9  1  0
  8 32  1  0
  9 10  1  0
  9 25  2  0
 10 11  1  0
 10 16  2  0
 11 12  1  0
 11 13  1  0
 13 14  2  0
 13 15  1  0
 15 16  1  0
 15 23  1  0
 16 17  1  0
 17 18  2  0
 17 22  1  0
 18 19  1  0
 18 33  1  0
 19 20  2  0
 19 34  1  0
 20 21  1  0
 20 35  1  0
 21 22  2  0
 21 36  1  0
 22 23  1  0
 23 24  2  0
 25 26  1  0
 26 37  1  0
M  END

