
     RDKit          3D

 36 37  0  0  0  0  0  0  0  0999 V2000
    0.9715    0.3603    0.0960 C   0  0  0  0  0  0  0  0  0  0  0  0
    2.5626   -0.4322    0.4174 S   0  0  1  0  0  0  0  0  0  0  0  0
    2.3275   -1.5240    1.3745 O   0  0  0  0  0  0  0  0  0  0  0  0
    3.2009   -0.6910   -0.8793 O   0  0  0  0  0  0  0  0  0  0  0  0
    3.5354    0.8436    1.2812 C   0  0  0  0  0  0  0  0  0  0  0  0
    4.9346    0.3077    1.5726 C   0  0  0  0  0  0  0  0  0  0  0  0
    5.7391    1.2248    2.5098 C   0  0  1  0  0  0  0  0  0  0  0  0
    5.2314    1.3271    3.8781 N   0  0  0  0  0  0  0  0  0  0  0  0
    7.2355    0.8087    2.4840 C   0  0  0  0  0  0  0  0  0  0  0  0
    7.7608    0.4283    1.4509 O   0  0  0  0  0  0  0  0  0  0  0  0
    7.8537    0.9637    3.6880 N   0  0  0  0  0  0  0  0  0  0  0  0
    9.1996    0.7420    4.0323 C   0  0  0  0  0  0  0  0  0  0  0  0
    9.5697    1.0003    5.3772 C   0  0  0  0  0  0  0  0  0  0  0  0
   10.8731    0.8121    5.8162 C   0  0  0  0  0  0  0  0  0  0  0  0
   11.8321    0.3573    4.9014 C   0  0  0  0  0  0  0  0  0  0  0  0
   13.5309    0.0404    5.1942 S   0  0  0  0  0  0  0  0  0  0  0  0
   13.7575   -0.4376    3.5297 C   0  0  0  0  0  0  0  0  0  0  0  0
   12.6170   -0.3642    2.7881 C   0  0  0  0  0  0  0  0  0  0  0  0
   11.4814    0.0930    3.5515 C   0  0  0  0  0  0  0  0  0  0  0  0
   10.1550    0.2883    3.1189 C   0  0  0  0  0  0  0  0  0  0  0  0
    0.3760   -0.4083   -0.4158 H   0  0  0  0  0  0  0  0  0  0  0  0
    1.1190    1.2274   -0.5611 H   0  0  0  0  0  0  0  0  0  0  0  0
    0.4980    0.6381    1.0468 H   0  0  0  0  0  0  0  0  0  0  0  0
    2.9784    1.0722    2.2034 H   0  0  0  0  0  0  0  0  0  0  0  0
    3.5569    1.7330    0.6319 H   0  0  0  0  0  0  0  0  0  0  0  0
    5.4924    0.1769    0.6356 H   0  0  0  0  0  0  0  0  0  0  0  0
    4.8485   -0.6907    2.0353 H   0  0  0  0  0  0  0  0  0  0  0  0
    5.7373    2.2460    2.0856 H   0  0  0  0  0  0  0  0  0  0  0  0
    4.8703    0.4311    4.2092 H   0  0  0  0  0  0  0  0  0  0  0  0
    4.4841    2.0118    3.9676 H   0  0  0  0  0  0  0  0  0  0  0  0
    7.2172    1.2895    4.4159 H   0  0  0  0  0  0  0  0  0  0  0  0
    8.8110    1.3550    6.0805 H   0  0  0  0  0  0  0  0  0  0  0  0
   11.1374    1.0169    6.8561 H   0  0  0  0  0  0  0  0  0  0  0  0
   14.7465   -0.7514    3.1966 H   0  0  0  0  0  0  0  0  0  0  0  0
   12.5664   -0.6239    1.7296 H   0  0  0  0  0  0  0  0  0  0  0  0
    9.8648    0.0916    2.0889 H   0  0  0  0  0  0  0  0  0  0  0  0
  2  1  1  6
  1 21  1  0
  1 22  1  0
  1 23  1  0
  2  3  2  0
  2  4  2  0
  2  5  1  0
  5  6  1  0
  5 24  1  0
  5 25  1  0
  6  7  1  0
  6 26  1  0
  6 27  1  0
  7  8  1  0
  7  9  1  0
  7 28  1  6
  8 29  1  0
  8 30  1  0
  9 10  2  0
  9 11  1  0
 11 12  1  0
 11 31  1  0
 12 13  2  0
 12 20  1  0
 13 14  1  0
 13 32  1  0
 14 15  2  0
 14 33  1  0
 15 16  1  0
 15 19  1  0
 16 17  1  0
 17 18  2  0
 17 34  1  0
 18 19  1  0
 18 35  1  0
 19 20  2  0
 20 36  1  0
M  END

