
     RDKit          3D

 27 28  0  0  0  0  0  0  0  0999 V2000
    0.8788    0.0081    0.2300 C   0  0  0  0  0  0  0  0  0  0  0  0
    2.3789    0.0593    0.1041 C   0  0  0  0  0  0  0  0  0  0  0  0
    3.1027    1.2656   -0.0361 C   0  0  0  0  0  0  0  0  0  0  0  0
    2.4255    2.5758   -0.1211 N   0  0  0  0  0  0  0  0  0  0  0  0
    1.2927    2.6095   -0.5753 O   0  0  0  0  0  0  0  0  0  0  0  0
    3.0556    3.5535    0.2498 O   0  0  0  0  0  0  0  0  0  0  0  0
    4.4932    1.3087   -0.1053 C   0  0  0  0  0  0  0  0  0  0  0  0
    5.2401    0.1353   -0.0797 C   0  0  0  0  0  0  0  0  0  0  0  0
    6.7365    0.1433   -0.0767 C   0  0  1  0  0  0  0  0  0  0  0  0
    7.5868   -0.4274   -1.1804 C   0  0  1  0  0  0  0  0  0  0  0  0
    9.0143   -1.3599   -0.7299 Cl  0  0  0  0  0  0  0  0  0  0  0  0
    6.8208   -0.9971   -2.6564 Cl  0  0  0  0  0  0  0  0  0  0  0  0
    7.6008    1.1008   -0.9409 C   0  0  1  0  0  0  0  0  0  0  0  0
    6.9886    1.9494   -1.9464 C   0  0  0  0  0  0  0  0  0  0  0  0
    6.5317    2.6551   -2.7430 N   0  0  0  0  0  0  0  0  0  0  0  0
    8.7656    1.6932   -0.3083 C   0  0  0  0  0  0  0  0  0  0  0  0
    9.6854    2.1778    0.2022 N   0  0  0  0  0  0  0  0  0  0  0  0
    4.5647   -1.0991    0.0543 C   0  0  0  0  0  0  0  0  0  0  0  0
    5.2122   -2.2744    0.1250 O   0  0  0  0  0  0  0  0  0  0  0  0
    3.1561   -1.1148    0.1415 C   0  0  0  0  0  0  0  0  0  0  0  0
    2.3417   -2.8291    0.3062 Br  0  0  0  0  0  0  0  0  0  0  0  0
    0.4881    0.8777    0.7702 H   0  0  0  0  0  0  0  0  0  0  0  0
    0.5682   -0.9116    0.7384 H   0  0  0  0  0  0  0  0  0  0  0  0
    0.4103    0.0265   -0.7671 H   0  0  0  0  0  0  0  0  0  0  0  0
    4.9705    2.2846   -0.1779 H   0  0  0  0  0  0  0  0  0  0  0  0
    7.1952   -0.0025    0.9103 H   0  0  0  0  0  0  0  0  0  0  0  0
    6.1598   -2.1721   -0.0351 H   0  0  0  0  0  0  0  0  0  0  0  0
  1  2  1  0
  1 22  1  0
  1 23  1  0
  1 24  1  0
  2  3  2  0
  2 20  1  0
  3  4  1  0
  3  7  1  0
  4  5  2  0
  4  6  1  0
  7  8  2  0
  7 25  1  0
  8  9  1  0
  8 18  1  0
  9 10  1  0
  9 13  1  0
  9 26  1  1
 10 11  1  1
 10 12  1  0
 10 13  1  0
 13 14  1  6
 13 16  1  0
 14 15  3  0
 16 17  3  0
 18 19  1  0
 18 20  2  0
 19 27  1  0
 20 21  1  0
M  CHG  2   4   1   6  -1
M  END

