
     RDKit          3D

 47 47  0  0  0  0  0  0  0  0999 V2000
    1.0018   -0.0051    0.2130 C   0  0  0  0  0  0  0  0  0  0  0  0
    2.4156    0.2496   -0.0420 N   0  0  0  0  0  0  0  0  0  0  0  0
    2.7105    0.0665   -1.4695 C   0  0  0  0  0  0  0  0  0  0  0  0
    2.5641   -1.3575   -1.9324 C   0  0  0  0  0  0  0  0  0  0  0  0
    1.8943   -1.8470   -3.0823 C   0  0  0  0  0  0  0  0  0  0  0  0
    2.0134   -3.1672   -3.2061 N   0  0  0  0  0  0  0  0  0  0  0  0
    2.7505   -3.5502   -2.1553 N   0  0  0  0  0  0  0  0  0  0  0  0
    3.0328   -4.9555   -1.9515 C   0  0  0  0  0  0  0  0  0  0  0  0
    3.1032   -2.5029   -1.3600 C   0  0  0  0  0  0  0  0  0  0  0  0
    2.8876    1.5326    0.5247 C   0  0  1  0  0  0  0  0  0  0  0  0
    2.6221    1.5699    2.0403 C   0  0  0  0  0  0  0  0  0  0  0  0
    3.4295    0.5605    2.7288 N   0  0  0  0  0  0  0  0  0  0  0  0
    4.3906    1.7561    0.2186 C   0  0  0  0  0  0  0  0  0  0  0  0
    5.0341    2.9402    0.9506 C   0  0  0  0  0  0  0  0  0  0  0  0
    5.0892    4.0467    0.4278 O   0  0  0  0  0  0  0  0  0  0  0  0
    5.5453    2.6383    2.1770 N   0  0  0  0  0  0  0  0  0  0  0  0
    6.1842    3.6007    3.0975 C   0  0  1  0  0  0  0  0  0  0  0  0
    5.1950    4.7156    3.4919 C   0  0  0  0  0  0  0  0  0  0  0  0
    6.5977    2.8028    4.3437 C   0  0  0  0  0  0  0  0  0  0  0  0
    7.4329    4.2095    2.4331 C   0  0  0  0  0  0  0  0  0  0  0  0
    0.6969   -0.9128   -0.3254 H   0  0  0  0  0  0  0  0  0  0  0  0
    0.3451    0.8271   -0.1268 H   0  0  0  0  0  0  0  0  0  0  0  0
    0.8032   -0.1816    1.2797 H   0  0  0  0  0  0  0  0  0  0  0  0
    3.7426    0.3869   -1.6576 H   0  0  0  0  0  0  0  0  0  0  0  0
    2.0690    0.7174   -2.1060 H   0  0  0  0  0  0  0  0  0  0  0  0
    1.3351   -1.2777   -3.8260 H   0  0  0  0  0  0  0  0  0  0  0  0
    2.1225   -5.5007   -1.6546 H   0  0  0  0  0  0  0  0  0  0  0  0
    3.7904   -5.0636   -1.1637 H   0  0  0  0  0  0  0  0  0  0  0  0
    3.4150   -5.3935   -2.8845 H   0  0  0  0  0  0  0  0  0  0  0  0
    3.6968   -2.6392   -0.4585 H   0  0  0  0  0  0  0  0  0  0  0  0
    2.3213    2.3836    0.0823 H   0  0  0  0  0  0  0  0  0  0  0  0
    1.5372    1.4737    2.2257 H   0  0  0  0  0  0  0  0  0  0  0  0
    2.8984    2.5684    2.4126 H   0  0  0  0  0  0  0  0  0  0  0  0
    3.3120   -0.3350    2.2504 H   0  0  0  0  0  0  0  0  0  0  0  0
    3.1142    0.4330    3.6899 H   0  0  0  0  0  0  0  0  0  0  0  0
    4.5272    1.9877   -0.8447 H   0  0  0  0  0  0  0  0  0  0  0  0
    4.9370    0.8280    0.4449 H   0  0  0  0  0  0  0  0  0  0  0  0
    5.2357    1.7427    2.5642 H   0  0  0  0  0  0  0  0  0  0  0  0
    4.3160    4.2939    4.0069 H   0  0  0  0  0  0  0  0  0  0  0  0
    4.8533    5.2548    2.5978 H   0  0  0  0  0  0  0  0  0  0  0  0
    5.6746    5.4349    4.1752 H   0  0  0  0  0  0  0  0  0  0  0  0
    5.7223    2.3380    4.8272 H   0  0  0  0  0  0  0  0  0  0  0  0
    7.0792    3.4635    5.0805 H   0  0  0  0  0  0  0  0  0  0  0  0
    7.3105    2.0039    4.0828 H   0  0  0  0  0  0  0  0  0  0  0  0
    7.1548    4.7576    1.5232 H   0  0  0  0  0  0  0  0  0  0  0  0
    8.1477    3.4173    2.1589 H   0  0  0  0  0  0  0  0  0  0  0  0
    7.9349    4.9028    3.1268 H   0  0  0  0  0  0  0  0  0  0  0  0
  1  2  1  0
  1 21  1  0
  1 22  1  0
  1 23  1  0
  2  3  1  0
  2 10  1  0
  3  4  1  0
  3 24  1  0
  3 25  1  0
  4  5  1  0
  4  9  2  0
  5  6  2  0
  5 26  1  0
  6  7  1  0
  7  8  1  0
  7  9  1  0
  8 27  1  0
  8 28  1  0
  8 29  1  0
  9 30  1  0
 10 11  1  0
 10 13  1  0
 10 31  1  6
 11 12  1  0
 11 32  1  0
 11 33  1  0
 12 34  1  0
 12 35  1  0
 13 14  1  0
 13 36  1  0
 13 37  1  0
 14 15  2  0
 14 16  1  0
 17 16  1  6
 16 38  1  0
 17 18  1  0
 17 19  1  0
 17 20  1  0
 18 39  1  0
 18 40  1  0
 18 41  1  0
 19 42  1  0
 19 43  1  0
 19 44  1  0
 20 45  1  0
 20 46  1  0
 20 47  1  0
M  END

