
     RDKit          3D

 31 32  0  0  0  0  0  0  0  0999 V2000
    0.9580   -0.2429    0.0497 C   0  0  0  0  0  0  0  0  0  0  0  0
    2.4601   -0.0891    0.0844 C   0  0  0  0  0  0  0  0  0  0  0  0
    3.0631    1.1771    0.0529 C   0  0  0  0  0  0  0  0  0  0  0  0
    4.4564    1.3230    0.0915 C   0  0  0  0  0  0  0  0  0  0  0  0
    5.0972    2.6904    0.0580 C   0  0  0  0  0  0  0  0  0  0  0  0
    5.2685    0.1820    0.1634 C   0  0  0  0  0  0  0  0  0  0  0  0
    4.6831   -1.0931    0.1930 C   0  0  0  0  0  0  0  0  0  0  0  0
    5.4291   -2.2895    0.2556 N   0  0  0  0  0  0  0  0  0  0  0  0
    6.7942   -2.4602    0.3186 C   0  0  0  0  0  0  0  0  0  0  0  0
    7.5948   -1.5406    0.3860 O   0  0  0  0  0  0  0  0  0  0  0  0
    7.2454   -3.8841    0.3121 C   0  0  0  0  0  0  0  0  0  0  0  0
    6.2720   -5.2016   -0.3227 S   0  0  0  0  0  0  0  0  0  0  0  0
    7.5623   -6.2937    0.1022 C   0  0  0  0  0  0  0  0  0  0  0  0
    7.3955   -8.1379   -0.2511 Br  0  0  0  0  0  0  0  0  0  0  0  0
    8.5986   -5.7487    0.6371 N   0  0  0  0  0  0  0  0  0  0  0  0
    8.4555   -4.3836    0.7666 C   0  0  0  0  0  0  0  0  0  0  0  0
    9.5872   -3.6102    1.3696 C   0  0  0  0  0  0  0  0  0  0  0  0
    3.2832   -1.2173    0.1534 C   0  0  0  0  0  0  0  0  0  0  0  0
    0.4560    0.7287   -0.0654 H   0  0  0  0  0  0  0  0  0  0  0  0
    0.5811   -0.7067    0.9770 H   0  0  0  0  0  0  0  0  0  0  0  0
    0.6387   -0.8883   -0.7854 H   0  0  0  0  0  0  0  0  0  0  0  0
    2.4315    2.0684   -0.0023 H   0  0  0  0  0  0  0  0  0  0  0  0
    4.3447    3.4910    0.0089 H   0  0  0  0  0  0  0  0  0  0  0  0
    5.7627    2.7967   -0.8147 H   0  0  0  0  0  0  0  0  0  0  0  0
    5.7167    2.8615    0.9539 H   0  0  0  0  0  0  0  0  0  0  0  0
    6.3518    0.2713    0.2007 H   0  0  0  0  0  0  0  0  0  0  0  0
    4.8642   -3.1297    0.3071 H   0  0  0  0  0  0  0  0  0  0  0  0
    9.9324   -4.1155    2.2847 H   0  0  0  0  0  0  0  0  0  0  0  0
    9.3022   -2.5746    1.5805 H   0  0  0  0  0  0  0  0  0  0  0  0
   10.4388   -3.5953    0.6686 H   0  0  0  0  0  0  0  0  0  0  0  0
    2.8301   -2.2143    0.1747 H   0  0  0  0  0  0  0  0  0  0  0  0
  1  2  1  0
  1 19  1  0
  1 20  1  0
  1 21  1  0
  2  3  2  0
  2 18  1  0
  3  4  1  0
  3 22  1  0
  4  5  1  0
  4  6  2  0
  5 23  1  0
  5 24  1  0
  5 25  1  0
  6  7  1  0
  6 26  1  0
  7  8  1  0
  7 18  2  0
  8  9  1  0
  8 27  1  0
  9 10  2  0
  9 11  1  0
 11 12  1  0
 11 16  2  0
 12 13  1  0
 13 14  1  0
 13 15  2  0
 15 16  1  0
 16 17  1  0
 17 28  1  0
 17 29  1  0
 17 30  1  0
 18 31  1  0
M  END

