
     RDKit          3D

 50 52  0  0  0  0  0  0  0  0999 V2000
    1.0287   -1.0660    0.4026 C   0  0  0  0  0  0  0  0  0  0  0  0
    2.3039   -1.4613   -0.2628 C   0  0  0  0  0  0  0  0  0  0  0  0
    3.1468   -0.6274   -0.8293 N   0  0  0  0  0  0  0  0  0  0  0  0
    4.1809   -1.3596   -1.3373 N   0  0  0  0  0  0  0  0  0  0  0  0
    3.9580   -2.6272   -1.0668 C   0  0  0  0  0  0  0  0  0  0  0  0
    4.8909   -3.7516   -1.4557 C   0  0  0  0  0  0  0  0  0  0  0  0
    6.1660   -3.8172   -0.7384 N   0  0  0  0  0  0  0  0  0  0  0  0
    7.0420   -2.6741   -0.9690 C   0  0  0  0  0  0  0  0  0  0  0  0
    6.0560   -4.1899    0.6618 C   0  0  0  0  0  0  0  0  0  0  0  0
    5.5345   -5.6174    0.8804 C   0  0  0  0  0  0  0  0  0  0  0  0
    4.4537   -5.8010    1.4337 O   0  0  0  0  0  0  0  0  0  0  0  0
    6.3095   -6.6651    0.4570 N   0  0  0  0  0  0  0  0  0  0  0  0
    5.8917   -8.0307    0.7638 C   0  0  0  0  0  0  0  0  0  0  0  0
    6.0715   -8.9166   -0.4619 C   0  0  0  0  0  0  0  0  0  0  0  0
    7.3947   -8.8435   -0.9564 O   0  0  0  0  0  0  0  0  0  0  0  0
    7.7532   -7.5289   -1.3471 C   0  0  2  0  0  0  0  0  0  0  0  0
    9.1616   -7.5537   -1.9040 C   0  0  0  0  0  0  0  0  0  0  0  0
   10.0608   -8.5537   -1.5013 C   0  0  0  0  0  0  0  0  0  0  0  0
   11.3721   -8.5881   -1.9781 C   0  0  0  0  0  0  0  0  0  0  0  0
   11.8134   -7.6133   -2.8768 C   0  0  0  0  0  0  0  0  0  0  0  0
   10.9395   -6.6095   -3.2970 C   0  0  0  0  0  0  0  0  0  0  0  0
    9.6293   -6.5866   -2.8101 C   0  0  0  0  0  0  0  0  0  0  0  0
    8.5645   -5.3083   -3.3796 Cl  0  0  0  0  0  0  0  0  0  0  0  0
    7.6313   -6.5568   -0.1520 C   0  0  0  0  0  0  0  0  0  0  0  0
    2.7706   -2.7509   -0.3762 N   0  0  0  0  0  0  0  0  0  0  0  0
    2.1075   -3.9685    0.0666 C   0  0  0  0  0  0  0  0  0  0  0  0
    0.9406    0.0263    0.3378 H   0  0  0  0  0  0  0  0  0  0  0  0
    1.0077   -1.3535    1.4672 H   0  0  0  0  0  0  0  0  0  0  0  0
    0.1473   -1.5153   -0.0846 H   0  0  0  0  0  0  0  0  0  0  0  0
    5.1244   -3.6314   -2.5252 H   0  0  0  0  0  0  0  0  0  0  0  0
    4.3754   -4.7186   -1.3501 H   0  0  0  0  0  0  0  0  0  0  0  0
    7.1452   -2.5041   -2.0510 H   0  0  0  0  0  0  0  0  0  0  0  0
    8.0433   -2.8965   -0.5650 H   0  0  0  0  0  0  0  0  0  0  0  0
    6.6745   -1.7314   -0.5214 H   0  0  0  0  0  0  0  0  0  0  0  0
    5.3812   -3.5347    1.2487 H   0  0  0  0  0  0  0  0  0  0  0  0
    7.0561   -4.1039    1.1182 H   0  0  0  0  0  0  0  0  0  0  0  0
    4.8461   -8.0021    1.0951 H   0  0  0  0  0  0  0  0  0  0  0  0
    6.5080   -8.4264    1.5936 H   0  0  0  0  0  0  0  0  0  0  0  0
    5.3528   -8.6161   -1.2512 H   0  0  0  0  0  0  0  0  0  0  0  0
    5.8844   -9.9706   -0.2071 H   0  0  0  0  0  0  0  0  0  0  0  0
    7.0563   -7.1756   -2.1317 H   0  0  0  0  0  0  0  0  0  0  0  0
    9.6995   -9.3189   -0.8133 H   0  0  0  0  0  0  0  0  0  0  0  0
   12.0491   -9.3802   -1.6495 H   0  0  0  0  0  0  0  0  0  0  0  0
   12.8373   -7.6321   -3.2580 H   0  0  0  0  0  0  0  0  0  0  0  0
   11.2600   -5.8421   -4.0033 H   0  0  0  0  0  0  0  0  0  0  0  0
    7.7866   -5.5374   -0.5176 H   0  0  0  0  0  0  0  0  0  0  0  0
    8.4138   -6.8137    0.5872 H   0  0  0  0  0  0  0  0  0  0  0  0
    2.8116   -4.6262    0.5966 H   0  0  0  0  0  0  0  0  0  0  0  0
    1.6666   -4.5105   -0.7864 H   0  0  0  0  0  0  0  0  0  0  0  0
    1.2976   -3.7031    0.7580 H   0  0  0  0  0  0  0  0  0  0  0  0
  1  2  1  0
  1 27  1  0
  1 28  1  0
  1 29  1  0
  2  3  2  0
  2 25  1  0
  3  4  1  0
  4  5  2  0
  5  6  1  0
  5 25  1  0
  6  7  1  0
  6 30  1  0
  6 31  1  0
  7  8  1  0
  7  9  1  0
  8 32  1  0
  8 33  1  0
  8 34  1  0
  9 10  1  0
  9 35  1  0
  9 36  1  0
 10 11  2  0
 10 12  1  0
 12 13  1  0
 12 24  1  0
 13 14  1  0
 13 37  1  0
 13 38  1  0
 14 15  1  0
 14 39  1  0
 14 40  1  0
 15 16  1  0
 16 17  1  0
 16 24  1  0
 16 41  1  6
 17 18  2  0
 17 22  1  0
 18 19  1  0
 18 42  1  0
 19 20  2  0
 19 43  1  0
 20 21  1  0
 20 44  1  0
 21 22  2  0
 21 45  1  0
 22 23  1  0
 24 46  1  0
 24 47  1  0
 25 26  1  0
 26 48  1  0
 26 49  1  0
 26 50  1  0
M  END

