
     RDKit          3D

 42 44  0  0  0  0  0  0  0  0999 V2000
   -0.7088   -1.7180    2.2452 C   0  0  0  0  0  0  0  0  0  0  0  0
    0.7201   -1.5294    1.7939 C   0  0  0  0  0  0  0  0  0  0  0  0
    1.3496   -0.2777    1.8599 C   0  0  0  0  0  0  0  0  0  0  0  0
    2.6757   -0.1325    1.4436 C   0  0  0  0  0  0  0  0  0  0  0  0
    3.4073   -1.2150    0.9539 C   0  0  0  0  0  0  0  0  0  0  0  0
    2.7865   -2.4748    0.8815 C   0  0  0  0  0  0  0  0  0  0  0  0
    3.4391   -3.6289    0.4005 N   0  0  0  0  0  0  0  0  0  0  0  0
    4.7213   -3.7670   -0.0514 C   0  0  0  0  0  0  0  0  0  0  0  0
    5.5547   -2.8831   -0.1218 O   0  0  0  0  0  0  0  0  0  0  0  0
    5.1101   -5.1934   -0.4931 C   0  0  0  0  0  0  0  0  0  0  0  0
    4.0708   -6.1977   -0.4702 N   0  0  0  0  0  0  0  0  0  0  0  0
    3.7237   -6.9723    0.6191 C   0  0  0  0  0  0  0  0  0  0  0  0
    2.6175   -7.7254    0.2826 C   0  0  0  0  0  0  0  0  0  0  0  0
    2.2707   -7.4032   -1.0682 C   0  0  0  0  0  0  0  0  0  0  0  0
    1.1584   -8.0107   -1.8751 C   0  0  0  0  0  0  0  0  0  0  0  0
   -0.0881   -8.0609   -1.1200 N   0  0  0  0  0  0  0  0  0  0  0  0
   -1.1880   -8.6778   -1.8025 C   0  0  1  0  0  0  0  0  0  0  0  0
   -2.5878   -8.2067   -1.5540 C   0  0  0  0  0  0  0  0  0  0  0  0
   -1.9610   -7.9895   -2.9155 C   0  0  0  0  0  0  0  0  0  0  0  0
    3.1820   -6.4536   -1.4954 C   0  0  0  0  0  0  0  0  0  0  0  0
    1.4536   -2.6165    1.3015 C   0  0  0  0  0  0  0  0  0  0  0  0
   -1.1677   -0.7627    2.5387 H   0  0  0  0  0  0  0  0  0  0  0  0
   -0.7688   -2.3984    3.1115 H   0  0  0  0  0  0  0  0  0  0  0  0
   -1.3287   -2.1586    1.4468 H   0  0  0  0  0  0  0  0  0  0  0  0
    0.7977    0.5864    2.2393 H   0  0  0  0  0  0  0  0  0  0  0  0
    3.1555    0.8483    1.5000 H   0  0  0  0  0  0  0  0  0  0  0  0
    4.4393   -1.1053    0.6296 H   0  0  0  0  0  0  0  0  0  0  0  0
    2.8780   -4.4750    0.3943 H   0  0  0  0  0  0  0  0  0  0  0  0
    5.9440   -5.5078    0.1534 H   0  0  0  0  0  0  0  0  0  0  0  0
    5.5213   -5.1040   -1.5097 H   0  0  0  0  0  0  0  0  0  0  0  0
    4.2996   -6.9229    1.5416 H   0  0  0  0  0  0  0  0  0  0  0  0
    2.1029   -8.4413    0.9199 H   0  0  0  0  0  0  0  0  0  0  0  0
    1.4184   -9.0519   -2.1445 H   0  0  0  0  0  0  0  0  0  0  0  0
    1.0665   -7.4680   -2.8422 H   0  0  0  0  0  0  0  0  0  0  0  0
   -0.3352   -7.1335   -0.7792 H   0  0  0  0  0  0  0  0  0  0  0  0
   -1.0547   -9.7614   -1.9184 H   0  0  0  0  0  0  0  0  0  0  0  0
   -2.7229   -7.3314   -0.9094 H   0  0  0  0  0  0  0  0  0  0  0  0
   -3.3804   -8.9531   -1.4503 H   0  0  0  0  0  0  0  0  0  0  0  0
   -1.6671   -6.9677   -3.1765 H   0  0  0  0  0  0  0  0  0  0  0  0
   -2.3232   -8.5837   -3.7603 H   0  0  0  0  0  0  0  0  0  0  0  0
    3.2745   -5.9442   -2.4532 H   0  0  0  0  0  0  0  0  0  0  0  0
    0.9790   -3.6020    1.2428 H   0  0  0  0  0  0  0  0  0  0  0  0
  1  2  1  0
  1 22  1  0
  1 23  1  0
  1 24  1  0
  2  3  2  0
  2 21  1  0
  3  4  1  0
  3 25  1  0
  4  5  2  0
  4 26  1  0
  5  6  1  0
  5 27  1  0
  6  7  1  0
  6 21  2  0
  7  8  1  0
  7 28  1  0
  8  9  2  0
  8 10  1  0
 10 11  1  0
 10 29  1  0
 10 30  1  0
 11 12  1  0
 11 20  1  0
 12 13  2  0
 12 31  1  0
 13 14  1  0
 13 32  1  0
 14 15  1  0
 14 20  2  0
 15 16  1  0
 15 33  1  0
 15 34  1  0
 16 17  1  0
 16 35  1  0
 17 18  1  0
 17 19  1  0
 17 36  1  6
 18 19  1  0
 18 37  1  0
 18 38  1  0
 19 39  1  0
 19 40  1  0
 20 41  1  0
 21 42  1  0
M  END

