
     RDKit          3D

 41 43  0  0  0  0  0  0  0  0999 V2000
    1.0008   -0.4239   -0.6589 C   0  0  0  0  0  0  0  0  0  0  0  0
    2.3859   -0.1521   -0.1350 C   0  0  0  0  0  0  0  0  0  0  0  0
    3.1279    0.9788   -0.4978 C   0  0  0  0  0  0  0  0  0  0  0  0
    4.4231    1.2153   -0.0016 C   0  0  0  0  0  0  0  0  0  0  0  0
    5.1303    2.4570   -0.3736 C   0  0  0  0  0  0  0  0  0  0  0  0
    4.6824    3.7632   -0.2771 C   0  0  0  0  0  0  0  0  0  0  0  0
    5.7904    4.5613   -0.6535 C   0  0  0  0  0  0  0  0  0  0  0  0
    5.8742    6.0533   -0.7184 C   0  0  1  0  0  0  0  0  0  0  0  0
    4.9212    6.5430   -1.5580 F   0  0  0  0  0  0  0  0  0  0  0  0
    5.6368    6.5941    0.5088 F   0  0  0  0  0  0  0  0  0  0  0  0
    6.8413    3.8227   -0.9665 N   0  0  0  0  0  0  0  0  0  0  0  0
    6.4452    2.5417   -0.8086 N   0  0  0  0  0  0  0  0  0  0  0  0
    7.3549    1.5156   -1.1716 C   0  0  0  0  0  0  0  0  0  0  0  0
    8.7199    1.7225   -0.9467 C   0  0  0  0  0  0  0  0  0  0  0  0
    9.6342    0.7416   -1.3223 C   0  0  0  0  0  0  0  0  0  0  0  0
   10.9155    0.9827   -1.0860 F   0  0  0  0  0  0  0  0  0  0  0  0
    9.2252   -0.4653   -1.9151 C   0  0  0  0  0  0  0  0  0  0  0  0
   10.3863   -1.7295   -2.5327 S   0  0  1  0  0  0  0  0  0  0  0  0
    9.9585   -3.1923   -1.5669 C   0  0  0  0  0  0  0  0  0  0  0  0
   10.0273   -1.9844   -3.9289 O   0  0  0  0  0  0  0  0  0  0  0  0
   11.7461   -1.3407   -2.1618 O   0  0  0  0  0  0  0  0  0  0  0  0
    7.8481   -0.6238   -2.1317 C   0  0  0  0  0  0  0  0  0  0  0  0
    7.4051   -1.7543   -2.6896 F   0  0  0  0  0  0  0  0  0  0  0  0
    6.9078    0.3334   -1.7760 C   0  0  0  0  0  0  0  0  0  0  0  0
    4.9856    0.2893    0.8942 C   0  0  0  0  0  0  0  0  0  0  0  0
    4.2710   -0.8477    1.2700 C   0  0  0  0  0  0  0  0  0  0  0  0
    2.9947   -1.0488    0.7528 C   0  0  0  0  0  0  0  0  0  0  0  0
    2.3127   -2.1451    1.1193 F   0  0  0  0  0  0  0  0  0  0  0  0
    0.6736    0.3706   -1.3440 H   0  0  0  0  0  0  0  0  0  0  0  0
    0.2709   -0.4930    0.1640 H   0  0  0  0  0  0  0  0  0  0  0  0
    0.9599   -1.3842   -1.1981 H   0  0  0  0  0  0  0  0  0  0  0  0
    2.6882    1.6951   -1.1964 H   0  0  0  0  0  0  0  0  0  0  0  0
    3.7056    4.0923    0.0672 H   0  0  0  0  0  0  0  0  0  0  0  0
    6.8663    6.3830   -1.0691 H   0  0  0  0  0  0  0  0  0  0  0  0
    9.0772    2.6479   -0.4980 H   0  0  0  0  0  0  0  0  0  0  0  0
    8.9096   -3.4547   -1.7502 H   0  0  0  0  0  0  0  0  0  0  0  0
   10.1615   -2.9895   -0.5075 H   0  0  0  0  0  0  0  0  0  0  0  0
   10.6278   -3.9781   -1.9450 H   0  0  0  0  0  0  0  0  0  0  0  0
    5.8581    0.1482   -1.9941 H   0  0  0  0  0  0  0  0  0  0  0  0
    5.9785    0.4644    1.3133 H   0  0  0  0  0  0  0  0  0  0  0  0
    4.6827   -1.5784    1.9687 H   0  0  0  0  0  0  0  0  0  0  0  0
  1  2  1  0
  1 29  1  0
  1 30  1  0
  1 31  1  0
  2  3  2  0
  2 27  1  0
  3  4  1  0
  3 32  1  0
  4  5  1  0
  4 25  2  0
  5  6  2  0
  5 12  1  0
  6  7  1  0
  6 33  1  0
  7  8  1  0
  7 11  2  0
  8  9  1  0
  8 10  1  0
  8 34  1  6
 11 12  1  0
 12 13  1  0
 13 14  2  0
 13 24  1  0
 14 15  1  0
 14 35  1  0
 15 16  1  0
 15 17  2  0
 17 18  1  0
 17 22  1  0
 18 19  1  1
 18 20  2  0
 18 21  2  0
 19 36  1  0
 19 37  1  0
 19 38  1  0
 22 23  1  0
 22 24  2  0
 24 39  1  0
 25 26  1  0
 25 40  1  0
 26 27  2  0
 26 41  1  0
 27 28  1  0
M  END

