
     RDKit          3D

 35 36  0  0  0  0  0  0  0  0999 V2000
    0.8061   -0.1427    0.2928 C   0  0  0  0  0  0  0  0  0  0  0  0
    2.3061   -0.0739    0.1376 C   0  0  0  0  0  0  0  0  0  0  0  0
    2.9074    0.7273   -0.8418 C   0  0  0  0  0  0  0  0  0  0  0  0
    4.2973    0.7698   -0.9866 C   0  0  0  0  0  0  0  0  0  0  0  0
    5.1418    0.0162   -0.1595 C   0  0  0  0  0  0  0  0  0  0  0  0
    6.6525    0.1027   -0.3332 C   0  0  1  0  0  0  0  0  0  0  0  0
    7.3505    0.9024    0.7778 C   0  0  0  0  0  0  0  0  0  0  0  0
    7.4439    0.0615    2.3845 Cl  0  0  0  0  0  0  0  0  0  0  0  0
    7.3457   -1.2604   -0.5879 C   0  0  0  0  0  0  0  0  0  0  0  0
    6.9190   -1.9398   -1.8715 C   0  0  0  0  0  0  0  0  0  0  0  0
    5.9819   -2.9862   -1.8651 C   0  0  0  0  0  0  0  0  0  0  0  0
    5.5913   -3.5872   -3.0636 C   0  0  0  0  0  0  0  0  0  0  0  0
    6.1221   -3.1601   -4.2828 C   0  0  0  0  0  0  0  0  0  0  0  0
    7.0588   -2.1171   -4.2990 C   0  0  0  0  0  0  0  0  0  0  0  0
    7.6209   -1.6548   -5.4482 O   0  0  0  0  0  0  0  0  0  0  0  0
    7.4516   -1.5158   -3.0961 C   0  0  0  0  0  0  0  0  0  0  0  0
    4.5389   -0.7902    0.8221 C   0  0  0  0  0  0  0  0  0  0  0  0
    3.1519   -0.8293    0.9670 C   0  0  0  0  0  0  0  0  0  0  0  0
    0.3009    0.6269   -0.3098 H   0  0  0  0  0  0  0  0  0  0  0  0
    0.5028   -0.0044    1.3434 H   0  0  0  0  0  0  0  0  0  0  0  0
    0.4159   -1.1245   -0.0271 H   0  0  0  0  0  0  0  0  0  0  0  0
    2.2802    1.3283   -1.5068 H   0  0  0  0  0  0  0  0  0  0  0  0
    4.7332    1.4023   -1.7658 H   0  0  0  0  0  0  0  0  0  0  0  0
    6.8274    0.7196   -1.2335 H   0  0  0  0  0  0  0  0  0  0  0  0
    6.8287    1.8510    0.9605 H   0  0  0  0  0  0  0  0  0  0  0  0
    8.3918    1.1164    0.4982 H   0  0  0  0  0  0  0  0  0  0  0  0
    7.1675   -1.9257    0.2697 H   0  0  0  0  0  0  0  0  0  0  0  0
    8.4346   -1.0838   -0.6182 H   0  0  0  0  0  0  0  0  0  0  0  0
    5.5573   -3.3276   -0.9186 H   0  0  0  0  0  0  0  0  0  0  0  0
    4.8625   -4.4019   -3.0521 H   0  0  0  0  0  0  0  0  0  0  0  0
    5.8152   -3.6352   -5.2202 H   0  0  0  0  0  0  0  0  0  0  0  0
    7.2734   -2.1548   -6.1982 H   0  0  0  0  0  0  0  0  0  0  0  0
    8.1925   -0.7131   -3.1409 H   0  0  0  0  0  0  0  0  0  0  0  0
    5.1599   -1.3834    1.4951 H   0  0  0  0  0  0  0  0  0  0  0  0
    2.7149   -1.4626    1.7452 H   0  0  0  0  0  0  0  0  0  0  0  0
  1  2  1  0
  1 19  1  0
  1 20  1  0
  1 21  1  0
  2  3  2  0
  2 18  1  0
  3  4  1  0
  3 22  1  0
  4  5  2  0
  4 23  1  0
  5  6  1  0
  5 17  1  0
  6  7  1  0
  6  9  1  0
  6 24  1  6
  7  8  1  0
  7 25  1  0
  7 26  1  0
  9 10  1  0
  9 27  1  0
  9 28  1  0
 10 11  2  0
 10 16  1  0
 11 12  1  0
 11 29  1  0
 12 13  2  0
 12 30  1  0
 13 14  1  0
 13 31  1  0
 14 15  1  0
 14 16  2  0
 15 32  1  0
 16 33  1  0
 17 18  2  0
 17 34  1  0
 18 35  1  0
M  END

