
     RDKit          3D

 17 18  0  0  0  0  0  0  0  0999 V2000
    0.9560    0.1227    0.0515 C   0  0  0  0  0  0  0  0  0  0  0  0
    2.4593    0.0440    0.1523 C   0  0  0  0  0  0  0  0  0  0  0  0
    3.2112    1.2312    0.1447 C   0  0  0  0  0  0  0  0  0  0  0  0
    4.6271    1.2926    0.2338 C   0  0  0  0  0  0  0  0  0  0  0  0
    5.2041    0.0506    0.3301 C   0  0  0  0  0  0  0  0  0  0  0  0
    6.4289   -0.6195    0.4418 O   0  0  0  0  0  0  0  0  0  0  0  0
    5.6475   -1.8942    0.4516 O   0  0  0  0  0  0  0  0  0  0  0  0
    4.4941   -1.1245    0.3397 C   0  0  0  0  0  0  0  0  0  0  0  0
    3.1142   -1.2353    0.2557 C   0  0  0  0  0  0  0  0  0  0  0  0
    2.4480   -2.5534    0.2756 C   0  0  0  0  0  0  0  0  0  0  0  0
    1.2540   -2.7455    0.2086 O   0  0  0  0  0  0  0  0  0  0  0  0
    0.6283    1.1695   -0.0239 H   0  0  0  0  0  0  0  0  0  0  0  0
    0.4695   -0.3395    0.9241 H   0  0  0  0  0  0  0  0  0  0  0  0
    0.5813   -0.4311   -0.8227 H   0  0  0  0  0  0  0  0  0  0  0  0
    2.6676    2.1755    0.0644 H   0  0  0  0  0  0  0  0  0  0  0  0
    5.1681    2.2393    0.2241 H   0  0  0  0  0  0  0  0  0  0  0  0
    3.1582   -3.4155    0.3614 H   0  0  0  0  0  0  0  0  0  0  0  0
  1  2  1  0
  1 12  1  0
  1 13  1  0
  1 14  1  0
  2  3  2  0
  2  9  1  0
  3  4  1  0
  3 15  1  0
  4  5  2  0
  4 16  1  0
  5  6  1  0
  5  8  1  0
  6  7  1  0
  7  8  1  0
  8  9  2  0
  9 10  1  0
 10 11  2  0
 10 17  1  0
M  END

