
     RDKit          3D

233248  0  0  0  0  0  0  0  0999 V2000
    5.5609   -7.5349    4.4974 C   0  0  0  0  0  0  0  0  0  0  0  0
    4.1636   -7.5927    3.8375 C   0  0  1  0  0  0  0  0  0  0  0  0
    3.6819   -9.0613    3.7834 C   0  0  0  0  0  0  0  0  0  0  0  0
    3.1843   -6.8003    4.7221 C   0  0  0  0  0  0  0  0  0  0  0  0
    4.2435   -7.0253    2.4056 C   0  0  0  0  0  0  0  0  0  0  0  0
    5.1069   -7.6346    1.4623 C   0  0  0  0  0  0  0  0  0  0  0  0
    5.2307   -7.1874    0.1484 C   0  0  0  0  0  0  0  0  0  0  0  0
    4.4584   -6.0932   -0.2467 C   0  0  0  0  0  0  0  0  0  0  0  0
    3.6004   -5.4438    0.6711 C   0  0  0  0  0  0  0  0  0  0  0  0
    3.4968   -5.9179    1.9874 C   0  0  0  0  0  0  0  0  0  0  0  0
    3.0016   -4.3230   -0.0303 C   0  0  0  0  0  0  0  0  0  0  0  0
    2.0794   -3.3360    0.3488 C   0  0  0  0  0  0  0  0  0  0  0  0
    1.6739   -2.3527   -0.5605 C   0  0  0  0  0  0  0  0  0  0  0  0
    0.6669   -1.2430   -0.1956 C   0  0  1  0  0  0  0  0  0  0  0  0
    0.1767   -1.3599    1.2589 C   0  0  0  0  0  0  0  0  0  0  0  0
    1.3370    0.1402   -0.3673 C   0  0  0  0  0  0  0  0  0  0  0  0
   -0.5648   -1.3359   -1.1260 C   0  0  0  0  0  0  0  0  0  0  0  0
    2.2250   -2.3920   -1.8650 C   0  0  0  0  0  0  0  0  0  0  0  0
    3.1412   -3.3600   -2.2712 C   0  0  0  0  0  0  0  0  0  0  0  0
    3.5269   -4.3305   -1.3423 C   0  0  0  0  0  0  0  0  0  0  0  0
    4.4001   -5.4244   -1.4814 N   0  0  0  0  0  0  0  0  0  0  0  0
    5.1335   -5.7511   -2.6431 C   0  0  0  0  0  0  0  0  0  0  0  0
    6.1429   -4.8653   -3.0838 C   0  0  0  0  0  0  0  0  0  0  0  0
    6.3961   -3.6636   -2.3406 C   0  0  0  0  0  0  0  0  0  0  0  0
    6.6009   -2.6922   -1.7402 N   0  0  0  0  0  0  0  0  0  0  0  0
    6.9084   -5.1371   -4.2406 C   0  0  0  0  0  0  0  0  0  0  0  0
    7.9057   -4.2164   -4.6293 N   0  0  0  0  0  0  0  0  0  0  0  0
    7.8804   -3.3965   -5.7710 C   0  0  0  0  0  0  0  0  0  0  0  0
    6.9103   -3.2641   -6.7620 C   0  0  0  0  0  0  0  0  0  0  0  0
    7.1339   -2.3388   -7.7855 C   0  0  0  0  0  0  0  0  0  0  0  0
    8.2923   -1.5339   -7.8474 C   0  0  0  0  0  0  0  0  0  0  0  0
    8.5361   -0.5165   -8.9822 C   0  0  1  0  0  0  0  0  0  0  0  0
    7.3923   -0.5054  -10.0128 C   0  0  0  0  0  0  0  0  0  0  0  0
    8.6579    0.9047   -8.3850 C   0  0  0  0  0  0  0  0  0  0  0  0
    9.8450   -0.8751   -9.7233 C   0  0  0  0  0  0  0  0  0  0  0  0
    9.2424   -1.6744   -6.8235 C   0  0  0  0  0  0  0  0  0  0  0  0
    9.0471   -2.5919   -5.7862 C   0  0  0  0  0  0  0  0  0  0  0  0
    9.8082   -2.9286   -4.5960 C   0  0  0  0  0  0  0  0  0  0  0  0
   11.0319   -2.4765   -4.0811 C   0  0  0  0  0  0  0  0  0  0  0  0
   11.5333   -2.9905   -2.8796 C   0  0  0  0  0  0  0  0  0  0  0  0
   12.8696   -2.5254   -2.2660 C   0  0  1  0  0  0  0  0  0  0  0  0
   13.5608   -1.4526   -3.1267 C   0  0  0  0  0  0  0  0  0  0  0  0
   12.6139   -1.9253   -0.8639 C   0  0  0  0  0  0  0  0  0  0  0  0
   13.8287   -3.7321   -2.1411 C   0  0  0  0  0  0  0  0  0  0  0  0
   10.7647   -3.9749   -2.2117 C   0  0  0  0  0  0  0  0  0  0  0  0
    9.5468   -4.4451   -2.6994 C   0  0  0  0  0  0  0  0  0  0  0  0
    9.0714   -3.9143   -3.9017 C   0  0  0  0  0  0  0  0  0  0  0  0
    6.6505   -6.3135   -4.9865 C   0  0  0  0  0  0  0  0  0  0  0  0
    7.3658   -6.5631   -6.1798 N   0  0  0  0  0  0  0  0  0  0  0  0
    8.7533   -6.7659   -6.3009 C   0  0  0  0  0  0  0  0  0  0  0  0
    9.7462   -6.8417   -5.3212 C   0  0  0  0  0  0  0  0  0  0  0  0
   11.0556   -7.0907   -5.7274 C   0  0  0  0  0  0  0  0  0  0  0  0
   11.4194   -7.2757   -7.0835 C   0  0  0  0  0  0  0  0  0  0  0  0
   12.8951   -7.5399   -7.4447 C   0  0  1  0  0  0  0  0  0  0  0  0
   13.3813   -8.8243   -6.7340 C   0  0  0  0  0  0  0  0  0  0  0  0
   13.0974   -7.7263   -8.9592 C   0  0  0  0  0  0  0  0  0  0  0  0
   13.7597   -6.3420   -6.9875 C   0  0  0  0  0  0  0  0  0  0  0  0
   10.4040   -7.2079   -8.0438 C   0  0  0  0  0  0  0  0  0  0  0  0
    9.0772   -6.9569   -7.6637 C   0  0  0  0  0  0  0  0  0  0  0  0
    7.8392   -6.8513   -8.4115 C   0  0  0  0  0  0  0  0  0  0  0  0
    7.5398   -6.9197   -9.7803 C   0  0  0  0  0  0  0  0  0  0  0  0
    6.2272   -6.7426  -10.2319 C   0  0  0  0  0  0  0  0  0  0  0  0
    5.8399   -6.8154  -11.7228 C   0  0  1  0  0  0  0  0  0  0  0  0
    7.0557   -7.0928  -12.6253 C   0  0  0  0  0  0  0  0  0  0  0  0
    4.8149   -7.9542  -11.9337 C   0  0  0  0  0  0  0  0  0  0  0  0
    5.2124   -5.4722  -12.1622 C   0  0  0  0  0  0  0  0  0  0  0  0
    5.2270   -6.4842   -9.2634 C   0  0  0  0  0  0  0  0  0  0  0  0
    5.4954   -6.4113   -7.8979 C   0  0  0  0  0  0  0  0  0  0  0  0
    6.8108   -6.6102   -7.4723 C   0  0  0  0  0  0  0  0  0  0  0  0
    5.6459   -7.2229   -4.5418 C   0  0  0  0  0  0  0  0  0  0  0  0
    5.3991   -8.4066   -5.2715 N   0  0  0  0  0  0  0  0  0  0  0  0
    6.3207   -9.4477   -5.5004 C   0  0  0  0  0  0  0  0  0  0  0  0
    7.6293   -9.6111   -5.0510 C   0  0  0  0  0  0  0  0  0  0  0  0
    8.3138  -10.7779   -5.4024 C   0  0  0  0  0  0  0  0  0  0  0  0
    7.7305  -11.7981   -6.1843 C   0  0  0  0  0  0  0  0  0  0  0  0
    8.4929  -13.0804   -6.5789 C   0  0  1  0  0  0  0  0  0  0  0  0
    9.9271  -13.1030   -6.0193 C   0  0  0  0  0  0  0  0  0  0  0  0
    7.7447  -14.3178   -6.0313 C   0  0  0  0  0  0  0  0  0  0  0  0
    8.5779  -13.1738   -8.1202 C   0  0  0  0  0  0  0  0  0  0  0  0
    6.4041  -11.6177   -6.6060 C   0  0  0  0  0  0  0  0  0  0  0  0
    5.6965  -10.4592   -6.2702 C   0  0  0  0  0  0  0  0  0  0  0  0
    4.3395  -10.0158   -6.5300 C   0  0  0  0  0  0  0  0  0  0  0  0
    3.2755  -10.5747   -7.2524 C   0  0  0  0  0  0  0  0  0  0  0  0
    2.0567   -9.8961   -7.3649 C   0  0  0  0  0  0  0  0  0  0  0  0
    0.8505  -10.4668   -8.1375 C   0  0  1  0  0  0  0  0  0  0  0  0
    1.1572  -11.8411   -8.7593 C   0  0  0  0  0  0  0  0  0  0  0  0
   -0.3475  -10.6316   -7.1733 C   0  0  0  0  0  0  0  0  0  0  0  0
    0.4611   -9.4993   -9.2792 C   0  0  0  0  0  0  0  0  0  0  0  0
    1.9481   -8.6323   -6.7365 C   0  0  0  0  0  0  0  0  0  0  0  0
    2.9897   -8.0530   -6.0142 C   0  0  0  0  0  0  0  0  0  0  0  0
    4.1887   -8.7597   -5.9007 C   0  0  0  0  0  0  0  0  0  0  0  0
    4.8905   -6.9457   -3.3646 C   0  0  0  0  0  0  0  0  0  0  0  0
    3.9255   -7.8673   -2.8980 N   0  0  0  0  0  0  0  0  0  0  0  0
    4.1914   -9.1697   -2.4354 C   0  0  0  0  0  0  0  0  0  0  0  0
    5.4032   -9.8521   -2.3063 C   0  0  0  0  0  0  0  0  0  0  0  0
    5.3794  -11.1420   -1.7793 C   0  0  0  0  0  0  0  0  0  0  0  0
    4.1865  -11.7826   -1.3649 C   0  0  0  0  0  0  0  0  0  0  0  0
    4.2508  -13.2164   -0.8008 C   0  0  1  0  0  0  0  0  0  0  0  0
    5.1613  -13.2424    0.4487 C   0  0  0  0  0  0  0  0  0  0  0  0
    2.8631  -13.7419   -0.3915 C   0  0  0  0  0  0  0  0  0  0  0  0
    4.8271  -14.1672   -1.8759 C   0  0  0  0  0  0  0  0  0  0  0  0
    2.9886  -11.0698   -1.4883 C   0  0  0  0  0  0  0  0  0  0  0  0
    2.9825   -9.7698   -2.0153 C   0  0  0  0  0  0  0  0  0  0  0  0
    1.9305   -8.7949   -2.2303 C   0  0  0  0  0  0  0  0  0  0  0  0
    0.5430   -8.8261   -2.0254 C   0  0  0  0  0  0  0  0  0  0  0  0
   -0.2495   -7.7192   -2.3486 C   0  0  0  0  0  0  0  0  0  0  0  0
   -1.7768   -7.6946   -2.1369 C   0  0  1  0  0  0  0  0  0  0  0  0
   -2.3016   -9.0141   -1.5429 C   0  0  0  0  0  0  0  0  0  0  0  0
   -2.1442   -6.5497   -1.1644 C   0  0  0  0  0  0  0  0  0  0  0  0
   -2.4842   -7.4633   -3.4925 C   0  0  0  0  0  0  0  0  0  0  0  0
    0.3975   -6.5831   -2.8928 C   0  0  0  0  0  0  0  0  0  0  0  0
    1.7729   -6.5249   -3.1082 C   0  0  0  0  0  0  0  0  0  0  0  0
    2.5434   -7.6380   -2.7635 C   0  0  0  0  0  0  0  0  0  0  0  0
    5.5214   -7.9406    5.5221 H   0  0  0  0  0  0  0  0  0  0  0  0
    5.9270   -6.4974    4.5553 H   0  0  0  0  0  0  0  0  0  0  0  0
    6.3053   -8.1208    3.9370 H   0  0  0  0  0  0  0  0  0  0  0  0
    3.6229   -9.4865    4.7992 H   0  0  0  0  0  0  0  0  0  0  0  0
    4.3626   -9.6958    3.1954 H   0  0  0  0  0  0  0  0  0  0  0  0
    2.6825   -9.1311    3.3252 H   0  0  0  0  0  0  0  0  0  0  0  0
    3.1557   -7.2380    5.7325 H   0  0  0  0  0  0  0  0  0  0  0  0
    2.1583   -6.8245    4.3227 H   0  0  0  0  0  0  0  0  0  0  0  0
    3.4862   -5.7465    4.8275 H   0  0  0  0  0  0  0  0  0  0  0  0
    5.7076   -8.4958    1.7626 H   0  0  0  0  0  0  0  0  0  0  0  0
    5.9121   -7.6882   -0.5391 H   0  0  0  0  0  0  0  0  0  0  0  0
    2.8294   -5.4016    2.6773 H   0  0  0  0  0  0  0  0  0  0  0  0
    1.6866   -3.3520    1.3655 H   0  0  0  0  0  0  0  0  0  0  0  0
    1.0047   -1.2714    1.9795 H   0  0  0  0  0  0  0  0  0  0  0  0
   -0.3379   -2.3159    1.4437 H   0  0  0  0  0  0  0  0  0  0  0  0
   -0.5390   -0.5518    1.4778 H   0  0  0  0  0  0  0  0  0  0  0  0
    2.2169    0.2357    0.2883 H   0  0  0  0  0  0  0  0  0  0  0  0
    0.6298    0.9465   -0.1106 H   0  0  0  0  0  0  0  0  0  0  0  0
    1.6729    0.3095   -1.4016 H   0  0  0  0  0  0  0  0  0  0  0  0
   -1.0678   -2.3103   -1.0175 H   0  0  0  0  0  0  0  0  0  0  0  0
   -0.2901   -1.2171   -2.1853 H   0  0  0  0  0  0  0  0  0  0  0  0
   -1.2949   -0.5465   -0.8816 H   0  0  0  0  0  0  0  0  0  0  0  0
    1.9335   -1.6319   -2.5930 H   0  0  0  0  0  0  0  0  0  0  0  0
    3.5455   -3.3415   -3.2853 H   0  0  0  0  0  0  0  0  0  0  0  0
    5.9976   -3.8596   -6.7557 H   0  0  0  0  0  0  0  0  0  0  0  0
    6.3704   -2.2526   -8.5580 H   0  0  0  0  0  0  0  0  0  0  0  0
    6.4303   -0.2226   -9.5573 H   0  0  0  0  0  0  0  0  0  0  0  0
    7.2664   -1.4860  -10.4980 H   0  0  0  0  0  0  0  0  0  0  0  0
    7.6109    0.2294  -10.8038 H   0  0  0  0  0  0  0  0  0  0  0  0
    7.7358    1.1897   -7.8539 H   0  0  0  0  0  0  0  0  0  0  0  0
    8.8356    1.6457   -9.1822 H   0  0  0  0  0  0  0  0  0  0  0  0
    9.4910    0.9796   -7.6696 H   0  0  0  0  0  0  0  0  0  0  0  0
    9.7848   -1.8827  -10.1645 H   0  0  0  0  0  0  0  0  0  0  0  0
   10.7159   -0.8573   -9.0504 H   0  0  0  0  0  0  0  0  0  0  0  0
   10.0383   -0.1565  -10.5372 H   0  0  0  0  0  0  0  0  0  0  0  0
   10.1459   -1.0602   -6.8209 H   0  0  0  0  0  0  0  0  0  0  0  0
   11.5827   -1.7167   -4.6356 H   0  0  0  0  0  0  0  0  0  0  0  0
   12.9406   -0.5488   -3.2324 H   0  0  0  0  0  0  0  0  0  0  0  0
   13.7988   -1.8250   -4.1355 H   0  0  0  0  0  0  0  0  0  0  0  0
   14.5086   -1.1490   -2.6548 H   0  0  0  0  0  0  0  0  0  0  0  0
   11.9354   -1.0597   -0.9235 H   0  0  0  0  0  0  0  0  0  0  0  0
   13.5604   -1.5875   -0.4099 H   0  0  0  0  0  0  0  0  0  0  0  0
   12.1595   -2.6574   -0.1791 H   0  0  0  0  0  0  0  0  0  0  0  0
   14.0350   -4.1752   -3.1286 H   0  0  0  0  0  0  0  0  0  0  0  0
   13.4124   -4.5235   -1.4992 H   0  0  0  0  0  0  0  0  0  0  0  0
   14.7899   -3.4185   -1.7008 H   0  0  0  0  0  0  0  0  0  0  0  0
   11.1266   -4.3880   -1.2677 H   0  0  0  0  0  0  0  0  0  0  0  0
    8.9864   -5.1980   -2.1415 H   0  0  0  0  0  0  0  0  0  0  0  0
    9.5232   -6.7074   -4.2634 H   0  0  0  0  0  0  0  0  0  0  0  0
   11.8245   -7.1374   -4.9533 H   0  0  0  0  0  0  0  0  0  0  0  0
   12.7851   -9.6969   -7.0458 H   0  0  0  0  0  0  0  0  0  0  0  0
   13.3067   -8.7421   -5.6389 H   0  0  0  0  0  0  0  0  0  0  0  0
   14.4368   -9.0270   -6.9807 H   0  0  0  0  0  0  0  0  0  0  0  0
   12.5266   -8.5844   -9.3475 H   0  0  0  0  0  0  0  0  0  0  0  0
   14.1616   -7.9130   -9.1739 H   0  0  0  0  0  0  0  0  0  0  0  0
   12.7986   -6.8311   -9.5268 H   0  0  0  0  0  0  0  0  0  0  0  0
   13.6916   -6.1768   -5.9014 H   0  0  0  0  0  0  0  0  0  0  0  0
   13.4399   -5.4131   -7.4860 H   0  0  0  0  0  0  0  0  0  0  0  0
   14.8208   -6.5143   -7.2335 H   0  0  0  0  0  0  0  0  0  0  0  0
   10.6249   -7.3519   -9.1015 H   0  0  0  0  0  0  0  0  0  0  0  0
    8.3516   -7.1075  -10.4830 H   0  0  0  0  0  0  0  0  0  0  0  0
    7.5353   -8.0543  -12.3841 H   0  0  0  0  0  0  0  0  0  0  0  0
    7.8165   -6.3006  -12.5448 H   0  0  0  0  0  0  0  0  0  0  0  0
    6.7365   -7.1381  -13.6786 H   0  0  0  0  0  0  0  0  0  0  0  0
    5.2406   -8.9262  -11.6379 H   0  0  0  0  0  0  0  0  0  0  0  0
    4.5208   -8.0183  -12.9947 H   0  0  0  0  0  0  0  0  0  0  0  0
    3.8996   -7.7982  -11.3426 H   0  0  0  0  0  0  0  0  0  0  0  0
    5.9241   -4.6421  -12.0270 H   0  0  0  0  0  0  0  0  0  0  0  0
    4.3062   -5.2330  -11.5851 H   0  0  0  0  0  0  0  0  0  0  0  0
    4.9283   -5.5078  -13.2271 H   0  0  0  0  0  0  0  0  0  0  0  0
    4.1935   -6.3368   -9.5840 H   0  0  0  0  0  0  0  0  0  0  0  0
    4.6884   -6.2062   -7.1953 H   0  0  0  0  0  0  0  0  0  0  0  0
    8.1266   -8.8578   -4.4415 H   0  0  0  0  0  0  0  0  0  0  0  0
    9.3402  -10.8804   -5.0514 H   0  0  0  0  0  0  0  0  0  0  0  0
    9.9399  -13.0689   -4.9185 H   0  0  0  0  0  0  0  0  0  0  0  0
   10.5286  -12.2603   -6.3947 H   0  0  0  0  0  0  0  0  0  0  0  0
   10.4324  -14.0323   -6.3263 H   0  0  0  0  0  0  0  0  0  0  0  0
    7.6719  -14.2809   -4.9325 H   0  0  0  0  0  0  0  0  0  0  0  0
    8.2752  -15.2444   -6.3069 H   0  0  0  0  0  0  0  0  0  0  0  0
    6.7215  -14.3896   -6.4305 H   0  0  0  0  0  0  0  0  0  0  0  0
    9.1178  -14.0862   -8.4238 H   0  0  0  0  0  0  0  0  0  0  0  0
    7.5805  -13.2068   -8.5845 H   0  0  0  0  0  0  0  0  0  0  0  0
    9.1118  -12.3057   -8.5383 H   0  0  0  0  0  0  0  0  0  0  0  0
    5.9045  -12.3860   -7.2004 H   0  0  0  0  0  0  0  0  0  0  0  0
    3.4205  -11.5450   -7.7275 H   0  0  0  0  0  0  0  0  0  0  0  0
    1.4147  -12.5898   -7.9938 H   0  0  0  0  0  0  0  0  0  0  0  0
    1.9874  -11.7896   -9.4811 H   0  0  0  0  0  0  0  0  0  0  0  0
    0.2723  -12.2126   -9.2998 H   0  0  0  0  0  0  0  0  0  0  0  0
   -0.1004  -11.3252   -6.3540 H   0  0  0  0  0  0  0  0  0  0  0  0
   -1.2231  -11.0337   -7.7096 H   0  0  0  0  0  0  0  0  0  0  0  0
   -0.6450   -9.6738   -6.7196 H   0  0  0  0  0  0  0  0  0  0  0  0
    1.2963   -9.3671   -9.9855 H   0  0  0  0  0  0  0  0  0  0  0  0
    0.1838   -8.5043   -8.8987 H   0  0  0  0  0  0  0  0  0  0  0  0
   -0.4021   -9.8921   -9.8418 H   0  0  0  0  0  0  0  0  0  0  0  0
    1.0118   -8.0748   -6.8077 H   0  0  0  0  0  0  0  0  0  0  0  0
    2.8522   -7.0752   -5.5547 H   0  0  0  0  0  0  0  0  0  0  0  0
    6.3500   -9.4051   -2.6074 H   0  0  0  0  0  0  0  0  0  0  0  0
    6.3313  -11.6702   -1.6924 H   0  0  0  0  0  0  0  0  0  0  0  0
    4.7702  -12.5769    1.2349 H   0  0  0  0  0  0  0  0  0  0  0  0
    6.1877  -12.9193    0.2170 H   0  0  0  0  0  0  0  0  0  0  0  0
    5.2199  -14.2624    0.8636 H   0  0  0  0  0  0  0  0  0  0  0  0
    2.4049  -13.1226    0.3955 H   0  0  0  0  0  0  0  0  0  0  0  0
    2.9531  -14.7658    0.0044 H   0  0  0  0  0  0  0  0  0  0  0  0
    2.1694  -13.7784   -1.2460 H   0  0  0  0  0  0  0  0  0  0  0  0
    5.8395  -13.8691   -2.1885 H   0  0  0  0  0  0  0  0  0  0  0  0
    4.1908  -14.1761   -2.7750 H   0  0  0  0  0  0  0  0  0  0  0  0
    4.8867  -15.1981   -1.4888 H   0  0  0  0  0  0  0  0  0  0  0  0
    2.0423  -11.5087   -1.1720 H   0  0  0  0  0  0  0  0  0  0  0  0
    0.0971   -9.7311   -1.6127 H   0  0  0  0  0  0  0  0  0  0  0  0
   -1.8569   -9.2265   -0.5581 H   0  0  0  0  0  0  0  0  0  0  0  0
   -2.0980   -9.8718   -2.2030 H   0  0  0  0  0  0  0  0  0  0  0  0
   -3.3930   -8.9544   -1.4063 H   0  0  0  0  0  0  0  0  0  0  0  0
   -1.6596   -6.6941   -0.1858 H   0  0  0  0  0  0  0  0  0  0  0  0
   -3.2347   -6.5133   -1.0042 H   0  0  0  0  0  0  0  0  0  0  0  0
   -1.8308   -5.5670   -1.5487 H   0  0  0  0  0  0  0  0  0  0  0  0
   -2.2443   -8.2694   -4.2044 H   0  0  0  0  0  0  0  0  0  0  0  0
   -2.1868   -6.5093   -3.9541 H   0  0  0  0  0  0  0  0  0  0  0  0
   -3.5787   -7.4410   -3.3591 H   0  0  0  0  0  0  0  0  0  0  0  0
   -0.1929   -5.7029   -3.1562 H   0  0  0  0  0  0  0  0  0  0  0  0
    2.2181   -5.6245   -3.5299 H   0  0  0  0  0  0  0  0  0  0  0  0
  2  1  1  1
  1114  1  0
  1115  1  0
  1116  1  0
  2  3  1  0
  2  4  1  0
  2  5  1  0
  3117  1  0
  3118  1  0
  3119  1  0
  4120  1  0
  4121  1  0
  4122  1  0
  5  6  2  0
  5 10  1  0
  6  7  1  0
  6123  1  0
  7  8  2  0
  7124  1  0
  8  9  1  0
  8 21  1  0
  9 10  2  0
  9 11  1  0
 10125  1  0
 11 12  2  0
 11 20  1  0
 12 13  1  0
 12126  1  0
 13 14  1  0
 13 18  2  0
 14 15  1  1
 14 16  1  0
 14 17  1  0
 15127  1  0
 15128  1  0
 15129  1  0
 16130  1  0
 16131  1  0
 16132  1  0
 17133  1  0
 17134  1  0
 17135  1  0
 18 19  1  0
 18136  1  0
 19 20  2  0
 19137  1  0
 20 21  1  0
 21 22  1  0
 22 23  2  0
 22 92  1  0
 23 24  1  0
 23 26  1  0
 24 25  3  0
 26 27  1  0
 26 48  2  0
 27 28  1  0
 27 47  1  0
 28 29  2  0
 28 37  1  0
 29 30  1  0
 29138  1  0
 30 31  2  0
 30139  1  0
 31 32  1  0
 31 36  1  0
 32 33  1  6
 32 34  1  0
 32 35  1  0
 33140  1  0
 33141  1  0
 33142  1  0
 34143  1  0
 34144  1  0
 34145  1  0
 35146  1  0
 35147  1  0
 35148  1  0
 36 37  2  0
 36149  1  0
 37 38  1  0
 38 39  1  0
 38 47  2  0
 39 40  2  0
 39150  1  0
 40 41  1  0
 40 45  1  0
 41 42  1  6
 41 43  1  0
 41 44  1  0
 42151  1  0
 42152  1  0
 42153  1  0
 43154  1  0
 43155  1  0
 43156  1  0
 44157  1  0
 44158  1  0
 44159  1  0
 45 46  2  0
 45160  1  0
 46 47  1  0
 46161  1  0
 48 49  1  0
 48 70  1  0
 49 50  1  0
 49 69  1  0
 50 51  2  0
 50 59  1  0
 51 52  1  0
 51162  1  0
 52 53  2  0
 52163  1  0
 53 54  1  0
 53 58  1  0
 54 55  1  1
 54 56  1  0
 54 57  1  0
 55164  1  0
 55165  1  0
 55166  1  0
 56167  1  0
 56168  1  0
 56169  1  0
 57170  1  0
 57171  1  0
 57172  1  0
 58 59  2  0
 58173  1  0
 59 60  1  0
 60 61  1  0
 60 69  2  0
 61 62  2  0
 61174  1  0
 62 63  1  0
 62 67  1  0
 63 64  1  6
 63 65  1  0
 63 66  1  0
 64175  1  0
 64176  1  0
 64177  1  0
 65178  1  0
 65179  1  0
 65180  1  0
 66181  1  0
 66182  1  0
 66183  1  0
 67 68  2  0
 67184  1  0
 68 69  1  0
 68185  1  0
 70 71  1  0
 70 92  2  0
 71 72  1  0
 71 91  1  0
 72 73  2  0
 72 81  1  0
 73 74  1  0
 73186  1  0
 74 75  2  0
 74187  1  0
 75 76  1  0
 75 80  1  0
 76 77  1  1
 76 78  1  0
 76 79  1  0
 77188  1  0
 77189  1  0
 77190  1  0
 78191  1  0
 78192  1  0
 78193  1  0
 79194  1  0
 79195  1  0
 79196  1  0
 80 81  2  0
 80197  1  0
 81 82  1  0
 82 83  1  0
 82 91  2  0
 83 84  2  0
 83198  1  0
 84 85  1  0
 84 89  1  0
 85 86  1  6
 85 87  1  0
 85 88  1  0
 86199  1  0
 86200  1  0
 86201  1  0
 87202  1  0
 87203  1  0
 87204  1  0
 88205  1  0
 88206  1  0
 88207  1  0
 89 90  2  0
 89208  1  0
 90 91  1  0
 90209  1  0
 92 93  1  0
 93 94  1  0
 93113  1  0
 94 95  2  0
 94103  1  0
 95 96  1  0
 95210  1  0
 96 97  2  0
 96211  1  0
 97 98  1  0
 97102  1  0
 98 99  1  1
 98100  1  0
 98101  1  0
 99212  1  0
 99213  1  0
 99214  1  0
100215  1  0
100216  1  0
100217  1  0
101218  1  0
101219  1  0
101220  1  0
102103  2  0
102221  1  0
103104  1  0
104105  1  0
104113  2  0
105106  2  0
105222  1  0
106107  1  0
106111  1  0
107108  1  1
107109  1  0
107110  1  0
108223  1  0
108224  1  0
108225  1  0
109226  1  0
109227  1  0
109228  1  0
110229  1  0
110230  1  0
110231  1  0
111112  2  0
111232  1  0
112113  1  0
112233  1  0
M  END

