
     RDKit          3D

 31 32  0  0  0  0  0  0  0  0999 V2000
    0.8388   -0.1719    0.1538 C   0  0  0  0  0  0  0  0  0  0  0  0
    2.3720   -0.1200    0.1370 C   0  0  1  0  0  0  0  0  0  0  0  0
    2.8884    0.5419    1.3365 N   0  0  0  0  0  0  0  0  0  0  0  0
    3.0533    1.8773    1.4713 C   0  0  0  0  0  0  0  0  0  0  0  0
    2.7838    2.6775    0.4239 N   0  0  0  0  0  0  0  0  0  0  0  0
    2.9699    3.9864    0.5685 C   0  0  0  0  0  0  0  0  0  0  0  0
    3.3939    4.6276    1.6545 N   0  0  0  0  0  0  0  0  0  0  0  0
    3.6643    3.8500    2.7139 C   0  0  0  0  0  0  0  0  0  0  0  0
    3.5146    2.4739    2.6814 C   0  0  0  0  0  0  0  0  0  0  0  0
    3.9201    1.4078    4.2121 Br  0  0  0  0  0  0  0  0  0  0  0  0
    3.0331   -1.5001    0.0033 C   0  0  1  0  0  0  0  0  0  0  0  0
    2.6266   -2.3003   -1.2487 C   0  0  0  0  0  0  0  0  0  0  0  0
    3.7008   -3.3917   -1.3342 C   0  0  0  0  0  0  0  0  0  0  0  0
    5.0104   -2.6660   -0.9554 C   0  0  0  0  0  0  0  0  0  0  0  0
    4.5833   -1.4586   -0.0733 C   0  0  0  0  0  0  0  0  0  0  0  0
    0.4278    0.8424    0.2650 H   0  0  0  0  0  0  0  0  0  0  0  0
    0.4711   -0.7902    0.9901 H   0  0  0  0  0  0  0  0  0  0  0  0
    0.4449   -0.5942   -0.7831 H   0  0  0  0  0  0  0  0  0  0  0  0
    2.6849    0.5053   -0.7140 H   0  0  0  0  0  0  0  0  0  0  0  0
    3.0333   -0.0203    2.1681 H   0  0  0  0  0  0  0  0  0  0  0  0
    2.7432    4.6041   -0.3099 H   0  0  0  0  0  0  0  0  0  0  0  0
    4.0158    4.3418    3.6278 H   0  0  0  0  0  0  0  0  0  0  0  0
    2.7392   -2.1028    0.8862 H   0  0  0  0  0  0  0  0  0  0  0  0
    2.6764   -1.6452   -2.1383 H   0  0  0  0  0  0  0  0  0  0  0  0
    1.6042   -2.7049   -1.1969 H   0  0  0  0  0  0  0  0  0  0  0  0
    3.7467   -3.8792   -2.3206 H   0  0  0  0  0  0  0  0  0  0  0  0
    3.4757   -4.1813   -0.5965 H   0  0  0  0  0  0  0  0  0  0  0  0
    5.5243   -2.3102   -1.8627 H   0  0  0  0  0  0  0  0  0  0  0  0
    5.7171   -3.3342   -0.4398 H   0  0  0  0  0  0  0  0  0  0  0  0
    4.9056   -0.5098   -0.5325 H   0  0  0  0  0  0  0  0  0  0  0  0
    5.0419   -1.4868    0.9266 H   0  0  0  0  0  0  0  0  0  0  0  0
  1  2  1  0
  1 16  1  0
  1 17  1  0
  1 18  1  0
  2  3  1  0
  2 11  1  0
  2 19  1  6
  3  4  1  0
  3 20  1  0
  4  5  2  0
  4  9  1  0
  5  6  1  0
  6  7  2  0
  6 21  1  0
  7  8  1  0
  8  9  2  0
  8 22  1  0
  9 10  1  0
 11 12  1  0
 11 15  1  0
 11 23  1  1
 12 13  1  0
 12 24  1  0
 12 25  1  0
 13 14  1  0
 13 26  1  0
 13 27  1  0
 14 15  1  0
 14 28  1  0
 14 29  1  0
 15 30  1  0
 15 31  1  0
M  END

