
     RDKit          3D

 39 43  0  0  0  0  0  0  0  0999 V2000
    3.5739    1.6591   -0.2921 C   0  0  0  0  0  0  0  0  0  0  0  0
    2.6941    0.4116   -0.4315 C   0  0  1  0  0  0  0  0  0  0  0  0
    1.2534    0.7419   -0.8380 C   0  0  0  0  0  0  0  0  0  0  0  0
    3.2973   -0.5699   -1.3457 N   0  0  0  0  0  0  0  0  0  0  0  0
    3.7029   -1.8472   -0.9245 C   0  0  0  0  0  0  0  0  0  0  0  0
    3.6106   -2.2790    0.2018 O   0  0  0  0  0  0  0  0  0  0  0  0
    4.2598   -2.5191   -2.1383 C   0  0  0  0  0  0  0  0  0  0  0  0
    4.7961   -3.7886   -2.2650 C   0  0  0  0  0  0  0  0  0  0  0  0
    5.2591   -4.1975   -3.5357 C   0  0  0  0  0  0  0  0  0  0  0  0
    5.8282   -5.5010   -3.7435 C   0  0  0  0  0  0  0  0  0  0  0  0
    6.2748   -5.8946   -4.9720 C   0  0  0  0  0  0  0  0  0  0  0  0
    6.1946   -5.0218   -6.1109 C   0  0  0  0  0  0  0  0  0  0  0  0
    6.6490   -5.4088   -7.3859 C   0  0  0  0  0  0  0  0  0  0  0  0
    6.5565   -4.5372   -8.4710 C   0  0  0  0  0  0  0  0  0  0  0  0
    6.0100   -3.2618   -8.3109 C   0  0  0  0  0  0  0  0  0  0  0  0
    5.5426   -2.8295   -7.0571 C   0  0  0  0  0  0  0  0  0  0  0  0
    4.9756   -1.5216   -6.8605 C   0  0  0  0  0  0  0  0  0  0  0  0
    4.5248   -1.1113   -5.6397 C   0  0  0  0  0  0  0  0  0  0  0  0
    4.6037   -1.9846   -4.4991 C   0  0  0  0  0  0  0  0  0  0  0  0
    4.1605   -1.6324   -3.2155 C   0  0  0  0  0  0  0  0  0  0  0  0
    3.5407   -0.3688   -2.7150 C   0  0  0  0  0  0  0  0  0  0  0  0
    3.2806    0.6461   -3.3290 O   0  0  0  0  0  0  0  0  0  0  0  0
    5.1647   -3.3000   -4.6536 C   0  0  0  0  0  0  0  0  0  0  0  0
    5.6332   -3.7169   -5.9377 C   0  0  0  0  0  0  0  0  0  0  0  0
    3.1464    2.3351    0.4649 H   0  0  0  0  0  0  0  0  0  0  0  0
    3.6418    2.2037   -1.2452 H   0  0  0  0  0  0  0  0  0  0  0  0
    4.5912    1.3886    0.0311 H   0  0  0  0  0  0  0  0  0  0  0  0
    2.6748   -0.1155    0.5348 H   0  0  0  0  0  0  0  0  0  0  0  0
    1.2241    1.2454   -1.8153 H   0  0  0  0  0  0  0  0  0  0  0  0
    0.7975    1.4091   -0.0898 H   0  0  0  0  0  0  0  0  0  0  0  0
    0.6417   -0.1718   -0.8949 H   0  0  0  0  0  0  0  0  0  0  0  0
    4.8586   -4.4570   -1.4032 H   0  0  0  0  0  0  0  0  0  0  0  0
    5.8967   -6.1775   -2.8878 H   0  0  0  0  0  0  0  0  0  0  0  0
    6.7048   -6.8904   -5.1089 H   0  0  0  0  0  0  0  0  0  0  0  0
    7.0776   -6.4058   -7.5175 H   0  0  0  0  0  0  0  0  0  0  0  0
    6.9141   -4.8542   -9.4537 H   0  0  0  0  0  0  0  0  0  0  0  0
    5.9409   -2.5842   -9.1660 H   0  0  0  0  0  0  0  0  0  0  0  0
    4.9112   -0.8510   -7.7217 H   0  0  0  0  0  0  0  0  0  0  0  0
    4.0957   -0.1192   -5.4944 H   0  0  0  0  0  0  0  0  0  0  0  0
  1  2  1  0
  1 25  1  0
  1 26  1  0
  1 27  1  0
  2  3  1  0
  2  4  1  0
  2 28  1  1
  3 29  1  0
  3 30  1  0
  3 31  1  0
  4  5  1  0
  4 21  1  0
  5  6  2  0
  5  7  1  0
  7  8  2  0
  7 20  1  0
  8  9  1  0
  8 32  1  0
  9 10  2  0
  9 23  1  0
 10 11  1  0
 10 33  1  0
 11 12  2  0
 11 34  1  0
 12 13  1  0
 12 24  1  0
 13 14  2  0
 13 35  1  0
 14 15  1  0
 14 36  1  0
 15 16  2  0
 15 37  1  0
 16 17  1  0
 16 24  1  0
 17 18  2  0
 17 38  1  0
 18 19  1  0
 18 39  1  0
 19 20  2  0
 19 23  1  0
 20 21  1  0
 21 22  2  0
 23 24  2  0
M  END

