
     RDKit          3D

 50 52  0  0  0  0  0  0  0  0999 V2000
    6.1015   -4.0692   -3.1315 C   0  0  0  0  0  0  0  0  0  0  0  0
    5.0395   -3.4593   -2.4244 O   0  0  0  0  0  0  0  0  0  0  0  0
    4.0656   -2.8117   -3.1046 C   0  0  0  0  0  0  0  0  0  0  0  0
    4.0479   -2.6373   -4.4947 C   0  0  0  0  0  0  0  0  0  0  0  0
    2.9816   -1.9731   -5.1122 C   0  0  0  0  0  0  0  0  0  0  0  0
    1.9278   -1.4691   -4.3514 C   0  0  0  0  0  0  0  0  0  0  0  0
    1.9523   -1.6213   -2.9616 C   0  0  0  0  0  0  0  0  0  0  0  0
    3.0007   -2.2936   -2.3274 C   0  0  0  0  0  0  0  0  0  0  0  0
    2.9712   -2.5190   -0.9277 N   0  0  0  0  0  0  0  0  0  0  0  0
    4.0579   -1.7972    0.1531 S   0  0  1  0  0  0  0  0  0  0  0  0
    4.8518   -0.7958   -0.5607 O   0  0  0  0  0  0  0  0  0  0  0  0
    3.2624   -1.4484    1.3294 O   0  0  0  0  0  0  0  0  0  0  0  0
    5.1927   -3.1187    0.6236 C   0  0  0  0  0  0  0  0  0  0  0  0
    6.5469   -2.8838    0.3812 C   0  0  0  0  0  0  0  0  0  0  0  0
    7.5111   -3.8371    0.7201 C   0  0  0  0  0  0  0  0  0  0  0  0
    8.8734   -3.5264    0.4845 N   0  0  0  0  0  0  0  0  0  0  0  0
    9.8077   -4.2995   -0.1463 C   0  0  0  0  0  0  0  0  0  0  0  0
    9.5327   -5.8404   -0.7441 S   0  0  0  0  0  0  0  0  0  0  0  0
   11.0548   -3.7372   -0.2711 N   0  0  0  0  0  0  0  0  0  0  0  0
   11.5181   -2.4452    0.0847 C   0  0  0  0  0  0  0  0  0  0  0  0
   12.7204   -2.3296    0.8026 C   0  0  0  0  0  0  0  0  0  0  0  0
   13.2116   -1.0663    1.1264 C   0  0  0  0  0  0  0  0  0  0  0  0
   12.5092    0.0865    0.7600 C   0  0  0  0  0  0  0  0  0  0  0  0
   11.3104   -0.0060    0.0392 C   0  0  0  0  0  0  0  0  0  0  0  0
   10.5489    1.2263   -0.3854 C   0  0  0  0  0  0  0  0  0  0  0  0
   10.8343   -1.2824   -0.3058 C   0  0  0  0  0  0  0  0  0  0  0  0
    7.1039   -5.0429    1.3101 C   0  0  0  0  0  0  0  0  0  0  0  0
    5.7522   -5.2764    1.5538 C   0  0  0  0  0  0  0  0  0  0  0  0
    4.7867   -4.3189    1.2219 C   0  0  0  0  0  0  0  0  0  0  0  0
    3.1156   -4.6782    1.5574 Cl  0  0  0  0  0  0  0  0  0  0  0  0
    6.7449   -4.5524   -2.3843 H   0  0  0  0  0  0  0  0  0  0  0  0
    6.6962   -3.3261   -3.6918 H   0  0  0  0  0  0  0  0  0  0  0  0
    5.7301   -4.8341   -3.8361 H   0  0  0  0  0  0  0  0  0  0  0  0
    4.8605   -3.0304   -5.1054 H   0  0  0  0  0  0  0  0  0  0  0  0
    2.9837   -1.8536   -6.1984 H   0  0  0  0  0  0  0  0  0  0  0  0
    1.0943   -0.9496   -4.8290 H   0  0  0  0  0  0  0  0  0  0  0  0
    1.1424   -1.2176   -2.3481 H   0  0  0  0  0  0  0  0  0  0  0  0
    2.0507   -2.5156   -0.4947 H   0  0  0  0  0  0  0  0  0  0  0  0
    6.8274   -1.9494   -0.1068 H   0  0  0  0  0  0  0  0  0  0  0  0
    9.1487   -2.5788    0.7264 H   0  0  0  0  0  0  0  0  0  0  0  0
   11.7409   -4.4027   -0.6131 H   0  0  0  0  0  0  0  0  0  0  0  0
   13.2557   -3.2322    1.1066 H   0  0  0  0  0  0  0  0  0  0  0  0
   14.1484   -0.9781    1.6824 H   0  0  0  0  0  0  0  0  0  0  0  0
   12.9015    1.0702    1.0302 H   0  0  0  0  0  0  0  0  0  0  0  0
   11.0889    2.1461   -0.1186 H   0  0  0  0  0  0  0  0  0  0  0  0
    9.5561    1.2685    0.0930 H   0  0  0  0  0  0  0  0  0  0  0  0
   10.3800    1.2362   -1.4746 H   0  0  0  0  0  0  0  0  0  0  0  0
    9.9358   -1.3671   -0.9227 H   0  0  0  0  0  0  0  0  0  0  0  0
    7.8447   -5.7977    1.5690 H   0  0  0  0  0  0  0  0  0  0  0  0
    5.4305   -6.2111    2.0156 H   0  0  0  0  0  0  0  0  0  0  0  0
  1  2  1  0
  1 31  1  0
  1 32  1  0
  1 33  1  0
  2  3  1  0
  3  4  2  0
  3  8  1  0
  4  5  1  0
  4 34  1  0
  5  6  2  0
  5 35  1  0
  6  7  1  0
  6 36  1  0
  7  8  2  0
  7 37  1  0
  8  9  1  0
 10  9  1  6
  9 38  1  0
 10 11  2  0
 10 12  2  0
 10 13  1  0
 13 14  2  0
 13 29  1  0
 14 15  1  0
 14 39  1  0
 15 16  1  0
 15 27  2  0
 16 17  1  0
 16 40  1  0
 17 18  2  0
 17 19  1  0
 19 20  1  0
 19 41  1  0
 20 21  2  0
 20 26  1  0
 21 22  1  0
 21 42  1  0
 22 23  2  0
 22 43  1  0
 23 24  1  0
 23 44  1  0
 24 25  1  0
 24 26  2  0
 25 45  1  0
 25 46  1  0
 25 47  1  0
 26 48  1  0
 27 28  1  0
 27 49  1  0
 28 29  2  0
 28 50  1  0
 29 30  1  0
M  END

