
     RDKit          3D

 47 49  0  0  0  0  0  0  0  0999 V2000
    1.0600   -0.6377    0.4498 C   0  0  0  0  0  0  0  0  0  0  0  0
    2.5393   -0.4295    0.2648 C   0  0  0  0  0  0  0  0  0  0  0  0
    3.3174   -1.5133    0.1540 N   0  0  0  0  0  0  0  0  0  0  0  0
    4.6360   -1.3787   -0.0103 C   0  0  0  0  0  0  0  0  0  0  0  0
    5.2453   -0.1279   -0.0796 C   0  0  0  0  0  0  0  0  0  0  0  0
    4.4554    1.0149    0.0179 C   0  0  0  0  0  0  0  0  0  0  0  0
    3.0871    0.8692    0.2089 C   0  0  0  0  0  0  0  0  0  0  0  0
    2.2806    1.9776    0.4186 O   0  0  0  0  0  0  0  0  0  0  0  0
    1.6148    2.5279   -0.6461 C   0  0  0  0  0  0  0  0  0  0  0  0
    1.6748    2.0615   -1.7517 O   0  0  0  0  0  0  0  0  0  0  0  0
    0.8017    3.7538   -0.2209 C   0  0  1  0  0  0  0  0  0  0  0  0
    1.7473    4.7992    0.4073 C   0  0  0  0  0  0  0  0  0  0  0  0
    0.1127    4.3361   -1.4638 C   0  0  0  0  0  0  0  0  0  0  0  0
   -0.2541    3.3131    0.8171 C   0  0  0  0  0  0  0  0  0  0  0  0
    5.3199    2.2564   -0.0701 C   0  0  2  0  0  0  0  0  0  0  0  0
    4.9311    3.1993   -1.0661 N   0  0  0  0  0  0  0  0  0  0  0  0
    5.5345    4.5304   -0.9813 C   0  0  0  0  0  0  0  0  0  0  0  0
    6.8370    4.6345   -1.7807 C   0  0  0  0  0  0  0  0  0  0  0  0
    6.6250    4.2500   -3.1267 O   0  0  0  0  0  0  0  0  0  0  0  0
    6.1456    2.9199   -3.2275 C   0  0  0  0  0  0  0  0  0  0  0  0
    4.8312    2.7481   -2.4593 C   0  0  0  0  0  0  0  0  0  0  0  0
    6.6579    1.7090   -0.2574 O   0  0  0  0  0  0  0  0  0  0  0  0
    6.6853    0.2894   -0.2266 C   0  0  0  0  0  0  0  0  0  0  0  0
    0.8634   -1.7085    0.5858 H   0  0  0  0  0  0  0  0  0  0  0  0
    0.5035   -0.2859   -0.4350 H   0  0  0  0  0  0  0  0  0  0  0  0
    0.6783   -0.0818    1.3209 H   0  0  0  0  0  0  0  0  0  0  0  0
    5.2192   -2.3045   -0.0851 H   0  0  0  0  0  0  0  0  0  0  0  0
    2.5333    5.1009   -0.3013 H   0  0  0  0  0  0  0  0  0  0  0  0
    2.2349    4.4056    1.3105 H   0  0  0  0  0  0  0  0  0  0  0  0
    1.1732    5.6970    0.6865 H   0  0  0  0  0  0  0  0  0  0  0  0
    0.8489    4.6496   -2.2187 H   0  0  0  0  0  0  0  0  0  0  0  0
   -0.4893    5.2139   -1.1813 H   0  0  0  0  0  0  0  0  0  0  0  0
   -0.5503    3.5971   -1.9369 H   0  0  0  0  0  0  0  0  0  0  0  0
    0.2188    2.9012    1.7203 H   0  0  0  0  0  0  0  0  0  0  0  0
   -0.9311    2.5497    0.4015 H   0  0  0  0  0  0  0  0  0  0  0  0
   -0.8662    4.1797    1.1136 H   0  0  0  0  0  0  0  0  0  0  0  0
    5.3146    2.7966    0.8950 H   0  0  0  0  0  0  0  0  0  0  0  0
    5.7066    4.7881    0.0761 H   0  0  0  0  0  0  0  0  0  0  0  0
    4.8169    5.2643   -1.3925 H   0  0  0  0  0  0  0  0  0  0  0  0
    7.6151    4.0001   -1.3128 H   0  0  0  0  0  0  0  0  0  0  0  0
    7.1973    5.6757   -1.7995 H   0  0  0  0  0  0  0  0  0  0  0  0
    6.9048    2.2109   -2.8446 H   0  0  0  0  0  0  0  0  0  0  0  0
    5.9900    2.7202   -4.2997 H   0  0  0  0  0  0  0  0  0  0  0  0
    4.4905    1.7031   -2.4887 H   0  0  0  0  0  0  0  0  0  0  0  0
    4.0486    3.3482   -2.9552 H   0  0  0  0  0  0  0  0  0  0  0  0
    7.3008   -0.0637    0.6237 H   0  0  0  0  0  0  0  0  0  0  0  0
    7.1485   -0.1037   -1.1517 H   0  0  0  0  0  0  0  0  0  0  0  0
  1  2  1  0
  1 24  1  0
  1 25  1  0
  1 26  1  0
  2  3  2  0
  2  7  1  0
  3  4  1  0
  4  5  2  0
  4 27  1  0
  5  6  1  0
  5 23  1  0
  6  7  2  0
  6 15  1  0
  7  8  1  0
  8  9  1  0
  9 10  2  0
 11  9  1  6
 11 12  1  0
 11 13  1  0
 11 14  1  0
 12 28  1  0
 12 29  1  0
 12 30  1  0
 13 31  1  0
 13 32  1  0
 13 33  1  0
 14 34  1  0
 14 35  1  0
 14 36  1  0
 15 16  1  0
 15 22  1  0
 15 37  1  1
 16 17  1  0
 16 21  1  0
 17 18  1  0
 17 38  1  0
 17 39  1  0
 18 19  1  0
 18 40  1  0
 18 41  1  0
 19 20  1  0
 20 21  1  0
 20 42  1  0
 20 43  1  0
 21 44  1  0
 21 45  1  0
 22 23  1  0
 23 46  1  0
 23 47  1  0
M  END

