
     RDKit          3D

 56 58  0  0  0  0  0  0  0  0999 V2000
    4.3862   -0.3267    0.6977 C   0  0  0  0  0  0  0  0  0  0  0  0
    3.2794    0.2675   -0.1583 C   0  0  2  0  0  0  0  0  0  0  0  0
    3.6785    0.7229   -1.0759 H   0  0  0  0  0  0  0  0  0  0  0  0
    2.5817    1.2511    0.5962 O   0  0  0  0  0  0  0  0  0  0  0  0
    2.3232    2.4685    0.0479 C   0  0  0  0  0  0  0  0  0  0  0  0
    1.5329    3.3524    0.8047 C   0  0  0  0  0  0  0  0  0  0  0  0
    1.2634    4.6088    0.2883 C   0  0  0  0  0  0  0  0  0  0  0  0
    1.7868    4.9655   -0.9777 C   0  0  0  0  0  0  0  0  0  0  0  0
    1.5443    6.2200   -1.5779 N   0  0  0  0  0  0  0  0  0  0  0  0
    1.9669    6.5064   -2.9504 C   0  0  0  0  0  0  0  0  0  0  0  0
    1.2770    7.8359   -3.2841 C   0  0  0  0  0  0  0  0  0  0  0  0
    1.0842    8.5289   -1.9203 C   0  0  2  0  0  0  0  0  0  0  0  0
   -0.2000    9.3695   -1.8056 C   0  0  0  0  0  0  0  0  0  0  0  0
   -0.1162   10.6928   -2.5762 C   0  0  0  0  0  0  0  0  0  0  0  0
    1.1085   11.5618   -2.2187 C   0  0  1  0  0  0  0  0  0  0  0  0
    1.2754   12.5909   -3.1854 O   0  0  0  0  0  0  0  0  0  0  0  0
    0.9234   12.1864   -0.8251 C   0  0  0  0  0  0  0  0  0  0  0  0
    2.0949   12.8627   -0.4377 O   0  0  0  0  0  0  0  0  0  0  0  0
    2.0419   13.4278    0.8334 C   0  0  0  0  0  0  0  0  0  0  0  0
    3.3898   14.0544    1.1456 C   0  0  1  0  0  0  0  0  0  0  0  0
    4.3771   13.1502    1.1125 F   0  0  0  0  0  0  0  0  0  0  0  0
    3.6979   15.0333    0.2867 F   0  0  0  0  0  0  0  0  0  0  0  0
    3.3569   14.5854    2.3820 F   0  0  0  0  0  0  0  0  0  0  0  0
    2.3875   10.7147   -2.3026 C   0  0  0  0  0  0  0  0  0  0  0  0
    2.3050    9.4025   -1.5179 C   0  0  0  0  0  0  0  0  0  0  0  0
    1.0240    7.3382   -0.9480 C   0  0  0  0  0  0  0  0  0  0  0  0
    0.6162    7.3982    0.1966 O   0  0  0  0  0  0  0  0  0  0  0  0
    2.5661    4.0020   -1.6355 C   0  0  0  0  0  0  0  0  0  0  0  0
    2.8209    2.7903   -1.1296 N   0  0  0  0  0  0  0  0  0  0  0  0
    2.2605   -0.7833   -0.6026 C   0  0  1  0  0  0  0  0  0  0  0  0
    1.7270   -1.4474    0.4341 F   0  0  0  0  0  0  0  0  0  0  0  0
    1.2533   -0.2258   -1.2895 F   0  0  0  0  0  0  0  0  0  0  0  0
    2.8518   -1.6901   -1.4039 F   0  0  0  0  0  0  0  0  0  0  0  0
    3.9712   -0.7398    1.6286 H   0  0  0  0  0  0  0  0  0  0  0  0
    5.1149    0.4558    0.9521 H   0  0  0  0  0  0  0  0  0  0  0  0
    4.9056   -1.1285    0.1530 H   0  0  0  0  0  0  0  0  0  0  0  0
    1.1464    3.0379    1.7752 H   0  0  0  0  0  0  0  0  0  0  0  0
    0.6633    5.3270    0.8422 H   0  0  0  0  0  0  0  0  0  0  0  0
    1.6565    5.6949   -3.6265 H   0  0  0  0  0  0  0  0  0  0  0  0
    3.0682    6.5807   -3.0095 H   0  0  0  0  0  0  0  0  0  0  0  0
    0.2947    7.6362   -3.7417 H   0  0  0  0  0  0  0  0  0  0  0  0
    1.8605    8.4267   -4.0038 H   0  0  0  0  0  0  0  0  0  0  0  0
   -0.3854    9.5468   -0.7340 H   0  0  0  0  0  0  0  0  0  0  0  0
   -1.0617    8.7831   -2.1665 H   0  0  0  0  0  0  0  0  0  0  0  0
   -1.0438   11.2746   -2.4238 H   0  0  0  0  0  0  0  0  0  0  0  0
   -0.0493   10.5005   -3.6599 H   0  0  0  0  0  0  0  0  0  0  0  0
    0.5021   13.1705   -3.1552 H   0  0  0  0  0  0  0  0  0  0  0  0
    0.6634   11.4120   -0.0774 H   0  0  0  0  0  0  0  0  0  0  0  0
    0.0641   12.8912   -0.8644 H   0  0  0  0  0  0  0  0  0  0  0  0
    1.8320   12.6778    1.6222 H   0  0  0  0  0  0  0  0  0  0  0  0
    1.2754   14.2249    0.9128 H   0  0  0  0  0  0  0  0  0  0  0  0
    3.2338   11.3209   -1.9491 H   0  0  0  0  0  0  0  0  0  0  0  0
    2.5622   10.5194   -3.3730 H   0  0  0  0  0  0  0  0  0  0  0  0
    2.2348    9.6089   -0.4370 H   0  0  0  0  0  0  0  0  0  0  0  0
    3.2395    8.8329   -1.6559 H   0  0  0  0  0  0  0  0  0  0  0  0
    3.0117    4.2075   -2.6122 H   0  0  0  0  0  0  0  0  0  0  0  0
  1  2  1  0
  1 34  1  0
  1 35  1  0
  1 36  1  0
  2  3  1  6
  2  4  1  0
  2 30  1  0
  4  5  1  0
  5  6  2  0
  5 29  1  0
  6  7  1  0
  6 37  1  0
  7  8  2  0
  7 38  1  0
  8  9  1  0
  8 28  1  0
  9 10  1  0
  9 26  1  0
 10 11  1  0
 10 39  1  0
 10 40  1  0
 11 12  1  0
 11 41  1  0
 11 42  1  0
 12 13  1  0
 12 25  1  0
 12 26  1  1
 13 14  1  0
 13 43  1  0
 13 44  1  0
 14 15  1  0
 14 45  1  0
 14 46  1  0
 15 16  1  6
 15 17  1  0
 15 24  1  0
 16 47  1  0
 17 18  1  0
 17 48  1  0
 17 49  1  0
 18 19  1  0
 19 20  1  0
 19 50  1  0
 19 51  1  0
 20 21  1  1
 20 22  1  0
 20 23  1  0
 24 25  1  0
 24 52  1  0
 24 53  1  0
 25 54  1  0
 25 55  1  0
 26 27  2  0
 28 29  2  0
 28 56  1  0
 30 31  1  1
 30 32  1  0
 30 33  1  0
M  END

