
     RDKit          3D

 32 32  0  0  0  0  0  0  0  0999 V2000
    2.6956    1.2295   -0.7159 C   0  0  0  0  0  0  0  0  0  0  0  0
    2.3719    0.0646    0.2198 C   0  0  0  0  0  0  0  0  0  0  0  0
    2.8476   -1.2987   -0.2969 C   0  0  0  0  0  0  0  0  0  0  0  0
    4.2996   -1.4140   -0.4376 N   0  0  0  0  0  0  0  0  0  0  0  0
    5.0000   -1.5855    0.8298 C   0  0  0  0  0  0  0  0  0  0  0  0
    6.3241   -0.8269    0.8236 C   0  0  0  0  0  0  0  0  0  0  0  0
    7.3119   -1.0917    2.5098 Br  0  0  0  0  0  0  0  0  0  0  0  0
    4.7189   -2.3664   -1.4657 C   0  0  0  0  0  0  0  0  0  0  0  0
    4.6038   -1.8350   -2.8890 C   0  0  1  0  0  0  0  0  0  0  0  0
    5.5481   -0.6919   -3.3484 C   0  0  0  0  0  0  0  0  0  0  0  0
    5.7198   -1.4242   -4.7047 C   0  0  0  0  0  0  0  0  0  0  0  0
    5.1633   -2.7118   -4.0435 C   0  0  0  0  0  0  0  0  0  0  0  0
    2.3597    2.1898   -0.2935 H   0  0  0  0  0  0  0  0  0  0  0  0
    2.2005    1.1046   -1.6939 H   0  0  0  0  0  0  0  0  0  0  0  0
    3.7785    1.2950   -0.9008 H   0  0  0  0  0  0  0  0  0  0  0  0
    1.2811    0.0008    0.3797 H   0  0  0  0  0  0  0  0  0  0  0  0
    2.8039    0.2569    1.2179 H   0  0  0  0  0  0  0  0  0  0  0  0
    2.3979   -1.4647   -1.2888 H   0  0  0  0  0  0  0  0  0  0  0  0
    2.4452   -2.1050    0.3572 H   0  0  0  0  0  0  0  0  0  0  0  0
    5.1818   -2.6545    1.0693 H   0  0  0  0  0  0  0  0  0  0  0  0
    4.3813   -1.1896    1.6482 H   0  0  0  0  0  0  0  0  0  0  0  0
    6.1651    0.2533    0.7209 H   0  0  0  0  0  0  0  0  0  0  0  0
    6.9987   -1.1674    0.0281 H   0  0  0  0  0  0  0  0  0  0  0  0
    4.1574   -3.3263   -1.3824 H   0  0  0  0  0  0  0  0  0  0  0  0
    5.7761   -2.6232   -1.2862 H   0  0  0  0  0  0  0  0  0  0  0  0
    3.5573   -1.5635   -3.1074 H   0  0  0  0  0  0  0  0  0  0  0  0
    6.4826   -0.6829   -2.7631 H   0  0  0  0  0  0  0  0  0  0  0  0
    5.1430    0.3312   -3.3630 H   0  0  0  0  0  0  0  0  0  0  0  0
    6.7324   -1.4709   -5.1340 H   0  0  0  0  0  0  0  0  0  0  0  0
    5.0375   -1.0304   -5.4745 H   0  0  0  0  0  0  0  0  0  0  0  0
    5.9717   -3.3745   -3.6915 H   0  0  0  0  0  0  0  0  0  0  0  0
    4.4475   -3.3189   -4.6197 H   0  0  0  0  0  0  0  0  0  0  0  0
  1  2  1  0
  1 13  1  0
  1 14  1  0
  1 15  1  0
  2  3  1  0
  2 16  1  0
  2 17  1  0
  3  4  1  0
  3 18  1  0
  3 19  1  0
  4  5  1  0
  4  8  1  0
  5  6  1  0
  5 20  1  0
  5 21  1  0
  6  7  1  0
  6 22  1  0
  6 23  1  0
  8  9  1  0
  8 24  1  0
  8 25  1  0
  9 10  1  0
  9 12  1  0
  9 26  1  6
 10 11  1  0
 10 27  1  0
 10 28  1  0
 11 12  1  0
 11 29  1  0
 11 30  1  0
 12 31  1  0
 12 32  1  0
M  END

