
     RDKit          3D

 25 25  0  0  0  0  0  0  0  0999 V2000
    1.8205    1.0205   -0.4279 C   0  0  0  0  0  0  0  0  0  0  0  0
    2.4418    0.0424    0.2326 C   0  0  0  0  0  0  0  0  0  0  0  0
    3.0859   -1.1613   -0.4166 C   0  0  1  0  0  0  0  0  0  0  0  0
    2.4198   -2.4556    0.0469 C   0  0  0  0  0  0  0  0  0  0  0  0
    2.8880   -1.0734   -1.8036 F   0  0  0  0  0  0  0  0  0  0  0  0
    4.6151   -1.1336   -0.1738 C   0  0  0  0  0  0  0  0  0  0  0  0
    5.3917   -2.2991   -0.7472 C   0  0  0  0  0  0  0  0  0  0  0  0
    5.5719   -2.4310   -2.1353 C   0  0  0  0  0  0  0  0  0  0  0  0
    6.2878   -3.5075   -2.6638 C   0  0  0  0  0  0  0  0  0  0  0  0
    6.8401   -4.4732   -1.8155 C   0  0  0  0  0  0  0  0  0  0  0  0
    6.6705   -4.3531   -0.4340 C   0  0  0  0  0  0  0  0  0  0  0  0
    5.9519   -3.2748    0.0921 C   0  0  0  0  0  0  0  0  0  0  0  0
    1.3720    1.8654    0.1013 H   0  0  0  0  0  0  0  0  0  0  0  0
    1.7418    1.0008   -1.5175 H   0  0  0  0  0  0  0  0  0  0  0  0
    2.5133    0.0703    1.3264 H   0  0  0  0  0  0  0  0  0  0  0  0
    1.3495   -2.4298   -0.2052 H   0  0  0  0  0  0  0  0  0  0  0  0
    2.5177   -2.5776    1.1368 H   0  0  0  0  0  0  0  0  0  0  0  0
    2.8810   -3.3241   -0.4446 H   0  0  0  0  0  0  0  0  0  0  0  0
    4.7850   -1.0731    0.9130 H   0  0  0  0  0  0  0  0  0  0  0  0
    4.9809   -0.1866   -0.6030 H   0  0  0  0  0  0  0  0  0  0  0  0
    5.1382   -1.6839   -2.8029 H   0  0  0  0  0  0  0  0  0  0  0  0
    6.4179   -3.5919   -3.7460 H   0  0  0  0  0  0  0  0  0  0  0  0
    7.4028   -5.3135   -2.2303 H   0  0  0  0  0  0  0  0  0  0  0  0
    7.1011   -5.0993    0.2390 H   0  0  0  0  0  0  0  0  0  0  0  0
    5.8288   -3.1868    1.1758 H   0  0  0  0  0  0  0  0  0  0  0  0
  1  2  2  0
  1 13  1  0
  1 14  1  0
  2  3  1  0
  2 15  1  0
  3  4  1  0
  3  5  1  6
  3  6  1  0
  4 16  1  0
  4 17  1  0
  4 18  1  0
  6  7  1  0
  6 19  1  0
  6 20  1  0
  7  8  2  0
  7 12  1  0
  8  9  1  0
  8 21  1  0
  9 10  2  0
  9 22  1  0
 10 11  1  0
 10 23  1  0
 11 12  2  0
 11 24  1  0
 12 25  1  0
M  END

