
     RDKit          3D

 74 75  0  0  0  0  0  0  0  0999 V2000
    1.2448    5.9160   -0.1545 C   0  0  0  0  0  0  0  0  0  0  0  0
    2.5163    5.4128   -0.5613 O   0  0  0  0  0  0  0  0  0  0  0  0
    2.9714    4.3274    0.0895 C   0  0  0  0  0  0  0  0  0  0  0  0
    2.3651    3.7992    0.9931 O   0  0  0  0  0  0  0  0  0  0  0  0
    4.3063    3.8643   -0.4797 C   0  0  2  0  0  0  0  0  0  0  0  0
    4.8922    4.7815   -0.6480 H   0  0  0  0  0  0  0  0  0  0  0  0
    4.1386    3.2164   -1.8903 C   0  0  0  0  0  0  0  0  0  0  0  0
    3.5890    1.7862   -1.9606 C   0  0  0  0  0  0  0  0  0  0  0  0
    2.1496    1.5899   -1.4782 C   0  0  0  0  0  0  0  0  0  0  0  0
    1.6829    0.2565   -1.7844 N   0  0  0  0  0  0  0  0  0  0  0  0
    0.5272   -0.0961   -1.3563 C   0  0  0  0  0  0  0  0  0  0  0  0
   -0.3113    0.6692   -0.5692 N   0  0  0  0  0  0  0  0  0  0  0  0
   -0.0232   -1.3155   -1.7586 N   0  0  0  0  0  0  0  0  0  0  0  0
    4.9747    3.0700    0.5382 N   0  0  0  0  0  0  0  0  0  0  0  0
    6.2788    2.5070    0.2419 C   0  0  0  0  0  0  0  0  0  0  0  0
    7.3911    3.5497    0.2548 C   0  0  2  0  0  0  0  0  0  0  0  0
    7.2692    4.1797    1.1601 H   0  0  0  0  0  0  0  0  0  0  0  0
    7.3265    4.3752   -0.9060 O   0  0  0  0  0  0  0  0  0  0  0  0
    8.5495    5.0935   -0.9687 C   0  0  2  0  0  0  0  0  0  0  0  0
    8.5399    5.9078   -0.2153 H   0  0  0  0  0  0  0  0  0  0  0  0
    8.7074    5.7012   -2.3585 C   0  0  0  0  0  0  0  0  0  0  0  0
    9.9371    6.6017   -2.4585 C   0  0  0  0  0  0  0  0  0  0  0  0
    9.9015    7.7829   -2.1558 O   0  0  0  0  0  0  0  0  0  0  0  0
   11.0733    5.9772   -2.8989 N   0  0  0  0  0  0  0  0  0  0  0  0
   12.3389    6.6724   -3.0012 C   0  0  0  0  0  0  0  0  0  0  0  0
   13.2218    6.5163   -1.7557 C   0  0  1  0  0  0  0  0  0  0  0  0
   12.6777    6.8925   -0.8757 H   0  0  0  0  0  0  0  0  0  0  0  0
   13.6941    5.0900   -1.5046 C   0  0  0  0  0  0  0  0  0  0  0  0
   14.3554    7.3816   -1.9867 O   0  0  0  0  0  0  0  0  0  0  0  0
   14.9977    7.8865   -0.9114 C   0  0  0  0  0  0  0  0  0  0  0  0
   16.1232    8.7982   -1.3368 C   0  0  0  0  0  0  0  0  0  0  0  0
   14.6957    7.6331    0.2283 O   0  0  0  0  0  0  0  0  0  0  0  0
    9.6319    4.0735   -0.5360 C   0  0  2  0  0  0  0  0  0  0  0  0
   10.4287    4.5505    0.0575 H   0  0  0  0  0  0  0  0  0  0  0  0
   10.1919    3.3690   -1.6360 O   0  0  0  0  0  0  0  0  0  0  0  0
   10.0328    1.9577   -1.4360 C   0  0  1  0  0  0  0  0  0  0  0  0
    9.6708    1.3107   -2.7621 C   0  0  0  0  0  0  0  0  0  0  0  0
   11.2992    1.3727   -0.8060 C   0  0  0  0  0  0  0  0  0  0  0  0
    8.9336    1.8350   -0.5526 O   0  0  0  0  0  0  0  0  0  0  0  0
    8.8278    2.9997    0.2460 C   0  0  2  0  0  0  0  0  0  0  0  0
    9.2074    2.8151    1.2662 H   0  0  0  0  0  0  0  0  0  0  0  0
    1.0586    6.8080   -0.7653 H   0  0  0  0  0  0  0  0  0  0  0  0
    1.2507    6.1787    0.9141 H   0  0  0  0  0  0  0  0  0  0  0  0
    0.4542    5.1689   -0.3252 H   0  0  0  0  0  0  0  0  0  0  0  0
    5.1344    3.2345   -2.3608 H   0  0  0  0  0  0  0  0  0  0  0  0
    3.5129    3.8944   -2.4957 H   0  0  0  0  0  0  0  0  0  0  0  0
    4.2400    1.0941   -1.3993 H   0  0  0  0  0  0  0  0  0  0  0  0
    3.6351    1.4458   -3.0089 H   0  0  0  0  0  0  0  0  0  0  0  0
    1.4995    2.3603   -1.9510 H   0  0  0  0  0  0  0  0  0  0  0  0
    2.1083    1.7962   -0.3897 H   0  0  0  0  0  0  0  0  0  0  0  0
    0.0847    1.4269   -0.0289 H   0  0  0  0  0  0  0  0  0  0  0  0
   -1.1920    0.2914   -0.2489 H   0  0  0  0  0  0  0  0  0  0  0  0
    0.6604   -1.8586   -2.2783 H   0  0  0  0  0  0  0  0  0  0  0  0
   -0.4498   -1.8613   -1.0133 H   0  0  0  0  0  0  0  0  0  0  0  0
    4.3379    2.3812    0.9293 H   0  0  0  0  0  0  0  0  0  0  0  0
    6.3454    1.9605   -0.7179 H   0  0  0  0  0  0  0  0  0  0  0  0
    6.5086    1.7744    1.0325 H   0  0  0  0  0  0  0  0  0  0  0  0
    8.7366    4.8885   -3.0976 H   0  0  0  0  0  0  0  0  0  0  0  0
    7.8294    6.3309   -2.5564 H   0  0  0  0  0  0  0  0  0  0  0  0
   11.0450    4.9670   -2.9958 H   0  0  0  0  0  0  0  0  0  0  0  0
   12.1198    7.7397   -3.1401 H   0  0  0  0  0  0  0  0  0  0  0  0
   12.8894    6.3147   -3.8876 H   0  0  0  0  0  0  0  0  0  0  0  0
   12.8315    4.4143   -1.3957 H   0  0  0  0  0  0  0  0  0  0  0  0
   14.2884    5.0382   -0.5812 H   0  0  0  0  0  0  0  0  0  0  0  0
   14.3121    4.7343   -2.3455 H   0  0  0  0  0  0  0  0  0  0  0  0
   16.8123    8.2613   -2.0063 H   0  0  0  0  0  0  0  0  0  0  0  0
   16.6591    9.1596   -0.4512 H   0  0  0  0  0  0  0  0  0  0  0  0
   15.7175    9.6504   -1.9040 H   0  0  0  0  0  0  0  0  0  0  0  0
   10.4868    1.4387   -3.4885 H   0  0  0  0  0  0  0  0  0  0  0  0
    8.7567    1.7764   -3.1558 H   0  0  0  0  0  0  0  0  0  0  0  0
    9.4904    0.2352   -2.6211 H   0  0  0  0  0  0  0  0  0  0  0  0
   12.1607    1.4980   -1.4789 H   0  0  0  0  0  0  0  0  0  0  0  0
   11.1605    0.3002   -0.6039 H   0  0  0  0  0  0  0  0  0  0  0  0
   11.5283    1.8763    0.1456 H   0  0  0  0  0  0  0  0  0  0  0  0
  1  2  1  0
  1 42  1  0
  1 43  1  0
  1 44  1  0
  2  3  1  0
  3  4  2  0
  3  5  1  0
  5  6  1  6
  5  7  1  0
  5 14  1  0
  7  8  1  0
  7 45  1  0
  7 46  1  0
  8  9  1  0
  8 47  1  0
  8 48  1  0
  9 10  1  0
  9 49  1  0
  9 50  1  0
 10 11  2  0
 11 12  1  0
 11 13  1  0
 12 51  1  0
 12 52  1  0
 13 53  1  0
 13 54  1  0
 14 15  1  0
 14 55  1  0
 15 16  1  0
 15 56  1  0
 15 57  1  0
 16 17  1  1
 16 18  1  0
 16 40  1  0
 18 19  1  0
 19 20  1  1
 19 21  1  0
 19 33  1  0
 21 22  1  0
 21 58  1  0
 21 59  1  0
 22 23  2  0
 22 24  1  0
 24 25  1  0
 24 60  1  0
 25 26  1  0
 25 61  1  0
 25 62  1  0
 26 27  1  1
 26 28  1  0
 26 29  1  0
 28 63  1  0
 28 64  1  0
 28 65  1  0
 29 30  1  0
 30 31  1  0
 30 32  2  0
 31 66  1  0
 31 67  1  0
 31 68  1  0
 33 34  1  1
 33 35  1  0
 33 40  1  0
 35 36  1  0
 36 37  1  6
 36 38  1  0
 36 39  1  0
 37 69  1  0
 37 70  1  0
 37 71  1  0
 38 72  1  0
 38 73  1  0
 38 74  1  0
 39 40  1  0
 40 41  1  1
M  END

