
     RDKit          3D

 40 41  0  0  0  0  0  0  0  0999 V2000
    4.1449   -0.7135    3.7153 C   0  0  0  0  0  0  0  0  0  0  0  0
    4.3141   -0.3547    2.2580 C   0  0  0  0  0  0  0  0  0  0  0  0
    4.6214    0.9517    1.8619 C   0  0  0  0  0  0  0  0  0  0  0  0
    4.7814    1.2573    0.5038 C   0  0  0  0  0  0  0  0  0  0  0  0
    4.6329    0.2734   -0.4677 C   0  0  0  0  0  0  0  0  0  0  0  0
    4.3199   -1.0425   -0.0821 C   0  0  0  0  0  0  0  0  0  0  0  0
    4.1868   -1.9388   -1.1017 O   0  0  0  0  0  0  0  0  0  0  0  0
    3.7427   -3.2715   -0.8614 C   0  0  1  0  0  0  0  0  0  0  0  0
    3.2065   -3.8008   -2.1990 C   0  0  0  0  0  0  0  0  0  0  0  0
    2.0021   -3.0238   -2.7358 C   0  0  0  0  0  0  0  0  0  0  0  0
    1.5059   -3.5176   -4.0970 C   0  0  0  0  0  0  0  0  0  0  0  0
    1.0385   -4.9023   -4.0423 N   0  0  0  0  0  0  0  0  0  0  0  0
    4.8488   -4.1589   -0.3069 C   0  0  0  0  0  0  0  0  0  0  0  0
    4.5295   -5.2575    0.5046 C   0  0  0  0  0  0  0  0  0  0  0  0
    5.5292   -6.1167    0.9693 C   0  0  0  0  0  0  0  0  0  0  0  0
    6.8656   -5.8835    0.6304 C   0  0  0  0  0  0  0  0  0  0  0  0
    7.1928   -4.7879   -0.1742 C   0  0  0  0  0  0  0  0  0  0  0  0
    6.1914   -3.9321   -0.6414 C   0  0  0  0  0  0  0  0  0  0  0  0
    4.1670   -1.3514    1.2750 C   0  0  0  0  0  0  0  0  0  0  0  0
    4.3078    0.1571    4.3674 H   0  0  0  0  0  0  0  0  0  0  0  0
    4.8557   -1.5005    4.0187 H   0  0  0  0  0  0  0  0  0  0  0  0
    3.1322   -1.1010    3.9180 H   0  0  0  0  0  0  0  0  0  0  0  0
    4.7403    1.7340    2.6159 H   0  0  0  0  0  0  0  0  0  0  0  0
    5.0228    2.2799    0.2016 H   0  0  0  0  0  0  0  0  0  0  0  0
    4.7493    0.4930   -1.5308 H   0  0  0  0  0  0  0  0  0  0  0  0
    2.9049   -3.2496   -0.1395 H   0  0  0  0  0  0  0  0  0  0  0  0
    2.9357   -4.8586   -2.0485 H   0  0  0  0  0  0  0  0  0  0  0  0
    4.0352   -3.7822   -2.9296 H   0  0  0  0  0  0  0  0  0  0  0  0
    2.2710   -1.9582   -2.8176 H   0  0  0  0  0  0  0  0  0  0  0  0
    1.1705   -3.0967   -2.0129 H   0  0  0  0  0  0  0  0  0  0  0  0
    2.3037   -3.3418   -4.8534 H   0  0  0  0  0  0  0  0  0  0  0  0
    0.6543   -2.8870   -4.4032 H   0  0  0  0  0  0  0  0  0  0  0  0
    1.8296   -5.5461   -4.0083 H   0  0  0  0  0  0  0  0  0  0  0  0
    0.5311   -5.1377   -4.8950 H   0  0  0  0  0  0  0  0  0  0  0  0
    3.4861   -5.4423    0.7793 H   0  0  0  0  0  0  0  0  0  0  0  0
    5.2641   -6.9672    1.6028 H   0  0  0  0  0  0  0  0  0  0  0  0
    7.6498   -6.5511    0.9965 H   0  0  0  0  0  0  0  0  0  0  0  0
    8.2361   -4.5962   -0.4389 H   0  0  0  0  0  0  0  0  0  0  0  0
    6.4473   -3.0718   -1.2636 H   0  0  0  0  0  0  0  0  0  0  0  0
    3.9513   -2.3729    1.5897 H   0  0  0  0  0  0  0  0  0  0  0  0
  1  2  1  0
  1 20  1  0
  1 21  1  0
  1 22  1  0
  2  3  2  0
  2 19  1  0
  3  4  1  0
  3 23  1  0
  4  5  2  0
  4 24  1  0
  5  6  1  0
  5 25  1  0
  6  7  1  0
  6 19  2  0
  7  8  1  0
  8  9  1  0
  8 13  1  0
  8 26  1  1
  9 10  1  0
  9 27  1  0
  9 28  1  0
 10 11  1  0
 10 29  1  0
 10 30  1  0
 11 12  1  0
 11 31  1  0
 11 32  1  0
 12 33  1  0
 12 34  1  0
 13 14  2  0
 13 18  1  0
 14 15  1  0
 14 35  1  0
 15 16  2  0
 15 36  1  0
 16 17  1  0
 16 37  1  0
 17 18  2  0
 17 38  1  0
 18 39  1  0
 19 40  1  0
M  END

