
     RDKit          3D

 49 51  0  0  0  0  0  0  0  0999 V2000
    6.0216    2.8916   -5.1094 C   0  0  0  0  0  0  0  0  0  0  0  0
    6.2160    2.0441   -3.8775 C   0  0  0  0  0  0  0  0  0  0  0  0
    5.2079    1.1739   -3.4305 C   0  0  0  0  0  0  0  0  0  0  0  0
    5.3711    0.4089   -2.2744 C   0  0  0  0  0  0  0  0  0  0  0  0
    6.5662    0.5111   -1.5560 C   0  0  0  0  0  0  0  0  0  0  0  0
    6.7989   -0.4860   -0.0874 S   0  0  1  0  0  0  0  0  0  0  0  0
    7.7422    0.2085    0.7861 O   0  0  0  0  0  0  0  0  0  0  0  0
    5.4848   -0.9188    0.3896 O   0  0  0  0  0  0  0  0  0  0  0  0
    7.5846   -1.9334   -0.6137 N   0  0  0  0  0  0  0  0  0  0  0  0
    6.7284   -2.9268   -1.2608 C   0  0  0  0  0  0  0  0  0  0  0  0
    7.1311   -4.3767   -0.9545 C   0  0  0  0  0  0  0  0  0  0  0  0
    6.9525   -5.2546   -1.7802 O   0  0  0  0  0  0  0  0  0  0  0  0
    7.6302   -4.5812    0.2941 N   0  0  0  0  0  0  0  0  0  0  0  0
    8.0392   -5.8886    0.7762 C   0  0  0  0  0  0  0  0  0  0  0  0
    9.5009   -5.9570    1.1673 C   0  0  0  0  0  0  0  0  0  0  0  0
   10.5207   -5.5576    0.2911 C   0  0  0  0  0  0  0  0  0  0  0  0
   11.8485   -5.6584    0.7030 C   0  0  0  0  0  0  0  0  0  0  0  0
   12.1154   -6.1588    1.9832 C   0  0  0  0  0  0  0  0  0  0  0  0
   11.1588   -6.5405    2.8305 N   0  0  0  0  0  0  0  0  0  0  0  0
    9.8908   -6.4364    2.4264 C   0  0  0  0  0  0  0  0  0  0  0  0
    8.9648   -1.8649   -0.9894 C   0  0  0  0  0  0  0  0  0  0  0  0
    9.9355   -1.5237   -0.0306 C   0  0  0  0  0  0  0  0  0  0  0  0
   11.2871   -1.4862   -0.3701 C   0  0  0  0  0  0  0  0  0  0  0  0
   11.6846   -1.8154   -1.6696 C   0  0  0  0  0  0  0  0  0  0  0  0
   13.5359   -1.8020   -2.1247 Br  0  0  0  0  0  0  0  0  0  0  0  0
   10.7370   -2.1689   -2.6321 C   0  0  0  0  0  0  0  0  0  0  0  0
    9.3820   -2.1851   -2.2921 C   0  0  0  0  0  0  0  0  0  0  0  0
    7.5853    1.3769   -1.9694 C   0  0  0  0  0  0  0  0  0  0  0  0
    7.4025    2.1312   -3.1277 C   0  0  0  0  0  0  0  0  0  0  0  0
    5.2453    2.4772   -5.7693 H   0  0  0  0  0  0  0  0  0  0  0  0
    6.9541    2.9826   -5.6874 H   0  0  0  0  0  0  0  0  0  0  0  0
    5.7098    3.9143   -4.8346 H   0  0  0  0  0  0  0  0  0  0  0  0
    4.2735    1.0980   -3.9929 H   0  0  0  0  0  0  0  0  0  0  0  0
    4.5752   -0.2473   -1.9184 H   0  0  0  0  0  0  0  0  0  0  0  0
    6.6834   -2.8335   -2.3577 H   0  0  0  0  0  0  0  0  0  0  0  0
    5.7097   -2.7873   -0.8718 H   0  0  0  0  0  0  0  0  0  0  0  0
    7.7566   -3.7687    0.8887 H   0  0  0  0  0  0  0  0  0  0  0  0
    7.8237   -6.5900   -0.0450 H   0  0  0  0  0  0  0  0  0  0  0  0
    7.4156   -6.1911    1.6351 H   0  0  0  0  0  0  0  0  0  0  0  0
   10.2740   -5.1695   -0.7008 H   0  0  0  0  0  0  0  0  0  0  0  0
   12.6663   -5.3533    0.0459 H   0  0  0  0  0  0  0  0  0  0  0  0
   13.1498   -6.2506    2.3358 H   0  0  0  0  0  0  0  0  0  0  0  0
    9.1232   -6.7526    3.1453 H   0  0  0  0  0  0  0  0  0  0  0  0
    9.6216   -1.2797    0.9832 H   0  0  0  0  0  0  0  0  0  0  0  0
   12.0313   -1.2207    0.3823 H   0  0  0  0  0  0  0  0  0  0  0  0
   11.0496   -2.4283   -3.6448 H   0  0  0  0  0  0  0  0  0  0  0  0
    8.6546   -2.4617   -3.0558 H   0  0  0  0  0  0  0  0  0  0  0  0
    8.4994    1.4653   -1.3804 H   0  0  0  0  0  0  0  0  0  0  0  0
    8.1968    2.8084   -3.4535 H   0  0  0  0  0  0  0  0  0  0  0  0
  1  2  1  0
  1 30  1  0
  1 31  1  0
  1 32  1  0
  2  3  2  0
  2 29  1  0
  3  4  1  0
  3 33  1  0
  4  5  2  0
  4 34  1  0
  5  6  1  0
  5 28  1  0
  6  7  2  0
  6  8  2  0
  6  9  1  6
  9 10  1  0
  9 21  1  0
 10 11  1  0
 10 35  1  0
 10 36  1  0
 11 12  2  0
 11 13  1  0
 13 14  1  0
 13 37  1  0
 14 15  1  0
 14 38  1  0
 14 39  1  0
 15 16  2  0
 15 20  1  0
 16 17  1  0
 16 40  1  0
 17 18  2  0
 17 41  1  0
 18 19  1  0
 18 42  1  0
 19 20  2  0
 20 43  1  0
 21 22  2  0
 21 27  1  0
 22 23  1  0
 22 44  1  0
 23 24  2  0
 23 45  1  0
 24 25  1  0
 24 26  1  0
 26 27  2  0
 26 46  1  0
 27 47  1  0
 28 29  2  0
 28 48  1  0
 29 49  1  0
M  END

