
     RDKit          3D

 35 35  0  0  0  0  0  0  0  0999 V2000
    2.0024    0.8815    1.2765 C   0  0  0  0  0  0  0  0  0  0  0  0
    2.1744    0.0454    0.1580 O   0  0  0  0  0  0  0  0  0  0  0  0
    2.6975    0.5756   -0.9863 C   0  0  0  0  0  0  0  0  0  0  0  0
    3.1119    1.9006   -1.1394 C   0  0  0  0  0  0  0  0  0  0  0  0
    3.5997    2.3819   -2.3606 C   0  0  0  0  0  0  0  0  0  0  0  0
    3.6977    1.5415   -3.4876 C   0  0  0  0  0  0  0  0  0  0  0  0
    4.1915    2.0138   -4.7070 N   0  0  0  0  0  0  0  0  0  0  0  0
    4.6827    3.3734   -4.7939 C   0  0  0  0  0  0  0  0  0  0  0  0
    4.2120    1.1740   -5.8813 C   0  0  0  0  0  0  0  0  0  0  0  0
    2.8313    1.0255   -6.5953 C   0  0  1  0  0  0  0  0  0  0  0  0
    2.2434    2.3684   -7.0589 C   0  0  0  0  0  0  0  0  0  0  0  0
    2.9673    0.0883   -7.7187 C   0  0  0  0  0  0  0  0  0  0  0  0
    3.1086   -0.6386   -8.6107 N   0  0  0  0  0  0  0  0  0  0  0  0
    3.2899    0.1969   -3.3191 C   0  0  0  0  0  0  0  0  0  0  0  0
    2.8011   -0.2848   -2.1057 C   0  0  0  0  0  0  0  0  0  0  0  0
    2.3744   -1.5811   -2.0683 O   0  0  0  0  0  0  0  0  0  0  0  0
    3.0245   -2.4691   -1.1707 C   0  0  0  0  0  0  0  0  0  0  0  0
    1.5552    0.2630    2.0666 H   0  0  0  0  0  0  0  0  0  0  0  0
    1.3239    1.7267    1.0581 H   0  0  0  0  0  0  0  0  0  0  0  0
    2.9634    1.2879    1.6434 H   0  0  0  0  0  0  0  0  0  0  0  0
    3.0474    2.5949   -0.3010 H   0  0  0  0  0  0  0  0  0  0  0  0
    3.8959    3.4280   -2.4160 H   0  0  0  0  0  0  0  0  0  0  0  0
    5.4812    3.5667   -4.0540 H   0  0  0  0  0  0  0  0  0  0  0  0
    3.8909    4.1291   -4.6297 H   0  0  0  0  0  0  0  0  0  0  0  0
    5.1030    3.5465   -5.7931 H   0  0  0  0  0  0  0  0  0  0  0  0
    4.5883    0.1677   -5.6338 H   0  0  0  0  0  0  0  0  0  0  0  0
    4.9284    1.5978   -6.6012 H   0  0  0  0  0  0  0  0  0  0  0  0
    2.1294    0.5641   -5.8797 H   0  0  0  0  0  0  0  0  0  0  0  0
    2.9118    2.8679   -7.7780 H   0  0  0  0  0  0  0  0  0  0  0  0
    2.1012    3.0305   -6.1927 H   0  0  0  0  0  0  0  0  0  0  0  0
    1.2669    2.2253   -7.5443 H   0  0  0  0  0  0  0  0  0  0  0  0
    3.3339   -0.5300   -4.1286 H   0  0  0  0  0  0  0  0  0  0  0  0
    2.5960   -3.4650   -1.3519 H   0  0  0  0  0  0  0  0  0  0  0  0
    2.8588   -2.1865   -0.1200 H   0  0  0  0  0  0  0  0  0  0  0  0
    4.1115   -2.5089   -1.3689 H   0  0  0  0  0  0  0  0  0  0  0  0
  1  2  1  0
  1 18  1  0
  1 19  1  0
  1 20  1  0
  2  3  1  0
  3  4  2  0
  3 15  1  0
  4  5  1  0
  4 21  1  0
  5  6  2  0
  5 22  1  0
  6  7  1  0
  6 14  1  0
  7  8  1  0
  7  9  1  0
  8 23  1  0
  8 24  1  0
  8 25  1  0
  9 10  1  0
  9 26  1  0
  9 27  1  0
 10 11  1  0
 10 12  1  0
 10 28  1  1
 11 29  1  0
 11 30  1  0
 11 31  1  0
 12 13  3  0
 14 15  2  0
 14 32  1  0
 15 16  1  0
 16 17  1  0
 17 33  1  0
 17 34  1  0
 17 35  1  0
M  END

