
     RDKit          3D

 44 46  0  0  0  0  0  0  0  0999 V2000
    0.4814    0.9725    2.5433 C   0  0  0  0  0  0  0  0  0  0  0  0
    1.9048    1.4899    2.6159 C   0  0  0  0  0  0  0  0  0  0  0  0
    2.7415    0.5886    1.9016 O   0  0  0  0  0  0  0  0  0  0  0  0
    4.0639    0.8511    1.7778 C   0  0  0  0  0  0  0  0  0  0  0  0
    4.7175    1.9489    2.3579 C   0  0  0  0  0  0  0  0  0  0  0  0
    6.0815    2.1585    2.1523 C   0  0  0  0  0  0  0  0  0  0  0  0
    6.8324    1.2758    1.3610 C   0  0  0  0  0  0  0  0  0  0  0  0
    8.2631    1.5311    1.1547 C   0  0  0  0  0  0  0  0  0  0  0  0
    8.9276    2.5124    1.7042 N   0  0  0  0  0  0  0  0  0  0  0  0
   10.2481    2.5164    1.3410 C   0  0  0  0  0  0  0  0  0  0  0  0
   11.1593    3.5859    1.8715 C   0  0  0  0  0  0  0  0  0  0  0  0
   11.2131    4.7449    1.0016 O   0  0  0  0  0  0  0  0  0  0  0  0
   12.0799    4.7016   -0.0102 C   0  0  0  0  0  0  0  0  0  0  0  0
   12.8327    3.7866   -0.2597 O   0  0  0  0  0  0  0  0  0  0  0  0
   12.0427    5.9274   -0.8367 C   0  0  0  0  0  0  0  0  0  0  0  0
   12.7759    6.2426   -1.9598 C   0  0  0  0  0  0  0  0  0  0  0  0
   12.3531    7.5386   -2.3612 C   0  0  0  0  0  0  0  0  0  0  0  0
   11.3985    7.8950   -1.4413 C   0  0  0  0  0  0  0  0  0  0  0  0
   10.6180    9.1034   -1.3365 N   0  0  0  0  0  0  0  0  0  0  0  0
   10.8291    9.9439   -2.2002 O   0  0  0  0  0  0  0  0  0  0  0  0
    9.8270    9.1915   -0.4154 O   0  0  0  0  0  0  0  0  0  0  0  0
   11.2000    6.9428   -0.5213 O   0  0  0  0  0  0  0  0  0  0  0  0
   10.6237    1.5085    0.4841 C   0  0  0  0  0  0  0  0  0  0  0  0
    9.2652    0.5133    0.1123 S   0  0  0  0  0  0  0  0  0  0  0  0
    6.1767    0.1675    0.7918 C   0  0  0  0  0  0  0  0  0  0  0  0
    4.8174   -0.0566    0.9872 C   0  0  0  0  0  0  0  0  0  0  0  0
    4.2298   -1.1132    0.3550 O   0  0  0  0  0  0  0  0  0  0  0  0
    3.7140   -2.1584    1.1668 C   0  0  0  0  0  0  0  0  0  0  0  0
   -0.1973    1.6579    3.0740 H   0  0  0  0  0  0  0  0  0  0  0  0
    0.4007   -0.0225    3.0074 H   0  0  0  0  0  0  0  0  0  0  0  0
    0.1496    0.8937    1.4970 H   0  0  0  0  0  0  0  0  0  0  0  0
    2.2429    1.5658    3.6664 H   0  0  0  0  0  0  0  0  0  0  0  0
    1.9789    2.4988    2.1696 H   0  0  0  0  0  0  0  0  0  0  0  0
    4.1610    2.6592    2.9692 H   0  0  0  0  0  0  0  0  0  0  0  0
    6.5818    3.0181    2.6001 H   0  0  0  0  0  0  0  0  0  0  0  0
   12.1795    3.2057    2.0110 H   0  0  0  0  0  0  0  0  0  0  0  0
   10.7586    3.9708    2.8164 H   0  0  0  0  0  0  0  0  0  0  0  0
   13.5228    5.6025   -2.4231 H   0  0  0  0  0  0  0  0  0  0  0  0
   12.6866    8.1424   -3.2001 H   0  0  0  0  0  0  0  0  0  0  0  0
   11.6076    1.3320    0.0540 H   0  0  0  0  0  0  0  0  0  0  0  0
    6.7094   -0.5535    0.1675 H   0  0  0  0  0  0  0  0  0  0  0  0
    3.3392   -2.9317    0.4817 H   0  0  0  0  0  0  0  0  0  0  0  0
    2.8882   -1.8117    1.8073 H   0  0  0  0  0  0  0  0  0  0  0  0
    4.5061   -2.5977    1.8007 H   0  0  0  0  0  0  0  0  0  0  0  0
  1  2  1  0
  1 29  1  0
  1 30  1  0
  1 31  1  0
  2  3  1  0
  2 32  1  0
  2 33  1  0
  3  4  1  0
  4  5  2  0
  4 26  1  0
  5  6  1  0
  5 34  1  0
  6  7  2  0
  6 35  1  0
  7  8  1  0
  7 25  1  0
  8  9  2  0
  8 24  1  0
  9 10  1  0
 10 11  1  0
 10 23  2  0
 11 12  1  0
 11 36  1  0
 11 37  1  0
 12 13  1  0
 13 14  2  0
 13 15  1  0
 15 16  2  0
 15 22  1  0
 16 17  1  0
 16 38  1  0
 17 18  2  0
 17 39  1  0
 18 19  1  0
 18 22  1  0
 19 20  2  0
 19 21  1  0
 23 24  1  0
 23 40  1  0
 25 26  2  0
 25 41  1  0
 26 27  1  0
 27 28  1  0
 28 42  1  0
 28 43  1  0
 28 44  1  0
M  CHG  2  19   1  21  -1
M  END

