
     RDKit          3D

 30 31  0  0  0  0  0  0  0  0999 V2000
    0.4234    1.4440   -0.0949 C   0  0  0  0  0  0  0  0  0  0  0  0
   -0.9945    1.1552    0.3889 C   0  0  0  0  0  0  0  0  0  0  0  0
   -1.4817   -0.0544   -0.1537 O   0  0  0  0  0  0  0  0  0  0  0  0
   -0.7023   -1.1783    0.1968 C   0  0  0  0  0  0  0  0  0  0  0  0
    0.7566   -1.0711   -0.2845 C   0  0  2  0  0  0  0  0  0  0  0  0
    1.6019   -2.2971    0.1453 C   0  0  1  0  0  0  0  0  0  0  0  0
    0.9978   -3.6653   -0.2534 C   0  0  0  0  0  0  0  0  0  0  0  0
    0.9686   -3.9410   -1.7647 C   0  0  0  0  0  0  0  0  0  0  0  0
    2.3593   -3.9237   -2.4023 C   0  0  0  0  0  0  0  0  0  0  0  0
    3.2414   -2.3331   -2.1640 S   0  0  0  0  0  0  0  0  0  0  0  0
    3.0629   -2.2333   -0.3408 C   0  0  0  0  0  0  0  0  0  0  0  0
    1.3485    0.2613    0.2183 C   0  0  0  0  0  0  0  0  0  0  0  0
    0.8016    2.3699    0.3709 H   0  0  0  0  0  0  0  0  0  0  0  0
    0.3963    1.6162   -1.1848 H   0  0  0  0  0  0  0  0  0  0  0  0
   -1.6962    1.9446    0.0777 H   0  0  0  0  0  0  0  0  0  0  0  0
   -1.0123    1.1098    1.5000 H   0  0  0  0  0  0  0  0  0  0  0  0
   -1.2103   -2.0414   -0.2561 H   0  0  0  0  0  0  0  0  0  0  0  0
   -0.7161   -1.3244    1.3006 H   0  0  0  0  0  0  0  0  0  0  0  0
    0.7332   -1.0269   -1.3867 H   0  0  0  0  0  0  0  0  0  0  0  0
    1.6477   -2.2809    1.2519 H   0  0  0  0  0  0  0  0  0  0  0  0
   -0.0165   -3.7737    0.1605 H   0  0  0  0  0  0  0  0  0  0  0  0
    1.5998   -4.4536    0.2345 H   0  0  0  0  0  0  0  0  0  0  0  0
    0.3234   -3.2081   -2.2775 H   0  0  0  0  0  0  0  0  0  0  0  0
    0.5138   -4.9323   -1.9404 H   0  0  0  0  0  0  0  0  0  0  0  0
    2.3025   -4.0714   -3.4916 H   0  0  0  0  0  0  0  0  0  0  0  0
    2.9829   -4.7374   -1.9923 H   0  0  0  0  0  0  0  0  0  0  0  0
    3.5585   -1.2980   -0.0459 H   0  0  0  0  0  0  0  0  0  0  0  0
    3.6395   -3.0570    0.1128 H   0  0  0  0  0  0  0  0  0  0  0  0
    2.3387    0.4403   -0.2286 H   0  0  0  0  0  0  0  0  0  0  0  0
    1.5023    0.1970    1.3130 H   0  0  0  0  0  0  0  0  0  0  0  0
  1  2  1  0
  1 12  1  0
  1 13  1  0
  1 14  1  0
  2  3  1  0
  2 15  1  0
  2 16  1  0
  3  4  1  0
  4  5  1  0
  4 17  1  0
  4 18  1  0
  5  6  1  0
  5 12  1  0
  5 19  1  6
  6  7  1  0
  6 11  1  0
  6 20  1  1
  7  8  1  0
  7 21  1  0
  7 22  1  0
  8  9  1  0
  8 23  1  0
  8 24  1  0
  9 10  1  0
  9 25  1  0
  9 26  1  0
 10 11  1  0
 11 27  1  0
 11 28  1  0
 12 29  1  0
 12 30  1  0
M  END

