
     RDKit          3D

 30 30  0  0  0  0  0  0  0  0999 V2000
    1.2775    0.7939   -0.8832 C   0  0  0  0  0  0  0  0  0  0  0  0
    2.4705    0.8567   -1.0806 C   0  0  0  0  0  0  0  0  0  0  0  0
    3.9090    0.9370   -1.3501 C   0  0  0  0  0  0  0  0  0  0  0  0
    4.5391   -0.3698   -1.3761 N   0  0  0  0  0  0  0  0  0  0  0  0
    5.9450   -0.3517   -1.6802 C   0  0  0  0  0  0  0  0  0  0  0  0
    6.3952   -1.7221   -2.2046 C   0  0  0  0  0  0  0  0  0  0  0  0
    5.5447   -2.5020   -2.5943 O   0  0  0  0  0  0  0  0  0  0  0  0
    7.8602   -2.0326   -2.2493 C   0  0  0  0  0  0  0  0  0  0  0  0
    8.7768   -0.9664   -2.1621 C   0  0  0  0  0  0  0  0  0  0  0  0
   10.1453   -1.1904   -2.2488 C   0  0  0  0  0  0  0  0  0  0  0  0
   10.6112   -2.4946   -2.4129 C   0  0  0  0  0  0  0  0  0  0  0  0
    9.7321   -3.5843   -2.4895 C   0  0  0  0  0  0  0  0  0  0  0  0
   10.3102   -4.9707   -2.6688 C   0  0  0  0  0  0  0  0  0  0  0  0
    8.3337   -3.3656   -2.4067 C   0  0  0  0  0  0  0  0  0  0  0  0
    7.3903   -4.5433   -2.4799 C   0  0  0  0  0  0  0  0  0  0  0  0
    0.2213    0.7355   -0.6997 H   0  0  0  0  0  0  0  0  0  0  0  0
    4.3814    1.5484   -0.5578 H   0  0  0  0  0  0  0  0  0  0  0  0
    4.0563    1.5168   -2.2937 H   0  0  0  0  0  0  0  0  0  0  0  0
    4.0619   -1.0166   -2.0036 H   0  0  0  0  0  0  0  0  0  0  0  0
    6.5406   -0.0722   -0.7923 H   0  0  0  0  0  0  0  0  0  0  0  0
    6.2196    0.3911   -2.4705 H   0  0  0  0  0  0  0  0  0  0  0  0
    8.4168    0.0563   -2.0447 H   0  0  0  0  0  0  0  0  0  0  0  0
   10.8473   -0.3553   -2.1920 H   0  0  0  0  0  0  0  0  0  0  0  0
   11.6872   -2.6774   -2.4834 H   0  0  0  0  0  0  0  0  0  0  0  0
   11.4051   -4.9264   -2.7589 H   0  0  0  0  0  0  0  0  0  0  0  0
    9.9210   -5.4662   -3.5730 H   0  0  0  0  0  0  0  0  0  0  0  0
   10.0751   -5.6299   -1.8166 H   0  0  0  0  0  0  0  0  0  0  0  0
    7.9169   -5.4920   -2.3213 H   0  0  0  0  0  0  0  0  0  0  0  0
    6.8883   -4.5878   -3.4597 H   0  0  0  0  0  0  0  0  0  0  0  0
    6.5806   -4.4645   -1.7428 H   0  0  0  0  0  0  0  0  0  0  0  0
  1  2  3  0
  1 16  1  0
  2  3  1  0
  3  4  1  0
  3 17  1  0
  3 18  1  0
  4  5  1  0
  4 19  1  0
  5  6  1  0
  5 20  1  0
  5 21  1  0
  6  7  2  0
  6  8  1  0
  8  9  2  0
  8 14  1  0
  9 10  1  0
  9 22  1  0
 10 11  2  0
 10 23  1  0
 11 12  1  0
 11 24  1  0
 12 13  1  0
 12 14  2  0
 13 25  1  0
 13 26  1  0
 13 27  1  0
 14 15  1  0
 15 28  1  0
 15 29  1  0
 15 30  1  0
M  END

