
     RDKit          3D

 40 42  0  0  0  0  0  0  0  0999 V2000
    0.8814    2.5592    0.3466 C   0  0  0  0  0  0  0  0  0  0  0  0
    2.0978    1.6572    0.2113 C   0  0  0  0  0  0  0  0  0  0  0  0
    2.0383    0.4577    0.3921 O   0  0  0  0  0  0  0  0  0  0  0  0
    3.2544    2.3215   -0.1653 N   0  0  0  0  0  0  0  0  0  0  0  0
    4.5279    1.8001   -0.4252 C   0  0  0  0  0  0  0  0  0  0  0  0
    4.8387    0.4271   -0.3271 C   0  0  0  0  0  0  0  0  0  0  0  0
    6.1289   -0.0081   -0.6020 C   0  0  0  0  0  0  0  0  0  0  0  0
    7.1504    0.8871   -0.9803 C   0  0  0  0  0  0  0  0  0  0  0  0
    8.4971    0.4244   -1.2662 C   0  0  0  0  0  0  0  0  0  0  0  0
    9.0569   -0.8236   -1.2513 C   0  0  0  0  0  0  0  0  0  0  0  0
   10.4398   -0.6867   -1.6279 C   0  0  0  0  0  0  0  0  0  0  0  0
   11.5076   -1.5201   -1.8053 C   0  0  0  0  0  0  0  0  0  0  0  0
   11.6361   -2.9587   -1.6459 C   0  0  0  0  0  0  0  0  0  0  0  0
   10.6129   -3.8078   -1.1590 C   0  0  0  0  0  0  0  0  0  0  0  0
   10.8122   -5.1777   -1.0359 C   0  0  0  0  0  0  0  0  0  0  0  0
   12.0467   -5.7215   -1.4003 C   0  0  0  0  0  0  0  0  0  0  0  0
   12.2578   -7.1748   -1.2715 N   0  0  0  0  0  0  0  0  0  0  0  0
   11.3282   -7.8454   -0.8496 O   0  0  0  0  0  0  0  0  0  0  0  0
   13.3490   -7.6174   -1.5949 O   0  0  0  0  0  0  0  0  0  0  0  0
   13.0855   -4.9210   -1.8798 C   0  0  0  0  0  0  0  0  0  0  0  0
   12.8738   -3.5524   -1.9959 C   0  0  0  0  0  0  0  0  0  0  0  0
   10.6317    0.7823   -1.8677 C   0  0  0  0  0  0  0  0  0  0  0  0
   11.5967    1.4056   -2.2004 O   0  0  0  0  0  0  0  0  0  0  0  0
    9.4090    1.3927   -1.6248 O   0  0  0  0  0  0  0  0  0  0  0  0
    6.8293    2.2567   -1.0750 C   0  0  0  0  0  0  0  0  0  0  0  0
    5.5428    2.7019   -0.8022 C   0  0  0  0  0  0  0  0  0  0  0  0
    0.2199    2.1367    1.1140 H   0  0  0  0  0  0  0  0  0  0  0  0
    0.3276    2.5643   -0.6069 H   0  0  0  0  0  0  0  0  0  0  0  0
    1.1323    3.5985    0.6076 H   0  0  0  0  0  0  0  0  0  0  0  0
    3.1735    3.3253   -0.2789 H   0  0  0  0  0  0  0  0  0  0  0  0
    4.0605   -0.2737   -0.0357 H   0  0  0  0  0  0  0  0  0  0  0  0
    6.3436   -1.0755   -0.5183 H   0  0  0  0  0  0  0  0  0  0  0  0
    8.5190   -1.7328   -1.0062 H   0  0  0  0  0  0  0  0  0  0  0  0
   12.4189   -1.0061   -2.1290 H   0  0  0  0  0  0  0  0  0  0  0  0
    9.6518   -3.3937   -0.8616 H   0  0  0  0  0  0  0  0  0  0  0  0
   10.0313   -5.8384   -0.6603 H   0  0  0  0  0  0  0  0  0  0  0  0
   14.0347   -5.3826   -2.1505 H   0  0  0  0  0  0  0  0  0  0  0  0
   13.6792   -2.9154   -2.3690 H   0  0  0  0  0  0  0  0  0  0  0  0
    7.6028    2.9682   -1.3657 H   0  0  0  0  0  0  0  0  0  0  0  0
    5.3156    3.7692   -0.8817 H   0  0  0  0  0  0  0  0  0  0  0  0
  1  2  1  0
  1 27  1  0
  1 28  1  0
  1 29  1  0
  2  3  2  0
  2  4  1  0
  4  5  1  0
  4 30  1  0
  5  6  2  0
  5 26  1  0
  6  7  1  0
  6 31  1  0
  7  8  2  0
  7 32  1  0
  8  9  1  0
  8 25  1  0
  9 10  2  0
  9 24  1  0
 10 11  1  0
 10 33  1  0
 11 12  2  0
 11 22  1  0
 12 13  1  0
 12 34  1  0
 13 14  2  0
 13 21  1  0
 14 15  1  0
 14 35  1  0
 15 16  2  0
 15 36  1  0
 16 17  1  0
 16 20  1  0
 17 18  2  0
 17 19  1  0
 20 21  2  0
 20 37  1  0
 21 38  1  0
 22 23  2  0
 22 24  1  0
 25 26  2  0
 25 39  1  0
 26 40  1  0
M  CHG  2  17   1  19  -1
M  END

