
     RDKit          3D

 44 44  0  0  0  0  0  0  0  0999 V2000
    1.5610   -1.1893    2.3366 C   0  0  0  0  0  0  0  0  0  0  0  0
    1.8789   -0.3465    1.0998 C   0  0  0  0  0  0  0  0  0  0  0  0
    2.7507   -1.0225    0.0283 C   0  0  1  0  0  0  0  0  0  0  0  0
    4.4199   -1.4148    0.7253 S   0  0  0  0  0  0  0  0  0  0  0  0
    4.4841   -3.0120   -0.1405 C   0  0  0  0  0  0  0  0  0  0  0  0
    3.0433   -3.5007   -0.2170 C   0  0  2  0  0  0  0  0  0  0  0  0
    2.9446   -4.6291   -1.2882 C   0  0  0  0  0  0  0  0  0  0  0  0
    3.8741   -4.9039   -2.0051 O   0  0  0  0  0  0  0  0  0  0  0  0
    1.8060   -5.3116   -1.3183 O   0  0  0  0  0  0  0  0  0  0  0  0
    2.2203   -2.3033   -0.5273 N   0  0  0  0  0  0  0  0  0  0  0  0
    0.8441   -2.5141   -0.6786 C   0  0  0  0  0  0  0  0  0  0  0  0
    0.3093   -3.5307   -0.2032 O   0  0  0  0  0  0  0  0  0  0  0  0
    0.1238   -1.6036   -1.4054 N   0  0  0  0  0  0  0  0  0  0  0  0
    0.7757   -0.6085   -2.2734 C   0  0  0  0  0  0  0  0  0  0  0  0
    0.1712   -0.4748   -3.6705 C   0  0  0  0  0  0  0  0  0  0  0  0
   -1.3295   -1.7763   -1.4659 C   0  0  0  0  0  0  0  0  0  0  0  0
   -2.1588   -0.7928   -0.5990 C   0  0  1  0  0  0  0  0  0  0  0  0
   -3.6327   -0.8984   -1.0112 C   0  0  0  0  0  0  0  0  0  0  0  0
   -2.0032   -1.0813    0.8931 C   0  0  0  0  0  0  0  0  0  0  0  0
   -1.6923    0.5485   -0.7907 O   0  0  0  0  0  0  0  0  0  0  0  0
    0.9394   -0.6138    3.0399 H   0  0  0  0  0  0  0  0  0  0  0  0
    2.4808   -1.4889    2.8595 H   0  0  0  0  0  0  0  0  0  0  0  0
    1.0075   -2.1051    2.0773 H   0  0  0  0  0  0  0  0  0  0  0  0
    2.4105    0.5741    1.3984 H   0  0  0  0  0  0  0  0  0  0  0  0
    0.9468   -0.0014    0.6229 H   0  0  0  0  0  0  0  0  0  0  0  0
    2.9074   -0.3044   -0.7892 H   0  0  0  0  0  0  0  0  0  0  0  0
    5.1129   -3.7092    0.4293 H   0  0  0  0  0  0  0  0  0  0  0  0
    4.9062   -2.9125   -1.1491 H   0  0  0  0  0  0  0  0  0  0  0  0
    2.7302   -3.9320    0.7522 H   0  0  0  0  0  0  0  0  0  0  0  0
    1.1302   -4.8535   -0.7539 H   0  0  0  0  0  0  0  0  0  0  0  0
    1.8163   -0.9326   -2.3909 H   0  0  0  0  0  0  0  0  0  0  0  0
    0.7783    0.3783   -1.7824 H   0  0  0  0  0  0  0  0  0  0  0  0
    0.1039   -1.4472   -4.1832 H   0  0  0  0  0  0  0  0  0  0  0  0
    0.8237    0.1773   -4.2716 H   0  0  0  0  0  0  0  0  0  0  0  0
   -0.8279   -0.0142   -3.6659 H   0  0  0  0  0  0  0  0  0  0  0  0
   -1.5513   -2.8067   -1.1631 H   0  0  0  0  0  0  0  0  0  0  0  0
   -1.6455   -1.6732   -2.5139 H   0  0  0  0  0  0  0  0  0  0  0  0
   -4.0188   -1.9199   -0.8696 H   0  0  0  0  0  0  0  0  0  0  0  0
   -3.7675   -0.6378   -2.0757 H   0  0  0  0  0  0  0  0  0  0  0  0
   -4.2451   -0.2103   -0.4091 H   0  0  0  0  0  0  0  0  0  0  0  0
   -2.3557   -2.0940    1.1365 H   0  0  0  0  0  0  0  0  0  0  0  0
   -2.5825   -0.3485    1.4745 H   0  0  0  0  0  0  0  0  0  0  0  0
   -0.9537   -1.0041    1.2018 H   0  0  0  0  0  0  0  0  0  0  0  0
   -2.0180    0.8680   -1.6425 H   0  0  0  0  0  0  0  0  0  0  0  0
  1  2  1  0
  1 21  1  0
  1 22  1  0
  1 23  1  0
  2  3  1  0
  2 24  1  0
  2 25  1  0
  3  4  1  0
  3 10  1  0
  3 26  1  6
  4  5  1  0
  5  6  1  0
  5 27  1  0
  5 28  1  0
  6  7  1  0
  6 10  1  0
  6 29  1  1
  7  8  2  0
  7  9  1  0
  9 30  1  0
 10 11  1  0
 11 12  2  0
 11 13  1  0
 13 14  1  0
 13 16  1  0
 14 15  1  0
 14 31  1  0
 14 32  1  0
 15 33  1  0
 15 34  1  0
 15 35  1  0
 16 17  1  0
 16 36  1  0
 16 37  1  0
 17 18  1  0
 17 19  1  0
 17 20  1  1
 18 38  1  0
 18 39  1  0
 18 40  1  0
 19 41  1  0
 19 42  1  0
 19 43  1  0
 20 44  1  0
M  END

