
     RDKit          3D

 49 49  0  0  0  0  0  0  0  0999 V2000
    1.6961   -2.0265    1.1228 C   0  0  0  0  0  0  0  0  0  0  0  0
    3.1762   -1.7734    1.2149 C   0  0  0  0  0  0  0  0  0  0  0  0
    4.0260   -2.5901    1.4684 O   0  0  0  0  0  0  0  0  0  0  0  0
    3.4648   -0.4696    0.9785 O   0  0  0  0  0  0  0  0  0  0  0  0
    4.8261   -0.1117    1.1154 C   0  0  0  0  0  0  0  0  0  0  0  0
    5.2848   -0.1508    2.5674 C   0  0  0  0  0  0  0  0  0  0  0  0
    4.5036   -0.1478    3.4896 O   0  0  0  0  0  0  0  0  0  0  0  0
    6.7988   -0.1746    2.8169 C   0  0  1  0  0  0  0  0  0  0  0  0
    7.5721    0.9482    2.0734 C   0  0  0  0  0  0  0  0  0  0  0  0
    7.0164    2.3271    2.4052 C   0  0  0  0  0  0  0  0  0  0  0  0
    6.1235    2.8305    1.7673 O   0  0  0  0  0  0  0  0  0  0  0  0
    7.5173    2.9496    3.4802 O   0  0  0  0  0  0  0  0  0  0  0  0
    7.0235   -0.1245    4.2428 N   0  0  0  0  0  0  0  0  0  0  0  0
    8.2112   -0.4992    4.7935 C   0  0  0  0  0  0  0  0  0  0  0  0
    9.1568   -0.8753    4.1154 O   0  0  0  0  0  0  0  0  0  0  0  0
    8.3126   -0.3779    6.3159 C   0  0  1  0  0  0  0  0  0  0  0  0
    8.4610   -1.7728    6.9452 C   0  0  0  0  0  0  0  0  0  0  0  0
    9.5273    0.4993    6.6547 C   0  0  0  0  0  0  0  0  0  0  0  0
    9.5255    2.2095    5.9904 S   0  0  0  0  0  0  0  0  0  0  0  0
    8.1950    3.0078    7.0068 C   0  0  0  0  0  0  0  0  0  0  0  0
    8.3408    4.5088    6.9786 C   0  0  0  0  0  0  0  0  0  0  0  0
    7.7232    5.2714    5.9742 C   0  0  0  0  0  0  0  0  0  0  0  0
    7.8718    6.6612    5.9480 C   0  0  0  0  0  0  0  0  0  0  0  0
    8.6387    7.3064    6.9222 C   0  0  0  0  0  0  0  0  0  0  0  0
    9.2624    6.5543    7.9230 C   0  0  0  0  0  0  0  0  0  0  0  0
    9.1167    5.1658    7.9475 C   0  0  0  0  0  0  0  0  0  0  0  0
    1.5018   -3.1045    1.1690 H   0  0  0  0  0  0  0  0  0  0  0  0
    1.2886   -1.5975    0.1957 H   0  0  0  0  0  0  0  0  0  0  0  0
    1.1958   -1.5224    1.9648 H   0  0  0  0  0  0  0  0  0  0  0  0
    4.9184    0.9311    0.7734 H   0  0  0  0  0  0  0  0  0  0  0  0
    5.4726   -0.7568    0.4984 H   0  0  0  0  0  0  0  0  0  0  0  0
    7.1730   -1.1365    2.4196 H   0  0  0  0  0  0  0  0  0  0  0  0
    7.4851    0.8087    0.9870 H   0  0  0  0  0  0  0  0  0  0  0  0
    8.6324    0.8413    2.3451 H   0  0  0  0  0  0  0  0  0  0  0  0
    8.2137    2.4469    3.9553 H   0  0  0  0  0  0  0  0  0  0  0  0
    6.1974    0.0394    4.8135 H   0  0  0  0  0  0  0  0  0  0  0  0
    7.3976    0.0972    6.7081 H   0  0  0  0  0  0  0  0  0  0  0  0
    9.3404   -2.2867    6.5280 H   0  0  0  0  0  0  0  0  0  0  0  0
    7.5755   -2.3954    6.7431 H   0  0  0  0  0  0  0  0  0  0  0  0
    8.5828   -1.7003    8.0374 H   0  0  0  0  0  0  0  0  0  0  0  0
   10.4276    0.0437    6.2149 H   0  0  0  0  0  0  0  0  0  0  0  0
    9.6731    0.5563    7.7453 H   0  0  0  0  0  0  0  0  0  0  0  0
    8.3007    2.6244    8.0332 H   0  0  0  0  0  0  0  0  0  0  0  0
    7.2126    2.7035    6.6172 H   0  0  0  0  0  0  0  0  0  0  0  0
    7.1358    4.7725    5.1994 H   0  0  0  0  0  0  0  0  0  0  0  0
    7.3840    7.2412    5.1606 H   0  0  0  0  0  0  0  0  0  0  0  0
    8.7511    8.3935    6.9022 H   0  0  0  0  0  0  0  0  0  0  0  0
    9.8641    7.0513    8.6884 H   0  0  0  0  0  0  0  0  0  0  0  0
    9.6098    4.5821    8.7303 H   0  0  0  0  0  0  0  0  0  0  0  0
  1  2  1  0
  1 27  1  0
  1 28  1  0
  1 29  1  0
  2  3  2  0
  2  4  1  0
  4  5  1  0
  5  6  1  0
  5 30  1  0
  5 31  1  0
  6  7  2  0
  6  8  1  0
  8  9  1  0
  8 13  1  0
  8 32  1  6
  9 10  1  0
  9 33  1  0
  9 34  1  0
 10 11  2  0
 10 12  1  0
 12 35  1  0
 13 14  1  0
 13 36  1  0
 14 15  2  0
 14 16  1  0
 16 17  1  0
 16 18  1  0
 16 37  1  1
 17 38  1  0
 17 39  1  0
 17 40  1  0
 18 19  1  0
 18 41  1  0
 18 42  1  0
 19 20  1  0
 20 21  1  0
 20 43  1  0
 20 44  1  0
 21 22  2  0
 21 26  1  0
 22 23  1  0
 22 45  1  0
 23 24  2  0
 23 46  1  0
 24 25  1  0
 24 47  1  0
 25 26  2  0
 25 48  1  0
 26 49  1  0
M  END

