
     RDKit          3D

 71 76  0  0  0  0  0  0  0  0999 V2000
    5.8156    5.4324    0.9104 N   0  0  0  0  0  0  0  0  0  0  0  0
    5.3547    4.4015    0.6452 C   0  0  0  0  0  0  0  0  0  0  0  0
    4.7499    3.1013    0.3854 C   0  0  1  0  0  0  0  0  0  0  0  0
    4.4402    2.3503    1.5648 N   0  0  0  0  0  0  0  0  0  0  0  0
    5.4158    1.6533    2.2631 C   0  0  0  0  0  0  0  0  0  0  0  0
    6.5122    1.4456    1.7800 O   0  0  0  0  0  0  0  0  0  0  0  0
    5.0142    1.2517    3.6890 C   0  0  1  0  0  0  0  0  0  0  0  0
    3.7286    0.3967    3.7757 C   0  0  0  0  0  0  0  0  0  0  0  0
    3.9513   -1.0592    3.3569 C   0  0  0  0  0  0  0  0  0  0  0  0
    5.0461   -1.7013    4.2138 C   0  0  0  0  0  0  0  0  0  0  0  0
    6.3534   -0.9060    4.1288 C   0  0  0  0  0  0  0  0  0  0  0  0
    6.2124    0.6001    4.4418 C   0  0  2  0  0  0  0  0  0  0  0  0
    6.1586    0.9245    5.9176 C   0  0  0  0  0  0  0  0  0  0  0  0
    5.9439   -0.0293    6.8900 N   0  0  0  0  0  0  0  0  0  0  0  0
    5.9428    0.6077    8.0278 C   0  0  0  0  0  0  0  0  0  0  0  0
    5.7635    0.0628    9.3698 C   0  0  0  0  0  0  0  0  0  0  0  0
    5.5621   -1.3217    9.5338 C   0  0  0  0  0  0  0  0  0  0  0  0
    5.3880   -1.8676   10.8028 C   0  0  0  0  0  0  0  0  0  0  0  0
    5.4164   -1.0227   11.9128 C   0  0  0  0  0  0  0  0  0  0  0  0
    5.2489   -1.5451   13.1352 F   0  0  0  0  0  0  0  0  0  0  0  0
    5.6157    0.3505   11.7819 C   0  0  0  0  0  0  0  0  0  0  0  0
    5.7895    0.8902   10.5080 C   0  0  0  0  0  0  0  0  0  0  0  0
    6.1418    1.9403    7.8825 O   0  0  0  0  0  0  0  0  0  0  0  0
    6.2898    2.1587    6.5343 C   0  0  0  0  0  0  0  0  0  0  0  0
    6.4860    3.5353    6.0928 C   0  0  0  0  0  0  0  0  0  0  0  0
    6.9741    3.8507    4.8090 C   0  0  0  0  0  0  0  0  0  0  0  0
    7.1083    5.1669    4.3784 C   0  0  0  0  0  0  0  0  0  0  0  0
    6.7524    6.2524    5.2074 C   0  0  0  0  0  0  0  0  0  0  0  0
    6.8244    7.5783    4.7639 N   0  0  0  0  0  0  0  0  0  0  0  0
    6.9540    7.8963    3.3464 C   0  0  0  0  0  0  0  0  0  0  0  0
    6.0376    9.0575    2.9398 C   0  0  0  0  0  0  0  0  0  0  0  0
    6.3899   10.5588    3.8940 S   0  0  2  0  0  0  0  0  0  0  0  0
    5.2949   11.5210    3.7234 O   0  0  0  0  0  0  0  0  0  0  0  0
    7.7866   10.9399    3.6213 O   0  0  0  0  0  0  0  0  0  0  0  0
    6.3422    9.8780    5.5787 C   0  0  0  0  0  0  0  0  0  0  0  0
    7.2438    8.6439    5.6675 C   0  0  0  0  0  0  0  0  0  0  0  0
    6.2918    5.9372    6.5082 C   0  0  0  0  0  0  0  0  0  0  0  0
    6.1678    4.6206    6.9366 C   0  0  0  0  0  0  0  0  0  0  0  0
    3.8122    2.9784   -0.8124 C   0  0  0  0  0  0  0  0  0  0  0  0
    5.1666    2.3521   -0.8667 C   0  0  0  0  0  0  0  0  0  0  0  0
    3.6088    2.6338    2.0728 H   0  0  0  0  0  0  0  0  0  0  0  0
    4.7925    2.2168    4.1773 H   0  0  0  0  0  0  0  0  0  0  0  0
    2.9195    0.8528    3.1804 H   0  0  0  0  0  0  0  0  0  0  0  0
    3.3825    0.4184    4.8232 H   0  0  0  0  0  0  0  0  0  0  0  0
    4.2361   -1.1017    2.2888 H   0  0  0  0  0  0  0  0  0  0  0  0
    3.0062   -1.6202    3.4487 H   0  0  0  0  0  0  0  0  0  0  0  0
    5.2248   -2.7405    3.8900 H   0  0  0  0  0  0  0  0  0  0  0  0
    4.7115   -1.7466    5.2629 H   0  0  0  0  0  0  0  0  0  0  0  0
    6.7533   -0.9843    3.1042 H   0  0  0  0  0  0  0  0  0  0  0  0
    7.1073   -1.3420    4.8021 H   0  0  0  0  0  0  0  0  0  0  0  0
    7.1200    1.0697    4.0386 H   0  0  0  0  0  0  0  0  0  0  0  0
    5.5468   -1.9599    8.6489 H   0  0  0  0  0  0  0  0  0  0  0  0
    5.2313   -2.9381   10.9489 H   0  0  0  0  0  0  0  0  0  0  0  0
    5.6335    0.9768   12.6758 H   0  0  0  0  0  0  0  0  0  0  0  0
    5.9497    1.9632   10.3913 H   0  0  0  0  0  0  0  0  0  0  0  0
    7.2850    3.0622    4.1244 H   0  0  0  0  0  0  0  0  0  0  0  0
    7.5076    5.3405    3.3799 H   0  0  0  0  0  0  0  0  0  0  0  0
    6.6620    7.0336    2.7349 H   0  0  0  0  0  0  0  0  0  0  0  0
    7.9974    8.1574    3.0828 H   0  0  0  0  0  0  0  0  0  0  0  0
    4.9746    8.8250    3.1002 H   0  0  0  0  0  0  0  0  0  0  0  0
    6.1934    9.3489    1.8902 H   0  0  0  0  0  0  0  0  0  0  0  0
    5.2896    9.6559    5.8073 H   0  0  0  0  0  0  0  0  0  0  0  0
    6.6973   10.6998    6.2190 H   0  0  0  0  0  0  0  0  0  0  0  0
    7.2499    8.2756    6.7004 H   0  0  0  0  0  0  0  0  0  0  0  0
    8.2798    8.9589    5.4329 H   0  0  0  0  0  0  0  0  0  0  0  0
    5.9843    6.7341    7.1876 H   0  0  0  0  0  0  0  0  0  0  0  0
    5.7871    4.4235    7.9403 H   0  0  0  0  0  0  0  0  0  0  0  0
    3.6223    3.8837   -1.3938 H   0  0  0  0  0  0  0  0  0  0  0  0
    2.9439    2.3324   -0.6600 H   0  0  0  0  0  0  0  0  0  0  0  0
    5.9397    2.8144   -1.4843 H   0  0  0  0  0  0  0  0  0  0  0  0
    5.2574    1.2713   -0.7494 H   0  0  0  0  0  0  0  0  0  0  0  0
  1  2  3  0
  3  2  1  1
  3  4  1  0
  3 39  1  0
  3 40  1  0
  4  5  1  0
  4 41  1  0
  5  6  2  0
  5  7  1  0
  7  8  1  0
  7 12  1  0
  7 42  1  1
  8  9  1  0
  8 43  1  0
  8 44  1  0
  9 10  1  0
  9 45  1  0
  9 46  1  0
 10 11  1  0
 10 47  1  0
 10 48  1  0
 11 12  1  0
 11 49  1  0
 11 50  1  0
 12 13  1  0
 12 51  1  6
 13 14  1  0
 13 24  2  0
 14 15  2  0
 15 16  1  0
 15 23  1  0
 16 17  2  0
 16 22  1  0
 17 18  1  0
 17 52  1  0
 18 19  2  0
 18 53  1  0
 19 20  1  0
 19 21  1  0
 21 22  2  0
 21 54  1  0
 22 55  1  0
 23 24  1  0
 24 25  1  0
 25 26  2  0
 25 38  1  0
 26 27  1  0
 26 56  1  0
 27 28  2  0
 27 57  1  0
 28 29  1  0
 28 37  1  0
 29 30  1  0
 29 36  1  0
 30 31  1  0
 30 58  1  0
 30 59  1  0
 32 31  1  6
 31 60  1  0
 31 61  1  0
 32 33  2  0
 32 34  2  0
 32 35  1  0
 35 36  1  0
 35 62  1  0
 35 63  1  0
 36 64  1  0
 36 65  1  0
 37 38  2  0
 37 66  1  0
 38 67  1  0
 39 40  1  0
 39 68  1  0
 39 69  1  0
 40 70  1  0
 40 71  1  0
M  END

