
     RDKit          3D

 22 23  0  0  0  0  0  0  0  0999 V2000
    0.8776   -0.1718    0.0248 C   0  0  0  0  0  0  0  0  0  0  0  0
    2.3829   -0.1401    0.0504 C   0  0  0  0  0  0  0  0  0  0  0  0
    3.1455   -1.3093    0.0600 C   0  0  0  0  0  0  0  0  0  0  0  0
    4.5526   -1.2576    0.0905 C   0  0  0  0  0  0  0  0  0  0  0  0
    5.5245   -2.9032    0.1176 Br  0  0  0  0  0  0  0  0  0  0  0  0
    5.2468   -0.0566    0.1097 C   0  0  0  0  0  0  0  0  0  0  0  0
    4.5024    1.1419    0.0864 C   0  0  0  0  0  0  0  0  0  0  0  0
    4.9922    2.5088    0.0858 C   0  0  0  0  0  0  0  0  0  0  0  0
    6.4525    2.8805    0.0502 C   0  0  0  0  0  0  0  0  0  0  0  0
    7.2304    2.2222    1.0318 O   0  0  0  0  0  0  0  0  0  0  0  0
    3.9675    3.4118    0.0832 C   0  0  0  0  0  0  0  0  0  0  0  0
    2.3812    2.6864    0.0587 S   0  0  0  0  0  0  0  0  0  0  0  0
    3.0876    1.0797    0.0653 C   0  0  0  0  0  0  0  0  0  0  0  0
    0.4959   -1.2024    0.0194 H   0  0  0  0  0  0  0  0  0  0  0  0
    0.4845    0.3428   -0.8687 H   0  0  0  0  0  0  0  0  0  0  0  0
    0.4544    0.3449    0.9032 H   0  0  0  0  0  0  0  0  0  0  0  0
    2.6451   -2.2794    0.0483 H   0  0  0  0  0  0  0  0  0  0  0  0
    6.3345   -0.0249    0.1661 H   0  0  0  0  0  0  0  0  0  0  0  0
    6.5508    3.9823    0.1141 H   0  0  0  0  0  0  0  0  0  0  0  0
    6.8883    2.5799   -0.9181 H   0  0  0  0  0  0  0  0  0  0  0  0
    6.8209    2.3750    1.8944 H   0  0  0  0  0  0  0  0  0  0  0  0
    4.0546    4.4987    0.0811 H   0  0  0  0  0  0  0  0  0  0  0  0
  1  2  1  0
  1 14  1  0
  1 15  1  0
  1 16  1  0
  2  3  2  0
  2 13  1  0
  3  4  1  0
  3 17  1  0
  4  5  1  0
  4  6  2  0
  6  7  1  0
  6 18  1  0
  7  8  1  0
  7 13  2  0
  8  9  1  0
  8 11  2  0
  9 10  1  0
  9 19  1  0
  9 20  1  0
 10 21  1  0
 11 12  1  0
 11 22  1  0
 12 13  1  0
M  END

