
     RDKit          3D

 43 45  0  0  0  0  0  0  0  0999 V2000
    0.9716   -1.1286    1.6179 C   0  0  0  0  0  0  0  0  0  0  0  0
    2.0472   -0.5630    0.8954 O   0  0  0  0  0  0  0  0  0  0  0  0
    2.7436    0.4648    1.4257 C   0  0  0  0  0  0  0  0  0  0  0  0
    2.4513    1.0638    2.6616 C   0  0  0  0  0  0  0  0  0  0  0  0
    3.2413    2.1055    3.1525 C   0  0  0  0  0  0  0  0  0  0  0  0
    4.3290    2.5439    2.3986 C   0  0  0  0  0  0  0  0  0  0  0  0
    5.3378    3.8730    3.0208 S   0  0  1  0  0  0  0  0  0  0  0  0
    6.0302    4.4906    1.8904 O   0  0  0  0  0  0  0  0  0  0  0  0
    4.5668    4.6616    3.9844 O   0  0  0  0  0  0  0  0  0  0  0  0
    6.4983    3.0626    4.0414 N   0  0  0  0  0  0  0  0  0  0  0  0
    7.6809    2.5212    3.4981 C   0  0  0  0  0  0  0  0  0  0  0  0
    8.9441    3.5597    2.8419 S   0  0  0  0  0  0  0  0  0  0  0  0
    9.9304    2.1885    2.5026 C   0  0  0  0  0  0  0  0  0  0  0  0
    9.3243    1.0065    2.8447 C   0  0  0  0  0  0  0  0  0  0  0  0
    8.0275    1.1739    3.4230 C   0  0  0  0  0  0  0  0  0  0  0  0
    7.2318   -0.0150    3.8868 C   0  0  0  0  0  0  0  0  0  0  0  0
    6.1025    0.2465    4.5976 N   0  0  0  0  0  0  0  0  0  0  0  0
    7.6112   -1.1518    3.6427 O   0  0  0  0  0  0  0  0  0  0  0  0
   10.1953   -0.1665    2.4716 C   0  0  0  0  0  0  0  0  0  0  0  0
   11.5619    0.5098    2.1604 C   0  0  0  0  0  0  0  0  0  0  0  0
   11.2666    2.0054    1.8383 C   0  0  0  0  0  0  0  0  0  0  0  0
    4.6248    1.9806    1.1517 C   0  0  0  0  0  0  0  0  0  0  0  0
    3.8411    0.9408    0.6556 C   0  0  0  0  0  0  0  0  0  0  0  0
    4.1864    0.3691   -0.5272 O   0  0  0  0  0  0  0  0  0  0  0  0
    3.2791    0.4832   -1.6173 C   0  0  0  0  0  0  0  0  0  0  0  0
    0.5863   -1.9531    1.0042 H   0  0  0  0  0  0  0  0  0  0  0  0
    0.1622   -0.3967    1.7867 H   0  0  0  0  0  0  0  0  0  0  0  0
    1.3041   -1.5300    2.5910 H   0  0  0  0  0  0  0  0  0  0  0  0
    1.6017    0.7199    3.2514 H   0  0  0  0  0  0  0  0  0  0  0  0
    3.0057    2.5838    4.1046 H   0  0  0  0  0  0  0  0  0  0  0  0
    6.6135    3.6795    4.8499 H   0  0  0  0  0  0  0  0  0  0  0  0
    5.7834    1.2005    4.7256 H   0  0  0  0  0  0  0  0  0  0  0  0
    5.5291   -0.5408    4.8728 H   0  0  0  0  0  0  0  0  0  0  0  0
    9.7754   -0.6863    1.5926 H   0  0  0  0  0  0  0  0  0  0  0  0
   10.2574   -0.9240    3.2654 H   0  0  0  0  0  0  0  0  0  0  0  0
   12.1084    0.0098    1.3468 H   0  0  0  0  0  0  0  0  0  0  0  0
   12.2006    0.4603    3.0570 H   0  0  0  0  0  0  0  0  0  0  0  0
   11.1902    2.1854    0.7499 H   0  0  0  0  0  0  0  0  0  0  0  0
   12.0488    2.6830    2.2168 H   0  0  0  0  0  0  0  0  0  0  0  0
    5.4606    2.3437    0.5529 H   0  0  0  0  0  0  0  0  0  0  0  0
    3.7756    0.0242   -2.4830 H   0  0  0  0  0  0  0  0  0  0  0  0
    3.0688    1.5433   -1.8467 H   0  0  0  0  0  0  0  0  0  0  0  0
    2.3325   -0.0429   -1.4205 H   0  0  0  0  0  0  0  0  0  0  0  0
  1  2  1  0
  1 26  1  0
  1 27  1  0
  1 28  1  0
  2  3  1  0
  3  4  2  0
  3 23  1  0
  4  5  1  0
  4 29  1  0
  5  6  2  0
  5 30  1  0
  6  7  1  0
  6 22  1  0
  7  8  2  0
  7  9  2  0
  7 10  1  1
 10 11  1  0
 10 31  1  0
 11 12  2  0
 11 15  1  0
 12 13  1  0
 13 14  2  0
 13 21  1  0
 14 15  1  0
 14 19  1  0
 15 16  2  0
 16 17  1  0
 16 18  1  0
 17 32  1  0
 17 33  1  0
 19 20  1  0
 19 34  1  0
 19 35  1  0
 20 21  1  0
 20 36  1  0
 20 37  1  0
 21 38  1  0
 21 39  1  0
 22 23  2  0
 22 40  1  0
 23 24  1  0
 24 25  1  0
 25 41  1  0
 25 42  1  0
 25 43  1  0
M  CHG  2  12   1  18  -1
M  END

