
     RDKit          3D

 47 48  0  0  0  0  0  0  0  0999 V2000
    6.4199    2.3488    6.0171 C   0  0  0  0  0  0  0  0  0  0  0  0
    6.2021    0.8933    5.6011 C   0  0  0  0  0  0  0  0  0  0  0  0
    6.5212    0.6308    4.1266 C   0  0  0  0  0  0  0  0  0  0  0  0
    6.3042   -0.8214    3.7071 C   0  0  0  0  0  0  0  0  0  0  0  0
    6.6583   -1.1090    2.2540 C   0  0  0  0  0  0  0  0  0  0  0  0
    7.2122   -0.2852    1.5587 O   0  0  0  0  0  0  0  0  0  0  0  0
    6.2560   -2.4662    1.6851 C   0  0  0  0  0  0  0  0  0  0  0  0
    6.7175   -3.7098    2.4720 C   0  0  1  0  0  0  0  0  0  0  0  0
    6.1799   -4.8913    1.7963 N   0  0  0  0  0  0  0  0  0  0  0  0
    6.3528   -6.1625    2.4838 C   0  0  0  0  0  0  0  0  0  0  0  0
    5.6618   -7.3029    1.7604 C   0  0  0  0  0  0  0  0  0  0  0  0
    6.2413   -8.5799    1.7276 C   0  0  0  0  0  0  0  0  0  0  0  0
    5.5917   -9.6467    1.0990 C   0  0  0  0  0  0  0  0  0  0  0  0
    4.3522   -9.4482    0.4847 C   0  0  0  0  0  0  0  0  0  0  0  0
    3.7690   -8.1769    0.5042 C   0  0  0  0  0  0  0  0  0  0  0  0
    4.4177   -7.1139    1.1373 C   0  0  0  0  0  0  0  0  0  0  0  0
    8.2320   -3.7465    2.7017 C   0  0  0  0  0  0  0  0  0  0  0  0
    8.7539   -3.9545    3.9875 C   0  0  0  0  0  0  0  0  0  0  0  0
   10.1339   -4.0321    4.2045 C   0  0  0  0  0  0  0  0  0  0  0  0
   11.0179   -3.9044    3.1309 C   0  0  0  0  0  0  0  0  0  0  0  0
   10.5126   -3.6991    1.8425 C   0  0  0  0  0  0  0  0  0  0  0  0
    9.1343   -3.6210    1.6317 C   0  0  0  0  0  0  0  0  0  0  0  0
    6.1845    2.5060    7.0819 H   0  0  0  0  0  0  0  0  0  0  0  0
    5.7832    3.0320    5.4305 H   0  0  0  0  0  0  0  0  0  0  0  0
    7.4664    2.6576    5.8571 H   0  0  0  0  0  0  0  0  0  0  0  0
    5.1551    0.6040    5.8081 H   0  0  0  0  0  0  0  0  0  0  0  0
    6.8242    0.2327    6.2330 H   0  0  0  0  0  0  0  0  0  0  0  0
    7.5653    0.9111    3.9093 H   0  0  0  0  0  0  0  0  0  0  0  0
    5.9053    1.2875    3.4877 H   0  0  0  0  0  0  0  0  0  0  0  0
    5.2596   -1.1401    3.8829 H   0  0  0  0  0  0  0  0  0  0  0  0
    6.9180   -1.4970    4.3324 H   0  0  0  0  0  0  0  0  0  0  0  0
    6.6320   -2.4989    0.6510 H   0  0  0  0  0  0  0  0  0  0  0  0
    5.1540   -2.5066    1.6309 H   0  0  0  0  0  0  0  0  0  0  0  0
    6.2409   -3.6857    3.4676 H   0  0  0  0  0  0  0  0  0  0  0  0
    6.5457   -4.9545    0.8456 H   0  0  0  0  0  0  0  0  0  0  0  0
    5.9084   -6.0541    3.4923 H   0  0  0  0  0  0  0  0  0  0  0  0
    7.4147   -6.4367    2.6546 H   0  0  0  0  0  0  0  0  0  0  0  0
    7.2158   -8.7405    2.1987 H   0  0  0  0  0  0  0  0  0  0  0  0
    6.0598  -10.6346    1.0834 H   0  0  0  0  0  0  0  0  0  0  0  0
    3.8445  -10.2795   -0.0114 H   0  0  0  0  0  0  0  0  0  0  0  0
    2.8011   -8.0124    0.0228 H   0  0  0  0  0  0  0  0  0  0  0  0
    3.9714   -6.1172    1.1483 H   0  0  0  0  0  0  0  0  0  0  0  0
    8.0682   -4.0592    4.8342 H   0  0  0  0  0  0  0  0  0  0  0  0
   10.5173   -4.1937    5.2154 H   0  0  0  0  0  0  0  0  0  0  0  0
   12.0968   -3.9627    3.2956 H   0  0  0  0  0  0  0  0  0  0  0  0
   11.1971   -3.5931    0.9969 H   0  0  0  0  0  0  0  0  0  0  0  0
    8.7610   -3.4532    0.6177 H   0  0  0  0  0  0  0  0  0  0  0  0
  1  2  1  0
  1 23  1  0
  1 24  1  0
  1 25  1  0
  2  3  1  0
  2 26  1  0
  2 27  1  0
  3  4  1  0
  3 28  1  0
  3 29  1  0
  4  5  1  0
  4 30  1  0
  4 31  1  0
  5  6  2  0
  5  7  1  0
  7  8  1  0
  7 32  1  0
  7 33  1  0
  8  9  1  0
  8 17  1  0
  8 34  1  1
  9 10  1  0
  9 35  1  0
 10 11  1  0
 10 36  1  0
 10 37  1  0
 11 12  2  0
 11 16  1  0
 12 13  1  0
 12 38  1  0
 13 14  2  0
 13 39  1  0
 14 15  1  0
 14 40  1  0
 15 16  2  0
 15 41  1  0
 16 42  1  0
 17 18  2  0
 17 22  1  0
 18 19  1  0
 18 43  1  0
 19 20  2  0
 19 44  1  0
 20 21  1  0
 20 45  1  0
 21 22  2  0
 21 46  1  0
 22 47  1  0
M  END

