
     RDKit          3D

 48 50  0  0  0  0  0  0  0  0999 V2000
    4.0471   -5.2129   -7.6220 C   0  0  0  0  0  0  0  0  0  0  0  0
    4.1266   -4.1863   -6.5172 C   0  0  0  0  0  0  0  0  0  0  0  0
    4.4426   -2.8467   -6.7864 C   0  0  0  0  0  0  0  0  0  0  0  0
    4.5000   -1.9079   -5.7523 C   0  0  0  0  0  0  0  0  0  0  0  0
    4.2449   -2.2939   -4.4355 C   0  0  0  0  0  0  0  0  0  0  0  0
    3.9270   -3.6283   -4.1344 C   0  0  0  0  0  0  0  0  0  0  0  0
    3.6909   -4.0689   -2.7057 C   0  0  0  0  0  0  0  0  0  0  0  0
    4.9547   -4.6160   -2.0198 C   0  0  0  0  0  0  0  0  0  0  0  0
    4.7414   -5.0516   -0.5636 C   0  0  0  0  0  0  0  0  0  0  0  0
    3.7933   -6.1424   -0.3895 N   0  0  0  0  0  0  0  0  0  0  0  0
    4.1713   -7.4511   -0.5161 C   0  0  0  0  0  0  0  0  0  0  0  0
    5.3199   -7.7767   -0.7788 O   0  0  0  0  0  0  0  0  0  0  0  0
    3.0882   -8.4823   -0.3171 C   0  0  0  0  0  0  0  0  0  0  0  0
    3.3115   -9.7638   -0.8446 C   0  0  0  0  0  0  0  0  0  0  0  0
    2.3618  -10.7721   -0.6947 C   0  0  0  0  0  0  0  0  0  0  0  0
    1.1685  -10.5314    0.0040 C   0  0  0  0  0  0  0  0  0  0  0  0
    0.0992  -11.6023    0.1378 C   0  0  0  0  0  0  0  0  0  0  0  0
    0.6109  -12.9511    0.3064 N   0  0  0  0  0  0  0  0  0  0  0  0
    1.3115  -13.4444    1.3891 C   0  0  0  0  0  0  0  0  0  0  0  0
    1.5757  -14.7625    1.0879 C   0  0  0  0  0  0  0  0  0  0  0  0
    1.0605  -15.0877   -0.1417 N   0  0  0  0  0  0  0  0  0  0  0  0
    0.4933  -13.9894   -0.5817 C   0  0  0  0  0  0  0  0  0  0  0  0
    0.9577   -9.2609    0.5561 C   0  0  0  0  0  0  0  0  0  0  0  0
    1.9038   -8.2458    0.3961 C   0  0  0  0  0  0  0  0  0  0  0  0
    3.8732   -4.5539   -5.1859 C   0  0  0  0  0  0  0  0  0  0  0  0
    4.3558   -4.7911   -8.5899 H   0  0  0  0  0  0  0  0  0  0  0  0
    3.0194   -5.5977   -7.7375 H   0  0  0  0  0  0  0  0  0  0  0  0
    4.6923   -6.0815   -7.4105 H   0  0  0  0  0  0  0  0  0  0  0  0
    4.6429   -2.5355   -7.8156 H   0  0  0  0  0  0  0  0  0  0  0  0
    4.7440   -0.8660   -5.9771 H   0  0  0  0  0  0  0  0  0  0  0  0
    4.2886   -1.5530   -3.6316 H   0  0  0  0  0  0  0  0  0  0  0  0
    2.9090   -4.8476   -2.6913 H   0  0  0  0  0  0  0  0  0  0  0  0
    3.3003   -3.2180   -2.1197 H   0  0  0  0  0  0  0  0  0  0  0  0
    5.7419   -3.8425   -2.0355 H   0  0  0  0  0  0  0  0  0  0  0  0
    5.3505   -5.4724   -2.5896 H   0  0  0  0  0  0  0  0  0  0  0  0
    4.3906   -4.1988    0.0423 H   0  0  0  0  0  0  0  0  0  0  0  0
    5.7017   -5.3871   -0.1459 H   0  0  0  0  0  0  0  0  0  0  0  0
    2.8082   -5.9235   -0.3211 H   0  0  0  0  0  0  0  0  0  0  0  0
    4.2504   -9.9474   -1.3701 H   0  0  0  0  0  0  0  0  0  0  0  0
    2.5531  -11.7628   -1.1144 H   0  0  0  0  0  0  0  0  0  0  0  0
   -0.5315  -11.6116   -0.7670 H   0  0  0  0  0  0  0  0  0  0  0  0
   -0.5688  -11.3558    0.9793 H   0  0  0  0  0  0  0  0  0  0  0  0
    1.5567  -12.8247    2.2484 H   0  0  0  0  0  0  0  0  0  0  0  0
    2.1104  -15.4906    1.6975 H   0  0  0  0  0  0  0  0  0  0  0  0
   -0.0285  -13.8701   -1.5328 H   0  0  0  0  0  0  0  0  0  0  0  0
    0.0472   -9.0620    1.1290 H   0  0  0  0  0  0  0  0  0  0  0  0
    1.7218   -7.2774    0.8691 H   0  0  0  0  0  0  0  0  0  0  0  0
    3.6238   -5.5969   -4.9623 H   0  0  0  0  0  0  0  0  0  0  0  0
  1  2  1  0
  1 26  1  0
  1 27  1  0
  1 28  1  0
  2  3  2  0
  2 25  1  0
  3  4  1  0
  3 29  1  0
  4  5  2  0
  4 30  1  0
  5  6  1  0
  5 31  1  0
  6  7  1  0
  6 25  2  0
  7  8  1  0
  7 32  1  0
  7 33  1  0
  8  9  1  0
  8 34  1  0
  8 35  1  0
  9 10  1  0
  9 36  1  0
  9 37  1  0
 10 11  1  0
 10 38  1  0
 11 12  2  0
 11 13  1  0
 13 14  2  0
 13 24  1  0
 14 15  1  0
 14 39  1  0
 15 16  2  0
 15 40  1  0
 16 17  1  0
 16 23  1  0
 17 18  1  0
 17 41  1  0
 17 42  1  0
 18 19  1  0
 18 22  1  0
 19 20  2  0
 19 43  1  0
 20 21  1  0
 20 44  1  0
 21 22  2  0
 22 45  1  0
 23 24  2  0
 23 46  1  0
 24 47  1  0
 25 48  1  0
M  END

