
     RDKit          3D

 35 35  0  0  0  0  0  0  0  0999 V2000
    0.9333    2.0934   -1.0469 C   0  0  0  0  0  0  0  0  0  0  0  0
    2.4599    2.0423   -0.9651 C   0  0  0  0  0  0  0  0  0  0  0  0
    3.0178    1.5119    0.3698 C   0  0  1  0  0  0  0  0  0  0  0  0
    2.6243    0.0607    0.6668 C   0  0  0  0  0  0  0  0  0  0  0  0
    4.4699    1.6606    0.4071 N   0  0  0  0  0  0  0  0  0  0  0  0
    5.1222    2.5129    1.2502 C   0  0  0  0  0  0  0  0  0  0  0  0
    4.5465    3.2368    2.0497 O   0  0  0  0  0  0  0  0  0  0  0  0
    6.6453    2.4911    1.1480 C   0  0  0  0  0  0  0  0  0  0  0  0
    7.2253    3.9083    1.2479 C   0  0  0  0  0  0  0  0  0  0  0  0
    8.6731    3.9372    1.3464 N   0  0  0  0  0  0  0  0  0  0  0  0
    9.4703    3.7255    0.2608 C   0  0  0  0  0  0  0  0  0  0  0  0
    9.0382    3.4871   -0.8597 O   0  0  0  0  0  0  0  0  0  0  0  0
   10.9273    3.8045    0.5189 C   0  0  0  0  0  0  0  0  0  0  0  0
   11.9921    3.6500   -0.3290 C   0  0  0  0  0  0  0  0  0  0  0  0
   13.1668    3.8357    0.4655 C   0  0  0  0  0  0  0  0  0  0  0  0
   12.7288    4.0886    1.7366 C   0  0  0  0  0  0  0  0  0  0  0  0
   11.3747    4.0726    1.7821 O   0  0  0  0  0  0  0  0  0  0  0  0
    0.6071    2.5635   -1.9880 H   0  0  0  0  0  0  0  0  0  0  0  0
    0.5096    2.6839   -0.2174 H   0  0  0  0  0  0  0  0  0  0  0  0
    0.4786    1.0908   -1.0087 H   0  0  0  0  0  0  0  0  0  0  0  0
    2.8686    3.0553   -1.1156 H   0  0  0  0  0  0  0  0  0  0  0  0
    2.8579    1.4242   -1.7924 H   0  0  0  0  0  0  0  0  0  0  0  0
    2.6509    2.1586    1.1820 H   0  0  0  0  0  0  0  0  0  0  0  0
    2.9960   -0.6217   -0.1179 H   0  0  0  0  0  0  0  0  0  0  0  0
    1.5315   -0.0571    0.7194 H   0  0  0  0  0  0  0  0  0  0  0  0
    3.0458   -0.2651    1.6299 H   0  0  0  0  0  0  0  0  0  0  0  0
    5.0216    1.1178   -0.2480 H   0  0  0  0  0  0  0  0  0  0  0  0
    6.9907    2.0142    0.2183 H   0  0  0  0  0  0  0  0  0  0  0  0
    7.0215    1.8859    1.9918 H   0  0  0  0  0  0  0  0  0  0  0  0
    6.7976    4.4070    2.1282 H   0  0  0  0  0  0  0  0  0  0  0  0
    6.9236    4.4837    0.3582 H   0  0  0  0  0  0  0  0  0  0  0  0
    9.1116    4.1091    2.2431 H   0  0  0  0  0  0  0  0  0  0  0  0
   11.9205    3.4309   -1.3912 H   0  0  0  0  0  0  0  0  0  0  0  0
   14.2031    3.7882    0.1375 H   0  0  0  0  0  0  0  0  0  0  0  0
   13.2387    4.2909    2.6752 H   0  0  0  0  0  0  0  0  0  0  0  0
  1  2  1  0
  1 18  1  0
  1 19  1  0
  1 20  1  0
  2  3  1  0
  2 21  1  0
  2 22  1  0
  3  4  1  0
  3  5  1  0
  3 23  1  1
  4 24  1  0
  4 25  1  0
  4 26  1  0
  5  6  1  0
  5 27  1  0
  6  7  2  0
  6  8  1  0
  8  9  1  0
  8 28  1  0
  8 29  1  0
  9 10  1  0
  9 30  1  0
  9 31  1  0
 10 11  1  0
 10 32  1  0
 11 12  2  0
 11 13  1  0
 13 14  2  0
 13 17  1  0
 14 15  1  0
 14 33  1  0
 15 16  2  0
 15 34  1  0
 16 17  1  0
 16 35  1  0
M  END

