
     RDKit          3D

 54 58  0  0  0  0  0  0  0  0999 V2000
    1.4059   -0.1389    0.3409 O   0  0  0  0  0  0  0  0  0  0  0  0
    2.5169    0.0812   -0.1241 C   0  0  0  0  0  0  0  0  0  0  0  0
    2.7285    1.2896   -1.0009 C   0  0  0  0  0  0  0  0  0  0  0  0
    1.7435    1.5989   -1.9524 C   0  0  0  0  0  0  0  0  0  0  0  0
    1.8570    2.7531   -2.7200 C   0  0  0  0  0  0  0  0  0  0  0  0
    2.9249    3.6511   -2.5474 C   0  0  0  0  0  0  0  0  0  0  0  0
    3.8985    3.3679   -1.5682 C   0  0  0  0  0  0  0  0  0  0  0  0
    3.7867    2.1871   -0.8168 C   0  0  0  0  0  0  0  0  0  0  0  0
    5.0364    4.3336   -1.2831 C   0  0  0  0  0  0  0  0  0  0  0  0
    5.2803    5.3396   -2.4119 C   0  0  0  0  0  0  0  0  0  0  0  0
    3.9588    5.9616   -2.8692 C   0  0  0  0  0  0  0  0  0  0  0  0
    3.0239    4.8842   -3.4271 C   0  0  0  0  0  0  0  0  0  0  0  0
    3.6000   -0.7258    0.1595 N   0  0  0  0  0  0  0  0  0  0  0  0
    3.4338   -1.8034    1.1354 C   0  0  0  0  0  0  0  0  0  0  0  0
    3.6067   -3.1751    0.4662 C   0  0  0  0  0  0  0  0  0  0  0  0
    4.8539   -3.3028   -0.2818 N   0  0  0  0  0  0  0  0  0  0  0  0
    6.0434   -3.5883    0.5097 C   0  0  0  0  0  0  0  0  0  0  0  0
    7.1713   -4.2137   -0.2980 C   0  0  0  0  0  0  0  0  0  0  0  0
    6.8944   -5.1558   -1.2974 C   0  0  0  0  0  0  0  0  0  0  0  0
    7.9182   -5.7949   -2.0229 C   0  0  0  0  0  0  0  0  0  0  0  0
    9.2217   -5.4554   -1.7057 C   0  0  0  0  0  0  0  0  0  0  0  0
    9.5092   -4.5171   -0.7133 C   0  0  0  0  0  0  0  0  0  0  0  0
    8.5117   -3.8787    0.0018 C   0  0  0  0  0  0  0  0  0  0  0  0
   10.8653   -4.3674   -0.6085 O   0  0  0  0  0  0  0  0  0  0  0  0
   11.4457   -5.2196   -1.5929 C   0  0  0  0  0  0  0  0  0  0  0  0
   10.3903   -5.9183   -2.2470 O   0  0  0  0  0  0  0  0  0  0  0  0
    4.9882   -2.2117   -1.2410 C   0  0  0  0  0  0  0  0  0  0  0  0
    4.8364   -0.8105   -0.6161 C   0  0  0  0  0  0  0  0  0  0  0  0
    0.8903    0.9281   -2.0711 H   0  0  0  0  0  0  0  0  0  0  0  0
    1.0924    2.9778   -3.4699 H   0  0  0  0  0  0  0  0  0  0  0  0
    4.5400    1.9816   -0.0506 H   0  0  0  0  0  0  0  0  0  0  0  0
    5.9567    3.7670   -1.0625 H   0  0  0  0  0  0  0  0  0  0  0  0
    4.7991    4.8870   -0.3545 H   0  0  0  0  0  0  0  0  0  0  0  0
    5.7591    4.8314   -3.2688 H   0  0  0  0  0  0  0  0  0  0  0  0
    5.9852    6.1174   -2.0755 H   0  0  0  0  0  0  0  0  0  0  0  0
    4.1328    6.7389   -3.6310 H   0  0  0  0  0  0  0  0  0  0  0  0
    3.4778    6.4653   -2.0110 H   0  0  0  0  0  0  0  0  0  0  0  0
    3.3906    4.5712   -4.4235 H   0  0  0  0  0  0  0  0  0  0  0  0
    2.0153    5.2953   -3.5999 H   0  0  0  0  0  0  0  0  0  0  0  0
    2.4336   -1.7039    1.5748 H   0  0  0  0  0  0  0  0  0  0  0  0
    4.1846   -1.6737    1.9380 H   0  0  0  0  0  0  0  0  0  0  0  0
    2.7660   -3.3275   -0.2342 H   0  0  0  0  0  0  0  0  0  0  0  0
    3.5516   -3.9743    1.2229 H   0  0  0  0  0  0  0  0  0  0  0  0
    5.7397   -4.2989    1.2993 H   0  0  0  0  0  0  0  0  0  0  0  0
    6.4494   -2.7048    1.0495 H   0  0  0  0  0  0  0  0  0  0  0  0
    5.8498   -5.3843   -1.5169 H   0  0  0  0  0  0  0  0  0  0  0  0
    7.6989   -6.5266   -2.8023 H   0  0  0  0  0  0  0  0  0  0  0  0
    8.7583   -3.1429    0.7703 H   0  0  0  0  0  0  0  0  0  0  0  0
   12.1259   -5.9417   -1.1060 H   0  0  0  0  0  0  0  0  0  0  0  0
   12.0040   -4.6116   -2.3297 H   0  0  0  0  0  0  0  0  0  0  0  0
    4.2060   -2.3300   -2.0126 H   0  0  0  0  0  0  0  0  0  0  0  0
    5.9620   -2.2895   -1.7489 H   0  0  0  0  0  0  0  0  0  0  0  0
    4.8302   -0.0574   -1.4124 H   0  0  0  0  0  0  0  0  0  0  0  0
    5.6995   -0.5890    0.0403 H   0  0  0  0  0  0  0  0  0  0  0  0
  1  2  2  0
  2  3  1  0
  2 13  1  0
  3  4  2  0
  3  8  1  0
  4  5  1  0
  4 29  1  0
  5  6  2  0
  5 30  1  0
  6  7  1  0
  6 12  1  0
  7  8  2  0
  7  9  1  0
  8 31  1  0
  9 10  1  0
  9 32  1  0
  9 33  1  0
 10 11  1  0
 10 34  1  0
 10 35  1  0
 11 12  1  0
 11 36  1  0
 11 37  1  0
 12 38  1  0
 12 39  1  0
 13 14  1  0
 13 28  1  0
 14 15  1  0
 14 40  1  0
 14 41  1  0
 15 16  1  0
 15 42  1  0
 15 43  1  0
 16 17  1  0
 16 27  1  0
 17 18  1  0
 17 44  1  0
 17 45  1  0
 18 19  2  0
 18 23  1  0
 19 20  1  0
 19 46  1  0
 20 21  2  0
 20 47  1  0
 21 22  1  0
 21 26  1  0
 22 23  2  0
 22 24  1  0
 23 48  1  0
 24 25  1  0
 25 26  1  0
 25 49  1  0
 25 50  1  0
 27 28  1  0
 27 51  1  0
 27 52  1  0
 28 53  1  0
 28 54  1  0
M  END

