
     RDKit          3D

 30 30  0  0  0  0  0  0  0  0999 V2000
    0.8879   -0.0670    0.1493 C   0  0  0  0  0  0  0  0  0  0  0  0
    2.4135   -0.1023   -0.0573 C   0  0  1  0  0  0  0  0  0  0  0  0
    2.8739   -1.5502   -0.2949 C   0  0  0  0  0  0  0  0  0  0  0  0
    2.8144    0.8035   -1.2491 C   0  0  0  0  0  0  0  0  0  0  0  0
    2.1038    0.3984   -2.8982 S   0  0  0  0  0  0  0  0  0  0  0  0
    3.0322    0.4798    1.2492 C   0  0  0  0  0  0  0  0  0  0  0  0
    4.5002    0.4433    1.3622 N   0  0  0  0  0  0  0  0  0  0  0  0
    5.2458    1.4875    0.9172 C   0  0  0  0  0  0  0  0  0  0  0  0
    6.6152    1.5163    1.0148 C   0  0  0  0  0  0  0  0  0  0  0  0
    7.2620    0.4072    1.6023 C   0  0  0  0  0  0  0  0  0  0  0  0
    6.5281   -0.6578    2.0607 C   0  0  0  0  0  0  0  0  0  0  0  0
    7.2593   -1.8050    2.6160 N   0  0  0  0  0  0  0  0  0  0  0  0
    6.7466   -2.9041    2.5256 O   0  0  0  0  0  0  0  0  0  0  0  0
    8.3598   -1.5762    3.1037 O   0  0  0  0  0  0  0  0  0  0  0  0
    5.0660   -0.6967    2.0334 C   0  0  0  0  0  0  0  0  0  0  0  0
    4.3390   -1.5363    2.5230 O   0  0  0  0  0  0  0  0  0  0  0  0
    0.3702   -0.4014   -0.7611 H   0  0  0  0  0  0  0  0  0  0  0  0
    0.5339    0.9515    0.3829 H   0  0  0  0  0  0  0  0  0  0  0  0
    0.5902   -0.7279    0.9784 H   0  0  0  0  0  0  0  0  0  0  0  0
    2.3443   -1.9779   -1.1593 H   0  0  0  0  0  0  0  0  0  0  0  0
    2.6749   -2.1791    0.5835 H   0  0  0  0  0  0  0  0  0  0  0  0
    3.9552   -1.6063   -0.5011 H   0  0  0  0  0  0  0  0  0  0  0  0
    3.9077    0.8406   -1.3635 H   0  0  0  0  0  0  0  0  0  0  0  0
    2.4723    1.8356   -1.0655 H   0  0  0  0  0  0  0  0  0  0  0  0
    2.9097   -0.6510   -3.1770 H   0  0  0  0  0  0  0  0  0  0  0  0
    2.6489   -0.0928    2.1028 H   0  0  0  0  0  0  0  0  0  0  0  0
    2.7178    1.5281    1.3669 H   0  0  0  0  0  0  0  0  0  0  0  0
    4.6871    2.3167    0.4794 H   0  0  0  0  0  0  0  0  0  0  0  0
    7.1750    2.3758    0.6482 H   0  0  0  0  0  0  0  0  0  0  0  0
    8.3477    0.3695    1.7080 H   0  0  0  0  0  0  0  0  0  0  0  0
  2  1  1  1
  1 17  1  0
  1 18  1  0
  1 19  1  0
  2  3  1  0
  2  4  1  0
  2  6  1  0
  3 20  1  0
  3 21  1  0
  3 22  1  0
  4  5  1  0
  4 23  1  0
  4 24  1  0
  5 25  1  0
  6  7  1  0
  6 26  1  0
  6 27  1  0
  7  8  1  0
  7 15  1  0
  8  9  2  0
  8 28  1  0
  9 10  1  0
  9 29  1  0
 10 11  2  0
 10 30  1  0
 11 12  1  0
 11 15  1  0
 12 13  2  0
 12 14  1  0
 15 16  2  0
M  CHG  2  12   1  14  -1
M  END

