
     RDKit          3D

 56 59  0  0  0  0  0  0  0  0999 V2000
    2.4370    2.8373   -0.8144 C   0  0  0  0  0  0  0  0  0  0  0  0
    2.5397    3.6269    0.4928 C   0  0  1  0  0  0  0  0  0  0  0  0
    1.8229    4.9830    0.3955 C   0  0  0  0  0  0  0  0  0  0  0  0
    2.0590    2.8241    1.7048 C   0  0  0  0  0  0  0  0  0  0  0  0
    4.3283    4.0665    0.7609 S   0  0  1  0  0  0  0  0  0  0  0  0
    4.8814    4.6058   -0.4785 O   0  0  0  0  0  0  0  0  0  0  0  0
    4.4270    4.8361    2.0159 O   0  0  0  0  0  0  0  0  0  0  0  0
    5.1320    2.6110    1.1533 N   0  0  0  0  0  0  0  0  0  0  0  0
    5.8856    1.8071    0.2581 C   0  0  0  0  0  0  0  0  0  0  0  0
    5.4756    1.5456   -0.8552 O   0  0  0  0  0  0  0  0  0  0  0  0
    7.1461    1.3128    0.8071 C   0  0  0  0  0  0  0  0  0  0  0  0
    7.9156    0.2605    0.2415 C   0  0  0  0  0  0  0  0  0  0  0  0
    9.0426    0.0259    0.8892 N   0  0  0  0  0  0  0  0  0  0  0  0
    9.0469    0.9418    1.8987 N   0  0  0  0  0  0  0  0  0  0  0  0
   10.0557    1.0800    2.8000 C   0  0  0  0  0  0  0  0  0  0  0  0
    9.9879    2.0451    3.7662 C   0  0  0  0  0  0  0  0  0  0  0  0
    8.8528    2.9297    3.8421 C   0  0  0  0  0  0  0  0  0  0  0  0
    8.7969    3.8965    4.8100 N   0  0  0  0  0  0  0  0  0  0  0  0
    9.9055    4.1993    5.7182 C   0  0  0  0  0  0  0  0  0  0  0  0
    9.3626    5.3022    6.6397 C   0  0  0  0  0  0  0  0  0  0  0  0
    8.2253    5.9391    5.8297 C   0  0  0  0  0  0  0  0  0  0  0  0
    7.6388    4.7732    4.9990 C   0  0  2  0  0  0  0  0  0  0  0  0
    7.3058    5.1653    4.0245 H   0  0  0  0  0  0  0  0  0  0  0  0
    6.4204    4.0858    5.6223 C   0  0  0  0  0  0  0  0  0  0  0  0
    5.1408    4.3724    5.1198 C   0  0  0  0  0  0  0  0  0  0  0  0
    4.0134    3.7796    5.6834 C   0  0  0  0  0  0  0  0  0  0  0  0
    2.8029    4.0642    5.1740 F   0  0  0  0  0  0  0  0  0  0  0  0
    4.1037    2.8861    6.7470 C   0  0  0  0  0  0  0  0  0  0  0  0
    5.3694    2.5846    7.2519 C   0  0  0  0  0  0  0  0  0  0  0  0
    6.4958    3.1799    6.6904 C   0  0  0  0  0  0  0  0  0  0  0  0
    7.6971    2.8519    7.2128 F   0  0  0  0  0  0  0  0  0  0  0  0
    7.8354    2.7687    2.8910 C   0  0  0  0  0  0  0  0  0  0  0  0
    7.9222    1.7610    1.9081 C   0  0  0  0  0  0  0  0  0  0  0  0
    1.3877    2.5328   -0.9597 H   0  0  0  0  0  0  0  0  0  0  0  0
    3.0711    1.9394   -0.8042 H   0  0  0  0  0  0  0  0  0  0  0  0
    2.7473    3.4510   -1.6714 H   0  0  0  0  0  0  0  0  0  0  0  0
    0.7561    4.8040    0.1871 H   0  0  0  0  0  0  0  0  0  0  0  0
    2.2351    5.5917   -0.4227 H   0  0  0  0  0  0  0  0  0  0  0  0
    1.9064    5.5495    1.3339 H   0  0  0  0  0  0  0  0  0  0  0  0
    0.9752    2.6511    1.6058 H   0  0  0  0  0  0  0  0  0  0  0  0
    2.2343    3.3648    2.6464 H   0  0  0  0  0  0  0  0  0  0  0  0
    2.5537    1.8433    1.7583 H   0  0  0  0  0  0  0  0  0  0  0  0
    5.3941    2.6110    2.1349 H   0  0  0  0  0  0  0  0  0  0  0  0
    7.6490   -0.3307   -0.6343 H   0  0  0  0  0  0  0  0  0  0  0  0
   10.8854    0.3824    2.6827 H   0  0  0  0  0  0  0  0  0  0  0  0
   10.8105    2.1262    4.4734 H   0  0  0  0  0  0  0  0  0  0  0  0
   10.7876    4.5409    5.1445 H   0  0  0  0  0  0  0  0  0  0  0  0
   10.2067    3.3085    6.2935 H   0  0  0  0  0  0  0  0  0  0  0  0
   10.1413    6.0277    6.9162 H   0  0  0  0  0  0  0  0  0  0  0  0
    8.9745    4.8582    7.5663 H   0  0  0  0  0  0  0  0  0  0  0  0
    8.6263    6.6950    5.1352 H   0  0  0  0  0  0  0  0  0  0  0  0
    7.4648    6.4310    6.4520 H   0  0  0  0  0  0  0  0  0  0  0  0
    5.0082    5.0292    4.2571 H   0  0  0  0  0  0  0  0  0  0  0  0
    3.1996    2.4356    7.1598 H   0  0  0  0  0  0  0  0  0  0  0  0
    5.5007    1.8870    8.0812 H   0  0  0  0  0  0  0  0  0  0  0  0
    6.9851    3.4441    2.8771 H   0  0  0  0  0  0  0  0  0  0  0  0
  2  1  1  6
  1 34  1  0
  1 35  1  0
  1 36  1  0
  2  3  1  0
  2  4  1  0
  2  5  1  0
  3 37  1  0
  3 38  1  0
  3 39  1  0
  4 40  1  0
  4 41  1  0
  4 42  1  0
  5  6  2  0
  5  7  2  0
  5  8  1  1
  8  9  1  0
  8 43  1  0
  9 10  2  0
  9 11  1  0
 11 12  1  0
 11 33  2  0
 12 13  2  0
 12 44  1  0
 13 14  1  0
 14 15  1  0
 14 33  1  0
 15 16  2  0
 15 45  1  0
 16 17  1  0
 16 46  1  0
 17 18  1  0
 17 32  2  0
 18 19  1  0
 18 22  1  0
 19 20  1  0
 19 47  1  0
 19 48  1  0
 20 21  1  0
 20 49  1  0
 20 50  1  0
 21 22  1  0
 21 51  1  0
 21 52  1  0
 22 23  1  6
 22 24  1  0
 24 25  2  0
 24 30  1  0
 25 26  1  0
 25 53  1  0
 26 27  1  0
 26 28  2  0
 28 29  1  0
 28 54  1  0
 29 30  2  0
 29 55  1  0
 30 31  1  0
 32 33  1  0
 32 56  1  0
M  END

