
     RDKit          3D

 63 65  0  0  0  0  0  0  0  0999 V2000
    1.0014   -0.4153    2.0743 C   0  0  0  0  0  0  0  0  0  0  0  0
    2.4975   -0.5908    2.3375 C   0  0  0  0  0  0  0  0  0  0  0  0
    3.3307   -0.9359    1.0803 C   0  0  2  0  0  0  0  0  0  0  0  0
    3.1242   -0.1542    0.3287 H   0  0  0  0  0  0  0  0  0  0  0  0
    2.8826   -2.2580    0.4664 C   0  0  0  0  0  0  0  0  0  0  0  0
    2.2944   -2.3076   -0.8033 C   0  0  0  0  0  0  0  0  0  0  0  0
    1.8725   -3.5199   -1.3581 C   0  0  0  0  0  0  0  0  0  0  0  0
    2.0308   -4.7131   -0.6478 C   0  0  0  0  0  0  0  0  0  0  0  0
    1.6484   -5.9213   -1.1564 O   0  0  0  0  0  0  0  0  0  0  0  0
    2.6089   -4.6984    0.6384 C   0  0  0  0  0  0  0  0  0  0  0  0
    2.7979   -6.0058    1.3936 C   0  0  0  0  0  0  0  0  0  0  0  0
    2.9662   -5.8290    2.8297 N   0  0  0  0  0  0  0  0  0  0  0  0
    1.7213   -5.5985    3.5643 C   0  0  0  0  0  0  0  0  0  0  0  0
    0.9240   -6.8848    3.8470 C   0  0  0  0  0  0  0  0  0  0  0  0
    1.8040   -7.9268    4.5523 C   0  0  0  0  0  0  0  0  0  0  0  0
    3.1071   -8.1566    3.7738 C   0  0  0  0  0  0  0  0  0  0  0  0
    3.8097   -6.8151    3.4987 C   0  0  0  0  0  0  0  0  0  0  0  0
    3.0228   -3.4719    1.1633 C   0  0  0  0  0  0  0  0  0  0  0  0
    4.8598   -0.9161    1.3936 C   0  0  1  0  0  0  0  0  0  0  0  0
    5.0170   -1.6620    2.1922 H   0  0  0  0  0  0  0  0  0  0  0  0
    5.7509   -1.3901    0.2123 C   0  0  0  0  0  0  0  0  0  0  0  0
    5.7173   -0.5457   -1.0630 C   0  0  0  0  0  0  0  0  0  0  0  0
    5.3560    0.4119    1.9581 C   0  0  0  0  0  0  0  0  0  0  0  0
    6.2396    0.4215    3.0543 C   0  0  0  0  0  0  0  0  0  0  0  0
    6.7571    1.6036    3.5745 C   0  0  0  0  0  0  0  0  0  0  0  0
    6.4023    2.8396    3.0096 C   0  0  0  0  0  0  0  0  0  0  0  0
    6.9513    3.9446    3.5813 O   0  0  0  0  0  0  0  0  0  0  0  0
    6.6333    5.2150    3.0648 C   0  0  0  0  0  0  0  0  0  0  0  0
    5.5207    2.8589    1.9198 C   0  0  0  0  0  0  0  0  0  0  0  0
    5.0141    1.6561    1.4104 C   0  0  0  0  0  0  0  0  0  0  0  0
    0.4654   -0.1548    3.0012 H   0  0  0  0  0  0  0  0  0  0  0  0
    0.5453   -1.3326    1.6698 H   0  0  0  0  0  0  0  0  0  0  0  0
    0.8152    0.3939    1.3474 H   0  0  0  0  0  0  0  0  0  0  0  0
    2.6506   -1.3817    3.0933 H   0  0  0  0  0  0  0  0  0  0  0  0
    2.8967    0.3333    2.7847 H   0  0  0  0  0  0  0  0  0  0  0  0
    2.1567   -1.3854   -1.3750 H   0  0  0  0  0  0  0  0  0  0  0  0
    1.4162   -3.5399   -2.3536 H   0  0  0  0  0  0  0  0  0  0  0  0
    1.2506   -5.7892   -2.0266 H   0  0  0  0  0  0  0  0  0  0  0  0
    3.7045   -6.5012    1.0024 H   0  0  0  0  0  0  0  0  0  0  0  0
    1.9648   -6.6851    1.1244 H   0  0  0  0  0  0  0  0  0  0  0  0
    1.1092   -4.8726    3.0062 H   0  0  0  0  0  0  0  0  0  0  0  0
    1.9767   -5.1185    4.5282 H   0  0  0  0  0  0  0  0  0  0  0  0
    0.5453   -7.3035    2.8973 H   0  0  0  0  0  0  0  0  0  0  0  0
    0.0356   -6.6454    4.4563 H   0  0  0  0  0  0  0  0  0  0  0  0
    1.2557   -8.8743    4.6876 H   0  0  0  0  0  0  0  0  0  0  0  0
    2.0513   -7.5632    5.5678 H   0  0  0  0  0  0  0  0  0  0  0  0
    2.8850   -8.6610    2.8158 H   0  0  0  0  0  0  0  0  0  0  0  0
    3.7834   -8.8269    4.3320 H   0  0  0  0  0  0  0  0  0  0  0  0
    4.7236   -6.9659    2.9015 H   0  0  0  0  0  0  0  0  0  0  0  0
    4.1337   -6.3831    4.4651 H   0  0  0  0  0  0  0  0  0  0  0  0
    3.4666   -3.4950    2.1615 H   0  0  0  0  0  0  0  0  0  0  0  0
    5.4706   -2.4267   -0.0355 H   0  0  0  0  0  0  0  0  0  0  0  0
    6.7900   -1.4357    0.5815 H   0  0  0  0  0  0  0  0  0  0  0  0
    4.7095   -0.5058   -1.5063 H   0  0  0  0  0  0  0  0  0  0  0  0
    6.3875   -0.9771   -1.8241 H   0  0  0  0  0  0  0  0  0  0  0  0
    6.0491    0.4886   -0.8825 H   0  0  0  0  0  0  0  0  0  0  0  0
    6.5275   -0.5286    3.5147 H   0  0  0  0  0  0  0  0  0  0  0  0
    7.4394    1.5987    4.4272 H   0  0  0  0  0  0  0  0  0  0  0  0
    7.1827    5.9479    3.6713 H   0  0  0  0  0  0  0  0  0  0  0  0
    5.5517    5.4323    3.1372 H   0  0  0  0  0  0  0  0  0  0  0  0
    6.9437    5.3222    2.0091 H   0  0  0  0  0  0  0  0  0  0  0  0
    5.2181    3.7992    1.4581 H   0  0  0  0  0  0  0  0  0  0  0  0
    4.3247    1.7090    0.5646 H   0  0  0  0  0  0  0  0  0  0  0  0
  1  2  1  0
  1 31  1  0
  1 32  1  0
  1 33  1  0
  2  3  1  0
  2 34  1  0
  2 35  1  0
  3  4  1  6
  3  5  1  0
  3 19  1  0
  5  6  2  0
  5 18  1  0
  6  7  1  0
  6 36  1  0
  7  8  2  0
  7 37  1  0
  8  9  1  0
  8 10  1  0
  9 38  1  0
 10 11  1  0
 10 18  2  0
 11 12  1  0
 11 39  1  0
 11 40  1  0
 12 13  1  0
 12 17  1  0
 13 14  1  0
 13 41  1  0
 13 42  1  0
 14 15  1  0
 14 43  1  0
 14 44  1  0
 15 16  1  0
 15 45  1  0
 15 46  1  0
 16 17  1  0
 16 47  1  0
 16 48  1  0
 17 49  1  0
 17 50  1  0
 18 51  1  0
 19 20  1  1
 19 21  1  0
 19 23  1  0
 21 22  1  0
 21 52  1  0
 21 53  1  0
 22 54  1  0
 22 55  1  0
 22 56  1  0
 23 24  2  0
 23 30  1  0
 24 25  1  0
 24 57  1  0
 25 26  2  0
 25 58  1  0
 26 27  1  0
 26 29  1  0
 27 28  1  0
 28 59  1  0
 28 60  1  0
 28 61  1  0
 29 30  2  0
 29 62  1  0
 30 63  1  0
M  END

