
     RDKit          3D

 44 44  0  0  0  0  0  0  0  0999 V2000
    0.6981    0.0543   -0.0484 C   0  0  0  0  0  0  0  0  0  0  0  0
    2.2115    0.2003    0.0824 C   0  0  0  0  0  0  0  0  0  0  0  0
    2.8767   -1.0426   -0.2946 N   0  0  0  0  0  0  0  0  0  0  0  0
    4.3531   -1.1215   -0.3160 C   0  0  1  0  0  0  0  0  0  0  0  0
    4.9689   -0.4159   -1.5387 C   0  0  0  0  0  0  0  0  0  0  0  0
    4.9719   -0.6238    1.0233 C   0  0  0  0  0  0  0  0  0  0  0  0
    5.2837    0.8757    1.1492 C   0  0  0  0  0  0  0  0  0  0  0  0
    5.5530    1.2618    2.5250 N   0  0  0  0  0  0  0  0  0  0  0  0
    6.7616    0.6810    3.1018 C   0  0  0  0  0  0  0  0  0  0  0  0
    6.9600    1.4305    4.4379 C   0  0  2  0  0  0  0  0  0  0  0  0
    6.4293    0.6451    5.6404 C   0  0  0  0  0  0  0  0  0  0  0  0
    6.1997    2.7661    4.2109 C   0  0  0  0  0  0  0  0  0  0  0  0
    5.6676    2.7050    2.7662 C   0  0  2  0  0  0  0  0  0  0  0  0
    4.3640    3.4723    2.5663 C   0  0  0  0  0  0  0  0  0  0  0  0
    4.7489   -2.6302   -0.3988 C   0  0  0  0  0  0  0  0  0  0  0  0
    3.7918   -3.4875    0.0317 N   0  0  0  0  0  0  0  0  0  0  0  0
    5.8520   -2.9800   -0.7839 O   0  0  0  0  0  0  0  0  0  0  0  0
    0.1859    0.9785    0.2613 H   0  0  0  0  0  0  0  0  0  0  0  0
    0.3295   -0.7746    0.5762 H   0  0  0  0  0  0  0  0  0  0  0  0
    0.4044   -0.1527   -1.0920 H   0  0  0  0  0  0  0  0  0  0  0  0
    2.4595    0.4334    1.1298 H   0  0  0  0  0  0  0  0  0  0  0  0
    2.5425    1.0740   -0.5200 H   0  0  0  0  0  0  0  0  0  0  0  0
    2.5345   -1.3254   -1.2146 H   0  0  0  0  0  0  0  0  0  0  0  0
    4.7380    0.6596   -1.5420 H   0  0  0  0  0  0  0  0  0  0  0  0
    4.5744   -0.8531   -2.4706 H   0  0  0  0  0  0  0  0  0  0  0  0
    6.0592   -0.5468   -1.5532 H   0  0  0  0  0  0  0  0  0  0  0  0
    5.9097   -1.1817    1.1635 H   0  0  0  0  0  0  0  0  0  0  0  0
    4.3017   -0.9183    1.8472 H   0  0  0  0  0  0  0  0  0  0  0  0
    4.4339    1.4724    0.7924 H   0  0  0  0  0  0  0  0  0  0  0  0
    6.1442    1.1335    0.4887 H   0  0  0  0  0  0  0  0  0  0  0  0
    7.6400    0.8420    2.4330 H   0  0  0  0  0  0  0  0  0  0  0  0
    6.6587   -0.4061    3.2427 H   0  0  0  0  0  0  0  0  0  0  0  0
    8.0343    1.6229    4.5897 H   0  0  0  0  0  0  0  0  0  0  0  0
    5.3711    0.3766    5.4860 H   0  0  0  0  0  0  0  0  0  0  0  0
    6.4960    1.2377    6.5678 H   0  0  0  0  0  0  0  0  0  0  0  0
    6.9971   -0.2866    5.7976 H   0  0  0  0  0  0  0  0  0  0  0  0
    6.8338    3.6518    4.3693 H   0  0  0  0  0  0  0  0  0  0  0  0
    5.3521    2.8443    4.9118 H   0  0  0  0  0  0  0  0  0  0  0  0
    6.4384    3.1414    2.0845 H   0  0  0  0  0  0  0  0  0  0  0  0
    3.5637    3.0280    3.1802 H   0  0  0  0  0  0  0  0  0  0  0  0
    4.0331    3.4746    1.5161 H   0  0  0  0  0  0  0  0  0  0  0  0
    4.4912    4.5242    2.8682 H   0  0  0  0  0  0  0  0  0  0  0  0
    2.9055   -3.1011    0.3388 H   0  0  0  0  0  0  0  0  0  0  0  0
    3.9931   -4.4791    0.0591 H   0  0  0  0  0  0  0  0  0  0  0  0
  1  2  1  0
  1 18  1  0
  1 19  1  0
  1 20  1  0
  2  3  1  0
  2 21  1  0
  2 22  1  0
  3  4  1  0
  3 23  1  0
  4  5  1  0
  4  6  1  0
  4 15  1  6
  5 24  1  0
  5 25  1  0
  5 26  1  0
  6  7  1  0
  6 27  1  0
  6 28  1  0
  7  8  1  0
  7 29  1  0
  7 30  1  0
  8  9  1  0
  8 13  1  0
  9 10  1  0
  9 31  1  0
  9 32  1  0
 10 11  1  0
 10 12  1  0
 10 33  1  1
 11 34  1  0
 11 35  1  0
 11 36  1  0
 12 13  1  0
 12 37  1  0
 12 38  1  0
 13 14  1  0
 13 39  1  6
 14 40  1  0
 14 41  1  0
 14 42  1  0
 15 16  1  0
 15 17  2  0
 16 43  1  0
 16 44  1  0
M  END

