
     RDKit          3D

 56 59  0  0  0  0  0  0  0  0999 V2000
    1.2213   -0.0633    0.8981 C   0  0  0  0  0  0  0  0  0  0  0  0
    2.5300   -0.2332    0.1102 C   0  0  1  0  0  0  0  0  0  0  0  0
    3.1851   -1.5865    0.4954 C   0  0  0  0  0  0  0  0  0  0  0  0
    2.5133   -2.4580    1.0360 O   0  0  0  0  0  0  0  0  0  0  0  0
    4.5087   -1.7726    0.1956 N   0  0  0  0  0  0  0  0  0  0  0  0
    5.3968   -0.8256   -0.4746 C   0  0  0  0  0  0  0  0  0  0  0  0
    6.6473   -0.5610    0.3755 C   0  0  0  0  0  0  0  0  0  0  0  0
    7.3812   -1.8530    0.8015 C   0  0  2  0  0  0  0  0  0  0  0  0
    8.1580   -2.4697   -0.3648 C   0  0  0  0  0  0  0  0  0  0  0  0
    9.4847   -2.6872   -0.1322 N   0  0  0  0  0  0  0  0  0  0  0  0
    7.6367   -2.7620   -1.4305 O   0  0  0  0  0  0  0  0  0  0  0  0
    6.3666   -2.8616    1.3938 C   0  0  0  0  0  0  0  0  0  0  0  0
    5.1349   -3.0590    0.5045 C   0  0  0  0  0  0  0  0  0  0  0  0
    2.4450   -0.1335   -1.3433 N   0  0  0  0  0  0  0  0  0  0  0  0
    1.7201   -1.1523   -2.0906 C   0  0  0  0  0  0  0  0  0  0  0  0
    0.2943   -0.7277   -2.4847 C   0  0  0  0  0  0  0  0  0  0  0  0
    0.3021    0.6329   -3.1910 C   0  0  0  0  0  0  0  0  0  0  0  0
    1.0285    1.6977   -2.3333 C   0  0  2  0  0  0  0  0  0  0  0  0
    1.1099    3.0288   -3.0146 C   0  0  0  0  0  0  0  0  0  0  0  0
    2.1603    3.5289   -3.6373 N   0  0  0  0  0  0  0  0  0  0  0  0
    1.8580    4.7462   -4.1517 N   0  0  0  0  0  0  0  0  0  0  0  0
    0.5974    5.0010   -3.8419 C   0  0  0  0  0  0  0  0  0  0  0  0
   -0.2356    6.1204   -4.1148 C   0  0  0  0  0  0  0  0  0  0  0  0
   -1.5270    6.1169   -3.6517 C   0  0  0  0  0  0  0  0  0  0  0  0
   -2.0288    5.0027   -2.9026 C   0  0  0  0  0  0  0  0  0  0  0  0
   -1.2299    3.9260   -2.6419 C   0  0  0  0  0  0  0  0  0  0  0  0
    0.0661    3.9283   -3.1100 N   0  0  0  0  0  0  0  0  0  0  0  0
    2.4424    1.1742   -1.9700 C   0  0  0  0  0  0  0  0  0  0  0  0
    1.4148   -0.0964    1.9812 H   0  0  0  0  0  0  0  0  0  0  0  0
    0.5158   -0.8754    0.6746 H   0  0  0  0  0  0  0  0  0  0  0  0
    0.7517    0.9040    0.6623 H   0  0  0  0  0  0  0  0  0  0  0  0
    3.2132    0.5721    0.4300 H   0  0  0  0  0  0  0  0  0  0  0  0
    4.8704    0.1123   -0.6727 H   0  0  0  0  0  0  0  0  0  0  0  0
    5.6975   -1.2441   -1.4485 H   0  0  0  0  0  0  0  0  0  0  0  0
    6.3466   -0.0240    1.2921 H   0  0  0  0  0  0  0  0  0  0  0  0
    7.3311    0.1044   -0.1774 H   0  0  0  0  0  0  0  0  0  0  0  0
    8.1019   -1.5901    1.5940 H   0  0  0  0  0  0  0  0  0  0  0  0
    9.9369   -2.4309    0.7342 H   0  0  0  0  0  0  0  0  0  0  0  0
   10.0402   -3.0957   -0.8755 H   0  0  0  0  0  0  0  0  0  0  0  0
    6.0387   -2.4806    2.3762 H   0  0  0  0  0  0  0  0  0  0  0  0
    6.8544   -3.8344    1.5734 H   0  0  0  0  0  0  0  0  0  0  0  0
    4.3835   -3.6780    1.0088 H   0  0  0  0  0  0  0  0  0  0  0  0
    5.4292   -3.5520   -0.4369 H   0  0  0  0  0  0  0  0  0  0  0  0
    1.6912   -2.0814   -1.5028 H   0  0  0  0  0  0  0  0  0  0  0  0
    2.2832   -1.3779   -3.0186 H   0  0  0  0  0  0  0  0  0  0  0  0
   -0.3401   -0.6741   -1.5835 H   0  0  0  0  0  0  0  0  0  0  0  0
   -0.1511   -1.4929   -3.1431 H   0  0  0  0  0  0  0  0  0  0  0  0
   -0.7262    0.9548   -3.4276 H   0  0  0  0  0  0  0  0  0  0  0  0
    0.8327    0.5511   -4.1566 H   0  0  0  0  0  0  0  0  0  0  0  0
    0.4573    1.8275   -1.3955 H   0  0  0  0  0  0  0  0  0  0  0  0
    0.1857    6.9486   -4.6856 H   0  0  0  0  0  0  0  0  0  0  0  0
   -2.1845    6.9660   -3.8499 H   0  0  0  0  0  0  0  0  0  0  0  0
   -3.0553    5.0027   -2.5330 H   0  0  0  0  0  0  0  0  0  0  0  0
   -1.5514    3.0494   -2.0790 H   0  0  0  0  0  0  0  0  0  0  0  0
    2.9536    1.8982   -1.3174 H   0  0  0  0  0  0  0  0  0  0  0  0
    3.0267    1.1389   -2.9076 H   0  0  0  0  0  0  0  0  0  0  0  0
  1  2  1  0
  1 29  1  0
  1 30  1  0
  1 31  1  0
  2  3  1  0
  2 14  1  0
  2 32  1  1
  3  4  2  0
  3  5  1  0
  5  6  1  0
  5 13  1  0
  6  7  1  0
  6 33  1  0
  6 34  1  0
  7  8  1  0
  7 35  1  0
  7 36  1  0
  8  9  1  0
  8 12  1  0
  8 37  1  1
  9 10  1  0
  9 11  2  0
 10 38  1  0
 10 39  1  0
 12 13  1  0
 12 40  1  0
 12 41  1  0
 13 42  1  0
 13 43  1  0
 14 15  1  0
 14 28  1  0
 15 16  1  0
 15 44  1  0
 15 45  1  0
 16 17  1  0
 16 46  1  0
 16 47  1  0
 17 18  1  0
 17 48  1  0
 17 49  1  0
 18 19  1  0
 18 28  1  0
 18 50  1  1
 19 20  2  0
 19 27  1  0
 20 21  1  0
 21 22  2  0
 22 23  1  0
 22 27  1  0
 23 24  2  0
 23 51  1  0
 24 25  1  0
 24 52  1  0
 25 26  2  0
 25 53  1  0
 26 27  1  0
 26 54  1  0
 28 55  1  0
 28 56  1  0
M  END

