
     RDKit          3D

 38 38  0  0  0  0  0  0  0  0999 V2000
    0.8806   -0.2091    0.6221 C   0  0  0  0  0  0  0  0  0  0  0  0
    2.3297   -0.1822    0.6499 N   0  0  0  0  0  0  0  0  0  0  0  0
    2.9619   -1.4441    0.3114 C   0  0  0  0  0  0  0  0  0  0  0  0
    4.4788   -1.3440    0.3588 C   0  0  1  0  0  0  0  0  0  0  0  0
    5.2014   -1.2470    1.7319 C   0  0  0  0  0  0  0  0  0  0  0  0
    6.3038   -2.1841    1.1783 C   0  0  0  0  0  0  0  0  0  0  0  0
    5.3237   -2.6115    0.0507 C   0  0  2  0  0  0  0  0  0  0  0  0
    5.8431   -2.8092   -1.3697 C   0  0  0  0  0  0  0  0  0  0  0  0
    6.7398   -4.0413   -1.5020 C   0  0  0  0  0  0  0  0  0  0  0  0
    7.3239   -4.1859   -3.2228 S   0  0  1  0  0  0  0  0  0  0  0  0
    6.1526   -4.4735   -4.0722 O   0  0  0  0  0  0  0  0  0  0  0  0
    8.1616   -3.0030   -3.4927 O   0  0  0  0  0  0  0  0  0  0  0  0
    8.4296   -5.6635   -3.2655 C   0  0  1  0  0  0  0  0  0  0  0  0
    7.6414   -6.9457   -3.0153 C   0  0  0  0  0  0  0  0  0  0  0  0
    9.1392   -5.6395   -4.6203 C   0  0  0  0  0  0  0  0  0  0  0  0
    0.4783    0.7695    0.9284 H   0  0  0  0  0  0  0  0  0  0  0  0
    0.4185   -0.9867    1.2728 H   0  0  0  0  0  0  0  0  0  0  0  0
    0.5284   -0.4003   -0.4061 H   0  0  0  0  0  0  0  0  0  0  0  0
    2.6555    0.1316    1.5634 H   0  0  0  0  0  0  0  0  0  0  0  0
    2.6500   -1.7217   -0.7131 H   0  0  0  0  0  0  0  0  0  0  0  0
    2.6333   -2.2876    0.9672 H   0  0  0  0  0  0  0  0  0  0  0  0
    4.7964   -0.5120   -0.2926 H   0  0  0  0  0  0  0  0  0  0  0  0
    4.6168   -1.7341    2.5306 H   0  0  0  0  0  0  0  0  0  0  0  0
    5.5097   -0.2498    2.0818 H   0  0  0  0  0  0  0  0  0  0  0  0
    6.6944   -2.9663    1.8478 H   0  0  0  0  0  0  0  0  0  0  0  0
    7.1561   -1.6145    0.7723 H   0  0  0  0  0  0  0  0  0  0  0  0
    4.7613   -3.5087    0.3689 H   0  0  0  0  0  0  0  0  0  0  0  0
    6.4136   -1.9212   -1.6879 H   0  0  0  0  0  0  0  0  0  0  0  0
    4.9980   -2.9126   -2.0705 H   0  0  0  0  0  0  0  0  0  0  0  0
    6.1985   -4.9688   -1.2631 H   0  0  0  0  0  0  0  0  0  0  0  0
    7.6396   -3.9676   -0.8718 H   0  0  0  0  0  0  0  0  0  0  0  0
    9.1555   -5.4721   -2.4574 H   0  0  0  0  0  0  0  0  0  0  0  0
    6.8343   -7.0476   -3.7561 H   0  0  0  0  0  0  0  0  0  0  0  0
    7.1948   -6.9775   -2.0097 H   0  0  0  0  0  0  0  0  0  0  0  0
    8.3110   -7.8158   -3.1062 H   0  0  0  0  0  0  0  0  0  0  0  0
    8.4115   -5.7555   -5.4384 H   0  0  0  0  0  0  0  0  0  0  0  0
    9.8588   -6.4714   -4.6749 H   0  0  0  0  0  0  0  0  0  0  0  0
    9.6785   -4.6937   -4.7665 H   0  0  0  0  0  0  0  0  0  0  0  0
  1  2  1  0
  1 16  1  0
  1 17  1  0
  1 18  1  0
  2  3  1  0
  2 19  1  0
  3  4  1  0
  3 20  1  0
  3 21  1  0
  4  5  1  0
  4  7  1  0
  4 22  1  6
  5  6  1  0
  5 23  1  0
  5 24  1  0
  6  7  1  0
  6 25  1  0
  6 26  1  0
  7  8  1  0
  7 27  1  1
  8  9  1  0
  8 28  1  0
  8 29  1  0
 10  9  1  1
  9 30  1  0
  9 31  1  0
 10 11  2  0
 10 12  2  0
 10 13  1  0
 13 14  1  0
 13 15  1  0
 13 32  1  1
 14 33  1  0
 14 34  1  0
 14 35  1  0
 15 36  1  0
 15 37  1  0
 15 38  1  0
M  END

