
     RDKit          3D

 28 28  0  0  0  0  0  0  0  0999 V2000
    1.1671    0.1677    0.4832 C   0  0  0  0  0  0  0  0  0  0  0  0
    2.6546    0.1366    0.2610 C   0  0  0  0  0  0  0  0  0  0  0  0
    3.5747    0.2404    1.3169 C   0  0  0  0  0  0  0  0  0  0  0  0
    4.8938    0.2249    1.1207 N   0  0  0  0  0  0  0  0  0  0  0  0
    5.3293    0.1034   -0.1374 C   0  0  0  0  0  0  0  0  0  0  0  0
    6.8284    0.0582   -0.3630 C   0  0  0  0  0  0  0  0  0  0  0  0
    7.3668   -1.2927   -0.4429 N   0  0  0  0  0  0  0  0  0  0  0  0
    7.3622   -1.9592   -1.6577 C   0  0  0  0  0  0  0  0  0  0  0  0
    7.0007   -1.4066   -2.6912 O   0  0  0  0  0  0  0  0  0  0  0  0
    7.8211   -3.2630   -1.6282 N   0  0  0  0  0  0  0  0  0  0  0  0
    8.3443   -3.9006   -0.4382 C   0  0  0  0  0  0  0  0  0  0  0  0
    7.6901   -4.0749   -2.8236 C   0  0  0  0  0  0  0  0  0  0  0  0
    4.4107   -0.0132   -1.1983 C   0  0  0  0  0  0  0  0  0  0  0  0
    3.0951    0.0064   -0.9993 N   0  0  0  0  0  0  0  0  0  0  0  0
    0.9124    0.2495    1.5497 H   0  0  0  0  0  0  0  0  0  0  0  0
    0.7014   -0.7436    0.0753 H   0  0  0  0  0  0  0  0  0  0  0  0
    0.7192    1.0204   -0.0526 H   0  0  0  0  0  0  0  0  0  0  0  0
    3.2244    0.3418    2.3512 H   0  0  0  0  0  0  0  0  0  0  0  0
    7.3125    0.5816    0.4747 H   0  0  0  0  0  0  0  0  0  0  0  0
    7.0875    0.5649   -1.3016 H   0  0  0  0  0  0  0  0  0  0  0  0
    7.3345   -1.8324    0.4131 H   0  0  0  0  0  0  0  0  0  0  0  0
    8.9145   -3.1852    0.1732 H   0  0  0  0  0  0  0  0  0  0  0  0
    9.0409   -4.7012   -0.7315 H   0  0  0  0  0  0  0  0  0  0  0  0
    7.5598   -4.3622    0.1953 H   0  0  0  0  0  0  0  0  0  0  0  0
    7.2907   -3.4462   -3.6275 H   0  0  0  0  0  0  0  0  0  0  0  0
    7.0062   -4.9284   -2.6592 H   0  0  0  0  0  0  0  0  0  0  0  0
    8.6699   -4.4770   -3.1375 H   0  0  0  0  0  0  0  0  0  0  0  0
    4.7759   -0.1379   -2.2233 H   0  0  0  0  0  0  0  0  0  0  0  0
  1  2  1  0
  1 15  1  0
  1 16  1  0
  1 17  1  0
  2  3  2  0
  2 14  1  0
  3  4  1  0
  3 18  1  0
  4  5  2  0
  5  6  1  0
  5 13  1  0
  6  7  1  0
  6 19  1  0
  6 20  1  0
  7  8  1  0
  7 21  1  0
  8  9  2  0
  8 10  1  0
 10 11  1  0
 10 12  1  0
 11 22  1  0
 11 23  1  0
 11 24  1  0
 12 25  1  0
 12 26  1  0
 12 27  1  0
 13 14  2  0
 13 28  1  0
M  END

