
     RDKit          3D

 29 29  0  0  0  0  0  0  0  0999 V2000
    0.9659    0.0458    0.0210 C   0  0  0  0  0  0  0  0  0  0  0  0
    2.4910    0.0294    0.0344 C   0  0  0  0  0  0  0  0  0  0  0  0
    3.0498   -1.1603    0.8034 C   0  0  0  0  0  0  0  0  0  0  0  0
    2.3445   -1.9720    1.3627 O   0  0  0  0  0  0  0  0  0  0  0  0
    4.4486   -1.2947    0.8153 N   0  0  0  0  0  0  0  0  0  0  0  0
    5.3563   -0.3809    0.2042 C   0  0  0  0  0  0  0  0  0  0  0  0
    5.7772    0.7689    0.8807 C   0  0  0  0  0  0  0  0  0  0  0  0
    6.6752    1.6581    0.2904 C   0  0  0  0  0  0  0  0  0  0  0  0
    7.1612    1.3795   -0.9866 C   0  0  0  0  0  0  0  0  0  0  0  0
    8.0196    2.2270   -1.5563 F   0  0  0  0  0  0  0  0  0  0  0  0
    6.7818    0.2367   -1.6842 C   0  0  0  0  0  0  0  0  0  0  0  0
    5.8769   -0.6511   -1.0827 C   0  0  0  0  0  0  0  0  0  0  0  0
    5.4854   -1.8556   -1.7578 C   0  0  0  0  0  0  0  0  0  0  0  0
    5.1603   -2.8390   -2.2820 N   0  0  0  0  0  0  0  0  0  0  0  0
    5.1879   -2.5364    1.8534 S   0  0  1  0  0  0  0  0  0  0  0  0
    4.5034   -4.0717    1.2327 C   0  0  0  0  0  0  0  0  0  0  0  0
    6.6053   -2.4682    1.5024 O   0  0  0  0  0  0  0  0  0  0  0  0
    4.7455   -2.3122    3.2225 O   0  0  0  0  0  0  0  0  0  0  0  0
    0.5978    0.9193   -0.5378 H   0  0  0  0  0  0  0  0  0  0  0  0
    0.5619    0.0888    1.0429 H   0  0  0  0  0  0  0  0  0  0  0  0
    0.5644   -0.8632   -0.4502 H   0  0  0  0  0  0  0  0  0  0  0  0
    2.8946    0.9533    0.4826 H   0  0  0  0  0  0  0  0  0  0  0  0
    2.8976    0.0038   -0.9910 H   0  0  0  0  0  0  0  0  0  0  0  0
    5.3980    0.9545    1.8874 H   0  0  0  0  0  0  0  0  0  0  0  0
    7.0118    2.5583    0.8076 H   0  0  0  0  0  0  0  0  0  0  0  0
    7.1932    0.0412   -2.6749 H   0  0  0  0  0  0  0  0  0  0  0  0
    4.7604   -4.1612    0.1696 H   0  0  0  0  0  0  0  0  0  0  0  0
    3.4216   -4.0490    1.4029 H   0  0  0  0  0  0  0  0  0  0  0  0
    4.9944   -4.8545    1.8279 H   0  0  0  0  0  0  0  0  0  0  0  0
  1  2  1  0
  1 19  1  0
  1 20  1  0
  1 21  1  0
  2  3  1  0
  2 22  1  0
  2 23  1  0
  3  4  2  0
  3  5  1  0
  5  6  1  0
 15  5  1  6
  6  7  2  0
  6 12  1  0
  7  8  1  0
  7 24  1  0
  8  9  2  0
  8 25  1  0
  9 10  1  0
  9 11  1  0
 11 12  2  0
 11 26  1  0
 12 13  1  0
 13 14  3  0
 15 16  1  0
 15 17  2  0
 15 18  2  0
 16 27  1  0
 16 28  1  0
 16 29  1  0
M  END

