
     RDKit          3D

 41 42  0  0  0  0  0  0  0  0999 V2000
    1.8003    0.1630   -1.3760 C   0  0  0  0  0  0  0  0  0  0  0  0
    2.2761   -0.0958   -0.0760 O   0  0  0  0  0  0  0  0  0  0  0  0
    2.8999    0.8965    0.6118 C   0  0  0  0  0  0  0  0  0  0  0  0
    3.1043    2.1965    0.1275 C   0  0  0  0  0  0  0  0  0  0  0  0
    3.7643    3.1368    0.9275 C   0  0  0  0  0  0  0  0  0  0  0  0
    4.2379    2.8278    2.2095 C   0  0  0  0  0  0  0  0  0  0  0  0
    4.8948    3.9060    3.0660 C   0  0  1  0  0  0  0  0  0  0  0  0
    3.8337    4.6383    3.9267 C   0  0  0  0  0  0  0  0  0  0  0  0
    3.2162    3.7573    4.9107 N   0  0  0  0  0  0  0  0  0  0  0  0
    6.0499    3.4156    3.9539 C   0  0  0  0  0  0  0  0  0  0  0  0
    7.2702    2.8331    3.2729 C   0  0  0  0  0  0  0  0  0  0  0  0
    7.4933    2.8940    1.8957 C   0  0  0  0  0  0  0  0  0  0  0  0
    8.6597    2.3658    1.3281 C   0  0  0  0  0  0  0  0  0  0  0  0
    8.8949    2.4676   -0.4078 Cl  0  0  0  0  0  0  0  0  0  0  0  0
    9.6269    1.7626    2.1243 C   0  0  0  0  0  0  0  0  0  0  0  0
    9.4246    1.6908    3.5077 C   0  0  0  0  0  0  0  0  0  0  0  0
    8.2628    2.2211    4.0808 C   0  0  0  0  0  0  0  0  0  0  0  0
    8.0000    2.2007    5.4164 O   0  0  0  0  0  0  0  0  0  0  0  0
    8.9197    1.5996    6.2972 C   0  0  0  0  0  0  0  0  0  0  0  0
    4.0225    1.5160    2.6745 C   0  0  0  0  0  0  0  0  0  0  0  0
    3.3668    0.5670    1.8952 C   0  0  0  0  0  0  0  0  0  0  0  0
    1.3445   -0.7696   -1.7354 H   0  0  0  0  0  0  0  0  0  0  0  0
    2.6158    0.4497   -2.0649 H   0  0  0  0  0  0  0  0  0  0  0  0
    1.0344    0.9602   -1.3851 H   0  0  0  0  0  0  0  0  0  0  0  0
    2.7635    2.4882   -0.8661 H   0  0  0  0  0  0  0  0  0  0  0  0
    3.9173    4.1449    0.5292 H   0  0  0  0  0  0  0  0  0  0  0  0
    5.2875    4.6729    2.3754 H   0  0  0  0  0  0  0  0  0  0  0  0
    3.1102    5.1204    3.2351 H   0  0  0  0  0  0  0  0  0  0  0  0
    4.3374    5.4562    4.4707 H   0  0  0  0  0  0  0  0  0  0  0  0
    2.5856    3.0998    4.4510 H   0  0  0  0  0  0  0  0  0  0  0  0
    2.6483    4.2942    5.5648 H   0  0  0  0  0  0  0  0  0  0  0  0
    5.6674    2.6976    4.6942 H   0  0  0  0  0  0  0  0  0  0  0  0
    6.3871    4.2662    4.5745 H   0  0  0  0  0  0  0  0  0  0  0  0
    6.7530    3.3467    1.2378 H   0  0  0  0  0  0  0  0  0  0  0  0
   10.5316    1.3505    1.6746 H   0  0  0  0  0  0  0  0  0  0  0  0
   10.1871    1.2183    4.1269 H   0  0  0  0  0  0  0  0  0  0  0  0
    8.4960    1.6951    7.3062 H   0  0  0  0  0  0  0  0  0  0  0  0
    9.9030    2.1038    6.2736 H   0  0  0  0  0  0  0  0  0  0  0  0
    9.0667    0.5276    6.0714 H   0  0  0  0  0  0  0  0  0  0  0  0
    4.3788    1.2254    3.6647 H   0  0  0  0  0  0  0  0  0  0  0  0
    3.2073   -0.4506    2.2581 H   0  0  0  0  0  0  0  0  0  0  0  0
  1  2  1  0
  1 22  1  0
  1 23  1  0
  1 24  1  0
  2  3  1  0
  3  4  2  0
  3 21  1  0
  4  5  1  0
  4 25  1  0
  5  6  2  0
  5 26  1  0
  6  7  1  0
  6 20  1  0
  7  8  1  0
  7 10  1  0
  7 27  1  6
  8  9  1  0
  8 28  1  0
  8 29  1  0
  9 30  1  0
  9 31  1  0
 10 11  1  0
 10 32  1  0
 10 33  1  0
 11 12  2  0
 11 17  1  0
 12 13  1  0
 12 34  1  0
 13 14  1  0
 13 15  2  0
 15 16  1  0
 15 35  1  0
 16 17  2  0
 16 36  1  0
 17 18  1  0
 18 19  1  0
 19 37  1  0
 19 38  1  0
 19 39  1  0
 20 21  2  0
 20 40  1  0
 21 41  1  0
M  END

