
     RDKit          3D

 55 57  0  0  0  0  0  0  0  0999 V2000
    7.4214    5.0524    1.2711 C   0  0  0  0  0  0  0  0  0  0  0  0
    6.6629    4.3833    0.2618 O   0  0  0  0  0  0  0  0  0  0  0  0
    5.5496    3.7591    0.6739 C   0  0  0  0  0  0  0  0  0  0  0  0
    5.1582    3.7556    1.8137 O   0  0  0  0  0  0  0  0  0  0  0  0
    4.8254    3.0340   -0.4581 C   0  0  0  0  0  0  0  0  0  0  0  0
    5.2782    3.3157   -1.7909 N   0  0  0  0  0  0  0  0  0  0  0  0
    6.0779    2.4525   -2.4789 C   0  0  0  0  0  0  0  0  0  0  0  0
    6.3714    1.3315   -2.0742 O   0  0  0  0  0  0  0  0  0  0  0  0
    6.5520    3.0080   -3.7764 C   0  0  0  0  0  0  0  0  0  0  0  0
    6.3115    4.2478   -4.1584 N   0  0  0  0  0  0  0  0  0  0  0  0
    6.9488    4.3973   -5.3645 C   0  0  0  0  0  0  0  0  0  0  0  0
    7.1110    5.4673   -6.3076 C   0  0  0  0  0  0  0  0  0  0  0  0
    6.5817    6.7158   -6.1722 N   0  0  0  0  0  0  0  0  0  0  0  0
    5.5964    7.0582   -5.1614 C   0  0  0  0  0  0  0  0  0  0  0  0
    6.8226    7.7086   -7.2063 C   0  0  0  0  0  0  0  0  0  0  0  0
    7.8511    5.2276   -7.3951 N   0  0  0  0  0  0  0  0  0  0  0  0
    8.4361    4.0260   -7.5989 C   0  0  0  0  0  0  0  0  0  0  0  0
    9.2059    3.8942   -8.7299 N   0  0  0  0  0  0  0  0  0  0  0  0
    9.2722    4.9242   -9.7448 C   0  0  0  0  0  0  0  0  0  0  0  0
    9.8586    2.6427   -9.0534 C   0  0  0  0  0  0  0  0  0  0  0  0
    8.3322    2.9535   -6.7941 N   0  0  0  0  0  0  0  0  0  0  0  0
    7.5987    3.1934   -5.7099 C   0  0  0  0  0  0  0  0  0  0  0  0
    7.3344    2.3136   -4.6862 N   0  0  0  0  0  0  0  0  0  0  0  0
    7.7870    0.9150   -4.6613 C   0  0  0  0  0  0  0  0  0  0  0  0
    6.8014   -0.0579   -5.2862 C   0  0  0  0  0  0  0  0  0  0  0  0
    6.7348   -0.2025   -6.6818 C   0  0  0  0  0  0  0  0  0  0  0  0
    5.8332   -1.0997   -7.2597 C   0  0  0  0  0  0  0  0  0  0  0  0
    4.9882   -1.8660   -6.4501 C   0  0  0  0  0  0  0  0  0  0  0  0
    5.0479   -1.7269   -5.0607 C   0  0  0  0  0  0  0  0  0  0  0  0
    5.9474   -0.8267   -4.4807 C   0  0  0  0  0  0  0  0  0  0  0  0
    8.2824    5.5003    0.7601 H   0  0  0  0  0  0  0  0  0  0  0  0
    7.7600    4.3404    2.0388 H   0  0  0  0  0  0  0  0  0  0  0  0
    6.8176    5.8311    1.7613 H   0  0  0  0  0  0  0  0  0  0  0  0
    3.7513    3.2498   -0.3369 H   0  0  0  0  0  0  0  0  0  0  0  0
    4.9609    1.9553   -0.2816 H   0  0  0  0  0  0  0  0  0  0  0  0
    5.1903    4.2492   -2.1801 H   0  0  0  0  0  0  0  0  0  0  0  0
    5.5184    6.2583   -4.4189 H   0  0  0  0  0  0  0  0  0  0  0  0
    4.6004    7.2183   -5.6163 H   0  0  0  0  0  0  0  0  0  0  0  0
    5.8854    7.9917   -4.6486 H   0  0  0  0  0  0  0  0  0  0  0  0
    7.8719    7.6855   -7.5265 H   0  0  0  0  0  0  0  0  0  0  0  0
    6.5892    8.7031   -6.7992 H   0  0  0  0  0  0  0  0  0  0  0  0
    6.1953    7.5394   -8.1011 H   0  0  0  0  0  0  0  0  0  0  0  0
    8.7439    5.8163   -9.3958 H   0  0  0  0  0  0  0  0  0  0  0  0
    8.8089    4.5814  -10.6901 H   0  0  0  0  0  0  0  0  0  0  0  0
   10.3231    5.1863   -9.9641 H   0  0  0  0  0  0  0  0  0  0  0  0
    9.9596    2.0288   -8.1525 H   0  0  0  0  0  0  0  0  0  0  0  0
   10.8599    2.8450   -9.4701 H   0  0  0  0  0  0  0  0  0  0  0  0
    9.2905    2.0639   -9.8083 H   0  0  0  0  0  0  0  0  0  0  0  0
    7.9767    0.6504   -3.6164 H   0  0  0  0  0  0  0  0  0  0  0  0
    8.7324    0.9020   -5.2212 H   0  0  0  0  0  0  0  0  0  0  0  0
    7.3922    0.4014   -7.3123 H   0  0  0  0  0  0  0  0  0  0  0  0
    5.7922   -1.2042   -8.3473 H   0  0  0  0  0  0  0  0  0  0  0  0
    4.2853   -2.5710   -6.9023 H   0  0  0  0  0  0  0  0  0  0  0  0
    4.3901   -2.3225   -4.4220 H   0  0  0  0  0  0  0  0  0  0  0  0
    5.9859   -0.7030   -3.3964 H   0  0  0  0  0  0  0  0  0  0  0  0
  1  2  1  0
  1 31  1  0
  1 32  1  0
  1 33  1  0
  2  3  1  0
  3  4  2  0
  3  5  1  0
  5  6  1  0
  5 34  1  0
  5 35  1  0
  6  7  1  0
  6 36  1  0
  7  8  2  0
  7  9  1  0
  9 10  2  0
  9 23  1  0
 10 11  1  0
 11 12  2  0
 11 22  1  0
 12 13  1  0
 12 16  1  0
 13 14  1  0
 13 15  1  0
 14 37  1  0
 14 38  1  0
 14 39  1  0
 15 40  1  0
 15 41  1  0
 15 42  1  0
 16 17  2  0
 17 18  1  0
 17 21  1  0
 18 19  1  0
 18 20  1  0
 19 43  1  0
 19 44  1  0
 19 45  1  0
 20 46  1  0
 20 47  1  0
 20 48  1  0
 21 22  2  0
 22 23  1  0
 23 24  1  0
 24 25  1  0
 24 49  1  0
 24 50  1  0
 25 26  2  0
 25 30  1  0
 26 27  1  0
 26 51  1  0
 27 28  2  0
 27 52  1  0
 28 29  1  0
 28 53  1  0
 29 30  2  0
 29 54  1  0
 30 55  1  0
M  END

