
     RDKit          3D

 42 44  0  0  0  0  0  0  0  0999 V2000
    2.5020   -6.2288   -1.3935 C   0  0  0  0  0  0  0  0  0  0  0  0
    3.9314   -5.7944   -1.2866 C   0  0  0  0  0  0  0  0  0  0  0  0
    5.0565   -6.2811   -2.0101 C   0  0  0  0  0  0  0  0  0  0  0  0
    6.1357   -5.5596   -1.5448 C   0  0  0  0  0  0  0  0  0  0  0  0
    7.5659   -5.6841   -1.9911 C   0  0  1  0  0  0  0  0  0  0  0  0
    7.6402   -6.6247   -2.9479 F   0  0  0  0  0  0  0  0  0  0  0  0
    8.0457   -4.5445   -2.5140 F   0  0  0  0  0  0  0  0  0  0  0  0
    8.3902   -6.0556   -1.0010 F   0  0  0  0  0  0  0  0  0  0  0  0
    5.6369   -4.6964   -0.5919 N   0  0  0  0  0  0  0  0  0  0  0  0
    6.2785   -3.7408    0.2009 C   0  0  0  0  0  0  0  0  0  0  0  0
    7.5485   -3.5042    0.1875 N   0  0  0  0  0  0  0  0  0  0  0  0
    7.8636   -2.5046    1.0780 C   0  0  0  0  0  0  0  0  0  0  0  0
    9.2742   -2.0589    1.2507 C   0  0  0  0  0  0  0  0  0  0  0  0
    9.6142   -1.1510    1.9854 O   0  0  0  0  0  0  0  0  0  0  0  0
   10.1647   -2.7449    0.4573 N   0  0  0  0  0  0  0  0  0  0  0  0
   11.5089   -2.4701    0.5130 N   0  0  0  0  0  0  0  0  0  0  0  0
   12.3807   -3.2935    1.8011 S   0  0  1  0  0  0  0  0  0  0  0  0
   13.4131   -2.3385    2.1844 O   0  0  0  0  0  0  0  0  0  0  0  0
   11.4119   -3.8919    2.7137 O   0  0  0  0  0  0  0  0  0  0  0  0
   13.1351   -4.6637    0.8576 C   0  0  0  0  0  0  0  0  0  0  0  0
   13.2362   -4.5687   -0.5341 C   0  0  0  0  0  0  0  0  0  0  0  0
   13.7665   -5.6235   -1.2843 C   0  0  0  0  0  0  0  0  0  0  0  0
   14.1852   -6.7956   -0.6538 C   0  0  0  0  0  0  0  0  0  0  0  0
   14.0896   -6.9051    0.7342 C   0  0  0  0  0  0  0  0  0  0  0  0
   13.5885   -5.8395    1.4796 C   0  0  0  0  0  0  0  0  0  0  0  0
   13.6210   -5.9935    2.9518 N   0  0  0  0  0  0  0  0  0  0  0  0
   13.8415   -4.9905    3.6032 O   0  0  0  0  0  0  0  0  0  0  0  0
   13.4717   -7.1180    3.3964 O   0  0  0  0  0  0  0  0  0  0  0  0
    6.8052   -1.9791    1.7732 C   0  0  0  0  0  0  0  0  0  0  0  0
    5.3345   -2.7629    1.3111 S   0  0  0  0  0  0  0  0  0  0  0  0
    4.3033   -4.8431   -0.4413 N   0  0  0  0  0  0  0  0  0  0  0  0
    2.3886   -7.0217   -2.1453 H   0  0  0  0  0  0  0  0  0  0  0  0
    1.8552   -5.3846   -1.6793 H   0  0  0  0  0  0  0  0  0  0  0  0
    2.1348   -6.6113   -0.4283 H   0  0  0  0  0  0  0  0  0  0  0  0
    5.0792   -7.0557   -2.7719 H   0  0  0  0  0  0  0  0  0  0  0  0
    9.8401   -3.4520   -0.1954 H   0  0  0  0  0  0  0  0  0  0  0  0
   11.6634   -1.4754    0.7147 H   0  0  0  0  0  0  0  0  0  0  0  0
   12.8801   -3.6638   -1.0255 H   0  0  0  0  0  0  0  0  0  0  0  0
   13.8416   -5.5241   -2.3696 H   0  0  0  0  0  0  0  0  0  0  0  0
   14.5898   -7.6256   -1.2369 H   0  0  0  0  0  0  0  0  0  0  0  0
   14.4059   -7.8042    1.2635 H   0  0  0  0  0  0  0  0  0  0  0  0
    6.8396   -1.1910    2.5229 H   0  0  0  0  0  0  0  0  0  0  0  0
  1  2  1  0
  1 32  1  0
  1 33  1  0
  1 34  1  0
  2  3  1  0
  2 31  2  0
  3  4  2  0
  3 35  1  0
  4  5  1  0
  4  9  1  0
  5  6  1  6
  5  7  1  0
  5  8  1  0
  9 10  1  0
  9 31  1  0
 10 11  2  0
 10 30  1  0
 11 12  1  0
 12 13  1  0
 12 29  2  0
 13 14  2  0
 13 15  1  0
 15 16  1  0
 15 36  1  0
 17 16  1  6
 16 37  1  0
 17 18  2  0
 17 19  2  0
 17 20  1  0
 20 21  2  0
 20 25  1  0
 21 22  1  0
 21 38  1  0
 22 23  2  0
 22 39  1  0
 23 24  1  0
 23 40  1  0
 24 25  2  0
 24 41  1  0
 25 26  1  0
 26 27  2  0
 26 28  1  0
 29 30  1  0
 29 42  1  0
M  CHG  2  26   1  28  -1
M  END

