
     RDKit          3D

 33 34  0  0  0  0  0  0  0  0999 V2000
    0.8245   -0.0478    0.0786 C   0  0  0  0  0  0  0  0  0  0  0  0
    2.3568   -0.0391   -0.0266 C   0  0  1  0  0  0  0  0  0  0  0  0
    2.9467   -1.4419   -0.2822 C   0  0  0  0  0  0  0  0  0  0  0  0
    2.7342   -1.9285   -1.7208 C   0  0  0  0  0  0  0  0  0  0  0  0
    3.2909   -0.9182   -2.7572 C   0  0  2  0  0  0  0  0  0  0  0  0
    4.7616   -0.8736   -2.7044 C   0  0  0  0  0  0  0  0  0  0  0  0
    5.9188   -0.8784   -2.6403 N   0  0  0  0  0  0  0  0  0  0  0  0
    2.6506    0.4725   -2.5233 C   0  0  2  0  0  0  0  0  0  0  0  0
    3.2589    1.7816   -3.6817 S   0  0  0  0  0  0  0  0  0  0  0  0
    2.6702    1.1683   -5.2597 C   0  0  0  0  0  0  0  0  0  0  0  0
    1.3233    1.3117   -5.6316 C   0  0  0  0  0  0  0  0  0  0  0  0
    0.8766    0.8678   -6.8771 C   0  0  0  0  0  0  0  0  0  0  0  0
    1.7897    0.2928   -7.7679 C   0  0  0  0  0  0  0  0  0  0  0  0
    1.2376   -0.2559   -9.3321 Cl  0  0  0  0  0  0  0  0  0  0  0  0
    3.1375    0.1569   -7.4234 C   0  0  0  0  0  0  0  0  0  0  0  0
    3.5721    0.5934   -6.1692 C   0  0  0  0  0  0  0  0  0  0  0  0
    2.8759    0.9608   -1.0857 C   0  0  0  0  0  0  0  0  0  0  0  0
    0.4917   -0.7180    0.8875 H   0  0  0  0  0  0  0  0  0  0  0  0
    0.3333   -0.3876   -0.8475 H   0  0  0  0  0  0  0  0  0  0  0  0
    0.4390    0.9601    0.3019 H   0  0  0  0  0  0  0  0  0  0  0  0
    2.7416    0.3062    0.9487 H   0  0  0  0  0  0  0  0  0  0  0  0
    2.5110   -2.1684    0.4238 H   0  0  0  0  0  0  0  0  0  0  0  0
    4.0302   -1.4197   -0.0741 H   0  0  0  0  0  0  0  0  0  0  0  0
    1.6606   -2.0652   -1.9318 H   0  0  0  0  0  0  0  0  0  0  0  0
    3.2096   -2.9105   -1.8709 H   0  0  0  0  0  0  0  0  0  0  0  0
    3.0266   -1.2610   -3.7715 H   0  0  0  0  0  0  0  0  0  0  0  0
    1.5717    0.3610   -2.7122 H   0  0  0  0  0  0  0  0  0  0  0  0
    0.6209    1.7853   -4.9415 H   0  0  0  0  0  0  0  0  0  0  0  0
   -0.1698    0.9767   -7.1672 H   0  0  0  0  0  0  0  0  0  0  0  0
    3.8375   -0.2896   -8.1316 H   0  0  0  0  0  0  0  0  0  0  0  0
    4.6225    0.4877   -5.8888 H   0  0  0  0  0  0  0  0  0  0  0  0
    2.3882    1.9402   -0.9541 H   0  0  0  0  0  0  0  0  0  0  0  0
    3.9571    1.1234   -0.9343 H   0  0  0  0  0  0  0  0  0  0  0  0
  1  2  1  0
  1 18  1  0
  1 19  1  0
  1 20  1  0
  2  3  1  0
  2 17  1  0
  2 21  1  1
  3  4  1  0
  3 22  1  0
  3 23  1  0
  4  5  1  0
  4 24  1  0
  4 25  1  0
  5  6  1  0
  5  8  1  0
  5 26  1  6
  6  7  3  0
  8  9  1  0
  8 17  1  0
  8 27  1  6
  9 10  1  0
 10 11  2  0
 10 16  1  0
 11 12  1  0
 11 28  1  0
 12 13  2  0
 12 29  1  0
 13 14  1  0
 13 15  1  0
 15 16  2  0
 15 30  1  0
 16 31  1  0
 17 32  1  0
 17 33  1  0
M  END

