
     RDKit          3D

 31 30  0  0  0  0  0  0  0  0999 V2000
    2.7051   -1.0897   -1.0000 C   0  0  0  0  0  0  0  0  0  0  0  0
    2.3392    0.1083   -0.1239 C   0  0  0  0  0  0  0  0  0  0  0  0
    2.8452    0.0096    1.3210 C   0  0  0  0  0  0  0  0  0  0  0  0
    4.2993   -0.0661    1.4634 N   0  0  0  0  0  0  0  0  0  0  0  0
    4.9461    1.2270    1.2399 C   0  0  0  0  0  0  0  0  0  0  0  0
    6.4234    1.1517    0.8334 C   0  0  0  0  0  0  0  0  0  0  0  0
    6.6757    0.4133   -0.4811 C   0  0  0  0  0  0  0  0  0  0  0  0
    4.7011   -0.6751    2.7315 C   0  0  0  0  0  0  0  0  0  0  0  0
    4.5300   -2.1979    2.8028 C   0  0  0  0  0  0  0  0  0  0  0  0
    5.3576   -2.9709    1.7760 C   0  0  0  0  0  0  0  0  0  0  0  0
    2.2908   -0.9839   -2.0156 H   0  0  0  0  0  0  0  0  0  0  0  0
    2.3119   -2.0294   -0.5763 H   0  0  0  0  0  0  0  0  0  0  0  0
    3.7965   -1.1975   -1.0866 H   0  0  0  0  0  0  0  0  0  0  0  0
    1.2411    0.2191   -0.0800 H   0  0  0  0  0  0  0  0  0  0  0  0
    2.7070    1.0371   -0.5938 H   0  0  0  0  0  0  0  0  0  0  0  0
    2.4125   -0.9004    1.7657 H   0  0  0  0  0  0  0  0  0  0  0  0
    2.4329    0.8604    1.9131 H   0  0  0  0  0  0  0  0  0  0  0  0
    4.8456    1.8808    2.1382 H   0  0  0  0  0  0  0  0  0  0  0  0
    4.4028    1.7436    0.4330 H   0  0  0  0  0  0  0  0  0  0  0  0
    7.0172    0.6865    1.6395 H   0  0  0  0  0  0  0  0  0  0  0  0
    6.7963    2.1887    0.7583 H   0  0  0  0  0  0  0  0  0  0  0  0
    6.3437   -0.6335   -0.4167 H   0  0  0  0  0  0  0  0  0  0  0  0
    7.7462    0.4164   -0.7426 H   0  0  0  0  0  0  0  0  0  0  0  0
    6.1279    0.8840   -1.3152 H   0  0  0  0  0  0  0  0  0  0  0  0
    4.1599   -0.2046    3.5861 H   0  0  0  0  0  0  0  0  0  0  0  0
    5.7670   -0.4500    2.8937 H   0  0  0  0  0  0  0  0  0  0  0  0
    3.4644   -2.4669    2.6982 H   0  0  0  0  0  0  0  0  0  0  0  0
    4.8109   -2.5122    3.8238 H   0  0  0  0  0  0  0  0  0  0  0  0
    5.0687   -2.6990    0.7499 H   0  0  0  0  0  0  0  0  0  0  0  0
    5.2239   -4.0586    1.8914 H   0  0  0  0  0  0  0  0  0  0  0  0
    6.4338   -2.7542    1.8857 H   0  0  0  0  0  0  0  0  0  0  0  0
  1  2  1  0
  1 11  1  0
  1 12  1  0
  1 13  1  0
  2  3  1  0
  2 14  1  0
  2 15  1  0
  3  4  1  0
  3 16  1  0
  3 17  1  0
  4  5  1  0
  4  8  1  0
  5  6  1  0
  5 18  1  0
  5 19  1  0
  6  7  1  0
  6 20  1  0
  6 21  1  0
  7 22  1  0
  7 23  1  0
  7 24  1  0
  8  9  1  0
  8 25  1  0
  8 26  1  0
  9 10  1  0
  9 27  1  0
  9 28  1  0
 10 29  1  0
 10 30  1  0
 10 31  1  0
M  END

