
     RDKit          3D

 64 66  0  0  0  0  0  0  0  0999 V2000
    4.4884    7.2037   10.8818 C   0  0  0  0  0  0  0  0  0  0  0  0
    5.3718    6.2649   10.0515 C   0  0  1  0  0  0  0  0  0  0  0  0
    4.6220    4.9922    9.6385 C   0  0  0  0  0  0  0  0  0  0  0  0
    5.9247    7.0162    8.8408 C   0  0  0  0  0  0  0  0  0  0  0  0
    6.8402    6.1700    8.1500 O   0  0  0  0  0  0  0  0  0  0  0  0
    7.3628    6.5181    6.9318 C   0  0  0  0  0  0  0  0  0  0  0  0
    7.1701    7.7839    6.3715 C   0  0  0  0  0  0  0  0  0  0  0  0
    7.7143    8.1192    5.1154 C   0  0  0  0  0  0  0  0  0  0  0  0
    7.5102    9.4671    4.5358 C   0  0  0  0  0  0  0  0  0  0  0  0
    7.3956   10.6133    5.3431 C   0  0  0  0  0  0  0  0  0  0  0  0
    7.2090   11.8846    4.8034 C   0  0  0  0  0  0  0  0  0  0  0  0
    7.1298   12.0692    3.4054 C   0  0  0  0  0  0  0  0  0  0  0  0
    6.9819   13.3099    2.8273 N   0  0  0  0  0  0  0  0  0  0  0  0
    6.5389   14.4887    3.5325 C   0  0  0  0  0  0  0  0  0  0  0  0
    6.4607   15.6668    2.5585 C   0  0  0  0  0  0  0  0  0  0  0  0
    5.6555   15.3165    1.4015 N   0  0  0  0  0  0  0  0  0  0  0  0
    5.6876   16.2252    0.2760 C   0  0  0  0  0  0  0  0  0  0  0  0
    5.0172   15.5963   -0.9574 C   0  0  2  0  0  0  0  0  0  0  0  0
    5.0248   16.3663   -1.7556 H   0  0  0  0  0  0  0  0  0  0  0  0
    3.6880   15.2947   -0.5646 O   0  0  0  0  0  0  0  0  0  0  0  0
    5.7691   14.3797   -1.4686 C   0  0  0  0  0  0  0  0  0  0  0  0
    6.7224   14.4855   -2.4880 C   0  0  0  0  0  0  0  0  0  0  0  0
    7.4466   13.3546   -2.8692 C   0  0  0  0  0  0  0  0  0  0  0  0
    7.1967   12.1500   -2.2051 C   0  0  0  0  0  0  0  0  0  0  0  0
    6.2801   12.0262   -1.2407 N   0  0  0  0  0  0  0  0  0  0  0  0
    5.5823   13.1103   -0.8949 C   0  0  0  0  0  0  0  0  0  0  0  0
    7.2296   10.9189    2.5850 C   0  0  0  0  0  0  0  0  0  0  0  0
    7.4200    9.6616    3.1399 C   0  0  0  0  0  0  0  0  0  0  0  0
    8.4570    7.1332    4.4360 C   0  0  0  0  0  0  0  0  0  0  0  0
    8.6425    5.8747    4.9958 C   0  0  0  0  0  0  0  0  0  0  0  0
    8.1120    5.5300    6.2478 C   0  0  0  0  0  0  0  0  0  0  0  0
    8.3778    4.1293    6.7391 C   0  0  0  0  0  0  0  0  0  0  0  0
    8.9613    3.3156    6.0651 O   0  0  0  0  0  0  0  0  0  0  0  0
    7.9483    3.8151    7.9735 O   0  0  0  0  0  0  0  0  0  0  0  0
    4.1130    6.6910   11.7809 H   0  0  0  0  0  0  0  0  0  0  0  0
    3.6111    7.5413   10.3038 H   0  0  0  0  0  0  0  0  0  0  0  0
    5.0387    8.0993   11.2132 H   0  0  0  0  0  0  0  0  0  0  0  0
    6.2405    5.9732   10.6704 H   0  0  0  0  0  0  0  0  0  0  0  0
    3.7347    5.2388    9.0302 H   0  0  0  0  0  0  0  0  0  0  0  0
    4.2765    4.4365   10.5243 H   0  0  0  0  0  0  0  0  0  0  0  0
    5.2586    4.3192    9.0457 H   0  0  0  0  0  0  0  0  0  0  0  0
    6.4432    7.9386    9.1584 H   0  0  0  0  0  0  0  0  0  0  0  0
    5.1036    7.3033    8.1584 H   0  0  0  0  0  0  0  0  0  0  0  0
    6.5676    8.5220    6.8978 H   0  0  0  0  0  0  0  0  0  0  0  0
    7.4835   10.5195    6.4284 H   0  0  0  0  0  0  0  0  0  0  0  0
    7.1407   12.7413    5.4756 H   0  0  0  0  0  0  0  0  0  0  0  0
    6.7162   13.3215    1.8461 H   0  0  0  0  0  0  0  0  0  0  0  0
    7.2391   14.7497    4.3452 H   0  0  0  0  0  0  0  0  0  0  0  0
    5.5476   14.3362    4.0153 H   0  0  0  0  0  0  0  0  0  0  0  0
    7.4791   15.9019    2.2038 H   0  0  0  0  0  0  0  0  0  0  0  0
    6.0983   16.5635    3.1065 H   0  0  0  0  0  0  0  0  0  0  0  0
    4.6868   15.1336    1.6621 H   0  0  0  0  0  0  0  0  0  0  0  0
    6.7367   16.4552    0.0268 H   0  0  0  0  0  0  0  0  0  0  0  0
    5.1828   17.1957    0.4762 H   0  0  0  0  0  0  0  0  0  0  0  0
    3.2454   14.8354   -1.2904 H   0  0  0  0  0  0  0  0  0  0  0  0
    6.8990   15.4481   -2.9789 H   0  0  0  0  0  0  0  0  0  0  0  0
    8.1950   13.4033   -3.6636 H   0  0  0  0  0  0  0  0  0  0  0  0
    7.7604   11.2466   -2.4654 H   0  0  0  0  0  0  0  0  0  0  0  0
    4.8257   12.9807   -0.1154 H   0  0  0  0  0  0  0  0  0  0  0  0
    7.1368   11.0269    1.5000 H   0  0  0  0  0  0  0  0  0  0  0  0
    7.4675    8.7987    2.4716 H   0  0  0  0  0  0  0  0  0  0  0  0
    8.9158    7.3655    3.4736 H   0  0  0  0  0  0  0  0  0  0  0  0
    9.2197    5.1070    4.4771 H   0  0  0  0  0  0  0  0  0  0  0  0
    7.5105    4.5926    8.3712 H   0  0  0  0  0  0  0  0  0  0  0  0
  1  2  1  0
  1 35  1  0
  1 36  1  0
  1 37  1  0
  2  3  1  0
  2  4  1  0
  2 38  1  1
  3 39  1  0
  3 40  1  0
  3 41  1  0
  4  5  1  0
  4 42  1  0
  4 43  1  0
  5  6  1  0
  6  7  2  0
  6 31  1  0
  7  8  1  0
  7 44  1  0
  8  9  1  0
  8 29  2  0
  9 10  2  0
  9 28  1  0
 10 11  1  0
 10 45  1  0
 11 12  2  0
 11 46  1  0
 12 13  1  0
 12 27  1  0
 13 14  1  0
 13 47  1  0
 14 15  1  0
 14 48  1  0
 14 49  1  0
 15 16  1  0
 15 50  1  0
 15 51  1  0
 16 17  1  0
 16 52  1  0
 17 18  1  0
 17 53  1  0
 17 54  1  0
 18 19  1  6
 18 20  1  0
 18 21  1  0
 20 55  1  0
 21 22  2  0
 21 26  1  0
 22 23  1  0
 22 56  1  0
 23 24  2  0
 23 57  1  0
 24 25  1  0
 24 58  1  0
 25 26  2  0
 26 59  1  0
 27 28  2  0
 27 60  1  0
 28 61  1  0
 29 30  1  0
 29 62  1  0
 30 31  2  0
 30 63  1  0
 31 32  1  0
 32 33  2  0
 32 34  1  0
 34 64  1  0
M  END

