
     RDKit          3D

 38 38  0  0  0  0  0  0  0  0999 V2000
    3.2297   -0.1471   -1.6373 C   0  0  0  0  0  0  0  0  0  0  0  0
    2.6625    0.0954   -0.2377 C   0  0  1  0  0  0  0  0  0  0  0  0
    2.9445   -1.0951    0.7032 C   0  0  0  0  0  0  0  0  0  0  0  0
    2.3421   -0.9694    2.0086 N   0  0  0  0  0  0  0  0  0  0  0  0
    1.0741   -1.4352    2.2491 C   0  0  0  0  0  0  0  0  0  0  0  0
    0.4495   -2.1313    1.4735 O   0  0  0  0  0  0  0  0  0  0  0  0
    0.6623   -1.0207    3.4624 O   0  0  0  0  0  0  0  0  0  0  0  0
   -0.6597   -1.3697    3.9932 C   0  0  1  0  0  0  0  0  0  0  0  0
   -0.7534   -2.8864    4.1882 C   0  0  0  0  0  0  0  0  0  0  0  0
   -0.6855   -0.6442    5.3399 C   0  0  0  0  0  0  0  0  0  0  0  0
   -1.7600   -0.8368    3.0696 C   0  0  0  0  0  0  0  0  0  0  0  0
    3.1985    1.3371    0.3196 N   0  0  0  0  0  0  0  0  0  0  0  0
    2.4760    2.3460    0.8554 C   0  0  0  0  0  0  0  0  0  0  0  0
    1.1394    2.2312    0.9311 N   0  0  0  0  0  0  0  0  0  0  0  0
    0.4609    3.2333    1.4596 C   0  0  0  0  0  0  0  0  0  0  0  0
   -1.2750    3.0231    1.5299 Cl  0  0  0  0  0  0  0  0  0  0  0  0
    0.9248    4.3729    1.9426 N   0  0  0  0  0  0  0  0  0  0  0  0
    2.2573    4.5146    1.8787 C   0  0  0  0  0  0  0  0  0  0  0  0
    3.0849    3.5399    1.3484 C   0  0  0  0  0  0  0  0  0  0  0  0
    4.9719    3.7865    1.2803 Br  0  0  0  0  0  0  0  0  0  0  0  0
    2.8030   -1.0632   -2.0732 H   0  0  0  0  0  0  0  0  0  0  0  0
    4.3267   -0.2699   -1.6117 H   0  0  0  0  0  0  0  0  0  0  0  0
    2.9959    0.6936   -2.3074 H   0  0  0  0  0  0  0  0  0  0  0  0
    1.5732    0.2272   -0.2934 H   0  0  0  0  0  0  0  0  0  0  0  0
    4.0356   -1.2281    0.8147 H   0  0  0  0  0  0  0  0  0  0  0  0
    2.5422   -2.0094    0.2441 H   0  0  0  0  0  0  0  0  0  0  0  0
    2.7154   -0.2997    2.6705 H   0  0  0  0  0  0  0  0  0  0  0  0
    0.0650   -3.2427    4.8336 H   0  0  0  0  0  0  0  0  0  0  0  0
   -0.6989   -3.4092    3.2246 H   0  0  0  0  0  0  0  0  0  0  0  0
   -1.7079   -3.1414    4.6749 H   0  0  0  0  0  0  0  0  0  0  0  0
    0.1411   -0.9870    5.9810 H   0  0  0  0  0  0  0  0  0  0  0  0
   -1.6354   -0.8398    5.8601 H   0  0  0  0  0  0  0  0  0  0  0  0
   -0.5845    0.4422    5.1957 H   0  0  0  0  0  0  0  0  0  0  0  0
   -1.7598   -1.3655    2.1084 H   0  0  0  0  0  0  0  0  0  0  0  0
   -1.6162    0.2375    2.8783 H   0  0  0  0  0  0  0  0  0  0  0  0
   -2.7418   -0.9732    3.5499 H   0  0  0  0  0  0  0  0  0  0  0  0
    4.2018    1.4841    0.2683 H   0  0  0  0  0  0  0  0  0  0  0  0
    2.6812    5.4462    2.2680 H   0  0  0  0  0  0  0  0  0  0  0  0
  1  2  1  0
  1 21  1  0
  1 22  1  0
  1 23  1  0
  2  3  1  0
  2 12  1  0
  2 24  1  6
  3  4  1  0
  3 25  1  0
  3 26  1  0
  4  5  1  0
  4 27  1  0
  5  6  2  0
  5  7  1  0
  8  7  1  6
  8  9  1  0
  8 10  1  0
  8 11  1  0
  9 28  1  0
  9 29  1  0
  9 30  1  0
 10 31  1  0
 10 32  1  0
 10 33  1  0
 11 34  1  0
 11 35  1  0
 11 36  1  0
 12 13  1  0
 12 37  1  0
 13 14  2  0
 13 19  1  0
 14 15  1  0
 15 16  1  0
 15 17  2  0
 17 18  1  0
 18 19  2  0
 18 38  1  0
 19 20  1  0
M  END

