
     RDKit          3D

 43 45  0  0  0  0  0  0  0  0999 V2000
    4.2975    3.2668   -0.7731 C   0  0  0  0  0  0  0  0  0  0  0  0
    3.9439    3.7997    0.5947 C   0  0  0  0  0  0  0  0  0  0  0  0
    2.7822    3.3457    1.2625 C   0  0  0  0  0  0  0  0  0  0  0  0
    1.9267    2.2432    0.6661 C   0  0  0  0  0  0  0  0  0  0  0  0
    2.3529    1.0996    0.6266 O   0  0  0  0  0  0  0  0  0  0  0  0
    0.6685    2.5850    0.2294 N   0  0  0  0  0  0  0  0  0  0  0  0
    0.1345    3.9417    0.1346 C   0  0  0  0  0  0  0  0  0  0  0  0
   -0.2989    4.2602   -1.3018 C   0  0  0  0  0  0  0  0  0  0  0  0
   -1.2642    3.1995   -1.8414 C   0  0  0  0  0  0  0  0  0  0  0  0
   -0.6602    1.8059   -1.6993 C   0  0  2  0  0  0  0  0  0  0  0  0
   -1.6716    0.8646   -2.0857 O   0  0  0  0  0  0  0  0  0  0  0  0
   -1.3143   -0.3465   -2.5498 C   0  0  0  0  0  0  0  0  0  0  0  0
   -2.3522   -1.2286   -2.9389 C   0  0  0  0  0  0  0  0  0  0  0  0
   -2.0800   -2.4339   -3.4096 N   0  0  0  0  0  0  0  0  0  0  0  0
   -0.7878   -2.7858   -3.5044 C   0  0  0  0  0  0  0  0  0  0  0  0
    0.2264   -1.9122   -3.1208 C   0  0  0  0  0  0  0  0  0  0  0  0
   -0.0402   -0.6899   -2.6413 N   0  0  0  0  0  0  0  0  0  0  0  0
   -0.2208    1.5321   -0.2530 C   0  0  0  0  0  0  0  0  0  0  0  0
    2.4508    3.8118    2.5422 C   0  0  0  0  0  0  0  0  0  0  0  0
    3.2642    4.7309    3.2066 C   0  0  0  0  0  0  0  0  0  0  0  0
    4.4113    5.2008    2.5763 C   0  0  0  0  0  0  0  0  0  0  0  0
    4.7189    4.7518    1.2889 C   0  0  0  0  0  0  0  0  0  0  0  0
    5.9299    5.3454    0.6793 N   0  0  0  0  0  0  0  0  0  0  0  0
    5.9626    5.4575   -0.5366 O   0  0  0  0  0  0  0  0  0  0  0  0
    6.8154    5.7123    1.4345 O   0  0  0  0  0  0  0  0  0  0  0  0
    3.8176    2.2950   -0.9379 H   0  0  0  0  0  0  0  0  0  0  0  0
    5.3811    3.1445   -0.8952 H   0  0  0  0  0  0  0  0  0  0  0  0
    3.9820    3.9697   -1.5602 H   0  0  0  0  0  0  0  0  0  0  0  0
    0.8913    4.6575    0.4758 H   0  0  0  0  0  0  0  0  0  0  0  0
   -0.7362    4.0357    0.8126 H   0  0  0  0  0  0  0  0  0  0  0  0
    0.5991    4.3112   -1.9418 H   0  0  0  0  0  0  0  0  0  0  0  0
   -0.7691    5.2565   -1.3291 H   0  0  0  0  0  0  0  0  0  0  0  0
   -1.5166    3.3913   -2.8962 H   0  0  0  0  0  0  0  0  0  0  0  0
   -2.2120    3.2265   -1.2750 H   0  0  0  0  0  0  0  0  0  0  0  0
    0.2127    1.6885   -2.3603 H   0  0  0  0  0  0  0  0  0  0  0  0
   -3.3975   -0.9132   -2.8518 H   0  0  0  0  0  0  0  0  0  0  0  0
   -0.5595   -3.7837   -3.8919 H   0  0  0  0  0  0  0  0  0  0  0  0
    1.2809   -2.1995   -3.1956 H   0  0  0  0  0  0  0  0  0  0  0  0
    0.3162    0.5792   -0.1845 H   0  0  0  0  0  0  0  0  0  0  0  0
   -1.1237    1.4860    0.3846 H   0  0  0  0  0  0  0  0  0  0  0  0
    1.5460    3.4363    3.0273 H   0  0  0  0  0  0  0  0  0  0  0  0
    3.0056    5.0779    4.2092 H   0  0  0  0  0  0  0  0  0  0  0  0
    5.0816    5.9130    3.0566 H   0  0  0  0  0  0  0  0  0  0  0  0
  1  2  1  0
  1 26  1  0
  1 27  1  0
  1 28  1  0
  2  3  2  0
  2 22  1  0
  3  4  1  0
  3 19  1  0
  4  5  2  0
  4  6  1  0
  6  7  1  0
  6 18  1  0
  7  8  1  0
  7 29  1  0
  7 30  1  0
  8  9  1  0
  8 31  1  0
  8 32  1  0
  9 10  1  0
  9 33  1  0
  9 34  1  0
 10 11  1  0
 10 18  1  0
 10 35  1  6
 11 12  1  0
 12 13  2  0
 12 17  1  0
 13 14  1  0
 13 36  1  0
 14 15  2  0
 15 16  1  0
 15 37  1  0
 16 17  2  0
 16 38  1  0
 18 39  1  0
 18 40  1  0
 19 20  2  0
 19 41  1  0
 20 21  1  0
 20 42  1  0
 21 22  2  0
 21 43  1  0
 22 23  1  0
 23 24  2  0
 23 25  1  0
M  CHG  2  23   1  25  -1
M  END

