
     RDKit          3D

 24 25  0  0  0  0  0  0  0  0999 V2000
    1.5270   -0.0049    0.8780 C   0  0  0  0  0  0  0  0  0  0  0  0
    2.4164   -0.2601   -0.1846 O   0  0  0  0  0  0  0  0  0  0  0  0
    2.7814    0.7619   -1.0024 C   0  0  0  0  0  0  0  0  0  0  0  0
    2.3296    2.0819   -0.8718 C   0  0  0  0  0  0  0  0  0  0  0  0
    2.7718    3.0547   -1.7795 C   0  0  0  0  0  0  0  0  0  0  0  0
    3.6539    2.7106   -2.7952 C   0  0  0  0  0  0  0  0  0  0  0  0
    4.1608    3.5815   -3.7709 O   0  0  0  0  0  0  0  0  0  0  0  0
    3.9370    4.8807   -3.8751 C   0  0  0  0  0  0  0  0  0  0  0  0
    3.1819    5.6384   -3.1356 N   0  0  0  0  0  0  0  0  0  0  0  0
    3.1864    6.9387   -3.5368 N   0  0  0  0  0  0  0  0  0  0  0  0
    3.9361    7.1563   -4.5691 C   0  0  0  0  0  0  0  0  0  0  0  0
    4.7535    5.7369   -5.1861 S   0  0  0  0  0  0  0  0  0  0  0  0
    4.1278    1.3818   -2.9447 C   0  0  0  0  0  0  0  0  0  0  0  0
    5.0437    1.0747   -3.9326 N   0  0  0  0  0  0  0  0  0  0  0  0
    3.6713    0.4229   -2.0333 C   0  0  0  0  0  0  0  0  0  0  0  0
    1.3773   -0.9610    1.3979 H   0  0  0  0  0  0  0  0  0  0  0  0
    0.5489    0.3629    0.5182 H   0  0  0  0  0  0  0  0  0  0  0  0
    1.9390    0.7298    1.5933 H   0  0  0  0  0  0  0  0  0  0  0  0
    1.6389    2.3749   -0.0825 H   0  0  0  0  0  0  0  0  0  0  0  0
    2.4301    4.0842   -1.6990 H   0  0  0  0  0  0  0  0  0  0  0  0
    4.0594    8.1386   -5.0287 H   0  0  0  0  0  0  0  0  0  0  0  0
    5.1072    1.7251   -4.7054 H   0  0  0  0  0  0  0  0  0  0  0  0
    5.1200    0.0999   -4.1945 H   0  0  0  0  0  0  0  0  0  0  0  0
    4.0101   -0.6126   -2.1067 H   0  0  0  0  0  0  0  0  0  0  0  0
  1  2  1  0
  1 16  1  0
  1 17  1  0
  1 18  1  0
  2  3  1  0
  3  4  2  0
  3 15  1  0
  4  5  1  0
  4 19  1  0
  5  6  2  0
  5 20  1  0
  6  7  1  0
  6 13  1  0
  7  8  1  0
  8  9  2  0
  8 12  1  0
  9 10  1  0
 10 11  2  0
 11 12  1  0
 11 21  1  0
 13 14  1  0
 13 15  2  0
 14 22  1  0
 14 23  1  0
 15 24  1  0
M  END

