
     RDKit          3D

 55 56  0  0  0  0  0  0  0  0999 V2000
    2.1840    3.4394    7.8605 C   0  0  0  0  0  0  0  0  0  0  0  0
    2.9712    2.1783    7.5020 C   0  0  0  0  0  0  0  0  0  0  0  0
    2.0839    0.9803    7.1056 C   0  0  1  0  0  0  0  0  0  0  0  0
    1.2631    1.3114    5.9318 N   0  0  0  0  0  0  0  0  0  0  0  0
    1.7328    1.5398    4.6853 C   0  0  0  0  0  0  0  0  0  0  0  0
    2.9100    1.4721    4.3571 O   0  0  0  0  0  0  0  0  0  0  0  0
    0.6603    2.0074    3.6583 C   0  0  2  0  0  0  0  0  0  0  0  0
    0.7063    3.1073    3.6613 H   0  0  0  0  0  0  0  0  0  0  0  0
   -0.6551    1.6879    4.1041 O   0  0  0  0  0  0  0  0  0  0  0  0
   -1.0725    0.3990    3.8594 C   0  0  0  0  0  0  0  0  0  0  0  0
   -2.1873   -0.0257    4.7654 C   0  0  0  0  0  0  0  0  0  0  0  0
   -2.6377   -1.1403    4.8058 O   0  0  0  0  0  0  0  0  0  0  0  0
   -2.6395    0.9588    5.5704 O   0  0  0  0  0  0  0  0  0  0  0  0
   -0.5396   -0.3876    2.9179 C   0  0  0  0  0  0  0  0  0  0  0  0
    0.5457    0.0548    1.9711 C   0  0  2  0  0  0  0  0  0  0  0  0
    0.1141    0.0298    0.9568 H   0  0  0  0  0  0  0  0  0  0  0  0
    1.7223   -0.8255    1.9517 N   0  0  0  0  0  0  0  0  0  0  0  0
    1.0031    1.5212    2.2330 C   0  0  1  0  0  0  0  0  0  0  0  0
    2.0998    1.5042    2.2083 H   0  0  0  0  0  0  0  0  0  0  0  0
    0.6089    2.4719    1.1970 N   0  0  0  0  0  0  0  0  0  0  0  0
   -0.6771    2.7022    0.7873 C   0  0  0  0  0  0  0  0  0  0  0  0
   -0.8292    3.6965   -0.3549 C   0  0  0  0  0  0  0  0  0  0  0  0
   -1.6371    2.1433    1.2878 O   0  0  0  0  0  0  0  0  0  0  0  0
    2.8921   -0.3374    6.9265 C   0  0  1  0  0  0  0  0  0  0  0  0
    3.4818   -0.8220    8.2662 C   0  0  0  0  0  0  0  0  0  0  0  0
    2.0911   -1.4644    6.2857 C   0  0  0  0  0  0  0  0  0  0  0  0
    2.6793   -2.2492    5.2808 C   0  0  0  0  0  0  0  0  0  0  0  0
    1.9946   -3.3281    4.7109 C   0  0  0  0  0  0  0  0  0  0  0  0
    0.6966   -3.6342    5.1284 C   0  0  0  0  0  0  0  0  0  0  0  0
    0.0945   -2.8603    6.1252 C   0  0  0  0  0  0  0  0  0  0  0  0
    0.7905   -1.7946    6.7023 C   0  0  0  0  0  0  0  0  0  0  0  0
    2.8622    4.2631    8.1330 H   0  0  0  0  0  0  0  0  0  0  0  0
    1.5116    3.2671    8.7183 H   0  0  0  0  0  0  0  0  0  0  0  0
    1.5653    3.7868    7.0180 H   0  0  0  0  0  0  0  0  0  0  0  0
    3.5908    1.8856    8.3631 H   0  0  0  0  0  0  0  0  0  0  0  0
    3.6639    2.3830    6.6701 H   0  0  0  0  0  0  0  0  0  0  0  0
    1.3548    0.8207    7.9184 H   0  0  0  0  0  0  0  0  0  0  0  0
    0.2596    1.3683    6.0502 H   0  0  0  0  0  0  0  0  0  0  0  0
   -2.2052    1.7886    5.3052 H   0  0  0  0  0  0  0  0  0  0  0  0
   -0.9409   -1.3993    2.8295 H   0  0  0  0  0  0  0  0  0  0  0  0
    1.4346   -1.7806    1.7335 H   0  0  0  0  0  0  0  0  0  0  0  0
    2.1377   -0.8728    2.8845 H   0  0  0  0  0  0  0  0  0  0  0  0
    1.3592    2.9368    0.7022 H   0  0  0  0  0  0  0  0  0  0  0  0
    0.0987    4.2242   -0.6202 H   0  0  0  0  0  0  0  0  0  0  0  0
   -1.5987    4.4311   -0.0766 H   0  0  0  0  0  0  0  0  0  0  0  0
   -1.2012    3.1599   -1.2418 H   0  0  0  0  0  0  0  0  0  0  0  0
    3.7253   -0.1073    6.2451 H   0  0  0  0  0  0  0  0  0  0  0  0
    2.6845   -1.0299    8.9993 H   0  0  0  0  0  0  0  0  0  0  0  0
    4.1723   -0.0890    8.7097 H   0  0  0  0  0  0  0  0  0  0  0  0
    4.0431   -1.7565    8.1176 H   0  0  0  0  0  0  0  0  0  0  0  0
    3.6927   -2.0113    4.9437 H   0  0  0  0  0  0  0  0  0  0  0  0
    2.4789   -3.9293    3.9362 H   0  0  0  0  0  0  0  0  0  0  0  0
    0.1533   -4.4694    4.6793 H   0  0  0  0  0  0  0  0  0  0  0  0
   -0.9277   -3.0758    6.4436 H   0  0  0  0  0  0  0  0  0  0  0  0
    0.3012   -1.2119    7.4879 H   0  0  0  0  0  0  0  0  0  0  0  0
  1  2  1  0
  1 32  1  0
  1 33  1  0
  1 34  1  0
  2  3  1  0
  2 35  1  0
  2 36  1  0
  3  4  1  0
  3 24  1  0
  3 37  1  1
  4  5  1  0
  4 38  1  0
  5  6  2  0
  5  7  1  0
  7  8  1  6
  7  9  1  0
  7 18  1  0
  9 10  1  0
 10 11  1  0
 10 14  2  0
 11 12  2  0
 11 13  1  0
 13 39  1  0
 14 15  1  0
 14 40  1  0
 15 16  1  6
 15 17  1  0
 15 18  1  0
 17 41  1  0
 17 42  1  0
 18 19  1  1
 18 20  1  0
 20 21  1  0
 20 43  1  0
 21 22  1  0
 21 23  2  0
 22 44  1  0
 22 45  1  0
 22 46  1  0
 24 25  1  0
 24 26  1  0
 24 47  1  6
 25 48  1  0
 25 49  1  0
 25 50  1  0
 26 27  2  0
 26 31  1  0
 27 28  1  0
 27 51  1  0
 28 29  2  0
 28 52  1  0
 29 30  1  0
 29 53  1  0
 30 31  2  0
 30 54  1  0
 31 55  1  0
M  END

