
     RDKit          3D

 49 52  0  0  0  0  0  0  0  0999 V2000
    0.9614    0.0612    0.5867 C   0  0  0  0  0  0  0  0  0  0  0  0
    2.3071   -0.0509   -0.0412 C   0  0  0  0  0  0  0  0  0  0  0  0
    3.1079    1.0502   -0.1574 N   0  0  0  0  0  0  0  0  0  0  0  0
    2.7122    1.9696   -0.3544 H   0  0  0  0  0  0  0  0  0  0  0  0
    4.2393    0.7139   -0.9027 N   0  0  0  0  0  0  0  0  0  0  0  0
    5.3485    1.5791   -0.9837 C   0  0  0  0  0  0  0  0  0  0  0  0
    6.6404    1.0687   -0.7596 C   0  0  0  0  0  0  0  0  0  0  0  0
    7.7520    1.9035   -0.8477 C   0  0  0  0  0  0  0  0  0  0  0  0
    9.3422    1.2394   -0.5671 Cl  0  0  0  0  0  0  0  0  0  0  0  0
    7.6170    3.2642   -1.1392 C   0  0  0  0  0  0  0  0  0  0  0  0
    6.3423    3.7781   -1.3666 C   0  0  0  0  0  0  0  0  0  0  0  0
    5.2218    2.9465   -1.3091 C   0  0  0  0  0  0  0  0  0  0  0  0
    3.6619    3.6564   -1.7062 Cl  0  0  0  0  0  0  0  0  0  0  0  0
    4.2480   -0.6963   -1.1241 C   0  0  0  0  0  0  0  0  0  0  0  0
    5.1683   -1.3063   -1.6337 O   0  0  0  0  0  0  0  0  0  0  0  0
    2.9687   -1.1489   -0.5707 C   0  0  0  0  0  0  0  0  0  0  0  0
    2.6088   -2.4787   -0.6413 N   0  0  0  0  0  0  0  0  0  0  0  0
    1.5134   -2.7754   -0.0794 N   0  0  0  0  0  0  0  0  0  0  0  0
    1.1085   -4.0929   -0.1370 C   0  0  0  0  0  0  0  0  0  0  0  0
    1.7012   -5.2439   -0.6542 C   0  0  0  0  0  0  0  0  0  0  0  0
    3.0592   -5.4280   -1.2511 C   0  0  0  0  0  0  0  0  0  0  0  0
    0.8467   -6.2971   -0.5030 N   0  0  0  0  0  0  0  0  0  0  0  0
    1.2432   -7.6863   -0.3795 C   0  0  0  0  0  0  0  0  0  0  0  0
   -0.2799   -5.8624    0.1966 N   0  0  0  0  0  0  0  0  0  0  0  0
   -1.4866   -6.5970    0.2391 C   0  0  0  0  0  0  0  0  0  0  0  0
   -2.1287   -6.7306    1.4807 C   0  0  0  0  0  0  0  0  0  0  0  0
   -3.3490   -7.3950    1.5910 C   0  0  0  0  0  0  0  0  0  0  0  0
   -3.9411   -7.9582    0.4571 C   0  0  0  0  0  0  0  0  0  0  0  0
   -3.3237   -7.8300   -0.7880 C   0  0  0  0  0  0  0  0  0  0  0  0
   -2.1161   -7.1350   -0.9026 C   0  0  0  0  0  0  0  0  0  0  0  0
   -1.4273   -6.9235   -2.4968 Cl  0  0  0  0  0  0  0  0  0  0  0  0
   -0.1945   -4.4577    0.4269 C   0  0  0  0  0  0  0  0  0  0  0  0
   -1.0719   -3.8028    0.9516 O   0  0  0  0  0  0  0  0  0  0  0  0
    0.6969    1.1113    0.7867 H   0  0  0  0  0  0  0  0  0  0  0  0
    0.9317   -0.5058    1.5299 H   0  0  0  0  0  0  0  0  0  0  0  0
    0.1981   -0.4088   -0.0502 H   0  0  0  0  0  0  0  0  0  0  0  0
    6.7614    0.0092   -0.5447 H   0  0  0  0  0  0  0  0  0  0  0  0
    8.4963    3.9067   -1.1966 H   0  0  0  0  0  0  0  0  0  0  0  0
    6.2069    4.8327   -1.6112 H   0  0  0  0  0  0  0  0  0  0  0  0
    3.5157   -4.4439   -1.4053 H   0  0  0  0  0  0  0  0  0  0  0  0
    3.0000   -5.9598   -2.2146 H   0  0  0  0  0  0  0  0  0  0  0  0
    3.7121   -6.0156   -0.5823 H   0  0  0  0  0  0  0  0  0  0  0  0
    2.0938   -7.8673   -1.0468 H   0  0  0  0  0  0  0  0  0  0  0  0
    0.4210   -8.3433   -0.6922 H   0  0  0  0  0  0  0  0  0  0  0  0
    1.5324   -7.9364    0.6575 H   0  0  0  0  0  0  0  0  0  0  0  0
   -1.6493   -6.2900    2.3555 H   0  0  0  0  0  0  0  0  0  0  0  0
   -3.8329   -7.4804    2.5665 H   0  0  0  0  0  0  0  0  0  0  0  0
   -4.8909   -8.4924    0.5352 H   0  0  0  0  0  0  0  0  0  0  0  0
   -3.7799   -8.2461   -1.6877 H   0  0  0  0  0  0  0  0  0  0  0  0
  1  2  1  0
  1 34  1  0
  1 35  1  0
  1 36  1  0
  2  3  1  0
  2 16  2  0
  3  4  1  0
  3  5  1  0
  5  6  1  0
  5 14  1  0
  6  7  2  0
  6 12  1  0
  7  8  1  0
  7 37  1  0
  8  9  1  0
  8 10  2  0
 10 11  1  0
 10 38  1  0
 11 12  2  0
 11 39  1  0
 12 13  1  0
 14 15  2  0
 14 16  1  0
 16 17  1  0
 17 18  2  0
 18 19  1  0
 19 20  2  0
 19 32  1  0
 20 21  1  0
 20 22  1  0
 21 40  1  0
 21 41  1  0
 21 42  1  0
 22 23  1  0
 22 24  1  0
 23 43  1  0
 23 44  1  0
 23 45  1  0
 24 25  1  0
 24 32  1  0
 25 26  2  0
 25 30  1  0
 26 27  1  0
 26 46  1  0
 27 28  2  0
 27 47  1  0
 28 29  1  0
 28 48  1  0
 29 30  2  0
 29 49  1  0
 30 31  1  0
 32 33  2  0
M  END

