
     RDKit          3D

 48 51  0  0  0  0  0  0  0  0999 V2000
    1.6821   -2.1991   -2.3004 C   0  0  0  0  0  0  0  0  0  0  0  0
    2.4222   -1.2866   -1.3312 C   0  0  0  0  0  0  0  0  0  0  0  0
    2.4145   -1.5119   -0.1312 O   0  0  0  0  0  0  0  0  0  0  0  0
    3.0921   -0.2027   -1.8614 N   0  0  0  0  0  0  0  0  0  0  0  0
    3.1941    0.1353   -3.2770 C   0  0  0  0  0  0  0  0  0  0  0  0
    2.7560    1.5811   -3.5324 C   0  0  0  0  0  0  0  0  0  0  0  0
    3.5239    2.5800   -2.6437 C   0  0  2  0  0  0  0  0  0  0  0  0
    4.9234    2.7135   -3.0494 N   0  0  0  0  0  0  0  0  0  0  0  0
    5.3042    3.5037   -4.0980 C   0  0  0  0  0  0  0  0  0  0  0  0
    4.4850    4.0959   -4.7930 O   0  0  0  0  0  0  0  0  0  0  0  0
    6.7845    3.5764   -4.3276 C   0  0  2  0  0  0  0  0  0  0  0  0
    7.3516    4.7414   -5.0966 C   0  0  0  0  0  0  0  0  0  0  0  0
    7.3960    3.3918   -5.7426 C   0  0  2  0  0  0  0  0  0  0  0  0
    6.4898    3.1206   -6.9336 C   0  0  0  0  0  0  0  0  0  0  0  0
    6.4310    1.6268   -7.2015 C   0  0  0  0  0  0  0  0  0  0  0  0
    7.7197    1.0843   -7.4698 O   0  0  0  0  0  0  0  0  0  0  0  0
    8.7553    1.4963   -6.6907 C   0  0  0  0  0  0  0  0  0  0  0  0
    9.9454    0.7606   -6.8073 C   0  0  0  0  0  0  0  0  0  0  0  0
   11.0649    1.1056   -6.0558 C   0  0  0  0  0  0  0  0  0  0  0  0
   11.0067    2.1937   -5.1770 C   0  0  0  0  0  0  0  0  0  0  0  0
    9.8261    2.9288   -5.0726 C   0  0  0  0  0  0  0  0  0  0  0  0
    8.6792    2.6080   -5.8192 C   0  0  0  0  0  0  0  0  0  0  0  0
    3.4313    2.1460   -1.1726 C   0  0  0  0  0  0  0  0  0  0  0  0
    3.8327    0.6798   -0.9664 C   0  0  0  0  0  0  0  0  0  0  0  0
    1.2091   -2.9888   -1.7048 H   0  0  0  0  0  0  0  0  0  0  0  0
    2.3647   -2.6624   -3.0304 H   0  0  0  0  0  0  0  0  0  0  0  0
    0.9029   -1.6604   -2.8624 H   0  0  0  0  0  0  0  0  0  0  0  0
    2.5875   -0.5551   -3.8736 H   0  0  0  0  0  0  0  0  0  0  0  0
    4.2433    0.0060   -3.6103 H   0  0  0  0  0  0  0  0  0  0  0  0
    1.6784    1.6768   -3.3148 H   0  0  0  0  0  0  0  0  0  0  0  0
    2.9018    1.8499   -4.5895 H   0  0  0  0  0  0  0  0  0  0  0  0
    3.0667    3.5730   -2.7739 H   0  0  0  0  0  0  0  0  0  0  0  0
    5.6423    2.2616   -2.4979 H   0  0  0  0  0  0  0  0  0  0  0  0
    7.4057    3.1654   -3.5261 H   0  0  0  0  0  0  0  0  0  0  0  0
    8.2739    5.2027   -4.7365 H   0  0  0  0  0  0  0  0  0  0  0  0
    6.6059    5.4383   -5.4894 H   0  0  0  0  0  0  0  0  0  0  0  0
    6.9026    3.6309   -7.8213 H   0  0  0  0  0  0  0  0  0  0  0  0
    5.4813    3.5172   -6.7553 H   0  0  0  0  0  0  0  0  0  0  0  0
    5.8203    1.3937   -8.0856 H   0  0  0  0  0  0  0  0  0  0  0  0
    5.9887    1.0998   -6.3335 H   0  0  0  0  0  0  0  0  0  0  0  0
    9.9570   -0.0847   -7.4984 H   0  0  0  0  0  0  0  0  0  0  0  0
   11.9843    0.5227   -6.1535 H   0  0  0  0  0  0  0  0  0  0  0  0
   11.8790    2.4735   -4.5820 H   0  0  0  0  0  0  0  0  0  0  0  0
    9.7993    3.7847   -4.3937 H   0  0  0  0  0  0  0  0  0  0  0  0
    2.3890    2.2764   -0.8399 H   0  0  0  0  0  0  0  0  0  0  0  0
    4.0553    2.8011   -0.5419 H   0  0  0  0  0  0  0  0  0  0  0  0
    3.6296    0.3506    0.0599 H   0  0  0  0  0  0  0  0  0  0  0  0
    4.9205    0.5448   -1.1390 H   0  0  0  0  0  0  0  0  0  0  0  0
  1  2  1  0
  1 25  1  0
  1 26  1  0
  1 27  1  0
  2  3  2  0
  2  4  1  0
  4  5  1  0
  4 24  1  0
  5  6  1  0
  5 28  1  0
  5 29  1  0
  6  7  1  0
  6 30  1  0
  6 31  1  0
  7  8  1  0
  7 23  1  0
  7 32  1  1
  8  9  1  0
  8 33  1  0
  9 10  2  0
  9 11  1  0
 11 12  1  0
 11 13  1  0
 11 34  1  1
 13 12  1  6
 12 35  1  0
 12 36  1  0
 13 14  1  0
 13 22  1  0
 14 15  1  0
 14 37  1  0
 14 38  1  0
 15 16  1  0
 15 39  1  0
 15 40  1  0
 16 17  1  0
 17 18  2  0
 17 22  1  0
 18 19  1  0
 18 41  1  0
 19 20  2  0
 19 42  1  0
 20 21  1  0
 20 43  1  0
 21 22  2  0
 21 44  1  0
 23 24  1  0
 23 45  1  0
 23 46  1  0
 24 47  1  0
 24 48  1  0
M  END

