
     RDKit          3D

 82 90  0  0  0  0  0  0  0  0999 V2000
    2.2036    0.3063   -4.8869 N   0  0  0  0  0  0  0  0  0  0  0  0
    2.7653    0.5904   -3.9093 C   0  0  0  0  0  0  0  0  0  0  0  0
    3.4680    0.9528   -2.6982 C   0  0  0  0  0  0  0  0  0  0  0  0
    4.7589    0.4953   -2.6714 C   0  0  0  0  0  0  0  0  0  0  0  0
    5.9389    0.6109   -1.8133 C   0  0  0  0  0  0  0  0  0  0  0  0
    7.1060    0.0031   -2.3357 C   0  0  0  0  0  0  0  0  0  0  0  0
    8.3219    0.0542   -1.6708 C   0  0  0  0  0  0  0  0  0  0  0  0
    8.4411    0.6993   -0.4260 C   0  0  0  0  0  0  0  0  0  0  0  0
    7.2854    1.2909    0.1146 C   0  0  0  0  0  0  0  0  0  0  0  0
    6.0644    1.2644   -0.5672 C   0  0  0  0  0  0  0  0  0  0  0  0
    9.7655    0.5881    0.2675 C   0  0  0  0  0  0  0  0  0  0  0  0
    9.8577   -0.2881    1.3396 C   0  0  0  0  0  0  0  0  0  0  0  0
   11.1079   -0.7276    1.8358 C   0  0  0  0  0  0  0  0  0  0  0  0
   12.2680   -0.3476    1.1994 C   0  0  0  0  0  0  0  0  0  0  0  0
   12.2335    0.5744    0.1155 C   0  0  0  0  0  0  0  0  0  0  0  0
   13.4265    0.9528   -0.5635 C   0  0  0  0  0  0  0  0  0  0  0  0
   13.3954    1.8803   -1.5805 C   0  0  0  0  0  0  0  0  0  0  0  0
   12.1849    2.5468   -1.8866 C   0  0  0  0  0  0  0  0  0  0  0  0
   11.0007    2.2283   -1.2402 C   0  0  0  0  0  0  0  0  0  0  0  0
    9.8400    3.1637   -1.3259 C   0  0  0  0  0  0  0  0  0  0  0  0
    9.5585    3.9384   -0.1841 C   0  0  0  0  0  0  0  0  0  0  0  0
    8.4450    4.7634   -0.1203 C   0  0  0  0  0  0  0  0  0  0  0  0
    7.5343    4.8228   -1.1985 C   0  0  0  0  0  0  0  0  0  0  0  0
    7.8807    4.1285   -2.3801 C   0  0  0  0  0  0  0  0  0  0  0  0
    9.0183    3.3251   -2.4509 C   0  0  0  0  0  0  0  0  0  0  0  0
    6.1947    5.3989   -1.1144 C   0  0  0  0  0  0  0  0  0  0  0  0
    5.5264    5.9494   -0.0572 C   0  0  0  0  0  0  0  0  0  0  0  0
    6.1630    6.2487    1.1948 C   0  0  0  0  0  0  0  0  0  0  0  0
    6.6288    6.5196    2.2255 N   0  0  0  0  0  0  0  0  0  0  0  0
    4.0494    6.1367   -0.0655 C   0  0  0  0  0  0  0  0  0  0  0  0
    3.3226    6.4706   -1.2213 C   0  0  0  0  0  0  0  0  0  0  0  0
    1.9270    6.4567   -1.2146 C   0  0  0  0  0  0  0  0  0  0  0  0
    1.2117    6.0880   -0.0631 C   0  0  0  0  0  0  0  0  0  0  0  0
    1.9418    5.8157    1.1065 C   0  0  0  0  0  0  0  0  0  0  0  0
    3.3302    5.8554    1.1115 C   0  0  0  0  0  0  0  0  0  0  0  0
   -0.2761    6.0678    0.0065 C   0  0  0  0  0  0  0  0  0  0  0  0
   -0.9512    7.2505   -0.2690 C   0  0  0  0  0  0  0  0  0  0  0  0
   -2.3225    7.4137    0.0261 C   0  0  0  0  0  0  0  0  0  0  0  0
   -3.0008    6.4037    0.6687 C   0  0  0  0  0  0  0  0  0  0  0  0
   -2.3664    5.1609    0.9472 C   0  0  0  0  0  0  0  0  0  0  0  0
   -3.0734    4.1430    1.6456 C   0  0  0  0  0  0  0  0  0  0  0  0
   -2.4841    2.9256    1.8953 C   0  0  0  0  0  0  0  0  0  0  0  0
   -1.2057    2.6486    1.3636 C   0  0  0  0  0  0  0  0  0  0  0  0
   -0.4745    3.5939    0.6509 C   0  0  0  0  0  0  0  0  0  0  0  0
    0.6967    3.0785   -0.1216 C   0  0  0  0  0  0  0  0  0  0  0  0
    0.7710    3.3147   -1.5069 C   0  0  0  0  0  0  0  0  0  0  0  0
    1.7041    2.6612   -2.3018 C   0  0  0  0  0  0  0  0  0  0  0  0
    2.6259    1.7435   -1.7565 C   0  0  0  0  0  0  0  0  0  0  0  0
    2.5812    1.5323   -0.3665 C   0  0  0  0  0  0  0  0  0  0  0  0
    1.6376    2.1887    0.4303 C   0  0  0  0  0  0  0  0  0  0  0  0
   -1.0064    4.9348    0.5245 C   0  0  0  0  0  0  0  0  0  0  0  0
   10.9761    1.1377   -0.2961 C   0  0  0  0  0  0  0  0  0  0  0  0
    4.9976   -0.0915   -3.5636 H   0  0  0  0  0  0  0  0  0  0  0  0
    7.0469   -0.5187   -3.2944 H   0  0  0  0  0  0  0  0  0  0  0  0
    9.1981   -0.4285   -2.1095 H   0  0  0  0  0  0  0  0  0  0  0  0
    7.3457    1.8017    1.0782 H   0  0  0  0  0  0  0  0  0  0  0  0
    5.2049    1.7657   -0.1227 H   0  0  0  0  0  0  0  0  0  0  0  0
    8.9393   -0.7076    1.7583 H   0  0  0  0  0  0  0  0  0  0  0  0
   11.1402   -1.4199    2.6806 H   0  0  0  0  0  0  0  0  0  0  0  0
   13.2349   -0.7455    1.5188 H   0  0  0  0  0  0  0  0  0  0  0  0
   14.3703    0.4935   -0.2579 H   0  0  0  0  0  0  0  0  0  0  0  0
   14.3122    2.1555   -2.1076 H   0  0  0  0  0  0  0  0  0  0  0  0
   12.1945    3.3816   -2.5922 H   0  0  0  0  0  0  0  0  0  0  0  0
   10.2193    3.8661    0.6827 H   0  0  0  0  0  0  0  0  0  0  0  0
    8.2626    5.3202    0.7962 H   0  0  0  0  0  0  0  0  0  0  0  0
    7.2088    4.1784   -3.2414 H   0  0  0  0  0  0  0  0  0  0  0  0
    9.2297    2.7630   -3.3632 H   0  0  0  0  0  0  0  0  0  0  0  0
    5.5827    5.2261   -2.0044 H   0  0  0  0  0  0  0  0  0  0  0  0
    3.8513    6.7409   -2.1386 H   0  0  0  0  0  0  0  0  0  0  0  0
    1.3834    6.7068   -2.1293 H   0  0  0  0  0  0  0  0  0  0  0  0
    1.4077    5.5675    2.0262 H   0  0  0  0  0  0  0  0  0  0  0  0
    3.8691    5.6302    2.0342 H   0  0  0  0  0  0  0  0  0  0  0  0
   -0.3830    8.1005   -0.6547 H   0  0  0  0  0  0  0  0  0  0  0  0
   -2.8173    8.3614   -0.1994 H   0  0  0  0  0  0  0  0  0  0  0  0
   -4.0405    6.5392    0.9781 H   0  0  0  0  0  0  0  0  0  0  0  0
   -4.0945    4.3486    1.9775 H   0  0  0  0  0  0  0  0  0  0  0  0
   -3.0220    2.1479    2.4428 H   0  0  0  0  0  0  0  0  0  0  0  0
   -0.8130    1.6326    1.4427 H   0  0  0  0  0  0  0  0  0  0  0  0
    0.0467    3.9824   -1.9773 H   0  0  0  0  0  0  0  0  0  0  0  0
    1.6933    2.8338   -3.3801 H   0  0  0  0  0  0  0  0  0  0  0  0
    3.2493    0.8030    0.0955 H   0  0  0  0  0  0  0  0  0  0  0  0
    1.6157    1.9821    1.5031 H   0  0  0  0  0  0  0  0  0  0  0  0
  1  2  3  0
  2  3  1  0
  3  4  2  0
  3 48  1  0
  4  5  1  0
  4 53  1  0
  5  6  2  0
  5 10  1  0
  6  7  1  0
  6 54  1  0
  7  8  2  0
  7 55  1  0
  8  9  1  0
  8 11  1  0
  9 10  2  0
  9 56  1  0
 10 57  1  0
 11 12  2  0
 11 52  1  0
 12 13  1  0
 12 58  1  0
 13 14  2  0
 13 59  1  0
 14 15  1  0
 14 60  1  0
 15 16  1  0
 15 52  2  0
 16 17  2  0
 16 61  1  0
 17 18  1  0
 17 62  1  0
 18 19  2  0
 18 63  1  0
 19 20  1  0
 19 52  1  0
 20 21  2  0
 20 25  1  0
 21 22  1  0
 21 64  1  0
 22 23  2  0
 22 65  1  0
 23 24  1  0
 23 26  1  0
 24 25  2  0
 24 66  1  0
 25 67  1  0
 26 27  2  0
 26 68  1  0
 27 28  1  0
 27 30  1  0
 28 29  3  0
 30 31  2  0
 30 35  1  0
 31 32  1  0
 31 69  1  0
 32 33  2  0
 32 70  1  0
 33 34  1  0
 33 36  1  0
 34 35  2  0
 34 71  1  0
 35 72  1  0
 36 37  1  0
 36 51  2  0
 37 38  2  0
 37 73  1  0
 38 39  1  0
 38 74  1  0
 39 40  2  0
 39 75  1  0
 40 41  1  0
 40 51  1  0
 41 42  2  0
 41 76  1  0
 42 43  1  0
 42 77  1  0
 43 44  2  0
 43 78  1  0
 44 45  1  0
 44 51  1  0
 45 46  2  0
 45 50  1  0
 46 47  1  0
 46 79  1  0
 47 48  2  0
 47 80  1  0
 48 49  1  0
 49 50  2  0
 49 81  1  0
 50 82  1  0
M  END

