
     RDKit          3D

 37 38  0  0  0  0  0  0  0  0999 V2000
    6.8820   -2.7777   -2.2218 O   0  0  0  0  0  0  0  0  0  0  0  0
    5.7971   -2.2922   -2.0434 C   0  0  0  0  0  0  0  0  0  0  0  0
    5.4558   -1.4280   -0.8360 C   0  0  1  0  0  0  0  0  0  0  0  0
    5.7160    0.0658   -1.1201 C   0  0  0  0  0  0  0  0  0  0  0  0
    4.7201    0.7786   -0.1964 C   0  0  0  0  0  0  0  0  0  0  0  0
    3.4735   -0.1147   -0.2648 C   0  0  0  0  0  0  0  0  0  0  0  0
    4.0295   -1.4517   -0.5003 N   0  0  0  0  0  0  0  0  0  0  0  0
    3.4006   -2.6564   -0.3305 C   0  0  0  0  0  0  0  0  0  0  0  0
    4.0118   -3.7024   -0.5110 O   0  0  0  0  0  0  0  0  0  0  0  0
    1.9372   -2.6144    0.1011 C   0  0  0  0  0  0  0  0  0  0  0  0
    1.2467   -3.9881    0.0600 C   0  0  1  0  0  0  0  0  0  0  0  0
   -0.0744   -3.9954    0.8577 C   0  0  0  0  0  0  0  0  0  0  0  0
   -1.2121   -3.2391    0.1552 C   0  0  0  0  0  0  0  0  0  0  0  0
   -1.4393   -3.7663   -1.2681 C   0  0  0  0  0  0  0  0  0  0  0  0
   -0.1434   -3.7423   -2.0903 C   0  0  0  0  0  0  0  0  0  0  0  0
    0.9938   -4.4904   -1.3788 C   0  0  0  0  0  0  0  0  0  0  0  0
    4.9741   -2.3681   -2.8030 H   0  0  0  0  0  0  0  0  0  0  0  0
    6.0749   -1.7900    0.0044 H   0  0  0  0  0  0  0  0  0  0  0  0
    5.4818    0.2927   -2.1753 H   0  0  0  0  0  0  0  0  0  0  0  0
    6.7658    0.3394   -0.9470 H   0  0  0  0  0  0  0  0  0  0  0  0
    4.5124    1.8166   -0.4954 H   0  0  0  0  0  0  0  0  0  0  0  0
    5.1113    0.7982    0.8339 H   0  0  0  0  0  0  0  0  0  0  0  0
    2.8066    0.1911   -1.0927 H   0  0  0  0  0  0  0  0  0  0  0  0
    2.8826   -0.0779    0.6633 H   0  0  0  0  0  0  0  0  0  0  0  0
    1.4024   -1.8667   -0.5075 H   0  0  0  0  0  0  0  0  0  0  0  0
    1.9127   -2.2192    1.1340 H   0  0  0  0  0  0  0  0  0  0  0  0
    1.9456   -4.6929    0.5371 H   0  0  0  0  0  0  0  0  0  0  0  0
    0.0898   -3.5879    1.8707 H   0  0  0  0  0  0  0  0  0  0  0  0
   -0.3860   -5.0462    0.9976 H   0  0  0  0  0  0  0  0  0  0  0  0
   -0.9773   -2.1594    0.1122 H   0  0  0  0  0  0  0  0  0  0  0  0
   -2.1396   -3.3227    0.7469 H   0  0  0  0  0  0  0  0  0  0  0  0
   -2.2288   -3.1841   -1.7731 H   0  0  0  0  0  0  0  0  0  0  0  0
   -1.8102   -4.8067   -1.2109 H   0  0  0  0  0  0  0  0  0  0  0  0
    0.1492   -2.6921   -2.2759 H   0  0  0  0  0  0  0  0  0  0  0  0
   -0.3145   -4.1843   -3.0864 H   0  0  0  0  0  0  0  0  0  0  0  0
    1.9271   -4.4392   -1.9604 H   0  0  0  0  0  0  0  0  0  0  0  0
    0.7292   -5.5617   -1.3236 H   0  0  0  0  0  0  0  0  0  0  0  0
  1  2  2  0
  2  3  1  0
  2 17  1  0
  3  4  1  0
  3  7  1  0
  3 18  1  1
  4  5  1  0
  4 19  1  0
  4 20  1  0
  5  6  1  0
  5 21  1  0
  5 22  1  0
  6  7  1  0
  6 23  1  0
  6 24  1  0
  7  8  1  0
  8  9  2  0
  8 10  1  0
 10 11  1  0
 10 25  1  0
 10 26  1  0
 11 12  1  0
 11 16  1  0
 11 27  1  1
 12 13  1  0
 12 28  1  0
 12 29  1  0
 13 14  1  0
 13 30  1  0
 13 31  1  0
 14 15  1  0
 14 32  1  0
 14 33  1  0
 15 16  1  0
 15 34  1  0
 15 35  1  0
 16 36  1  0
 16 37  1  0
M  END

