
     RDKit          3D

 38 39  0  0  0  0  0  0  0  0999 V2000
    0.6885    0.4432   -0.1649 C   0  0  0  0  0  0  0  0  0  0  0  0
    2.1647    0.1196    0.0178 C   0  0  1  0  0  0  0  0  0  0  0  0
    2.5092   -0.0804    1.4887 C   0  0  0  0  0  0  0  0  0  0  0  0
    2.8926   -0.7969   -0.9835 C   0  0  1  0  0  0  0  0  0  0  0  0
    2.2146   -1.4579   -2.1429 C   0  0  0  0  0  0  0  0  0  0  0  0
    1.2891   -0.9586   -2.7805 O   0  0  0  0  0  0  0  0  0  0  0  0
    2.6746   -2.7062   -2.4917 N   0  0  0  0  0  0  0  0  0  0  0  0
    3.7635   -3.4822   -1.8849 C   0  0  0  0  0  0  0  0  0  0  0  0
    3.9152   -4.6921   -2.8171 C   0  0  0  0  0  0  0  0  0  0  0  0
    2.5135   -4.8705   -3.4098 C   0  0  2  0  0  0  0  0  0  0  0  0
    2.4778   -5.6944   -4.6906 C   0  0  0  0  0  0  0  0  0  0  0  0
    3.4334   -6.2237   -5.1858 O   0  0  0  0  0  0  0  0  0  0  0  0
    1.2581   -5.8012   -5.2685 O   0  0  0  0  0  0  0  0  0  0  0  0
    2.0231   -3.4181   -3.5873 C   0  0  0  0  0  0  0  0  0  0  0  0
    3.1896    0.7139   -0.9268 C   0  0  1  0  0  0  0  0  0  0  0  0
    2.7347    1.6244   -2.0586 C   0  0  0  0  0  0  0  0  0  0  0  0
    4.5647    1.1167   -0.4084 C   0  0  0  0  0  0  0  0  0  0  0  0
    0.0708   -0.3027    0.3630 H   0  0  0  0  0  0  0  0  0  0  0  0
    0.3781    0.4392   -1.2143 H   0  0  0  0  0  0  0  0  0  0  0  0
    0.4628    1.4287    0.2770 H   0  0  0  0  0  0  0  0  0  0  0  0
    1.8637   -0.8595    1.9275 H   0  0  0  0  0  0  0  0  0  0  0  0
    2.3343    0.8489    2.0575 H   0  0  0  0  0  0  0  0  0  0  0  0
    3.5515   -0.3833    1.6572 H   0  0  0  0  0  0  0  0  0  0  0  0
    3.6704   -1.4035   -0.5160 H   0  0  0  0  0  0  0  0  0  0  0  0
    3.5013   -3.7983   -0.8583 H   0  0  0  0  0  0  0  0  0  0  0  0
    4.6952   -2.8984   -1.8228 H   0  0  0  0  0  0  0  0  0  0  0  0
    4.2801   -5.5887   -2.2970 H   0  0  0  0  0  0  0  0  0  0  0  0
    4.6222   -4.4780   -3.6331 H   0  0  0  0  0  0  0  0  0  0  0  0
    1.8596   -5.3735   -2.6725 H   0  0  0  0  0  0  0  0  0  0  0  0
    0.5901   -5.3229   -4.7563 H   0  0  0  0  0  0  0  0  0  0  0  0
    0.9308   -3.2938   -3.5196 H   0  0  0  0  0  0  0  0  0  0  0  0
    2.3284   -3.0067   -4.5681 H   0  0  0  0  0  0  0  0  0  0  0  0
    1.8280    1.2654   -2.5559 H   0  0  0  0  0  0  0  0  0  0  0  0
    3.5241    1.6962   -2.8254 H   0  0  0  0  0  0  0  0  0  0  0  0
    2.5563    2.6429   -1.6737 H   0  0  0  0  0  0  0  0  0  0  0  0
    4.9575    0.4399    0.3623 H   0  0  0  0  0  0  0  0  0  0  0  0
    4.5342    2.1324    0.0217 H   0  0  0  0  0  0  0  0  0  0  0  0
    5.2930    1.1332   -1.2362 H   0  0  0  0  0  0  0  0  0  0  0  0
  2  1  1  1
  1 18  1  0
  1 19  1  0
  1 20  1  0
  2  3  1  0
  2  4  1  0
  2 15  1  0
  3 21  1  0
  3 22  1  0
  3 23  1  0
  4  5  1  0
  4 15  1  0
  4 24  1  1
  5  6  2  0
  5  7  1  0
  7  8  1  0
  7 14  1  0
  8  9  1  0
  8 25  1  0
  8 26  1  0
  9 10  1  0
  9 27  1  0
  9 28  1  0
 10 11  1  0
 10 14  1  0
 10 29  1  1
 11 12  2  0
 11 13  1  0
 13 30  1  0
 14 31  1  0
 14 32  1  0
 15 16  1  6
 15 17  1  0
 16 33  1  0
 16 34  1  0
 16 35  1  0
 17 36  1  0
 17 37  1  0
 17 38  1  0
M  END

