
     RDKit          3D

 54 55  0  0  0  0  0  0  0  0999 V2000
    4.3009   -1.8138    1.9237 C   0  0  0  0  0  0  0  0  0  0  0  0
    5.9305   -1.5240    2.6940 S   0  0  0  0  0  0  0  0  0  0  0  0
    7.0391   -1.9053    1.2888 C   0  0  0  0  0  0  0  0  0  0  0  0
    7.2259   -0.7564    0.2903 C   0  0  0  0  0  0  0  0  0  0  0  0
    8.1069   -1.1274   -0.9080 C   0  0  0  0  0  0  0  0  0  0  0  0
    7.4225   -2.0689   -1.7796 N   0  0  0  0  0  0  0  0  0  0  0  0
    7.9717   -2.7687   -2.8254 C   0  0  0  0  0  0  0  0  0  0  0  0
    7.3213   -3.5075   -3.6691 N   0  0  0  0  0  0  0  0  0  0  0  0
    5.8733   -3.5088   -3.6186 C   0  0  0  0  0  0  0  0  0  0  0  0
    5.3111   -4.2380   -2.4290 C   0  0  0  0  0  0  0  0  0  0  0  0
    4.9111   -3.6559   -1.3203 N   0  0  0  0  0  0  0  0  0  0  0  0
    4.5807   -4.6316   -0.4191 N   0  0  0  0  0  0  0  0  0  0  0  0
    4.7915   -5.7938   -0.9943 C   0  0  0  0  0  0  0  0  0  0  0  0
    4.5533   -7.1246   -0.3664 C   0  0  0  0  0  0  0  0  0  0  0  0
    5.2659   -5.5991   -2.2735 N   0  0  0  0  0  0  0  0  0  0  0  0
    5.6769   -6.5930   -3.2502 C   0  0  0  0  0  0  0  0  0  0  0  0
    9.3469   -2.6102   -2.9838 N   0  0  0  0  0  0  0  0  0  0  0  0
   10.0976   -3.3780   -3.9699 C   0  0  0  0  0  0  0  0  0  0  0  0
   10.5392   -2.5097   -5.1845 C   0  0  1  0  0  0  0  0  0  0  0  0
    9.3422   -2.0904   -6.0531 C   0  0  0  0  0  0  0  0  0  0  0  0
   11.1969   -1.3504   -4.6868 O   0  0  0  0  0  0  0  0  0  0  0  0
   11.5724   -3.2692   -5.9904 C   0  0  0  0  0  0  0  0  0  0  0  0
   12.9129   -2.9934   -6.1035 C   0  0  0  0  0  0  0  0  0  0  0  0
   13.6133   -3.9330   -6.9226 C   0  0  0  0  0  0  0  0  0  0  0  0
   12.7977   -4.9157   -7.4197 C   0  0  0  0  0  0  0  0  0  0  0  0
   11.1591   -4.7020   -6.8981 S   0  0  0  0  0  0  0  0  0  0  0  0
    3.5558   -1.6813    2.7219 H   0  0  0  0  0  0  0  0  0  0  0  0
    4.2298   -2.8350    1.5196 H   0  0  0  0  0  0  0  0  0  0  0  0
    4.0884   -1.0890    1.1234 H   0  0  0  0  0  0  0  0  0  0  0  0
    6.6601   -2.8128    0.7948 H   0  0  0  0  0  0  0  0  0  0  0  0
    8.0083   -2.1658    1.7458 H   0  0  0  0  0  0  0  0  0  0  0  0
    7.6775    0.1036    0.8097 H   0  0  0  0  0  0  0  0  0  0  0  0
    6.2454   -0.4121   -0.0808 H   0  0  0  0  0  0  0  0  0  0  0  0
    9.0534   -1.5542   -0.5182 H   0  0  0  0  0  0  0  0  0  0  0  0
    8.3842   -0.2126   -1.4651 H   0  0  0  0  0  0  0  0  0  0  0  0
    6.4694   -2.3209   -1.5131 H   0  0  0  0  0  0  0  0  0  0  0  0
    5.4925   -3.9696   -4.5456 H   0  0  0  0  0  0  0  0  0  0  0  0
    5.4459   -2.4875   -3.5768 H   0  0  0  0  0  0  0  0  0  0  0  0
    4.1826   -6.9605    0.6535 H   0  0  0  0  0  0  0  0  0  0  0  0
    5.4766   -7.7250   -0.3074 H   0  0  0  0  0  0  0  0  0  0  0  0
    3.8039   -7.7143   -0.9199 H   0  0  0  0  0  0  0  0  0  0  0  0
    5.9555   -7.5226   -2.7364 H   0  0  0  0  0  0  0  0  0  0  0  0
    6.5530   -6.2166   -3.7962 H   0  0  0  0  0  0  0  0  0  0  0  0
    4.8686   -6.8154   -3.9656 H   0  0  0  0  0  0  0  0  0  0  0  0
    9.8507   -2.4048   -2.1299 H   0  0  0  0  0  0  0  0  0  0  0  0
    9.4911   -4.2297   -4.3068 H   0  0  0  0  0  0  0  0  0  0  0  0
   11.0112   -3.7603   -3.4904 H   0  0  0  0  0  0  0  0  0  0  0  0
    8.6093   -1.5365   -5.4471 H   0  0  0  0  0  0  0  0  0  0  0  0
    8.8235   -2.9607   -6.4813 H   0  0  0  0  0  0  0  0  0  0  0  0
    9.6951   -1.4415   -6.8680 H   0  0  0  0  0  0  0  0  0  0  0  0
   10.5745   -0.9573   -4.0566 H   0  0  0  0  0  0  0  0  0  0  0  0
   13.3662   -2.1336   -5.6118 H   0  0  0  0  0  0  0  0  0  0  0  0
   14.6824   -3.8772   -7.1357 H   0  0  0  0  0  0  0  0  0  0  0  0
   13.0589   -5.7516   -8.0672 H   0  0  0  0  0  0  0  0  0  0  0  0
  1  2  1  0
  1 27  1  0
  1 28  1  0
  1 29  1  0
  2  3  1  0
  3  4  1  0
  3 30  1  0
  3 31  1  0
  4  5  1  0
  4 32  1  0
  4 33  1  0
  5  6  1  0
  5 34  1  0
  5 35  1  0
  6  7  1  0
  6 36  1  0
  7  8  2  0
  7 17  1  0
  8  9  1  0
  9 10  1  0
  9 37  1  0
  9 38  1  0
 10 11  2  0
 10 15  1  0
 11 12  1  0
 12 13  2  0
 13 14  1  0
 13 15  1  0
 14 39  1  0
 14 40  1  0
 14 41  1  0
 15 16  1  0
 16 42  1  0
 16 43  1  0
 16 44  1  0
 17 18  1  0
 17 45  1  0
 18 19  1  0
 18 46  1  0
 18 47  1  0
 19 20  1  0
 19 21  1  1
 19 22  1  0
 20 48  1  0
 20 49  1  0
 20 50  1  0
 21 51  1  0
 22 23  2  0
 22 26  1  0
 23 24  1  0
 23 52  1  0
 24 25  2  0
 24 53  1  0
 25 26  1  0
 25 54  1  0
M  END

