
     RDKit          3D

 49 50  0  0  0  0  0  0  0  0999 V2000
    5.3243   -0.8861   -1.6023 C   0  0  0  0  0  0  0  0  0  0  0  0
    4.4935   -0.3741   -0.4456 C   0  0  0  0  0  0  0  0  0  0  0  0
    4.9020    0.7835    0.2395 C   0  0  0  0  0  0  0  0  0  0  0  0
    4.1804    1.2868    1.3229 C   0  0  0  0  0  0  0  0  0  0  0  0
    3.0230    0.6292    1.7483 C   0  0  0  0  0  0  0  0  0  0  0  0
    2.6011   -0.5200    1.0797 C   0  0  0  0  0  0  0  0  0  0  0  0
    3.3183   -1.0291   -0.0146 C   0  0  0  0  0  0  0  0  0  0  0  0
    2.8103   -2.2997   -0.6821 C   0  0  0  0  0  0  0  0  0  0  0  0
    1.3825   -2.2355   -1.0025 N   0  0  0  0  0  0  0  0  0  0  0  0
    0.9337   -1.3500   -2.0525 C   0  0  0  0  0  0  0  0  0  0  0  0
    1.2757   -1.8569   -3.4673 C   0  0  0  0  0  0  0  0  0  0  0  0
    1.7417   -2.9796   -3.6276 O   0  0  0  0  0  0  0  0  0  0  0  0
    1.0163   -1.0104   -4.5091 N   0  0  0  0  0  0  0  0  0  0  0  0
    1.2925   -1.4582   -5.8765 C   0  0  0  0  0  0  0  0  0  0  0  0
    2.5617   -0.8566   -6.4890 C   0  0  0  0  0  0  0  0  0  0  0  0
    2.6612    0.6773   -6.4635 C   0  0  0  0  0  0  0  0  0  0  0  0
    2.8157    1.2769   -5.0536 C   0  0  0  0  0  0  0  0  0  0  0  0
    1.5247    1.4643   -4.2342 C   0  0  0  0  0  0  0  0  0  0  0  0
    0.4768    0.3410   -4.3660 C   0  0  0  0  0  0  0  0  0  0  0  0
    0.3397   -3.3958   -0.3868 S   0  0  1  0  0  0  0  0  0  0  0  0
    0.6160   -4.9073   -1.3240 C   0  0  0  0  0  0  0  0  0  0  0  0
    0.7623   -3.6635    0.9917 O   0  0  0  0  0  0  0  0  0  0  0  0
   -1.0185   -2.9345   -0.6908 O   0  0  0  0  0  0  0  0  0  0  0  0
    6.1664   -0.2089   -1.8066 H   0  0  0  0  0  0  0  0  0  0  0  0
    4.7375   -0.9754   -2.5317 H   0  0  0  0  0  0  0  0  0  0  0  0
    5.7472   -1.8840   -1.3981 H   0  0  0  0  0  0  0  0  0  0  0  0
    5.8096    1.2986   -0.0888 H   0  0  0  0  0  0  0  0  0  0  0  0
    4.5239    2.1896    1.8349 H   0  0  0  0  0  0  0  0  0  0  0  0
    2.4523    1.0070    2.6005 H   0  0  0  0  0  0  0  0  0  0  0  0
    1.7018   -1.0497    1.4039 H   0  0  0  0  0  0  0  0  0  0  0  0
    2.9507   -3.1416    0.0127 H   0  0  0  0  0  0  0  0  0  0  0  0
    3.3761   -2.5351   -1.5953 H   0  0  0  0  0  0  0  0  0  0  0  0
    1.3783   -0.3566   -1.8772 H   0  0  0  0  0  0  0  0  0  0  0  0
   -0.1561   -1.2294   -1.9606 H   0  0  0  0  0  0  0  0  0  0  0  0
    0.4166   -1.1965   -6.4967 H   0  0  0  0  0  0  0  0  0  0  0  0
    1.3755   -2.5522   -5.8505 H   0  0  0  0  0  0  0  0  0  0  0  0
    2.6257   -1.2118   -7.5325 H   0  0  0  0  0  0  0  0  0  0  0  0
    3.4384   -1.2779   -5.9663 H   0  0  0  0  0  0  0  0  0  0  0  0
    1.7935    1.1279   -6.9812 H   0  0  0  0  0  0  0  0  0  0  0  0
    3.5423    0.9659   -7.0607 H   0  0  0  0  0  0  0  0  0  0  0  0
    3.3093    2.2601   -5.1260 H   0  0  0  0  0  0  0  0  0  0  0  0
    3.5161    0.6385   -4.4868 H   0  0  0  0  0  0  0  0  0  0  0  0
    1.0258    2.4038   -4.5296 H   0  0  0  0  0  0  0  0  0  0  0  0
    1.8040    1.5968   -3.1753 H   0  0  0  0  0  0  0  0  0  0  0  0
   -0.1370    0.5221   -5.2624 H   0  0  0  0  0  0  0  0  0  0  0  0
   -0.2227    0.3821   -3.5187 H   0  0  0  0  0  0  0  0  0  0  0  0
    1.6383   -5.2582   -1.1345 H   0  0  0  0  0  0  0  0  0  0  0  0
    0.4771   -4.6878   -2.3886 H   0  0  0  0  0  0  0  0  0  0  0  0
   -0.1174   -5.6349   -0.9502 H   0  0  0  0  0  0  0  0  0  0  0  0
  1  2  1  0
  1 24  1  0
  1 25  1  0
  1 26  1  0
  2  3  2  0
  2  7  1  0
  3  4  1  0
  3 27  1  0
  4  5  2  0
  4 28  1  0
  5  6  1  0
  5 29  1  0
  6  7  2  0
  6 30  1  0
  7  8  1  0
  8  9  1  0
  8 31  1  0
  8 32  1  0
  9 10  1  0
 20  9  1  6
 10 11  1  0
 10 33  1  0
 10 34  1  0
 11 12  2  0
 11 13  1  0
 13 14  1  0
 13 19  1  0
 14 15  1  0
 14 35  1  0
 14 36  1  0
 15 16  1  0
 15 37  1  0
 15 38  1  0
 16 17  1  0
 16 39  1  0
 16 40  1  0
 17 18  1  0
 17 41  1  0
 17 42  1  0
 18 19  1  0
 18 43  1  0
 18 44  1  0
 19 45  1  0
 19 46  1  0
 20 21  1  0
 20 22  2  0
 20 23  2  0
 21 47  1  0
 21 48  1  0
 21 49  1  0
M  END

