
     RDKit          3D

 45 47  0  0  0  0  0  0  0  0999 V2000
    5.1529   -1.7038    4.3533 C   0  0  0  0  0  0  0  0  0  0  0  0
    5.8401   -1.6711    3.0091 C   0  0  0  0  0  0  0  0  0  0  0  0
    7.1547   -1.2000    2.8745 C   0  0  0  0  0  0  0  0  0  0  0  0
    7.7715   -1.1611    1.6214 C   0  0  0  0  0  0  0  0  0  0  0  0
    7.0853   -1.5953    0.4857 C   0  0  0  0  0  0  0  0  0  0  0  0
    5.7685   -2.0670    0.5929 C   0  0  0  0  0  0  0  0  0  0  0  0
    5.0131   -2.4804   -0.6584 C   0  0  0  0  0  0  0  0  0  0  0  0
    4.1132   -3.6169   -0.4728 N   0  0  0  0  0  0  0  0  0  0  0  0
    2.7193   -3.6196   -0.4558 C   0  0  0  0  0  0  0  0  0  0  0  0
    1.9035   -2.4027   -0.7025 C   0  0  0  0  0  0  0  0  0  0  0  0
    2.3387   -1.3949   -1.2552 O   0  0  0  0  0  0  0  0  0  0  0  0
    0.6065   -2.4823   -0.2715 N   0  0  0  0  0  0  0  0  0  0  0  0
   -0.3470   -1.4100   -0.4978 C   0  0  0  0  0  0  0  0  0  0  0  0
   -1.1491   -1.5266   -1.8094 C   0  0  1  0  0  0  0  0  0  0  0  0
   -1.9711   -2.8181   -1.8676 C   0  0  0  0  0  0  0  0  0  0  0  0
   -2.0309   -0.2870   -1.9940 C   0  0  0  0  0  0  0  0  0  0  0  0
    2.2663   -4.9253   -0.2369 C   0  0  0  0  0  0  0  0  0  0  0  0
    3.4189   -5.7316   -0.1080 C   0  0  0  0  0  0  0  0  0  0  0  0
    3.9046   -7.3847    0.1470 S   0  0  0  0  0  0  0  0  0  0  0  0
    5.5930   -6.9194    0.0677 C   0  0  0  0  0  0  0  0  0  0  0  0
    5.7929   -5.5793   -0.1439 C   0  0  0  0  0  0  0  0  0  0  0  0
    4.5401   -4.9015   -0.2508 C   0  0  0  0  0  0  0  0  0  0  0  0
    5.1643   -2.0997    1.8557 C   0  0  0  0  0  0  0  0  0  0  0  0
    5.8668   -1.5572    5.1774 H   0  0  0  0  0  0  0  0  0  0  0  0
    4.6351   -2.6625    4.5174 H   0  0  0  0  0  0  0  0  0  0  0  0
    4.3907   -0.9090    4.4298 H   0  0  0  0  0  0  0  0  0  0  0  0
    7.7020   -0.8658    3.7605 H   0  0  0  0  0  0  0  0  0  0  0  0
    8.7988   -0.7980    1.5311 H   0  0  0  0  0  0  0  0  0  0  0  0
    7.5759   -1.5697   -0.4919 H   0  0  0  0  0  0  0  0  0  0  0  0
    5.7305   -2.7389   -1.4542 H   0  0  0  0  0  0  0  0  0  0  0  0
    4.3965   -1.6518   -1.0323 H   0  0  0  0  0  0  0  0  0  0  0  0
    0.3228   -3.2908    0.2650 H   0  0  0  0  0  0  0  0  0  0  0  0
    0.2185   -0.4663   -0.5045 H   0  0  0  0  0  0  0  0  0  0  0  0
   -1.0416   -1.3795    0.3600 H   0  0  0  0  0  0  0  0  0  0  0  0
   -0.4089   -1.5478   -2.6291 H   0  0  0  0  0  0  0  0  0  0  0  0
   -2.7321   -2.8419   -1.0671 H   0  0  0  0  0  0  0  0  0  0  0  0
   -1.3322   -3.7085   -1.7557 H   0  0  0  0  0  0  0  0  0  0  0  0
   -2.5006   -2.9114   -2.8293 H   0  0  0  0  0  0  0  0  0  0  0  0
   -2.7791   -0.2058   -1.1859 H   0  0  0  0  0  0  0  0  0  0  0  0
   -2.5796   -0.3273   -2.9484 H   0  0  0  0  0  0  0  0  0  0  0  0
   -1.4330    0.6387   -1.9902 H   0  0  0  0  0  0  0  0  0  0  0  0
    1.2272   -5.2466   -0.2218 H   0  0  0  0  0  0  0  0  0  0  0  0
    6.3562   -7.6870    0.1915 H   0  0  0  0  0  0  0  0  0  0  0  0
    6.7767   -5.1154   -0.2081 H   0  0  0  0  0  0  0  0  0  0  0  0
    4.1414   -2.4763    1.9479 H   0  0  0  0  0  0  0  0  0  0  0  0
  1  2  1  0
  1 24  1  0
  1 25  1  0
  1 26  1  0
  2  3  2  0
  2 23  1  0
  3  4  1  0
  3 27  1  0
  4  5  2  0
  4 28  1  0
  5  6  1  0
  5 29  1  0
  6  7  1  0
  6 23  2  0
  7  8  1  0
  7 30  1  0
  7 31  1  0
  8  9  1  0
  8 22  1  0
  9 10  1  0
  9 17  2  0
 10 11  2  0
 10 12  1  0
 12 13  1  0
 12 32  1  0
 13 14  1  0
 13 33  1  0
 13 34  1  0
 14 15  1  0
 14 16  1  0
 14 35  1  6
 15 36  1  0
 15 37  1  0
 15 38  1  0
 16 39  1  0
 16 40  1  0
 16 41  1  0
 17 18  1  0
 17 42  1  0
 18 19  1  0
 18 22  2  0
 19 20  1  0
 20 21  2  0
 20 43  1  0
 21 22  1  0
 21 44  1  0
 23 45  1  0
M  END

