
     RDKit          3D

 38 39  0  0  0  0  0  0  0  0999 V2000
    0.8302    0.0796    0.5159 O   0  0  0  0  0  0  0  0  0  0  0  0
    1.9540   -0.0019    0.0446 C   0  0  0  0  0  0  0  0  0  0  0  0
    2.3214    0.6982   -1.2720 C   0  0  0  0  0  0  0  0  0  0  0  0
    3.5257    0.1719   -1.8948 N   0  0  0  0  0  0  0  0  0  0  0  0
    4.2096    1.0409   -2.8408 C   0  0  1  0  0  0  0  0  0  0  0  0
    5.5356    0.4381   -3.3415 C   0  0  0  0  0  0  0  0  0  0  0  0
    5.8835    1.2090   -4.6392 C   0  0  0  0  0  0  0  0  0  0  0  0
    4.5978    1.9976   -5.0248 C   0  0  0  0  0  0  0  0  0  0  0  0
    3.4824    1.3988   -4.1555 C   0  0  0  0  0  0  0  0  0  0  0  0
    2.9861   -0.6608    0.6310 N   0  0  0  0  0  0  0  0  0  0  0  0
    2.8682   -1.3485    1.9060 C   0  0  1  0  0  0  0  0  0  0  0  0
    2.5129   -2.8416    1.7387 C   0  0  0  0  0  0  0  0  0  0  0  0
    3.6889   -3.6139    1.1265 C   0  0  0  0  0  0  0  0  0  0  0  0
    4.9818   -3.3158    1.8890 C   0  0  0  0  0  0  0  0  0  0  0  0
    5.2287   -1.9219    1.9827 O   0  0  0  0  0  0  0  0  0  0  0  0
    4.1954   -1.2329    2.6625 C   0  0  0  0  0  0  0  0  0  0  0  0
    2.4914    1.7599   -1.0202 H   0  0  0  0  0  0  0  0  0  0  0  0
    1.4115    0.6767   -1.9023 H   0  0  0  0  0  0  0  0  0  0  0  0
    3.3314   -0.7294   -2.3328 H   0  0  0  0  0  0  0  0  0  0  0  0
    4.4295    1.9847   -2.3063 H   0  0  0  0  0  0  0  0  0  0  0  0
    5.3690   -0.6313   -3.5619 H   0  0  0  0  0  0  0  0  0  0  0  0
    6.3251    0.4824   -2.5765 H   0  0  0  0  0  0  0  0  0  0  0  0
    6.1847    0.5156   -5.4397 H   0  0  0  0  0  0  0  0  0  0  0  0
    6.7331    1.8927   -4.4878 H   0  0  0  0  0  0  0  0  0  0  0  0
    4.3734    1.9486   -6.1013 H   0  0  0  0  0  0  0  0  0  0  0  0
    4.7222    3.0652   -4.7784 H   0  0  0  0  0  0  0  0  0  0  0  0
    3.0921    0.4678   -4.6081 H   0  0  0  0  0  0  0  0  0  0  0  0
    2.6269    2.0781   -4.0141 H   0  0  0  0  0  0  0  0  0  0  0  0
    3.8711   -0.6599    0.1275 H   0  0  0  0  0  0  0  0  0  0  0  0
    2.0657   -0.8458    2.4682 H   0  0  0  0  0  0  0  0  0  0  0  0
    1.6025   -2.9377    1.1271 H   0  0  0  0  0  0  0  0  0  0  0  0
    2.2740   -3.2557    2.7351 H   0  0  0  0  0  0  0  0  0  0  0  0
    3.8196   -3.3173    0.0715 H   0  0  0  0  0  0  0  0  0  0  0  0
    3.4946   -4.6998    1.1306 H   0  0  0  0  0  0  0  0  0  0  0  0
    5.8568   -3.7545    1.3851 H   0  0  0  0  0  0  0  0  0  0  0  0
    4.9271   -3.7542    2.9086 H   0  0  0  0  0  0  0  0  0  0  0  0
    4.5116   -0.1816    2.7396 H   0  0  0  0  0  0  0  0  0  0  0  0
    4.0711   -1.6346    3.6894 H   0  0  0  0  0  0  0  0  0  0  0  0
  1  2  2  0
  2  3  1  0
  2 10  1  0
  3  4  1  0
  3 17  1  0
  3 18  1  0
  4  5  1  0
  4 19  1  0
  5  6  1  0
  5  9  1  0
  5 20  1  1
  6  7  1  0
  6 21  1  0
  6 22  1  0
  7  8  1  0
  7 23  1  0
  7 24  1  0
  8  9  1  0
  8 25  1  0
  8 26  1  0
  9 27  1  0
  9 28  1  0
 10 11  1  0
 10 29  1  0
 11 12  1  0
 11 16  1  0
 11 30  1  1
 12 13  1  0
 12 31  1  0
 12 32  1  0
 13 14  1  0
 13 33  1  0
 13 34  1  0
 14 15  1  0
 14 35  1  0
 14 36  1  0
 15 16  1  0
 16 37  1  0
 16 38  1  0
M  END

