
     RDKit          3D

 36 36  0  0  0  0  0  0  0  0999 V2000
    1.1831   -0.0854    0.3057 C   0  0  0  0  0  0  0  0  0  0  0  0
    2.6868   -0.0106    0.1246 C   0  0  0  0  0  0  0  0  0  0  0  0
    3.3099   -0.8296    1.1074 O   0  0  0  0  0  0  0  0  0  0  0  0
    4.7289   -0.8368    1.0831 C   0  0  1  0  0  0  0  0  0  0  0  0
    5.0832   -0.7575    0.0357 H   0  0  0  0  0  0  0  0  0  0  0  0
    5.3341    0.2747    1.8887 C   0  0  0  0  0  0  0  0  0  0  0  0
    4.6674    1.0474    2.7569 C   0  0  0  0  0  0  0  0  0  0  0  0
    5.3814    2.0723    3.5476 C   0  0  0  0  0  0  0  0  0  0  0  0
    6.5923    2.2978    3.5047 O   0  0  0  0  0  0  0  0  0  0  0  0
    4.5953    2.8398    4.3582 N   0  0  0  0  0  0  0  0  0  0  0  0
    5.2583    3.6823    5.2337 O   0  0  0  0  0  0  0  0  0  0  0  0
    5.1459   -2.2637    1.5736 C   0  0  1  0  0  0  0  0  0  0  0  0
    4.8994   -2.3159    2.6511 H   0  0  0  0  0  0  0  0  0  0  0  0
    4.4091   -3.2081    0.8368 O   0  0  0  0  0  0  0  0  0  0  0  0
    6.6266   -2.5357    1.3927 C   0  0  0  0  0  0  0  0  0  0  0  0
    7.0872   -3.1696    0.2324 C   0  0  0  0  0  0  0  0  0  0  0  0
    8.4508   -3.4063    0.0437 C   0  0  0  0  0  0  0  0  0  0  0  0
    9.1189   -4.3671   -1.7343 I   0  0  0  0  0  0  0  0  0  0  0  0
    9.3783   -3.0221    1.0142 C   0  0  0  0  0  0  0  0  0  0  0  0
    8.9262   -2.4035    2.1816 C   0  0  0  0  0  0  0  0  0  0  0  0
    7.5608   -2.1622    2.3793 C   0  0  0  0  0  0  0  0  0  0  0  0
    7.0831   -1.5718    3.5065 O   0  0  0  0  0  0  0  0  0  0  0  0
    0.6764    0.5292   -0.4545 H   0  0  0  0  0  0  0  0  0  0  0  0
    0.8875    0.2818    1.3007 H   0  0  0  0  0  0  0  0  0  0  0  0
    0.8263   -1.1224    0.2045 H   0  0  0  0  0  0  0  0  0  0  0  0
    3.0395    1.0332    0.2224 H   0  0  0  0  0  0  0  0  0  0  0  0
    2.9771   -0.3599   -0.8861 H   0  0  0  0  0  0  0  0  0  0  0  0
    6.4088    0.4441    1.7767 H   0  0  0  0  0  0  0  0  0  0  0  0
    3.5916    0.9167    2.9066 H   0  0  0  0  0  0  0  0  0  0  0  0
    3.7038    2.5244    4.7254 H   0  0  0  0  0  0  0  0  0  0  0  0
    6.1873    3.5596    4.9301 H   0  0  0  0  0  0  0  0  0  0  0  0
    3.5035   -2.8603    0.8175 H   0  0  0  0  0  0  0  0  0  0  0  0
    6.3498   -3.4837   -0.5061 H   0  0  0  0  0  0  0  0  0  0  0  0
   10.4452   -3.2035    0.8749 H   0  0  0  0  0  0  0  0  0  0  0  0
    9.6440   -2.1078    2.9531 H   0  0  0  0  0  0  0  0  0  0  0  0
    7.8132   -1.2536    4.0539 H   0  0  0  0  0  0  0  0  0  0  0  0
  1  2  1  0
  1 23  1  0
  1 24  1  0
  1 25  1  0
  2  3  1  0
  2 26  1  0
  2 27  1  0
  3  4  1  0
  4  5  1  6
  4  6  1  0
  4 12  1  0
  6  7  2  0
  6 28  1  0
  7  8  1  0
  7 29  1  0
  8  9  2  0
  8 10  1  0
 10 11  1  0
 10 30  1  0
 11 31  1  0
 12 13  1  1
 12 14  1  0
 12 15  1  0
 14 32  1  0
 15 16  2  0
 15 21  1  0
 16 17  1  0
 16 33  1  0
 17 18  1  0
 17 19  2  0
 19 20  1  0
 19 34  1  0
 20 21  2  0
 20 35  1  0
 21 22  1  0
 22 36  1  0
M  END

