
     RDKit          3D

 67 71  0  0  0  0  0  0  0  0999 V2000
    2.2709    1.0717    2.7816 C   0  0  0  0  0  0  0  0  0  0  0  0
    3.6306    1.3435    2.1348 C   0  0  0  0  0  0  0  0  0  0  0  0
    3.5508    1.4391    0.6072 C   0  0  0  0  0  0  0  0  0  0  0  0
    4.8786    1.7680   -0.1229 C   0  0  2  0  0  0  0  0  0  0  0  0
    4.6238    1.8079   -1.1969 H   0  0  0  0  0  0  0  0  0  0  0  0
    5.9573    0.7009    0.0760 C   0  0  0  0  0  0  0  0  0  0  0  0
    5.3502    3.1745    0.2144 C   0  0  0  0  0  0  0  0  0  0  0  0
    4.5521    4.1728   -0.2138 N   0  0  0  0  0  0  0  0  0  0  0  0
    4.8548    5.4482    0.0354 C   0  0  0  0  0  0  0  0  0  0  0  0
    3.9549    6.4064   -0.3907 N   0  0  0  0  0  0  0  0  0  0  0  0
    3.5918    7.5364    0.4656 C   0  0  0  0  0  0  0  0  0  0  0  0
    3.1426    8.7314   -0.3709 C   0  0  0  0  0  0  0  0  0  0  0  0
    2.0826    8.3418   -1.2921 N   0  0  0  0  0  0  0  0  0  0  0  0
    0.9195    9.0701   -1.3212 C   0  0  0  0  0  0  0  0  0  0  0  0
    0.6876    9.9757   -0.5360 O   0  0  0  0  0  0  0  0  0  0  0  0
   -0.1256    8.6974   -2.3531 C   0  0  0  0  0  0  0  0  0  0  0  0
   -1.3572    8.1996   -1.8984 C   0  0  0  0  0  0  0  0  0  0  0  0
   -2.3972    7.9238   -2.7862 C   0  0  0  0  0  0  0  0  0  0  0  0
   -2.2281    8.1698   -4.1523 C   0  0  0  0  0  0  0  0  0  0  0  0
   -1.0230    8.6919   -4.6249 C   0  0  0  0  0  0  0  0  0  0  0  0
    0.0161    8.9526   -3.7262 C   0  0  0  0  0  0  0  0  0  0  0  0
    1.5082    9.6319   -4.3518 Cl  0  0  0  0  0  0  0  0  0  0  0  0
    2.3977    7.1841   -2.1177 C   0  0  0  0  0  0  0  0  0  0  0  0
    2.8507    6.0007   -1.2579 C   0  0  0  0  0  0  0  0  0  0  0  0
    6.0915    5.7458    0.6890 C   0  0  0  0  0  0  0  0  0  0  0  0
    6.9560    6.8578    0.9976 C   0  0  0  0  0  0  0  0  0  0  0  0
    6.8279    8.3231    0.7062 C   0  0  0  0  0  0  0  0  0  0  0  0
    8.0550    6.4227    1.5797 N   0  0  0  0  0  0  0  0  0  0  0  0
    7.9882    5.0671    1.6753 N   0  0  0  0  0  0  0  0  0  0  0  0
    9.0730    4.3601    2.2677 C   0  0  0  0  0  0  0  0  0  0  0  0
   10.1813    5.0878    2.7330 C   0  0  0  0  0  0  0  0  0  0  0  0
   11.2569    4.4260    3.3232 C   0  0  0  0  0  0  0  0  0  0  0  0
   11.2217    3.0389    3.4465 C   0  0  0  0  0  0  0  0  0  0  0  0
   12.2575    2.4018    4.0146 F   0  0  0  0  0  0  0  0  0  0  0  0
   10.1316    2.3034    2.9911 C   0  0  0  0  0  0  0  0  0  0  0  0
    9.0518    2.9622    2.3999 C   0  0  0  0  0  0  0  0  0  0  0  0
    6.8235    4.6063    1.1102 C   0  0  0  0  0  0  0  0  0  0  0  0
    6.4703    3.3298    0.9123 N   0  0  0  0  0  0  0  0  0  0  0  0
    2.3503    1.0047    3.8785 H   0  0  0  0  0  0  0  0  0  0  0  0
    1.8373    0.1233    2.4215 H   0  0  0  0  0  0  0  0  0  0  0  0
    1.5480    1.8716    2.5481 H   0  0  0  0  0  0  0  0  0  0  0  0
    4.3363    0.5470    2.4265 H   0  0  0  0  0  0  0  0  0  0  0  0
    4.0505    2.2797    2.5436 H   0  0  0  0  0  0  0  0  0  0  0  0
    2.8143    2.2121    0.3318 H   0  0  0  0  0  0  0  0  0  0  0  0
    3.1662    0.4851    0.2030 H   0  0  0  0  0  0  0  0  0  0  0  0
    6.8547    0.9259   -0.5195 H   0  0  0  0  0  0  0  0  0  0  0  0
    5.5767   -0.2852   -0.2351 H   0  0  0  0  0  0  0  0  0  0  0  0
    6.2757    0.6290    1.1259 H   0  0  0  0  0  0  0  0  0  0  0  0
    4.4333    7.8151    1.1048 H   0  0  0  0  0  0  0  0  0  0  0  0
    2.7598    7.2332    1.1335 H   0  0  0  0  0  0  0  0  0  0  0  0
    4.0006    9.1256   -0.9472 H   0  0  0  0  0  0  0  0  0  0  0  0
    2.7527    9.5327    0.2691 H   0  0  0  0  0  0  0  0  0  0  0  0
   -1.4906    8.0359   -0.8265 H   0  0  0  0  0  0  0  0  0  0  0  0
   -3.3432    7.5268   -2.4110 H   0  0  0  0  0  0  0  0  0  0  0  0
   -3.0388    7.9643   -4.8555 H   0  0  0  0  0  0  0  0  0  0  0  0
   -0.8794    8.9069   -5.6850 H   0  0  0  0  0  0  0  0  0  0  0  0
    3.1980    7.4454   -2.8337 H   0  0  0  0  0  0  0  0  0  0  0  0
    1.5135    6.8909   -2.6970 H   0  0  0  0  0  0  0  0  0  0  0  0
    3.1830    5.1725   -1.8941 H   0  0  0  0  0  0  0  0  0  0  0  0
    1.9987    5.6274   -0.6557 H   0  0  0  0  0  0  0  0  0  0  0  0
    6.4017    8.4992   -0.2927 H   0  0  0  0  0  0  0  0  0  0  0  0
    7.8247    8.7826    0.7511 H   0  0  0  0  0  0  0  0  0  0  0  0
    6.1925    8.8456    1.4407 H   0  0  0  0  0  0  0  0  0  0  0  0
   10.1847    6.1711    2.6262 H   0  0  0  0  0  0  0  0  0  0  0  0
   12.1254    4.9765    3.6900 H   0  0  0  0  0  0  0  0  0  0  0  0
   10.1333    1.2172    3.1015 H   0  0  0  0  0  0  0  0  0  0  0  0
    8.1946    2.4018    2.0334 H   0  0  0  0  0  0  0  0  0  0  0  0
  1  2  1  0
  1 39  1  0
  1 40  1  0
  1 41  1  0
  2  3  1  0
  2 42  1  0
  2 43  1  0
  3  4  1  0
  3 44  1  0
  3 45  1  0
  4  5  1  6
  4  6  1  0
  4  7  1  0
  6 46  1  0
  6 47  1  0
  6 48  1  0
  7  8  2  0
  7 38  1  0
  8  9  1  0
  9 10  1  0
  9 25  2  0
 10 11  1  0
 10 24  1  0
 11 12  1  0
 11 49  1  0
 11 50  1  0
 12 13  1  0
 12 51  1  0
 12 52  1  0
 13 14  1  0
 13 23  1  0
 14 15  2  0
 14 16  1  0
 16 17  2  0
 16 21  1  0
 17 18  1  0
 17 53  1  0
 18 19  2  0
 18 54  1  0
 19 20  1  0
 19 55  1  0
 20 21  2  0
 20 56  1  0
 21 22  1  0
 23 24  1  0
 23 57  1  0
 23 58  1  0
 24 59  1  0
 24 60  1  0
 25 26  1  0
 25 37  1  0
 26 27  1  0
 26 28  2  0
 27 61  1  0
 27 62  1  0
 27 63  1  0
 28 29  1  0
 29 30  1  0
 29 37  1  0
 30 31  2  0
 30 36  1  0
 31 32  1  0
 31 64  1  0
 32 33  2  0
 32 65  1  0
 33 34  1  0
 33 35  1  0
 35 36  2  0
 35 66  1  0
 36 67  1  0
 37 38  2  0
M  END

