
     RDKit          3D

 31 31  0  0  0  0  0  0  0  0999 V2000
    4.7448   -1.1598    2.4668 N   0  0  0  0  0  0  0  0  0  0  0  0
    4.2981   -0.6613    1.5210 C   0  0  0  0  0  0  0  0  0  0  0  0
    3.7696   -0.0466    0.2992 C   0  0  0  0  0  0  0  0  0  0  0  0
    4.2031   -0.7721   -0.9888 C   0  0  0  0  0  0  0  0  0  0  0  0
    5.7196   -0.8163   -1.1713 C   0  0  0  0  0  0  0  0  0  0  0  0
    6.0992   -1.6125   -2.7671 S   0  0  1  0  0  0  0  0  0  0  0  0
    5.5983   -2.9937   -2.7037 O   0  0  0  0  0  0  0  0  0  0  0  0
    5.6511   -0.6995   -3.8302 O   0  0  0  0  0  0  0  0  0  0  0  0
    7.9384   -1.6757   -2.8072 C   0  0  0  0  0  0  0  0  0  0  0  0
    8.3862   -2.3122   -4.0908 C   0  0  0  0  0  0  0  0  0  0  0  0
    8.5988   -1.5306   -5.2364 C   0  0  0  0  0  0  0  0  0  0  0  0
    8.9736   -2.1256   -6.4407 C   0  0  0  0  0  0  0  0  0  0  0  0
    9.1317   -3.5146   -6.5197 C   0  0  0  0  0  0  0  0  0  0  0  0
    9.4933   -4.1648   -7.8340 C   0  0  1  0  0  0  0  0  0  0  0  0
   10.2505   -3.3263   -8.5938 F   0  0  0  0  0  0  0  0  0  0  0  0
   10.2068   -5.3055   -7.6264 F   0  0  0  0  0  0  0  0  0  0  0  0
    8.9099   -4.3015   -5.3828 C   0  0  0  0  0  0  0  0  0  0  0  0
    8.5352   -3.7046   -4.1795 C   0  0  0  0  0  0  0  0  0  0  0  0
    4.0926    1.0083    0.2788 H   0  0  0  0  0  0  0  0  0  0  0  0
    2.6693   -0.0363    0.3642 H   0  0  0  0  0  0  0  0  0  0  0  0
    3.7523   -0.2523   -1.8483 H   0  0  0  0  0  0  0  0  0  0  0  0
    3.8130   -1.8013   -0.9916 H   0  0  0  0  0  0  0  0  0  0  0  0
    6.2123   -1.4088   -0.3851 H   0  0  0  0  0  0  0  0  0  0  0  0
    6.1640    0.1903   -1.2102 H   0  0  0  0  0  0  0  0  0  0  0  0
    8.2383   -2.2534   -1.9214 H   0  0  0  0  0  0  0  0  0  0  0  0
    8.2783   -0.6347   -2.7107 H   0  0  0  0  0  0  0  0  0  0  0  0
    8.4661   -0.4475   -5.1857 H   0  0  0  0  0  0  0  0  0  0  0  0
    9.1518   -1.5090   -7.3235 H   0  0  0  0  0  0  0  0  0  0  0  0
    8.6029   -4.4371   -8.4312 H   0  0  0  0  0  0  0  0  0  0  0  0
    9.0385   -5.3840   -5.4394 H   0  0  0  0  0  0  0  0  0  0  0  0
    8.3522   -4.3262   -3.3002 H   0  0  0  0  0  0  0  0  0  0  0  0
  1  2  3  0
  2  3  1  0
  3  4  1  0
  3 19  1  0
  3 20  1  0
  4  5  1  0
  4 21  1  0
  4 22  1  0
  6  5  1  1
  5 23  1  0
  5 24  1  0
  6  7  2  0
  6  8  2  0
  6  9  1  0
  9 10  1  0
  9 25  1  0
  9 26  1  0
 10 11  2  0
 10 18  1  0
 11 12  1  0
 11 27  1  0
 12 13  2  0
 12 28  1  0
 13 14  1  0
 13 17  1  0
 14 15  1  0
 14 16  1  0
 14 29  1  6
 17 18  2  0
 17 30  1  0
 18 31  1  0
M  END

