
     RDKit          3D

 64 69  0  0  0  0  0  0  0  0999 V2000
    1.1409   -0.0041   -0.0996 C   0  0  0  0  0  0  0  0  0  0  0  0
    2.5101   -0.2140    0.1582 O   0  0  0  0  0  0  0  0  0  0  0  0
    3.1291    0.5286    1.1108 C   0  0  0  0  0  0  0  0  0  0  0  0
    2.4990    1.5101    1.8915 C   0  0  0  0  0  0  0  0  0  0  0  0
    3.2342    2.2226    2.8427 C   0  0  0  0  0  0  0  0  0  0  0  0
    4.6011    1.9808    3.0544 C   0  0  0  0  0  0  0  0  0  0  0  0
    5.3783    2.6944    4.0968 C   0  0  0  0  0  0  0  0  0  0  0  0
    6.2574    2.0045    4.9223 C   0  0  0  0  0  0  0  0  0  0  0  0
    7.0150    2.6430    5.9262 C   0  0  0  0  0  0  0  0  0  0  0  0
    6.9214    4.0061    6.1836 C   0  0  0  0  0  0  0  0  0  0  0  0
    7.7344    4.6220    7.2638 C   0  0  0  0  0  0  0  0  0  0  0  0
    9.0812    4.2371    7.4382 C   0  0  0  0  0  0  0  0  0  0  0  0
    9.8618    4.7546    8.4650 C   0  0  0  0  0  0  0  0  0  0  0  0
    9.3173    5.6822    9.3690 C   0  0  0  0  0  0  0  0  0  0  0  0
   10.1497    6.1342   10.3415 O   0  0  0  0  0  0  0  0  0  0  0  0
    9.6714    7.0710   11.2790 C   0  0  0  0  0  0  0  0  0  0  0  0
    7.9801    6.0791    9.2151 C   0  0  0  0  0  0  0  0  0  0  0  0
    7.2095    5.5563    8.1728 C   0  0  0  0  0  0  0  0  0  0  0  0
    6.0207    4.7574    5.3517 C   0  0  0  0  0  0  0  0  0  0  0  0
    5.8400    6.0812    5.5642 N   0  0  0  0  0  0  0  0  0  0  0  0
    5.0632    6.7954    4.7747 C   0  0  0  0  0  0  0  0  0  0  0  0
    4.8073    8.2000    5.2071 C   0  0  0  0  0  0  0  0  0  0  0  0
    5.8454    8.9392    5.8030 C   0  0  0  0  0  0  0  0  0  0  0  0
    5.6202   10.2375    6.2632 C   0  0  0  0  0  0  0  0  0  0  0  0
    4.3493   10.8120    6.1556 C   0  0  0  0  0  0  0  0  0  0  0  0
    3.3050   10.0775    5.5854 C   0  0  0  0  0  0  0  0  0  0  0  0
    3.5317    8.7842    5.1102 C   0  0  0  0  0  0  0  0  0  0  0  0
    4.4860    6.1821    3.5947 C   0  0  0  0  0  0  0  0  0  0  0  0
    3.8387    6.9411    2.4850 C   0  0  0  0  0  0  0  0  0  0  0  0
    4.3399    8.1790    2.0435 C   0  0  0  0  0  0  0  0  0  0  0  0
    3.7565    8.8363    0.9586 C   0  0  0  0  0  0  0  0  0  0  0  0
    2.6581    8.2741    0.3013 C   0  0  0  0  0  0  0  0  0  0  0  0
    2.1579    7.0386    0.7255 C   0  0  0  0  0  0  0  0  0  0  0  0
    2.7496    6.3731    1.7999 C   0  0  0  0  0  0  0  0  0  0  0  0
    4.5729    4.8764    3.4331 N   0  0  0  0  0  0  0  0  0  0  0  0
    5.2886    4.1158    4.2938 C   0  0  0  0  0  0  0  0  0  0  0  0
    5.2125    0.9864    2.2619 C   0  0  0  0  0  0  0  0  0  0  0  0
    4.4972    0.2744    1.3066 C   0  0  0  0  0  0  0  0  0  0  0  0
    0.8621   -0.7016   -0.9011 H   0  0  0  0  0  0  0  0  0  0  0  0
    0.9386    1.0283   -0.4384 H   0  0  0  0  0  0  0  0  0  0  0  0
    0.5167   -0.2137    0.7882 H   0  0  0  0  0  0  0  0  0  0  0  0
    1.4369    1.7257    1.7724 H   0  0  0  0  0  0  0  0  0  0  0  0
    2.7233    2.9727    3.4473 H   0  0  0  0  0  0  0  0  0  0  0  0
    6.3461    0.9212    4.8133 H   0  0  0  0  0  0  0  0  0  0  0  0
    7.6662    2.0303    6.5535 H   0  0  0  0  0  0  0  0  0  0  0  0
    9.5329    3.5316    6.7365 H   0  0  0  0  0  0  0  0  0  0  0  0
   10.9066    4.4615    8.5865 H   0  0  0  0  0  0  0  0  0  0  0  0
   10.5069    7.2901   11.9578 H   0  0  0  0  0  0  0  0  0  0  0  0
    8.8278    6.6700   11.8698 H   0  0  0  0  0  0  0  0  0  0  0  0
    9.3484    8.0109   10.7954 H   0  0  0  0  0  0  0  0  0  0  0  0
    7.5237    6.7934    9.9008 H   0  0  0  0  0  0  0  0  0  0  0  0
    6.1748    5.8806    8.0700 H   0  0  0  0  0  0  0  0  0  0  0  0
    6.8293    8.4772    5.9015 H   0  0  0  0  0  0  0  0  0  0  0  0
    6.4409   10.8032    6.7120 H   0  0  0  0  0  0  0  0  0  0  0  0
    4.1719   11.8273    6.5197 H   0  0  0  0  0  0  0  0  0  0  0  0
    2.3051   10.5128    5.5112 H   0  0  0  0  0  0  0  0  0  0  0  0
    2.7062    8.2195    4.6731 H   0  0  0  0  0  0  0  0  0  0  0  0
    5.2028    8.6258    2.5403 H   0  0  0  0  0  0  0  0  0  0  0  0
    4.1659    9.7926    0.6231 H   0  0  0  0  0  0  0  0  0  0  0  0
    2.1983    8.7932   -0.5437 H   0  0  0  0  0  0  0  0  0  0  0  0
    1.3052    6.5874    0.2114 H   0  0  0  0  0  0  0  0  0  0  0  0
    2.3794    5.3975    2.1181 H   0  0  0  0  0  0  0  0  0  0  0  0
    6.2798    0.7853    2.3825 H   0  0  0  0  0  0  0  0  0  0  0  0
    4.9783   -0.4849    0.6867 H   0  0  0  0  0  0  0  0  0  0  0  0
  1  2  1  0
  1 39  1  0
  1 40  1  0
  1 41  1  0
  2  3  1  0
  3  4  2  0
  3 38  1  0
  4  5  1  0
  4 42  1  0
  5  6  2  0
  5 43  1  0
  6  7  1  0
  6 37  1  0
  7  8  2  0
  7 36  1  0
  8  9  1  0
  8 44  1  0
  9 10  2  0
  9 45  1  0
 10 11  1  0
 10 19  1  0
 11 12  2  0
 11 18  1  0
 12 13  1  0
 12 46  1  0
 13 14  2  0
 13 47  1  0
 14 15  1  0
 14 17  1  0
 15 16  1  0
 16 48  1  0
 16 49  1  0
 16 50  1  0
 17 18  2  0
 17 51  1  0
 18 52  1  0
 19 20  1  0
 19 36  2  0
 20 21  2  0
 21 22  1  0
 21 28  1  0
 22 23  2  0
 22 27  1  0
 23 24  1  0
 23 53  1  0
 24 25  2  0
 24 54  1  0
 25 26  1  0
 25 55  1  0
 26 27  2  0
 26 56  1  0
 27 57  1  0
 28 29  1  0
 28 35  2  0
 29 30  2  0
 29 34  1  0
 30 31  1  0
 30 58  1  0
 31 32  2  0
 31 59  1  0
 32 33  1  0
 32 60  1  0
 33 34  2  0
 33 61  1  0
 34 62  1  0
 35 36  1  0
 37 38  2  0
 37 63  1  0
 38 64  1  0
M  END

