
     RDKit          3D

 45 46  0  0  0  0  0  0  0  0999 V2000
    1.3064    1.0534   -0.7883 C   0  0  0  0  0  0  0  0  0  0  0  0
    2.7124    1.2685   -0.8607 O   0  0  0  0  0  0  0  0  0  0  0  0
    3.3843    1.2616    0.3043 C   0  0  0  0  0  0  0  0  0  0  0  0
    2.8380    1.0413    1.3797 O   0  0  0  0  0  0  0  0  0  0  0  0
    4.8034    1.5170    0.1609 C   0  0  0  0  0  0  0  0  0  0  0  0
    5.6838    1.4117    1.2439 C   0  0  0  0  0  0  0  0  0  0  0  0
    5.4100    1.1496    2.5311 N   0  0  0  0  0  0  0  0  0  0  0  0
    6.3447    0.9796    3.6616 C   0  0  1  0  0  0  0  0  0  0  0  0
    7.1485    2.2735    3.8957 C   0  0  0  0  0  0  0  0  0  0  0  0
    5.4685    0.6854    4.8889 C   0  0  0  0  0  0  0  0  0  0  0  0
    7.2926   -0.2080    3.4038 C   0  0  0  0  0  0  0  0  0  0  0  0
    6.9454    1.6185    0.8367 O   0  0  0  0  0  0  0  0  0  0  0  0
    6.9314    1.8725   -0.5373 C   0  0  0  0  0  0  0  0  0  0  0  0
    8.2201    2.1556   -1.1559 C   0  0  0  0  0  0  0  0  0  0  0  0
    9.4176    1.7132   -0.5561 C   0  0  0  0  0  0  0  0  0  0  0  0
   10.6512    1.9689   -1.1550 C   0  0  0  0  0  0  0  0  0  0  0  0
   10.7209    2.6685   -2.3638 C   0  0  0  0  0  0  0  0  0  0  0  0
    9.5406    3.1236   -2.9614 C   0  0  0  0  0  0  0  0  0  0  0  0
    8.3049    2.8803   -2.3633 C   0  0  0  0  0  0  0  0  0  0  0  0
    5.6363    1.8114   -0.9816 C   0  0  0  0  0  0  0  0  0  0  0  0
    5.1619    2.0409   -2.3797 C   0  0  0  0  0  0  0  0  0  0  0  0
    4.4804    2.9691   -2.7352 O   0  0  0  0  0  0  0  0  0  0  0  0
    5.6071    1.0801   -3.2097 O   0  0  0  0  0  0  0  0  0  0  0  0
    5.2368    1.2147   -4.5814 C   0  0  0  0  0  0  0  0  0  0  0  0
    0.9340    1.1277   -1.8175 H   0  0  0  0  0  0  0  0  0  0  0  0
    0.8241    1.8132   -0.1546 H   0  0  0  0  0  0  0  0  0  0  0  0
    1.0797    0.0601   -0.3708 H   0  0  0  0  0  0  0  0  0  0  0  0
    4.4068    1.0218    2.6778 H   0  0  0  0  0  0  0  0  0  0  0  0
    6.4706    3.1201    4.0862 H   0  0  0  0  0  0  0  0  0  0  0  0
    7.7718    2.5206    3.0251 H   0  0  0  0  0  0  0  0  0  0  0  0
    7.8095    2.1576    4.7690 H   0  0  0  0  0  0  0  0  0  0  0  0
    4.7748    1.5181    5.0870 H   0  0  0  0  0  0  0  0  0  0  0  0
    6.0966    0.5453    5.7808 H   0  0  0  0  0  0  0  0  0  0  0  0
    4.8763   -0.2320    4.7411 H   0  0  0  0  0  0  0  0  0  0  0  0
    7.9179   -0.0344    2.5166 H   0  0  0  0  0  0  0  0  0  0  0  0
    6.7190   -1.1346    3.2457 H   0  0  0  0  0  0  0  0  0  0  0  0
    7.9599   -0.3582    4.2670 H   0  0  0  0  0  0  0  0  0  0  0  0
    9.3731    1.1569    0.3815 H   0  0  0  0  0  0  0  0  0  0  0  0
   11.5668    1.6137   -0.6748 H   0  0  0  0  0  0  0  0  0  0  0  0
   11.6882    2.8662   -2.8323 H   0  0  0  0  0  0  0  0  0  0  0  0
    9.5833    3.6901   -3.8953 H   0  0  0  0  0  0  0  0  0  0  0  0
    7.4007    3.2882   -2.8184 H   0  0  0  0  0  0  0  0  0  0  0  0
    5.6750    0.3542   -5.1018 H   0  0  0  0  0  0  0  0  0  0  0  0
    5.6268    2.1541   -5.0030 H   0  0  0  0  0  0  0  0  0  0  0  0
    4.1419    1.2140   -4.6928 H   0  0  0  0  0  0  0  0  0  0  0  0
  1  2  1  0
  1 25  1  0
  1 26  1  0
  1 27  1  0
  2  3  1  0
  3  4  2  0
  3  5  1  0
  5  6  2  0
  5 20  1  0
  6  7  1  0
  6 12  1  0
  8  7  1  6
  7 28  1  0
  8  9  1  0
  8 10  1  0
  8 11  1  0
  9 29  1  0
  9 30  1  0
  9 31  1  0
 10 32  1  0
 10 33  1  0
 10 34  1  0
 11 35  1  0
 11 36  1  0
 11 37  1  0
 12 13  1  0
 13 14  1  0
 13 20  2  0
 14 15  2  0
 14 19  1  0
 15 16  1  0
 15 38  1  0
 16 17  2  0
 16 39  1  0
 17 18  1  0
 17 40  1  0
 18 19  2  0
 18 41  1  0
 19 42  1  0
 20 21  1  0
 21 22  2  0
 21 23  1  0
 23 24  1  0
 24 43  1  0
 24 44  1  0
 24 45  1  0
M  END

