
     RDKit          3D

 34 35  0  0  0  0  0  0  0  0999 V2000
    1.7422   -0.9399    0.0981 C   0  0  0  0  0  0  0  0  0  0  0  0
    2.8272    0.0881   -0.0256 C   0  0  0  0  0  0  0  0  0  0  0  0
    3.1101    0.8268   -1.1061 C   0  0  0  0  0  0  0  0  0  0  0  0
    2.4491    0.7867   -2.4656 C   0  0  0  0  0  0  0  0  0  0  0  0
    3.4920    1.3409   -3.4534 C   0  0  1  0  0  0  0  0  0  0  0  0
    3.9400    0.5452   -4.0742 H   0  0  0  0  0  0  0  0  0  0  0  0
    2.8870    2.3864   -4.4324 C   0  0  0  0  0  0  0  0  0  0  0  0
    1.7220    2.6919   -4.4117 O   0  0  0  0  0  0  0  0  0  0  0  0
    3.7396    2.8924   -5.3172 O   0  0  0  0  0  0  0  0  0  0  0  0
    4.5563    1.9046   -2.5924 N   0  0  0  0  0  0  0  0  0  0  0  0
    5.7758    2.1824   -3.0998 C   0  0  0  0  0  0  0  0  0  0  0  0
    6.0506    2.1380   -4.2941 O   0  0  0  0  0  0  0  0  0  0  0  0
    6.6678    2.5076   -2.1333 O   0  0  0  0  0  0  0  0  0  0  0  0
    7.9625    2.9063   -2.4603 C   0  0  0  0  0  0  0  0  0  0  0  0
    8.2102    3.9409   -3.3650 C   0  0  0  0  0  0  0  0  0  0  0  0
    9.5307    4.3387   -3.5882 C   0  0  0  0  0  0  0  0  0  0  0  0
   10.5865    3.7171   -2.9135 C   0  0  0  0  0  0  0  0  0  0  0  0
   10.3194    2.6868   -2.0074 C   0  0  0  0  0  0  0  0  0  0  0  0
    9.0037    2.2747   -1.7794 C   0  0  0  0  0  0  0  0  0  0  0  0
    4.2091    1.8646   -1.1655 C   0  0  0  0  0  0  0  0  0  0  0  0
    2.1485   -1.9068    0.4423 H   0  0  0  0  0  0  0  0  0  0  0  0
    1.2086   -1.1100   -0.8482 H   0  0  0  0  0  0  0  0  0  0  0  0
    0.9934   -0.6335    0.8502 H   0  0  0  0  0  0  0  0  0  0  0  0
    3.4355    0.2510    0.8735 H   0  0  0  0  0  0  0  0  0  0  0  0
    1.5601    1.4379   -2.5044 H   0  0  0  0  0  0  0  0  0  0  0  0
    2.1212   -0.2225   -2.7511 H   0  0  0  0  0  0  0  0  0  0  0  0
    4.6604    2.5665   -5.1441 H   0  0  0  0  0  0  0  0  0  0  0  0
    7.3854    4.4219   -3.8908 H   0  0  0  0  0  0  0  0  0  0  0  0
    9.7330    5.1455   -4.2970 H   0  0  0  0  0  0  0  0  0  0  0  0
   11.6156    4.0366   -3.0935 H   0  0  0  0  0  0  0  0  0  0  0  0
   11.1379    2.1966   -1.4745 H   0  0  0  0  0  0  0  0  0  0  0  0
    8.7716    1.4717   -1.0771 H   0  0  0  0  0  0  0  0  0  0  0  0
    3.8524    2.8579   -0.8319 H   0  0  0  0  0  0  0  0  0  0  0  0
    5.0868    1.6048   -0.5594 H   0  0  0  0  0  0  0  0  0  0  0  0
  1  2  1  0
  1 21  1  0
  1 22  1  0
  1 23  1  0
  2  3  2  0
  2 24  1  0
  3  4  1  0
  3 20  1  0
  4  5  1  0
  4 25  1  0
  4 26  1  0
  5  6  1  6
  5  7  1  0
  5 10  1  0
  7  8  2  0
  7  9  1  0
  9 27  1  0
 10 11  1  0
 10 20  1  0
 11 12  2  0
 11 13  1  0
 13 14  1  0
 14 15  2  0
 14 19  1  0
 15 16  1  0
 15 28  1  0
 16 17  2  0
 16 29  1  0
 17 18  1  0
 17 30  1  0
 18 19  2  0
 18 31  1  0
 19 32  1  0
 20 33  1  0
 20 34  1  0
M  END

