
     RDKit          3D

 28 28  0  0  0  0  0  0  0  0999 V2000
    1.0890   -0.2083    0.4644 C   0  0  0  0  0  0  0  0  0  0  0  0
    2.5510   -0.0842    0.1268 C   0  0  0  0  0  0  0  0  0  0  0  0
    3.2170    1.1675    0.3332 C   0  0  0  0  0  0  0  0  0  0  0  0
    4.5441    1.2739    0.0337 C   0  0  0  0  0  0  0  0  0  0  0  0
    5.2572    0.2280   -0.4797 N   0  0  0  0  0  0  0  0  0  0  0  0
    6.6699    0.3707   -0.7760 C   0  0  0  0  0  0  0  0  0  0  0  0
    7.5159    0.5611    0.4981 C   0  0  0  0  0  0  0  0  0  0  0  0
    6.9820    0.8550    1.5555 O   0  0  0  0  0  0  0  0  0  0  0  0
    8.8738    0.4260    0.3660 N   0  0  0  0  0  0  0  0  0  0  0  0
    9.5784    0.0878   -0.8561 C   0  0  0  0  0  0  0  0  0  0  0  0
    9.7157    0.6330    1.5331 C   0  0  0  0  0  0  0  0  0  0  0  0
    4.6793   -1.0559   -0.7032 C   0  0  0  0  0  0  0  0  0  0  0  0
    5.3629   -1.9718   -1.1484 O   0  0  0  0  0  0  0  0  0  0  0  0
    3.2712   -1.1400   -0.3727 C   0  0  0  0  0  0  0  0  0  0  0  0
    0.4917    0.5205   -0.1091 H   0  0  0  0  0  0  0  0  0  0  0  0
    0.9163    0.0090    1.5321 H   0  0  0  0  0  0  0  0  0  0  0  0
    0.7043   -1.2153    0.2506 H   0  0  0  0  0  0  0  0  0  0  0  0
    2.6835    2.0298    0.7352 H   0  0  0  0  0  0  0  0  0  0  0  0
    5.1038    2.1958    0.1931 H   0  0  0  0  0  0  0  0  0  0  0  0
    6.8316    1.2329   -1.4460 H   0  0  0  0  0  0  0  0  0  0  0  0
    6.9485   -0.5458   -1.3121 H   0  0  0  0  0  0  0  0  0  0  0  0
    8.8918   -0.0801   -1.6918 H   0  0  0  0  0  0  0  0  0  0  0  0
   10.1744   -0.8323   -0.7198 H   0  0  0  0  0  0  0  0  0  0  0  0
   10.2747    0.8967   -1.1437 H   0  0  0  0  0  0  0  0  0  0  0  0
    9.0776    0.8862    2.3871 H   0  0  0  0  0  0  0  0  0  0  0  0
   10.4340    1.4532    1.3560 H   0  0  0  0  0  0  0  0  0  0  0  0
   10.2900   -0.2812    1.7653 H   0  0  0  0  0  0  0  0  0  0  0  0
    2.8129   -2.1153   -0.5466 H   0  0  0  0  0  0  0  0  0  0  0  0
  1  2  1  0
  1 15  1  0
  1 16  1  0
  1 17  1  0
  2  3  1  0
  2 14  2  0
  3  4  2  0
  3 18  1  0
  4  5  1  0
  4 19  1  0
  5  6  1  0
  5 12  1  0
  6  7  1  0
  6 20  1  0
  6 21  1  0
  7  8  2  0
  7  9  1  0
  9 10  1  0
  9 11  1  0
 10 22  1  0
 10 23  1  0
 10 24  1  0
 11 25  1  0
 11 26  1  0
 11 27  1  0
 12 13  2  0
 12 14  1  0
 14 28  1  0
M  END

