
     RDKit          3D

 39 40  0  0  0  0  0  0  0  0999 V2000
    1.2788   -0.1359   -0.8841 C   0  0  0  0  0  0  0  0  0  0  0  0
    2.4643   -0.1590   -0.0479 N   0  0  0  0  0  0  0  0  0  0  0  0
    3.3152    1.0339   -0.0938 C   0  0  0  0  0  0  0  0  0  0  0  0
    4.5244    0.9441   -1.0338 C   0  0  1  0  0  0  0  0  0  0  0  0
    4.2248    0.8327   -2.5383 C   0  0  0  0  0  0  0  0  0  0  0  0
    5.5807    1.1397   -3.1926 C   0  0  0  0  0  0  0  0  0  0  0  0
    6.2152    2.2366   -2.2977 C   0  0  0  0  0  0  0  0  0  0  0  0
    5.4448    2.1823   -0.9492 C   0  0  0  0  0  0  0  0  0  0  0  0
    2.9572   -1.3910    0.3770 C   0  0  0  0  0  0  0  0  0  0  0  0
    2.5204   -2.5720   -0.2751 C   0  0  0  0  0  0  0  0  0  0  0  0
    3.0079   -3.8256    0.0832 C   0  0  0  0  0  0  0  0  0  0  0  0
    2.4232   -5.2365   -0.7769 Cl  0  0  0  0  0  0  0  0  0  0  0  0
    3.9621   -3.9807    1.0881 C   0  0  0  0  0  0  0  0  0  0  0  0
    4.3875   -2.8292    1.7476 C   0  0  0  0  0  0  0  0  0  0  0  0
    3.8958   -1.5502    1.4444 C   0  0  0  0  0  0  0  0  0  0  0  0
    4.3550   -0.4443    2.3329 C   0  0  0  0  0  0  0  0  0  0  0  0
    5.7076   -0.2270    2.4287 N   0  0  0  0  0  0  0  0  0  0  0  0
    3.4722    0.2003    3.0192 N   0  0  0  0  0  0  0  0  0  0  0  0
    4.1067    1.2139    3.7794 O   0  0  0  0  0  0  0  0  0  0  0  0
    0.8662    0.8831   -0.8917 H   0  0  0  0  0  0  0  0  0  0  0  0
    0.5053   -0.8033   -0.4741 H   0  0  0  0  0  0  0  0  0  0  0  0
    1.4575   -0.4309   -1.9382 H   0  0  0  0  0  0  0  0  0  0  0  0
    3.6549    1.2953    0.9165 H   0  0  0  0  0  0  0  0  0  0  0  0
    2.6747    1.8705   -0.4161 H   0  0  0  0  0  0  0  0  0  0  0  0
    5.1150    0.0548   -0.7455 H   0  0  0  0  0  0  0  0  0  0  0  0
    3.4790    1.5983   -2.8234 H   0  0  0  0  0  0  0  0  0  0  0  0
    3.8176   -0.1475   -2.8322 H   0  0  0  0  0  0  0  0  0  0  0  0
    5.4923    1.4444   -4.2470 H   0  0  0  0  0  0  0  0  0  0  0  0
    6.2050    0.2305   -3.1764 H   0  0  0  0  0  0  0  0  0  0  0  0
    6.1153    3.2308   -2.7611 H   0  0  0  0  0  0  0  0  0  0  0  0
    7.2947    2.0670   -2.1620 H   0  0  0  0  0  0  0  0  0  0  0  0
    4.8272    3.0891   -0.8254 H   0  0  0  0  0  0  0  0  0  0  0  0
    6.1092    2.1376   -0.0718 H   0  0  0  0  0  0  0  0  0  0  0  0
    1.8159   -2.5172   -1.1013 H   0  0  0  0  0  0  0  0  0  0  0  0
    4.3393   -4.9675    1.3568 H   0  0  0  0  0  0  0  0  0  0  0  0
    5.1052   -2.9199    2.5666 H   0  0  0  0  0  0  0  0  0  0  0  0
    6.3099   -0.5540    1.6866 H   0  0  0  0  0  0  0  0  0  0  0  0
    6.0049    0.5741    2.9730 H   0  0  0  0  0  0  0  0  0  0  0  0
    3.3647    1.6227    4.2398 H   0  0  0  0  0  0  0  0  0  0  0  0
  1  2  1  0
  1 20  1  0
  1 21  1  0
  1 22  1  0
  2  3  1  0
  2  9  1  0
  3  4  1  0
  3 23  1  0
  3 24  1  0
  4  5  1  0
  4  8  1  0
  4 25  1  1
  5  6  1  0
  5 26  1  0
  5 27  1  0
  6  7  1  0
  6 28  1  0
  6 29  1  0
  7  8  1  0
  7 30  1  0
  7 31  1  0
  8 32  1  0
  8 33  1  0
  9 10  2  0
  9 15  1  0
 10 11  1  0
 10 34  1  0
 11 12  1  0
 11 13  2  0
 13 14  1  0
 13 35  1  0
 14 15  2  0
 14 36  1  0
 15 16  1  0
 16 17  1  0
 16 18  2  0
 17 37  1  0
 17 38  1  0
 18 19  1  0
 19 39  1  0
M  END

