
     RDKit          3D

 56 59  0  0  0  0  0  0  0  0999 V2000
    2.7810   -1.4137    0.7480 C   0  0  0  0  0  0  0  0  0  0  0  0
    2.3183   -0.0094    0.3490 C   0  0  1  0  0  0  0  0  0  0  0  0
    0.7799    0.0425    0.3076 C   0  0  0  0  0  0  0  0  0  0  0  0
    2.9194    1.1178    1.1824 C   0  0  0  0  0  0  0  0  0  0  0  0
    2.5474    2.4675    0.9200 C   0  0  0  0  0  0  0  0  0  0  0  0
    3.0557    3.5535    1.6173 C   0  0  0  0  0  0  0  0  0  0  0  0
    2.6450    4.9258    1.2105 C   0  0  0  0  0  0  0  0  0  0  0  0
    2.4682    5.2337   -0.1523 C   0  0  0  0  0  0  0  0  0  0  0  0
    2.0436    6.5038   -0.5525 C   0  0  0  0  0  0  0  0  0  0  0  0
    1.8005    7.4973    0.3942 C   0  0  0  0  0  0  0  0  0  0  0  0
    1.9940    7.2204    1.7566 C   0  0  0  0  0  0  0  0  0  0  0  0
    1.7423    8.3314    2.7386 C   0  0  0  0  0  0  0  0  0  0  0  0
    1.0226    9.2787    2.4754 O   0  0  0  0  0  0  0  0  0  0  0  0
    2.4158    8.1931    3.9409 N   0  0  0  0  0  0  0  0  0  0  0  0
    2.3739    9.0279    5.0633 C   0  0  0  0  0  0  0  0  0  0  0  0
    1.5706   10.1787    5.1632 C   0  0  0  0  0  0  0  0  0  0  0  0
    1.6355   10.9030    6.3555 C   0  0  0  0  0  0  0  0  0  0  0  0
    2.4530   10.5185    7.4041 C   0  0  0  0  0  0  0  0  0  0  0  0
    3.2382    9.3927    7.3023 N   0  0  0  0  0  0  0  0  0  0  0  0
    3.9871    9.0335    8.2532 O   0  0  0  0  0  0  0  0  0  0  0  0
    3.1881    8.6655    6.1422 C   0  0  0  0  0  0  0  0  0  0  0  0
    2.3937    5.9377    2.1525 C   0  0  0  0  0  0  0  0  0  0  0  0
    3.9936    3.3052    2.6844 C   0  0  0  0  0  0  0  0  0  0  0  0
    4.5221    4.3422    3.3897 N   0  0  0  0  0  0  0  0  0  0  0  0
    5.3844    4.0926    4.3518 C   0  0  0  0  0  0  0  0  0  0  0  0
    5.8073    2.7895    4.7156 C   0  0  0  0  0  0  0  0  0  0  0  0
    5.2923    1.7207    4.0182 C   0  0  0  0  0  0  0  0  0  0  0  0
    4.3635    1.9476    2.9668 C   0  0  0  0  0  0  0  0  0  0  0  0
    3.8203    0.8788    2.2056 C   0  0  0  0  0  0  0  0  0  0  0  0
    2.8181    0.2333   -1.4697 S   0  0  1  0  0  0  0  0  0  0  0  0
    4.6194    0.3841   -1.4981 C   0  0  0  0  0  0  0  0  0  0  0  0
    2.4660   -1.0055   -2.1841 O   0  0  0  0  0  0  0  0  0  0  0  0
    2.2693    1.5199   -1.9389 O   0  0  0  0  0  0  0  0  0  0  0  0
    2.4287   -1.6447    1.7653 H   0  0  0  0  0  0  0  0  0  0  0  0
    3.8756   -1.5233    0.7391 H   0  0  0  0  0  0  0  0  0  0  0  0
    2.3602   -2.1551    0.0567 H   0  0  0  0  0  0  0  0  0  0  0  0
    0.3889   -0.1514    1.3186 H   0  0  0  0  0  0  0  0  0  0  0  0
    0.3917   -0.7298   -0.3728 H   0  0  0  0  0  0  0  0  0  0  0  0
    0.4032    1.0161   -0.0301 H   0  0  0  0  0  0  0  0  0  0  0  0
    1.8377    2.6587    0.1178 H   0  0  0  0  0  0  0  0  0  0  0  0
    2.6725    4.4724   -0.9091 H   0  0  0  0  0  0  0  0  0  0  0  0
    1.9107    6.7176   -1.6158 H   0  0  0  0  0  0  0  0  0  0  0  0
    1.4681    8.4955    0.1036 H   0  0  0  0  0  0  0  0  0  0  0  0
    3.0764    7.4257    3.9921 H   0  0  0  0  0  0  0  0  0  0  0  0
    0.9379   10.4785    4.3332 H   0  0  0  0  0  0  0  0  0  0  0  0
    1.0300   11.8037    6.4783 H   0  0  0  0  0  0  0  0  0  0  0  0
    2.5506   11.0382    8.3558 H   0  0  0  0  0  0  0  0  0  0  0  0
    3.8381    7.7905    6.1523 H   0  0  0  0  0  0  0  0  0  0  0  0
    2.4944    5.6917    3.2074 H   0  0  0  0  0  0  0  0  0  0  0  0
    5.7891    4.9593    4.8899 H   0  0  0  0  0  0  0  0  0  0  0  0
    6.5242    2.6527    5.5279 H   0  0  0  0  0  0  0  0  0  0  0  0
    5.5884    0.6953    4.2575 H   0  0  0  0  0  0  0  0  0  0  0  0
    4.1336   -0.1340    2.4618 H   0  0  0  0  0  0  0  0  0  0  0  0
    5.0774   -0.5476   -1.1442 H   0  0  0  0  0  0  0  0  0  0  0  0
    4.9299    1.2489   -0.8994 H   0  0  0  0  0  0  0  0  0  0  0  0
    4.8533    0.5441   -2.5597 H   0  0  0  0  0  0  0  0  0  0  0  0
  2  1  1  1
  1 34  1  0
  1 35  1  0
  1 36  1  0
  2  3  1  0
  2  4  1  0
  2 30  1  0
  3 37  1  0
  3 38  1  0
  3 39  1  0
  4  5  2  0
  4 29  1  0
  5  6  1  0
  5 40  1  0
  6  7  1  0
  6 23  2  0
  7  8  2  0
  7 22  1  0
  8  9  1  0
  8 41  1  0
  9 10  2  0
  9 42  1  0
 10 11  1  0
 10 43  1  0
 11 12  1  0
 11 22  2  0
 12 13  2  0
 12 14  1  0
 14 15  1  0
 14 44  1  0
 15 16  2  0
 15 21  1  0
 16 17  1  0
 16 45  1  0
 17 18  2  0
 17 46  1  0
 18 19  1  0
 18 47  1  0
 19 20  1  0
 19 21  2  0
 21 48  1  0
 22 49  1  0
 23 24  1  0
 23 28  1  0
 24 25  2  0
 25 26  1  0
 25 50  1  0
 26 27  2  0
 26 51  1  0
 27 28  1  0
 27 52  1  0
 28 29  2  0
 29 53  1  0
 30 31  1  1
 30 32  2  0
 30 33  2  0
 31 54  1  0
 31 55  1  0
 31 56  1  0
M  CHG  2  19   1  20  -1
M  END

