
     RDKit          3D

 40 40  0  0  0  0  0  0  0  0999 V2000
    1.2208    1.0006   -0.5336 C   0  0  0  0  0  0  0  0  0  0  0  0
    2.3560    0.1616    0.0520 C   0  0  0  0  0  0  0  0  0  0  0  0
    2.8834   -0.9090   -0.9152 C   0  0  1  0  0  0  0  0  0  0  0  0
    4.0036   -1.7693   -0.3183 C   0  0  0  0  0  0  0  0  0  0  0  0
    3.4671   -2.7237    0.6485 N   0  0  0  0  0  0  0  0  0  0  0  0
    4.0622   -2.8254    1.8835 C   0  0  0  0  0  0  0  0  0  0  0  0
    5.0022   -2.1075    2.2015 O   0  0  0  0  0  0  0  0  0  0  0  0
    3.5682   -3.8761    2.9027 C   0  0  1  0  0  0  0  0  0  0  0  0
    4.1164   -3.5779    3.8176 H   0  0  0  0  0  0  0  0  0  0  0  0
    2.1131   -3.8224    3.0805 N   0  0  0  0  0  0  0  0  0  0  0  0
    4.0484   -5.3094    2.5489 C   0  0  1  0  0  0  0  0  0  0  0  0
    5.5704   -5.3594    2.3595 C   0  0  0  0  0  0  0  0  0  0  0  0
    3.6093   -6.3201    3.6184 C   0  0  0  0  0  0  0  0  0  0  0  0
    2.4095   -3.5629    0.0935 C   0  0  0  0  0  0  0  0  0  0  0  0
    1.3081   -2.6903   -0.5227 C   0  0  2  0  0  0  0  0  0  0  0  0
    0.2807   -3.5120   -1.2841 C   0  0  0  0  0  0  0  0  0  0  0  0
    1.8499   -1.7445   -1.4374 O   0  0  0  0  0  0  0  0  0  0  0  0
    0.8740    1.7605    0.1844 H   0  0  0  0  0  0  0  0  0  0  0  0
    0.3614    0.3705   -0.8084 H   0  0  0  0  0  0  0  0  0  0  0  0
    1.5439    1.5264   -1.4477 H   0  0  0  0  0  0  0  0  0  0  0  0
    2.0329   -0.3100    0.9956 H   0  0  0  0  0  0  0  0  0  0  0  0
    3.2070    0.8101    0.3224 H   0  0  0  0  0  0  0  0  0  0  0  0
    3.2908   -0.3955   -1.8031 H   0  0  0  0  0  0  0  0  0  0  0  0
    4.7592   -1.1576    0.1886 H   0  0  0  0  0  0  0  0  0  0  0  0
    4.4961   -2.3271   -1.1369 H   0  0  0  0  0  0  0  0  0  0  0  0
    1.8291   -2.8735    3.3270 H   0  0  0  0  0  0  0  0  0  0  0  0
    1.8378   -4.4081    3.8681 H   0  0  0  0  0  0  0  0  0  0  0  0
    3.5715   -5.6041    1.5980 H   0  0  0  0  0  0  0  0  0  0  0  0
    6.0949   -5.0614    3.2825 H   0  0  0  0  0  0  0  0  0  0  0  0
    5.9148   -4.6877    1.5595 H   0  0  0  0  0  0  0  0  0  0  0  0
    5.8925   -6.3815    2.1043 H   0  0  0  0  0  0  0  0  0  0  0  0
    4.0040   -6.0445    4.6119 H   0  0  0  0  0  0  0  0  0  0  0  0
    3.9905   -7.3256    3.3794 H   0  0  0  0  0  0  0  0  0  0  0  0
    2.5135   -6.4035    3.6914 H   0  0  0  0  0  0  0  0  0  0  0  0
    1.9734   -4.1777    0.8872 H   0  0  0  0  0  0  0  0  0  0  0  0
    2.8335   -4.2136   -0.6970 H   0  0  0  0  0  0  0  0  0  0  0  0
    0.8035   -2.1595    0.3100 H   0  0  0  0  0  0  0  0  0  0  0  0
    0.7614   -4.0528   -2.1147 H   0  0  0  0  0  0  0  0  0  0  0  0
   -0.4913   -2.8538   -1.7094 H   0  0  0  0  0  0  0  0  0  0  0  0
   -0.2076   -4.2429   -0.6209 H   0  0  0  0  0  0  0  0  0  0  0  0
  1  2  1  0
  1 18  1  0
  1 19  1  0
  1 20  1  0
  2  3  1  0
  2 21  1  0
  2 22  1  0
  3  4  1  0
  3 17  1  0
  3 23  1  6
  4  5  1  0
  4 24  1  0
  4 25  1  0
  5  6  1  0
  5 14  1  0
  6  7  2  0
  6  8  1  0
  8  9  1  1
  8 10  1  0
  8 11  1  0
 10 26  1  0
 10 27  1  0
 11 12  1  0
 11 13  1  0
 11 28  1  6
 12 29  1  0
 12 30  1  0
 12 31  1  0
 13 32  1  0
 13 33  1  0
 13 34  1  0
 14 15  1  0
 14 35  1  0
 14 36  1  0
 15 16  1  0
 15 17  1  0
 15 37  1  1
 16 38  1  0
 16 39  1  0
 16 40  1  0
M  END

