
     RDKit          3D

 46 46  0  0  0  0  0  0  0  0999 V2000
    7.0929    4.5084    1.1617 C   0  0  0  0  0  0  0  0  0  0  0  0
    6.7088    3.0569    0.8707 C   0  0  0  0  0  0  0  0  0  0  0  0
    7.2906    2.0555    1.8735 C   0  0  0  0  0  0  0  0  0  0  0  0
    6.9110    0.5997    1.5882 C   0  0  0  0  0  0  0  0  0  0  0  0
    7.4902   -0.4015    2.5935 C   0  0  0  0  0  0  0  0  0  0  0  0
    7.1129   -1.8545    2.2850 C   0  0  0  0  0  0  0  0  0  0  0  0
    7.5542   -2.9012    3.3284 C   0  0  1  0  0  0  0  0  0  0  0  0
    6.9576   -4.2854    3.0014 C   0  0  0  0  0  0  0  0  0  0  0  0
    7.1665   -5.3719    4.0615 C   0  0  0  0  0  0  0  0  0  0  0  0
    6.4420   -6.6829    3.7356 C   0  0  0  0  0  0  0  0  0  0  0  0
    6.6551   -7.7763    4.7832 C   0  0  0  0  0  0  0  0  0  0  0  0
    9.0682   -2.9415    3.5200 C   0  0  0  0  0  0  0  0  0  0  0  0
    9.6744   -3.3456    2.2716 O   0  0  0  0  0  0  0  0  0  0  0  0
   10.9840   -3.4520    2.1899 C   0  0  0  0  0  0  0  0  0  0  0  0
   11.7386   -3.1849    3.2631 N   0  0  0  0  0  0  0  0  0  0  0  0
   13.0401   -3.3249    3.0642 C   0  0  0  0  0  0  0  0  0  0  0  0
   14.0759   -2.9940    4.4154 Cl  0  0  0  0  0  0  0  0  0  0  0  0
   13.6297   -3.6925    1.9367 N   0  0  0  0  0  0  0  0  0  0  0  0
   12.7725   -3.9298    0.9435 C   0  0  0  0  0  0  0  0  0  0  0  0
   13.4668   -4.4166   -0.5688 Cl  0  0  0  0  0  0  0  0  0  0  0  0
   11.4601   -3.8321    0.9955 N   0  0  0  0  0  0  0  0  0  0  0  0
    6.6576    5.1992    0.4220 H   0  0  0  0  0  0  0  0  0  0  0  0
    8.1872    4.6456    1.1407 H   0  0  0  0  0  0  0  0  0  0  0  0
    6.7417    4.8243    2.1585 H   0  0  0  0  0  0  0  0  0  0  0  0
    7.0410    2.7842   -0.1476 H   0  0  0  0  0  0  0  0  0  0  0  0
    5.6076    2.9615    0.8608 H   0  0  0  0  0  0  0  0  0  0  0  0
    6.9582    2.3268    2.8932 H   0  0  0  0  0  0  0  0  0  0  0  0
    8.3927    2.1504    1.8843 H   0  0  0  0  0  0  0  0  0  0  0  0
    7.2465    0.3272    0.5704 H   0  0  0  0  0  0  0  0  0  0  0  0
    5.8092    0.5056    1.5741 H   0  0  0  0  0  0  0  0  0  0  0  0
    7.1431   -0.1379    3.6104 H   0  0  0  0  0  0  0  0  0  0  0  0
    8.5888   -0.2866    2.6106 H   0  0  0  0  0  0  0  0  0  0  0  0
    7.5204   -2.1394    1.2993 H   0  0  0  0  0  0  0  0  0  0  0  0
    6.0150   -1.9201    2.1877 H   0  0  0  0  0  0  0  0  0  0  0  0
    7.1582   -2.5856    4.3132 H   0  0  0  0  0  0  0  0  0  0  0  0
    7.3654   -4.6304    2.0351 H   0  0  0  0  0  0  0  0  0  0  0  0
    5.8730   -4.1540    2.8411 H   0  0  0  0  0  0  0  0  0  0  0  0
    6.8201   -5.0006    5.0447 H   0  0  0  0  0  0  0  0  0  0  0  0
    8.2434   -5.5874    4.1830 H   0  0  0  0  0  0  0  0  0  0  0  0
    6.7797   -7.0459    2.7480 H   0  0  0  0  0  0  0  0  0  0  0  0
    5.3608   -6.4816    3.6261 H   0  0  0  0  0  0  0  0  0  0  0  0
    7.7236   -8.0292    4.8883 H   0  0  0  0  0  0  0  0  0  0  0  0
    6.1201   -8.7018    4.5167 H   0  0  0  0  0  0  0  0  0  0  0  0
    6.2938   -7.4576    5.7756 H   0  0  0  0  0  0  0  0  0  0  0  0
    9.3668   -3.6545    4.3022 H   0  0  0  0  0  0  0  0  0  0  0  0
    9.4745   -1.9605    3.8062 H   0  0  0  0  0  0  0  0  0  0  0  0
  1  2  1  0
  1 22  1  0
  1 23  1  0
  1 24  1  0
  2  3  1  0
  2 25  1  0
  2 26  1  0
  3  4  1  0
  3 27  1  0
  3 28  1  0
  4  5  1  0
  4 29  1  0
  4 30  1  0
  5  6  1  0
  5 31  1  0
  5 32  1  0
  6  7  1  0
  6 33  1  0
  6 34  1  0
  7  8  1  0
  7 12  1  0
  7 35  1  1
  8  9  1  0
  8 36  1  0
  8 37  1  0
  9 10  1  0
  9 38  1  0
  9 39  1  0
 10 11  1  0
 10 40  1  0
 10 41  1  0
 11 42  1  0
 11 43  1  0
 11 44  1  0
 12 13  1  0
 12 45  1  0
 12 46  1  0
 13 14  1  0
 14 15  2  0
 14 21  1  0
 15 16  1  0
 16 17  1  0
 16 18  2  0
 18 19  1  0
 19 20  1  0
 19 21  2  0
M  END

