
     RDKit          3D

 44 45  0  0  0  0  0  0  0  0999 V2000
    0.8785   -0.1267    0.0340 C   0  0  0  0  0  0  0  0  0  0  0  0
    2.3952   -0.1099    0.0500 C   0  0  0  0  0  0  0  0  0  0  0  0
    2.8308    1.0147   -0.6959 O   0  0  0  0  0  0  0  0  0  0  0  0
    4.1589    1.2646   -0.8279 C   0  0  0  0  0  0  0  0  0  0  0  0
    4.5077    2.4023   -1.5749 C   0  0  0  0  0  0  0  0  0  0  0  0
    5.8465    2.7334   -1.7646 C   0  0  0  0  0  0  0  0  0  0  0  0
    6.8829    1.9562   -1.2202 C   0  0  0  0  0  0  0  0  0  0  0  0
    8.3499    2.3594   -1.4043 C   0  0  1  0  0  0  0  0  0  0  0  0
    8.9200    2.9842   -0.1231 C   0  0  0  0  0  0  0  0  0  0  0  0
    9.2480    1.2924   -1.8421 N   0  0  0  0  0  0  0  0  0  0  0  0
    8.9176    0.5596   -3.0651 C   0  0  1  0  0  0  0  0  0  0  0  0
    9.0541    1.4570   -4.3127 C   0  0  0  0  0  0  0  0  0  0  0  0
   10.5035    1.8941   -4.5662 C   0  0  0  0  0  0  0  0  0  0  0  0
   11.4543    0.6918   -4.6818 C   0  0  2  0  0  0  0  0  0  0  0  0
   11.2590   -0.0228   -5.8981 O   0  0  0  0  0  0  0  0  0  0  0  0
   11.3253   -0.2249   -3.4543 C   0  0  0  0  0  0  0  0  0  0  0  0
    9.8695   -0.6441   -3.1996 C   0  0  0  0  0  0  0  0  0  0  0  0
    6.5178    0.8244   -0.4815 C   0  0  0  0  0  0  0  0  0  0  0  0
    5.1789    0.4705   -0.2801 C   0  0  0  0  0  0  0  0  0  0  0  0
    0.5003   -0.9889    0.6048 H   0  0  0  0  0  0  0  0  0  0  0  0
    0.5014   -0.1986   -0.9977 H   0  0  0  0  0  0  0  0  0  0  0  0
    0.4754    0.7936    0.4836 H   0  0  0  0  0  0  0  0  0  0  0  0
    2.8014   -1.0396   -0.3927 H   0  0  0  0  0  0  0  0  0  0  0  0
    2.7748   -0.0470    1.0878 H   0  0  0  0  0  0  0  0  0  0  0  0
    3.7055    3.0088   -2.0007 H   0  0  0  0  0  0  0  0  0  0  0  0
    6.0951    3.6227   -2.3525 H   0  0  0  0  0  0  0  0  0  0  0  0
    8.3668    3.1428   -2.1814 H   0  0  0  0  0  0  0  0  0  0  0  0
    8.9249    2.2515    0.7021 H   0  0  0  0  0  0  0  0  0  0  0  0
    8.3125    3.8419    0.2024 H   0  0  0  0  0  0  0  0  0  0  0  0
    9.9550    3.3200   -0.2903 H   0  0  0  0  0  0  0  0  0  0  0  0
    9.4110    0.6384   -1.0776 H   0  0  0  0  0  0  0  0  0  0  0  0
    7.8764    0.1743   -3.0374 H   0  0  0  0  0  0  0  0  0  0  0  0
    8.3948    2.3360   -4.2347 H   0  0  0  0  0  0  0  0  0  0  0  0
    8.6717    0.8899   -5.1814 H   0  0  0  0  0  0  0  0  0  0  0  0
   10.8382    2.5313   -3.7316 H   0  0  0  0  0  0  0  0  0  0  0  0
   10.5711    2.4921   -5.4896 H   0  0  0  0  0  0  0  0  0  0  0  0
   12.4917    1.0591   -4.7450 H   0  0  0  0  0  0  0  0  0  0  0  0
   10.3527   -0.3554   -5.9160 H   0  0  0  0  0  0  0  0  0  0  0  0
   11.7082    0.3118   -2.5714 H   0  0  0  0  0  0  0  0  0  0  0  0
   11.9607   -1.1130   -3.6042 H   0  0  0  0  0  0  0  0  0  0  0  0
    9.8046   -1.2770   -2.2966 H   0  0  0  0  0  0  0  0  0  0  0  0
    9.5106   -1.2805   -4.0284 H   0  0  0  0  0  0  0  0  0  0  0  0
    7.2937    0.1865   -0.0466 H   0  0  0  0  0  0  0  0  0  0  0  0
    4.9454   -0.4220    0.3007 H   0  0  0  0  0  0  0  0  0  0  0  0
  1  2  1  0
  1 20  1  0
  1 21  1  0
  1 22  1  0
  2  3  1  0
  2 23  1  0
  2 24  1  0
  3  4  1  0
  4  5  2  0
  4 19  1  0
  5  6  1  0
  5 25  1  0
  6  7  2  0
  6 26  1  0
  7  8  1  0
  7 18  1  0
  8  9  1  0
  8 10  1  0
  8 27  1  6
  9 28  1  0
  9 29  1  0
  9 30  1  0
 10 11  1  0
 10 31  1  0
 11 12  1  0
 11 17  1  0
 11 32  1  1
 12 13  1  0
 12 33  1  0
 12 34  1  0
 13 14  1  0
 13 35  1  0
 13 36  1  0
 14 15  1  0
 14 16  1  0
 14 37  1  6
 15 38  1  0
 16 17  1  0
 16 39  1  0
 16 40  1  0
 17 41  1  0
 17 42  1  0
 18 19  2  0
 18 43  1  0
 19 44  1  0
M  END

