
     RDKit          3D

 34 36  0  0  0  0  0  0  0  0999 V2000
    4.2122    2.6390    4.8322 C   0  0  0  0  0  0  0  0  0  0  0  0
    2.9208    2.0235    4.2961 C   0  0  0  0  0  0  0  0  0  0  0  0
    2.8943    1.9420    2.8391 N   0  0  0  0  0  0  0  0  0  0  0  0
    2.5744    3.0403    2.1374 N   0  0  0  0  0  0  0  0  0  0  0  0
    2.7064    2.6996    0.8601 C   0  0  0  0  0  0  0  0  0  0  0  0
    3.1245    1.3568    0.7259 C   0  0  0  0  0  0  0  0  0  0  0  0
    3.2405    0.8900    2.0307 C   0  0  0  0  0  0  0  0  0  0  0  0
    3.6630   -0.4591    2.5678 C   0  0  1  0  0  0  0  0  0  0  0  0
    2.5775   -1.0224    3.3949 N   0  0  0  0  0  0  0  0  0  0  0  0
    2.8162   -2.2814    3.9756 N   0  0  0  0  0  0  0  0  0  0  0  0
    4.1713   -1.3898    1.4861 C   0  0  0  0  0  0  0  0  0  0  0  0
    5.4829   -1.8753    1.3286 C   0  0  0  0  0  0  0  0  0  0  0  0
    5.6227   -2.7212    0.2979 N   0  0  0  0  0  0  0  0  0  0  0  0
    4.4007   -2.8056   -0.2274 N   0  0  0  0  0  0  0  0  0  0  0  0
    4.0458   -3.5678   -1.3079 C   0  0  0  0  0  0  0  0  0  0  0  0
    2.7357   -3.5376   -1.7083 C   0  0  0  0  0  0  0  0  0  0  0  0
    1.7780   -2.7891   -1.0875 N   0  0  0  0  0  0  0  0  0  0  0  0
    2.1280   -2.0620   -0.0546 C   0  0  0  0  0  0  0  0  0  0  0  0
    3.4603   -2.0207    0.4463 C   0  0  0  0  0  0  0  0  0  0  0  0
    4.1672    2.7191    5.9300 H   0  0  0  0  0  0  0  0  0  0  0  0
    4.3599    3.6471    4.4166 H   0  0  0  0  0  0  0  0  0  0  0  0
    5.0916    2.0282    4.5717 H   0  0  0  0  0  0  0  0  0  0  0  0
    2.0570    2.6397    4.5860 H   0  0  0  0  0  0  0  0  0  0  0  0
    2.7534    1.0076    4.6788 H   0  0  0  0  0  0  0  0  0  0  0  0
    2.4934    3.4263    0.0761 H   0  0  0  0  0  0  0  0  0  0  0  0
    3.3263    0.8048   -0.1873 H   0  0  0  0  0  0  0  0  0  0  0  0
    4.5139   -0.3029    3.2578 H   0  0  0  0  0  0  0  0  0  0  0  0
    1.7043   -1.0554    2.8709 H   0  0  0  0  0  0  0  0  0  0  0  0
    3.3543   -2.1551    4.8329 H   0  0  0  0  0  0  0  0  0  0  0  0
    3.3619   -2.8912    3.3563 H   0  0  0  0  0  0  0  0  0  0  0  0
    6.3539   -1.6312    1.9385 H   0  0  0  0  0  0  0  0  0  0  0  0
    4.8412   -4.1485   -1.7749 H   0  0  0  0  0  0  0  0  0  0  0  0
    2.4192   -4.1347   -2.5676 H   0  0  0  0  0  0  0  0  0  0  0  0
    1.3559   -1.4553    0.4312 H   0  0  0  0  0  0  0  0  0  0  0  0
  1  2  1  0
  1 20  1  0
  1 21  1  0
  1 22  1  0
  2  3  1  0
  2 23  1  0
  2 24  1  0
  3  4  1  0
  3  7  1  0
  4  5  2  0
  5  6  1  0
  5 25  1  0
  6  7  2  0
  6 26  1  0
  7  8  1  0
  8  9  1  0
  8 11  1  0
  8 27  1  1
  9 10  1  0
  9 28  1  0
 10 29  1  0
 10 30  1  0
 11 12  1  0
 11 19  2  0
 12 13  2  0
 12 31  1  0
 13 14  1  0
 14 15  1  0
 14 19  1  0
 15 16  2  0
 15 32  1  0
 16 17  1  0
 16 33  1  0
 17 18  2  0
 18 19  1  0
 18 34  1  0
M  END

