
     RDKit          3D

 53 55  0  0  0  0  0  0  0  0999 V2000
    5.7045   -0.6714    0.5333 C   0  0  0  0  0  0  0  0  0  0  0  0
    4.7236   -1.2645   -0.2916 O   0  0  0  0  0  0  0  0  0  0  0  0
    4.3893   -0.6755   -1.4665 C   0  0  0  0  0  0  0  0  0  0  0  0
    4.9807    0.5069   -1.9329 C   0  0  0  0  0  0  0  0  0  0  0  0
    4.5667    1.0330   -3.1571 C   0  0  0  0  0  0  0  0  0  0  0  0
    5.1448    2.1652   -3.5865 F   0  0  0  0  0  0  0  0  0  0  0  0
    3.5877    0.4279   -3.9336 C   0  0  0  0  0  0  0  0  0  0  0  0
    3.0087   -0.7513   -3.4516 C   0  0  0  0  0  0  0  0  0  0  0  0
    3.3837   -1.3242   -2.2331 C   0  0  0  0  0  0  0  0  0  0  0  0
    2.7452   -2.5277   -1.8050 N   0  0  0  0  0  0  0  0  0  0  0  0
    1.8697   -2.4277   -0.6359 C   0  0  0  0  0  0  0  0  0  0  0  0
    0.9687   -3.6565   -0.5618 C   0  0  0  0  0  0  0  0  0  0  0  0
    1.7552   -4.8847   -0.5880 N   0  0  0  0  0  0  0  0  0  0  0  0
    1.4103   -5.9095    0.2821 C   0  0  0  0  0  0  0  0  0  0  0  0
    0.6508   -5.7317    1.2278 O   0  0  0  0  0  0  0  0  0  0  0  0
    1.9821   -7.1416    0.0438 N   0  0  0  0  0  0  0  0  0  0  0  0
    1.7288   -8.2704    0.9387 C   0  0  1  0  0  0  0  0  0  0  0  0
    0.3193   -8.8729    0.7543 C   0  0  0  0  0  0  0  0  0  0  0  0
    0.1787   -9.6033   -0.5848 C   0  0  0  0  0  0  0  0  0  0  0  0
    1.2462  -10.7083   -0.7621 C   0  0  2  0  0  0  0  0  0  0  0  0
    1.0280  -11.9227    0.1538 C   0  0  0  0  0  0  0  0  0  0  0  0
    1.8919  -12.4477    0.8030 O   0  0  0  0  0  0  0  0  0  0  0  0
   -0.2276  -12.4267    0.1709 O   0  0  0  0  0  0  0  0  0  0  0  0
    2.6580  -10.1249   -0.5759 C   0  0  0  0  0  0  0  0  0  0  0  0
    2.8044   -9.3510    0.7452 C   0  0  0  0  0  0  0  0  0  0  0  0
    2.6997   -4.9804   -1.6886 C   0  0  0  0  0  0  0  0  0  0  0  0
    3.5766   -3.7249   -1.7613 C   0  0  0  0  0  0  0  0  0  0  0  0
    5.7975   -1.3147    1.4181 H   0  0  0  0  0  0  0  0  0  0  0  0
    5.4078    0.3422    0.8557 H   0  0  0  0  0  0  0  0  0  0  0  0
    6.6839   -0.6134    0.0262 H   0  0  0  0  0  0  0  0  0  0  0  0
    5.7537    1.0345   -1.3761 H   0  0  0  0  0  0  0  0  0  0  0  0
    3.2927    0.8733   -4.8848 H   0  0  0  0  0  0  0  0  0  0  0  0
    2.2338   -1.2627   -4.0262 H   0  0  0  0  0  0  0  0  0  0  0  0
    1.2455   -1.5266   -0.7381 H   0  0  0  0  0  0  0  0  0  0  0  0
    2.4467   -2.3369    0.3070 H   0  0  0  0  0  0  0  0  0  0  0  0
    0.2715   -3.6419   -1.4235 H   0  0  0  0  0  0  0  0  0  0  0  0
    0.3811   -3.6589    0.3641 H   0  0  0  0  0  0  0  0  0  0  0  0
    2.4160   -7.3307   -0.8484 H   0  0  0  0  0  0  0  0  0  0  0  0
    1.7890   -7.8710    1.9618 H   0  0  0  0  0  0  0  0  0  0  0  0
   -0.4227   -8.0665    0.8455 H   0  0  0  0  0  0  0  0  0  0  0  0
    0.1289   -9.5762    1.5846 H   0  0  0  0  0  0  0  0  0  0  0  0
    0.2947   -8.8813   -1.4111 H   0  0  0  0  0  0  0  0  0  0  0  0
   -0.8468   -9.9994   -0.6994 H   0  0  0  0  0  0  0  0  0  0  0  0
    1.1614  -11.1126   -1.7890 H   0  0  0  0  0  0  0  0  0  0  0  0
   -0.8123  -11.8969   -0.3893 H   0  0  0  0  0  0  0  0  0  0  0  0
    2.8741   -9.4681   -1.4382 H   0  0  0  0  0  0  0  0  0  0  0  0
    3.3984  -10.9370   -0.6105 H   0  0  0  0  0  0  0  0  0  0  0  0
    3.8056   -8.8938    0.8092 H   0  0  0  0  0  0  0  0  0  0  0  0
    2.7294  -10.0685    1.5764 H   0  0  0  0  0  0  0  0  0  0  0  0
    2.1688   -5.1095   -2.6541 H   0  0  0  0  0  0  0  0  0  0  0  0
    3.3655   -5.8419   -1.5415 H   0  0  0  0  0  0  0  0  0  0  0  0
    4.1890   -3.7686   -2.6756 H   0  0  0  0  0  0  0  0  0  0  0  0
    4.2656   -3.7227   -0.8912 H   0  0  0  0  0  0  0  0  0  0  0  0
  1  2  1  0
  1 28  1  0
  1 29  1  0
  1 30  1  0
  2  3  1  0
  3  4  2  0
  3  9  1  0
  4  5  1  0
  4 31  1  0
  5  6  1  0
  5  7  2  0
  7  8  1  0
  7 32  1  0
  8  9  2  0
  8 33  1  0
  9 10  1  0
 10 11  1  0
 10 27  1  0
 11 12  1  0
 11 34  1  0
 11 35  1  0
 12 13  1  0
 12 36  1  0
 12 37  1  0
 13 14  1  0
 13 26  1  0
 14 15  2  0
 14 16  1  0
 16 17  1  0
 16 38  1  0
 17 18  1  0
 17 25  1  0
 17 39  1  1
 18 19  1  0
 18 40  1  0
 18 41  1  0
 19 20  1  0
 19 42  1  0
 19 43  1  0
 20 21  1  0
 20 24  1  0
 20 44  1  6
 21 22  2  0
 21 23  1  0
 23 45  1  0
 24 25  1  0
 24 46  1  0
 24 47  1  0
 25 48  1  0
 25 49  1  0
 26 27  1  0
 26 50  1  0
 26 51  1  0
 27 52  1  0
 27 53  1  0
M  END

