
     RDKit          3D

 35 36  0  0  0  0  0  0  0  0999 V2000
    3.1748   -0.9639    1.1734 C   0  0  0  0  0  0  0  0  0  0  0  0
    2.6833    0.0361    0.1287 C   0  0  1  0  0  0  0  0  0  0  0  0
    3.0921   -0.3808   -1.2986 C   0  0  0  0  0  0  0  0  0  0  0  0
    4.5200   -0.2809   -1.4941 N   0  0  0  0  0  0  0  0  0  0  0  0
    5.2833   -1.3139   -1.9638 C   0  0  0  0  0  0  0  0  0  0  0  0
    4.8017   -2.3985   -2.2685 O   0  0  0  0  0  0  0  0  0  0  0  0
    6.7585   -1.0554   -2.0867 C   0  0  0  0  0  0  0  0  0  0  0  0
    7.5959   -2.1593   -2.3201 C   0  0  0  0  0  0  0  0  0  0  0  0
    8.9690   -2.0076   -2.4517 C   0  0  0  0  0  0  0  0  0  0  0  0
    9.5822   -0.7368   -2.3708 C   0  0  0  0  0  0  0  0  0  0  0  0
   10.9324   -0.5761   -2.5392 N   0  0  0  0  0  0  0  0  0  0  0  0
    8.7252    0.3672   -2.1468 C   0  0  0  0  0  0  0  0  0  0  0  0
    9.4322    1.9761   -2.0429 Cl  0  0  0  0  0  0  0  0  0  0  0  0
    7.3494    0.2150   -2.0098 C   0  0  0  0  0  0  0  0  0  0  0  0
    1.1626    0.3120    0.2137 C   0  0  0  0  0  0  0  0  0  0  0  0
    1.0550    1.8267   -0.0067 C   0  0  0  0  0  0  0  0  0  0  0  0
    2.3432    2.3187    0.6526 C   0  0  0  0  0  0  0  0  0  0  0  0
    3.3139    1.3174    0.3808 O   0  0  0  0  0  0  0  0  0  0  0  0
    2.6811   -1.9401    1.0437 H   0  0  0  0  0  0  0  0  0  0  0  0
    2.9597   -0.5924    2.1871 H   0  0  0  0  0  0  0  0  0  0  0  0
    4.2608   -1.1144    1.0857 H   0  0  0  0  0  0  0  0  0  0  0  0
    2.5615    0.2670   -2.0214 H   0  0  0  0  0  0  0  0  0  0  0  0
    2.8018   -1.4206   -1.5056 H   0  0  0  0  0  0  0  0  0  0  0  0
    4.9516    0.5614   -1.1333 H   0  0  0  0  0  0  0  0  0  0  0  0
    7.1319   -3.1441   -2.3969 H   0  0  0  0  0  0  0  0  0  0  0  0
    9.6009   -2.8822   -2.6300 H   0  0  0  0  0  0  0  0  0  0  0  0
   11.5288   -1.3893   -2.4699 H   0  0  0  0  0  0  0  0  0  0  0  0
   11.3410    0.3134   -2.2819 H   0  0  0  0  0  0  0  0  0  0  0  0
    6.7546    1.1178   -1.8609 H   0  0  0  0  0  0  0  0  0  0  0  0
    0.7886    0.0450    1.2152 H   0  0  0  0  0  0  0  0  0  0  0  0
    0.5922   -0.2791   -0.5190 H   0  0  0  0  0  0  0  0  0  0  0  0
    0.1477    2.2681    0.4329 H   0  0  0  0  0  0  0  0  0  0  0  0
    1.0595    2.0683   -1.0821 H   0  0  0  0  0  0  0  0  0  0  0  0
    2.2046    2.4375    1.7465 H   0  0  0  0  0  0  0  0  0  0  0  0
    2.7073    3.2797    0.2549 H   0  0  0  0  0  0  0  0  0  0  0  0
  2  1  1  1
  1 19  1  0
  1 20  1  0
  1 21  1  0
  2  3  1  0
  2 15  1  0
  2 18  1  0
  3  4  1  0
  3 22  1  0
  3 23  1  0
  4  5  1  0
  4 24  1  0
  5  6  2  0
  5  7  1  0
  7  8  2  0
  7 14  1  0
  8  9  1  0
  8 25  1  0
  9 10  2  0
  9 26  1  0
 10 11  1  0
 10 12  1  0
 11 27  1  0
 11 28  1  0
 12 13  1  0
 12 14  2  0
 14 29  1  0
 15 16  1  0
 15 30  1  0
 15 31  1  0
 16 17  1  0
 16 32  1  0
 16 33  1  0
 17 18  1  0
 17 34  1  0
 17 35  1  0
M  END

