
     RDKit          3D

 49 53  0  0  0  0  0  0  0  0999 V2000
   12.0773   -5.6268    0.6422 C   0  0  0  0  0  0  0  0  0  0  0  0
   11.4266   -6.3696   -0.4205 N   0  0  0  0  0  0  0  0  0  0  0  0
   11.7200   -7.7895   -0.3528 C   0  0  0  0  0  0  0  0  0  0  0  0
   10.0111   -6.0728   -0.5497 C   0  0  0  0  0  0  0  0  0  0  0  0
    9.5159   -6.2794   -1.9896 C   0  0  0  0  0  0  0  0  0  0  0  0
    8.0893   -6.0185   -2.1310 N   0  0  0  0  0  0  0  0  0  0  0  0
    7.1280   -7.0319   -2.1641 C   0  0  0  0  0  0  0  0  0  0  0  0
    7.3680   -8.2111   -2.0637 O   0  0  0  0  0  0  0  0  0  0  0  0
    5.7622   -6.3831   -2.3709 C   0  0  1  0  0  0  0  0  0  0  0  0
    4.7399   -6.6005   -1.2166 C   0  0  1  0  0  0  0  0  0  0  0  0
    5.3747   -5.6623   -0.1525 C   0  0  0  0  0  0  0  0  0  0  0  0
    5.3021   -4.3703   -1.0364 C   0  0  2  0  0  0  0  0  0  0  0  0
    3.7652   -4.3996   -1.1984 C   0  0  1  0  0  0  0  0  0  0  0  0
    2.5572   -3.7580   -1.8519 C   0  0  0  0  0  0  0  0  0  0  0  0
    2.2972   -2.3512   -2.1706 C   0  0  0  0  0  0  0  0  0  0  0  0
    1.0343   -1.9354   -2.6404 C   0  0  0  0  0  0  0  0  0  0  0  0
    0.7906   -0.5993   -2.9390 C   0  0  0  0  0  0  0  0  0  0  0  0
    1.8139    0.3444   -2.7726 C   0  0  0  0  0  0  0  0  0  0  0  0
    1.5090    2.0216   -3.1491 Cl  0  0  0  0  0  0  0  0  0  0  0  0
    3.0740   -0.0438   -2.3123 C   0  0  0  0  0  0  0  0  0  0  0  0
    3.3089   -1.3877   -2.0162 C   0  0  0  0  0  0  0  0  0  0  0  0
    1.6163   -4.6569   -1.9180 N   0  0  0  0  0  0  0  0  0  0  0  0
    2.1220   -5.9280   -1.5487 O   0  0  0  0  0  0  0  0  0  0  0  0
    3.5299   -5.7821   -1.7599 C   0  0  2  0  0  0  0  0  0  0  0  0
    6.0377   -4.8499   -2.3237 C   0  0  1  0  0  0  0  0  0  0  0  0
    7.5541   -4.7321   -2.2027 C   0  0  0  0  0  0  0  0  0  0  0  0
    8.2048   -3.7148   -2.1527 O   0  0  0  0  0  0  0  0  0  0  0  0
   13.1634   -5.8112    0.6173 H   0  0  0  0  0  0  0  0  0  0  0  0
   11.7165   -5.9007    1.6612 H   0  0  0  0  0  0  0  0  0  0  0  0
   11.9176   -4.5458    0.5065 H   0  0  0  0  0  0  0  0  0  0  0  0
   12.8087   -7.9522   -0.3954 H   0  0  0  0  0  0  0  0  0  0  0  0
   11.2748   -8.3254   -1.2043 H   0  0  0  0  0  0  0  0  0  0  0  0
   11.3409   -8.2688    0.5797 H   0  0  0  0  0  0  0  0  0  0  0  0
    9.8497   -5.0158   -0.2893 H   0  0  0  0  0  0  0  0  0  0  0  0
    9.3837   -6.6794    0.1444 H   0  0  0  0  0  0  0  0  0  0  0  0
    9.6768   -7.3149   -2.3184 H   0  0  0  0  0  0  0  0  0  0  0  0
   10.0628   -5.5996   -2.6582 H   0  0  0  0  0  0  0  0  0  0  0  0
    5.3713   -6.7416   -3.3352 H   0  0  0  0  0  0  0  0  0  0  0  0
    4.5732   -7.6504   -0.9461 H   0  0  0  0  0  0  0  0  0  0  0  0
    6.3979   -5.9604    0.1205 H   0  0  0  0  0  0  0  0  0  0  0  0
    4.7964   -5.5745    0.7774 H   0  0  0  0  0  0  0  0  0  0  0  0
    5.7315   -3.4597   -0.5985 H   0  0  0  0  0  0  0  0  0  0  0  0
    3.4127   -4.4439   -0.1485 H   0  0  0  0  0  0  0  0  0  0  0  0
    0.2465   -2.6802   -2.7657 H   0  0  0  0  0  0  0  0  0  0  0  0
   -0.1872   -0.2779   -3.3015 H   0  0  0  0  0  0  0  0  0  0  0  0
    3.8624    0.7006   -2.1905 H   0  0  0  0  0  0  0  0  0  0  0  0
    4.2971   -1.6872   -1.6616 H   0  0  0  0  0  0  0  0  0  0  0  0
    3.6209   -5.7537   -2.8631 H   0  0  0  0  0  0  0  0  0  0  0  0
    5.7151   -4.2937   -3.2164 H   0  0  0  0  0  0  0  0  0  0  0  0
  1  2  1  0
  1 28  1  0
  1 29  1  0
  1 30  1  0
  2  3  1  0
  2  4  1  0
  3 31  1  0
  3 32  1  0
  3 33  1  0
  4  5  1  0
  4 34  1  0
  4 35  1  0
  5  6  1  0
  5 36  1  0
  5 37  1  0
  6  7  1  0
  6 26  1  0
  7  8  2  0
  7  9  1  0
  9 10  1  0
  9 25  1  0
  9 38  1  6
 10 11  1  0
 10 24  1  0
 10 39  1  1
 11 12  1  0
 11 40  1  0
 11 41  1  0
 12 13  1  0
 12 25  1  0
 12 42  1  1
 13 14  1  0
 13 24  1  0
 13 43  1  1
 14 15  1  0
 14 22  2  0
 15 16  2  0
 15 21  1  0
 16 17  1  0
 16 44  1  0
 17 18  2  0
 17 45  1  0
 18 19  1  0
 18 20  1  0
 20 21  2  0
 20 46  1  0
 21 47  1  0
 22 23  1  0
 23 24  1  0
 24 48  1  6
 25 26  1  0
 25 49  1  6
 26 27  2  0
M  END

