
     RDKit          3D

 53 56  0  0  0  0  0  0  0  0999 V2000
    2.3368   -2.7283    2.0431 C   0  0  0  0  0  0  0  0  0  0  0  0
    3.6584   -2.4611    1.3232 C   0  0  0  0  0  0  0  0  0  0  0  0
    3.5353   -1.3461    0.2818 C   0  0  0  0  0  0  0  0  0  0  0  0
    4.8069   -1.0574   -0.3939 N   0  0  0  0  0  0  0  0  0  0  0  0
    5.5936   -0.1800    0.2129 N   0  0  0  0  0  0  0  0  0  0  0  0
    6.7589    0.1379   -0.2828 C   0  0  0  0  0  0  0  0  0  0  0  0
    7.5348    1.1520    0.5077 C   0  0  0  0  0  0  0  0  0  0  0  0
    8.6148    1.5957    0.1894 O   0  0  0  0  0  0  0  0  0  0  0  0
    6.8994    1.5180    1.6374 O   0  0  0  0  0  0  0  0  0  0  0  0
    7.5337    2.5176    2.4466 C   0  0  0  0  0  0  0  0  0  0  0  0
    7.1867    3.9248    2.0141 C   0  0  0  0  0  0  0  0  0  0  0  0
    8.1768    4.7856    1.6637 C   0  0  0  0  0  0  0  0  0  0  0  0
    7.9174    6.1759    1.3002 C   0  0  0  0  0  0  0  0  0  0  0  0
    8.7397    6.9947    0.9848 O   0  0  0  0  0  0  0  0  0  0  0  0
    6.5858    6.5608    1.3376 O   0  0  0  0  0  0  0  0  0  0  0  0
    5.5580    5.7295    1.6680 C   0  0  0  0  0  0  0  0  0  0  0  0
    4.2632    6.2832    1.6524 C   0  0  0  0  0  0  0  0  0  0  0  0
    4.0501    7.7297    1.2845 C   0  0  0  0  0  0  0  0  0  0  0  0
    3.1798    5.4475    1.9891 C   0  0  0  0  0  0  0  0  0  0  0  0
    1.7743    5.9921    1.9869 C   0  0  0  0  0  0  0  0  0  0  0  0
    3.4155    4.1002    2.3229 C   0  0  0  0  0  0  0  0  0  0  0  0
    4.6978    3.5699    2.3343 C   0  0  0  0  0  0  0  0  0  0  0  0
    5.8037    4.3802    2.0108 C   0  0  0  0  0  0  0  0  0  0  0  0
    7.2648   -0.4473   -1.5209 C   0  0  0  0  0  0  0  0  0  0  0  0
    8.5084   -0.1416   -2.1228 C   0  0  0  0  0  0  0  0  0  0  0  0
    8.8824   -0.7669   -3.3059 C   0  0  0  0  0  0  0  0  0  0  0  0
    8.0430   -1.7092   -3.9263 C   0  0  0  0  0  0  0  0  0  0  0  0
    6.8200   -2.0236   -3.3514 C   0  0  0  0  0  0  0  0  0  0  0  0
    6.4260   -1.3986   -2.1554 C   0  0  0  0  0  0  0  0  0  0  0  0
    5.1228   -1.7581   -1.5749 C   0  0  0  0  0  0  0  0  0  0  0  0
    4.3486   -2.5795   -2.0366 O   0  0  0  0  0  0  0  0  0  0  0  0
    2.4462   -3.5324    2.7871 H   0  0  0  0  0  0  0  0  0  0  0  0
    1.5481   -3.0350    1.3363 H   0  0  0  0  0  0  0  0  0  0  0  0
    1.9770   -1.8310    2.5742 H   0  0  0  0  0  0  0  0  0  0  0  0
    4.0049   -3.3783    0.8186 H   0  0  0  0  0  0  0  0  0  0  0  0
    4.4387   -2.1787    2.0506 H   0  0  0  0  0  0  0  0  0  0  0  0
    3.2119   -0.4059    0.7507 H   0  0  0  0  0  0  0  0  0  0  0  0
    2.8147   -1.6290   -0.4972 H   0  0  0  0  0  0  0  0  0  0  0  0
    8.6220    2.3769    2.4273 H   0  0  0  0  0  0  0  0  0  0  0  0
    7.1588    2.3321    3.4639 H   0  0  0  0  0  0  0  0  0  0  0  0
    9.2236    4.4807    1.6335 H   0  0  0  0  0  0  0  0  0  0  0  0
    4.9981    8.2299    1.0566 H   0  0  0  0  0  0  0  0  0  0  0  0
    3.5589    8.2801    2.1044 H   0  0  0  0  0  0  0  0  0  0  0  0
    3.3923    7.8226    0.4040 H   0  0  0  0  0  0  0  0  0  0  0  0
    1.4918    6.3793    0.9933 H   0  0  0  0  0  0  0  0  0  0  0  0
    1.6655    6.8340    2.6914 H   0  0  0  0  0  0  0  0  0  0  0  0
    1.0447    5.2196    2.2685 H   0  0  0  0  0  0  0  0  0  0  0  0
    2.5665    3.4592    2.5734 H   0  0  0  0  0  0  0  0  0  0  0  0
    4.8485    2.5149    2.5647 H   0  0  0  0  0  0  0  0  0  0  0  0
    9.1612    0.5871   -1.6481 H   0  0  0  0  0  0  0  0  0  0  0  0
    9.8459   -0.5188   -3.7585 H   0  0  0  0  0  0  0  0  0  0  0  0
    8.3534   -2.1906   -4.8567 H   0  0  0  0  0  0  0  0  0  0  0  0
    6.1395   -2.7496   -3.7997 H   0  0  0  0  0  0  0  0  0  0  0  0
  1  2  1  0
  1 32  1  0
  1 33  1  0
  1 34  1  0
  2  3  1  0
  2 35  1  0
  2 36  1  0
  3  4  1  0
  3 37  1  0
  3 38  1  0
  4  5  1  0
  4 30  1  0
  5  6  2  0
  6  7  1  0
  6 24  1  0
  7  8  2  0
  7  9  1  0
  9 10  1  0
 10 11  1  0
 10 39  1  0
 10 40  1  0
 11 12  2  0
 11 23  1  0
 12 13  1  0
 12 41  1  0
 13 14  2  0
 13 15  1  0
 15 16  1  0
 16 17  1  0
 16 23  2  0
 17 18  1  0
 17 19  2  0
 18 42  1  0
 18 43  1  0
 18 44  1  0
 19 20  1  0
 19 21  1  0
 20 45  1  0
 20 46  1  0
 20 47  1  0
 21 22  2  0
 21 48  1  0
 22 23  1  0
 22 49  1  0
 24 25  1  0
 24 29  2  0
 25 26  2  0
 25 50  1  0
 26 27  1  0
 26 51  1  0
 27 28  2  0
 27 52  1  0
 28 29  1  0
 28 53  1  0
 29 30  1  0
 30 31  2  0
M  END

