
     RDKit          3D

 46 48  0  0  0  0  0  0  0  0999 V2000
    0.3626   -1.4099   -2.2229 C   0  0  0  0  0  0  0  0  0  0  0  0
    1.0174   -0.6728   -1.0355 C   0  0  1  0  0  0  0  0  0  0  0  0
    2.4290   -1.2027   -0.7986 C   0  0  0  0  0  0  0  0  0  0  0  0
    2.5692   -2.4077   -0.1735 N   0  0  0  0  0  0  0  0  0  0  0  0
    3.7522   -3.2664   -0.3776 C   0  0  0  0  0  0  0  0  0  0  0  0
    3.4033   -4.7381   -0.5003 C   0  0  0  0  0  0  0  0  0  0  0  0
    2.6191   -5.1976   -1.5716 C   0  0  0  0  0  0  0  0  0  0  0  0
    2.3230   -6.5552   -1.7074 C   0  0  0  0  0  0  0  0  0  0  0  0
    2.8151   -7.4770   -0.7762 C   0  0  0  0  0  0  0  0  0  0  0  0
    3.6034   -7.0319    0.2877 C   0  0  0  0  0  0  0  0  0  0  0  0
    3.8932   -5.6699    0.4249 C   0  0  0  0  0  0  0  0  0  0  0  0
    1.6876   -2.8325    0.9279 C   0  0  0  0  0  0  0  0  0  0  0  0
    2.3098   -2.6625    2.3061 C   0  0  0  0  0  0  0  0  0  0  0  0
    2.8851   -1.4428    2.6968 C   0  0  0  0  0  0  0  0  0  0  0  0
    3.4095   -1.2905    3.9823 C   0  0  0  0  0  0  0  0  0  0  0  0
    3.3629   -2.3498    4.8949 C   0  0  0  0  0  0  0  0  0  0  0  0
    2.7921   -3.5667    4.5139 C   0  0  0  0  0  0  0  0  0  0  0  0
    2.2733   -3.7217    3.2245 C   0  0  0  0  0  0  0  0  0  0  0  0
    3.4465   -0.4869   -1.4113 C   0  0  0  0  0  0  0  0  0  0  0  0
    4.8542   -0.7614   -1.0956 N   0  0  0  0  0  0  0  0  0  0  0  0
    5.1535   -0.7701    0.0928 O   0  0  0  0  0  0  0  0  0  0  0  0
    5.6391   -0.9559   -2.0087 O   0  0  0  0  0  0  0  0  0  0  0  0
    3.1116    0.6683   -2.2461 C   0  0  0  0  0  0  0  0  0  0  0  0
    4.3230    1.2829   -3.3506 Cl  0  0  0  0  0  0  0  0  0  0  0  0
    1.9922    1.2805   -2.2281 N   0  0  0  0  0  0  0  0  0  0  0  0
    1.0429    0.8385   -1.2617 C   0  0  2  0  0  0  0  0  0  0  0  0
    1.3777    1.6704    0.3694 Cl  0  0  0  0  0  0  0  0  0  0  0  0
    0.3356   -2.4934   -2.0351 H   0  0  0  0  0  0  0  0  0  0  0  0
    0.9138   -1.2342   -3.1587 H   0  0  0  0  0  0  0  0  0  0  0  0
   -0.6722   -1.0617   -2.3642 H   0  0  0  0  0  0  0  0  0  0  0  0
    0.3980   -0.8369   -0.1464 H   0  0  0  0  0  0  0  0  0  0  0  0
    4.4873   -3.1101    0.4277 H   0  0  0  0  0  0  0  0  0  0  0  0
    4.2263   -2.9566   -1.3167 H   0  0  0  0  0  0  0  0  0  0  0  0
    2.2439   -4.4842   -2.3112 H   0  0  0  0  0  0  0  0  0  0  0  0
    1.7144   -6.8982   -2.5481 H   0  0  0  0  0  0  0  0  0  0  0  0
    2.5878   -8.5405   -0.8846 H   0  0  0  0  0  0  0  0  0  0  0  0
    3.9963   -7.7462    1.0157 H   0  0  0  0  0  0  0  0  0  0  0  0
    4.5081   -5.3251    1.2604 H   0  0  0  0  0  0  0  0  0  0  0  0
    1.4194   -3.8867    0.7737 H   0  0  0  0  0  0  0  0  0  0  0  0
    0.7514   -2.2656    0.8795 H   0  0  0  0  0  0  0  0  0  0  0  0
    2.9342   -0.6080    1.9941 H   0  0  0  0  0  0  0  0  0  0  0  0
    3.8582   -0.3370    4.2719 H   0  0  0  0  0  0  0  0  0  0  0  0
    3.7745   -2.2268    5.8999 H   0  0  0  0  0  0  0  0  0  0  0  0
    2.7543   -4.4011    5.2190 H   0  0  0  0  0  0  0  0  0  0  0  0
    1.8342   -4.6788    2.9279 H   0  0  0  0  0  0  0  0  0  0  0  0
    0.0438    1.2060   -1.5259 H   0  0  0  0  0  0  0  0  0  0  0  0
  1  2  1  0
  1 28  1  0
  1 29  1  0
  1 30  1  0
  2  3  1  0
  2 26  1  0
  2 31  1  1
  3  4  1  0
  3 19  2  0
  4  5  1  0
  4 12  1  0
  5  6  1  0
  5 32  1  0
  5 33  1  0
  6  7  2  0
  6 11  1  0
  7  8  1  0
  7 34  1  0
  8  9  2  0
  8 35  1  0
  9 10  1  0
  9 36  1  0
 10 11  2  0
 10 37  1  0
 11 38  1  0
 12 13  1  0
 12 39  1  0
 12 40  1  0
 13 14  2  0
 13 18  1  0
 14 15  1  0
 14 41  1  0
 15 16  2  0
 15 42  1  0
 16 17  1  0
 16 43  1  0
 17 18  2  0
 17 44  1  0
 18 45  1  0
 19 20  1  0
 19 23  1  0
 20 21  2  0
 20 22  1  0
 23 24  1  0
 23 25  2  0
 25 26  1  0
 26 27  1  0
 26 46  1  6
M  CHG  2  20   1  22  -1
M  END

