
     RDKit          3D

 25 26  0  0  0  0  0  0  0  0999 V2000
   11.7169   -3.4812   -0.3788 F   0  0  0  0  0  0  0  0  0  0  0  0
   11.0158   -2.4130   -0.7736 C   0  0  0  0  0  0  0  0  0  0  0  0
    9.7366   -2.5911   -1.2984 C   0  0  0  0  0  0  0  0  0  0  0  0
    9.0229   -1.4644   -1.7094 C   0  0  0  0  0  0  0  0  0  0  0  0
    9.5548   -0.1685   -1.5958 C   0  0  0  0  0  0  0  0  0  0  0  0
    8.6472    1.2495   -2.1980 S   0  0  0  0  0  0  0  0  0  0  0  0
    7.7106    1.7805   -0.6958 C   0  0  2  0  0  0  0  0  0  0  0  0
    7.1344    0.9086   -0.3532 H   0  0  0  0  0  0  0  0  0  0  0  0
    6.7568    2.9535   -1.0668 C   0  0  0  0  0  0  0  0  0  0  0  0
    7.2023    4.1069   -0.1329 C   0  0  0  0  0  0  0  0  0  0  0  0
    7.8281    3.4803    1.0301 N   0  0  0  0  0  0  0  0  0  0  0  0
    8.5787    2.3630    0.4644 C   0  0  0  0  0  0  0  0  0  0  0  0
   10.8503   -0.0465   -1.0670 C   0  0  0  0  0  0  0  0  0  0  0  0
   11.4108    1.1596   -0.9433 F   0  0  0  0  0  0  0  0  0  0  0  0
   11.5908   -1.1509   -0.6495 C   0  0  0  0  0  0  0  0  0  0  0  0
    9.3245   -3.5976   -1.3867 H   0  0  0  0  0  0  0  0  0  0  0  0
    8.0249   -1.5770   -2.1382 H   0  0  0  0  0  0  0  0  0  0  0  0
    5.7146    2.6652   -0.8577 H   0  0  0  0  0  0  0  0  0  0  0  0
    6.8075    3.2241   -2.1334 H   0  0  0  0  0  0  0  0  0  0  0  0
    6.3781    4.7727    0.1641 H   0  0  0  0  0  0  0  0  0  0  0  0
    7.9585    4.7287   -0.6436 H   0  0  0  0  0  0  0  0  0  0  0  0
    7.1001    3.1230    1.6503 H   0  0  0  0  0  0  0  0  0  0  0  0
    8.8263    1.6180    1.2345 H   0  0  0  0  0  0  0  0  0  0  0  0
    9.5258    2.7379    0.0446 H   0  0  0  0  0  0  0  0  0  0  0  0
   12.5941   -1.0259   -0.2408 H   0  0  0  0  0  0  0  0  0  0  0  0
  1  2  1  0
  2  3  2  0
  2 15  1  0
  3  4  1  0
  3 16  1  0
  4  5  2  0
  4 17  1  0
  5  6  1  0
  5 13  1  0
  6  7  1  0
  7  8  1  1
  7  9  1  0
  7 12  1  0
  9 10  1  0
  9 18  1  0
  9 19  1  0
 10 11  1  0
 10 20  1  0
 10 21  1  0
 11 12  1  0
 11 22  1  0
 12 23  1  0
 12 24  1  0
 13 14  1  0
 13 15  2  0
 15 25  1  0
M  END

