
     RDKit          3D

 59 62  0  0  0  0  0  0  0  0999 V2000
    3.1576   -5.9179   -1.0177 C   0  0  0  0  0  0  0  0  0  0  0  0
    3.0017   -4.8261   -0.1183 O   0  0  0  0  0  0  0  0  0  0  0  0
    3.6712   -3.6808   -0.4152 C   0  0  0  0  0  0  0  0  0  0  0  0
    4.8466   -3.3752    0.2798 C   0  0  0  0  0  0  0  0  0  0  0  0
    5.5347   -2.1683    0.0660 C   0  0  0  0  0  0  0  0  0  0  0  0
    6.7987   -1.9109    0.8069 C   0  0  0  0  0  0  0  0  0  0  0  0
    7.7033   -2.9093    0.7652 O   0  0  0  0  0  0  0  0  0  0  0  0
    7.0740   -0.7878    1.5265 C   0  0  0  0  0  0  0  0  0  0  0  0
    8.3642   -0.5079    2.1789 C   0  0  0  0  0  0  0  0  0  0  0  0
    9.3733   -1.1731    2.2381 O   0  0  0  0  0  0  0  0  0  0  0  0
    8.2325    0.8919    2.8136 C   0  0  0  0  0  0  0  0  0  0  0  0
    9.0844    1.4792    3.4396 O   0  0  0  0  0  0  0  0  0  0  0  0
    6.9615    1.3392    2.5112 N   0  0  0  0  0  0  0  0  0  0  0  0
    6.4643    2.6005    2.9554 C   0  0  0  0  0  0  0  0  0  0  0  0
    6.3396    2.8339    4.3323 C   0  0  0  0  0  0  0  0  0  0  0  0
    5.8667    4.0569    4.8054 C   0  0  0  0  0  0  0  0  0  0  0  0
    5.5099    5.0567    3.8970 C   0  0  0  0  0  0  0  0  0  0  0  0
    5.6467    4.8293    2.5269 C   0  0  0  0  0  0  0  0  0  0  0  0
    6.1322    3.6105    2.0265 C   0  0  0  0  0  0  0  0  0  0  0  0
    6.3095    3.4197    0.5399 C   0  0  0  0  0  0  0  0  0  0  0  0
    6.0993    0.3475    1.8260 C   0  0  2  0  0  0  0  0  0  0  0  0
    4.8951   -0.0568    2.6672 C   0  0  0  0  0  0  0  0  0  0  0  0
    3.5962    0.2972    2.2871 C   0  0  0  0  0  0  0  0  0  0  0  0
    2.4825   -0.0483    3.0520 C   0  0  0  0  0  0  0  0  0  0  0  0
    2.6265   -0.7734    4.2598 C   0  0  0  0  0  0  0  0  0  0  0  0
    1.5326   -1.1230    5.0295 N   0  0  0  0  0  0  0  0  0  0  0  0
    0.2009   -0.7419    4.6093 C   0  0  0  0  0  0  0  0  0  0  0  0
    1.7174   -1.8586    6.2629 C   0  0  0  0  0  0  0  0  0  0  0  0
    3.9464   -1.1269    4.6454 C   0  0  0  0  0  0  0  0  0  0  0  0
    5.0417   -0.7744    3.8638 C   0  0  0  0  0  0  0  0  0  0  0  0
    5.0402   -1.2679   -0.8916 C   0  0  0  0  0  0  0  0  0  0  0  0
    3.8747   -1.5604   -1.5989 C   0  0  0  0  0  0  0  0  0  0  0  0
    3.1885   -2.7545   -1.3614 C   0  0  0  0  0  0  0  0  0  0  0  0
    1.7067   -3.0828   -2.2196 Cl  0  0  0  0  0  0  0  0  0  0  0  0
    2.5583   -6.7453   -0.6148 H   0  0  0  0  0  0  0  0  0  0  0  0
    4.2142   -6.2350   -1.0788 H   0  0  0  0  0  0  0  0  0  0  0  0
    2.7943   -5.6697   -2.0286 H   0  0  0  0  0  0  0  0  0  0  0  0
    5.1890   -4.0920    1.0299 H   0  0  0  0  0  0  0  0  0  0  0  0
    7.4324   -3.5558    0.0982 H   0  0  0  0  0  0  0  0  0  0  0  0
    6.6225    2.0424    5.0274 H   0  0  0  0  0  0  0  0  0  0  0  0
    5.7757    4.2268    5.8810 H   0  0  0  0  0  0  0  0  0  0  0  0
    5.1362    6.0195    4.2547 H   0  0  0  0  0  0  0  0  0  0  0  0
    5.3878    5.6227    1.8199 H   0  0  0  0  0  0  0  0  0  0  0  0
    6.4370    4.3883    0.0345 H   0  0  0  0  0  0  0  0  0  0  0  0
    5.4321    2.9306    0.0803 H   0  0  0  0  0  0  0  0  0  0  0  0
    7.1886    2.7976    0.3150 H   0  0  0  0  0  0  0  0  0  0  0  0
    5.7159    0.8013    0.8996 H   0  0  0  0  0  0  0  0  0  0  0  0
    3.4404    0.8610    1.3623 H   0  0  0  0  0  0  0  0  0  0  0  0
    1.4961    0.2536    2.7021 H   0  0  0  0  0  0  0  0  0  0  0  0
   -0.0668   -1.1722    3.6260 H   0  0  0  0  0  0  0  0  0  0  0  0
    0.0830    0.3555    4.5330 H   0  0  0  0  0  0  0  0  0  0  0  0
   -0.5313   -1.1054    5.3417 H   0  0  0  0  0  0  0  0  0  0  0  0
    2.1975   -2.8412    6.0971 H   0  0  0  0  0  0  0  0  0  0  0  0
    0.7404   -2.0409    6.7286 H   0  0  0  0  0  0  0  0  0  0  0  0
    2.3386   -1.3061    6.9927 H   0  0  0  0  0  0  0  0  0  0  0  0
    4.1214   -1.6843    5.5648 H   0  0  0  0  0  0  0  0  0  0  0  0
    6.0391   -1.0725    4.2000 H   0  0  0  0  0  0  0  0  0  0  0  0
    5.5800   -0.3432   -1.1015 H   0  0  0  0  0  0  0  0  0  0  0  0
    3.4861   -0.8653   -2.3450 H   0  0  0  0  0  0  0  0  0  0  0  0
  1  2  1  0
  1 35  1  0
  1 36  1  0
  1 37  1  0
  2  3  1  0
  3  4  2  0
  3 33  1  0
  4  5  1  0
  4 38  1  0
  5  6  1  0
  5 31  2  0
  6  7  1  0
  6  8  2  0
  7 39  1  0
  8  9  1  0
  8 21  1  0
  9 10  2  0
  9 11  1  0
 11 12  2  0
 11 13  1  0
 13 14  1  0
 13 21  1  0
 14 15  2  0
 14 19  1  0
 15 16  1  0
 15 40  1  0
 16 17  2  0
 16 41  1  0
 17 18  1  0
 17 42  1  0
 18 19  2  0
 18 43  1  0
 19 20  1  0
 20 44  1  0
 20 45  1  0
 20 46  1  0
 21 22  1  0
 21 47  1  6
 22 23  2  0
 22 30  1  0
 23 24  1  0
 23 48  1  0
 24 25  2  0
 24 49  1  0
 25 26  1  0
 25 29  1  0
 26 27  1  0
 26 28  1  0
 27 50  1  0
 27 51  1  0
 27 52  1  0
 28 53  1  0
 28 54  1  0
 28 55  1  0
 29 30  2  0
 29 56  1  0
 30 57  1  0
 31 32  1  0
 31 58  1  0
 32 33  2  0
 32 59  1  0
 33 34  1  0
M  END

