
     RDKit          3D

 37 39  0  0  0  0  0  0  0  0999 V2000
    5.7499    1.9887    1.1450 C   0  0  0  0  0  0  0  0  0  0  0  0
    4.9074    1.0941    0.2672 C   0  0  0  0  0  0  0  0  0  0  0  0
    3.8323    1.5998   -0.4743 C   0  0  0  0  0  0  0  0  0  0  0  0
    3.0896    0.7601   -1.3118 C   0  0  0  0  0  0  0  0  0  0  0  0
    3.3996   -0.5955   -1.4126 C   0  0  0  0  0  0  0  0  0  0  0  0
    4.4592   -1.1325   -0.6593 C   0  0  0  0  0  0  0  0  0  0  0  0
    4.8158   -2.6119   -0.7588 C   0  0  1  0  0  0  0  0  0  0  0  0
    6.0064   -2.9604   -0.0864 O   0  0  0  0  0  0  0  0  0  0  0  0
    3.6942   -3.5749   -0.2835 C   0  0  1  0  0  0  0  0  0  0  0  0
    2.5399   -3.3338   -1.0166 F   0  0  0  0  0  0  0  0  0  0  0  0
    4.1423   -5.0402   -0.5673 C   0  0  0  0  0  0  0  0  0  0  0  0
    4.4248   -5.4998   -1.6469 O   0  0  0  0  0  0  0  0  0  0  0  0
    4.1487   -5.7160    0.6408 N   0  0  0  0  0  0  0  0  0  0  0  0
    4.5196   -7.1061    0.7707 C   0  0  0  0  0  0  0  0  0  0  0  0
    3.7371   -4.8814    1.6880 C   0  0  0  0  0  0  0  0  0  0  0  0
    3.6034   -5.1975    3.0388 C   0  0  0  0  0  0  0  0  0  0  0  0
    3.1400   -4.1921    3.9025 C   0  0  0  0  0  0  0  0  0  0  0  0
    2.8205   -2.9161    3.4303 C   0  0  0  0  0  0  0  0  0  0  0  0
    2.9669   -2.6092    2.0665 C   0  0  0  0  0  0  0  0  0  0  0  0
    3.4317   -3.5934    1.2016 C   0  0  0  0  0  0  0  0  0  0  0  0
    5.2052   -0.2753    0.1580 C   0  0  0  0  0  0  0  0  0  0  0  0
    5.3011    2.9871    1.2549 H   0  0  0  0  0  0  0  0  0  0  0  0
    6.7607    2.1228    0.7226 H   0  0  0  0  0  0  0  0  0  0  0  0
    5.8784    1.5615    2.1530 H   0  0  0  0  0  0  0  0  0  0  0  0
    3.5796    2.6618   -0.4057 H   0  0  0  0  0  0  0  0  0  0  0  0
    2.2621    1.1706   -1.8965 H   0  0  0  0  0  0  0  0  0  0  0  0
    2.8178   -1.2417   -2.0707 H   0  0  0  0  0  0  0  0  0  0  0  0
    4.9829   -2.8686   -1.8184 H   0  0  0  0  0  0  0  0  0  0  0  0
    5.8602   -2.8408    0.8637 H   0  0  0  0  0  0  0  0  0  0  0  0
    4.7647   -7.4774   -0.2332 H   0  0  0  0  0  0  0  0  0  0  0  0
    3.6894   -7.7027    1.1846 H   0  0  0  0  0  0  0  0  0  0  0  0
    5.4002   -7.2242    1.4242 H   0  0  0  0  0  0  0  0  0  0  0  0
    3.8419   -6.1930    3.4174 H   0  0  0  0  0  0  0  0  0  0  0  0
    3.0243   -4.4186    4.9656 H   0  0  0  0  0  0  0  0  0  0  0  0
    2.4538   -2.1551    4.1225 H   0  0  0  0  0  0  0  0  0  0  0  0
    2.7142   -1.6166    1.6888 H   0  0  0  0  0  0  0  0  0  0  0  0
    6.0605   -0.6738    0.7084 H   0  0  0  0  0  0  0  0  0  0  0  0
  1  2  1  0
  1 22  1  0
  1 23  1  0
  1 24  1  0
  2  3  2  0
  2 21  1  0
  3  4  1  0
  3 25  1  0
  4  5  2  0
  4 26  1  0
  5  6  1  0
  5 27  1  0
  6  7  1  0
  6 21  2  0
  7  8  1  0
  7  9  1  0
  7 28  1  6
  8 29  1  0
  9 10  1  6
  9 11  1  0
  9 20  1  0
 11 12  2  0
 11 13  1  0
 13 14  1  0
 13 15  1  0
 14 30  1  0
 14 31  1  0
 14 32  1  0
 15 16  1  0
 15 20  2  0
 16 17  2  0
 16 33  1  0
 17 18  1  0
 17 34  1  0
 18 19  2  0
 18 35  1  0
 19 20  1  0
 19 36  1  0
 21 37  1  0
M  END

