
     RDKit          3D

 58 62  0  0  0  0  0  0  0  0999 V2000
    0.5858    0.6440   -0.6038 C   0  0  0  0  0  0  0  0  0  0  0  0
    1.2827    0.3637    0.5880 O   0  0  0  0  0  0  0  0  0  0  0  0
    2.2991    1.1774    0.9721 C   0  0  0  0  0  0  0  0  0  0  0  0
    2.9433    0.8356    2.1762 C   0  0  0  0  0  0  0  0  0  0  0  0
    3.9731    1.6282    2.6664 C   0  0  0  0  0  0  0  0  0  0  0  0
    4.3936    2.7597    1.9571 C   0  0  0  0  0  0  0  0  0  0  0  0
    3.7918    3.0948    0.7370 C   0  0  0  0  0  0  0  0  0  0  0  0
    2.7290    2.3009    0.2575 C   0  0  0  0  0  0  0  0  0  0  0  0
    4.2465    4.3068   -0.0098 C   0  0  0  0  0  0  0  0  0  0  0  0
    4.2540    4.2101   -1.4028 N   0  0  0  0  0  0  0  0  0  0  0  0
    4.8283    3.0313   -2.0596 C   0  0  0  0  0  0  0  0  0  0  0  0
    4.2636    2.8757   -3.4692 C   0  0  0  0  0  0  0  0  0  0  0  0
    4.4277    4.1046   -4.2457 N   0  0  0  0  0  0  0  0  0  0  0  0
    5.3001    4.0772   -5.3123 C   0  0  0  0  0  0  0  0  0  0  0  0
    5.9538    3.0852   -5.6013 O   0  0  0  0  0  0  0  0  0  0  0  0
    5.4337    5.3102   -6.1788 C   0  0  0  0  0  0  0  0  0  0  0  0
    4.3331    5.9994   -6.7107 C   0  0  0  0  0  0  0  0  0  0  0  0
    4.5211    7.0572   -7.6056 C   0  0  0  0  0  0  0  0  0  0  0  0
    5.8072    7.4486   -7.9726 C   0  0  0  0  0  0  0  0  0  0  0  0
    6.9186    6.7567   -7.4534 C   0  0  0  0  0  0  0  0  0  0  0  0
    8.2492    7.1478   -7.8326 C   0  0  0  0  0  0  0  0  0  0  0  0
    9.3213    7.4706   -8.1393 N   0  0  0  0  0  0  0  0  0  0  0  0
    6.7257    5.6798   -6.5729 C   0  0  0  0  0  0  0  0  0  0  0  0
    3.9134    5.3199   -3.5897 C   0  0  1  0  0  0  0  0  0  0  0  0
    4.2979    6.1833   -4.1475 H   0  0  0  0  0  0  0  0  0  0  0  0
    2.3806    5.3807   -3.5886 C   0  0  0  0  0  0  0  0  0  0  0  0
    4.5002    5.4270   -2.1685 C   0  0  0  0  0  0  0  0  0  0  0  0
    4.5237    5.4453    0.5260 N   0  0  0  0  0  0  0  0  0  0  0  0
    4.5548    5.7165    1.8881 C   0  0  0  0  0  0  0  0  0  0  0  0
    4.2159    7.0101    2.3338 C   0  0  0  0  0  0  0  0  0  0  0  0
    4.3285    7.3696    3.6761 C   0  0  0  0  0  0  0  0  0  0  0  0
    4.8117    6.4488    4.6123 C   0  0  0  0  0  0  0  0  0  0  0  0
    5.1612    5.1613    4.1963 C   0  0  0  0  0  0  0  0  0  0  0  0
    5.0275    4.8004    2.8567 C   0  0  0  0  0  0  0  0  0  0  0  0
    5.4202    3.5267    2.4672 O   0  0  0  0  0  0  0  0  0  0  0  0
   -0.1838   -0.1326   -0.7074 H   0  0  0  0  0  0  0  0  0  0  0  0
    1.2490    0.6078   -1.4876 H   0  0  0  0  0  0  0  0  0  0  0  0
    0.0933    1.6329   -0.5704 H   0  0  0  0  0  0  0  0  0  0  0  0
    2.6037   -0.0517    2.7139 H   0  0  0  0  0  0  0  0  0  0  0  0
    4.4733    1.3856    3.6057 H   0  0  0  0  0  0  0  0  0  0  0  0
    2.2491    2.5921   -0.6756 H   0  0  0  0  0  0  0  0  0  0  0  0
    4.6187    2.1292   -1.4726 H   0  0  0  0  0  0  0  0  0  0  0  0
    5.9304    3.1382   -2.1218 H   0  0  0  0  0  0  0  0  0  0  0  0
    3.1917    2.6179   -3.4163 H   0  0  0  0  0  0  0  0  0  0  0  0
    4.7906    2.0753   -4.0019 H   0  0  0  0  0  0  0  0  0  0  0  0
    3.3195    5.6953   -6.4424 H   0  0  0  0  0  0  0  0  0  0  0  0
    3.6559    7.5778   -8.0223 H   0  0  0  0  0  0  0  0  0  0  0  0
    5.9618    8.2789   -8.6641 H   0  0  0  0  0  0  0  0  0  0  0  0
    7.5816    5.1166   -6.1981 H   0  0  0  0  0  0  0  0  0  0  0  0
    1.9428    4.6003   -2.9493 H   0  0  0  0  0  0  0  0  0  0  0  0
    1.9750    5.2583   -4.6044 H   0  0  0  0  0  0  0  0  0  0  0  0
    2.0426    6.3531   -3.1984 H   0  0  0  0  0  0  0  0  0  0  0  0
    4.0564    6.2738   -1.6319 H   0  0  0  0  0  0  0  0  0  0  0  0
    5.5882    5.6276   -2.2352 H   0  0  0  0  0  0  0  0  0  0  0  0
    3.8725    7.7283    1.5862 H   0  0  0  0  0  0  0  0  0  0  0  0
    4.0542    8.3794    3.9911 H   0  0  0  0  0  0  0  0  0  0  0  0
    4.9204    6.7307    5.6622 H   0  0  0  0  0  0  0  0  0  0  0  0
    5.5473    4.4185    4.8975 H   0  0  0  0  0  0  0  0  0  0  0  0
  1  2  1  0
  1 36  1  0
  1 37  1  0
  1 38  1  0
  2  3  1  0
  3  4  2  0
  3  8  1  0
  4  5  1  0
  4 39  1  0
  5  6  2  0
  5 40  1  0
  6  7  1  0
  6 35  1  0
  7  8  2  0
  7  9  1  0
  8 41  1  0
  9 10  1  0
  9 28  2  0
 10 11  1  0
 10 27  1  0
 11 12  1  0
 11 42  1  0
 11 43  1  0
 12 13  1  0
 12 44  1  0
 12 45  1  0
 13 14  1  0
 13 24  1  0
 14 15  2  0
 14 16  1  0
 16 17  2  0
 16 23  1  0
 17 18  1  0
 17 46  1  0
 18 19  2  0
 18 47  1  0
 19 20  1  0
 19 48  1  0
 20 21  1  0
 20 23  2  0
 21 22  3  0
 23 49  1  0
 24 25  1  6
 24 26  1  0
 24 27  1  0
 26 50  1  0
 26 51  1  0
 26 52  1  0
 27 53  1  0
 27 54  1  0
 28 29  1  0
 29 30  1  0
 29 34  2  0
 30 31  2  0
 30 55  1  0
 31 32  1  0
 31 56  1  0
 32 33  2  0
 32 57  1  0
 33 34  1  0
 33 58  1  0
 34 35  1  0
M  END

