
     RDKit          3D

 66 68  0  0  0  0  0  0  0  0999 V2000
   13.1387   -2.4531    0.9062 C   0  0  0  0  0  0  0  0  0  0  0  0
   11.8453   -1.8812    0.9250 O   0  0  0  0  0  0  0  0  0  0  0  0
   10.7775   -2.6434    1.1897 C   0  0  0  0  0  0  0  0  0  0  0  0
   10.8381   -4.0246    1.4475 C   0  0  0  0  0  0  0  0  0  0  0  0
    9.6772   -4.7628    1.6806 C   0  0  0  0  0  0  0  0  0  0  0  0
    8.4080   -4.1659    1.6478 C   0  0  0  0  0  0  0  0  0  0  0  0
    7.1042   -4.8896    1.8704 C   0  0  0  0  0  0  0  0  0  0  0  0
    6.0509   -4.2727    1.7411 O   0  0  0  0  0  0  0  0  0  0  0  0
    7.1399   -6.3130    2.2370 C   0  0  0  0  0  0  0  0  0  0  0  0
    5.9541   -6.9751    2.3376 C   0  0  0  0  0  0  0  0  0  0  0  0
    5.6872   -8.2761    2.6408 N   0  0  0  0  0  0  0  0  0  0  0  0
    6.5246   -9.3118    3.0724 C   0  0  0  0  0  0  0  0  0  0  0  0
    7.7283   -9.1186    3.7607 C   0  0  0  0  0  0  0  0  0  0  0  0
    8.5026  -10.2072    4.2064 C   0  0  0  0  0  0  0  0  0  0  0  0
    9.7585   -9.9304    4.9132 C   0  0  0  0  0  0  0  0  0  0  0  0
   10.6904  -10.8310    5.2960 C   0  0  0  0  0  0  0  0  0  0  0  0
   11.9447  -10.5642    6.0072 C   0  0  0  0  0  0  0  0  0  0  0  0
   12.2734   -9.2945    6.5212 C   0  0  0  0  0  0  0  0  0  0  0  0
   13.4885   -9.0932    7.1851 C   0  0  0  0  0  0  0  0  0  0  0  0
   13.8806   -7.9151    7.7279 O   0  0  0  0  0  0  0  0  0  0  0  0
   13.0384   -6.7912    7.6185 C   0  0  0  0  0  0  0  0  0  0  0  0
   14.4094  -10.1561    7.3287 C   0  0  0  0  0  0  0  0  0  0  0  0
   15.6172   -9.9311    7.9115 O   0  0  0  0  0  0  0  0  0  0  0  0
   15.7248  -10.2766    9.2840 C   0  0  0  0  0  0  0  0  0  0  0  0
   14.0707  -11.4321    6.8358 C   0  0  0  0  0  0  0  0  0  0  0  0
   14.9969  -12.4012    7.0447 O   0  0  0  0  0  0  0  0  0  0  0  0
   14.7614  -13.6994    6.5489 C   0  0  0  0  0  0  0  0  0  0  0  0
   12.8492  -11.6292    6.1771 C   0  0  0  0  0  0  0  0  0  0  0  0
    8.0243  -11.5118    3.9736 C   0  0  0  0  0  0  0  0  0  0  0  0
    6.8157  -11.7072    3.3092 C   0  0  0  0  0  0  0  0  0  0  0  0
    6.1629  -13.4820    3.0695 Br  0  0  0  0  0  0  0  0  0  0  0  0
    6.0548  -10.6279    2.8388 C   0  0  0  0  0  0  0  0  0  0  0  0
    4.8421  -10.7790    2.2260 O   0  0  0  0  0  0  0  0  0  0  0  0
    4.8694  -11.0544    0.8236 C   0  0  0  0  0  0  0  0  0  0  0  0
    8.3407   -2.7918    1.3722 C   0  0  0  0  0  0  0  0  0  0  0  0
    9.4918   -2.0441    1.1712 C   0  0  0  0  0  0  0  0  0  0  0  0
    9.3298   -0.5959    0.9433 N   0  0  0  0  0  0  0  0  0  0  0  0
   10.1669    0.1520    1.4167 O   0  0  0  0  0  0  0  0  0  0  0  0
    8.3422   -0.2429    0.3174 O   0  0  0  0  0  0  0  0  0  0  0  0
   13.8301   -1.6336    0.6727 H   0  0  0  0  0  0  0  0  0  0  0  0
   13.2275   -3.2345    0.1315 H   0  0  0  0  0  0  0  0  0  0  0  0
   13.4067   -2.8821    1.8871 H   0  0  0  0  0  0  0  0  0  0  0  0
   11.8016   -4.5329    1.4606 H   0  0  0  0  0  0  0  0  0  0  0  0
    9.7843   -5.8308    1.8755 H   0  0  0  0  0  0  0  0  0  0  0  0
    8.0923   -6.8151    2.3831 H   0  0  0  0  0  0  0  0  0  0  0  0
    5.0577   -6.3831    2.1233 H   0  0  0  0  0  0  0  0  0  0  0  0
    4.7343   -8.5888    2.4819 H   0  0  0  0  0  0  0  0  0  0  0  0
    8.0615   -8.1069    3.9855 H   0  0  0  0  0  0  0  0  0  0  0  0
    9.9331   -8.8703    5.1234 H   0  0  0  0  0  0  0  0  0  0  0  0
   10.5288  -11.8858    5.0502 H   0  0  0  0  0  0  0  0  0  0  0  0
   11.5681   -8.4721    6.4192 H   0  0  0  0  0  0  0  0  0  0  0  0
   13.5588   -5.9614    8.1154 H   0  0  0  0  0  0  0  0  0  0  0  0
   12.0656   -6.9526    8.1177 H   0  0  0  0  0  0  0  0  0  0  0  0
   12.8539   -6.5160    6.5641 H   0  0  0  0  0  0  0  0  0  0  0  0
   16.7484  -10.0261    9.5967 H   0  0  0  0  0  0  0  0  0  0  0  0
   15.5550  -11.3554    9.4429 H   0  0  0  0  0  0  0  0  0  0  0  0
   15.0119   -9.6998    9.8996 H   0  0  0  0  0  0  0  0  0  0  0  0
   15.6397  -14.3007    6.8193 H   0  0  0  0  0  0  0  0  0  0  0  0
   14.6496  -13.7051    5.4497 H   0  0  0  0  0  0  0  0  0  0  0  0
   13.8624  -14.1577    6.9998 H   0  0  0  0  0  0  0  0  0  0  0  0
   12.5866  -12.6110    5.7841 H   0  0  0  0  0  0  0  0  0  0  0  0
    8.5765  -12.3813    4.3287 H   0  0  0  0  0  0  0  0  0  0  0  0
    3.8231  -11.1299    0.4981 H   0  0  0  0  0  0  0  0  0  0  0  0
    5.3815  -12.0072    0.6157 H   0  0  0  0  0  0  0  0  0  0  0  0
    5.3690  -10.2418    0.2682 H   0  0  0  0  0  0  0  0  0  0  0  0
    7.3642   -2.3101    1.3210 H   0  0  0  0  0  0  0  0  0  0  0  0
  1  2  1  0
  1 40  1  0
  1 41  1  0
  1 42  1  0
  2  3  1  0
  3  4  2  0
  3 36  1  0
  4  5  1  0
  4 43  1  0
  5  6  2  0
  5 44  1  0
  6  7  1  0
  6 35  1  0
  7  8  2  0
  7  9  1  0
  9 10  2  0
  9 45  1  0
 10 11  1  0
 10 46  1  0
 11 12  1  0
 11 47  1  0
 12 13  2  0
 12 32  1  0
 13 14  1  0
 13 48  1  0
 14 15  1  0
 14 29  2  0
 15 16  2  0
 15 49  1  0
 16 17  1  0
 16 50  1  0
 17 18  2  0
 17 28  1  0
 18 19  1  0
 18 51  1  0
 19 20  1  0
 19 22  2  0
 20 21  1  0
 21 52  1  0
 21 53  1  0
 21 54  1  0
 22 23  1  0
 22 25  1  0
 23 24  1  0
 24 55  1  0
 24 56  1  0
 24 57  1  0
 25 26  1  0
 25 28  2  0
 26 27  1  0
 27 58  1  0
 27 59  1  0
 27 60  1  0
 28 61  1  0
 29 30  1  0
 29 62  1  0
 30 31  1  0
 30 32  2  0
 32 33  1  0
 33 34  1  0
 34 63  1  0
 34 64  1  0
 34 65  1  0
 35 36  2  0
 35 66  1  0
 36 37  1  0
 37 38  2  0
 37 39  1  0
M  CHG  2  37   1  39  -1
M  END

