
     RDKit          3D

 35 35  0  0  0  0  0  0  0  0999 V2000
    1.5243   -0.1527   -1.0951 C   0  0  0  0  0  0  0  0  0  0  0  0
    2.1529   -0.1737    0.0826 C   0  0  0  0  0  0  0  0  0  0  0  0
    2.8696    1.0001    0.6895 C   0  0  0  0  0  0  0  0  0  0  0  0
    4.2689    0.6760    0.9715 N   0  0  0  0  0  0  0  0  0  0  0  0
    5.0484    1.7233    1.6335 C   0  0  1  0  0  0  0  0  0  0  0  0
    4.9973    1.5523    3.1738 C   0  0  0  0  0  0  0  0  0  0  0  0
    5.4826    0.1994    3.7179 C   0  0  0  0  0  0  0  0  0  0  0  0
    6.0918    0.1128    4.7529 O   0  0  0  0  0  0  0  0  0  0  0  0
    5.1385   -0.8624    2.9895 O   0  0  0  0  0  0  0  0  0  0  0  0
    6.4848    1.7010    1.0700 C   0  0  0  0  0  0  0  0  0  0  0  0
    6.7934    0.8430    0.2633 O   0  0  0  0  0  0  0  0  0  0  0  0
    7.4726    2.7346    1.5050 C   0  0  0  0  0  0  0  0  0  0  0  0
    7.1154    3.9435    2.1253 C   0  0  0  0  0  0  0  0  0  0  0  0
    8.0973    4.8726    2.4621 C   0  0  0  0  0  0  0  0  0  0  0  0
    9.4394    4.5927    2.1901 C   0  0  0  0  0  0  0  0  0  0  0  0
   10.6425    5.7777    2.6386 Cl  0  0  0  0  0  0  0  0  0  0  0  0
    9.8407    3.3928    1.5678 C   0  0  0  0  0  0  0  0  0  0  0  0
   11.2874    3.0947    1.2782 C   0  0  0  0  0  0  0  0  0  0  0  0
    8.8292    2.4887    1.2304 C   0  0  0  0  0  0  0  0  0  0  0  0
    1.0088   -1.0353   -1.4832 H   0  0  0  0  0  0  0  0  0  0  0  0
    1.4955    0.7500   -1.7150 H   0  0  0  0  0  0  0  0  0  0  0  0
    2.1701   -1.0961    0.6762 H   0  0  0  0  0  0  0  0  0  0  0  0
    2.3815    1.2656    1.6455 H   0  0  0  0  0  0  0  0  0  0  0  0
    2.7720    1.8868    0.0295 H   0  0  0  0  0  0  0  0  0  0  0  0
    4.7674    0.3813    0.1284 H   0  0  0  0  0  0  0  0  0  0  0  0
    4.6376    2.7260    1.3967 H   0  0  0  0  0  0  0  0  0  0  0  0
    3.9463    1.6699    3.4924 H   0  0  0  0  0  0  0  0  0  0  0  0
    5.5721    2.3294    3.6910 H   0  0  0  0  0  0  0  0  0  0  0  0
    4.6904   -0.5381    2.1561 H   0  0  0  0  0  0  0  0  0  0  0  0
    6.0727    4.1856    2.3365 H   0  0  0  0  0  0  0  0  0  0  0  0
    7.8326    5.8185    2.9369 H   0  0  0  0  0  0  0  0  0  0  0  0
   11.7310    3.8681    0.6306 H   0  0  0  0  0  0  0  0  0  0  0  0
   11.3957    2.1200    0.7831 H   0  0  0  0  0  0  0  0  0  0  0  0
   11.8827    3.0829    2.2056 H   0  0  0  0  0  0  0  0  0  0  0  0
    9.0869    1.5496    0.7364 H   0  0  0  0  0  0  0  0  0  0  0  0
  1  2  2  0
  1 20  1  0
  1 21  1  0
  2  3  1  0
  2 22  1  0
  3  4  1  0
  3 23  1  0
  3 24  1  0
  4  5  1  0
  4 25  1  0
  5  6  1  0
  5 10  1  0
  5 26  1  1
  6  7  1  0
  6 27  1  0
  6 28  1  0
  7  8  2  0
  7  9  1  0
  9 29  1  0
 10 11  2  0
 10 12  1  0
 12 13  2  0
 12 19  1  0
 13 14  1  0
 13 30  1  0
 14 15  2  0
 14 31  1  0
 15 16  1  0
 15 17  1  0
 17 18  1  0
 17 19  2  0
 18 32  1  0
 18 33  1  0
 18 34  1  0
 19 35  1  0
M  END

