
     RDKit          3D

 45 48  0  0  0  0  0  0  0  0999 V2000
    0.6968   -0.1428    0.0412 C   0  0  0  0  0  0  0  0  0  0  0  0
    2.2276   -0.0493   -0.0611 C   0  0  1  0  0  0  0  0  0  0  0  0
    2.8834   -1.1675    0.6234 N   0  0  0  0  0  0  0  0  0  0  0  0
    3.1134   -1.2150    1.9468 C   0  0  0  0  0  0  0  0  0  0  0  0
    2.7320   -0.2229    2.7457 N   0  0  0  0  0  0  0  0  0  0  0  0
    3.0145   -0.3445    4.0610 C   0  0  0  0  0  0  0  0  0  0  0  0
    3.6211   -1.3310    4.6861 N   0  0  0  0  0  0  0  0  0  0  0  0
    4.0224   -2.3668    3.9052 C   0  0  0  0  0  0  0  0  0  0  0  0
    4.6552   -3.4208    4.4829 N   0  0  0  0  0  0  0  0  0  0  0  0
    5.0279   -4.4007    3.6873 C   0  0  0  0  0  0  0  0  0  0  0  0
    4.7964   -4.3923    2.2858 C   0  0  0  0  0  0  0  0  0  0  0  0
    4.1832   -3.3818    1.6995 N   0  0  0  0  0  0  0  0  0  0  0  0
    3.7954   -2.3711    2.4995 C   0  0  0  0  0  0  0  0  0  0  0  0
    2.7346    0.0352   -1.4926 C   0  0  0  0  0  0  0  0  0  0  0  0
    3.5234    1.1167   -1.9068 C   0  0  0  0  0  0  0  0  0  0  0  0
    4.0027    1.2005   -3.2162 C   0  0  0  0  0  0  0  0  0  0  0  0
    3.6964    0.1908   -4.1284 C   0  0  0  0  0  0  0  0  0  0  0  0
    4.1224    0.3707   -5.4345 O   0  0  0  0  0  0  0  0  0  0  0  0
    4.8307   -0.5655   -6.1091 C   0  0  0  0  0  0  0  0  0  0  0  0
    5.0897   -0.2890   -7.4679 C   0  0  0  0  0  0  0  0  0  0  0  0
    5.8316   -1.2143   -8.1819 C   0  0  0  0  0  0  0  0  0  0  0  0
    6.2882   -2.3760   -7.5332 C   0  0  0  0  0  0  0  0  0  0  0  0
    7.0670   -3.4123   -8.2950 C   0  0  1  0  0  0  0  0  0  0  0  0
    8.0457   -2.8499   -9.0292 F   0  0  0  0  0  0  0  0  0  0  0  0
    7.6366   -4.3152   -7.4805 F   0  0  0  0  0  0  0  0  0  0  0  0
    6.2822   -4.0901   -9.1557 F   0  0  0  0  0  0  0  0  0  0  0  0
    5.9719   -2.5413   -6.1850 C   0  0  0  0  0  0  0  0  0  0  0  0
    5.2573   -1.6518   -5.4892 N   0  0  0  0  0  0  0  0  0  0  0  0
    2.9084   -0.8978   -3.7432 C   0  0  0  0  0  0  0  0  0  0  0  0
    2.4342   -0.9653   -2.4331 C   0  0  0  0  0  0  0  0  0  0  0  0
    0.3956   -0.1452    1.0989 H   0  0  0  0  0  0  0  0  0  0  0  0
    0.3140   -1.0599   -0.4336 H   0  0  0  0  0  0  0  0  0  0  0  0
    0.2279    0.7222   -0.4529 H   0  0  0  0  0  0  0  0  0  0  0  0
    2.5383    0.8600    0.4751 H   0  0  0  0  0  0  0  0  0  0  0  0
    3.2237   -1.9620    0.0891 H   0  0  0  0  0  0  0  0  0  0  0  0
    2.6868    0.4991    4.6824 H   0  0  0  0  0  0  0  0  0  0  0  0
    5.5402   -5.2570    4.1445 H   0  0  0  0  0  0  0  0  0  0  0  0
    5.1249   -5.2307    1.6617 H   0  0  0  0  0  0  0  0  0  0  0  0
    3.7707    1.9085   -1.1947 H   0  0  0  0  0  0  0  0  0  0  0  0
    4.6133    2.0442   -3.5432 H   0  0  0  0  0  0  0  0  0  0  0  0
    4.7118    0.6305   -7.9161 H   0  0  0  0  0  0  0  0  0  0  0  0
    6.0638   -1.0425   -9.2355 H   0  0  0  0  0  0  0  0  0  0  0  0
    6.3148   -3.4271   -5.6417 H   0  0  0  0  0  0  0  0  0  0  0  0
    2.6673   -1.6818   -4.4611 H   0  0  0  0  0  0  0  0  0  0  0  0
    1.8106   -1.8170   -2.1474 H   0  0  0  0  0  0  0  0  0  0  0  0
  1  2  1  0
  1 31  1  0
  1 32  1  0
  1 33  1  0
  2  3  1  0
  2 14  1  0
  2 34  1  1
  3  4  1  0
  3 35  1  0
  4  5  2  0
  4 13  1  0
  5  6  1  0
  6  7  2  0
  6 36  1  0
  7  8  1  0
  8  9  1  0
  8 13  2  0
  9 10  2  0
 10 11  1  0
 10 37  1  0
 11 12  2  0
 11 38  1  0
 12 13  1  0
 14 15  2  0
 14 30  1  0
 15 16  1  0
 15 39  1  0
 16 17  2  0
 16 40  1  0
 17 18  1  0
 17 29  1  0
 18 19  1  0
 19 20  2  0
 19 28  1  0
 20 21  1  0
 20 41  1  0
 21 22  2  0
 21 42  1  0
 22 23  1  0
 22 27  1  0
 23 24  1  6
 23 25  1  0
 23 26  1  0
 27 28  2  0
 27 43  1  0
 29 30  2  0
 29 44  1  0
 30 45  1  0
M  END

