
     RDKit          3D

 43 45  0  0  0  0  0  0  0  0999 V2000
    4.0545    0.0411    1.5795 C   0  0  0  0  0  0  0  0  0  0  0  0
    4.3209   -0.0225    0.0689 C   0  0  1  0  0  0  0  0  0  0  0  0
    3.5690   -1.1902   -0.6204 C   0  0  0  0  0  0  0  0  0  0  0  0
    2.0648   -0.9098   -0.7775 C   0  0  2  0  0  0  0  0  0  0  0  0
    1.3469   -1.9606   -1.5247 N   0  0  0  0  0  0  0  0  0  0  0  0
    1.1249   -3.4595   -0.7725 S   0  0  1  0  0  0  0  0  0  0  0  0
    2.1279   -4.4211   -1.2476 O   0  0  0  0  0  0  0  0  0  0  0  0
    0.9625   -3.1820    0.6577 O   0  0  0  0  0  0  0  0  0  0  0  0
   -0.4629   -3.9696   -1.4363 C   0  0  0  0  0  0  0  0  0  0  0  0
   -1.6362   -3.2863   -1.0207 C   0  0  0  0  0  0  0  0  0  0  0  0
   -2.8580   -3.6863   -1.5096 C   0  0  0  0  0  0  0  0  0  0  0  0
   -2.9595   -4.7812   -2.4176 C   0  0  0  0  0  0  0  0  0  0  0  0
   -4.1898   -5.1404   -2.8736 N   0  0  0  0  0  0  0  0  0  0  0  0
   -4.2741   -6.1558   -3.7052 C   0  0  0  0  0  0  0  0  0  0  0  0
   -3.1574   -6.9069   -4.1603 C   0  0  0  0  0  0  0  0  0  0  0  0
   -1.9018   -6.5607   -3.7130 C   0  0  0  0  0  0  0  0  0  0  0  0
   -1.7647   -5.4685   -2.8154 C   0  0  0  0  0  0  0  0  0  0  0  0
   -0.5102   -5.0386   -2.3028 C   0  0  0  0  0  0  0  0  0  0  0  0
    1.8435    0.4417   -1.4662 C   0  0  0  0  0  0  0  0  0  0  0  0
    2.6267    1.5461   -0.7292 C   0  0  0  0  0  0  0  0  0  0  0  0
    4.0507    1.2704   -0.5783 N   0  0  0  0  0  0  0  0  0  0  0  0
    4.8424    1.5319   -1.7650 C   0  0  0  0  0  0  0  0  0  0  0  0
    4.3696   -0.8951    2.0662 H   0  0  0  0  0  0  0  0  0  0  0  0
    2.9905    0.1893    1.8208 H   0  0  0  0  0  0  0  0  0  0  0  0
    4.6176    0.8759    2.0229 H   0  0  0  0  0  0  0  0  0  0  0  0
    5.4005   -0.2097   -0.0536 H   0  0  0  0  0  0  0  0  0  0  0  0
    3.7190   -2.1264   -0.0596 H   0  0  0  0  0  0  0  0  0  0  0  0
    3.9968   -1.3549   -1.6262 H   0  0  0  0  0  0  0  0  0  0  0  0
    1.5944   -0.8824    0.2171 H   0  0  0  0  0  0  0  0  0  0  0  0
    1.7321   -2.1229   -2.4570 H   0  0  0  0  0  0  0  0  0  0  0  0
   -1.5542   -2.4578   -0.3152 H   0  0  0  0  0  0  0  0  0  0  0  0
   -3.7839   -3.1881   -1.2166 H   0  0  0  0  0  0  0  0  0  0  0  0
   -5.2793   -6.4226   -4.0560 H   0  0  0  0  0  0  0  0  0  0  0  0
   -3.3065   -7.7400   -4.8506 H   0  0  0  0  0  0  0  0  0  0  0  0
   -1.0124   -7.1096   -4.0347 H   0  0  0  0  0  0  0  0  0  0  0  0
    0.4115   -5.5521   -2.5844 H   0  0  0  0  0  0  0  0  0  0  0  0
    0.7678    0.6805   -1.4920 H   0  0  0  0  0  0  0  0  0  0  0  0
    2.1810    0.3766   -2.5170 H   0  0  0  0  0  0  0  0  0  0  0  0
    2.1817    1.6833    0.2720 H   0  0  0  0  0  0  0  0  0  0  0  0
    2.5073    2.5090   -1.2512 H   0  0  0  0  0  0  0  0  0  0  0  0
    4.6682    2.5649   -2.1079 H   0  0  0  0  0  0  0  0  0  0  0  0
    4.6429    0.8610   -2.6312 H   0  0  0  0  0  0  0  0  0  0  0  0
    5.9143    1.4422   -1.5257 H   0  0  0  0  0  0  0  0  0  0  0  0
  1  2  1  0
  1 23  1  0
  1 24  1  0
  1 25  1  0
  2  3  1  0
  2 21  1  0
  2 26  1  1
  3  4  1  0
  3 27  1  0
  3 28  1  0
  4  5  1  0
  4 19  1  0
  4 29  1  1
  6  5  1  6
  5 30  1  0
  6  7  2  0
  6  8  2  0
  6  9  1  0
  9 10  2  0
  9 18  1  0
 10 11  1  0
 10 31  1  0
 11 12  2  0
 11 32  1  0
 12 13  1  0
 12 17  1  0
 13 14  2  0
 14 15  1  0
 14 33  1  0
 15 16  2  0
 15 34  1  0
 16 17  1  0
 16 35  1  0
 17 18  2  0
 18 36  1  0
 19 20  1  0
 19 37  1  0
 19 38  1  0
 20 21  1  0
 20 39  1  0
 20 40  1  0
 21 22  1  0
 22 41  1  0
 22 42  1  0
 22 43  1  0
M  END

