
     RDKit          3D

 65 70  0  0  0  0  0  0  0  0999 V2000
   -0.2634   -1.7811    2.3989 C   0  0  0  0  0  0  0  0  0  0  0  0
    0.2692   -3.0131    3.0519 C   0  0  0  0  0  0  0  0  0  0  0  0
    0.0524   -3.2301    4.3561 N   0  0  0  0  0  0  0  0  0  0  0  0
    0.6531   -4.4017    4.6246 N   0  0  0  0  0  0  0  0  0  0  0  0
    0.6981   -5.0265    5.8273 C   0  0  0  0  0  0  0  0  0  0  0  0
    1.3665   -6.2257    5.9064 C   0  0  0  0  0  0  0  0  0  0  0  0
    1.9718   -6.7465    4.7281 C   0  0  0  0  0  0  0  0  0  0  0  0
    1.9255   -6.1366    3.5608 N   0  0  0  0  0  0  0  0  0  0  0  0
    1.2703   -4.9619    3.4937 C   0  0  0  0  0  0  0  0  0  0  0  0
    1.0266   -4.0592    2.4516 C   0  0  0  0  0  0  0  0  0  0  0  0
    1.4505   -4.1474    1.0345 C   0  0  0  0  0  0  0  0  0  0  0  0
    1.1725   -3.2773    0.2153 O   0  0  0  0  0  0  0  0  0  0  0  0
    2.1751   -5.2618    0.7133 N   0  0  0  0  0  0  0  0  0  0  0  0
    2.6596   -5.4904   -0.6457 C   0  0  2  0  0  0  0  0  0  0  0  0
    2.8909   -4.4944   -1.0505 H   0  0  0  0  0  0  0  0  0  0  0  0
    1.5701   -6.0955   -1.5405 C   0  0  0  0  0  0  0  0  0  0  0  0
    3.9441   -6.3074   -0.5807 C   0  0  0  0  0  0  0  0  0  0  0  0
    3.9650   -7.6483   -0.8121 C   0  0  0  0  0  0  0  0  0  0  0  0
    5.1714   -8.4212   -0.6800 C   0  0  0  0  0  0  0  0  0  0  0  0
    5.1725   -9.8123   -0.9247 C   0  0  0  0  0  0  0  0  0  0  0  0
    6.3421  -10.5459   -0.7850 C   0  0  0  0  0  0  0  0  0  0  0  0
    7.5309   -9.9168   -0.4011 C   0  0  0  0  0  0  0  0  0  0  0  0
    7.5733   -8.5328   -0.1491 C   0  0  0  0  0  0  0  0  0  0  0  0
    8.8249   -7.9708    0.2363 C   0  0  0  0  0  0  0  0  0  0  0  0
    9.9400   -7.5972    0.5567 C   0  0  0  0  0  0  0  0  0  0  0  0
   11.1745   -7.0073    0.9380 C   0  0  0  0  0  0  0  0  0  0  0  0
   11.4025   -5.6255    1.2093 C   0  0  0  0  0  0  0  0  0  0  0  0
   12.7423   -5.5577    1.5305 C   0  0  0  0  0  0  0  0  0  0  0  0
   13.2340   -6.8293    1.4436 N   0  0  0  0  0  0  0  0  0  0  0  0
   14.5900   -7.2738    1.6895 C   0  0  0  0  0  0  0  0  0  0  0  0
   12.3053   -7.7184    1.0880 N   0  0  0  0  0  0  0  0  0  0  0  0
    6.3714   -7.7724   -0.2913 C   0  0  0  0  0  0  0  0  0  0  0  0
    6.3705   -6.3151   -0.0447 C   0  0  0  0  0  0  0  0  0  0  0  0
    7.3485   -5.6646    0.2779 O   0  0  0  0  0  0  0  0  0  0  0  0
    5.1220   -5.6552   -0.2146 N   0  0  0  0  0  0  0  0  0  0  0  0
    5.1644   -4.2231   -0.0242 C   0  0  0  0  0  0  0  0  0  0  0  0
    5.4092   -3.3859   -1.1173 C   0  0  0  0  0  0  0  0  0  0  0  0
    5.4625   -2.0019   -0.9354 C   0  0  0  0  0  0  0  0  0  0  0  0
    5.2823   -1.4554    0.3383 C   0  0  0  0  0  0  0  0  0  0  0  0
    5.0513   -2.2965    1.4309 C   0  0  0  0  0  0  0  0  0  0  0  0
    4.9956   -3.6805    1.2524 C   0  0  0  0  0  0  0  0  0  0  0  0
   -0.8006   -1.1696    3.1366 H   0  0  0  0  0  0  0  0  0  0  0  0
   -0.9360   -2.0424    1.5682 H   0  0  0  0  0  0  0  0  0  0  0  0
    0.5539   -1.1974    1.9498 H   0  0  0  0  0  0  0  0  0  0  0  0
    0.1931   -4.5214    6.6523 H   0  0  0  0  0  0  0  0  0  0  0  0
    1.4286   -6.7620    6.8532 H   0  0  0  0  0  0  0  0  0  0  0  0
    2.5091   -7.7003    4.7688 H   0  0  0  0  0  0  0  0  0  0  0  0
    2.3222   -5.9750    1.4263 H   0  0  0  0  0  0  0  0  0  0  0  0
    1.9407   -6.2638   -2.5633 H   0  0  0  0  0  0  0  0  0  0  0  0
    0.7290   -5.3893   -1.5864 H   0  0  0  0  0  0  0  0  0  0  0  0
    1.1916   -7.0487   -1.1407 H   0  0  0  0  0  0  0  0  0  0  0  0
    3.0478   -8.1600   -1.0973 H   0  0  0  0  0  0  0  0  0  0  0  0
    4.2417  -10.3003   -1.2244 H   0  0  0  0  0  0  0  0  0  0  0  0
    6.3395  -11.6223   -0.9756 H   0  0  0  0  0  0  0  0  0  0  0  0
    8.4503  -10.4944   -0.2916 H   0  0  0  0  0  0  0  0  0  0  0  0
   10.6702   -4.8240    1.1650 H   0  0  0  0  0  0  0  0  0  0  0  0
   13.3777   -4.7195    1.8095 H   0  0  0  0  0  0  0  0  0  0  0  0
   15.2104   -6.4085    1.9579 H   0  0  0  0  0  0  0  0  0  0  0  0
   15.0031   -7.7510    0.7880 H   0  0  0  0  0  0  0  0  0  0  0  0
   14.6091   -8.0035    2.5133 H   0  0  0  0  0  0  0  0  0  0  0  0
    5.5599   -3.8247   -2.1061 H   0  0  0  0  0  0  0  0  0  0  0  0
    5.6484   -1.3495   -1.7921 H   0  0  0  0  0  0  0  0  0  0  0  0
    5.3231   -0.3726    0.4800 H   0  0  0  0  0  0  0  0  0  0  0  0
    4.9150   -1.8737    2.4293 H   0  0  0  0  0  0  0  0  0  0  0  0
    4.8204   -4.3472    2.0983 H   0  0  0  0  0  0  0  0  0  0  0  0
  1  2  1  0
  1 42  1  0
  1 43  1  0
  1 44  1  0
  2  3  2  0
  2 10  1  0
  3  4  1  0
  4  5  1  0
  4  9  1  0
  5  6  2  0
  5 45  1  0
  6  7  1  0
  6 46  1  0
  7  8  2  0
  7 47  1  0
  8  9  1  0
  9 10  2  0
 10 11  1  0
 11 12  2  0
 11 13  1  0
 13 14  1  0
 13 48  1  0
 14 15  1  6
 14 16  1  0
 14 17  1  0
 16 49  1  0
 16 50  1  0
 16 51  1  0
 17 18  2  0
 17 35  1  0
 18 19  1  0
 18 52  1  0
 19 20  2  0
 19 32  1  0
 20 21  1  0
 20 53  1  0
 21 22  2  0
 21 54  1  0
 22 23  1  0
 22 55  1  0
 23 24  1  0
 23 32  2  0
 24 25  3  0
 25 26  1  0
 26 27  1  0
 26 31  2  0
 27 28  2  0
 27 56  1  0
 28 29  1  0
 28 57  1  0
 29 30  1  0
 29 31  1  0
 30 58  1  0
 30 59  1  0
 30 60  1  0
 32 33  1  0
 33 34  2  0
 33 35  1  0
 35 36  1  0
 36 37  2  0
 36 41  1  0
 37 38  1  0
 37 61  1  0
 38 39  2  0
 38 62  1  0
 39 40  1  0
 39 63  1  0
 40 41  2  0
 40 64  1  0
 41 65  1  0
M  END

