
     RDKit          3D

 35 36  0  0  0  0  0  0  0  0999 V2000
    4.8906   -2.4988   -2.8853 C   0  0  0  0  0  0  0  0  0  0  0  0
    5.2253   -1.7918   -1.6805 O   0  0  0  0  0  0  0  0  0  0  0  0
    5.2193   -0.4518   -1.7666 C   0  0  0  0  0  0  0  0  0  0  0  0
    5.0227    0.1411   -2.8000 O   0  0  0  0  0  0  0  0  0  0  0  0
    5.5247    0.2499   -0.4715 C   0  0  0  0  0  0  0  0  0  0  0  0
    5.8856    1.6020   -0.5942 C   0  0  0  0  0  0  0  0  0  0  0  0
    6.2305    2.3678    0.5172 C   0  0  0  0  0  0  0  0  0  0  0  0
    6.2066    1.7915    1.7894 C   0  0  0  0  0  0  0  0  0  0  0  0
    5.8231    0.4591    1.9385 C   0  0  0  0  0  0  0  0  0  0  0  0
    5.4808   -0.3122    0.8223 C   0  0  0  0  0  0  0  0  0  0  0  0
    5.0842   -1.6674    1.0607 N   0  0  0  0  0  0  0  0  0  0  0  0
    5.9582   -2.6373    1.6076 C   0  0  0  0  0  0  0  0  0  0  0  0
    7.0768   -2.4171    1.9815 O   0  0  0  0  0  0  0  0  0  0  0  0
    5.2210   -3.9680    1.6065 C   0  0  0  0  0  0  0  0  0  0  0  0
    3.7835   -3.6380    1.1898 C   0  0  2  0  0  0  0  0  0  0  0  0
    3.1962   -4.7941   -0.1064 S   0  0  0  0  0  0  0  0  0  0  0  0
    1.4017   -4.3881   -0.2497 C   0  0  0  0  0  0  0  0  0  0  0  0
    1.0329   -3.7584   -1.5986 C   0  0  0  0  0  0  0  0  0  0  0  0
    0.4030   -4.3663   -2.4235 O   0  0  0  0  0  0  0  0  0  0  0  0
    1.4563   -2.5098   -1.8089 O   0  0  0  0  0  0  0  0  0  0  0  0
    3.8379   -2.1759    0.7489 C   0  0  0  0  0  0  0  0  0  0  0  0
    2.9319   -1.5387    0.2484 O   0  0  0  0  0  0  0  0  0  0  0  0
    4.9610   -3.5633   -2.6353 H   0  0  0  0  0  0  0  0  0  0  0  0
    5.5893   -2.2356   -3.6920 H   0  0  0  0  0  0  0  0  0  0  0  0
    3.8651   -2.2532   -3.1960 H   0  0  0  0  0  0  0  0  0  0  0  0
    5.8924    2.0307   -1.5974 H   0  0  0  0  0  0  0  0  0  0  0  0
    6.5177    3.4140    0.3903 H   0  0  0  0  0  0  0  0  0  0  0  0
    6.4768    2.3789    2.6699 H   0  0  0  0  0  0  0  0  0  0  0  0
    5.7856    0.0036    2.9290 H   0  0  0  0  0  0  0  0  0  0  0  0
    5.3050   -4.4497    2.5905 H   0  0  0  0  0  0  0  0  0  0  0  0
    5.7281   -4.6247    0.8802 H   0  0  0  0  0  0  0  0  0  0  0  0
    3.0902   -3.6934    2.0451 H   0  0  0  0  0  0  0  0  0  0  0  0
    1.1238   -3.7290    0.5863 H   0  0  0  0  0  0  0  0  0  0  0  0
    0.8476   -5.3314   -0.1663 H   0  0  0  0  0  0  0  0  0  0  0  0
    1.9256   -2.1378   -1.0278 H   0  0  0  0  0  0  0  0  0  0  0  0
  1  2  1  0
  1 23  1  0
  1 24  1  0
  1 25  1  0
  2  3  1  0
  3  4  2  0
  3  5  1  0
  5  6  2  0
  5 10  1  0
  6  7  1  0
  6 26  1  0
  7  8  2  0
  7 27  1  0
  8  9  1  0
  8 28  1  0
  9 10  2  0
  9 29  1  0
 10 11  1  0
 11 12  1  0
 11 21  1  0
 12 13  2  0
 12 14  1  0
 14 15  1  0
 14 30  1  0
 14 31  1  0
 15 16  1  0
 15 21  1  0
 15 32  1  1
 16 17  1  0
 17 18  1  0
 17 33  1  0
 17 34  1  0
 18 19  2  0
 18 20  1  0
 20 35  1  0
 21 22  2  0
M  END

