
     RDKit          3D

 45 48  0  0  0  0  0  0  0  0999 V2000
    2.6431   -1.3763    0.1034 C   0  0  0  0  0  0  0  0  0  0  0  0
    2.4739    0.1255   -0.1578 C   0  0  1  0  0  0  0  0  0  0  0  0
    0.9962    0.4791   -0.3792 C   0  0  0  0  0  0  0  0  0  0  0  0
    3.0368    0.9929    0.9844 C   0  0  0  0  0  0  0  0  0  0  0  0
    4.5720    0.9572    1.2000 C   0  0  1  0  0  0  0  0  0  0  0  0
    5.3284    1.7983    0.1576 C   0  0  0  0  0  0  0  0  0  0  0  0
    5.5649    2.9736    0.2906 O   0  0  0  0  0  0  0  0  0  0  0  0
    5.7579    1.1321   -1.0110 N   0  0  0  0  0  0  0  0  0  0  0  0
    5.6190   -0.2334   -1.1822 N   0  0  0  0  0  0  0  0  0  0  0  0
    6.1141   -0.5735   -2.3019 N   0  0  0  0  0  0  0  0  0  0  0  0
    6.6179    0.5497   -2.9404 C   0  0  0  0  0  0  0  0  0  0  0  0
    7.2551    0.6761   -4.1838 C   0  0  0  0  0  0  0  0  0  0  0  0
    7.6588    1.9520   -4.5600 C   0  0  0  0  0  0  0  0  0  0  0  0
    7.4366    3.0704   -3.7219 C   0  0  0  0  0  0  0  0  0  0  0  0
    6.8066    2.9591   -2.4841 C   0  0  0  0  0  0  0  0  0  0  0  0
    6.4008    1.6697   -2.1144 C   0  0  0  0  0  0  0  0  0  0  0  0
    4.9539    1.4348    2.5246 N   0  0  0  0  0  0  0  0  0  0  0  0
    4.4682    2.5824    3.1906 C   0  0  0  0  0  0  0  0  0  0  0  0
    3.5840    3.3131    2.8173 O   0  0  0  0  0  0  0  0  0  0  0  0
    5.2613    2.6699    4.4575 C   0  0  0  0  0  0  0  0  0  0  0  0
    5.1865    3.5947    5.4924 C   0  0  0  0  0  0  0  0  0  0  0  0
    6.0627    3.4250    6.5748 C   0  0  0  0  0  0  0  0  0  0  0  0
    6.9755    2.3595    6.6078 C   0  0  0  0  0  0  0  0  0  0  0  0
    7.0412    1.4302    5.5592 C   0  0  0  0  0  0  0  0  0  0  0  0
    6.1694    1.6094    4.4909 C   0  0  0  0  0  0  0  0  0  0  0  0
    5.9961    0.8111    3.2421 C   0  0  0  0  0  0  0  0  0  0  0  0
    6.5985   -0.1700    2.8746 O   0  0  0  0  0  0  0  0  0  0  0  0
    2.2208   -1.9664   -0.7256 H   0  0  0  0  0  0  0  0  0  0  0  0
    2.1158   -1.6746    1.0264 H   0  0  0  0  0  0  0  0  0  0  0  0
    3.7000   -1.6648    0.1981 H   0  0  0  0  0  0  0  0  0  0  0  0
    3.0141    0.3699   -1.0896 H   0  0  0  0  0  0  0  0  0  0  0  0
    0.3995    0.2696    0.5254 H   0  0  0  0  0  0  0  0  0  0  0  0
    0.5667   -0.1113   -1.2042 H   0  0  0  0  0  0  0  0  0  0  0  0
    0.8661    1.5459   -0.6230 H   0  0  0  0  0  0  0  0  0  0  0  0
    2.5818    0.6578    1.9321 H   0  0  0  0  0  0  0  0  0  0  0  0
    2.7277    2.0400    0.8574 H   0  0  0  0  0  0  0  0  0  0  0  0
    4.9385   -0.0758    1.1405 H   0  0  0  0  0  0  0  0  0  0  0  0
    7.4192   -0.1985   -4.8154 H   0  0  0  0  0  0  0  0  0  0  0  0
    8.1592    2.1002   -5.5198 H   0  0  0  0  0  0  0  0  0  0  0  0
    7.7726    4.0551   -4.0564 H   0  0  0  0  0  0  0  0  0  0  0  0
    6.6372    3.8144   -1.8325 H   0  0  0  0  0  0  0  0  0  0  0  0
    4.4715    4.4193    5.4545 H   0  0  0  0  0  0  0  0  0  0  0  0
    6.0364    4.1329    7.4070 H   0  0  0  0  0  0  0  0  0  0  0  0
    7.6450    2.2545    7.4651 H   0  0  0  0  0  0  0  0  0  0  0  0
    7.7467    0.5967    5.5732 H   0  0  0  0  0  0  0  0  0  0  0  0
  1  2  1  0
  1 28  1  0
  1 29  1  0
  1 30  1  0
  2  3  1  0
  2  4  1  0
  2 31  1  6
  3 32  1  0
  3 33  1  0
  3 34  1  0
  4  5  1  0
  4 35  1  0
  4 36  1  0
  5  6  1  0
  5 17  1  0
  5 37  1  1
  6  7  2  0
  6  8  1  0
  8  9  1  0
  8 16  1  0
  9 10  2  0
 10 11  1  0
 11 12  1  0
 11 16  2  0
 12 13  2  0
 12 38  1  0
 13 14  1  0
 13 39  1  0
 14 15  2  0
 14 40  1  0
 15 16  1  0
 15 41  1  0
 17 18  1  0
 17 26  1  0
 18 19  2  0
 18 20  1  0
 20 21  1  0
 20 25  2  0
 21 22  2  0
 21 42  1  0
 22 23  1  0
 22 43  1  0
 23 24  2  0
 23 44  1  0
 24 25  1  0
 24 45  1  0
 25 26  1  0
 26 27  2  0
M  END

