
     RDKit          3D

 52 54  0  0  0  0  0  0  0  0999 V2000
   -0.0024  -12.2061    0.1428 O   0  0  0  0  0  0  0  0  0  0  0  0
    1.1325  -12.3325   -0.2342 C   0  0  0  0  0  0  0  0  0  0  0  0
    1.5460  -13.5041   -0.7727 O   0  0  0  0  0  0  0  0  0  0  0  0
    2.1601  -11.2364   -0.1513 C   0  0  0  0  0  0  0  0  0  0  0  0
    3.5419  -11.4836   -0.1813 C   0  0  0  0  0  0  0  0  0  0  0  0
    4.4406  -10.4201   -0.0760 C   0  0  0  0  0  0  0  0  0  0  0  0
    3.9657   -9.1137    0.0593 C   0  0  0  0  0  0  0  0  0  0  0  0
    2.5874   -8.8469    0.0951 C   0  0  0  0  0  0  0  0  0  0  0  0
    2.0816   -7.4213    0.2079 C   0  0  0  0  0  0  0  0  0  0  0  0
    0.8131   -7.3273    0.9055 N   0  0  0  0  0  0  0  0  0  0  0  0
    0.2668   -5.9825    0.9830 C   0  0  0  0  0  0  0  0  0  0  0  0
   -1.1456   -5.9214    1.6264 C   0  0  1  0  0  0  0  0  0  0  0  0
   -1.1357   -6.3749    3.0465 N   0  0  0  0  0  0  0  0  0  0  0  0
   -0.1630   -5.7584    3.9382 C   0  0  0  0  0  0  0  0  0  0  0  0
   -0.6012   -5.9279    5.3930 C   0  0  0  0  0  0  0  0  0  0  0  0
   -0.7909   -7.2864    5.7238 O   0  0  0  0  0  0  0  0  0  0  0  0
   -1.7272   -7.8984    4.8602 C   0  0  0  0  0  0  0  0  0  0  0  0
   -1.3045   -7.7815    3.3961 C   0  0  0  0  0  0  0  0  0  0  0  0
   -1.6428   -4.4465    1.6148 C   0  0  0  0  0  0  0  0  0  0  0  0
   -1.9739   -3.8817    0.2261 C   0  0  0  0  0  0  0  0  0  0  0  0
   -2.9706   -4.7705   -0.5224 C   0  0  0  0  0  0  0  0  0  0  0  0
   -2.4724   -6.2170   -0.5774 C   0  0  0  0  0  0  0  0  0  0  0  0
   -2.1550   -6.7721    0.8180 C   0  0  0  0  0  0  0  0  0  0  0  0
    1.6960   -9.9217   -0.0002 C   0  0  0  0  0  0  0  0  0  0  0  0
    2.4310  -13.4062   -1.1504 H   0  0  0  0  0  0  0  0  0  0  0  0
    3.9321  -12.5039   -0.2457 H   0  0  0  0  0  0  0  0  0  0  0  0
    5.5162  -10.6123   -0.0834 H   0  0  0  0  0  0  0  0  0  0  0  0
    4.6770   -8.2873    0.1489 H   0  0  0  0  0  0  0  0  0  0  0  0
    1.9357   -7.0161   -0.8122 H   0  0  0  0  0  0  0  0  0  0  0  0
    2.8829   -6.7931    0.6593 H   0  0  0  0  0  0  0  0  0  0  0  0
    0.9013   -7.7309    1.8367 H   0  0  0  0  0  0  0  0  0  0  0  0
    0.2179   -5.5858   -0.0438 H   0  0  0  0  0  0  0  0  0  0  0  0
    0.9358   -5.2835    1.5327 H   0  0  0  0  0  0  0  0  0  0  0  0
   -0.0677   -4.6842    3.7257 H   0  0  0  0  0  0  0  0  0  0  0  0
    0.8530   -6.2066    3.8310 H   0  0  0  0  0  0  0  0  0  0  0  0
   -1.5387   -5.3563    5.5549 H   0  0  0  0  0  0  0  0  0  0  0  0
    0.1693   -5.5356    6.0754 H   0  0  0  0  0  0  0  0  0  0  0  0
   -2.7272   -7.4335    4.9850 H   0  0  0  0  0  0  0  0  0  0  0  0
   -1.7923   -8.9568    5.1568 H   0  0  0  0  0  0  0  0  0  0  0  0
   -2.0749   -8.2525    2.7740 H   0  0  0  0  0  0  0  0  0  0  0  0
   -0.3716   -8.3783    3.2688 H   0  0  0  0  0  0  0  0  0  0  0  0
   -0.9028   -3.7910    2.1017 H   0  0  0  0  0  0  0  0  0  0  0  0
   -2.5462   -4.4188    2.2466 H   0  0  0  0  0  0  0  0  0  0  0  0
   -1.0529   -3.7741   -0.3745 H   0  0  0  0  0  0  0  0  0  0  0  0
   -2.3771   -2.8612    0.3399 H   0  0  0  0  0  0  0  0  0  0  0  0
   -3.1506   -4.3816   -1.5389 H   0  0  0  0  0  0  0  0  0  0  0  0
   -3.9447   -4.7421    0.0002 H   0  0  0  0  0  0  0  0  0  0  0  0
   -1.5770   -6.2779   -1.2210 H   0  0  0  0  0  0  0  0  0  0  0  0
   -3.2267   -6.8651   -1.0541 H   0  0  0  0  0  0  0  0  0  0  0  0
   -1.7769   -7.7988    0.7156 H   0  0  0  0  0  0  0  0  0  0  0  0
   -3.0916   -6.8192    1.4004 H   0  0  0  0  0  0  0  0  0  0  0  0
    0.6211   -9.7439    0.0465 H   0  0  0  0  0  0  0  0  0  0  0  0
  1  2  2  0
  2  3  1  0
  2  4  1  0
  3 25  1  0
  4  5  2  0
  4 24  1  0
  5  6  1  0
  5 26  1  0
  6  7  2  0
  6 27  1  0
  7  8  1  0
  7 28  1  0
  8  9  1  0
  8 24  2  0
  9 10  1  0
  9 29  1  0
  9 30  1  0
 10 11  1  0
 10 31  1  0
 12 11  1  6
 11 32  1  0
 11 33  1  0
 12 13  1  0
 12 19  1  0
 12 23  1  0
 13 14  1  0
 13 18  1  0
 14 15  1  0
 14 34  1  0
 14 35  1  0
 15 16  1  0
 15 36  1  0
 15 37  1  0
 16 17  1  0
 17 18  1  0
 17 38  1  0
 17 39  1  0
 18 40  1  0
 18 41  1  0
 19 20  1  0
 19 42  1  0
 19 43  1  0
 20 21  1  0
 20 44  1  0
 20 45  1  0
 21 22  1  0
 21 46  1  0
 21 47  1  0
 22 23  1  0
 22 48  1  0
 22 49  1  0
 23 50  1  0
 23 51  1  0
 24 52  1  0
M  END

