
     RDKit          3D

 37 38  0  0  0  0  0  0  0  0999 V2000
    5.7122    1.3490   -3.4445 C   0  0  0  0  0  0  0  0  0  0  0  0
    6.7619    1.2036   -2.3552 C   0  0  0  0  0  0  0  0  0  0  0  0
    7.1824   -0.1646   -2.1987 O   0  0  0  0  0  0  0  0  0  0  0  0
    6.4449   -0.9544   -1.3919 C   0  0  0  0  0  0  0  0  0  0  0  0
    5.4727   -0.5738   -0.7868 O   0  0  0  0  0  0  0  0  0  0  0  0
    6.9872   -2.3703   -1.3749 C   0  0  0  0  0  0  0  0  0  0  0  0
    6.4886   -3.1979   -0.1921 C   0  0  0  0  0  0  0  0  0  0  0  0
    6.9333   -4.6657   -0.2333 C   0  0  0  0  0  0  0  0  0  0  0  0
    8.3728   -4.8909   -0.1950 N   0  0  0  0  0  0  0  0  0  0  0  0
    9.0624   -4.7392    0.9835 C   0  0  0  0  0  0  0  0  0  0  0  0
    8.5294   -4.5205    2.1572 N   0  0  0  0  0  0  0  0  0  0  0  0
    9.5989   -4.5183    3.0466 C   0  0  0  0  0  0  0  0  0  0  0  0
    9.6373   -4.3348    4.4325 C   0  0  0  0  0  0  0  0  0  0  0  0
   10.8702   -4.3730    5.0854 C   0  0  0  0  0  0  0  0  0  0  0  0
   12.0834   -4.5908    4.3877 C   0  0  0  0  0  0  0  0  0  0  0  0
   13.2900   -4.6809    5.0910 N   0  0  0  0  0  0  0  0  0  0  0  0
   12.0587   -4.7724    2.9913 C   0  0  0  0  0  0  0  0  0  0  0  0
   10.8184   -4.7331    2.3564 C   0  0  0  0  0  0  0  0  0  0  0  0
   10.4446   -4.8628    1.0239 N   0  0  0  0  0  0  0  0  0  0  0  0
   11.0453   -5.1370    0.2580 H   0  0  0  0  0  0  0  0  0  0  0  0
    5.4724    2.4138   -3.5957 H   0  0  0  0  0  0  0  0  0  0  0  0
    4.7848    0.8273   -3.1650 H   0  0  0  0  0  0  0  0  0  0  0  0
    6.0762    0.9398   -4.4000 H   0  0  0  0  0  0  0  0  0  0  0  0
    6.3811    1.5719   -1.3911 H   0  0  0  0  0  0  0  0  0  0  0  0
    7.6810    1.7508   -2.6113 H   0  0  0  0  0  0  0  0  0  0  0  0
    8.0871   -2.3120   -1.4084 H   0  0  0  0  0  0  0  0  0  0  0  0
    6.6834   -2.8318   -2.3343 H   0  0  0  0  0  0  0  0  0  0  0  0
    5.3874   -3.1630   -0.1692 H   0  0  0  0  0  0  0  0  0  0  0  0
    6.8304   -2.7512    0.7547 H   0  0  0  0  0  0  0  0  0  0  0  0
    6.5480   -5.1560   -1.1441 H   0  0  0  0  0  0  0  0  0  0  0  0
    6.5023   -5.1912    0.6309 H   0  0  0  0  0  0  0  0  0  0  0  0
    8.8892   -4.7029   -1.0460 H   0  0  0  0  0  0  0  0  0  0  0  0
    8.7137   -4.1637    4.9896 H   0  0  0  0  0  0  0  0  0  0  0  0
   10.9083   -4.2363    6.1701 H   0  0  0  0  0  0  0  0  0  0  0  0
   13.2949   -4.2101    5.9896 H   0  0  0  0  0  0  0  0  0  0  0  0
   14.1203   -4.4565    4.5528 H   0  0  0  0  0  0  0  0  0  0  0  0
   12.9851   -4.9458    2.4368 H   0  0  0  0  0  0  0  0  0  0  0  0
  1  2  1  0
  1 21  1  0
  1 22  1  0
  1 23  1  0
  2  3  1  0
  2 24  1  0
  2 25  1  0
  3  4  1  0
  4  5  2  0
  4  6  1  0
  6  7  1  0
  6 26  1  0
  6 27  1  0
  7  8  1  0
  7 28  1  0
  7 29  1  0
  8  9  1  0
  8 30  1  0
  8 31  1  0
  9 10  1  0
  9 32  1  0
 10 11  2  0
 10 19  1  0
 11 12  1  0
 12 13  2  0
 12 18  1  0
 13 14  1  0
 13 33  1  0
 14 15  2  0
 14 34  1  0
 15 16  1  0
 15 17  1  0
 16 35  1  0
 16 36  1  0
 17 18  2  0
 17 37  1  0
 18 19  1  0
 19 20  1  0
M  END

