
     RDKit          3D

 30 30  0  0  0  0  0  0  0  0999 V2000
    1.1701   -0.4219   -0.3908 C   0  0  0  0  0  0  0  0  0  0  0  0
    2.2813   -0.0358    0.3855 O   0  0  0  0  0  0  0  0  0  0  0  0
    3.0305   -0.9971    0.9899 C   0  0  0  0  0  0  0  0  0  0  0  0
    4.1191   -0.5567    1.7530 C   0  0  0  0  0  0  0  0  0  0  0  0
    4.9315   -1.4750    2.4186 C   0  0  0  0  0  0  0  0  0  0  0  0
    4.6673   -2.8485    2.3308 C   0  0  0  0  0  0  0  0  0  0  0  0
    5.4086   -3.8076    2.9857 O   0  0  0  0  0  0  0  0  0  0  0  0
    6.5041   -3.4150    3.7841 C   0  0  0  0  0  0  0  0  0  0  0  0
    3.5913   -3.3128    1.5476 C   0  0  0  0  0  0  0  0  0  0  0  0
    3.2562   -4.7966    1.4437 C   0  0  1  0  0  0  0  0  0  0  0  0
    4.3808   -5.6219    1.2246 O   0  0  0  0  0  0  0  0  0  0  0  0
    2.4555   -5.2902    2.6753 C   0  0  0  0  0  0  0  0  0  0  0  0
    1.1970   -4.6126    2.9447 N   0  0  0  0  0  0  0  0  0  0  0  0
    0.3923   -4.6295    1.7565 O   0  0  0  0  0  0  0  0  0  0  0  0
    2.7814   -2.3750    0.8922 C   0  0  0  0  0  0  0  0  0  0  0  0
    0.7124    0.5039   -0.7652 H   0  0  0  0  0  0  0  0  0  0  0  0
    0.4220   -0.9760    0.2049 H   0  0  0  0  0  0  0  0  0  0  0  0
    1.4659   -1.0473   -1.2529 H   0  0  0  0  0  0  0  0  0  0  0  0
    4.3158    0.5151    1.8181 H   0  0  0  0  0  0  0  0  0  0  0  0
    5.7693   -1.1038    3.0090 H   0  0  0  0  0  0  0  0  0  0  0  0
    6.9336   -4.3354    4.2023 H   0  0  0  0  0  0  0  0  0  0  0  0
    6.1885   -2.7586    4.6143 H   0  0  0  0  0  0  0  0  0  0  0  0
    7.2780   -2.8953    3.1917 H   0  0  0  0  0  0  0  0  0  0  0  0
    2.6051   -4.9296    0.5674 H   0  0  0  0  0  0  0  0  0  0  0  0
    5.0331   -5.3804    1.8995 H   0  0  0  0  0  0  0  0  0  0  0  0
    3.0735   -5.1784    3.5833 H   0  0  0  0  0  0  0  0  0  0  0  0
    2.2637   -6.3670    2.5365 H   0  0  0  0  0  0  0  0  0  0  0  0
    1.3867   -3.6184    3.0937 H   0  0  0  0  0  0  0  0  0  0  0  0
   -0.4014   -5.1024    2.0394 H   0  0  0  0  0  0  0  0  0  0  0  0
    1.9399   -2.7513    0.3099 H   0  0  0  0  0  0  0  0  0  0  0  0
  1  2  1  0
  1 16  1  0
  1 17  1  0
  1 18  1  0
  2  3  1  0
  3  4  2  0
  3 15  1  0
  4  5  1  0
  4 19  1  0
  5  6  2  0
  5 20  1  0
  6  7  1  0
  6  9  1  0
  7  8  1  0
  8 21  1  0
  8 22  1  0
  8 23  1  0
  9 10  1  0
  9 15  2  0
 10 11  1  0
 10 12  1  0
 10 24  1  6
 11 25  1  0
 12 13  1  0
 12 26  1  0
 12 27  1  0
 13 14  1  0
 13 28  1  0
 14 29  1  0
 15 30  1  0
M  END

