
     RDKit          3D

 31 32  0  0  0  0  0  0  0  0999 V2000
    1.6037    1.5704   -0.0363 O   0  0  0  0  0  0  0  0  0  0  0  0
    1.5401    0.4500    0.4089 C   0  0  0  0  0  0  0  0  0  0  0  0
    2.3207    0.0042    1.5840 C   0  0  0  0  0  0  0  0  0  0  0  0
    2.2845   -1.2343    2.1150 C   0  0  0  0  0  0  0  0  0  0  0  0
    3.0405   -1.7162    3.2758 C   0  0  0  0  0  0  0  0  0  0  0  0
    3.9378   -0.9034    4.0027 C   0  0  0  0  0  0  0  0  0  0  0  0
    4.6317   -1.4055    5.0975 C   0  0  0  0  0  0  0  0  0  0  0  0
    4.4291   -2.7363    5.4736 C   0  0  0  0  0  0  0  0  0  0  0  0
    5.1654   -3.2734    6.6376 N   0  0  0  0  0  0  0  0  0  0  0  0
    5.9243   -2.5165    7.2207 O   0  0  0  0  0  0  0  0  0  0  0  0
    4.9664   -4.4385    6.9400 O   0  0  0  0  0  0  0  0  0  0  0  0
    3.5525   -3.5712    4.7821 C   0  0  0  0  0  0  0  0  0  0  0  0
    2.8645   -3.0537    3.6872 C   0  0  0  0  0  0  0  0  0  0  0  0
    0.7593   -0.5462   -0.0918 O   0  0  0  0  0  0  0  0  0  0  0  0
   -0.0873   -0.4546   -1.1835 C   0  0  0  0  0  0  0  0  0  0  0  0
   -0.2779    0.6825   -1.9796 C   0  0  0  0  0  0  0  0  0  0  0  0
   -1.1704    0.6178   -3.0551 C   0  0  0  0  0  0  0  0  0  0  0  0
   -1.8614   -0.5629   -3.3310 C   0  0  0  0  0  0  0  0  0  0  0  0
   -3.0736   -0.6326   -4.8007 Br  0  0  0  0  0  0  0  0  0  0  0  0
   -1.6709   -1.6977   -2.5359 C   0  0  0  0  0  0  0  0  0  0  0  0
   -0.7832   -1.6383   -1.4639 C   0  0  0  0  0  0  0  0  0  0  0  0
    2.9482    0.7994    1.9919 H   0  0  0  0  0  0  0  0  0  0  0  0
    1.6265   -1.9684    1.6417 H   0  0  0  0  0  0  0  0  0  0  0  0
    4.0965    0.1354    3.7089 H   0  0  0  0  0  0  0  0  0  0  0  0
    5.3273   -0.7909    5.6682 H   0  0  0  0  0  0  0  0  0  0  0  0
    3.4250   -4.6025    5.1098 H   0  0  0  0  0  0  0  0  0  0  0  0
    2.1740   -3.6959    3.1352 H   0  0  0  0  0  0  0  0  0  0  0  0
    0.2593    1.6015   -1.7639 H   0  0  0  0  0  0  0  0  0  0  0  0
   -1.3233    1.5000   -3.6790 H   0  0  0  0  0  0  0  0  0  0  0  0
   -2.2114   -2.6205   -2.7518 H   0  0  0  0  0  0  0  0  0  0  0  0
   -0.6185   -2.5114   -0.8296 H   0  0  0  0  0  0  0  0  0  0  0  0
  1  2  2  0
  2  3  1  0
  2 14  1  0
  3  4  2  0
  3 22  1  0
  4  5  1  0
  4 23  1  0
  5  6  2  0
  5 13  1  0
  6  7  1  0
  6 24  1  0
  7  8  2  0
  7 25  1  0
  8  9  1  0
  8 12  1  0
  9 10  2  0
  9 11  1  0
 12 13  2  0
 12 26  1  0
 13 27  1  0
 14 15  1  0
 15 16  2  0
 15 21  1  0
 16 17  1  0
 16 28  1  0
 17 18  2  0
 17 29  1  0
 18 19  1  0
 18 20  1  0
 20 21  2  0
 20 30  1  0
 21 31  1  0
M  CHG  2   9   1  11  -1
M  END

