
     RDKit          3D

 28 28  0  0  0  0  0  0  0  0999 V2000
    0.7967   -0.2311    0.4963 C   0  0  0  0  0  0  0  0  0  0  0  0
    2.2014   -0.0146    0.1996 N   0  0  0  0  0  0  0  0  0  0  0  0
    2.7248   -0.7096   -0.9732 C   0  0  0  0  0  0  0  0  0  0  0  0
    2.4051   -0.0329   -2.3172 C   0  0  0  0  0  0  0  0  0  0  0  0
    3.0435    1.3434   -2.4986 C   0  0  0  0  0  0  0  0  0  0  0  0
    2.5207    2.2234   -4.0224 S   0  0  0  0  0  0  0  0  0  0  0  0
    3.0106    0.6126    1.1284 C   0  0  0  0  0  0  0  0  0  0  0  0
    2.4986    1.0005    2.3956 C   0  0  0  0  0  0  0  0  0  0  0  0
    3.2971    1.6400    3.3349 C   0  0  0  0  0  0  0  0  0  0  0  0
    4.6487    1.9260    3.0675 C   0  0  0  0  0  0  0  0  0  0  0  0
    5.4707    2.5826    4.0390 C   0  0  0  0  0  0  0  0  0  0  0  0
    6.1387    3.1149    4.8276 N   0  0  0  0  0  0  0  0  0  0  0  0
    5.1683    1.5485    1.8137 C   0  0  0  0  0  0  0  0  0  0  0  0
    4.3747    0.9137    0.8692 C   0  0  0  0  0  0  0  0  0  0  0  0
    0.2913   -0.6148   -0.3996 H   0  0  0  0  0  0  0  0  0  0  0  0
    0.2932    0.7070    0.7799 H   0  0  0  0  0  0  0  0  0  0  0  0
    0.6420   -0.9624    1.3133 H   0  0  0  0  0  0  0  0  0  0  0  0
    2.3021   -1.7306   -0.9884 H   0  0  0  0  0  0  0  0  0  0  0  0
    3.8094   -0.8436   -0.8630 H   0  0  0  0  0  0  0  0  0  0  0  0
    1.3126    0.0623   -2.4368 H   0  0  0  0  0  0  0  0  0  0  0  0
    2.7406   -0.7072   -3.1251 H   0  0  0  0  0  0  0  0  0  0  0  0
    4.1432    1.2836   -2.4759 H   0  0  0  0  0  0  0  0  0  0  0  0
    2.7444    2.0175   -1.6809 H   0  0  0  0  0  0  0  0  0  0  0  0
    3.0598    1.3485   -4.9042 H   0  0  0  0  0  0  0  0  0  0  0  0
    1.4633    0.7913    2.6589 H   0  0  0  0  0  0  0  0  0  0  0  0
    2.8697    1.9193    4.3003 H   0  0  0  0  0  0  0  0  0  0  0  0
    6.2117    1.7668    1.5770 H   0  0  0  0  0  0  0  0  0  0  0  0
    4.8225    0.6667   -0.0919 H   0  0  0  0  0  0  0  0  0  0  0  0
  1  2  1  0
  1 15  1  0
  1 16  1  0
  1 17  1  0
  2  3  1  0
  2  7  1  0
  3  4  1  0
  3 18  1  0
  3 19  1  0
  4  5  1  0
  4 20  1  0
  4 21  1  0
  5  6  1  0
  5 22  1  0
  5 23  1  0
  6 24  1  0
  7  8  2  0
  7 14  1  0
  8  9  1  0
  8 25  1  0
  9 10  2  0
  9 26  1  0
 10 11  1  0
 10 13  1  0
 11 12  3  0
 13 14  2  0
 13 27  1  0
 14 28  1  0
M  END

