
     RDKit          3D

 58 61  0  0  0  0  0  0  0  0999 V2000
    2.5575    0.3945   -1.0525 C   0  0  0  0  0  0  0  0  0  0  0  0
    2.4459   -0.3197    0.0789 C   0  0  0  0  0  0  0  0  0  0  0  0
    3.3050   -0.2613    1.2710 C   0  0  0  0  0  0  0  0  0  0  0  0
    4.4366    0.5737    1.3734 C   0  0  0  0  0  0  0  0  0  0  0  0
    5.2219    0.5943    2.5203 C   0  0  0  0  0  0  0  0  0  0  0  0
    4.9055   -0.2171    3.6281 C   0  0  0  0  0  0  0  0  0  0  0  0
    5.7001   -0.1753    4.8053 N   0  0  0  0  0  0  0  0  0  0  0  0
    6.1337    1.0881    5.3048 C   0  0  0  0  0  0  0  0  0  0  0  0
    5.2833    2.1281    5.4653 C   0  0  0  0  0  0  0  0  0  0  0  0
    5.8149    3.4812    5.8593 C   0  0  0  0  0  0  0  0  0  0  0  0
    7.0622    3.3725    6.7453 C   0  0  0  0  0  0  0  0  0  0  0  0
    8.0479    2.3408    6.2316 C   0  0  0  0  0  0  0  0  0  0  0  0
    9.5014    2.5368    6.5471 C   0  0  0  0  0  0  0  0  0  0  0  0
    7.5712    1.2623    5.5751 C   0  0  0  0  0  0  0  0  0  0  0  0
    6.1130   -1.3536    5.4496 C   0  0  0  0  0  0  0  0  0  0  0  0
    6.3281   -2.5332    4.8019 C   0  0  0  0  0  0  0  0  0  0  0  0
    6.7012   -3.7319    5.5269 C   0  0  0  0  0  0  0  0  0  0  0  0
    6.5894   -3.8463    6.8793 C   0  0  0  0  0  0  0  0  0  0  0  0
    6.8942   -5.0943    7.6088 C   0  0  0  0  0  0  0  0  0  0  0  0
    7.2822   -5.0924    8.9637 C   0  0  0  0  0  0  0  0  0  0  0  0
    7.5830   -6.2761    9.6422 C   0  0  0  0  0  0  0  0  0  0  0  0
    7.5082   -7.5226    9.0076 C   0  0  0  0  0  0  0  0  0  0  0  0
    7.8248   -8.8064    9.7342 C   0  0  0  0  0  0  0  0  0  0  0  0
    7.1128   -7.5341    7.6577 C   0  0  0  0  0  0  0  0  0  0  0  0
    6.8093   -6.3581    6.9793 C   0  0  0  0  0  0  0  0  0  0  0  0
    6.0150   -2.6461    7.6140 C   0  0  0  0  0  0  0  0  0  0  0  0
    6.3641   -1.3128    6.9459 C   0  0  0  0  0  0  0  0  0  0  0  0
    3.7798   -1.0534    3.5390 C   0  0  0  0  0  0  0  0  0  0  0  0
    3.0044   -1.0728    2.3822 C   0  0  0  0  0  0  0  0  0  0  0  0
    1.8502    0.2563   -1.8738 H   0  0  0  0  0  0  0  0  0  0  0  0
    3.3456    1.1369   -1.2068 H   0  0  0  0  0  0  0  0  0  0  0  0
    1.6222   -1.0403    0.1495 H   0  0  0  0  0  0  0  0  0  0  0  0
    4.7193    1.2118    0.5331 H   0  0  0  0  0  0  0  0  0  0  0  0
    6.0970    1.2450    2.5680 H   0  0  0  0  0  0  0  0  0  0  0  0
    4.2242    2.0156    5.2210 H   0  0  0  0  0  0  0  0  0  0  0  0
    5.0361    4.0670    6.3731 H   0  0  0  0  0  0  0  0  0  0  0  0
    6.0619    4.0535    4.9398 H   0  0  0  0  0  0  0  0  0  0  0  0
    6.7669    3.0792    7.7740 H   0  0  0  0  0  0  0  0  0  0  0  0
    7.5496    4.3565    6.8420 H   0  0  0  0  0  0  0  0  0  0  0  0
    9.8866    3.4679    6.0942 H   0  0  0  0  0  0  0  0  0  0  0  0
   10.1191    1.6990    6.1911 H   0  0  0  0  0  0  0  0  0  0  0  0
    9.6548    2.6393    7.6373 H   0  0  0  0  0  0  0  0  0  0  0  0
    8.2492    0.4796    5.2230 H   0  0  0  0  0  0  0  0  0  0  0  0
    6.2377   -2.5879    3.7150 H   0  0  0  0  0  0  0  0  0  0  0  0
    7.0763   -4.5720    4.9365 H   0  0  0  0  0  0  0  0  0  0  0  0
    7.3780   -4.1470    9.5013 H   0  0  0  0  0  0  0  0  0  0  0  0
    7.8890   -6.2251   10.6914 H   0  0  0  0  0  0  0  0  0  0  0  0
    8.1452   -8.6171   10.7695 H   0  0  0  0  0  0  0  0  0  0  0  0
    8.6302   -9.3668    9.2299 H   0  0  0  0  0  0  0  0  0  0  0  0
    6.9472   -9.4744    9.7722 H   0  0  0  0  0  0  0  0  0  0  0  0
    7.0266   -8.4901    7.1316 H   0  0  0  0  0  0  0  0  0  0  0  0
    6.4724   -6.4184    5.9424 H   0  0  0  0  0  0  0  0  0  0  0  0
    6.3441   -2.6130    8.6620 H   0  0  0  0  0  0  0  0  0  0  0  0
    4.9129   -2.7693    7.6533 H   0  0  0  0  0  0  0  0  0  0  0  0
    7.4312   -1.0836    7.1266 H   0  0  0  0  0  0  0  0  0  0  0  0
    5.7903   -0.4950    7.4066 H   0  0  0  0  0  0  0  0  0  0  0  0
    3.5167   -1.6915    4.3841 H   0  0  0  0  0  0  0  0  0  0  0  0
    2.1293   -1.7279    2.3407 H   0  0  0  0  0  0  0  0  0  0  0  0
  1  2  2  0
  1 30  1  0
  1 31  1  0
  2  3  1  0
  2 32  1  0
  3  4  2  0
  3 29  1  0
  4  5  1  0
  4 33  1  0
  5  6  2  0
  5 34  1  0
  6  7  1  0
  6 28  1  0
  7  8  1  0
  7 15  1  0
  8  9  2  0
  8 14  1  0
  9 10  1  0
  9 35  1  0
 10 11  1  0
 10 36  1  0
 10 37  1  0
 11 12  1  0
 11 38  1  0
 11 39  1  0
 12 13  1  0
 12 14  2  0
 13 40  1  0
 13 41  1  0
 13 42  1  0
 14 43  1  0
 15 16  2  0
 15 27  1  0
 16 17  1  0
 16 44  1  0
 17 18  2  0
 17 45  1  0
 18 19  1  0
 18 26  1  0
 19 20  2  0
 19 25  1  0
 20 21  1  0
 20 46  1  0
 21 22  2  0
 21 47  1  0
 22 23  1  0
 22 24  1  0
 23 48  1  0
 23 49  1  0
 23 50  1  0
 24 25  2  0
 24 51  1  0
 25 52  1  0
 26 27  1  0
 26 53  1  0
 26 54  1  0
 27 55  1  0
 27 56  1  0
 28 29  2  0
 28 57  1  0
 29 58  1  0
M  END

