
     RDKit          3D

 72 75  0  0  0  0  0  0  0  0999 V2000
    1.8695   -0.6888   -0.1806 C   0  0  0  0  0  0  0  0  0  0  0  0
    1.3450   -1.6328   -1.2825 C   0  0  1  0  0  0  0  0  0  0  0  0
    1.4976   -0.9869   -2.6678 C   0  0  0  0  0  0  0  0  0  0  0  0
    1.8852   -2.9929   -1.2768 N   0  0  0  0  0  0  0  0  0  0  0  0
    3.3066   -3.2284   -1.4407 C   0  0  0  0  0  0  0  0  0  0  0  0
    4.0535   -3.4630   -0.1187 C   0  0  0  0  0  0  0  0  0  0  0  0
    3.4038   -4.5049    0.6792 N   0  0  0  0  0  0  0  0  0  0  0  0
    4.1432   -5.1533    1.6792 C   0  0  0  0  0  0  0  0  0  0  0  0
    5.4803   -5.5547    1.4525 C   0  0  0  0  0  0  0  0  0  0  0  0
    6.2131   -6.2226    2.4272 C   0  0  0  0  0  0  0  0  0  0  0  0
    5.6657   -6.5445    3.6841 C   0  0  0  0  0  0  0  0  0  0  0  0
    6.4587   -7.2973    4.7081 C   0  0  0  0  0  0  0  0  0  0  0  0
    7.6681   -6.8370    5.1345 C   0  0  0  0  0  0  0  0  0  0  0  0
    8.6290   -7.6123    6.0389 C   0  0  0  0  0  0  0  0  0  0  0  0
    9.3123   -8.8595    5.4383 C   0  0  0  0  0  0  0  0  0  0  0  0
   10.2498   -8.6013    4.2629 C   0  0  0  0  0  0  0  0  0  0  0  0
   11.3937   -7.8334    4.5953 O   0  0  0  0  0  0  0  0  0  0  0  0
    8.1054   -5.4348    4.8094 C   0  0  0  0  0  0  0  0  0  0  0  0
    7.3270   -4.3445    5.2424 C   0  0  0  0  0  0  0  0  0  0  0  0
    7.7303   -3.0275    5.0137 C   0  0  0  0  0  0  0  0  0  0  0  0
    8.9276   -2.7630    4.3422 C   0  0  0  0  0  0  0  0  0  0  0  0
    9.7167   -3.8315    3.9091 C   0  0  0  0  0  0  0  0  0  0  0  0
    9.3139   -5.1497    4.1450 C   0  0  0  0  0  0  0  0  0  0  0  0
    5.7751   -8.6157    5.1368 C   0  0  2  0  0  0  0  0  0  0  0  0
    5.9427   -9.0401    6.5740 C   0  0  0  0  0  0  0  0  0  0  0  0
    6.1717  -10.3010    6.9583 C   0  0  0  0  0  0  0  0  0  0  0  0
    6.3596  -11.4391    5.9931 C   0  0  0  0  0  0  0  0  0  0  0  0
    6.2801  -11.0091    4.5530 C   0  0  0  0  0  0  0  0  0  0  0  0
    6.4730  -11.9898    3.6200 O   0  0  0  0  0  0  0  0  0  0  0  0
    6.0372   -9.7484    4.1669 C   0  0  0  0  0  0  0  0  0  0  0  0
    4.3321   -6.1611    3.9007 C   0  0  0  0  0  0  0  0  0  0  0  0
    3.5917   -5.4708    2.9399 C   0  0  0  0  0  0  0  0  0  0  0  0
    1.9851   -4.2559    0.8939 C   0  0  0  0  0  0  0  0  0  0  0  0
    1.2737   -4.0099   -0.4479 C   0  0  0  0  0  0  0  0  0  0  0  0
    1.3486    0.2823   -0.2207 H   0  0  0  0  0  0  0  0  0  0  0  0
    2.9470   -0.4878   -0.3014 H   0  0  0  0  0  0  0  0  0  0  0  0
    1.7146   -1.1112    0.8240 H   0  0  0  0  0  0  0  0  0  0  0  0
    0.2619   -1.7600   -1.1100 H   0  0  0  0  0  0  0  0  0  0  0  0
    2.5545   -0.7894   -2.9127 H   0  0  0  0  0  0  0  0  0  0  0  0
    0.9706   -0.0202   -2.7081 H   0  0  0  0  0  0  0  0  0  0  0  0
    1.0857   -1.6456   -3.4469 H   0  0  0  0  0  0  0  0  0  0  0  0
    3.7727   -2.3867   -1.9745 H   0  0  0  0  0  0  0  0  0  0  0  0
    3.4516   -4.1281   -2.0715 H   0  0  0  0  0  0  0  0  0  0  0  0
    4.1070   -2.5167    0.4605 H   0  0  0  0  0  0  0  0  0  0  0  0
    5.0861   -3.7571   -0.3448 H   0  0  0  0  0  0  0  0  0  0  0  0
    5.9493   -5.3689    0.4853 H   0  0  0  0  0  0  0  0  0  0  0  0
    7.2388   -6.5221    2.2023 H   0  0  0  0  0  0  0  0  0  0  0  0
    8.0985   -7.9379    6.9457 H   0  0  0  0  0  0  0  0  0  0  0  0
    9.4015   -6.9132    6.4012 H   0  0  0  0  0  0  0  0  0  0  0  0
    8.5404   -9.5701    5.1080 H   0  0  0  0  0  0  0  0  0  0  0  0
    9.8894   -9.3536    6.2401 H   0  0  0  0  0  0  0  0  0  0  0  0
    9.6821   -8.1360    3.4303 H   0  0  0  0  0  0  0  0  0  0  0  0
   10.6323   -9.5611    3.8802 H   0  0  0  0  0  0  0  0  0  0  0  0
   11.1038   -7.0379    5.0599 H   0  0  0  0  0  0  0  0  0  0  0  0
    6.3911   -4.5399    5.7698 H   0  0  0  0  0  0  0  0  0  0  0  0
    7.1049   -2.2023    5.3653 H   0  0  0  0  0  0  0  0  0  0  0  0
    9.2447   -1.7328    4.1611 H   0  0  0  0  0  0  0  0  0  0  0  0
   10.6544   -3.6422    3.3797 H   0  0  0  0  0  0  0  0  0  0  0  0
    9.9509   -5.9604    3.7869 H   0  0  0  0  0  0  0  0  0  0  0  0
    4.6965   -8.3763    5.0464 H   0  0  0  0  0  0  0  0  0  0  0  0
    5.7971   -8.2636    7.3318 H   0  0  0  0  0  0  0  0  0  0  0  0
    6.2237  -10.5450    8.0245 H   0  0  0  0  0  0  0  0  0  0  0  0
    5.6002  -12.2263    6.1825 H   0  0  0  0  0  0  0  0  0  0  0  0
    7.3363  -11.9356    6.1735 H   0  0  0  0  0  0  0  0  0  0  0  0
    6.6514  -12.8276    4.0641 H   0  0  0  0  0  0  0  0  0  0  0  0
    5.9877   -9.5270    3.0980 H   0  0  0  0  0  0  0  0  0  0  0  0
    3.8572   -6.3702    4.8638 H   0  0  0  0  0  0  0  0  0  0  0  0
    2.5761   -5.1666    3.1912 H   0  0  0  0  0  0  0  0  0  0  0  0
    1.8202   -3.3966    1.5812 H   0  0  0  0  0  0  0  0  0  0  0  0
    1.5334   -5.1410    1.3657 H   0  0  0  0  0  0  0  0  0  0  0  0
    0.2202   -3.7497   -0.2592 H   0  0  0  0  0  0  0  0  0  0  0  0
    1.2784   -4.9720   -0.9987 H   0  0  0  0  0  0  0  0  0  0  0  0
  1  2  1  0
  1 35  1  0
  1 36  1  0
  1 37  1  0
  2  3  1  0
  2  4  1  0
  2 38  1  1
  3 39  1  0
  3 40  1  0
  3 41  1  0
  4  5  1  0
  4 34  1  0
  5  6  1  0
  5 42  1  0
  5 43  1  0
  6  7  1  0
  6 44  1  0
  6 45  1  0
  7  8  1  0
  7 33  1  0
  8  9  2  0
  8 32  1  0
  9 10  1  0
  9 46  1  0
 10 11  2  0
 10 47  1  0
 11 12  1  0
 11 31  1  0
 12 13  2  0
 12 24  1  0
 13 14  1  0
 13 18  1  0
 14 15  1  0
 14 48  1  0
 14 49  1  0
 15 16  1  0
 15 50  1  0
 15 51  1  0
 16 17  1  0
 16 52  1  0
 16 53  1  0
 17 54  1  0
 18 19  2  0
 18 23  1  0
 19 20  1  0
 19 55  1  0
 20 21  2  0
 20 56  1  0
 21 22  1  0
 21 57  1  0
 22 23  2  0
 22 58  1  0
 23 59  1  0
 24 25  1  0
 24 30  1  0
 24 60  1  1
 25 26  2  0
 25 61  1  0
 26 27  1  0
 26 62  1  0
 27 28  1  0
 27 63  1  0
 27 64  1  0
 28 29  1  0
 28 30  2  0
 29 65  1  0
 30 66  1  0
 31 32  2  0
 31 67  1  0
 32 68  1  0
 33 34  1  0
 33 69  1  0
 33 70  1  0
 34 71  1  0
 34 72  1  0
M  END

