
     RDKit          3D

 43 45  0  0  0  0  0  0  0  0999 V2000
    3.5115   -0.5336   -1.4954 C   0  0  0  0  0  0  0  0  0  0  0  0
    2.7477   -0.3287   -0.1826 C   0  0  2  0  0  0  0  0  0  0  0  0
    1.6671   -0.3647   -0.3878 H   0  0  0  0  0  0  0  0  0  0  0  0
    3.1431    0.9766    0.5399 C   0  0  0  0  0  0  0  0  0  0  0  0
    4.3986    0.6085    1.3412 C   0  0  0  0  0  0  0  0  0  0  0  0
    4.2485   -0.8351    1.5752 N   0  0  0  0  0  0  0  0  0  0  0  0
    5.2457   -1.4902    2.2580 C   0  0  0  0  0  0  0  0  0  0  0  0
    6.1968   -0.8945    2.7389 O   0  0  0  0  0  0  0  0  0  0  0  0
    5.0925   -2.8739    2.3550 N   0  0  0  0  0  0  0  0  0  0  0  0
    5.9514   -3.7753    2.9867 C   0  0  0  0  0  0  0  0  0  0  0  0
    7.1411   -3.4504    3.6722 C   0  0  0  0  0  0  0  0  0  0  0  0
    7.8882   -4.3901    4.2432 N   0  0  0  0  0  0  0  0  0  0  0  0
    7.5016   -5.6711    4.1648 C   0  0  0  0  0  0  0  0  0  0  0  0
    8.3527   -6.7045    4.8092 C   0  0  0  0  0  0  0  0  0  0  0  0
    9.5311   -6.3376    5.4834 C   0  0  0  0  0  0  0  0  0  0  0  0
   10.3303   -7.3082    6.0885 C   0  0  0  0  0  0  0  0  0  0  0  0
    9.9660   -8.6579    6.0300 C   0  0  0  0  0  0  0  0  0  0  0  0
    8.7950   -9.0310    5.3611 C   0  0  0  0  0  0  0  0  0  0  0  0
    7.9934   -8.0630    4.7549 C   0  0  0  0  0  0  0  0  0  0  0  0
    6.3852   -6.0731    3.5333 N   0  0  0  0  0  0  0  0  0  0  0  0
    5.6349   -5.1458    2.9621 C   0  0  0  0  0  0  0  0  0  0  0  0
    3.0949   -1.4052    0.8720 C   0  0  1  0  0  0  0  0  0  0  0  0
    3.3796   -2.3466    0.3610 H   0  0  0  0  0  0  0  0  0  0  0  0
    1.9188   -1.7069    1.8251 C   0  0  0  0  0  0  0  0  0  0  0  0
    0.7875   -2.2068    1.1505 O   0  0  0  0  0  0  0  0  0  0  0  0
    4.6022   -0.5468   -1.3354 H   0  0  0  0  0  0  0  0  0  0  0  0
    3.2882    0.2752   -2.2089 H   0  0  0  0  0  0  0  0  0  0  0  0
    3.2334   -1.4862   -1.9748 H   0  0  0  0  0  0  0  0  0  0  0  0
    2.3363    1.2949    1.2189 H   0  0  0  0  0  0  0  0  0  0  0  0
    3.3232    1.8075   -0.1584 H   0  0  0  0  0  0  0  0  0  0  0  0
    4.4820    1.1536    2.2935 H   0  0  0  0  0  0  0  0  0  0  0  0
    5.3311    0.8045    0.7848 H   0  0  0  0  0  0  0  0  0  0  0  0
    4.2865   -3.2945    1.9104 H   0  0  0  0  0  0  0  0  0  0  0  0
    7.4690   -2.4128    3.7437 H   0  0  0  0  0  0  0  0  0  0  0  0
    9.8028   -5.2818    5.5210 H   0  0  0  0  0  0  0  0  0  0  0  0
   11.2439   -7.0104    6.6096 H   0  0  0  0  0  0  0  0  0  0  0  0
   10.5932   -9.4173    6.5046 H   0  0  0  0  0  0  0  0  0  0  0  0
    8.5051  -10.0840    5.3120 H   0  0  0  0  0  0  0  0  0  0  0  0
    7.0781   -8.3410    4.2306 H   0  0  0  0  0  0  0  0  0  0  0  0
    4.7242   -5.4891    2.4483 H   0  0  0  0  0  0  0  0  0  0  0  0
    2.2583   -2.3870    2.6319 H   0  0  0  0  0  0  0  0  0  0  0  0
    1.6050   -0.7732    2.3174 H   0  0  0  0  0  0  0  0  0  0  0  0
    0.9892   -3.0864    0.8050 H   0  0  0  0  0  0  0  0  0  0  0  0
  1  2  1  0
  1 26  1  0
  1 27  1  0
  1 28  1  0
  2  3  1  6
  2  4  1  0
  2 22  1  0
  4  5  1  0
  4 29  1  0
  4 30  1  0
  5  6  1  0
  5 31  1  0
  5 32  1  0
  6  7  1  0
  6 22  1  0
  7  8  2  0
  7  9  1  0
  9 10  1  0
  9 33  1  0
 10 11  2  0
 10 21  1  0
 11 12  1  0
 11 34  1  0
 12 13  2  0
 13 14  1  0
 13 20  1  0
 14 15  2  0
 14 19  1  0
 15 16  1  0
 15 35  1  0
 16 17  2  0
 16 36  1  0
 17 18  1  0
 17 37  1  0
 18 19  2  0
 18 38  1  0
 19 39  1  0
 20 21  2  0
 21 40  1  0
 22 23  1  6
 22 24  1  0
 24 25  1  0
 24 41  1  0
 24 42  1  0
 25 43  1  0
M  END

