
     RDKit          3D

 68 68  0  0  0  0  0  0  0  0999 V2000
    3.5987    4.3156    5.0913 C   0  0  0  0  0  0  0  0  0  0  0  0
    3.7343    3.6520    3.7202 C   0  0  0  0  0  0  0  0  0  0  0  0
    4.7538    2.5095    3.6929 C   0  0  0  0  0  0  0  0  0  0  0  0
    4.8805    1.8281    2.3193 C   0  0  0  0  0  0  0  0  0  0  0  0
    5.8429    0.6726    2.3237 C   0  0  0  0  0  0  0  0  0  0  0  0
    6.9347    0.4943    1.5636 C   0  0  0  0  0  0  0  0  0  0  0  0
    7.4839    1.4029    0.4947 C   0  0  0  0  0  0  0  0  0  0  0  0
    8.8398    2.0475    0.8416 C   0  0  1  0  0  0  0  0  0  0  0  0
    8.7042    2.6324    1.7697 H   0  0  0  0  0  0  0  0  0  0  0  0
    9.9973    1.0629    1.1260 C   0  0  1  0  0  0  0  0  0  0  0  0
    9.9121    0.5881    2.1203 H   0  0  0  0  0  0  0  0  0  0  0  0
   10.1145    0.0560    0.1129 O   0  0  0  0  0  0  0  0  0  0  0  0
   11.2243    1.9594    0.9955 C   0  0  0  0  0  0  0  0  0  0  0  0
   10.9412    2.7641   -0.2888 C   0  0  1  0  0  0  0  0  0  0  0  0
   11.4890    3.7195   -0.2952 H   0  0  0  0  0  0  0  0  0  0  0  0
   11.3681    2.0710   -1.4444 O   0  0  0  0  0  0  0  0  0  0  0  0
    9.3924    2.9956   -0.2646 C   0  0  2  0  0  0  0  0  0  0  0  0
    9.0213    2.6624   -1.2484 H   0  0  0  0  0  0  0  0  0  0  0  0
    8.9679    4.4592   -0.0639 C   0  0  0  0  0  0  0  0  0  0  0  0
    9.2489    5.3352   -1.2886 C   0  0  0  0  0  0  0  0  0  0  0  0
    9.1225    6.8653   -1.1309 C   0  0  1  0  0  0  0  0  0  0  0  0
    7.6883    7.3855   -0.8977 C   0  0  0  0  0  0  0  0  0  0  0  0
    7.0891    7.2408    0.5059 C   0  0  0  0  0  0  0  0  0  0  0  0
    5.7526    7.9769    0.6496 C   0  0  0  0  0  0  0  0  0  0  0  0
    5.1213    7.8456    2.0390 C   0  0  0  0  0  0  0  0  0  0  0  0
    3.7988    8.5993    2.1859 C   0  0  0  0  0  0  0  0  0  0  0  0
    9.8946    7.3812   -0.0583 O   0  0  0  0  0  0  0  0  0  0  0  0
   11.2820    7.1145   -0.0590 C   0  0  0  0  0  0  0  0  0  0  0  0
    9.6254    7.3367   -2.3778 O   0  0  0  0  0  0  0  0  0  0  0  0
    9.6780    8.7282   -2.6065 C   0  0  0  0  0  0  0  0  0  0  0  0
    2.8600    5.1327    5.0740 H   0  0  0  0  0  0  0  0  0  0  0  0
    4.5587    4.7424    5.4268 H   0  0  0  0  0  0  0  0  0  0  0  0
    3.2753    3.5909    5.8575 H   0  0  0  0  0  0  0  0  0  0  0  0
    4.0206    4.4119    2.9702 H   0  0  0  0  0  0  0  0  0  0  0  0
    2.7500    3.2677    3.3959 H   0  0  0  0  0  0  0  0  0  0  0  0
    4.4749    1.7528    4.4497 H   0  0  0  0  0  0  0  0  0  0  0  0
    5.7444    2.8903    4.0012 H   0  0  0  0  0  0  0  0  0  0  0  0
    5.1630    2.5771    1.5620 H   0  0  0  0  0  0  0  0  0  0  0  0
    3.8807    1.4563    2.0225 H   0  0  0  0  0  0  0  0  0  0  0  0
    5.6106   -0.1129    3.0550 H   0  0  0  0  0  0  0  0  0  0  0  0
    7.5060   -0.4272    1.7405 H   0  0  0  0  0  0  0  0  0  0  0  0
    6.7648    2.2018    0.2574 H   0  0  0  0  0  0  0  0  0  0  0  0
    7.6075    0.8283   -0.4428 H   0  0  0  0  0  0  0  0  0  0  0  0
    9.3346   -0.5128    0.1363 H   0  0  0  0  0  0  0  0  0  0  0  0
   12.1666    1.3959    0.9300 H   0  0  0  0  0  0  0  0  0  0  0  0
   11.2765    2.6254    1.8724 H   0  0  0  0  0  0  0  0  0  0  0  0
   11.0091    1.1723   -1.3627 H   0  0  0  0  0  0  0  0  0  0  0  0
    9.4764    4.8729    0.8250 H   0  0  0  0  0  0  0  0  0  0  0  0
    7.8921    4.4799    0.1737 H   0  0  0  0  0  0  0  0  0  0  0  0
    8.5885    5.0417   -2.1203 H   0  0  0  0  0  0  0  0  0  0  0  0
   10.2688    5.1448   -1.6580 H   0  0  0  0  0  0  0  0  0  0  0  0
    7.0364    6.9105   -1.6503 H   0  0  0  0  0  0  0  0  0  0  0  0
    7.6944    8.4611   -1.1345 H   0  0  0  0  0  0  0  0  0  0  0  0
    7.8106    7.6345    1.2394 H   0  0  0  0  0  0  0  0  0  0  0  0
    6.9385    6.1800    0.7621 H   0  0  0  0  0  0  0  0  0  0  0  0
    5.0397    7.6035   -0.1100 H   0  0  0  0  0  0  0  0  0  0  0  0
    5.8990    9.0488    0.4178 H   0  0  0  0  0  0  0  0  0  0  0  0
    5.8394    8.2064    2.7976 H   0  0  0  0  0  0  0  0  0  0  0  0
    4.9621    6.7750    2.2651 H   0  0  0  0  0  0  0  0  0  0  0  0
    3.9312    9.6796    2.0065 H   0  0  0  0  0  0  0  0  0  0  0  0
    3.3733    8.4804    3.1954 H   0  0  0  0  0  0  0  0  0  0  0  0
    3.0478    8.2369    1.4636 H   0  0  0  0  0  0  0  0  0  0  0  0
   11.7407    7.8060    0.6633 H   0  0  0  0  0  0  0  0  0  0  0  0
   11.7339    7.2812   -1.0510 H   0  0  0  0  0  0  0  0  0  0  0  0
   11.5123    6.0817    0.2599 H   0  0  0  0  0  0  0  0  0  0  0  0
   10.4237    8.8942   -3.3990 H   0  0  0  0  0  0  0  0  0  0  0  0
    9.9906    9.2854   -1.7065 H   0  0  0  0  0  0  0  0  0  0  0  0
    8.7123    9.1373   -2.9568 H   0  0  0  0  0  0  0  0  0  0  0  0
  1  2  1  0
  1 31  1  0
  1 32  1  0
  1 33  1  0
  2  3  1  0
  2 34  1  0
  2 35  1  0
  3  4  1  0
  3 36  1  0
  3 37  1  0
  4  5  1  0
  4 38  1  0
  4 39  1  0
  5  6  2  0
  5 40  1  0
  6  7  1  0
  6 41  1  0
  7  8  1  0
  7 42  1  0
  7 43  1  0
  8  9  1  1
  8 10  1  0
  8 17  1  0
 10 11  1  1
 10 12  1  0
 10 13  1  0
 12 44  1  0
 13 14  1  0
 13 45  1  0
 13 46  1  0
 14 15  1  1
 14 16  1  0
 14 17  1  0
 16 47  1  0
 17 18  1  6
 17 19  1  0
 19 20  1  0
 19 48  1  0
 19 49  1  0
 20 21  1  0
 20 50  1  0
 20 51  1  0
 21 22  1  0
 21 27  1  1
 21 29  1  0
 22 23  1  0
 22 52  1  0
 22 53  1  0
 23 24  1  0
 23 54  1  0
 23 55  1  0
 24 25  1  0
 24 56  1  0
 24 57  1  0
 25 26  1  0
 25 58  1  0
 25 59  1  0
 26 60  1  0
 26 61  1  0
 26 62  1  0
 27 28  1  0
 28 63  1  0
 28 64  1  0
 28 65  1  0
 29 30  1  0
 30 66  1  0
 30 67  1  0
 30 68  1  0
M  END

