
     RDKit          3D

 47 49  0  0  0  0  0  0  0  0999 V2000
    2.1486    1.4823   -1.5660 C   0  0  0  0  0  0  0  0  0  0  0  0
    3.0746    0.7460   -0.6263 C   0  0  0  0  0  0  0  0  0  0  0  0
    3.3655    1.2509    0.6510 C   0  0  0  0  0  0  0  0  0  0  0  0
    4.2070    0.5372    1.5046 C   0  0  0  0  0  0  0  0  0  0  0  0
    4.7785   -0.6734    1.1073 C   0  0  0  0  0  0  0  0  0  0  0  0
    4.4990   -1.2060   -0.1680 C   0  0  0  0  0  0  0  0  0  0  0  0
    5.0239   -2.4455   -0.5950 N   0  0  0  0  0  0  0  0  0  0  0  0
    5.7032   -3.2903    0.3729 C   0  0  0  0  0  0  0  0  0  0  0  0
    5.7718   -4.7373   -0.1192 C   0  0  0  0  0  0  0  0  0  0  0  0
    6.3816   -4.8109   -1.4484 N   0  0  0  0  0  0  0  0  0  0  0  0
    7.4520   -5.6211   -1.6280 C   0  0  0  0  0  0  0  0  0  0  0  0
    7.9340   -6.3052   -0.7251 O   0  0  0  0  0  0  0  0  0  0  0  0
    8.1364   -5.7203   -3.0298 C   0  0  0  0  0  0  0  0  0  0  0  0
    7.8141   -5.1036   -4.0308 O   0  0  0  0  0  0  0  0  0  0  0  0
    9.1626   -6.6152   -2.9446 N   0  0  0  0  0  0  0  0  0  0  0  0
   10.0613   -7.0333   -3.9267 C   0  0  0  0  0  0  0  0  0  0  0  0
   10.0302   -6.5564   -5.2535 C   0  0  0  0  0  0  0  0  0  0  0  0
   10.9625   -7.0228   -6.1765 C   0  0  0  0  0  0  0  0  0  0  0  0
   11.9204   -7.9581   -5.7827 C   0  0  0  0  0  0  0  0  0  0  0  0
   12.9021   -8.4456   -6.7652 N   0  0  0  0  0  0  0  0  0  0  0  0
   12.8340   -8.0027   -7.9014 O   0  0  0  0  0  0  0  0  0  0  0  0
   13.7248   -9.2644   -6.3837 O   0  0  0  0  0  0  0  0  0  0  0  0
   11.9680   -8.4430   -4.4733 C   0  0  0  0  0  0  0  0  0  0  0  0
   11.0391   -7.9791   -3.5513 C   0  0  0  0  0  0  0  0  0  0  0  0
    5.6991   -3.9603   -2.4286 C   0  0  0  0  0  0  0  0  0  0  0  0
    5.6351   -2.5214   -1.9194 C   0  0  0  0  0  0  0  0  0  0  0  0
    3.6403   -0.4743   -1.0140 C   0  0  0  0  0  0  0  0  0  0  0  0
    1.8413    2.4535   -1.1513 H   0  0  0  0  0  0  0  0  0  0  0  0
    1.2333    0.8991   -1.7643 H   0  0  0  0  0  0  0  0  0  0  0  0
    2.6286    1.6681   -2.5411 H   0  0  0  0  0  0  0  0  0  0  0  0
    2.9313    2.2005    0.9740 H   0  0  0  0  0  0  0  0  0  0  0  0
    4.4376    0.9343    2.4969 H   0  0  0  0  0  0  0  0  0  0  0  0
    5.4533   -1.1879    1.7913 H   0  0  0  0  0  0  0  0  0  0  0  0
    5.1440   -3.2800    1.3195 H   0  0  0  0  0  0  0  0  0  0  0  0
    6.7334   -2.9316    0.5912 H   0  0  0  0  0  0  0  0  0  0  0  0
    4.7489   -5.1496   -0.1801 H   0  0  0  0  0  0  0  0  0  0  0  0
    6.3617   -5.3552    0.5670 H   0  0  0  0  0  0  0  0  0  0  0  0
    9.2497   -7.0027   -2.0025 H   0  0  0  0  0  0  0  0  0  0  0  0
    9.2769   -5.8277   -5.5429 H   0  0  0  0  0  0  0  0  0  0  0  0
   10.9590   -6.6695   -7.2075 H   0  0  0  0  0  0  0  0  0  0  0  0
   12.7296   -9.1728   -4.2004 H   0  0  0  0  0  0  0  0  0  0  0  0
   11.0639   -8.3492   -2.5231 H   0  0  0  0  0  0  0  0  0  0  0  0
    4.6712   -4.3446   -2.5581 H   0  0  0  0  0  0  0  0  0  0  0  0
    6.2192   -4.0079   -3.3876 H   0  0  0  0  0  0  0  0  0  0  0  0
    5.0559   -1.9262   -2.6360 H   0  0  0  0  0  0  0  0  0  0  0  0
    6.6648   -2.1011   -1.9028 H   0  0  0  0  0  0  0  0  0  0  0  0
    3.3819   -0.8808   -1.9948 H   0  0  0  0  0  0  0  0  0  0  0  0
  1  2  1  0
  1 28  1  0
  1 29  1  0
  1 30  1  0
  2  3  2  0
  2 27  1  0
  3  4  1  0
  3 31  1  0
  4  5  2  0
  4 32  1  0
  5  6  1  0
  5 33  1  0
  6  7  1  0
  6 27  2  0
  7  8  1  0
  7 26  1  0
  8  9  1  0
  8 34  1  0
  8 35  1  0
  9 10  1  0
  9 36  1  0
  9 37  1  0
 10 11  1  0
 10 25  1  0
 11 12  2  0
 11 13  1  0
 13 14  2  0
 13 15  1  0
 15 16  1  0
 15 38  1  0
 16 17  2  0
 16 24  1  0
 17 18  1  0
 17 39  1  0
 18 19  2  0
 18 40  1  0
 19 20  1  0
 19 23  1  0
 20 21  2  0
 20 22  1  0
 23 24  2  0
 23 41  1  0
 24 42  1  0
 25 26  1  0
 25 43  1  0
 25 44  1  0
 26 45  1  0
 26 46  1  0
 27 47  1  0
M  CHG  2  20   1  22  -1
M  END

