
     RDKit          3D

 54 56  0  0  0  0  0  0  0  0999 V2000
    2.3706   -0.9279    0.5861 C   0  0  0  0  0  0  0  0  0  0  0  0
    3.6251   -0.2352    0.0400 C   0  0  1  0  0  0  0  0  0  0  0  0
    4.5027   -1.2283   -0.7327 C   0  0  0  0  0  0  0  0  0  0  0  0
    3.2579    0.9849   -0.8475 C   0  0  1  0  0  0  0  0  0  0  0  0
    2.3711    1.9228   -0.1551 N   0  0  0  0  0  0  0  0  0  0  0  0
    1.0944    2.1830   -0.5590 C   0  0  0  0  0  0  0  0  0  0  0  0
    0.5461    1.5881   -1.4762 O   0  0  0  0  0  0  0  0  0  0  0  0
    0.3876    3.3241    0.1990 C   0  0  0  0  0  0  0  0  0  0  0  0
   -1.0395    3.1792    0.3675 N   0  0  0  0  0  0  0  0  0  0  0  0
   -1.3986    2.0758    1.2444 C   0  0  0  0  0  0  0  0  0  0  0  0
   -2.8851    1.9865    1.5797 C   0  0  0  0  0  0  0  0  0  0  0  0
   -3.2796    1.2975    2.5044 O   0  0  0  0  0  0  0  0  0  0  0  0
   -3.7259    2.6752    0.7567 N   0  0  0  0  0  0  0  0  0  0  0  0
   -3.3283    3.6106   -0.2863 C   0  0  2  0  0  0  0  0  0  0  0  0
   -4.3518    3.6324   -1.4262 C   0  0  0  0  0  0  0  0  0  0  0  0
   -3.9310    4.6274   -2.5128 C   0  0  0  0  0  0  0  0  0  0  0  0
   -2.5127    4.3300   -3.0140 C   0  0  0  0  0  0  0  0  0  0  0  0
   -1.4913    4.2595   -1.8691 C   0  0  0  0  0  0  0  0  0  0  0  0
   -1.9246    3.2500   -0.8013 C   0  0  1  0  0  0  0  0  0  0  0  0
    4.4614    1.7338   -1.4117 C   0  0  0  0  0  0  0  0  0  0  0  0
    4.5748    1.9514   -2.7929 C   0  0  0  0  0  0  0  0  0  0  0  0
    5.6531    2.6672   -3.3225 C   0  0  0  0  0  0  0  0  0  0  0  0
    6.6376    3.1823   -2.4754 C   0  0  0  0  0  0  0  0  0  0  0  0
    6.5368    2.9746   -1.0960 C   0  0  0  0  0  0  0  0  0  0  0  0
    5.4597    2.2555   -0.5713 C   0  0  0  0  0  0  0  0  0  0  0  0
    2.6463   -1.7849    1.2209 H   0  0  0  0  0  0  0  0  0  0  0  0
    1.7382   -1.3045   -0.2346 H   0  0  0  0  0  0  0  0  0  0  0  0
    1.7562   -0.2456    1.1916 H   0  0  0  0  0  0  0  0  0  0  0  0
    4.2100    0.1373    0.9030 H   0  0  0  0  0  0  0  0  0  0  0  0
    3.9669   -1.6185   -1.6150 H   0  0  0  0  0  0  0  0  0  0  0  0
    4.7656   -2.0893   -0.0981 H   0  0  0  0  0  0  0  0  0  0  0  0
    5.4390   -0.7703   -1.0845 H   0  0  0  0  0  0  0  0  0  0  0  0
    2.6556    0.6139   -1.6902 H   0  0  0  0  0  0  0  0  0  0  0  0
    2.7628    2.4788    0.5968 H   0  0  0  0  0  0  0  0  0  0  0  0
    0.6104    4.2538   -0.3494 H   0  0  0  0  0  0  0  0  0  0  0  0
    0.8424    3.4461    1.1984 H   0  0  0  0  0  0  0  0  0  0  0  0
   -0.8750    2.1724    2.2088 H   0  0  0  0  0  0  0  0  0  0  0  0
   -1.1181    1.0822    0.8269 H   0  0  0  0  0  0  0  0  0  0  0  0
   -4.7056    2.6342    1.0258 H   0  0  0  0  0  0  0  0  0  0  0  0
   -3.2587    4.6328    0.1385 H   0  0  0  0  0  0  0  0  0  0  0  0
   -5.3472    3.8937   -1.0260 H   0  0  0  0  0  0  0  0  0  0  0  0
   -4.4357    2.6156   -1.8489 H   0  0  0  0  0  0  0  0  0  0  0  0
   -3.9683    5.6527   -2.1016 H   0  0  0  0  0  0  0  0  0  0  0  0
   -4.6480    4.6022   -3.3497 H   0  0  0  0  0  0  0  0  0  0  0  0
   -2.1977    5.0920   -3.7459 H   0  0  0  0  0  0  0  0  0  0  0  0
   -2.5124    3.3652   -3.5518 H   0  0  0  0  0  0  0  0  0  0  0  0
   -1.3729    5.2565   -1.4068 H   0  0  0  0  0  0  0  0  0  0  0  0
   -0.5149    3.9620   -2.2776 H   0  0  0  0  0  0  0  0  0  0  0  0
   -1.9882    2.2573   -1.2944 H   0  0  0  0  0  0  0  0  0  0  0  0
    3.8053    1.5558   -3.4616 H   0  0  0  0  0  0  0  0  0  0  0  0
    5.7226    2.8231   -4.4023 H   0  0  0  0  0  0  0  0  0  0  0  0
    7.4812    3.7421   -2.8870 H   0  0  0  0  0  0  0  0  0  0  0  0
    7.3034    3.3712   -0.4250 H   0  0  0  0  0  0  0  0  0  0  0  0
    5.4053    2.0961    0.5099 H   0  0  0  0  0  0  0  0  0  0  0  0
  1  2  1  0
  1 26  1  0
  1 27  1  0
  1 28  1  0
  2  3  1  0
  2  4  1  0
  2 29  1  1
  3 30  1  0
  3 31  1  0
  3 32  1  0
  4  5  1  0
  4 20  1  0
  4 33  1  6
  5  6  1  0
  5 34  1  0
  6  7  2  0
  6  8  1  0
  8  9  1  0
  8 35  1  0
  8 36  1  0
  9 10  1  0
  9 19  1  0
 10 11  1  0
 10 37  1  0
 10 38  1  0
 11 12  2  0
 11 13  1  0
 13 14  1  0
 13 39  1  0
 14 15  1  0
 14 19  1  0
 14 40  1  1
 15 16  1  0
 15 41  1  0
 15 42  1  0
 16 17  1  0
 16 43  1  0
 16 44  1  0
 17 18  1  0
 17 45  1  0
 17 46  1  0
 18 19  1  0
 18 47  1  0
 18 48  1  0
 19 49  1  6
 20 21  2  0
 20 25  1  0
 21 22  1  0
 21 50  1  0
 22 23  2  0
 22 51  1  0
 23 24  1  0
 23 52  1  0
 24 25  2  0
 24 53  1  0
 25 54  1  0
M  END

