
     RDKit          3D

 39 40  0  0  0  0  0  0  0  0999 V2000
    1.0399   -0.1266    0.0785 C   0  0  0  0  0  0  0  0  0  0  0  0
    2.5413   -0.0574   -0.0501 C   0  0  0  0  0  0  0  0  0  0  0  0
    3.1357    0.6520   -1.1011 C   0  0  0  0  0  0  0  0  0  0  0  0
    4.5238    0.7272   -1.2426 C   0  0  0  0  0  0  0  0  0  0  0  0
    5.3646    0.0928   -0.3228 C   0  0  0  0  0  0  0  0  0  0  0  0
    6.8788    0.1744   -0.4547 C   0  0  1  0  0  0  0  0  0  0  0  0
    7.5077    0.9712    0.7043 C   0  0  0  0  0  0  0  0  0  0  0  0
    7.4340   -1.1747   -0.5529 N   0  0  0  0  0  0  0  0  0  0  0  0
    8.6214   -1.4939   -1.1852 C   0  0  0  0  0  0  0  0  0  0  0  0
    9.5409   -0.5265   -1.6446 C   0  0  0  0  0  0  0  0  0  0  0  0
   10.7300   -0.9175   -2.2671 C   0  0  0  0  0  0  0  0  0  0  0  0
   11.0749   -2.2587   -2.4704 C   0  0  0  0  0  0  0  0  0  0  0  0
   12.3500   -2.7015   -3.1381 C   0  0  0  0  0  0  0  0  0  0  0  0
   10.1414   -3.1957   -2.0062 C   0  0  0  0  0  0  0  0  0  0  0  0
   10.4165   -4.5048   -2.1761 F   0  0  0  0  0  0  0  0  0  0  0  0
    8.9520   -2.8545   -1.3828 C   0  0  0  0  0  0  0  0  0  0  0  0
    4.7699   -0.6154    0.7347 C   0  0  0  0  0  0  0  0  0  0  0  0
    3.3805   -0.7067    0.8871 C   0  0  0  0  0  0  0  0  0  0  0  0
    2.7902   -1.4824    2.0390 C   0  0  0  0  0  0  0  0  0  0  0  0
    0.5429    0.4302   -0.7291 H   0  0  0  0  0  0  0  0  0  0  0  0
    0.6929    0.2927    1.0384 H   0  0  0  0  0  0  0  0  0  0  0  0
    0.6750   -1.1674    0.0428 H   0  0  0  0  0  0  0  0  0  0  0  0
    2.4956    1.1556   -1.8313 H   0  0  0  0  0  0  0  0  0  0  0  0
    4.9542    1.2842   -2.0795 H   0  0  0  0  0  0  0  0  0  0  0  0
    7.0934    0.7164   -1.3949 H   0  0  0  0  0  0  0  0  0  0  0  0
    7.2750    0.5005    1.6717 H   0  0  0  0  0  0  0  0  0  0  0  0
    7.1200    2.0020    0.7189 H   0  0  0  0  0  0  0  0  0  0  0  0
    8.6028    1.0137    0.6072 H   0  0  0  0  0  0  0  0  0  0  0  0
    6.7573   -1.9252   -0.4977 H   0  0  0  0  0  0  0  0  0  0  0  0
    9.3368    0.5364   -1.5194 H   0  0  0  0  0  0  0  0  0  0  0  0
   11.4208   -0.1419   -2.6112 H   0  0  0  0  0  0  0  0  0  0  0  0
   12.9592   -1.8343   -3.4324 H   0  0  0  0  0  0  0  0  0  0  0  0
   12.1499   -3.2988   -4.0436 H   0  0  0  0  0  0  0  0  0  0  0  0
   12.9602   -3.3349   -2.4724 H   0  0  0  0  0  0  0  0  0  0  0  0
    8.2847   -3.6527   -1.0498 H   0  0  0  0  0  0  0  0  0  0  0  0
    5.4077   -1.1137    1.4715 H   0  0  0  0  0  0  0  0  0  0  0  0
    3.5747   -1.9216    2.6721 H   0  0  0  0  0  0  0  0  0  0  0  0
    2.1427   -2.3038    1.6874 H   0  0  0  0  0  0  0  0  0  0  0  0
    2.1604   -0.8423    2.6802 H   0  0  0  0  0  0  0  0  0  0  0  0
  1  2  1  0
  1 20  1  0
  1 21  1  0
  1 22  1  0
  2  3  2  0
  2 18  1  0
  3  4  1  0
  3 23  1  0
  4  5  2  0
  4 24  1  0
  5  6  1  0
  5 17  1  0
  6  7  1  0
  6  8  1  0
  6 25  1  6
  7 26  1  0
  7 27  1  0
  7 28  1  0
  8  9  1  0
  8 29  1  0
  9 10  2  0
  9 16  1  0
 10 11  1  0
 10 30  1  0
 11 12  2  0
 11 31  1  0
 12 13  1  0
 12 14  1  0
 13 32  1  0
 13 33  1  0
 13 34  1  0
 14 15  1  0
 14 16  2  0
 16 35  1  0
 17 18  2  0
 17 36  1  0
 18 19  1  0
 19 37  1  0
 19 38  1  0
 19 39  1  0
M  END

