
     RDKit          3D

 42 42  0  0  0  0  0  0  0  0999 V2000
    1.4288    1.6504    3.9063 C   0  0  0  0  0  0  0  0  0  0  0  0
    2.7539    2.1096    3.8309 O   0  0  0  0  0  0  0  0  0  0  0  0
    2.9716    3.0528    2.8199 C   0  0  0  0  0  0  0  0  0  0  0  0
    4.4155    3.5052    2.8392 C   0  0  0  0  0  0  0  0  0  0  0  0
    5.2522    2.4221    2.4698 O   0  0  0  0  0  0  0  0  0  0  0  0
    6.5931    2.5887    2.4412 C   0  0  0  0  0  0  0  0  0  0  0  0
    7.2326    3.8334    2.5571 C   0  0  0  0  0  0  0  0  0  0  0  0
    8.6254    3.9320    2.4813 C   0  0  0  0  0  0  0  0  0  0  0  0
    9.3836    2.7838    2.2881 C   0  0  0  0  0  0  0  0  0  0  0  0
   10.7198    2.8771    2.2139 F   0  0  0  0  0  0  0  0  0  0  0  0
    8.7804    1.5336    2.1819 C   0  0  0  0  0  0  0  0  0  0  0  0
    7.3908    1.4371    2.2556 C   0  0  0  0  0  0  0  0  0  0  0  0
    6.6830   -0.2311    2.2703 S   0  0  1  0  0  0  0  0  0  0  0  0
    7.7934   -1.1207    1.8967 O   0  0  0  0  0  0  0  0  0  0  0  0
    6.0096   -0.3929    3.5586 O   0  0  0  0  0  0  0  0  0  0  0  0
    5.5354   -0.3266    1.0719 N   0  0  0  0  0  0  0  0  0  0  0  0
    4.1184   -0.2560    1.4334 C   0  0  0  0  0  0  0  0  0  0  0  0
    5.8721   -0.7445   -0.3121 C   0  0  1  0  0  0  0  0  0  0  0  0
    6.9004    0.1660   -0.9862 C   0  0  0  0  0  0  0  0  0  0  0  0
    6.2556   -2.2327   -0.4369 C   0  0  0  0  0  0  0  0  0  0  0  0
    5.3430   -3.0836    0.3213 N   0  0  0  0  0  0  0  0  0  0  0  0
    1.3738    0.9243    4.7295 H   0  0  0  0  0  0  0  0  0  0  0  0
    1.1093    1.1493    2.9705 H   0  0  0  0  0  0  0  0  0  0  0  0
    0.7170    2.4758    4.1122 H   0  0  0  0  0  0  0  0  0  0  0  0
    2.3337    3.9514    2.9655 H   0  0  0  0  0  0  0  0  0  0  0  0
    2.7249    2.6378    1.8206 H   0  0  0  0  0  0  0  0  0  0  0  0
    4.6815    3.8605    3.8509 H   0  0  0  0  0  0  0  0  0  0  0  0
    4.5314    4.3454    2.1295 H   0  0  0  0  0  0  0  0  0  0  0  0
    6.6497    4.7415    2.7069 H   0  0  0  0  0  0  0  0  0  0  0  0
    9.1256    4.8982    2.5711 H   0  0  0  0  0  0  0  0  0  0  0  0
    9.3810    0.6329    2.0511 H   0  0  0  0  0  0  0  0  0  0  0  0
    4.0135    0.1106    2.4598 H   0  0  0  0  0  0  0  0  0  0  0  0
    3.6511   -1.2490    1.3398 H   0  0  0  0  0  0  0  0  0  0  0  0
    3.6016    0.4462    0.7576 H   0  0  0  0  0  0  0  0  0  0  0  0
    4.9132   -0.6219   -0.8400 H   0  0  0  0  0  0  0  0  0  0  0  0
    7.8849    0.0864   -0.5029 H   0  0  0  0  0  0  0  0  0  0  0  0
    6.5792    1.2181   -0.9550 H   0  0  0  0  0  0  0  0  0  0  0  0
    7.0218   -0.1243   -2.0420 H   0  0  0  0  0  0  0  0  0  0  0  0
    7.3180   -2.3533   -0.1555 H   0  0  0  0  0  0  0  0  0  0  0  0
    6.1713   -2.4948   -1.5060 H   0  0  0  0  0  0  0  0  0  0  0  0
    5.5697   -3.0107    1.3147 H   0  0  0  0  0  0  0  0  0  0  0  0
    5.4965   -4.0618    0.0772 H   0  0  0  0  0  0  0  0  0  0  0  0
  1  2  1  0
  1 22  1  0
  1 23  1  0
  1 24  1  0
  2  3  1  0
  3  4  1  0
  3 25  1  0
  3 26  1  0
  4  5  1  0
  4 27  1  0
  4 28  1  0
  5  6  1  0
  6  7  2  0
  6 12  1  0
  7  8  1  0
  7 29  1  0
  8  9  2  0
  8 30  1  0
  9 10  1  0
  9 11  1  0
 11 12  2  0
 11 31  1  0
 12 13  1  0
 13 14  2  0
 13 15  2  0
 13 16  1  6
 16 17  1  0
 16 18  1  0
 17 32  1  0
 17 33  1  0
 17 34  1  0
 18 19  1  0
 18 20  1  0
 18 35  1  6
 19 36  1  0
 19 37  1  0
 19 38  1  0
 20 21  1  0
 20 39  1  0
 20 40  1  0
 21 41  1  0
 21 42  1  0
M  END

