
     RDKit          3D

 40 43  0  0  0  0  0  0  0  0999 V2000
    7.0618   -4.7559   -3.2627 N   0  0  0  0  0  0  0  0  0  0  0  0
    6.8355   -3.5716   -2.5783 C   0  0  0  0  0  0  0  0  0  0  0  0
    6.3251   -3.5766   -1.2641 C   0  0  0  0  0  0  0  0  0  0  0  0
    6.1439   -2.3849   -0.5648 C   0  0  0  0  0  0  0  0  0  0  0  0
    6.4599   -1.1399   -1.1336 C   0  0  0  0  0  0  0  0  0  0  0  0
    6.2988    0.1395   -0.3594 C   0  0  1  0  0  0  0  0  0  0  0  0
    7.4508    0.6476    0.4862 C   0  0  0  0  0  0  0  0  0  0  0  0
    7.3515    1.6970    1.1026 O   0  0  0  0  0  0  0  0  0  0  0  0
    8.7068   -0.1603    0.5627 C   0  0  1  0  0  0  0  0  0  0  0  0
   10.0060    0.5824    0.7844 C   0  0  0  0  0  0  0  0  0  0  0  0
    9.4244   -0.1883    1.9248 C   0  0  2  0  0  0  0  0  0  0  0  0
   10.0182   -1.4519    2.4509 C   0  0  0  0  0  0  0  0  0  0  0  0
   10.7487   -2.3438    1.6450 C   0  0  0  0  0  0  0  0  0  0  0  0
   11.2872   -3.5166    2.1782 C   0  0  0  0  0  0  0  0  0  0  0  0
   11.1105   -3.8249    3.5310 C   0  0  0  0  0  0  0  0  0  0  0  0
   10.3878   -2.9478    4.3440 C   0  0  0  0  0  0  0  0  0  0  0  0
    9.8475   -1.7761    3.8076 C   0  0  0  0  0  0  0  0  0  0  0  0
    5.4371    1.2554   -0.9508 C   0  0  0  0  0  0  0  0  0  0  0  0
    4.9233    0.4869    0.2144 C   0  0  0  0  0  0  0  0  0  0  0  0
    6.9658   -1.1415   -2.4440 C   0  0  0  0  0  0  0  0  0  0  0  0
    7.1520   -2.3252   -3.1560 C   0  0  0  0  0  0  0  0  0  0  0  0
    6.5519   -5.5712   -2.9438 H   0  0  0  0  0  0  0  0  0  0  0  0
    7.1268   -4.6941   -4.2719 H   0  0  0  0  0  0  0  0  0  0  0  0
    6.0702   -4.5290   -0.7900 H   0  0  0  0  0  0  0  0  0  0  0  0
    5.7453   -2.4229    0.4529 H   0  0  0  0  0  0  0  0  0  0  0  0
    8.7431   -1.0816   -0.0189 H   0  0  0  0  0  0  0  0  0  0  0  0
    9.9277    1.6717    0.8349 H   0  0  0  0  0  0  0  0  0  0  0  0
   10.8991    0.1913    0.2897 H   0  0  0  0  0  0  0  0  0  0  0  0
    8.9227    0.4265    2.6778 H   0  0  0  0  0  0  0  0  0  0  0  0
   10.9004   -2.1259    0.5845 H   0  0  0  0  0  0  0  0  0  0  0  0
   11.8502   -4.1947    1.5314 H   0  0  0  0  0  0  0  0  0  0  0  0
   11.5339   -4.7424    3.9475 H   0  0  0  0  0  0  0  0  0  0  0  0
   10.2425   -3.1755    5.4034 H   0  0  0  0  0  0  0  0  0  0  0  0
    9.2836   -1.0955    4.4515 H   0  0  0  0  0  0  0  0  0  0  0  0
    5.0040    1.0639   -1.9360 H   0  0  0  0  0  0  0  0  0  0  0  0
    5.7849    2.2750   -0.7690 H   0  0  0  0  0  0  0  0  0  0  0  0
    4.1298   -0.2467    0.0499 H   0  0  0  0  0  0  0  0  0  0  0  0
    4.9217    0.9846    1.1870 H   0  0  0  0  0  0  0  0  0  0  0  0
    7.2188   -0.1903   -2.9210 H   0  0  0  0  0  0  0  0  0  0  0  0
    7.5479   -2.2901   -4.1753 H   0  0  0  0  0  0  0  0  0  0  0  0
  1  2  1  0
  1 22  1  0
  1 23  1  0
  2  3  2  0
  2 21  1  0
  3  4  1  0
  3 24  1  0
  4  5  2  0
  4 25  1  0
  5  6  1  0
  5 20  1  0
  6  7  1  1
  6 18  1  0
  6 19  1  0
  7  8  2  0
  7  9  1  0
  9 10  1  0
  9 11  1  0
  9 26  1  6
 10 11  1  0
 10 27  1  0
 10 28  1  0
 11 12  1  0
 11 29  1  1
 12 13  2  0
 12 17  1  0
 13 14  1  0
 13 30  1  0
 14 15  2  0
 14 31  1  0
 15 16  1  0
 15 32  1  0
 16 17  2  0
 16 33  1  0
 17 34  1  0
 18 19  1  0
 18 35  1  0
 18 36  1  0
 19 37  1  0
 19 38  1  0
 20 21  2  0
 20 39  1  0
 21 40  1  0
M  END

