
     RDKit          3D

 29 29  0  0  0  0  0  0  0  0999 V2000
    0.4576    0.0856    2.0472 C   0  0  0  0  0  0  0  0  0  0  0  0
    1.9161   -0.3019    2.2034 C   0  0  0  0  0  0  0  0  0  0  0  0
    2.6921    0.5649    1.3826 O   0  0  0  0  0  0  0  0  0  0  0  0
    4.1022    0.5546    1.5247 C   0  0  1  0  0  0  0  0  0  0  0  0
    4.4785    0.8945    2.9243 C   0  0  0  0  0  0  0  0  0  0  0  0
    4.7716    1.1521    4.0154 N   0  0  0  0  0  0  0  0  0  0  0  0
    4.7314   -0.8083    1.1315 C   0  0  0  0  0  0  0  0  0  0  0  0
    4.4831   -1.1016   -0.3592 C   0  0  0  0  0  0  0  0  0  0  0  0
    4.9534   -0.0487   -1.2531 N   0  0  0  0  0  0  0  0  0  0  0  0
    6.3842   -0.0573   -1.5018 C   0  0  0  0  0  0  0  0  0  0  0  0
    6.7434    0.7289   -2.6948 C   0  0  0  0  0  0  0  0  0  0  0  0
    7.0293    1.3660   -3.6186 N   0  0  0  0  0  0  0  0  0  0  0  0
    4.3827    1.2512   -0.8990 C   0  0  0  0  0  0  0  0  0  0  0  0
    4.6253    1.6504    0.5671 C   0  0  0  0  0  0  0  0  0  0  0  0
   -0.1785   -0.5677    2.6642 H   0  0  0  0  0  0  0  0  0  0  0  0
    0.1376   -0.0090    0.9980 H   0  0  0  0  0  0  0  0  0  0  0  0
    0.2988    1.1279    2.3628 H   0  0  0  0  0  0  0  0  0  0  0  0
    2.0664   -1.3574    1.9065 H   0  0  0  0  0  0  0  0  0  0  0  0
    2.2314   -0.2074    3.2595 H   0  0  0  0  0  0  0  0  0  0  0  0
    4.3212   -1.6150    1.7586 H   0  0  0  0  0  0  0  0  0  0  0  0
    5.8115   -0.7680    1.3486 H   0  0  0  0  0  0  0  0  0  0  0  0
    3.3995   -1.2223   -0.5234 H   0  0  0  0  0  0  0  0  0  0  0  0
    4.9565   -2.0560   -0.6395 H   0  0  0  0  0  0  0  0  0  0  0  0
    6.7058   -1.0963   -1.6836 H   0  0  0  0  0  0  0  0  0  0  0  0
    7.0173    0.3174   -0.6654 H   0  0  0  0  0  0  0  0  0  0  0  0
    3.2974    1.2054   -1.0778 H   0  0  0  0  0  0  0  0  0  0  0  0
    4.7872    2.0213   -1.5735 H   0  0  0  0  0  0  0  0  0  0  0  0
    4.1053    2.5924    0.7977 H   0  0  0  0  0  0  0  0  0  0  0  0
    5.6979    1.8106    0.7624 H   0  0  0  0  0  0  0  0  0  0  0  0
  1  2  1  0
  1 15  1  0
  1 16  1  0
  1 17  1  0
  2  3  1  0
  2 18  1  0
  2 19  1  0
  3  4  1  0
  4  5  1  1
  4  7  1  0
  4 14  1  0
  5  6  3  0
  7  8  1  0
  7 20  1  0
  7 21  1  0
  8  9  1  0
  8 22  1  0
  8 23  1  0
  9 10  1  0
  9 13  1  0
 10 11  1  0
 10 24  1  0
 10 25  1  0
 11 12  3  0
 13 14  1  0
 13 26  1  0
 13 27  1  0
 14 28  1  0
 14 29  1  0
M  END

