
     RDKit          3D

 42 42  0  0  0  0  0  0  0  0999 V2000
    1.4139    1.8196    0.9814 C   0  0  0  0  0  0  0  0  0  0  0  0
    2.8529    1.3630    0.7263 C   0  0  0  0  0  0  0  0  0  0  0  0
    3.2620    1.3022   -0.7591 C   0  0  1  0  0  0  0  0  0  0  0  0
    3.0671    2.6535   -1.4617 C   0  0  0  0  0  0  0  0  0  0  0  0
    4.7153    0.7881   -0.9483 C   0  0  1  0  0  0  0  0  0  0  0  0
    5.0327   -0.5085   -0.1844 C   0  0  0  0  0  0  0  0  0  0  0  0
    4.9777    0.6372   -2.3766 N   0  0  0  0  0  0  0  0  0  0  0  0
    6.2316    0.5756   -2.9558 C   0  0  0  0  0  0  0  0  0  0  0  0
    7.4095    0.9848   -2.2928 C   0  0  0  0  0  0  0  0  0  0  0  0
    8.6430    0.9343   -2.9411 C   0  0  0  0  0  0  0  0  0  0  0  0
    8.7404    0.4852   -4.2586 C   0  0  0  0  0  0  0  0  0  0  0  0
   10.3235    0.4093   -5.0191 Cl  0  0  0  0  0  0  0  0  0  0  0  0
    7.5864    0.0778   -4.9492 C   0  0  0  0  0  0  0  0  0  0  0  0
    7.6165   -0.5355   -6.3361 C   0  0  0  0  0  0  0  0  0  0  0  0
    7.3452   -1.7193   -6.4698 O   0  0  0  0  0  0  0  0  0  0  0  0
    7.9218    0.2838   -7.3931 N   0  0  0  0  0  0  0  0  0  0  0  0
    8.1481    1.7122   -7.3047 C   0  0  0  0  0  0  0  0  0  0  0  0
    8.0506   -0.3002   -8.7159 C   0  0  0  0  0  0  0  0  0  0  0  0
    6.3599    0.1104   -4.2828 C   0  0  0  0  0  0  0  0  0  0  0  0
    1.1660    1.7450    2.0521 H   0  0  0  0  0  0  0  0  0  0  0  0
    0.6915    1.1930    0.4311 H   0  0  0  0  0  0  0  0  0  0  0  0
    1.2440    2.8645    0.6796 H   0  0  0  0  0  0  0  0  0  0  0  0
    2.9812    0.3678    1.1796 H   0  0  0  0  0  0  0  0  0  0  0  0
    3.5516    2.0335    1.2617 H   0  0  0  0  0  0  0  0  0  0  0  0
    2.5980    0.5597   -1.2491 H   0  0  0  0  0  0  0  0  0  0  0  0
    3.6324    3.4472   -0.9428 H   0  0  0  0  0  0  0  0  0  0  0  0
    2.0095    2.9546   -1.4795 H   0  0  0  0  0  0  0  0  0  0  0  0
    3.4256    2.6153   -2.4997 H   0  0  0  0  0  0  0  0  0  0  0  0
    5.3837    1.5845   -0.5763 H   0  0  0  0  0  0  0  0  0  0  0  0
    4.3071   -1.3000   -0.4378 H   0  0  0  0  0  0  0  0  0  0  0  0
    5.0167   -0.3660    0.9062 H   0  0  0  0  0  0  0  0  0  0  0  0
    6.0347   -0.8730   -0.4568 H   0  0  0  0  0  0  0  0  0  0  0  0
    4.2542    0.1403   -2.8858 H   0  0  0  0  0  0  0  0  0  0  0  0
    7.3736    1.3403   -1.2629 H   0  0  0  0  0  0  0  0  0  0  0  0
    9.5488    1.2391   -2.4137 H   0  0  0  0  0  0  0  0  0  0  0  0
    7.8828    2.0885   -6.3099 H   0  0  0  0  0  0  0  0  0  0  0  0
    7.5232    2.2384   -8.0480 H   0  0  0  0  0  0  0  0  0  0  0  0
    9.2043    1.9682   -7.5017 H   0  0  0  0  0  0  0  0  0  0  0  0
    7.8522   -1.3759   -8.6453 H   0  0  0  0  0  0  0  0  0  0  0  0
    9.0682   -0.1398   -9.1149 H   0  0  0  0  0  0  0  0  0  0  0  0
    7.3312    0.1570   -9.4184 H   0  0  0  0  0  0  0  0  0  0  0  0
    5.4721   -0.2447   -4.8135 H   0  0  0  0  0  0  0  0  0  0  0  0
  1  2  1  0
  1 20  1  0
  1 21  1  0
  1 22  1  0
  2  3  1  0
  2 23  1  0
  2 24  1  0
  3  4  1  0
  3  5  1  0
  3 25  1  6
  4 26  1  0
  4 27  1  0
  4 28  1  0
  5  6  1  0
  5  7  1  0
  5 29  1  1
  6 30  1  0
  6 31  1  0
  6 32  1  0
  7  8  1  0
  7 33  1  0
  8  9  2  0
  8 19  1  0
  9 10  1  0
  9 34  1  0
 10 11  2  0
 10 35  1  0
 11 12  1  0
 11 13  1  0
 13 14  1  0
 13 19  2  0
 14 15  2  0
 14 16  1  0
 16 17  1  0
 16 18  1  0
 17 36  1  0
 17 37  1  0
 17 38  1  0
 18 39  1  0
 18 40  1  0
 18 41  1  0
 19 42  1  0
M  END

