
     RDKit          3D

 69 71  0  0  0  0  0  0  0  0999 V2000
   -1.6160   -1.7480    3.7059 C   0  0  0  0  0  0  0  0  0  0  0  0
   -0.3841   -1.6262    2.8026 C   0  0  2  0  0  0  0  0  0  0  0  0
   -0.1083   -2.6389    2.4527 H   0  0  0  0  0  0  0  0  0  0  0  0
    0.8094   -1.0637    3.4393 N   0  0  0  0  0  0  0  0  0  0  0  0
    1.5524   -1.9599    4.3152 C   0  0  0  0  0  0  0  0  0  0  0  0
    2.7933   -1.2755    4.9116 C   0  0  0  0  0  0  0  0  0  0  0  0
    2.4773   -0.1053    5.8201 C   0  0  0  0  0  0  0  0  0  0  0  0
    2.1025   -0.3034    7.1545 C   0  0  0  0  0  0  0  0  0  0  0  0
    1.7734    0.7708    7.9869 C   0  0  0  0  0  0  0  0  0  0  0  0
    1.8202    2.0820    7.4929 C   0  0  0  0  0  0  0  0  0  0  0  0
    1.5124    3.1845    8.2300 O   0  0  0  0  0  0  0  0  0  0  0  0
    1.1455    3.0425    9.5949 C   0  0  0  0  0  0  0  0  0  0  0  0
    0.9078    4.4223   10.1756 C   0  0  0  0  0  0  0  0  0  0  0  0
   -0.2978    4.6983   10.7270 C   0  0  0  0  0  0  0  0  0  0  0  0
   -0.7651    6.0349   11.2504 C   0  0  1  0  0  0  0  0  0  0  0  0
   -1.0346    7.0560   10.1464 C   0  0  0  0  0  0  0  0  0  0  0  0
   -1.9935    5.8003   11.8901 F   0  0  0  0  0  0  0  0  0  0  0  0
    0.1860    6.5353   12.3114 C   0  0  0  0  0  0  0  0  0  0  0  0
    1.5127    6.7285   12.1442 C   0  0  0  0  0  0  0  0  0  0  0  0
    2.3118    6.3428   10.9988 C   0  0  0  0  0  0  0  0  0  0  0  0
    2.0438    5.3320   10.1261 C   0  0  0  0  0  0  0  0  0  0  0  0
    2.1965    2.3186    6.1509 C   0  0  0  0  0  0  0  0  0  0  0  0
    2.2552    3.7265    5.6117 C   0  0  0  0  0  0  0  0  0  0  0  0
    3.5446    4.5133    5.8650 C   0  0  0  0  0  0  0  0  0  0  0  0
    4.6403    3.9204    6.3973 C   0  0  0  0  0  0  0  0  0  0  0  0
    5.9213    4.6029    6.8130 C   0  0  1  0  0  0  0  0  0  0  0  0
    5.7764    5.4891    8.0493 C   0  0  0  0  0  0  0  0  0  0  0  0
    6.8208    3.5804    7.1620 F   0  0  0  0  0  0  0  0  0  0  0  0
    6.5248    5.3205    5.6298 C   0  0  0  0  0  0  0  0  0  0  0  0
    5.9081    6.2800    4.9052 C   0  0  0  0  0  0  0  0  0  0  0  0
    4.5194    6.6776    5.0023 C   0  0  0  0  0  0  0  0  0  0  0  0
    3.4842    5.9048    5.4371 C   0  0  0  0  0  0  0  0  0  0  0  0
    2.5134    1.2184    5.3481 C   0  0  0  0  0  0  0  0  0  0  0  0
   -0.7427   -0.8607    1.5054 C   0  0  0  0  0  0  0  0  0  0  0  0
    0.2846   -0.1444    0.9852 N   0  0  0  0  0  0  0  0  0  0  0  0
   -1.8475   -0.9424    0.9967 O   0  0  0  0  0  0  0  0  0  0  0  0
   -1.9126   -0.7593    4.0944 H   0  0  0  0  0  0  0  0  0  0  0  0
   -1.4192   -2.4118    4.5617 H   0  0  0  0  0  0  0  0  0  0  0  0
   -2.4641   -2.1467    3.1330 H   0  0  0  0  0  0  0  0  0  0  0  0
    0.5539   -0.2194    3.9547 H   0  0  0  0  0  0  0  0  0  0  0  0
    1.8790   -2.8291    3.7177 H   0  0  0  0  0  0  0  0  0  0  0  0
    0.9364   -2.3661    5.1465 H   0  0  0  0  0  0  0  0  0  0  0  0
    3.4390   -0.9404    4.0837 H   0  0  0  0  0  0  0  0  0  0  0  0
    3.3604   -2.0353    5.4746 H   0  0  0  0  0  0  0  0  0  0  0  0
    2.0672   -1.3175    7.5635 H   0  0  0  0  0  0  0  0  0  0  0  0
    1.4856    0.5733    9.0194 H   0  0  0  0  0  0  0  0  0  0  0  0
    1.9601    2.5307   10.1426 H   0  0  0  0  0  0  0  0  0  0  0  0
    0.2353    2.4251    9.6879 H   0  0  0  0  0  0  0  0  0  0  0  0
   -1.0640    3.9177   10.7778 H   0  0  0  0  0  0  0  0  0  0  0  0
   -1.7788    6.6519    9.4430 H   0  0  0  0  0  0  0  0  0  0  0  0
   -0.1112    7.2854    9.5963 H   0  0  0  0  0  0  0  0  0  0  0  0
   -1.4274    7.9840   10.5896 H   0  0  0  0  0  0  0  0  0  0  0  0
   -0.2938    6.7980   13.2594 H   0  0  0  0  0  0  0  0  0  0  0  0
    2.0551    7.2145   12.9626 H   0  0  0  0  0  0  0  0  0  0  0  0
    3.2733    6.8551   10.8875 H   0  0  0  0  0  0  0  0  0  0  0  0
    2.7988    5.1012    9.3689 H   0  0  0  0  0  0  0  0  0  0  0  0
    1.4246    4.3123    6.0391 H   0  0  0  0  0  0  0  0  0  0  0  0
    2.0806    3.6991    4.5221 H   0  0  0  0  0  0  0  0  0  0  0  0
    4.6288    2.8473    6.6073 H   0  0  0  0  0  0  0  0  0  0  0  0
    5.4002    4.8862    8.8903 H   0  0  0  0  0  0  0  0  0  0  0  0
    5.0757    6.3135    7.8562 H   0  0  0  0  0  0  0  0  0  0  0  0
    6.7567    5.9093    8.3226 H   0  0  0  0  0  0  0  0  0  0  0  0
    7.5611    5.0436    5.4114 H   0  0  0  0  0  0  0  0  0  0  0  0
    6.5064    6.8064    4.1534 H   0  0  0  0  0  0  0  0  0  0  0  0
    4.2700    7.6640    4.5967 H   0  0  0  0  0  0  0  0  0  0  0  0
    2.4778    6.3289    5.3452 H   0  0  0  0  0  0  0  0  0  0  0  0
    2.8101    1.4039    4.3110 H   0  0  0  0  0  0  0  0  0  0  0  0
    1.1624   -0.1283    1.4931 H   0  0  0  0  0  0  0  0  0  0  0  0
    0.1497    0.3575    0.1168 H   0  0  0  0  0  0  0  0  0  0  0  0
  1  2  1  0
  1 37  1  0
  1 38  1  0
  1 39  1  0
  2  3  1  6
  2  4  1  0
  2 34  1  0
  4  5  1  0
  4 40  1  0
  5  6  1  0
  5 41  1  0
  5 42  1  0
  6  7  1  0
  6 43  1  0
  6 44  1  0
  7  8  2  0
  7 33  1  0
  8  9  1  0
  8 45  1  0
  9 10  2  0
  9 46  1  0
 10 11  1  0
 10 22  1  0
 11 12  1  0
 12 13  1  0
 12 47  1  0
 12 48  1  0
 13 14  2  0
 13 21  1  0
 14 15  1  0
 14 49  1  0
 15 16  1  0
 15 17  1  1
 15 18  1  0
 16 50  1  0
 16 51  1  0
 16 52  1  0
 18 19  2  0
 18 53  1  0
 19 20  1  0
 19 54  1  0
 20 21  2  0
 20 55  1  0
 21 56  1  0
 22 23  1  0
 22 33  2  0
 23 24  1  0
 23 57  1  0
 23 58  1  0
 24 25  2  0
 24 32  1  0
 25 26  1  0
 25 59  1  0
 26 27  1  0
 26 28  1  1
 26 29  1  0
 27 60  1  0
 27 61  1  0
 27 62  1  0
 29 30  2  0
 29 63  1  0
 30 31  1  0
 30 64  1  0
 31 32  2  0
 31 65  1  0
 32 66  1  0
 33 67  1  0
 34 35  1  0
 34 36  2  0
 35 68  1  0
 35 69  1  0
M  END

