
     RDKit          3D

 39 38  0  0  0  0  0  0  0  0999 V2000
    0.4086    2.8117    3.1953 C   0  0  0  0  0  0  0  0  0  0  0  0
    1.8949    3.1077    3.3642 C   0  0  0  0  0  0  0  0  0  0  0  0
    2.7089    1.9483    3.0385 N   0  0  0  0  0  0  0  0  0  0  0  0
    4.1417    2.1432    3.1722 C   0  0  0  0  0  0  0  0  0  0  0  0
    4.8889    0.8397    2.8353 C   0  0  0  0  0  0  0  0  0  0  0  0
    6.3395    0.8516    2.9487 N   0  0  0  0  0  0  0  0  0  0  0  0
    7.0167    1.6312    1.9328 C   0  0  0  0  0  0  0  0  0  0  0  0
    6.8918    1.0560    4.2837 C   0  0  0  0  0  0  0  0  0  0  0  0
    6.4352    0.0034    5.2994 C   0  0  0  0  0  0  0  0  0  0  0  0
    7.1753   -0.0199    6.6640 C   0  0  1  0  0  0  0  0  0  0  0  0
    7.0441    1.3337    7.3893 C   0  0  0  0  0  0  0  0  0  0  0  0
    6.5210   -1.1133    7.5311 C   0  0  0  0  0  0  0  0  0  0  0  0
    8.6664   -0.3639    6.4817 C   0  0  0  0  0  0  0  0  0  0  0  0
   -0.2045    3.6801    3.4833 H   0  0  0  0  0  0  0  0  0  0  0  0
    0.1123    1.9506    3.8143 H   0  0  0  0  0  0  0  0  0  0  0  0
    0.1670    2.5704    2.1456 H   0  0  0  0  0  0  0  0  0  0  0  0
    2.0985    3.3817    4.4154 H   0  0  0  0  0  0  0  0  0  0  0  0
    2.1652    4.0080    2.7630 H   0  0  0  0  0  0  0  0  0  0  0  0
    2.4904    1.6331    2.0922 H   0  0  0  0  0  0  0  0  0  0  0  0
    4.3507    2.4303    4.2184 H   0  0  0  0  0  0  0  0  0  0  0  0
    4.5286    2.9793    2.5448 H   0  0  0  0  0  0  0  0  0  0  0  0
    4.6408    0.5519    1.7967 H   0  0  0  0  0  0  0  0  0  0  0  0
    4.4726    0.0438    3.4726 H   0  0  0  0  0  0  0  0  0  0  0  0
    6.6179    1.3789    0.9366 H   0  0  0  0  0  0  0  0  0  0  0  0
    8.0935    1.3916    1.9299 H   0  0  0  0  0  0  0  0  0  0  0  0
    6.9295    2.7349    2.0572 H   0  0  0  0  0  0  0  0  0  0  0  0
    6.6787    2.0776    4.6739 H   0  0  0  0  0  0  0  0  0  0  0  0
    7.9879    1.0030    4.1786 H   0  0  0  0  0  0  0  0  0  0  0  0
    6.5409   -0.9867    4.8220 H   0  0  0  0  0  0  0  0  0  0  0  0
    5.3586    0.1321    5.5060 H   0  0  0  0  0  0  0  0  0  0  0  0
    5.9861    1.6205    7.5110 H   0  0  0  0  0  0  0  0  0  0  0  0
    7.5515    2.1454    6.8445 H   0  0  0  0  0  0  0  0  0  0  0  0
    7.4931    1.2824    8.3950 H   0  0  0  0  0  0  0  0  0  0  0  0
    5.4528   -0.9011    7.7026 H   0  0  0  0  0  0  0  0  0  0  0  0
    7.0112   -1.1859    8.5159 H   0  0  0  0  0  0  0  0  0  0  0  0
    6.5915   -2.1013    7.0468 H   0  0  0  0  0  0  0  0  0  0  0  0
    9.2055    0.4096    5.9123 H   0  0  0  0  0  0  0  0  0  0  0  0
    8.7922   -1.3220    5.9505 H   0  0  0  0  0  0  0  0  0  0  0  0
    9.1671   -0.4559    7.4596 H   0  0  0  0  0  0  0  0  0  0  0  0
  1  2  1  0
  1 14  1  0
  1 15  1  0
  1 16  1  0
  2  3  1  0
  2 17  1  0
  2 18  1  0
  3  4  1  0
  3 19  1  0
  4  5  1  0
  4 20  1  0
  4 21  1  0
  5  6  1  0
  5 22  1  0
  5 23  1  0
  6  7  1  0
  6  8  1  0
  7 24  1  0
  7 25  1  0
  7 26  1  0
  8  9  1  0
  8 27  1  0
  8 28  1  0
 10  9  1  6
  9 29  1  0
  9 30  1  0
 10 11  1  0
 10 12  1  0
 10 13  1  0
 11 31  1  0
 11 32  1  0
 11 33  1  0
 12 34  1  0
 12 35  1  0
 12 36  1  0
 13 37  1  0
 13 38  1  0
 13 39  1  0
M  END

