
     RDKit          3D

 36 38  0  0  0  0  0  0  0  0999 V2000
    1.3796   -0.5470    0.7590 O   0  0  0  0  0  0  0  0  0  0  0  0
    2.6375   -0.2719    0.3169 C   0  0  0  0  0  0  0  0  0  0  0  0
    3.2613    0.9578    0.5652 C   0  0  0  0  0  0  0  0  0  0  0  0
    4.5540    1.2030    0.0951 C   0  0  0  0  0  0  0  0  0  0  0  0
    5.2342    0.2205   -0.6272 C   0  0  0  0  0  0  0  0  0  0  0  0
    4.6078   -1.0057   -0.8720 C   0  0  0  0  0  0  0  0  0  0  0  0
    3.3133   -1.2784   -0.4132 C   0  0  0  0  0  0  0  0  0  0  0  0
    2.7253   -2.5493   -0.6984 N   0  0  0  0  0  0  0  0  0  0  0  0
    1.5900   -2.5478   -1.6209 C   0  0  0  0  0  0  0  0  0  0  0  0
    1.3207   -3.9647   -2.1168 C   0  0  0  0  0  0  0  0  0  0  0  0
    1.1375   -4.8868   -0.9972 N   0  0  0  0  0  0  0  0  0  0  0  0
    0.2515   -5.9389   -1.0944 C   0  0  0  0  0  0  0  0  0  0  0  0
    0.2329   -7.0295   -0.1841 C   0  0  0  0  0  0  0  0  0  0  0  0
   -0.7336   -8.0171   -0.3486 C   0  0  0  0  0  0  0  0  0  0  0  0
   -1.6594   -7.9460   -1.3934 C   0  0  0  0  0  0  0  0  0  0  0  0
   -1.5260   -6.8399   -2.2315 C   0  0  0  0  0  0  0  0  0  0  0  0
   -2.3700   -6.7168   -3.2637 F   0  0  0  0  0  0  0  0  0  0  0  0
   -0.6345   -5.8902   -2.1085 N   0  0  0  0  0  0  0  0  0  0  0  0
    2.2142   -4.8534   -0.0198 C   0  0  0  0  0  0  0  0  0  0  0  0
    2.4856   -3.4209    0.4462 C   0  0  0  0  0  0  0  0  0  0  0  0
    1.0285    0.2183    1.2333 H   0  0  0  0  0  0  0  0  0  0  0  0
    2.7244    1.7261    1.1317 H   0  0  0  0  0  0  0  0  0  0  0  0
    5.0258    2.1680    0.2971 H   0  0  0  0  0  0  0  0  0  0  0  0
    6.2448    0.4056   -0.9980 H   0  0  0  0  0  0  0  0  0  0  0  0
    5.1130   -1.7941   -1.4343 H   0  0  0  0  0  0  0  0  0  0  0  0
    1.8351   -1.9092   -2.4836 H   0  0  0  0  0  0  0  0  0  0  0  0
    0.6719   -2.1419   -1.1486 H   0  0  0  0  0  0  0  0  0  0  0  0
    2.1780   -4.2997   -2.7352 H   0  0  0  0  0  0  0  0  0  0  0  0
    0.4188   -3.9944   -2.7377 H   0  0  0  0  0  0  0  0  0  0  0  0
    0.9562   -7.1150    0.6239 H   0  0  0  0  0  0  0  0  0  0  0  0
   -0.7602   -8.8615    0.3453 H   0  0  0  0  0  0  0  0  0  0  0  0
   -2.4301   -8.6965   -1.5662 H   0  0  0  0  0  0  0  0  0  0  0  0
    3.1422   -5.2820   -0.4509 H   0  0  0  0  0  0  0  0  0  0  0  0
    1.9436   -5.4510    0.8593 H   0  0  0  0  0  0  0  0  0  0  0  0
    3.3800   -3.4217    1.0887 H   0  0  0  0  0  0  0  0  0  0  0  0
    1.6282   -3.0759    1.0610 H   0  0  0  0  0  0  0  0  0  0  0  0
  1  2  1  0
  1 21  1  0
  2  3  2  0
  2  7  1  0
  3  4  1  0
  3 22  1  0
  4  5  2  0
  4 23  1  0
  5  6  1  0
  5 24  1  0
  6  7  2  0
  6 25  1  0
  7  8  1  0
  8  9  1  0
  8 20  1  0
  9 10  1  0
  9 26  1  0
  9 27  1  0
 10 11  1  0
 10 28  1  0
 10 29  1  0
 11 12  1  0
 11 19  1  0
 12 13  2  0
 12 18  1  0
 13 14  1  0
 13 30  1  0
 14 15  2  0
 14 31  1  0
 15 16  1  0
 15 32  1  0
 16 17  1  0
 16 18  2  0
 19 20  1  0
 19 33  1  0
 19 34  1  0
 20 35  1  0
 20 36  1  0
M  END

