
     RDKit          3D

 44 46  0  0  0  0  0  0  0  0999 V2000
    4.6795   -0.5340    0.0814 C   0  0  0  0  0  0  0  0  0  0  0  0
    3.6343   -0.1422    1.0785 C   0  0  0  0  0  0  0  0  0  0  0  0
    3.4895    1.1142    1.4288 N   0  0  0  0  0  0  0  0  0  0  0  0
    2.4689    1.1348    2.3626 O   0  0  0  0  0  0  0  0  0  0  0  0
    2.0107   -0.1152    2.5653 C   0  0  0  0  0  0  0  0  0  0  0  0
    0.9084   -0.2725    3.5543 C   0  0  0  0  0  0  0  0  0  0  0  0
    2.7094   -0.9944    1.7786 C   0  0  0  0  0  0  0  0  0  0  0  0
    2.5488   -2.4801    1.6393 C   0  0  0  0  0  0  0  0  0  0  0  0
    1.6308   -2.8852    0.4718 C   0  0  0  0  0  0  0  0  0  0  0  0
    1.5980   -4.3143    0.2421 N   0  0  0  0  0  0  0  0  0  0  0  0
    0.9958   -5.1517    1.2673 C   0  0  0  0  0  0  0  0  0  0  0  0
    1.0089   -6.5326    0.6100 C   0  0  0  0  0  0  0  0  0  0  0  0
    0.7312   -6.2458   -0.8949 C   0  0  1  0  0  0  0  0  0  0  0  0
    1.0117   -4.7163   -1.0263 C   0  0  0  0  0  0  0  0  0  0  0  0
    1.6550   -7.0742   -1.8083 C   0  0  0  0  0  0  0  0  0  0  0  0
    2.8642   -7.0959   -1.7767 O   0  0  0  0  0  0  0  0  0  0  0  0
    0.8409   -7.7815   -2.6620 N   0  0  0  0  0  0  0  0  0  0  0  0
    1.3049   -8.6875   -3.6924 C   0  0  0  0  0  0  0  0  0  0  0  0
   -0.5265   -7.5502   -2.4026 C   0  0  0  0  0  0  0  0  0  0  0  0
   -1.4428   -8.0773   -2.9938 O   0  0  0  0  0  0  0  0  0  0  0  0
   -0.5899   -6.6418   -1.3743 N   0  0  0  0  0  0  0  0  0  0  0  0
   -1.8496   -6.2330   -0.7973 C   0  0  0  0  0  0  0  0  0  0  0  0
    5.2381    0.3548   -0.2421 H   0  0  0  0  0  0  0  0  0  0  0  0
    4.2323   -1.0087   -0.8069 H   0  0  0  0  0  0  0  0  0  0  0  0
    5.3900   -1.2564    0.5154 H   0  0  0  0  0  0  0  0  0  0  0  0
    1.1908    0.1612    4.5272 H   0  0  0  0  0  0  0  0  0  0  0  0
    0.6677   -1.3342    3.7009 H   0  0  0  0  0  0  0  0  0  0  0  0
   -0.0041    0.2459    3.2168 H   0  0  0  0  0  0  0  0  0  0  0  0
    2.1563   -2.8962    2.5813 H   0  0  0  0  0  0  0  0  0  0  0  0
    3.5305   -2.9548    1.4774 H   0  0  0  0  0  0  0  0  0  0  0  0
    2.0003   -2.4047   -0.4493 H   0  0  0  0  0  0  0  0  0  0  0  0
    0.6100   -2.4672    0.6465 H   0  0  0  0  0  0  0  0  0  0  0  0
   -0.0461   -4.8361    1.5176 H   0  0  0  0  0  0  0  0  0  0  0  0
    1.5775   -5.1283    2.2016 H   0  0  0  0  0  0  0  0  0  0  0  0
    0.2815   -7.2391    1.0344 H   0  0  0  0  0  0  0  0  0  0  0  0
    2.0150   -6.9670    0.6981 H   0  0  0  0  0  0  0  0  0  0  0  0
    0.0470   -4.2009   -1.2315 H   0  0  0  0  0  0  0  0  0  0  0  0
    1.6907   -4.4854   -1.8629 H   0  0  0  0  0  0  0  0  0  0  0  0
    2.3960   -8.7648   -3.5994 H   0  0  0  0  0  0  0  0  0  0  0  0
    1.0453   -8.3101   -4.6935 H   0  0  0  0  0  0  0  0  0  0  0  0
    0.8439   -9.6781   -3.5669 H   0  0  0  0  0  0  0  0  0  0  0  0
   -2.6505   -6.7143   -1.3744 H   0  0  0  0  0  0  0  0  0  0  0  0
   -1.9875   -5.1398   -0.8472 H   0  0  0  0  0  0  0  0  0  0  0  0
   -1.9395   -6.5460    0.2575 H   0  0  0  0  0  0  0  0  0  0  0  0
  1  2  1  0
  1 23  1  0
  1 24  1  0
  1 25  1  0
  2  3  2  0
  2  7  1  0
  3  4  1  0
  4  5  1  0
  5  6  1  0
  5  7  2  0
  6 26  1  0
  6 27  1  0
  6 28  1  0
  7  8  1  0
  8  9  1  0
  8 29  1  0
  8 30  1  0
  9 10  1  0
  9 31  1  0
  9 32  1  0
 10 11  1  0
 10 14  1  0
 11 12  1  0
 11 33  1  0
 11 34  1  0
 12 13  1  0
 12 35  1  0
 12 36  1  0
 13 14  1  0
 13 15  1  6
 13 21  1  0
 14 37  1  0
 14 38  1  0
 15 16  2  0
 15 17  1  0
 17 18  1  0
 17 19  1  0
 18 39  1  0
 18 40  1  0
 18 41  1  0
 19 20  2  0
 19 21  1  0
 21 22  1  0
 22 42  1  0
 22 43  1  0
 22 44  1  0
M  END

