
     RDKit          3D

 46 48  0  0  0  0  0  0  0  0999 V2000
    0.6632   -0.9598   -0.5997 C   0  0  0  0  0  0  0  0  0  0  0  0
    2.1004   -0.5414   -0.7736 C   0  0  0  0  0  0  0  0  0  0  0  0
    2.4528    0.7655   -1.1426 C   0  0  0  0  0  0  0  0  0  0  0  0
    3.8078    1.0801   -1.2771 C   0  0  0  0  0  0  0  0  0  0  0  0
    4.7643    0.1010   -1.0290 C   0  0  0  0  0  0  0  0  0  0  0  0
    4.3107   -1.1839   -0.6718 C   0  0  0  0  0  0  0  0  0  0  0  0
    5.2440   -2.2135   -0.4672 N   0  0  0  0  0  0  0  0  0  0  0  0
    5.1225   -3.2113    0.5161 C   0  0  0  0  0  0  0  0  0  0  0  0
    4.3720   -3.1303    1.4646 O   0  0  0  0  0  0  0  0  0  0  0  0
    5.9824   -4.2882    0.3266 N   0  0  0  0  0  0  0  0  0  0  0  0
    6.0967   -5.2844    1.3918 C   0  0  0  0  0  0  0  0  0  0  0  0
    5.6243   -6.6601    0.9045 C   0  0  0  0  0  0  0  0  0  0  0  0
    6.2888   -7.0918   -0.3293 N   0  0  0  0  0  0  0  0  0  0  0  0
    7.6388   -7.6280   -0.1518 C   0  0  0  0  0  0  0  0  0  0  0  0
    7.6415   -8.9772    0.5453 C   0  0  0  0  0  0  0  0  0  0  0  0
    6.7288   -9.9763    0.1706 C   0  0  0  0  0  0  0  0  0  0  0  0
    6.7618  -11.2328    0.7784 C   0  0  0  0  0  0  0  0  0  0  0  0
    7.7085  -11.5118    1.7708 C   0  0  0  0  0  0  0  0  0  0  0  0
    8.6190  -10.5237    2.1526 C   0  0  0  0  0  0  0  0  0  0  0  0
    8.5815   -9.2642    1.5446 C   0  0  0  0  0  0  0  0  0  0  0  0
    6.1114   -6.0710   -1.3593 C   0  0  2  0  0  0  0  0  0  0  0  0
    6.7056   -6.4564   -2.6488 C   0  0  0  0  0  0  0  0  0  0  0  0
    7.1815   -6.7073   -3.6749 N   0  0  0  0  0  0  0  0  0  0  0  0
    6.6075   -4.6564   -0.9317 C   0  0  0  0  0  0  0  0  0  0  0  0
    3.0225   -1.4903   -0.5645 N   0  0  0  0  0  0  0  0  0  0  0  0
   -0.0372   -0.1518   -0.8546 H   0  0  0  0  0  0  0  0  0  0  0  0
    0.4850   -1.2676    0.4435 H   0  0  0  0  0  0  0  0  0  0  0  0
    0.4443   -1.8365   -1.2295 H   0  0  0  0  0  0  0  0  0  0  0  0
    1.6816    1.5173   -1.3213 H   0  0  0  0  0  0  0  0  0  0  0  0
    4.1170    2.0894   -1.5613 H   0  0  0  0  0  0  0  0  0  0  0  0
    5.8324    0.3211   -1.0984 H   0  0  0  0  0  0  0  0  0  0  0  0
    6.1781   -2.0323   -0.8144 H   0  0  0  0  0  0  0  0  0  0  0  0
    5.4838   -4.9412    2.2341 H   0  0  0  0  0  0  0  0  0  0  0  0
    7.1493   -5.3347    1.7280 H   0  0  0  0  0  0  0  0  0  0  0  0
    4.5375   -6.6164    0.7168 H   0  0  0  0  0  0  0  0  0  0  0  0
    5.7937   -7.4211    1.6804 H   0  0  0  0  0  0  0  0  0  0  0  0
    8.3199   -6.9440    0.3960 H   0  0  0  0  0  0  0  0  0  0  0  0
    8.0786   -7.7527   -1.1556 H   0  0  0  0  0  0  0  0  0  0  0  0
    5.9863   -9.7519   -0.5985 H   0  0  0  0  0  0  0  0  0  0  0  0
    6.0454  -12.0011    0.4754 H   0  0  0  0  0  0  0  0  0  0  0  0
    7.7331  -12.4957    2.2462 H   0  0  0  0  0  0  0  0  0  0  0  0
    9.3588  -10.7296    2.9306 H   0  0  0  0  0  0  0  0  0  0  0  0
    9.2950   -8.4934    1.8517 H   0  0  0  0  0  0  0  0  0  0  0  0
    5.0228   -5.9763   -1.5325 H   0  0  0  0  0  0  0  0  0  0  0  0
    6.3377   -3.9368   -1.7139 H   0  0  0  0  0  0  0  0  0  0  0  0
    7.7099   -4.6668   -0.8395 H   0  0  0  0  0  0  0  0  0  0  0  0
  1  2  1  0
  1 26  1  0
  1 27  1  0
  1 28  1  0
  2  3  2  0
  2 25  1  0
  3  4  1  0
  3 29  1  0
  4  5  2  0
  4 30  1  0
  5  6  1  0
  5 31  1  0
  6  7  1  0
  6 25  2  0
  7  8  1  0
  7 32  1  0
  8  9  2  0
  8 10  1  0
 10 11  1  0
 10 24  1  0
 11 12  1  0
 11 33  1  0
 11 34  1  0
 12 13  1  0
 12 35  1  0
 12 36  1  0
 13 14  1  0
 13 21  1  0
 14 15  1  0
 14 37  1  0
 14 38  1  0
 15 16  2  0
 15 20  1  0
 16 17  1  0
 16 39  1  0
 17 18  2  0
 17 40  1  0
 18 19  1  0
 18 41  1  0
 19 20  2  0
 19 42  1  0
 20 43  1  0
 21 22  1  0
 21 24  1  0
 21 44  1  6
 22 23  3  0
 24 45  1  0
 24 46  1  0
M  END

