
     RDKit          3D

 53 57  0  0  0  0  0  0  0  0999 V2000
    4.7603   -2.5414   -0.6568 C   0  0  0  0  0  0  0  0  0  0  0  0
    4.1870   -1.2375   -0.1625 C   0  0  0  0  0  0  0  0  0  0  0  0
    4.9501   -0.1439   -0.3001 N   0  0  0  0  0  0  0  0  0  0  0  0
    4.5297    1.0684    0.1076 C   0  0  0  0  0  0  0  0  0  0  0  0
    5.3599    2.1393   -0.0792 N   0  0  0  0  0  0  0  0  0  0  0  0
    6.7007    1.9649   -0.6393 C   0  0  0  0  0  0  0  0  0  0  0  0
    6.9725    3.0316   -1.7104 C   0  0  0  0  0  0  0  0  0  0  0  0
    6.7391    4.3976   -1.2482 N   0  0  0  0  0  0  0  0  0  0  0  0
    7.8256    4.9983   -0.4787 C   0  0  0  0  0  0  0  0  0  0  0  0
    9.0362    5.2678   -1.3295 C   0  0  0  0  0  0  0  0  0  0  0  0
   10.2904    4.9099   -1.0051 C   0  0  0  0  0  0  0  0  0  0  0  0
   11.5267    5.1712   -1.7614 C   0  0  0  0  0  0  0  0  0  0  0  0
   11.5545    5.8976   -2.9699 C   0  0  0  0  0  0  0  0  0  0  0  0
   12.7520    6.1118   -3.6500 C   0  0  0  0  0  0  0  0  0  0  0  0
   13.9565    5.6092   -3.1420 C   0  0  0  0  0  0  0  0  0  0  0  0
   13.9487    4.8897   -1.9445 C   0  0  0  0  0  0  0  0  0  0  0  0
   12.7478    4.6751   -1.2647 C   0  0  0  0  0  0  0  0  0  0  0  0
    5.4072    4.5223   -0.6749 C   0  0  0  0  0  0  0  0  0  0  0  0
    5.0979    3.4864    0.4208 C   0  0  0  0  0  0  0  0  0  0  0  0
    3.2376    1.1030    0.6880 C   0  0  0  0  0  0  0  0  0  0  0  0
    2.5228    2.1700    1.1920 O   0  0  0  0  0  0  0  0  0  0  0  0
    1.3290    1.6592    1.6294 C   0  0  0  0  0  0  0  0  0  0  0  0
    0.2988    2.3917    2.2146 C   0  0  0  0  0  0  0  0  0  0  0  0
   -0.8407    1.6764    2.5911 C   0  0  0  0  0  0  0  0  0  0  0  0
   -0.9403    0.2848    2.3880 C   0  0  0  0  0  0  0  0  0  0  0  0
    0.1019   -0.4310    1.8002 C   0  0  0  0  0  0  0  0  0  0  0  0
    1.2532    0.2697    1.4161 C   0  0  0  0  0  0  0  0  0  0  0  0
    2.5145   -0.0919    0.7933 C   0  0  0  0  0  0  0  0  0  0  0  0
    2.9654   -1.2817    0.3762 N   0  0  0  0  0  0  0  0  0  0  0  0
    5.7574   -2.3914   -1.0888 H   0  0  0  0  0  0  0  0  0  0  0  0
    4.0937   -2.9851   -1.4133 H   0  0  0  0  0  0  0  0  0  0  0  0
    4.8248   -3.2644    0.1721 H   0  0  0  0  0  0  0  0  0  0  0  0
    6.7698    0.9545   -1.0572 H   0  0  0  0  0  0  0  0  0  0  0  0
    7.4475    2.0398    0.1760 H   0  0  0  0  0  0  0  0  0  0  0  0
    6.3094    2.8383   -2.5729 H   0  0  0  0  0  0  0  0  0  0  0  0
    8.0095    2.9410   -2.0684 H   0  0  0  0  0  0  0  0  0  0  0  0
    8.1311    4.4157    0.4187 H   0  0  0  0  0  0  0  0  0  0  0  0
    7.4450    5.9640   -0.0972 H   0  0  0  0  0  0  0  0  0  0  0  0
    8.8273    5.8026   -2.2629 H   0  0  0  0  0  0  0  0  0  0  0  0
   10.4364    4.3579   -0.0679 H   0  0  0  0  0  0  0  0  0  0  0  0
   10.6275    6.3023   -3.3821 H   0  0  0  0  0  0  0  0  0  0  0  0
   12.7482    6.6779   -4.5853 H   0  0  0  0  0  0  0  0  0  0  0  0
   14.8938    5.7801   -3.6774 H   0  0  0  0  0  0  0  0  0  0  0  0
   14.8820    4.4928   -1.5366 H   0  0  0  0  0  0  0  0  0  0  0  0
   12.7500    4.1101   -0.3281 H   0  0  0  0  0  0  0  0  0  0  0  0
    4.6659    4.3935   -1.4850 H   0  0  0  0  0  0  0  0  0  0  0  0
    5.2754    5.5383   -0.2689 H   0  0  0  0  0  0  0  0  0  0  0  0
    4.0552    3.5773    0.7391 H   0  0  0  0  0  0  0  0  0  0  0  0
    5.7325    3.6770    1.3099 H   0  0  0  0  0  0  0  0  0  0  0  0
    0.3843    3.4688    2.3680 H   0  0  0  0  0  0  0  0  0  0  0  0
   -1.6744    2.2102    3.0543 H   0  0  0  0  0  0  0  0  0  0  0  0
   -1.8497   -0.2357    2.6973 H   0  0  0  0  0  0  0  0  0  0  0  0
    0.0366   -1.5087    1.6374 H   0  0  0  0  0  0  0  0  0  0  0  0
  1  2  1  0
  1 30  1  0
  1 31  1  0
  1 32  1  0
  2  3  2  0
  2 29  1  0
  3  4  1  0
  4  5  1  0
  4 20  2  0
  5  6  1  0
  5 19  1  0
  6  7  1  0
  6 33  1  0
  6 34  1  0
  7  8  1  0
  7 35  1  0
  7 36  1  0
  8  9  1  0
  8 18  1  0
  9 10  1  0
  9 37  1  0
  9 38  1  0
 10 11  2  0
 10 39  1  0
 11 12  1  0
 11 40  1  0
 12 13  2  0
 12 17  1  0
 13 14  1  0
 13 41  1  0
 14 15  2  0
 14 42  1  0
 15 16  1  0
 15 43  1  0
 16 17  2  0
 16 44  1  0
 17 45  1  0
 18 19  1  0
 18 46  1  0
 18 47  1  0
 19 48  1  0
 19 49  1  0
 20 21  1  0
 20 28  1  0
 21 22  1  0
 22 23  1  0
 22 27  2  0
 23 24  2  0
 23 50  1  0
 24 25  1  0
 24 51  1  0
 25 26  2  0
 25 52  1  0
 26 27  1  0
 26 53  1  0
 27 28  1  0
 28 29  2  0
M  END

