
     RDKit          3D

 44 47  0  0  0  0  0  0  0  0999 V2000
    4.7131    1.4598   -3.3886 C   0  0  0  0  0  0  0  0  0  0  0  0
    4.4832    2.6550   -2.4638 C   0  0  1  0  0  0  0  0  0  0  0  0
    4.1829    2.2575   -1.0997 N   0  0  0  0  0  0  0  0  0  0  0  0
    2.7167    2.5886   -0.3626 S   0  0  1  0  0  0  0  0  0  0  0  0
    1.6853    2.7379   -1.3901 O   0  0  0  0  0  0  0  0  0  0  0  0
    2.6218    1.6217    0.7268 O   0  0  0  0  0  0  0  0  0  0  0  0
    2.9680    4.2141    0.3386 C   0  0  0  0  0  0  0  0  0  0  0  0
    2.2466    5.3239   -0.1142 C   0  0  0  0  0  0  0  0  0  0  0  0
    2.4781    6.5385    0.3703 N   0  0  0  0  0  0  0  0  0  0  0  0
    3.4263    6.6566    1.3109 C   0  0  0  0  0  0  0  0  0  0  0  0
    3.6627    8.0009    1.8412 C   0  0  0  0  0  0  0  0  0  0  0  0
    2.7474    9.0593    1.8905 C   0  0  0  0  0  0  0  0  0  0  0  0
    1.4234    9.1100    1.3797 C   0  0  0  0  0  0  0  0  0  0  0  0
    0.3307    9.2496    1.0082 N   0  0  0  0  0  0  0  0  0  0  0  0
    3.3648   10.1080    2.6541 C   0  0  0  0  0  0  0  0  0  0  0  0
    2.9796   11.3872    3.0813 C   0  0  0  0  0  0  0  0  0  0  0  0
    3.9129   12.0978    3.8290 C   0  0  0  0  0  0  0  0  0  0  0  0
    3.5444   13.6966    4.4169 Cl  0  0  0  0  0  0  0  0  0  0  0  0
    5.1805   11.5387    4.1241 C   0  0  0  0  0  0  0  0  0  0  0  0
    5.5491   10.3258    3.7269 N   0  0  0  0  0  0  0  0  0  0  0  0
    4.6533    9.6482    3.0241 C   0  0  0  0  0  0  0  0  0  0  0  0
    4.8329    8.3624    2.5047 N   0  0  0  0  0  0  0  0  0  0  0  0
    6.0401    7.6781    2.5178 C   0  0  0  0  0  0  0  0  0  0  0  0
    7.1463    7.7330    3.2820 C   0  0  0  0  0  0  0  0  0  0  0  0
    7.8568    6.7815    2.2763 C   0  0  0  0  0  0  0  0  0  0  0  0
    6.7691    6.7242    1.4966 C   0  0  0  0  0  0  0  0  0  0  0  0
    4.1373    5.6412    1.8343 N   0  0  0  0  0  0  0  0  0  0  0  0
    3.9077    4.4274    1.3523 C   0  0  0  0  0  0  0  0  0  0  0  0
    5.6784    3.6143   -2.4561 C   0  0  1  0  0  0  0  0  0  0  0  0
    5.9420    4.0667   -3.6904 F   0  0  0  0  0  0  0  0  0  0  0  0
    5.4362    4.6861   -1.6747 F   0  0  0  0  0  0  0  0  0  0  0  0
    6.7881    3.0194   -1.9892 F   0  0  0  0  0  0  0  0  0  0  0  0
    3.8049    0.8417   -3.4143 H   0  0  0  0  0  0  0  0  0  0  0  0
    5.5545    0.8448   -3.0323 H   0  0  0  0  0  0  0  0  0  0  0  0
    4.9418    1.7943   -4.4103 H   0  0  0  0  0  0  0  0  0  0  0  0
    3.6274    3.2393   -2.8369 H   0  0  0  0  0  0  0  0  0  0  0  0
    4.6183    1.4197   -0.7206 H   0  0  0  0  0  0  0  0  0  0  0  0
    1.4766    5.2144   -0.8848 H   0  0  0  0  0  0  0  0  0  0  0  0
    2.0013   11.8073    2.8410 H   0  0  0  0  0  0  0  0  0  0  0  0
    5.8995   12.1228    4.7065 H   0  0  0  0  0  0  0  0  0  0  0  0
    7.4385    8.2850    4.1709 H   0  0  0  0  0  0  0  0  0  0  0  0
    8.8501    6.3342    2.2352 H   0  0  0  0  0  0  0  0  0  0  0  0
    6.4994    6.2482    0.5564 H   0  0  0  0  0  0  0  0  0  0  0  0
    4.4840    3.5976    1.7759 H   0  0  0  0  0  0  0  0  0  0  0  0
  1  2  1  0
  1 33  1  0
  1 34  1  0
  1 35  1  0
  2  3  1  0
  2 29  1  0
  2 36  1  6
  4  3  1  6
  3 37  1  0
  4  5  2  0
  4  6  2  0
  4  7  1  0
  7  8  2  0
  7 28  1  0
  8  9  1  0
  8 38  1  0
  9 10  2  0
 10 11  1  0
 10 27  1  0
 11 12  2  0
 11 22  1  0
 12 13  1  0
 12 15  1  0
 13 14  3  0
 15 16  2  0
 15 21  1  0
 16 17  1  0
 16 39  1  0
 17 18  1  0
 17 19  2  0
 19 20  1  0
 19 40  1  0
 20 21  2  0
 21 22  1  0
 22 23  1  0
 23 24  1  0
 23 26  2  0
 24 25  2  0
 24 41  1  0
 25 26  1  0
 25 42  1  0
 26 43  1  0
 27 28  2  0
 28 44  1  0
 29 30  1  6
 29 31  1  0
 29 32  1  0
M  END

