
     RDKit          3D

 40 41  0  0  0  0  0  0  0  0999 V2000
    3.7626   -2.1412    4.8606 C   0  0  0  0  0  0  0  0  0  0  0  0
    3.5569   -1.9980    3.3426 C   0  0  1  0  0  0  0  0  0  0  0  0
    4.7566   -2.6209    2.5942 C   0  0  0  0  0  0  0  0  0  0  0  0
    2.2559   -2.7205    2.9246 C   0  0  0  0  0  0  0  0  0  0  0  0
    3.4495   -0.5201    2.9968 C   0  0  0  0  0  0  0  0  0  0  0  0
    3.4842    0.4565    3.8458 N   0  0  0  0  0  0  0  0  0  0  0  0
    3.3566    1.6858    3.2420 C   0  0  0  0  0  0  0  0  0  0  0  0
    3.3714    2.9332    4.0301 C   0  0  0  0  0  0  0  0  0  0  0  0
    3.2390    4.0806    3.3475 N   0  0  0  0  0  0  0  0  0  0  0  0
    3.2501    5.1950    4.0405 C   0  0  0  0  0  0  0  0  0  0  0  0
    3.0758    6.6683    3.1217 Cl  0  0  0  0  0  0  0  0  0  0  0  0
    3.3934    5.2236    5.4467 C   0  0  0  0  0  0  0  0  0  0  0  0
    3.3899    6.9131    6.3230 Br  0  0  0  0  0  0  0  0  0  0  0  0
    3.5297    3.9691    6.0960 C   0  0  0  0  0  0  0  0  0  0  0  0
    3.7010    3.7395    7.6159 C   0  0  1  0  0  0  0  0  0  0  0  0
    2.4674    4.2708    8.3836 C   0  0  0  0  0  0  0  0  0  0  0  0
    3.8151    2.2288    7.9006 C   0  0  0  0  0  0  0  0  0  0  0  0
    4.9998    4.4123    8.1196 C   0  0  0  0  0  0  0  0  0  0  0  0
    3.5127    2.8583    5.3506 N   0  0  0  0  0  0  0  0  0  0  0  0
    3.2178    1.6508    1.8719 C   0  0  0  0  0  0  0  0  0  0  0  0
    3.2468    0.0252    1.3154 S   0  0  0  0  0  0  0  0  0  0  0  0
    3.8403   -3.2078    5.1253 H   0  0  0  0  0  0  0  0  0  0  0  0
    2.9252   -1.6993    5.4190 H   0  0  0  0  0  0  0  0  0  0  0  0
    4.6792   -1.6297    5.1878 H   0  0  0  0  0  0  0  0  0  0  0  0
    4.8483   -3.6888    2.8496 H   0  0  0  0  0  0  0  0  0  0  0  0
    5.6988   -2.1215    2.8693 H   0  0  0  0  0  0  0  0  0  0  0  0
    4.6397   -2.5464    1.5011 H   0  0  0  0  0  0  0  0  0  0  0  0
    2.3172   -3.7899    3.1833 H   0  0  0  0  0  0  0  0  0  0  0  0
    2.0788   -2.6461    1.8397 H   0  0  0  0  0  0  0  0  0  0  0  0
    1.3821   -2.2933    3.4410 H   0  0  0  0  0  0  0  0  0  0  0  0
    1.5479    3.7738    8.0353 H   0  0  0  0  0  0  0  0  0  0  0  0
    2.3321    5.3551    8.2815 H   0  0  0  0  0  0  0  0  0  0  0  0
    2.5822    4.0462    9.4561 H   0  0  0  0  0  0  0  0  0  0  0  0
    2.9223    1.6826    7.5675 H   0  0  0  0  0  0  0  0  0  0  0  0
    3.9364    2.0797    8.9853 H   0  0  0  0  0  0  0  0  0  0  0  0
    4.6753    1.7806    7.3850 H   0  0  0  0  0  0  0  0  0  0  0  0
    4.9911    5.5036    8.0038 H   0  0  0  0  0  0  0  0  0  0  0  0
    5.8771    4.0152    7.5842 H   0  0  0  0  0  0  0  0  0  0  0  0
    5.1334    4.1893    9.1902 H   0  0  0  0  0  0  0  0  0  0  0  0
    3.1044    2.5005    1.2027 H   0  0  0  0  0  0  0  0  0  0  0  0
  2  1  1  1
  1 22  1  0
  1 23  1  0
  1 24  1  0
  2  3  1  0
  2  4  1  0
  2  5  1  0
  3 25  1  0
  3 26  1  0
  3 27  1  0
  4 28  1  0
  4 29  1  0
  4 30  1  0
  5  6  2  0
  5 21  1  0
  6  7  1  0
  7  8  1  0
  7 20  2  0
  8  9  2  0
  8 19  1  0
  9 10  1  0
 10 11  1  0
 10 12  2  0
 12 13  1  0
 12 14  1  0
 14 15  1  0
 14 19  2  0
 15 16  1  1
 15 17  1  0
 15 18  1  0
 16 31  1  0
 16 32  1  0
 16 33  1  0
 17 34  1  0
 17 35  1  0
 17 36  1  0
 18 37  1  0
 18 38  1  0
 18 39  1  0
 20 21  1  0
 20 40  1  0
M  END

