
     RDKit          3D

 79 82  0  0  0  0  0  0  0  0999 V2000
    6.2717   -0.5924    2.7171 C   0  0  0  0  0  0  0  0  0  0  0  0
    5.4991    0.3798    1.8191 C   0  0  0  0  0  0  0  0  0  0  0  0
    4.9736   -0.1866    0.4780 C   0  0  2  0  0  0  0  0  0  0  0  0
    4.4811    0.6450   -0.0557 H   0  0  0  0  0  0  0  0  0  0  0  0
    3.8899   -1.2535    0.7172 C   0  0  0  0  0  0  0  0  0  0  0  0
    6.0727   -0.7417   -0.4617 C   0  0  1  0  0  0  0  0  0  0  0  0
    6.6341   -1.5169    0.0962 H   0  0  0  0  0  0  0  0  0  0  0  0
    5.5058   -1.3167   -1.6381 O   0  0  0  0  0  0  0  0  0  0  0  0
    7.1450    0.2240   -1.0129 C   0  0  2  0  0  0  0  0  0  0  0  0
    7.7698   -0.4389   -1.6324 H   0  0  0  0  0  0  0  0  0  0  0  0
    7.9244    0.6975    0.0784 O   0  0  0  0  0  0  0  0  0  0  0  0
    6.5953    1.3625   -1.9327 C   0  0  1  0  0  0  0  0  0  0  0  0
    5.6327    0.9951   -2.3230 H   0  0  0  0  0  0  0  0  0  0  0  0
    6.3400    2.6420   -1.1212 C   0  0  0  0  0  0  0  0  0  0  0  0
    7.5308    1.5721   -3.1565 C   0  0  1  0  0  0  0  0  0  0  0  0
    7.6760    0.3285   -4.0549 C   0  0  0  0  0  0  0  0  0  0  0  0
    8.4850    0.8387   -5.2452 C   0  0  0  0  0  0  0  0  0  0  0  0
    8.0106    2.2970   -5.4933 C   0  0  2  0  0  0  0  0  0  0  0  0
    9.1899    3.2442   -5.8274 C   0  0  1  0  0  0  0  0  0  0  0  0
   10.0131    2.6479   -6.9795 C   0  0  0  0  0  0  0  0  0  0  0  0
   10.9503    3.5868   -7.5095 O   0  0  0  0  0  0  0  0  0  0  0  0
   10.4846    4.2966   -8.5831 C   0  0  0  0  0  0  0  0  0  0  0  0
   10.5567    3.8677   -9.7033 O   0  0  0  0  0  0  0  0  0  0  0  0
    9.8799    5.6230   -8.1923 C   0  0  1  0  0  0  0  0  0  0  0  0
   10.5917    6.1025   -7.5005 H   0  0  0  0  0  0  0  0  0  0  0  0
    9.7322    6.5257   -9.4258 C   0  0  0  0  0  0  0  0  0  0  0  0
    9.2360    7.9235   -9.0580 C   0  0  2  0  0  0  0  0  0  0  0  0
    9.0687    8.5063   -9.9904 H   0  0  0  0  0  0  0  0  0  0  0  0
   10.1453    8.6119   -8.2139 O   0  0  0  0  0  0  0  0  0  0  0  0
    7.9020    7.7958   -8.3217 C   0  0  2  0  0  0  0  0  0  0  0  0
    7.1917    7.3474   -9.0468 H   0  0  0  0  0  0  0  0  0  0  0  0
    7.4007    9.0313   -7.8536 O   0  0  0  0  0  0  0  0  0  0  0  0
    8.0249    6.8872   -7.0984 C   0  0  0  0  0  0  0  0  0  0  0  0
    8.5427    5.4416   -7.3608 C   0  0  1  0  0  0  0  0  0  0  0  0
    7.4869    4.6492   -8.1590 C   0  0  0  0  0  0  0  0  0  0  0  0
    8.8316    4.7757   -5.9495 C   0  0  1  0  0  0  0  0  0  0  0  0
    7.7129    5.0976   -4.9211 C   0  0  0  0  0  0  0  0  0  0  0  0
    7.6265    4.1187   -3.7473 C   0  0  0  0  0  0  0  0  0  0  0  0
    7.1930    2.7061   -4.1975 C   0  0  2  0  0  0  0  0  0  0  0  0
    5.6882    2.6955   -4.5398 C   0  0  0  0  0  0  0  0  0  0  0  0
    6.5112   -0.1133    3.6802 H   0  0  0  0  0  0  0  0  0  0  0  0
    7.2267   -0.8885    2.2579 H   0  0  0  0  0  0  0  0  0  0  0  0
    5.6988   -1.5064    2.9448 H   0  0  0  0  0  0  0  0  0  0  0  0
    6.1451    1.2456    1.6179 H   0  0  0  0  0  0  0  0  0  0  0  0
    4.6239    0.7637    2.3739 H   0  0  0  0  0  0  0  0  0  0  0  0
    3.3646   -1.5153   -0.2146 H   0  0  0  0  0  0  0  0  0  0  0  0
    3.1275   -0.8817    1.4200 H   0  0  0  0  0  0  0  0  0  0  0  0
    4.3070   -2.1800    1.1484 H   0  0  0  0  0  0  0  0  0  0  0  0
    4.9845   -2.0864   -1.3838 H   0  0  0  0  0  0  0  0  0  0  0  0
    8.7305    1.0949   -0.2729 H   0  0  0  0  0  0  0  0  0  0  0  0
    5.7732    2.4301   -0.2053 H   0  0  0  0  0  0  0  0  0  0  0  0
    5.7618    3.3768   -1.6967 H   0  0  0  0  0  0  0  0  0  0  0  0
    7.2796    3.1241   -0.8108 H   0  0  0  0  0  0  0  0  0  0  0  0
    8.5408    1.8113   -2.7615 H   0  0  0  0  0  0  0  0  0  0  0  0
    6.6791   -0.0296   -4.3610 H   0  0  0  0  0  0  0  0  0  0  0  0
    8.1679   -0.5221   -3.5619 H   0  0  0  0  0  0  0  0  0  0  0  0
    8.3940    0.2002   -6.1376 H   0  0  0  0  0  0  0  0  0  0  0  0
    9.5513    0.8360   -4.9622 H   0  0  0  0  0  0  0  0  0  0  0  0
    7.3188    2.3043   -6.3519 H   0  0  0  0  0  0  0  0  0  0  0  0
    9.8576    3.2082   -4.9492 H   0  0  0  0  0  0  0  0  0  0  0  0
    9.3709    2.2727   -7.7948 H   0  0  0  0  0  0  0  0  0  0  0  0
   10.6028    1.7925   -6.6251 H   0  0  0  0  0  0  0  0  0  0  0  0
    9.0560    6.0656  -10.1631 H   0  0  0  0  0  0  0  0  0  0  0  0
   10.7077    6.5981   -9.9360 H   0  0  0  0  0  0  0  0  0  0  0  0
   10.9933    8.6737   -8.6720 H   0  0  0  0  0  0  0  0  0  0  0  0
    7.5531    9.7043   -8.5291 H   0  0  0  0  0  0  0  0  0  0  0  0
    7.0344    6.8622   -6.6253 H   0  0  0  0  0  0  0  0  0  0  0  0
    8.7025    7.3996   -6.3978 H   0  0  0  0  0  0  0  0  0  0  0  0
    7.2271    5.1432   -9.1064 H   0  0  0  0  0  0  0  0  0  0  0  0
    6.5540    4.5567   -7.5818 H   0  0  0  0  0  0  0  0  0  0  0  0
    7.8215    3.6340   -8.4136 H   0  0  0  0  0  0  0  0  0  0  0  0
    9.7377    5.2954   -5.5958 H   0  0  0  0  0  0  0  0  0  0  0  0
    6.7328    5.1081   -5.4231 H   0  0  0  0  0  0  0  0  0  0  0  0
    7.8537    6.1156   -4.5311 H   0  0  0  0  0  0  0  0  0  0  0  0
    6.9169    4.5198   -3.0100 H   0  0  0  0  0  0  0  0  0  0  0  0
    8.5999    4.0661   -3.2296 H   0  0  0  0  0  0  0  0  0  0  0  0
    5.4627    3.3974   -5.3573 H   0  0  0  0  0  0  0  0  0  0  0  0
    5.0642    2.9836   -3.6809 H   0  0  0  0  0  0  0  0  0  0  0  0
    5.3560    1.7008   -4.8742 H   0  0  0  0  0  0  0  0  0  0  0  0
  1  2  1  0
  1 41  1  0
  1 42  1  0
  1 43  1  0
  2  3  1  0
  2 44  1  0
  2 45  1  0
  3  4  1  6
  3  5  1  0
  3  6  1  0
  5 46  1  0
  5 47  1  0
  5 48  1  0
  6  7  1  1
  6  8  1  0
  6  9  1  0
  8 49  1  0
  9 10  1  6
  9 11  1  0
  9 12  1  0
 11 50  1  0
 12 13  1  6
 12 14  1  0
 12 15  1  0
 14 51  1  0
 14 52  1  0
 14 53  1  0
 15 16  1  0
 15 39  1  0
 15 54  1  1
 16 17  1  0
 16 55  1  0
 16 56  1  0
 17 18  1  0
 17 57  1  0
 17 58  1  0
 18 19  1  0
 18 39  1  0
 18 59  1  6
 19 20  1  0
 19 36  1  0
 19 60  1  1
 20 21  1  0
 20 61  1  0
 20 62  1  0
 21 22  1  0
 22 23  2  0
 22 24  1  0
 24 25  1  1
 24 26  1  0
 24 34  1  0
 26 27  1  0
 26 63  1  0
 26 64  1  0
 27 28  1  6
 27 29  1  0
 27 30  1  0
 29 65  1  0
 30 31  1  6
 30 32  1  0
 30 33  1  0
 32 66  1  0
 33 34  1  0
 33 67  1  0
 33 68  1  0
 34 35  1  6
 34 36  1  0
 35 69  1  0
 35 70  1  0
 35 71  1  0
 36 37  1  0
 36 72  1  1
 37 38  1  0
 37 73  1  0
 37 74  1  0
 38 39  1  0
 38 75  1  0
 38 76  1  0
 39 40  1  6
 40 77  1  0
 40 78  1  0
 40 79  1  0
M  END

