
     RDKit          3D

 42 43  0  0  0  0  0  0  0  0999 V2000
    0.9767   -0.6994   -2.0635 C   0  0  0  0  0  0  0  0  0  0  0  0
    2.3880   -0.8257   -2.6520 C   0  0  1  0  0  0  0  0  0  0  0  0
    2.3259   -1.3325   -4.0999 C   0  0  0  0  0  0  0  0  0  0  0  0
    3.1442    0.5085   -2.5165 C   0  0  0  0  0  0  0  0  0  0  0  0
    4.6256    0.4472   -2.8908 C   0  0  0  0  0  0  0  0  0  0  0  0
    5.3468    1.7735   -2.6403 C   0  0  0  0  0  0  0  0  0  0  0  0
    4.7554    2.7282   -2.1519 O   0  0  0  0  0  0  0  0  0  0  0  0
    6.6766    1.8552   -2.9889 N   0  0  0  0  0  0  0  0  0  0  0  0
    7.5034    0.7494   -3.4620 C   0  0  0  0  0  0  0  0  0  0  0  0
    8.3115    1.1717   -4.6897 C   0  0  0  0  0  0  0  0  0  0  0  0
    9.0896    2.3553   -4.3648 N   0  0  0  0  0  0  0  0  0  0  0  0
    8.2452    3.4722   -3.9632 C   0  0  0  0  0  0  0  0  0  0  0  0
    7.3942    3.1222   -2.7319 C   0  0  2  0  0  0  0  0  0  0  0  0
    8.1267    3.0983   -1.3906 C   0  0  0  0  0  0  0  0  0  0  0  0
    7.4011    3.3555   -0.2151 C   0  0  0  0  0  0  0  0  0  0  0  0
    8.0603    3.3375    1.0130 C   0  0  0  0  0  0  0  0  0  0  0  0
    9.4321    3.0639    1.0296 C   0  0  0  0  0  0  0  0  0  0  0  0
   10.1387    2.8154   -0.0736 N   0  0  0  0  0  0  0  0  0  0  0  0
    9.4993    2.8303   -1.2487 C   0  0  0  0  0  0  0  0  0  0  0  0
    0.4324   -1.6565   -2.1129 H   0  0  0  0  0  0  0  0  0  0  0  0
    0.3848    0.0495   -2.6177 H   0  0  0  0  0  0  0  0  0  0  0  0
    1.0070   -0.3823   -1.0086 H   0  0  0  0  0  0  0  0  0  0  0  0
    2.9328   -1.5822   -2.0538 H   0  0  0  0  0  0  0  0  0  0  0  0
    1.8123   -0.6023   -4.7494 H   0  0  0  0  0  0  0  0  0  0  0  0
    1.7697   -2.2817   -4.1645 H   0  0  0  0  0  0  0  0  0  0  0  0
    3.3259   -1.5120   -4.5258 H   0  0  0  0  0  0  0  0  0  0  0  0
    3.0651    0.8703   -1.4791 H   0  0  0  0  0  0  0  0  0  0  0  0
    2.6468    1.2800   -3.1297 H   0  0  0  0  0  0  0  0  0  0  0  0
    4.7515    0.1665   -3.9497 H   0  0  0  0  0  0  0  0  0  0  0  0
    5.1287   -0.3461   -2.3083 H   0  0  0  0  0  0  0  0  0  0  0  0
    6.8742   -0.1118   -3.7116 H   0  0  0  0  0  0  0  0  0  0  0  0
    8.2011    0.4346   -2.6638 H   0  0  0  0  0  0  0  0  0  0  0  0
    7.6053    1.3361   -5.5363 H   0  0  0  0  0  0  0  0  0  0  0  0
    8.9912    0.3529   -4.9758 H   0  0  0  0  0  0  0  0  0  0  0  0
    9.6984    2.6198   -5.1359 H   0  0  0  0  0  0  0  0  0  0  0  0
    7.5410    3.7777   -4.7692 H   0  0  0  0  0  0  0  0  0  0  0  0
    8.8775    4.3432   -3.7314 H   0  0  0  0  0  0  0  0  0  0  0  0
    6.6054    3.8804   -2.6486 H   0  0  0  0  0  0  0  0  0  0  0  0
    6.3294    3.5619   -0.2787 H   0  0  0  0  0  0  0  0  0  0  0  0
    7.5237    3.5374    1.9439 H   0  0  0  0  0  0  0  0  0  0  0  0
    9.9812    3.0465    1.9794 H   0  0  0  0  0  0  0  0  0  0  0  0
   10.0989    2.6105   -2.1374 H   0  0  0  0  0  0  0  0  0  0  0  0
  1  2  1  0
  1 20  1  0
  1 21  1  0
  1 22  1  0
  2  3  1  0
  2  4  1  0
  2 23  1  1
  3 24  1  0
  3 25  1  0
  3 26  1  0
  4  5  1  0
  4 27  1  0
  4 28  1  0
  5  6  1  0
  5 29  1  0
  5 30  1  0
  6  7  2  0
  6  8  1  0
  8  9  1  0
  8 13  1  0
  9 10  1  0
  9 31  1  0
  9 32  1  0
 10 11  1  0
 10 33  1  0
 10 34  1  0
 11 12  1  0
 11 35  1  0
 12 13  1  0
 12 36  1  0
 12 37  1  0
 13 14  1  0
 13 38  1  1
 14 15  2  0
 14 19  1  0
 15 16  1  0
 15 39  1  0
 16 17  2  0
 16 40  1  0
 17 18  1  0
 17 41  1  0
 18 19  2  0
 19 42  1  0
M  END

