
     RDKit          3D

 23 23  0  0  0  0  0  0  0  0999 V2000
    1.1612   -1.6508   -1.0757 C   0  0  0  0  0  0  0  0  0  0  0  0
    2.5870   -1.5799   -1.0912 O   0  0  0  0  0  0  0  0  0  0  0  0
    3.1192   -0.3475   -1.1313 C   0  0  0  0  0  0  0  0  0  0  0  0
    2.4724    0.6680   -1.0928 O   0  0  0  0  0  0  0  0  0  0  0  0
    4.6274   -0.4152   -1.2359 C   0  0  0  0  0  0  0  0  0  0  0  0
    5.1013   -0.7630   -2.6474 C   0  0  0  0  0  0  0  0  0  0  0  0
    4.3394   -0.8583   -3.5799 O   0  0  0  0  0  0  0  0  0  0  0  0
    6.6039   -1.0035   -2.8088 C   0  0  0  0  0  0  0  0  0  0  0  0
    6.9868   -2.3932   -2.3524 C   0  0  0  0  0  0  0  0  0  0  0  0
    6.4702   -3.5917   -2.9513 C   0  0  0  0  0  0  0  0  0  0  0  0
    6.9563   -4.7319   -2.3675 C   0  0  0  0  0  0  0  0  0  0  0  0
    8.0500   -4.3722   -1.0757 S   0  0  0  0  0  0  0  0  0  0  0  0
    7.8512   -2.6713   -1.3182 C   0  0  0  0  0  0  0  0  0  0  0  0
    0.9081   -2.7172   -1.0315 H   0  0  0  0  0  0  0  0  0  0  0  0
    0.7413   -1.1969   -1.9860 H   0  0  0  0  0  0  0  0  0  0  0  0
    0.7516   -1.1234   -0.2008 H   0  0  0  0  0  0  0  0  0  0  0  0
    5.0327   -1.1652   -0.5373 H   0  0  0  0  0  0  0  0  0  0  0  0
    5.0429    0.5669   -0.9601 H   0  0  0  0  0  0  0  0  0  0  0  0
    7.1690   -0.2536   -2.2337 H   0  0  0  0  0  0  0  0  0  0  0  0
    6.8321   -0.8727   -3.8780 H   0  0  0  0  0  0  0  0  0  0  0  0
    5.7628   -3.5904   -3.7823 H   0  0  0  0  0  0  0  0  0  0  0  0
    6.7330   -5.7666   -2.6239 H   0  0  0  0  0  0  0  0  0  0  0  0
    8.3940   -1.9620   -0.6941 H   0  0  0  0  0  0  0  0  0  0  0  0
  1  2  1  0
  1 14  1  0
  1 15  1  0
  1 16  1  0
  2  3  1  0
  3  4  2  0
  3  5  1  0
  5  6  1  0
  5 17  1  0
  5 18  1  0
  6  7  2  0
  6  8  1  0
  8  9  1  0
  8 19  1  0
  8 20  1  0
  9 10  1  0
  9 13  2  0
 10 11  2  0
 10 21  1  0
 11 12  1  0
 11 22  1  0
 12 13  1  0
 13 23  1  0
M  END

