
     RDKit          3D

 31 32  0  0  0  0  0  0  0  0999 V2000
    1.3493   -0.5007    0.3551 N   0  0  0  0  0  0  0  0  0  0  0  0
    2.5471   -0.0709   -0.1548 C   0  0  0  0  0  0  0  0  0  0  0  0
    3.2955    0.9428    0.4889 C   0  0  0  0  0  0  0  0  0  0  0  0
    4.5253    1.3203   -0.0468 C   0  0  0  0  0  0  0  0  0  0  0  0
    5.3617    2.4011    0.6169 C   0  0  0  0  0  0  0  0  0  0  0  0
    4.5910    3.7154    0.8156 C   0  0  0  0  0  0  0  0  0  0  0  0
    3.7988    3.8269    1.7259 O   0  0  0  0  0  0  0  0  0  0  0  0
    4.8181    4.8252   -0.2248 C   0  0  1  0  0  0  0  0  0  0  0  0
    4.4671    4.3553   -1.5691 N   0  0  0  0  0  0  0  0  0  0  0  0
    4.0377    6.1122    0.0861 C   0  0  0  0  0  0  0  0  0  0  0  0
    4.9082    7.1694   -0.5848 C   0  0  0  0  0  0  0  0  0  0  0  0
    6.2421    6.7519   -0.3183 O   0  0  0  0  0  0  0  0  0  0  0  0
    6.2868    5.3435   -0.2219 C   0  0  0  0  0  0  0  0  0  0  0  0
    4.9715    0.6690   -1.2115 C   0  0  0  0  0  0  0  0  0  0  0  0
    4.1565   -0.3172   -1.7686 C   0  0  0  0  0  0  0  0  0  0  0  0
    2.9760   -0.6827   -1.2700 N   0  0  0  0  0  0  0  0  0  0  0  0
    0.8585    0.0717    1.0282 H   0  0  0  0  0  0  0  0  0  0  0  0
    0.7925   -1.0943   -0.2473 H   0  0  0  0  0  0  0  0  0  0  0  0
    2.9174    1.4280    1.3914 H   0  0  0  0  0  0  0  0  0  0  0  0
    6.2823    2.5637    0.0372 H   0  0  0  0  0  0  0  0  0  0  0  0
    5.6515    2.0661    1.6259 H   0  0  0  0  0  0  0  0  0  0  0  0
    3.5057    4.0151   -1.6006 H   0  0  0  0  0  0  0  0  0  0  0  0
    5.0651    3.5919   -1.8831 H   0  0  0  0  0  0  0  0  0  0  0  0
    3.9910    6.2652    1.1738 H   0  0  0  0  0  0  0  0  0  0  0  0
    3.0074    6.0763   -0.2982 H   0  0  0  0  0  0  0  0  0  0  0  0
    4.7775    8.1817   -0.1724 H   0  0  0  0  0  0  0  0  0  0  0  0
    4.7160    7.2004   -1.6740 H   0  0  0  0  0  0  0  0  0  0  0  0
    6.8185    5.0684    0.7081 H   0  0  0  0  0  0  0  0  0  0  0  0
    6.8445    4.9056   -1.0722 H   0  0  0  0  0  0  0  0  0  0  0  0
    5.9338    0.9143   -1.6671 H   0  0  0  0  0  0  0  0  0  0  0  0
    4.4791   -0.8415   -2.6768 H   0  0  0  0  0  0  0  0  0  0  0  0
  1  2  1  0
  1 17  1  0
  1 18  1  0
  2  3  2  0
  2 16  1  0
  3  4  1  0
  3 19  1  0
  4  5  1  0
  4 14  2  0
  5  6  1  0
  5 20  1  0
  5 21  1  0
  6  7  2  0
  8  6  1  1
  8  9  1  0
  8 10  1  0
  8 13  1  0
  9 22  1  0
  9 23  1  0
 10 11  1  0
 10 24  1  0
 10 25  1  0
 11 12  1  0
 11 26  1  0
 11 27  1  0
 12 13  1  0
 13 28  1  0
 13 29  1  0
 14 15  1  0
 14 30  1  0
 15 16  2  0
 15 31  1  0
M  END

