
     RDKit          3D

 24 24  0  0  0  0  0  0  0  0999 V2000
    1.1877   -0.3094    0.2940 C   0  0  0  0  0  0  0  0  0  0  0  0
    2.6409   -0.0220    0.1593 C   0  0  0  0  0  0  0  0  0  0  0  0
    3.3623    1.1334   -0.0033 C   0  0  0  0  0  0  0  0  0  0  0  0
    4.7396    0.7535   -0.0682 C   0  0  0  0  0  0  0  0  0  0  0  0
    4.7682   -0.6087    0.0570 C   0  0  0  0  0  0  0  0  0  0  0  0
    5.9197   -1.5469    0.0592 C   0  0  0  0  0  0  0  0  0  0  0  0
    7.0604   -1.1445   -0.0589 O   0  0  0  0  0  0  0  0  0  0  0  0
    5.5549   -2.8668    0.2067 N   0  0  0  0  0  0  0  0  0  0  0  0
    6.4872   -3.8886    0.2408 N   0  0  0  0  0  0  0  0  0  0  0  0
    6.5404   -4.5461    1.5334 C   0  0  0  0  0  0  0  0  0  0  0  0
    6.3632   -4.7877   -0.8918 C   0  0  0  0  0  0  0  0  0  0  0  0
    3.4909   -1.0847    0.1972 O   0  0  0  0  0  0  0  0  0  0  0  0
    0.6122    0.6251    0.2471 H   0  0  0  0  0  0  0  0  0  0  0  0
    0.9637   -0.8065    1.2530 H   0  0  0  0  0  0  0  0  0  0  0  0
    0.8336   -0.9752   -0.5111 H   0  0  0  0  0  0  0  0  0  0  0  0
    2.9501    2.1382   -0.0679 H   0  0  0  0  0  0  0  0  0  0  0  0
    5.6131    1.3884   -0.1923 H   0  0  0  0  0  0  0  0  0  0  0  0
    4.5633   -3.0948    0.3077 H   0  0  0  0  0  0  0  0  0  0  0  0
    6.7356   -3.8008    2.3175 H   0  0  0  0  0  0  0  0  0  0  0  0
    7.3638   -5.2767    1.5387 H   0  0  0  0  0  0  0  0  0  0  0  0
    5.6006   -5.0893    1.7888 H   0  0  0  0  0  0  0  0  0  0  0  0
    6.4298   -4.2129   -1.8264 H   0  0  0  0  0  0  0  0  0  0  0  0
    5.4056   -5.3590   -0.8964 H   0  0  0  0  0  0  0  0  0  0  0  0
    7.1894   -5.5148   -0.8737 H   0  0  0  0  0  0  0  0  0  0  0  0
  1  2  1  0
  1 13  1  0
  1 14  1  0
  1 15  1  0
  2  3  2  0
  2 12  1  0
  3  4  1  0
  3 16  1  0
  4  5  2  0
  4 17  1  0
  5  6  1  0
  5 12  1  0
  6  7  2  0
  6  8  1  0
  8  9  1  0
  8 18  1  0
  9 10  1  0
  9 11  1  0
 10 19  1  0
 10 20  1  0
 10 21  1  0
 11 22  1  0
 11 23  1  0
 11 24  1  0
M  END

