
     RDKit          3D

 42 43  0  0  0  0  0  0  0  0999 V2000
    1.3394   -0.2209    0.6325 C   0  0  0  0  0  0  0  0  0  0  0  0
    2.4720   -0.4711   -0.2049 O   0  0  0  0  0  0  0  0  0  0  0  0
    3.4055   -1.2958    0.2810 C   0  0  0  0  0  0  0  0  0  0  0  0
    3.3355   -1.8302    1.3636 O   0  0  0  0  0  0  0  0  0  0  0  0
    4.5708   -1.4583   -0.6874 C   0  0  1  0  0  0  0  0  0  0  0  0
    5.2936   -0.1218   -0.9320 C   0  0  0  0  0  0  0  0  0  0  0  0
    5.4430   -2.4869   -0.1568 N   0  0  0  0  0  0  0  0  0  0  0  0
    6.2943   -3.1920   -0.9537 C   0  0  0  0  0  0  0  0  0  0  0  0
    6.4315   -2.9447   -2.1434 O   0  0  0  0  0  0  0  0  0  0  0  0
    7.0548   -4.3193   -0.2628 C   0  0  0  0  0  0  0  0  0  0  0  0
    8.5036   -4.4126   -0.7421 C   0  0  0  0  0  0  0  0  0  0  0  0
    9.1684   -5.5842   -0.1598 N   0  0  0  0  0  0  0  0  0  0  0  0
   10.5716   -5.6924   -0.2877 C   0  0  0  0  0  0  0  0  0  0  0  0
   11.1421   -6.6381   -1.1285 C   0  0  0  0  0  0  0  0  0  0  0  0
   12.5455   -6.7625   -1.2572 C   0  0  0  0  0  0  0  0  0  0  0  0
   13.3883   -5.9196   -0.5670 C   0  0  0  0  0  0  0  0  0  0  0  0
   12.8548   -4.9467    0.3247 C   0  0  0  0  0  0  0  0  0  0  0  0
   13.6996   -4.0863    1.0822 C   0  0  0  0  0  0  0  0  0  0  0  0
   13.1768   -3.1913    1.9914 C   0  0  0  0  0  0  0  0  0  0  0  0
   11.7770   -3.1303    2.2000 C   0  0  0  0  0  0  0  0  0  0  0  0
   10.9287   -3.9400    1.4720 C   0  0  0  0  0  0  0  0  0  0  0  0
   11.4324   -4.8457    0.4970 C   0  0  0  0  0  0  0  0  0  0  0  0
    0.6963    0.4709    0.0754 H   0  0  0  0  0  0  0  0  0  0  0  0
    1.6522    0.2299    1.5861 H   0  0  0  0  0  0  0  0  0  0  0  0
    0.8008   -1.1561    0.8467 H   0  0  0  0  0  0  0  0  0  0  0  0
    4.1639   -1.8009   -1.6548 H   0  0  0  0  0  0  0  0  0  0  0  0
    5.7131    0.2719    0.0072 H   0  0  0  0  0  0  0  0  0  0  0  0
    4.6008    0.6207   -1.3530 H   0  0  0  0  0  0  0  0  0  0  0  0
    6.1123   -0.2898   -1.6451 H   0  0  0  0  0  0  0  0  0  0  0  0
    5.2824   -2.7560    0.8094 H   0  0  0  0  0  0  0  0  0  0  0  0
    6.5284   -5.2596   -0.5121 H   0  0  0  0  0  0  0  0  0  0  0  0
    7.0191   -4.2220    0.8340 H   0  0  0  0  0  0  0  0  0  0  0  0
    9.0524   -3.5081   -0.4412 H   0  0  0  0  0  0  0  0  0  0  0  0
    8.5114   -4.4261   -1.8479 H   0  0  0  0  0  0  0  0  0  0  0  0
    8.7225   -6.4329   -0.5023 H   0  0  0  0  0  0  0  0  0  0  0  0
   10.4885   -7.2866   -1.7195 H   0  0  0  0  0  0  0  0  0  0  0  0
   12.9543   -7.5191   -1.9320 H   0  0  0  0  0  0  0  0  0  0  0  0
   14.4725   -5.9942   -0.6836 H   0  0  0  0  0  0  0  0  0  0  0  0
   14.7811   -4.1569    0.9362 H   0  0  0  0  0  0  0  0  0  0  0  0
   13.8412   -2.5410    2.5664 H   0  0  0  0  0  0  0  0  0  0  0  0
   11.3698   -2.4478    2.9505 H   0  0  0  0  0  0  0  0  0  0  0  0
    9.8546   -3.9174    1.6595 H   0  0  0  0  0  0  0  0  0  0  0  0
  1  2  1  0
  1 23  1  0
  1 24  1  0
  1 25  1  0
  2  3  1  0
  3  4  2  0
  3  5  1  0
  5  6  1  0
  5  7  1  0
  5 26  1  6
  6 27  1  0
  6 28  1  0
  6 29  1  0
  7  8  1  0
  7 30  1  0
  8  9  2  0
  8 10  1  0
 10 11  1  0
 10 31  1  0
 10 32  1  0
 11 12  1  0
 11 33  1  0
 11 34  1  0
 12 13  1  0
 12 35  1  0
 13 14  2  0
 13 22  1  0
 14 15  1  0
 14 36  1  0
 15 16  2  0
 15 37  1  0
 16 17  1  0
 16 38  1  0
 17 18  1  0
 17 22  2  0
 18 19  2  0
 18 39  1  0
 19 20  1  0
 19 40  1  0
 20 21  2  0
 20 41  1  0
 21 22  1  0
 21 42  1  0
M  END

