
     RDKit          3D

 35 35  0  0  0  0  0  0  0  0999 V2000
    2.0390    0.8012    1.0080 C   0  0  0  0  0  0  0  0  0  0  0  0
    2.6399   -0.0691    0.0751 O   0  0  0  0  0  0  0  0  0  0  0  0
    3.1155    0.4249   -1.0966 C   0  0  0  0  0  0  0  0  0  0  0  0
    3.0027    1.7702   -1.4630 C   0  0  0  0  0  0  0  0  0  0  0  0
    3.5239    2.2247   -2.6848 C   0  0  0  0  0  0  0  0  0  0  0  0
    3.3925    3.6794   -3.0655 C   0  0  0  0  0  0  0  0  0  0  0  0
    4.1520    1.3066   -3.5288 C   0  0  0  0  0  0  0  0  0  0  0  0
    4.2692   -0.0540   -3.1948 C   0  0  0  0  0  0  0  0  0  0  0  0
    4.9614   -0.9957   -4.1503 C   0  0  0  0  0  0  0  0  0  0  0  0
    3.7423   -0.5034   -1.9678 C   0  0  0  0  0  0  0  0  0  0  0  0
    3.9635   -2.2038   -1.4635 S   0  0  0  0  0  0  0  0  0  0  0  0
    2.2247   -2.8100   -1.3670 C   0  0  0  0  0  0  0  0  0  0  0  0
    2.2027   -4.2354   -0.8062 C   0  0  1  0  0  0  0  0  0  0  0  0
    2.6043   -4.3007    0.6807 C   0  0  0  0  0  0  0  0  0  0  0  0
    0.8197   -4.8605   -1.0304 C   0  0  0  0  0  0  0  0  0  0  0  0
   -0.1229   -4.2850   -1.5001 O   0  0  0  0  0  0  0  0  0  0  0  0
    0.7033   -6.1552   -0.6492 O   0  0  0  0  0  0  0  0  0  0  0  0
    1.7629    0.1854    1.8745 H   0  0  0  0  0  0  0  0  0  0  0  0
    1.1277    1.2758    0.6022 H   0  0  0  0  0  0  0  0  0  0  0  0
    2.7356    1.5921    1.3383 H   0  0  0  0  0  0  0  0  0  0  0  0
    2.5127    2.4830   -0.7988 H   0  0  0  0  0  0  0  0  0  0  0  0
    3.8462    4.3354   -2.3038 H   0  0  0  0  0  0  0  0  0  0  0  0
    2.3333    3.9752   -3.1536 H   0  0  0  0  0  0  0  0  0  0  0  0
    3.8811    3.8914   -4.0276 H   0  0  0  0  0  0  0  0  0  0  0  0
    4.5611    1.6507   -4.4826 H   0  0  0  0  0  0  0  0  0  0  0  0
    5.1651   -0.4987   -5.1100 H   0  0  0  0  0  0  0  0  0  0  0  0
    4.3545   -1.8947   -4.3366 H   0  0  0  0  0  0  0  0  0  0  0  0
    5.9221   -1.3518   -3.7428 H   0  0  0  0  0  0  0  0  0  0  0  0
    1.7801   -2.7917   -2.3705 H   0  0  0  0  0  0  0  0  0  0  0  0
    1.6472   -2.1349   -0.7214 H   0  0  0  0  0  0  0  0  0  0  0  0
    2.9184   -4.8503   -1.3871 H   0  0  0  0  0  0  0  0  0  0  0  0
    1.8563   -3.7901    1.3079 H   0  0  0  0  0  0  0  0  0  0  0  0
    3.5712   -3.8007    0.8337 H   0  0  0  0  0  0  0  0  0  0  0  0
    2.7026   -5.3355    1.0479 H   0  0  0  0  0  0  0  0  0  0  0  0
    1.5422   -6.4826   -0.2955 H   0  0  0  0  0  0  0  0  0  0  0  0
  1  2  1  0
  1 18  1  0
  1 19  1  0
  1 20  1  0
  2  3  1  0
  3  4  2  0
  3 10  1  0
  4  5  1  0
  4 21  1  0
  5  6  1  0
  5  7  2  0
  6 22  1  0
  6 23  1  0
  6 24  1  0
  7  8  1  0
  7 25  1  0
  8  9  1  0
  8 10  2  0
  9 26  1  0
  9 27  1  0
  9 28  1  0
 10 11  1  0
 11 12  1  0
 12 13  1  0
 12 29  1  0
 12 30  1  0
 13 14  1  0
 13 15  1  0
 13 31  1  6
 14 32  1  0
 14 33  1  0
 14 34  1  0
 15 16  2  0
 15 17  1  0
 17 35  1  0
M  END

