
     RDKit          3D

 34 36  0  0  0  0  0  0  0  0999 V2000
    0.8141    0.1376    0.3675 O   0  0  0  0  0  0  0  0  0  0  0  0
    2.0079    0.1138    0.2057 C   0  0  0  0  0  0  0  0  0  0  0  0
    2.6510    0.1924   -1.0285 N   0  0  0  0  0  0  0  0  0  0  0  0
    2.0378    0.2839   -2.2759 C   0  0  0  0  0  0  0  0  0  0  0  0
    0.8376   -0.0913   -2.5594 N   0  0  0  0  0  0  0  0  0  0  0  0
    0.5262    0.1257   -3.8869 C   0  0  0  0  0  0  0  0  0  0  0  0
   -0.8212   -0.2385   -4.3728 C   0  0  0  0  0  0  0  0  0  0  0  0
   -1.7975   -0.6580   -3.4505 C   0  0  0  0  0  0  0  0  0  0  0  0
   -3.0805   -0.9996   -3.8820 C   0  0  0  0  0  0  0  0  0  0  0  0
   -3.4120   -0.9314   -5.2383 C   0  0  0  0  0  0  0  0  0  0  0  0
   -2.4472   -0.5181   -6.1638 C   0  0  0  0  0  0  0  0  0  0  0  0
   -1.1645   -0.1758   -5.7361 C   0  0  0  0  0  0  0  0  0  0  0  0
    1.5484    0.6767   -4.6274 C   0  0  0  0  0  0  0  0  0  0  0  0
    2.9420    0.9605   -3.6357 S   0  0  0  0  0  0  0  0  0  0  0  0
    2.9760   -0.0741    1.3553 C   0  0  0  0  0  0  0  0  0  0  0  0
    3.8553   -1.1697    1.3538 C   0  0  0  0  0  0  0  0  0  0  0  0
    4.6589   -1.4270    2.4596 C   0  0  0  0  0  0  0  0  0  0  0  0
    4.5486   -0.5516    3.5482 C   0  0  0  0  0  0  0  0  0  0  0  0
    5.5163   -0.8414    4.9705 Cl  0  0  0  0  0  0  0  0  0  0  0  0
    3.7490    0.4955    3.5589 N   0  0  0  0  0  0  0  0  0  0  0  0
    2.9809    0.7420    2.5015 C   0  0  0  0  0  0  0  0  0  0  0  0
    2.1046    1.9917    2.6211 C   0  0  1  0  0  0  0  0  0  0  0  0
    2.0115    2.6202    1.4335 F   0  0  0  0  0  0  0  0  0  0  0  0
    0.8694    1.6821    3.0253 F   0  0  0  0  0  0  0  0  0  0  0  0
    2.6203    2.8575    3.4931 F   0  0  0  0  0  0  0  0  0  0  0  0
    3.6550    0.3311   -1.0085 H   0  0  0  0  0  0  0  0  0  0  0  0
   -1.5302   -0.7052   -2.3936 H   0  0  0  0  0  0  0  0  0  0  0  0
   -3.8274   -1.3205   -3.1512 H   0  0  0  0  0  0  0  0  0  0  0  0
   -4.4167   -1.1996   -5.5748 H   0  0  0  0  0  0  0  0  0  0  0  0
   -2.6950   -0.4647   -7.2271 H   0  0  0  0  0  0  0  0  0  0  0  0
   -0.4235    0.1360   -6.4758 H   0  0  0  0  0  0  0  0  0  0  0  0
    1.5651    0.9388   -5.6823 H   0  0  0  0  0  0  0  0  0  0  0  0
    3.8901   -1.8367    0.4885 H   0  0  0  0  0  0  0  0  0  0  0  0
    5.3423   -2.2760    2.4920 H   0  0  0  0  0  0  0  0  0  0  0  0
  1  2  2  0
  2  3  1  0
  2 15  1  0
  3  4  1  0
  3 26  1  0
  4  5  2  0
  4 14  1  0
  5  6  1  0
  6  7  1  0
  6 13  2  0
  7  8  2  0
  7 12  1  0
  8  9  1  0
  8 27  1  0
  9 10  2  0
  9 28  1  0
 10 11  1  0
 10 29  1  0
 11 12  2  0
 11 30  1  0
 12 31  1  0
 13 14  1  0
 13 32  1  0
 15 16  2  0
 15 21  1  0
 16 17  1  0
 16 33  1  0
 17 18  2  0
 17 34  1  0
 18 19  1  0
 18 20  1  0
 20 21  2  0
 21 22  1  0
 22 23  1  6
 22 24  1  0
 22 25  1  0
M  END

