
     RDKit          3D

 56 61  0  0  0  0  0  0  0  0999 V2000
   -1.2609    0.5584    0.8313 C   0  0  0  0  0  0  0  0  0  0  0  0
   -0.3268    0.3272    1.8459 C   0  0  0  0  0  0  0  0  0  0  0  0
    1.0290    0.1881    1.5358 C   0  0  0  0  0  0  0  0  0  0  0  0
    1.4718    0.2743    0.2046 C   0  0  0  0  0  0  0  0  0  0  0  0
    2.9242    0.1385   -0.1219 C   0  0  0  0  0  0  0  0  0  0  0  0
    3.6127   -1.0334   -0.2879 C   0  0  0  0  0  0  0  0  0  0  0  0
    3.1494   -2.4285   -0.2459 C   0  0  0  0  0  0  0  0  0  0  0  0
    1.8138   -2.8640   -0.0952 C   0  0  0  0  0  0  0  0  0  0  0  0
    1.5367   -4.2295   -0.0949 C   0  0  0  0  0  0  0  0  0  0  0  0
    2.5831   -5.1427   -0.2430 C   0  0  0  0  0  0  0  0  0  0  0  0
    3.8752   -4.6297   -0.3910 C   0  0  0  0  0  0  0  0  0  0  0  0
    4.1491   -3.3284   -0.3952 N   0  0  0  0  0  0  0  0  0  0  0  0
    5.4494   -0.6596   -0.6170 Si  0  0  1  0  0  4  0  0  0  0  0  0
    6.6573   -1.1753    0.7468 C   0  0  0  0  0  0  0  0  0  0  0  0
    7.1938   -2.4781    0.7966 C   0  0  0  0  0  0  0  0  0  0  0  0
    8.0782   -2.8571    1.8097 C   0  0  0  0  0  0  0  0  0  0  0  0
    8.4432   -1.9417    2.8027 C   0  0  0  0  0  0  0  0  0  0  0  0
    7.9202   -0.6465    2.7744 C   0  0  0  0  0  0  0  0  0  0  0  0
    7.0390   -0.2689    1.7554 C   0  0  0  0  0  0  0  0  0  0  0  0
    6.0564   -1.1983   -2.3245 C   0  0  0  0  0  0  0  0  0  0  0  0
    5.1505   -1.3652   -3.3902 C   0  0  0  0  0  0  0  0  0  0  0  0
    5.5934   -1.7051   -4.6709 C   0  0  0  0  0  0  0  0  0  0  0  0
    6.9588   -1.8858   -4.9152 C   0  0  0  0  0  0  0  0  0  0  0  0
    7.8747   -1.7243   -3.8723 C   0  0  0  0  0  0  0  0  0  0  0  0
    7.4260   -1.3849   -2.5914 C   0  0  0  0  0  0  0  0  0  0  0  0
    5.1067    1.2018   -0.5487 C   0  0  0  0  0  0  0  0  0  0  0  0
    5.9269    2.3175   -0.7192 C   0  0  0  0  0  0  0  0  0  0  0  0
    5.3989    3.6139   -0.6126 C   0  0  0  0  0  0  0  0  0  0  0  0
    4.0419    3.7919   -0.3320 C   0  0  0  0  0  0  0  0  0  0  0  0
    3.2020    2.6852   -0.1600 C   0  0  0  0  0  0  0  0  0  0  0  0
    3.7267    1.3890   -0.2717 C   0  0  0  0  0  0  0  0  0  0  0  0
    0.5263    0.5201   -0.8062 C   0  0  0  0  0  0  0  0  0  0  0  0
   -0.8299    0.6561   -0.4953 C   0  0  0  0  0  0  0  0  0  0  0  0
   -2.3212    0.6658    1.0741 H   0  0  0  0  0  0  0  0  0  0  0  0
   -0.6546    0.2545    2.8862 H   0  0  0  0  0  0  0  0  0  0  0  0
    1.7563    0.0043    2.3305 H   0  0  0  0  0  0  0  0  0  0  0  0
    1.0060   -2.1443    0.0159 H   0  0  0  0  0  0  0  0  0  0  0  0
    0.5064   -4.5771    0.0196 H   0  0  0  0  0  0  0  0  0  0  0  0
    2.4077   -6.2207   -0.2479 H   0  0  0  0  0  0  0  0  0  0  0  0
    4.7286   -5.3074   -0.5146 H   0  0  0  0  0  0  0  0  0  0  0  0
    6.9052   -3.2060    0.0352 H   0  0  0  0  0  0  0  0  0  0  0  0
    8.4831   -3.8728    1.8269 H   0  0  0  0  0  0  0  0  0  0  0  0
    9.1341   -2.2385    3.5966 H   0  0  0  0  0  0  0  0  0  0  0  0
    8.2002    0.0753    3.5466 H   0  0  0  0  0  0  0  0  0  0  0  0
    6.6445    0.7506    1.7471 H   0  0  0  0  0  0  0  0  0  0  0  0
    4.0787   -1.2305   -3.2177 H   0  0  0  0  0  0  0  0  0  0  0  0
    4.8708   -1.8320   -5.4818 H   0  0  0  0  0  0  0  0  0  0  0  0
    7.3072   -2.1534   -5.9165 H   0  0  0  0  0  0  0  0  0  0  0  0
    8.9437   -1.8651   -4.0550 H   0  0  0  0  0  0  0  0  0  0  0  0
    8.1584   -1.2691   -1.7873 H   0  0  0  0  0  0  0  0  0  0  0  0
    6.9914    2.1895   -0.9390 H   0  0  0  0  0  0  0  0  0  0  0  0
    6.0483    4.4828   -0.7489 H   0  0  0  0  0  0  0  0  0  0  0  0
    3.6302    4.8011   -0.2461 H   0  0  0  0  0  0  0  0  0  0  0  0
    2.1426    2.8345    0.0594 H   0  0  0  0  0  0  0  0  0  0  0  0
    0.8590    0.5981   -1.8444 H   0  0  0  0  0  0  0  0  0  0  0  0
   -1.5530    0.8406   -1.2942 H   0  0  0  0  0  0  0  0  0  0  0  0
  1  2  2  0
  1 33  1  0
  1 34  1  0
  2  3  1  0
  2 35  1  0
  3  4  2  0
  3 36  1  0
  4  5  1  0
  4 32  1  0
  5  6  2  0
  5 31  1  0
  6  7  1  0
  6 13  1  0
  7  8  2  0
  7 12  1  0
  8  9  1  0
  8 37  1  0
  9 10  2  0
  9 38  1  0
 10 11  1  0
 10 39  1  0
 11 12  2  0
 11 40  1  0
 13 14  1  1
 13 20  1  0
 13 26  1  0
 14 15  2  0
 14 19  1  0
 15 16  1  0
 15 41  1  0
 16 17  2  0
 16 42  1  0
 17 18  1  0
 17 43  1  0
 18 19  2  0
 18 44  1  0
 19 45  1  0
 20 21  2  0
 20 25  1  0
 21 22  1  0
 21 46  1  0
 22 23  2  0
 22 47  1  0
 23 24  1  0
 23 48  1  0
 24 25  2  0
 24 49  1  0
 25 50  1  0
 26 27  2  0
 26 31  1  0
 27 28  1  0
 27 51  1  0
 28 29  2  0
 28 52  1  0
 29 30  1  0
 29 53  1  0
 30 31  2  0
 30 54  1  0
 32 33  2  0
 32 55  1  0
 33 56  1  0
M  END

