
     RDKit          3D

 37 37  0  0  0  0  0  0  0  0999 V2000
    0.6069    1.4684    1.8501 C   0  0  0  0  0  0  0  0  0  0  0  0
    2.1160    1.1957    1.9138 C   0  0  1  0  0  0  0  0  0  0  0  0
    2.3933   -0.3071    1.7689 C   0  0  0  0  0  0  0  0  0  0  0  0
    2.8811    2.0538    0.8609 C   0  0  1  0  0  0  0  0  0  0  0  0
    2.7091    3.5002    0.9874 N   0  0  0  0  0  0  0  0  0  0  0  0
    4.3865    1.7526    0.7826 C   0  0  0  0  0  0  0  0  0  0  0  0
    5.0423    1.9803    2.0571 N   0  0  0  0  0  0  0  0  0  0  0  0
    6.3759    1.9547    2.2693 C   0  0  0  0  0  0  0  0  0  0  0  0
    7.2881    1.6947    1.2061 C   0  0  0  0  0  0  0  0  0  0  0  0
    8.6556    1.6616    1.4105 C   0  0  0  0  0  0  0  0  0  0  0  0
    9.2208    1.8811    2.6853 C   0  0  0  0  0  0  0  0  0  0  0  0
   10.6935    1.8747    2.9777 C   0  0  0  0  0  0  0  0  0  0  0  0
   11.5036    1.3387    2.0063 N   0  0  0  0  0  0  0  0  0  0  0  0
   11.1465    2.3370    4.0108 O   0  0  0  0  0  0  0  0  0  0  0  0
    8.3548    2.1571    3.7392 C   0  0  0  0  0  0  0  0  0  0  0  0
    6.9695    2.1871    3.5571 C   0  0  0  0  0  0  0  0  0  0  0  0
    6.1616    2.4741    4.7375 N   0  0  0  0  0  0  0  0  0  0  0  0
    4.9284    2.5128    4.6169 O   0  0  0  0  0  0  0  0  0  0  0  0
    6.7234    2.6649    5.8009 O   0  0  0  0  0  0  0  0  0  0  0  0
    0.0702    0.8936    2.6208 H   0  0  0  0  0  0  0  0  0  0  0  0
    0.1926    1.1777    0.8689 H   0  0  0  0  0  0  0  0  0  0  0  0
    0.3717    2.5311    2.0154 H   0  0  0  0  0  0  0  0  0  0  0  0
    2.4615    1.5092    2.9179 H   0  0  0  0  0  0  0  0  0  0  0  0
    2.1498   -0.6611    0.7518 H   0  0  0  0  0  0  0  0  0  0  0  0
    1.7770   -0.8869    2.4739 H   0  0  0  0  0  0  0  0  0  0  0  0
    3.4446   -0.5600    1.9737 H   0  0  0  0  0  0  0  0  0  0  0  0
    2.4806    1.7724   -0.1309 H   0  0  0  0  0  0  0  0  0  0  0  0
    3.0194    3.8267    1.9038 H   0  0  0  0  0  0  0  0  0  0  0  0
    1.7307    3.7662    0.8989 H   0  0  0  0  0  0  0  0  0  0  0  0
    4.8102    2.4230    0.0165 H   0  0  0  0  0  0  0  0  0  0  0  0
    4.5534    0.7149    0.4422 H   0  0  0  0  0  0  0  0  0  0  0  0
    4.4941    2.1492    2.8987 H   0  0  0  0  0  0  0  0  0  0  0  0
    6.8948    1.5275    0.2042 H   0  0  0  0  0  0  0  0  0  0  0  0
    9.2999    1.4859    0.5453 H   0  0  0  0  0  0  0  0  0  0  0  0
   11.1406    0.6939    1.3169 H   0  0  0  0  0  0  0  0  0  0  0  0
   12.4838    1.2486    2.2494 H   0  0  0  0  0  0  0  0  0  0  0  0
    8.7642    2.3549    4.7291 H   0  0  0  0  0  0  0  0  0  0  0  0
  1  2  1  0
  1 20  1  0
  1 21  1  0
  1 22  1  0
  2  3  1  0
  2  4  1  0
  2 23  1  1
  3 24  1  0
  3 25  1  0
  3 26  1  0
  4  5  1  0
  4  6  1  0
  4 27  1  6
  5 28  1  0
  5 29  1  0
  6  7  1  0
  6 30  1  0
  6 31  1  0
  7  8  1  0
  7 32  1  0
  8  9  2  0
  8 16  1  0
  9 10  1  0
  9 33  1  0
 10 11  2  0
 10 34  1  0
 11 12  1  0
 11 15  1  0
 12 13  1  0
 12 14  2  0
 13 35  1  0
 13 36  1  0
 15 16  2  0
 15 37  1  0
 16 17  1  0
 17 18  2  0
 17 19  1  0
M  CHG  2  17   1  19  -1
M  END

