
     RDKit          3D

 41 43  0  0  0  0  0  0  0  0999 V2000
    2.1893    0.8178    1.0778 C   0  0  0  0  0  0  0  0  0  0  0  0
    3.2013    0.1711    0.1307 C   0  0  0  0  0  0  0  0  0  0  0  0
    3.5815   -1.2567    0.5341 C   0  0  0  0  0  0  0  0  0  0  0  0
    4.5780   -1.8964   -0.4393 C   0  0  0  0  0  0  0  0  0  0  0  0
    4.9609   -3.2666   -0.0880 N   0  0  0  0  0  0  0  0  0  0  0  0
    4.1571   -4.2886   -0.5506 C   0  0  0  0  0  0  0  0  0  0  0  0
    3.1624   -4.0991   -1.2251 O   0  0  0  0  0  0  0  0  0  0  0  0
    4.5696   -5.6873   -0.1105 C   0  0  0  0  0  0  0  0  0  0  0  0
    5.9674   -5.8480    0.0322 O   0  0  0  0  0  0  0  0  0  0  0  0
    6.5777   -4.8676    0.7596 C   0  0  0  0  0  0  0  0  0  0  0  0
    7.7215   -5.1659    1.4954 C   0  0  0  0  0  0  0  0  0  0  0  0
    8.4012   -4.1806    2.2137 C   0  0  0  0  0  0  0  0  0  0  0  0
    7.9097   -2.8653    2.2023 C   0  0  0  0  0  0  0  0  0  0  0  0
    8.5162   -1.8072    2.9052 N   0  0  0  0  0  0  0  0  0  0  0  0
    9.6344   -1.8357    3.7033 C   0  0  0  0  0  0  0  0  0  0  0  0
   10.3119   -2.8221    3.9448 O   0  0  0  0  0  0  0  0  0  0  0  0
    9.9881   -0.5223    4.2893 C   0  0  0  0  0  0  0  0  0  0  0  0
   11.0166   -0.1656    5.1205 C   0  0  0  0  0  0  0  0  0  0  0  0
   10.8747    1.2342    5.3711 C   0  0  0  0  0  0  0  0  0  0  0  0
    9.7641    1.6220    4.6686 C   0  0  0  0  0  0  0  0  0  0  0  0
    8.9312    3.2803    4.4857 Br  0  0  0  0  0  0  0  0  0  0  0  0
    9.2156    0.5782    4.0103 O   0  0  0  0  0  0  0  0  0  0  0  0
    6.7534   -2.5606    1.4598 C   0  0  0  0  0  0  0  0  0  0  0  0
    6.0838   -3.5459    0.7255 C   0  0  0  0  0  0  0  0  0  0  0  0
    1.9346    1.8408    0.7587 H   0  0  0  0  0  0  0  0  0  0  0  0
    2.5831    0.8779    2.1063 H   0  0  0  0  0  0  0  0  0  0  0  0
    1.2525    0.2376    1.1171 H   0  0  0  0  0  0  0  0  0  0  0  0
    4.1131    0.7952    0.0831 H   0  0  0  0  0  0  0  0  0  0  0  0
    2.7917    0.1602   -0.8954 H   0  0  0  0  0  0  0  0  0  0  0  0
    2.6766   -1.8866    0.5650 H   0  0  0  0  0  0  0  0  0  0  0  0
    3.9980   -1.2567    1.5572 H   0  0  0  0  0  0  0  0  0  0  0  0
    5.4959   -1.2948   -0.5214 H   0  0  0  0  0  0  0  0  0  0  0  0
    4.1219   -1.9462   -1.4380 H   0  0  0  0  0  0  0  0  0  0  0  0
    4.2254   -6.3949   -0.8749 H   0  0  0  0  0  0  0  0  0  0  0  0
    4.0478   -5.9223    0.8405 H   0  0  0  0  0  0  0  0  0  0  0  0
    8.0809   -6.1969    1.4890 H   0  0  0  0  0  0  0  0  0  0  0  0
    9.2945   -4.4170    2.7858 H   0  0  0  0  0  0  0  0  0  0  0  0
    8.0686   -0.9020    2.8111 H   0  0  0  0  0  0  0  0  0  0  0  0
   11.7789   -0.8420    5.4993 H   0  0  0  0  0  0  0  0  0  0  0  0
   11.5037    1.8732    5.9853 H   0  0  0  0  0  0  0  0  0  0  0  0
    6.3788   -1.5365    1.4605 H   0  0  0  0  0  0  0  0  0  0  0  0
  1  2  1  0
  1 25  1  0
  1 26  1  0
  1 27  1  0
  2  3  1  0
  2 28  1  0
  2 29  1  0
  3  4  1  0
  3 30  1  0
  3 31  1  0
  4  5  1  0
  4 32  1  0
  4 33  1  0
  5  6  1  0
  5 24  1  0
  6  7  2  0
  6  8  1  0
  8  9  1  0
  8 34  1  0
  8 35  1  0
  9 10  1  0
 10 11  1  0
 10 24  2  0
 11 12  2  0
 11 36  1  0
 12 13  1  0
 12 37  1  0
 13 14  1  0
 13 23  2  0
 14 15  1  0
 14 38  1  0
 15 16  2  0
 15 17  1  0
 17 18  2  0
 17 22  1  0
 18 19  1  0
 18 39  1  0
 19 20  2  0
 19 40  1  0
 20 21  1  0
 20 22  1  0
 23 24  1  0
 23 41  1  0
M  END

