
     RDKit          3D

 94101  0  0  0  0  0  0  0  0999 V2000
    8.1979    3.9093   -5.0402 C   0  0  0  0  0  0  0  0  0  0  0  0
    7.8324    2.9168   -3.9632 C   0  0  0  0  0  0  0  0  0  0  0  0
    7.3465    3.3378   -2.7143 C   0  0  0  0  0  0  0  0  0  0  0  0
    7.0450    2.4299   -1.7005 C   0  0  0  0  0  0  0  0  0  0  0  0
    7.2000    1.0457   -1.9074 C   0  0  0  0  0  0  0  0  0  0  0  0
    6.9049    0.1176   -0.8767 N   0  0  0  0  0  0  0  0  0  0  0  0
    5.7731    0.2897   -0.0357 C   0  0  0  0  0  0  0  0  0  0  0  0
    4.5692    0.8340   -0.5171 C   0  0  0  0  0  0  0  0  0  0  0  0
    3.4729    0.9899    0.3316 C   0  0  0  0  0  0  0  0  0  0  0  0
    3.5196    0.5957    1.6781 C   0  0  0  0  0  0  0  0  0  0  0  0
    2.3154    0.7295    2.5781 C   0  0  0  0  0  0  0  0  0  0  0  0
    4.7231    0.0447    2.1458 C   0  0  0  0  0  0  0  0  0  0  0  0
    5.8324   -0.1018    1.3138 C   0  0  0  0  0  0  0  0  0  0  0  0
    7.6107   -1.1206   -0.8120 C   0  0  0  0  0  0  0  0  0  0  0  0
    6.9039   -2.3145   -0.9971 C   0  0  0  0  0  0  0  0  0  0  0  0
    7.5290   -3.5652   -0.9705 C   0  0  0  0  0  0  0  0  0  0  0  0
    6.7446   -4.7363   -1.1901 N   0  0  0  0  0  0  0  0  0  0  0  0
    6.9826   -5.5416   -2.3329 C   0  0  0  0  0  0  0  0  0  0  0  0
    6.7341   -6.9274   -2.3053 C   0  0  0  0  0  0  0  0  0  0  0  0
    6.9804   -7.7156   -3.4283 C   0  0  0  0  0  0  0  0  0  0  0  0
    7.5007   -7.1710   -4.6141 C   0  0  0  0  0  0  0  0  0  0  0  0
    7.8055   -8.0391   -5.8106 C   0  0  0  0  0  0  0  0  0  0  0  0
    7.7526   -5.7913   -4.6284 C   0  0  0  0  0  0  0  0  0  0  0  0
    7.4952   -4.9859   -3.5179 C   0  0  0  0  0  0  0  0  0  0  0  0
    5.5976   -4.9379   -0.3765 C   0  0  0  0  0  0  0  0  0  0  0  0
    4.3631   -5.3301   -0.9205 C   0  0  0  0  0  0  0  0  0  0  0  0
    3.2527   -5.5188   -0.0949 C   0  0  0  0  0  0  0  0  0  0  0  0
    3.3187   -5.3078    1.2899 C   0  0  0  0  0  0  0  0  0  0  0  0
    2.1132   -5.4916    2.1794 C   0  0  0  0  0  0  0  0  0  0  0  0
    4.5552   -4.9045    1.8220 C   0  0  0  0  0  0  0  0  0  0  0  0
    5.6757   -4.7287    1.0133 C   0  0  0  0  0  0  0  0  0  0  0  0
    8.9279   -3.6489   -0.7415 C   0  0  0  0  0  0  0  0  0  0  0  0
    9.6299   -4.9006   -0.6613 C   0  0  0  0  0  0  0  0  0  0  0  0
   10.9769   -4.9492   -0.4443 C   0  0  0  0  0  0  0  0  0  0  0  0
   11.7515   -3.7513   -0.2759 C   0  0  0  0  0  0  0  0  0  0  0  0
   13.1419   -3.7860   -0.0508 C   0  0  0  0  0  0  0  0  0  0  0  0
   13.8975   -2.6213    0.1368 C   0  0  0  0  0  0  0  0  0  0  0  0
   15.4203   -2.6462    0.3809 C   0  0  1  0  0  0  0  0  0  0  0  0
   15.9873   -4.0773    0.3858 C   0  0  0  0  0  0  0  0  0  0  0  0
   16.1316   -1.8499   -0.7377 C   0  0  0  0  0  0  0  0  0  0  0  0
   15.7323   -1.9997    1.7505 C   0  0  0  0  0  0  0  0  0  0  0  0
   13.2175   -1.3917    0.1023 C   0  0  0  0  0  0  0  0  0  0  0  0
   11.8336   -1.3015   -0.1186 C   0  0  0  0  0  0  0  0  0  0  0  0
   11.1387   -0.0429   -0.1292 C   0  0  0  0  0  0  0  0  0  0  0  0
    9.7931    0.0241   -0.3443 C   0  0  0  0  0  0  0  0  0  0  0  0
    9.0099   -1.1592   -0.5807 C   0  0  0  0  0  0  0  0  0  0  0  0
    9.6649   -2.4336   -0.5611 C   0  0  0  0  0  0  0  0  0  0  0  0
   11.0761   -2.4957   -0.3240 C   0  0  0  0  0  0  0  0  0  0  0  0
    7.6776    0.6142   -3.1571 C   0  0  0  0  0  0  0  0  0  0  0  0
    7.9913    1.5367   -4.1563 C   0  0  0  0  0  0  0  0  0  0  0  0
    7.5852    4.8218   -4.9753 H   0  0  0  0  0  0  0  0  0  0  0  0
    8.0648    3.4821   -6.0463 H   0  0  0  0  0  0  0  0  0  0  0  0
    9.2545    4.2215   -4.9581 H   0  0  0  0  0  0  0  0  0  0  0  0
    7.2109    4.4066   -2.5228 H   0  0  0  0  0  0  0  0  0  0  0  0
    6.6828    2.7934   -0.7370 H   0  0  0  0  0  0  0  0  0  0  0  0
    4.4935    1.1387   -1.5623 H   0  0  0  0  0  0  0  0  0  0  0  0
    2.5505    1.4194   -0.0710 H   0  0  0  0  0  0  0  0  0  0  0  0
    1.6786    1.5769    2.2803 H   0  0  0  0  0  0  0  0  0  0  0  0
    2.6097    0.8786    3.6287 H   0  0  0  0  0  0  0  0  0  0  0  0
    1.6857   -0.1776    2.5433 H   0  0  0  0  0  0  0  0  0  0  0  0
    4.8015   -0.2661    3.1920 H   0  0  0  0  0  0  0  0  0  0  0  0
    6.7604   -0.5193    1.7096 H   0  0  0  0  0  0  0  0  0  0  0  0
    5.8306   -2.2664   -1.1859 H   0  0  0  0  0  0  0  0  0  0  0  0
    6.3425   -7.3867   -1.3958 H   0  0  0  0  0  0  0  0  0  0  0  0
    6.7725   -8.7886   -3.3756 H   0  0  0  0  0  0  0  0  0  0  0  0
    7.1320   -8.9087   -5.8626 H   0  0  0  0  0  0  0  0  0  0  0  0
    8.8379   -8.4304   -5.7717 H   0  0  0  0  0  0  0  0  0  0  0  0
    7.7082   -7.4780   -6.7531 H   0  0  0  0  0  0  0  0  0  0  0  0
    8.1501   -5.3267   -5.5358 H   0  0  0  0  0  0  0  0  0  0  0  0
    7.6919   -3.9138   -3.5689 H   0  0  0  0  0  0  0  0  0  0  0  0
    4.2718   -5.4892   -1.9963 H   0  0  0  0  0  0  0  0  0  0  0  0
    2.3048   -5.8259   -0.5467 H   0  0  0  0  0  0  0  0  0  0  0  0
    1.2647   -5.9215    1.6265 H   0  0  0  0  0  0  0  0  0  0  0  0
    1.7785   -4.5307    2.6073 H   0  0  0  0  0  0  0  0  0  0  0  0
    2.3349   -6.1596    3.0284 H   0  0  0  0  0  0  0  0  0  0  0  0
    4.6481   -4.7356    2.8992 H   0  0  0  0  0  0  0  0  0  0  0  0
    6.6277   -4.4290    1.4561 H   0  0  0  0  0  0  0  0  0  0  0  0
    9.0640   -5.8250   -0.7740 H   0  0  0  0  0  0  0  0  0  0  0  0
   11.4879   -5.9142   -0.3865 H   0  0  0  0  0  0  0  0  0  0  0  0
   13.6202   -4.7654   -0.0230 H   0  0  0  0  0  0  0  0  0  0  0  0
   15.8208   -4.5891   -0.5749 H   0  0  0  0  0  0  0  0  0  0  0  0
   15.5436   -4.6931    1.1836 H   0  0  0  0  0  0  0  0  0  0  0  0
   17.0746   -4.0463    0.5592 H   0  0  0  0  0  0  0  0  0  0  0  0
   15.9294   -2.2915   -1.7264 H   0  0  0  0  0  0  0  0  0  0  0  0
   17.2228   -1.8543   -0.5791 H   0  0  0  0  0  0  0  0  0  0  0  0
   15.8039   -0.7997   -0.7675 H   0  0  0  0  0  0  0  0  0  0  0  0
   15.2392   -2.5494    2.5680 H   0  0  0  0  0  0  0  0  0  0  0  0
   15.3935   -0.9537    1.7990 H   0  0  0  0  0  0  0  0  0  0  0  0
   16.8183   -2.0074    1.9411 H   0  0  0  0  0  0  0  0  0  0  0  0
   13.7673   -0.4596    0.2544 H   0  0  0  0  0  0  0  0  0  0  0  0
   11.7114    0.8714    0.0491 H   0  0  0  0  0  0  0  0  0  0  0  0
    9.2890    0.9901   -0.3354 H   0  0  0  0  0  0  0  0  0  0  0  0
    7.8020   -0.4532   -3.3467 H   0  0  0  0  0  0  0  0  0  0  0  0
    8.3593    1.1672   -5.1182 H   0  0  0  0  0  0  0  0  0  0  0  0
  1  2  1  0
  1 51  1  0
  1 52  1  0
  1 53  1  0
  2  3  2  0
  2 50  1  0
  3  4  1  0
  3 54  1  0
  4  5  2  0
  4 55  1  0
  5  6  1  0
  5 49  1  0
  6  7  1  0
  6 14  1  0
  7  8  2  0
  7 13  1  0
  8  9  1  0
  8 56  1  0
  9 10  2  0
  9 57  1  0
 10 11  1  0
 10 12  1  0
 11 58  1  0
 11 59  1  0
 11 60  1  0
 12 13  2  0
 12 61  1  0
 13 62  1  0
 14 15  2  0
 14 46  1  0
 15 16  1  0
 15 63  1  0
 16 17  1  0
 16 32  2  0
 17 18  1  0
 17 25  1  0
 18 19  2  0
 18 24  1  0
 19 20  1  0
 19 64  1  0
 20 21  2  0
 20 65  1  0
 21 22  1  0
 21 23  1  0
 22 66  1  0
 22 67  1  0
 22 68  1  0
 23 24  2  0
 23 69  1  0
 24 70  1  0
 25 26  2  0
 25 31  1  0
 26 27  1  0
 26 71  1  0
 27 28  2  0
 27 72  1  0
 28 29  1  0
 28 30  1  0
 29 73  1  0
 29 74  1  0
 29 75  1  0
 30 31  2  0
 30 76  1  0
 31 77  1  0
 32 33  1  0
 32 47  1  0
 33 34  2  0
 33 78  1  0
 34 35  1  0
 34 79  1  0
 35 36  2  0
 35 48  1  0
 36 37  1  0
 36 80  1  0
 37 38  1  0
 37 42  2  0
 38 39  1  1
 38 40  1  0
 38 41  1  0
 39 81  1  0
 39 82  1  0
 39 83  1  0
 40 84  1  0
 40 85  1  0
 40 86  1  0
 41 87  1  0
 41 88  1  0
 41 89  1  0
 42 43  1  0
 42 90  1  0
 43 44  2  0
 43 48  1  0
 44 45  1  0
 44 91  1  0
 45 46  2  0
 45 92  1  0
 46 47  1  0
 47 48  2  0
 49 50  2  0
 49 93  1  0
 50 94  1  0
M  END

