
     RDKit          3D

 38 38  0  0  0  0  0  0  0  0999 V2000
    2.8858    1.5772   -1.5729 C   0  0  0  0  0  0  0  0  0  0  0  0
    2.8841    0.3877   -0.6200 C   0  0  1  0  0  0  0  0  0  0  0  0
    1.4912   -0.0933   -0.2441 C   0  0  0  0  0  0  0  0  0  0  0  0
    3.5489   -0.7399   -1.2487 O   0  0  0  0  0  0  0  0  0  0  0  0
    4.8874   -0.8197   -1.1616 C   0  0  0  0  0  0  0  0  0  0  0  0
    5.5792   -0.0086   -0.5907 O   0  0  0  0  0  0  0  0  0  0  0  0
    5.4082   -2.0605   -1.8555 C   0  0  0  0  0  0  0  0  0  0  0  0
    6.9382   -2.0934   -1.9244 C   0  0  0  0  0  0  0  0  0  0  0  0
    7.4569   -3.3191   -2.5049 N   0  0  0  0  0  0  0  0  0  0  0  0
    7.4398   -3.5415   -3.8559 C   0  0  0  0  0  0  0  0  0  0  0  0
    6.9788   -2.7211   -4.6405 O   0  0  0  0  0  0  0  0  0  0  0  0
    8.0248   -4.8448   -4.2853 C   0  0  0  0  0  0  0  0  0  0  0  0
    8.0578   -5.1679   -5.5921 C   0  0  0  0  0  0  0  0  0  0  0  0
    8.5856   -6.3833   -6.2160 C   0  0  0  0  0  0  0  0  0  0  0  0
    8.5137   -6.5130   -7.6180 C   0  0  0  0  0  0  0  0  0  0  0  0
    8.9977   -7.6451   -8.2732 C   0  0  0  0  0  0  0  0  0  0  0  0
    9.5638   -8.6663   -7.5145 C   0  0  0  0  0  0  0  0  0  0  0  0
   10.0324   -9.7592   -8.1299 F   0  0  0  0  0  0  0  0  0  0  0  0
    9.6551   -8.5783   -6.1241 C   0  0  0  0  0  0  0  0  0  0  0  0
    9.1675   -7.4417   -5.4857 C   0  0  0  0  0  0  0  0  0  0  0  0
    2.3660    2.4329   -1.1136 H   0  0  0  0  0  0  0  0  0  0  0  0
    2.3712    1.3232   -2.5135 H   0  0  0  0  0  0  0  0  0  0  0  0
    3.9150    1.8882   -1.8032 H   0  0  0  0  0  0  0  0  0  0  0  0
    3.4596    0.6464    0.2825 H   0  0  0  0  0  0  0  0  0  0  0  0
    0.9250   -0.3910   -1.1410 H   0  0  0  0  0  0  0  0  0  0  0  0
    0.9359    0.7094    0.2654 H   0  0  0  0  0  0  0  0  0  0  0  0
    1.5456   -0.9597    0.4323 H   0  0  0  0  0  0  0  0  0  0  0  0
    4.9813   -2.1073   -2.8692 H   0  0  0  0  0  0  0  0  0  0  0  0
    5.0166   -2.9407   -1.3157 H   0  0  0  0  0  0  0  0  0  0  0  0
    7.3648   -1.9696   -0.9188 H   0  0  0  0  0  0  0  0  0  0  0  0
    7.2867   -1.2439   -2.5307 H   0  0  0  0  0  0  0  0  0  0  0  0
    7.8208   -4.0366   -1.8910 H   0  0  0  0  0  0  0  0  0  0  0  0
    8.4208   -5.5148   -3.5152 H   0  0  0  0  0  0  0  0  0  0  0  0
    7.6337   -4.4190   -6.2706 H   0  0  0  0  0  0  0  0  0  0  0  0
    8.0676   -5.7052   -8.2036 H   0  0  0  0  0  0  0  0  0  0  0  0
    8.9435   -7.7483   -9.3586 H   0  0  0  0  0  0  0  0  0  0  0  0
   10.1066   -9.4005   -5.5655 H   0  0  0  0  0  0  0  0  0  0  0  0
    9.2421   -7.3775   -4.3982 H   0  0  0  0  0  0  0  0  0  0  0  0
  1  2  1  0
  1 21  1  0
  1 22  1  0
  1 23  1  0
  2  3  1  0
  2  4  1  0
  2 24  1  1
  3 25  1  0
  3 26  1  0
  3 27  1  0
  4  5  1  0
  5  6  2  0
  5  7  1  0
  7  8  1  0
  7 28  1  0
  7 29  1  0
  8  9  1  0
  8 30  1  0
  8 31  1  0
  9 10  1  0
  9 32  1  0
 10 11  2  0
 10 12  1  0
 12 13  2  0
 12 33  1  0
 13 14  1  0
 13 34  1  0
 14 15  2  0
 14 20  1  0
 15 16  1  0
 15 35  1  0
 16 17  2  0
 16 36  1  0
 17 18  1  0
 17 19  1  0
 19 20  2  0
 19 37  1  0
 20 38  1  0
M  END

