
     RDKit          3D

 51 54  0  0  0  0  0  0  0  0999 V2000
    2.5342   -2.5536    4.0788 C   0  0  0  0  0  0  0  0  0  0  0  0
    3.3841   -1.7708    3.1106 C   0  0  0  0  0  0  0  0  0  0  0  0
    3.7598   -2.3577    1.8629 C   0  0  0  0  0  0  0  0  0  0  0  0
    4.5366   -1.6637    0.9626 C   0  0  0  0  0  0  0  0  0  0  0  0
    4.9648   -2.2683   -0.3645 C   0  0  0  0  0  0  0  0  0  0  0  0
    4.2239   -3.4434   -0.7744 N   0  0  0  0  0  0  0  0  0  0  0  0
    4.7833   -4.6926   -0.7577 C   0  0  0  0  0  0  0  0  0  0  0  0
    5.9020   -4.9891   -0.4106 O   0  0  0  0  0  0  0  0  0  0  0  0
    3.7865   -5.6029   -1.2417 N   0  0  0  0  0  0  0  0  0  0  0  0
    3.9811   -7.0068   -1.3562 C   0  0  0  0  0  0  0  0  0  0  0  0
    4.8398   -7.6754   -0.4641 C   0  0  0  0  0  0  0  0  0  0  0  0
    5.0250   -9.0510   -0.5774 C   0  0  0  0  0  0  0  0  0  0  0  0
    4.3424   -9.7536   -1.5739 C   0  0  0  0  0  0  0  0  0  0  0  0
    4.5769  -11.5176   -1.7160 S   0  0  1  0  0  0  0  0  0  0  0  0
    4.2114  -11.9522   -3.0643 O   0  0  0  0  0  0  0  0  0  0  0  0
    5.8326  -11.8976   -1.0689 O   0  0  0  0  0  0  0  0  0  0  0  0
    3.2155  -12.1937   -0.5905 C   0  0  1  0  0  0  0  0  0  0  0  0
    2.0229  -11.8018   -1.0329 F   0  0  0  0  0  0  0  0  0  0  0  0
    3.2782  -13.5167   -0.5951 F   0  0  0  0  0  0  0  0  0  0  0  0
    3.3873  -11.7432    0.6507 F   0  0  0  0  0  0  0  0  0  0  0  0
    3.4882   -9.1039   -2.4683 C   0  0  0  0  0  0  0  0  0  0  0  0
    3.3080   -7.7269   -2.3603 C   0  0  0  0  0  0  0  0  0  0  0  0
    2.6221   -4.9155   -1.5939 C   0  0  0  0  0  0  0  0  0  0  0  0
    1.6121   -5.3801   -2.0618 O   0  0  0  0  0  0  0  0  0  0  0  0
    2.8645   -3.4363   -1.2905 C   0  0  2  0  0  0  0  0  0  0  0  0
    2.6336   -2.5603   -2.5237 C   0  0  0  0  0  0  0  0  0  0  0  0
    4.9670   -0.3435    1.3235 C   0  0  0  0  0  0  0  0  0  0  0  0
    5.7956    0.4781    0.5091 C   0  0  0  0  0  0  0  0  0  0  0  0
    6.1700    1.7406    0.9264 C   0  0  0  0  0  0  0  0  0  0  0  0
    5.7340    2.2410    2.1769 C   0  0  0  0  0  0  0  0  0  0  0  0
    4.9346    1.4676    2.9924 C   0  0  0  0  0  0  0  0  0  0  0  0
    4.5351    0.1621    2.5947 C   0  0  0  0  0  0  0  0  0  0  0  0
    3.7561   -0.5567    3.4515 N   0  0  0  0  0  0  0  0  0  0  0  0
    1.5736   -2.8443    3.6213 H   0  0  0  0  0  0  0  0  0  0  0  0
    2.3353   -1.9455    4.9704 H   0  0  0  0  0  0  0  0  0  0  0  0
    3.0402   -3.4843    4.3862 H   0  0  0  0  0  0  0  0  0  0  0  0
    3.4269   -3.3729    1.6359 H   0  0  0  0  0  0  0  0  0  0  0  0
    6.0231   -2.5701   -0.3057 H   0  0  0  0  0  0  0  0  0  0  0  0
    4.8962   -1.5082   -1.1590 H   0  0  0  0  0  0  0  0  0  0  0  0
    5.3766   -7.1156    0.2983 H   0  0  0  0  0  0  0  0  0  0  0  0
    5.6985   -9.5797    0.0991 H   0  0  0  0  0  0  0  0  0  0  0  0
    2.9805   -9.6725   -3.2491 H   0  0  0  0  0  0  0  0  0  0  0  0
    2.6368   -7.2127   -3.0443 H   0  0  0  0  0  0  0  0  0  0  0  0
    2.1464   -3.1424   -0.5023 H   0  0  0  0  0  0  0  0  0  0  0  0
    3.3536   -2.8023   -3.3209 H   0  0  0  0  0  0  0  0  0  0  0  0
    2.7227   -1.4922   -2.2765 H   0  0  0  0  0  0  0  0  0  0  0  0
    1.6172   -2.7412   -2.9022 H   0  0  0  0  0  0  0  0  0  0  0  0
    6.1519    0.1113   -0.4553 H   0  0  0  0  0  0  0  0  0  0  0  0
    6.8086    2.3567    0.2887 H   0  0  0  0  0  0  0  0  0  0  0  0
    6.0364    3.2420    2.4945 H   0  0  0  0  0  0  0  0  0  0  0  0
    4.5854    1.8214    3.9643 H   0  0  0  0  0  0  0  0  0  0  0  0
  1  2  1  0
  1 34  1  0
  1 35  1  0
  1 36  1  0
  2  3  2  0
  2 33  1  0
  3  4  1  0
  3 37  1  0
  4  5  1  0
  4 27  2  0
  5  6  1  0
  5 38  1  0
  5 39  1  0
  6  7  1  0
  6 25  1  0
  7  8  2  0
  7  9  1  0
  9 10  1  0
  9 23  1  0
 10 11  2  0
 10 22  1  0
 11 12  1  0
 11 40  1  0
 12 13  2  0
 12 41  1  0
 14 13  1  6
 13 21  1  0
 14 15  2  0
 14 16  2  0
 14 17  1  0
 17 18  1  6
 17 19  1  0
 17 20  1  0
 21 22  2  0
 21 42  1  0
 22 43  1  0
 23 24  2  0
 23 25  1  0
 25 26  1  0
 25 44  1  1
 26 45  1  0
 26 46  1  0
 26 47  1  0
 27 28  1  0
 27 32  1  0
 28 29  2  0
 28 48  1  0
 29 30  1  0
 29 49  1  0
 30 31  2  0
 30 50  1  0
 31 32  1  0
 31 51  1  0
 32 33  2  0
M  END

