
     RDKit          3D

 41 42  0  0  0  0  0  0  0  0999 V2000
    3.8616    2.2949   -2.2716 C   0  0  0  0  0  0  0  0  0  0  0  0
    4.2684    1.2465   -1.2365 C   0  0  0  0  0  0  0  0  0  0  0  0
    4.9303    1.8577   -0.0024 C   0  0  0  0  0  0  0  0  0  0  0  0
    5.3012    0.8283    0.9523 N   0  0  0  0  0  0  0  0  0  0  0  0
    5.7274    1.0955    2.2249 C   0  0  0  0  0  0  0  0  0  0  0  0
    5.6709    2.3678    2.6323 N   0  0  0  0  0  0  0  0  0  0  0  0
    6.0578    2.6434    3.8843 C   0  0  0  0  0  0  0  0  0  0  0  0
    5.9887    4.0592    4.3309 C   0  0  0  0  0  0  0  0  0  0  0  0
    5.5422    5.0709    3.4652 C   0  0  0  0  0  0  0  0  0  0  0  0
    5.4785    6.3983    3.8856 C   0  0  0  0  0  0  0  0  0  0  0  0
    5.8628    6.7436    5.1901 C   0  0  0  0  0  0  0  0  0  0  0  0
    5.8207    8.0197    5.6515 O   0  0  0  0  0  0  0  0  0  0  0  0
    6.3114    5.7421    6.0656 C   0  0  0  0  0  0  0  0  0  0  0  0
    6.3717    4.4207    5.6367 C   0  0  0  0  0  0  0  0  0  0  0  0
    6.5040    1.7398    4.7613 N   0  0  0  0  0  0  0  0  0  0  0  0
    6.5734    0.4580    4.3644 C   0  0  0  0  0  0  0  0  0  0  0  0
    7.0876   -0.5220    5.3935 C   0  0  0  0  0  0  0  0  0  0  0  0
    6.1980    0.0527    3.0777 C   0  0  0  0  0  0  0  0  0  0  0  0
    6.2374   -1.3870    2.6175 C   0  0  0  0  0  0  0  0  0  0  0  0
    4.8747   -2.1003    2.6746 C   0  0  0  0  0  0  0  0  0  0  0  0
    3.3905    1.8277   -3.1503 H   0  0  0  0  0  0  0  0  0  0  0  0
    4.7332    2.8693   -2.6266 H   0  0  0  0  0  0  0  0  0  0  0  0
    3.1404    3.0143   -1.8499 H   0  0  0  0  0  0  0  0  0  0  0  0
    4.9628    0.5216   -1.7019 H   0  0  0  0  0  0  0  0  0  0  0  0
    3.3843    0.6665   -0.9180 H   0  0  0  0  0  0  0  0  0  0  0  0
    4.2440    2.5617    0.4932 H   0  0  0  0  0  0  0  0  0  0  0  0
    5.8123    2.4578   -0.3029 H   0  0  0  0  0  0  0  0  0  0  0  0
    5.4979   -0.0918    0.5819 H   0  0  0  0  0  0  0  0  0  0  0  0
    5.2454    4.7987    2.4517 H   0  0  0  0  0  0  0  0  0  0  0  0
    5.1284    7.1764    3.1988 H   0  0  0  0  0  0  0  0  0  0  0  0
    5.4958    8.6025    4.9525 H   0  0  0  0  0  0  0  0  0  0  0  0
    6.6076    6.0250    7.0779 H   0  0  0  0  0  0  0  0  0  0  0  0
    6.7193    3.6348    6.3084 H   0  0  0  0  0  0  0  0  0  0  0  0
    7.2460    0.0081    6.3410 H   0  0  0  0  0  0  0  0  0  0  0  0
    8.0461   -0.9694    5.0807 H   0  0  0  0  0  0  0  0  0  0  0  0
    6.3818   -1.3508    5.5637 H   0  0  0  0  0  0  0  0  0  0  0  0
    6.9648   -1.9494    3.2212 H   0  0  0  0  0  0  0  0  0  0  0  0
    6.6327   -1.4375    1.5850 H   0  0  0  0  0  0  0  0  0  0  0  0
    4.4932   -2.1374    3.7071 H   0  0  0  0  0  0  0  0  0  0  0  0
    4.9507   -3.1354    2.3037 H   0  0  0  0  0  0  0  0  0  0  0  0
    4.1218   -1.5745    2.0667 H   0  0  0  0  0  0  0  0  0  0  0  0
  1  2  1  0
  1 21  1  0
  1 22  1  0
  1 23  1  0
  2  3  1  0
  2 24  1  0
  2 25  1  0
  3  4  1  0
  3 26  1  0
  3 27  1  0
  4  5  1  0
  4 28  1  0
  5  6  2  0
  5 18  1  0
  6  7  1  0
  7  8  1  0
  7 15  2  0
  8  9  2  0
  8 14  1  0
  9 10  1  0
  9 29  1  0
 10 11  2  0
 10 30  1  0
 11 12  1  0
 11 13  1  0
 12 31  1  0
 13 14  2  0
 13 32  1  0
 14 33  1  0
 15 16  1  0
 16 17  1  0
 16 18  2  0
 17 34  1  0
 17 35  1  0
 17 36  1  0
 18 19  1  0
 19 20  1  0
 19 37  1  0
 19 38  1  0
 20 39  1  0
 20 40  1  0
 20 41  1  0
M  END

