
     RDKit          3D

 42 44  0  0  0  0  0  0  0  0999 V2000
    0.7062   -1.9890    1.1400 O   0  0  0  0  0  0  0  0  0  0  0  0
    2.1066   -1.9387    0.9804 C   0  0  0  0  0  0  0  0  0  0  0  0
    2.5682   -0.5939    1.5361 C   0  0  0  0  0  0  0  0  0  0  0  0
    4.0045   -0.4214    1.4434 N   0  0  0  0  0  0  0  0  0  0  0  0
    4.5679   -0.2541    0.2307 N   0  0  0  0  0  0  0  0  0  0  0  0
    5.8719   -0.1395    0.4594 C   0  0  0  0  0  0  0  0  0  0  0  0
    6.1720   -0.2380    1.8441 C   0  0  0  0  0  0  0  0  0  0  0  0
    4.9315   -0.4239    2.4456 C   0  0  0  0  0  0  0  0  0  0  0  0
    4.6717   -0.5122    3.9187 C   0  0  0  0  0  0  0  0  0  0  0  0
    6.0031   -0.7277    4.6643 C   0  0  0  0  0  0  0  0  0  0  0  0
    7.1348    0.1462    4.1010 C   0  0  0  0  0  0  0  0  0  0  0  0
    7.4669   -0.1784    2.6271 C   0  0  1  0  0  0  0  0  0  0  0  0
    8.2869   -1.4008    2.5620 N   0  0  0  0  0  0  0  0  0  0  0  0
    8.9321   -1.7249    1.2864 C   0  0  1  0  0  0  0  0  0  0  0  0
   10.1114   -0.7737    0.9916 C   0  0  0  0  0  0  0  0  0  0  0  0
   11.2482   -0.8628    2.0096 C   0  0  0  0  0  0  0  0  0  0  0  0
   12.0124   -2.5290    2.0734 S   0  0  0  0  0  0  0  0  0  0  0  0
   10.4779   -3.4906    2.3580 C   0  0  0  0  0  0  0  0  0  0  0  0
    9.3977   -3.1939    1.3157 C   0  0  0  0  0  0  0  0  0  0  0  0
    0.3727   -2.7815    0.7029 H   0  0  0  0  0  0  0  0  0  0  0  0
    2.4182   -2.0048   -0.0789 H   0  0  0  0  0  0  0  0  0  0  0  0
    2.6206   -2.7551    1.5293 H   0  0  0  0  0  0  0  0  0  0  0  0
    2.2671   -0.5087    2.5897 H   0  0  0  0  0  0  0  0  0  0  0  0
    2.0723    0.2150    0.9783 H   0  0  0  0  0  0  0  0  0  0  0  0
    6.5516    0.0280   -0.3766 H   0  0  0  0  0  0  0  0  0  0  0  0
    3.9623   -1.3216    4.1612 H   0  0  0  0  0  0  0  0  0  0  0  0
    4.1971    0.4245    4.2679 H   0  0  0  0  0  0  0  0  0  0  0  0
    6.2913   -1.7919    4.5985 H   0  0  0  0  0  0  0  0  0  0  0  0
    5.8624   -0.5199    5.7368 H   0  0  0  0  0  0  0  0  0  0  0  0
    8.0486    0.0167    4.7002 H   0  0  0  0  0  0  0  0  0  0  0  0
    6.8389    1.2075    4.1755 H   0  0  0  0  0  0  0  0  0  0  0  0
    8.0897    0.6411    2.2351 H   0  0  0  0  0  0  0  0  0  0  0  0
    7.7086   -2.1923    2.8418 H   0  0  0  0  0  0  0  0  0  0  0  0
    8.2208   -1.6364    0.4382 H   0  0  0  0  0  0  0  0  0  0  0  0
    9.7481    0.2681    0.9511 H   0  0  0  0  0  0  0  0  0  0  0  0
   10.4999   -1.0048   -0.0143 H   0  0  0  0  0  0  0  0  0  0  0  0
   10.8876   -0.5950    3.0146 H   0  0  0  0  0  0  0  0  0  0  0  0
   12.0669   -0.1753    1.7474 H   0  0  0  0  0  0  0  0  0  0  0  0
   10.1086   -3.2847    3.3746 H   0  0  0  0  0  0  0  0  0  0  0  0
   10.7809   -4.5481    2.3171 H   0  0  0  0  0  0  0  0  0  0  0  0
    8.5204   -3.8403    1.5081 H   0  0  0  0  0  0  0  0  0  0  0  0
    9.7741   -3.4645    0.3156 H   0  0  0  0  0  0  0  0  0  0  0  0
  1  2  1  0
  1 20  1  0
  2  3  1  0
  2 21  1  0
  2 22  1  0
  3  4  1  0
  3 23  1  0
  3 24  1  0
  4  5  1  0
  4  8  1  0
  5  6  2  0
  6  7  1  0
  6 25  1  0
  7  8  2  0
  7 12  1  0
  8  9  1  0
  9 10  1  0
  9 26  1  0
  9 27  1  0
 10 11  1  0
 10 28  1  0
 10 29  1  0
 11 12  1  0
 11 30  1  0
 11 31  1  0
 12 13  1  0
 12 32  1  6
 13 14  1  0
 13 33  1  0
 14 15  1  0
 14 19  1  0
 14 34  1  6
 15 16  1  0
 15 35  1  0
 15 36  1  0
 16 17  1  0
 16 37  1  0
 16 38  1  0
 17 18  1  0
 18 19  1  0
 18 39  1  0
 18 40  1  0
 19 41  1  0
 19 42  1  0
M  END

