
     RDKit          3D

 52 54  0  0  0  0  0  0  0  0999 V2000
    2.0596   -0.9796   -0.7119 O   0  0  0  0  0  0  0  0  0  0  0  0
    2.5814   -0.0309   -0.1375 C   0  0  0  0  0  0  0  0  0  0  0  0
    2.6838    1.2061   -0.7447 N   0  0  0  0  0  0  0  0  0  0  0  0
    2.0429    1.4154   -2.0282 C   0  0  0  0  0  0  0  0  0  0  0  0
    2.3640    2.8308   -2.5217 C   0  0  1  0  0  0  0  0  0  0  0  0
    1.6848    3.1927   -3.8513 C   0  0  0  0  0  0  0  0  0  0  0  0
    0.1954    3.5235   -3.6800 C   0  0  0  0  0  0  0  0  0  0  0  0
    0.0178    4.5649   -2.5695 C   0  0  0  0  0  0  0  0  0  0  0  0
    0.7122    4.0972   -1.2927 C   0  0  0  0  0  0  0  0  0  0  0  0
    2.0874    3.8065   -1.5097 O   0  0  0  0  0  0  0  0  0  0  0  0
    3.1172   -0.1370    1.1372 N   0  0  0  0  0  0  0  0  0  0  0  0
    2.9257   -1.3786    1.8759 C   0  0  0  0  0  0  0  0  0  0  0  0
    4.2664   -2.0180    2.2462 C   0  0  0  0  0  0  0  0  0  0  0  0
    5.1661   -1.0197    2.9819 C   0  0  0  0  0  0  0  0  0  0  0  0
    5.3285    0.2844    2.1708 C   0  0  2  0  0  0  0  0  0  0  0  0
    6.1166    1.3179    2.9778 C   0  0  0  0  0  0  0  0  0  0  0  0
    5.5575    2.0464    3.7901 O   0  0  0  0  0  0  0  0  0  0  0  0
    7.4657    1.3820    2.7809 N   0  0  0  0  0  0  0  0  0  0  0  0
    8.2696    2.3596    3.5265 C   0  0  0  0  0  0  0  0  0  0  0  0
    9.6148    2.3522    2.7924 C   0  0  0  0  0  0  0  0  0  0  0  0
    9.7182    0.9122    2.2702 C   0  0  0  0  0  0  0  0  0  0  0  0
    8.2770    0.5855    1.8524 C   0  0  0  0  0  0  0  0  0  0  0  0
    3.9438    0.8593    1.8006 C   0  0  0  0  0  0  0  0  0  0  0  0
    2.7335    2.0421   -0.1720 H   0  0  0  0  0  0  0  0  0  0  0  0
    0.9526    1.2387   -1.9698 H   0  0  0  0  0  0  0  0  0  0  0  0
    2.4247    0.6806   -2.7539 H   0  0  0  0  0  0  0  0  0  0  0  0
    3.4574    2.8893   -2.6484 H   0  0  0  0  0  0  0  0  0  0  0  0
    1.8299    2.3723   -4.5736 H   0  0  0  0  0  0  0  0  0  0  0  0
    2.2004    4.0761   -4.2649 H   0  0  0  0  0  0  0  0  0  0  0  0
   -0.3724    2.6115   -3.4242 H   0  0  0  0  0  0  0  0  0  0  0  0
   -0.2227    3.8903   -4.6317 H   0  0  0  0  0  0  0  0  0  0  0  0
   -1.0495    4.7522   -2.3632 H   0  0  0  0  0  0  0  0  0  0  0  0
    0.4616    5.5257   -2.8851 H   0  0  0  0  0  0  0  0  0  0  0  0
    0.1839    3.2134   -0.8804 H   0  0  0  0  0  0  0  0  0  0  0  0
    0.6924    4.8787   -0.5175 H   0  0  0  0  0  0  0  0  0  0  0  0
    2.3233   -2.0455    1.2479 H   0  0  0  0  0  0  0  0  0  0  0  0
    2.3551   -1.1638    2.8017 H   0  0  0  0  0  0  0  0  0  0  0  0
    4.7647   -2.3640    1.3237 H   0  0  0  0  0  0  0  0  0  0  0  0
    4.0915   -2.9087    2.8727 H   0  0  0  0  0  0  0  0  0  0  0  0
    6.1532   -1.4647    3.1930 H   0  0  0  0  0  0  0  0  0  0  0  0
    4.7226   -0.7625    3.9602 H   0  0  0  0  0  0  0  0  0  0  0  0
    5.8507    0.0457    1.2301 H   0  0  0  0  0  0  0  0  0  0  0  0
    8.3742    2.0462    4.5814 H   0  0  0  0  0  0  0  0  0  0  0  0
    7.7672    3.3379    3.5354 H   0  0  0  0  0  0  0  0  0  0  0  0
   10.4541    2.6413    3.4420 H   0  0  0  0  0  0  0  0  0  0  0  0
    9.5893    3.0604    1.9469 H   0  0  0  0  0  0  0  0  0  0  0  0
   10.0340    0.2375    3.0836 H   0  0  0  0  0  0  0  0  0  0  0  0
   10.4325    0.7916    1.4422 H   0  0  0  0  0  0  0  0  0  0  0  0
    8.0555   -0.4899    1.9327 H   0  0  0  0  0  0  0  0  0  0  0  0
    8.0930    0.8845    0.8032 H   0  0  0  0  0  0  0  0  0  0  0  0
    4.0881    1.7290    1.1488 H   0  0  0  0  0  0  0  0  0  0  0  0
    3.4614    1.2214    2.7255 H   0  0  0  0  0  0  0  0  0  0  0  0
  1  2  2  0
  2  3  1  0
  2 11  1  0
  3  4  1  0
  3 24  1  0
  4  5  1  0
  4 25  1  0
  4 26  1  0
  5  6  1  0
  5 10  1  0
  5 27  1  6
  6  7  1  0
  6 28  1  0
  6 29  1  0
  7  8  1  0
  7 30  1  0
  7 31  1  0
  8  9  1  0
  8 32  1  0
  8 33  1  0
  9 10  1  0
  9 34  1  0
  9 35  1  0
 11 12  1  0
 11 23  1  0
 12 13  1  0
 12 36  1  0
 12 37  1  0
 13 14  1  0
 13 38  1  0
 13 39  1  0
 14 15  1  0
 14 40  1  0
 14 41  1  0
 15 16  1  0
 15 23  1  0
 15 42  1  6
 16 17  2  0
 16 18  1  0
 18 19  1  0
 18 22  1  0
 19 20  1  0
 19 43  1  0
 19 44  1  0
 20 21  1  0
 20 45  1  0
 20 46  1  0
 21 22  1  0
 21 47  1  0
 21 48  1  0
 22 49  1  0
 22 50  1  0
 23 51  1  0
 23 52  1  0
M  END

