
     RDKit          3D

 26 26  0  0  0  0  0  0  0  0999 V2000
    1.6371    0.1032    1.2649 C   0  0  0  0  0  0  0  0  0  0  0  0
    2.5676   -0.2718    0.1005 C   0  0  0  0  0  0  0  0  0  0  0  0
    3.1693    0.9297   -0.5712 C   0  0  0  0  0  0  0  0  0  0  0  0
    4.4759    1.2717   -0.7161 C   0  0  0  0  0  0  0  0  0  0  0  0
    5.5448    0.4317   -0.1645 C   0  0  0  0  0  0  0  0  0  0  0  0
    6.7866    0.6804   -0.3674 N   0  0  0  0  0  0  0  0  0  0  0  0
    7.5969   -0.2553    0.2484 O   0  0  0  0  0  0  0  0  0  0  0  0
    4.8337    2.5171   -1.4639 C   0  0  0  0  0  0  0  0  0  0  0  0
    5.7316    3.4631   -0.9353 C   0  0  0  0  0  0  0  0  0  0  0  0
    6.0112    4.6450   -1.6230 C   0  0  0  0  0  0  0  0  0  0  0  0
    5.4101    4.9044   -2.8593 C   0  0  0  0  0  0  0  0  0  0  0  0
    4.5253    3.9696   -3.4018 C   0  0  0  0  0  0  0  0  0  0  0  0
    4.2419    2.7885   -2.7103 C   0  0  0  0  0  0  0  0  0  0  0  0
    1.1630   -0.7928    1.6962 H   0  0  0  0  0  0  0  0  0  0  0  0
    0.8332    0.7806    0.9328 H   0  0  0  0  0  0  0  0  0  0  0  0
    2.1915    0.6155    2.0673 H   0  0  0  0  0  0  0  0  0  0  0  0
    1.9787   -0.8267   -0.6546 H   0  0  0  0  0  0  0  0  0  0  0  0
    3.3379   -0.9737    0.4526 H   0  0  0  0  0  0  0  0  0  0  0  0
    2.4335    1.6307   -0.9836 H   0  0  0  0  0  0  0  0  0  0  0  0
    5.2754   -0.4475    0.4365 H   0  0  0  0  0  0  0  0  0  0  0  0
    8.4878    0.0345    0.0115 H   0  0  0  0  0  0  0  0  0  0  0  0
    6.2099    3.2713    0.0260 H   0  0  0  0  0  0  0  0  0  0  0  0
    6.7046    5.3706   -1.1894 H   0  0  0  0  0  0  0  0  0  0  0  0
    5.6352    5.8284   -3.3983 H   0  0  0  0  0  0  0  0  0  0  0  0
    4.0572    4.1546   -4.3723 H   0  0  0  0  0  0  0  0  0  0  0  0
    3.5634    2.0534   -3.1501 H   0  0  0  0  0  0  0  0  0  0  0  0
  1  2  1  0
  1 14  1  0
  1 15  1  0
  1 16  1  0
  2  3  1  0
  2 17  1  0
  2 18  1  0
  3  4  2  0
  3 19  1  0
  4  5  1  0
  4  8  1  0
  5  6  2  0
  5 20  1  0
  6  7  1  0
  7 21  1  0
  8  9  2  0
  8 13  1  0
  9 10  1  0
  9 22  1  0
 10 11  2  0
 10 23  1  0
 11 12  1  0
 11 24  1  0
 12 13  2  0
 12 25  1  0
 13 26  1  0
M  END

