
     RDKit          3D

 49 52  0  0  0  0  0  0  0  0999 V2000
    1.6337   -0.1095   -0.7631 C   0  0  0  0  0  0  0  0  0  0  0  0
    1.9486   -0.0062    0.6104 O   0  0  0  0  0  0  0  0  0  0  0  0
    2.5949   -1.0168    1.2277 C   0  0  0  0  0  0  0  0  0  0  0  0
    2.8688   -0.8338    2.5979 C   0  0  0  0  0  0  0  0  0  0  0  0
    3.5284   -1.8180    3.3162 C   0  0  0  0  0  0  0  0  0  0  0  0
    3.9493   -3.0115    2.6962 C   0  0  0  0  0  0  0  0  0  0  0  0
    4.6502   -4.0152    3.5563 C   0  0  0  0  0  0  0  0  0  0  0  0
    4.6388   -3.9708    4.7721 O   0  0  0  0  0  0  0  0  0  0  0  0
    5.3380   -5.0139    2.8797 N   0  0  0  0  0  0  0  0  0  0  0  0
    6.0169   -6.0060    3.5505 N   0  0  0  0  0  0  0  0  0  0  0  0
    5.3199   -7.1673    3.9413 C   0  0  0  0  0  0  0  0  0  0  0  0
    5.9935   -8.1891    4.5386 C   0  0  0  0  0  0  0  0  0  0  0  0
    7.4919   -8.1651    4.7066 C   0  0  0  0  0  0  0  0  0  0  0  0
    8.0347   -6.7622    4.5991 C   0  0  0  0  0  0  0  0  0  0  0  0
    7.3293   -5.7606    4.0042 C   0  0  0  0  0  0  0  0  0  0  0  0
    7.8672   -4.3605    3.8416 C   0  0  0  0  0  0  0  0  0  0  0  0
    9.3922   -4.3111    3.9526 C   0  0  0  0  0  0  0  0  0  0  0  0
    9.8790   -5.0750    5.1808 C   0  0  0  0  0  0  0  0  0  0  0  0
    9.3624   -6.5077    5.1972 C   0  0  0  0  0  0  0  0  0  0  0  0
   10.0035   -7.4082    5.7139 O   0  0  0  0  0  0  0  0  0  0  0  0
    5.2743   -9.3620    5.0788 C   0  0  0  0  0  0  0  0  0  0  0  0
    5.8777  -10.2876    5.5967 O   0  0  0  0  0  0  0  0  0  0  0  0
    3.7532   -9.3513    5.0021 C   0  0  0  0  0  0  0  0  0  0  0  0
    3.2534   -8.6022    3.7699 C   0  0  0  0  0  0  0  0  0  0  0  0
    3.8290   -7.1860    3.7131 C   0  0  0  0  0  0  0  0  0  0  0  0
    3.6610   -3.1901    1.3352 C   0  0  0  0  0  0  0  0  0  0  0  0
    2.9919   -2.2091    0.5989 C   0  0  0  0  0  0  0  0  0  0  0  0
    1.1216    0.8225   -1.0355 H   0  0  0  0  0  0  0  0  0  0  0  0
    0.9598   -0.9609   -0.9649 H   0  0  0  0  0  0  0  0  0  0  0  0
    2.5413   -0.2148   -1.3835 H   0  0  0  0  0  0  0  0  0  0  0  0
    2.5452    0.0960    3.0697 H   0  0  0  0  0  0  0  0  0  0  0  0
    3.7351   -1.6894    4.3802 H   0  0  0  0  0  0  0  0  0  0  0  0
    5.4571   -4.9795    1.8731 H   0  0  0  0  0  0  0  0  0  0  0  0
    7.9786   -8.8300    3.9657 H   0  0  0  0  0  0  0  0  0  0  0  0
    7.7698   -8.6036    5.6765 H   0  0  0  0  0  0  0  0  0  0  0  0
    7.3983   -3.7213    4.6124 H   0  0  0  0  0  0  0  0  0  0  0  0
    7.5478   -3.9432    2.8750 H   0  0  0  0  0  0  0  0  0  0  0  0
    9.7262   -3.2620    3.9846 H   0  0  0  0  0  0  0  0  0  0  0  0
    9.8364   -4.7582    3.0461 H   0  0  0  0  0  0  0  0  0  0  0  0
    9.5138   -4.5839    6.1027 H   0  0  0  0  0  0  0  0  0  0  0  0
   10.9760   -5.1096    5.2519 H   0  0  0  0  0  0  0  0  0  0  0  0
    3.3812   -8.8611    5.9217 H   0  0  0  0  0  0  0  0  0  0  0  0
    3.4051  -10.3942    5.0346 H   0  0  0  0  0  0  0  0  0  0  0  0
    2.1530   -8.5544    3.7585 H   0  0  0  0  0  0  0  0  0  0  0  0
    3.5565   -9.1527    2.8621 H   0  0  0  0  0  0  0  0  0  0  0  0
    3.3544   -6.5409    4.4760 H   0  0  0  0  0  0  0  0  0  0  0  0
    3.5943   -6.7214    2.7440 H   0  0  0  0  0  0  0  0  0  0  0  0
    3.9275   -4.1163    0.8195 H   0  0  0  0  0  0  0  0  0  0  0  0
    2.7778   -2.3876   -0.4546 H   0  0  0  0  0  0  0  0  0  0  0  0
  1  2  1  0
  1 28  1  0
  1 29  1  0
  1 30  1  0
  2  3  1  0
  3  4  2  0
  3 27  1  0
  4  5  1  0
  4 31  1  0
  5  6  2  0
  5 32  1  0
  6  7  1  0
  6 26  1  0
  7  8  2  0
  7  9  1  0
  9 10  1  0
  9 33  1  0
 10 11  1  0
 10 15  1  0
 11 12  2  0
 11 25  1  0
 12 13  1  0
 12 21  1  0
 13 14  1  0
 13 34  1  0
 13 35  1  0
 14 15  2  0
 14 19  1  0
 15 16  1  0
 16 17  1  0
 16 36  1  0
 16 37  1  0
 17 18  1  0
 17 38  1  0
 17 39  1  0
 18 19  1  0
 18 40  1  0
 18 41  1  0
 19 20  2  0
 21 22  2  0
 21 23  1  0
 23 24  1  0
 23 42  1  0
 23 43  1  0
 24 25  1  0
 24 44  1  0
 24 45  1  0
 25 46  1  0
 25 47  1  0
 26 27  2  0
 26 48  1  0
 27 49  1  0
M  END

