
     RDKit          3D

 34 35  0  0  0  0  0  0  0  0999 V2000
    3.3566    1.5224   -1.6784 C   0  0  0  0  0  0  0  0  0  0  0  0
    2.8388    0.2799   -1.2624 O   0  0  0  0  0  0  0  0  0  0  0  0
    3.5282   -0.8556   -1.5569 C   0  0  0  0  0  0  0  0  0  0  0  0
    4.7565   -0.8757   -2.2212 C   0  0  0  0  0  0  0  0  0  0  0  0
    5.3516   -2.1201   -2.4910 C   0  0  0  0  0  0  0  0  0  0  0  0
    6.5464   -2.4140   -3.1362 N   0  0  0  0  0  0  0  0  0  0  0  0
    6.6307   -3.7281   -3.1351 C   0  0  0  0  0  0  0  0  0  0  0  0
    7.9201   -4.7271   -3.8000 S   0  0  0  0  0  0  0  0  0  0  0  0
    9.0443   -3.4129   -4.4025 C   0  0  0  0  0  0  0  0  0  0  0  0
    8.5852   -2.7041   -5.6961 C   0  0  0  0  0  0  0  0  0  0  0  0
    8.9632   -1.2281   -5.6977 C   0  0  0  0  0  0  0  0  0  0  0  0
    8.3166   -0.5202   -4.7555 N   0  0  0  0  0  0  0  0  0  0  0  0
   10.0714   -0.5846   -6.7514 S   0  0  0  0  0  0  0  0  0  0  0  0
    5.5538   -4.3269   -2.5268 N   0  0  0  0  0  0  0  0  0  0  0  0
    5.4190   -5.3228   -2.4071 H   0  0  0  0  0  0  0  0  0  0  0  0
    4.7105   -3.3124   -2.0958 C   0  0  0  0  0  0  0  0  0  0  0  0
    3.4879   -3.3079   -1.4191 C   0  0  0  0  0  0  0  0  0  0  0  0
    2.8974   -2.0745   -1.1486 C   0  0  0  0  0  0  0  0  0  0  0  0
    1.6717   -2.0603   -0.5483 O   0  0  0  0  0  0  0  0  0  0  0  0
    1.5936   -1.5272    0.7660 C   0  0  0  0  0  0  0  0  0  0  0  0
    2.6348    2.2861   -1.3591 H   0  0  0  0  0  0  0  0  0  0  0  0
    3.4681    1.5716   -2.7767 H   0  0  0  0  0  0  0  0  0  0  0  0
    4.3356    1.7385   -1.2128 H   0  0  0  0  0  0  0  0  0  0  0  0
    5.2488    0.0415   -2.5410 H   0  0  0  0  0  0  0  0  0  0  0  0
   10.0073   -3.9239   -4.5450 H   0  0  0  0  0  0  0  0  0  0  0  0
    9.1670   -2.7045   -3.5729 H   0  0  0  0  0  0  0  0  0  0  0  0
    7.4888   -2.7712   -5.7814 H   0  0  0  0  0  0  0  0  0  0  0  0
    9.0226   -3.1855   -6.5783 H   0  0  0  0  0  0  0  0  0  0  0  0
    7.6565   -0.9840   -4.1182 H   0  0  0  0  0  0  0  0  0  0  0  0
    8.5298    0.4662   -4.6608 H   0  0  0  0  0  0  0  0  0  0  0  0
    2.9715   -4.2162   -1.1049 H   0  0  0  0  0  0  0  0  0  0  0  0
    0.5518   -1.6512    1.0938 H   0  0  0  0  0  0  0  0  0  0  0  0
    1.8557   -0.4581    0.7908 H   0  0  0  0  0  0  0  0  0  0  0  0
    2.2541   -2.0799    1.4595 H   0  0  0  0  0  0  0  0  0  0  0  0
  1  2  1  0
  1 21  1  0
  1 22  1  0
  1 23  1  0
  2  3  1  0
  3  4  2  0
  3 18  1  0
  4  5  1  0
  4 24  1  0
  5  6  1  0
  5 16  2  0
  6  7  2  0
  7  8  1  0
  7 14  1  0
  8  9  1  0
  9 10  1  0
  9 25  1  0
  9 26  1  0
 10 11  1  0
 10 27  1  0
 10 28  1  0
 11 12  1  0
 11 13  2  0
 12 29  1  0
 12 30  1  0
 14 15  1  0
 14 16  1  0
 16 17  1  0
 17 18  2  0
 17 31  1  0
 18 19  1  0
 19 20  1  0
 20 32  1  0
 20 33  1  0
 20 34  1  0
M  END

