
     RDKit          3D

 56 58  0  0  0  0  0  0  0  0999 V2000
    2.9283   -1.9039    1.0382 C   0  0  0  0  0  0  0  0  0  0  0  0
    2.2274   -1.1529   -0.0945 C   0  0  0  0  0  0  0  0  0  0  0  0
    2.5902   -1.6515   -1.5059 C   0  0  0  0  0  0  0  0  0  0  0  0
    4.0108   -1.3666   -1.9039 C   0  0  0  0  0  0  0  0  0  0  0  0
    4.8622   -2.2287   -2.5033 C   0  0  0  0  0  0  0  0  0  0  0  0
    4.4837   -3.4926   -3.0001 N   0  0  0  0  0  0  0  0  0  0  0  0
    3.4954   -3.7896   -3.9325 C   0  0  0  0  0  0  0  0  0  0  0  0
    2.7618   -2.7971   -4.6146 C   0  0  0  0  0  0  0  0  0  0  0  0
    1.8016   -3.1553   -5.5574 C   0  0  0  0  0  0  0  0  0  0  0  0
    1.5414   -4.5000   -5.8474 C   0  0  0  0  0  0  0  0  0  0  0  0
    0.5406   -4.8748   -6.9038 C   0  0  1  0  0  0  0  0  0  0  0  0
   -0.4412   -3.9602   -7.0145 F   0  0  0  0  0  0  0  0  0  0  0  0
    1.1069   -4.9808   -8.1254 F   0  0  0  0  0  0  0  0  0  0  0  0
   -0.0399   -6.0629   -6.6473 F   0  0  0  0  0  0  0  0  0  0  0  0
    2.2672   -5.4909   -5.1732 C   0  0  0  0  0  0  0  0  0  0  0  0
    3.2264   -5.1436   -4.2290 C   0  0  0  0  0  0  0  0  0  0  0  0
    6.2353   -1.9960   -2.7071 N   0  0  0  0  0  0  0  0  0  0  0  0
    7.1329   -1.2261   -1.9689 C   0  0  0  0  0  0  0  0  0  0  0  0
    6.9331   -0.8798   -0.6169 C   0  0  0  0  0  0  0  0  0  0  0  0
    7.9136   -0.1636    0.0703 C   0  0  0  0  0  0  0  0  0  0  0  0
    9.1054    0.2309   -0.5432 C   0  0  0  0  0  0  0  0  0  0  0  0
    9.2952   -0.1080   -1.8878 C   0  0  0  0  0  0  0  0  0  0  0  0
   10.4684    0.1795   -2.5535 O   0  0  0  0  0  0  0  0  0  0  0  0
   11.0021    1.4392   -2.5715 C   0  0  0  0  0  0  0  0  0  0  0  0
   12.3799    1.5339   -2.8089 C   0  0  0  0  0  0  0  0  0  0  0  0
   12.9873    2.7884   -2.8788 C   0  0  0  0  0  0  0  0  0  0  0  0
   12.2355    3.9528   -2.7117 C   0  0  0  0  0  0  0  0  0  0  0  0
   10.8534    3.8606   -2.4978 C   0  0  0  0  0  0  0  0  0  0  0  0
   10.0827    5.1426   -2.3268 C   0  0  0  0  0  0  0  0  0  0  0  0
   10.5988    6.1865   -2.0283 O   0  0  0  0  0  0  0  0  0  0  0  0
    8.7467    5.0747   -2.5330 O   0  0  0  0  0  0  0  0  0  0  0  0
   10.2358    2.6015   -2.4210 C   0  0  0  0  0  0  0  0  0  0  0  0
    8.3267   -0.8171   -2.5972 C   0  0  0  0  0  0  0  0  0  0  0  0
    2.6293   -1.5135    2.0240 H   0  0  0  0  0  0  0  0  0  0  0  0
    4.0248   -1.8186    0.9664 H   0  0  0  0  0  0  0  0  0  0  0  0
    2.6816   -2.9787    1.0166 H   0  0  0  0  0  0  0  0  0  0  0  0
    2.4542   -0.0734   -0.0221 H   0  0  0  0  0  0  0  0  0  0  0  0
    1.1346   -1.2384    0.0337 H   0  0  0  0  0  0  0  0  0  0  0  0
    1.9005   -1.1710   -2.2269 H   0  0  0  0  0  0  0  0  0  0  0  0
    2.3877   -2.7326   -1.5795 H   0  0  0  0  0  0  0  0  0  0  0  0
    4.3941   -0.3661   -1.6820 H   0  0  0  0  0  0  0  0  0  0  0  0
    5.1065   -4.2568   -2.7590 H   0  0  0  0  0  0  0  0  0  0  0  0
    2.9537   -1.7444   -4.4085 H   0  0  0  0  0  0  0  0  0  0  0  0
    1.2422   -2.3730   -6.0745 H   0  0  0  0  0  0  0  0  0  0  0  0
    2.0711   -6.5447   -5.3810 H   0  0  0  0  0  0  0  0  0  0  0  0
    3.7770   -5.9281   -3.7023 H   0  0  0  0  0  0  0  0  0  0  0  0
    6.5783   -2.3054   -3.6104 H   0  0  0  0  0  0  0  0  0  0  0  0
    6.0244   -1.1870   -0.1027 H   0  0  0  0  0  0  0  0  0  0  0  0
    7.7482    0.0825    1.1224 H   0  0  0  0  0  0  0  0  0  0  0  0
    9.8732    0.7773    0.0063 H   0  0  0  0  0  0  0  0  0  0  0  0
   12.9528    0.6126   -2.9306 H   0  0  0  0  0  0  0  0  0  0  0  0
   14.0631    2.8549   -3.0584 H   0  0  0  0  0  0  0  0  0  0  0  0
   12.6955    4.9413   -2.7453 H   0  0  0  0  0  0  0  0  0  0  0  0
    8.5054    4.2153   -2.9057 H   0  0  0  0  0  0  0  0  0  0  0  0
    9.1694    2.5046   -2.2067 H   0  0  0  0  0  0  0  0  0  0  0  0
    8.5201   -1.0572   -3.6452 H   0  0  0  0  0  0  0  0  0  0  0  0
  1  2  1  0
  1 34  1  0
  1 35  1  0
  1 36  1  0
  2  3  1  0
  2 37  1  0
  2 38  1  0
  3  4  1  0
  3 39  1  0
  3 40  1  0
  4  5  2  0
  4 41  1  0
  5  6  1  0
  5 17  1  0
  6  7  1  0
  6 42  1  0
  7  8  2  0
  7 16  1  0
  8  9  1  0
  8 43  1  0
  9 10  2  0
  9 44  1  0
 10 11  1  0
 10 15  1  0
 11 12  1  6
 11 13  1  0
 11 14  1  0
 15 16  2  0
 15 45  1  0
 16 46  1  0
 17 18  1  0
 17 47  1  0
 18 19  2  0
 18 33  1  0
 19 20  1  0
 19 48  1  0
 20 21  2  0
 20 49  1  0
 21 22  1  0
 21 50  1  0
 22 23  1  0
 22 33  2  0
 23 24  1  0
 24 25  2  0
 24 32  1  0
 25 26  1  0
 25 51  1  0
 26 27  2  0
 26 52  1  0
 27 28  1  0
 27 53  1  0
 28 29  1  0
 28 32  2  0
 29 30  2  0
 29 31  1  0
 31 54  1  0
 32 55  1  0
 33 56  1  0
M  END

