
     RDKit          3D

 65 71  0  0  0  0  0  0  0  0999 V2000
    2.8997    1.4254    3.6273 C   0  0  0  0  0  0  0  0  0  0  0  0
    2.9197    2.5601    2.5961 C   0  0  0  0  0  0  0  0  0  0  0  0
    3.6334    2.2516    1.3621 N   0  0  0  0  0  0  0  0  0  0  0  0
    2.9352    1.5471    0.2847 C   0  0  0  0  0  0  0  0  0  0  0  0
    1.4250    1.7572    0.2275 C   0  0  0  0  0  0  0  0  0  0  0  0
    5.0223    2.2874    1.3371 C   0  0  0  0  0  0  0  0  0  0  0  0
    5.7803    2.8761    2.3827 C   0  0  0  0  0  0  0  0  0  0  0  0
    7.1677    2.9637    2.3133 C   0  0  0  0  0  0  0  0  0  0  0  0
    7.8920    2.4582    1.2220 C   0  0  0  0  0  0  0  0  0  0  0  0
    9.3783    2.4732    1.1662 C   0  0  0  0  0  0  0  0  0  0  0  0
    9.9579    1.2665    1.0305 N   0  0  0  0  0  0  0  0  0  0  0  0
   11.2783    1.1346    1.0129 C   0  0  0  0  0  0  0  0  0  0  0  0
   12.1768    2.2247    1.1713 C   0  0  0  0  0  0  0  0  0  0  0  0
   11.5840    3.4980    1.2290 C   0  0  0  0  0  0  0  0  0  0  0  0
   10.1790    3.6355    1.2016 C   0  0  0  0  0  0  0  0  0  0  0  0
    9.8127    5.0820    1.0015 C   0  0  2  0  0  0  0  0  0  0  0  0
    8.6127    5.7649    1.5003 C   0  0  0  0  0  0  0  0  0  0  0  0
    8.1349    6.9041    0.9458 C   0  0  0  0  0  0  0  0  0  0  0  0
    8.6448    7.4090   -0.3248 C   0  0  0  0  0  0  0  0  0  0  0  0
    7.9847    8.5295   -0.9353 C   0  0  0  0  0  0  0  0  0  0  0  0
    7.4477    9.4434   -1.4106 N   0  0  0  0  0  0  0  0  0  0  0  0
    9.6373    6.7500   -0.9948 C   0  0  0  0  0  0  0  0  0  0  0  0
   10.3830    5.6528   -0.3892 C   0  0  1  0  0  0  0  0  0  0  0  0
   11.1247    5.8318    0.9054 C   0  0  2  0  0  0  0  0  0  0  0  0
   12.2530    4.8602    1.2120 C   0  0  0  0  0  0  0  0  0  0  0  0
   13.6324    1.9442    1.2170 C   0  0  0  0  0  0  0  0  0  0  0  0
   14.5594    2.7990    1.8446 C   0  0  0  0  0  0  0  0  0  0  0  0
   15.9211    2.5114    1.8655 C   0  0  0  0  0  0  0  0  0  0  0  0
   16.3972    1.3399    1.2531 C   0  0  0  0  0  0  0  0  0  0  0  0
   17.7991    1.0308    1.2615 C   0  0  0  0  0  0  0  0  0  0  0  0
   18.9334    0.7809    1.2668 N   0  0  0  0  0  0  0  0  0  0  0  0
   15.4802    0.4628    0.6450 C   0  0  0  0  0  0  0  0  0  0  0  0
   14.1152    0.7461    0.6260 C   0  0  0  0  0  0  0  0  0  0  0  0
   13.1260   -0.2041   -0.0082 C   0  0  0  0  0  0  0  0  0  0  0  0
   11.8357   -0.2551    0.8112 C   0  0  0  0  0  0  0  0  0  0  0  0
    7.1533    1.8123    0.2179 C   0  0  0  0  0  0  0  0  0  0  0  0
    5.7653    1.7331    0.2606 C   0  0  0  0  0  0  0  0  0  0  0  0
    2.3518    1.7347    4.5324 H   0  0  0  0  0  0  0  0  0  0  0  0
    3.9188    1.1368    3.9280 H   0  0  0  0  0  0  0  0  0  0  0  0
    2.4031    0.5283    3.2235 H   0  0  0  0  0  0  0  0  0  0  0  0
    3.3550    3.4677    3.0405 H   0  0  0  0  0  0  0  0  0  0  0  0
    1.8902    2.8417    2.3396 H   0  0  0  0  0  0  0  0  0  0  0  0
    3.1474    0.4582    0.3255 H   0  0  0  0  0  0  0  0  0  0  0  0
    3.3532    1.8990   -0.6721 H   0  0  0  0  0  0  0  0  0  0  0  0
    0.8951    1.3243    1.0894 H   0  0  0  0  0  0  0  0  0  0  0  0
    1.0365    1.2602   -0.6748 H   0  0  0  0  0  0  0  0  0  0  0  0
    1.1633    2.8248    0.1578 H   0  0  0  0  0  0  0  0  0  0  0  0
    5.2893    3.2675    3.2720 H   0  0  0  0  0  0  0  0  0  0  0  0
    7.7037    3.3949    3.1627 H   0  0  0  0  0  0  0  0  0  0  0  0
    8.0949    5.3338    2.3548 H   0  0  0  0  0  0  0  0  0  0  0  0
    7.2732    7.4079    1.3876 H   0  0  0  0  0  0  0  0  0  0  0  0
    9.8570    7.0106   -2.0332 H   0  0  0  0  0  0  0  0  0  0  0  0
   10.7994    4.9128   -1.0816 H   0  0  0  0  0  0  0  0  0  0  0  0
   11.1789    6.8451    1.3107 H   0  0  0  0  0  0  0  0  0  0  0  0
   12.6777    5.1067    2.2004 H   0  0  0  0  0  0  0  0  0  0  0  0
   13.0842    4.9082    0.4887 H   0  0  0  0  0  0  0  0  0  0  0  0
   14.2139    3.6952    2.3564 H   0  0  0  0  0  0  0  0  0  0  0  0
   16.6193    3.1869    2.3630 H   0  0  0  0  0  0  0  0  0  0  0  0
   15.8469   -0.4575    0.1846 H   0  0  0  0  0  0  0  0  0  0  0  0
   13.5711   -1.2054   -0.1088 H   0  0  0  0  0  0  0  0  0  0  0  0
   12.8921    0.1423   -1.0328 H   0  0  0  0  0  0  0  0  0  0  0  0
   12.0401   -0.7122    1.7978 H   0  0  0  0  0  0  0  0  0  0  0  0
   11.0633   -0.8700    0.3289 H   0  0  0  0  0  0  0  0  0  0  0  0
    7.6857    1.3556   -0.6195 H   0  0  0  0  0  0  0  0  0  0  0  0
    5.2605    1.2205   -0.5557 H   0  0  0  0  0  0  0  0  0  0  0  0
  1  2  1  0
  1 38  1  0
  1 39  1  0
  1 40  1  0
  2  3  1  0
  2 41  1  0
  2 42  1  0
  3  4  1  0
  3  6  1  0
  4  5  1  0
  4 43  1  0
  4 44  1  0
  5 45  1  0
  5 46  1  0
  5 47  1  0
  6  7  2  0
  6 37  1  0
  7  8  1  0
  7 48  1  0
  8  9  2  0
  8 49  1  0
  9 10  1  0
  9 36  1  0
 10 11  2  0
 10 15  1  0
 11 12  1  0
 12 13  2  0
 12 35  1  0
 13 14  1  0
 13 26  1  0
 14 15  2  0
 14 25  1  0
 15 16  1  0
 16 17  1  1
 16 23  1  0
 16 24  1  0
 17 18  2  0
 17 50  1  0
 18 19  1  0
 18 51  1  0
 19 20  1  0
 19 22  2  0
 20 21  3  0
 22 23  1  0
 22 52  1  0
 23 24  1  0
 23 53  1  6
 24 25  1  0
 24 54  1  1
 25 55  1  0
 25 56  1  0
 26 27  2  0
 26 33  1  0
 27 28  1  0
 27 57  1  0
 28 29  2  0
 28 58  1  0
 29 30  1  0
 29 32  1  0
 30 31  3  0
 32 33  2  0
 32 59  1  0
 33 34  1  0
 34 35  1  0
 34 60  1  0
 34 61  1  0
 35 62  1  0
 35 63  1  0
 36 37  2  0
 36 64  1  0
 37 65  1  0
M  END

