
     RDKit          3D

 32 34  0  0  0  0  0  0  0  0999 V2000
    2.1387    1.4992    1.3130 C   0  0  0  0  0  0  0  0  0  0  0  0
    3.1047    0.5977    0.6147 C   0  0  0  0  0  0  0  0  0  0  0  0
    3.6267    0.8984   -0.5739 N   0  0  0  0  0  0  0  0  0  0  0  0
    4.4428   -0.1067   -0.9148 N   0  0  0  0  0  0  0  0  0  0  0  0
    5.1546   -0.0363   -2.1809 C   0  0  0  0  0  0  0  0  0  0  0  0
    4.4785   -1.0920    0.0401 C   0  0  0  0  0  0  0  0  0  0  0  0
    5.2790   -2.2973   -0.0629 C   0  0  0  0  0  0  0  0  0  0  0  0
    6.0565   -2.5841   -1.0707 N   0  0  0  0  0  0  0  0  0  0  0  0
    6.7134   -3.7578   -0.9642 N   0  0  0  0  0  0  0  0  0  0  0  0
    6.4435   -4.3978    0.1453 C   0  0  0  0  0  0  0  0  0  0  0  0
    6.9532   -5.6032    0.5316 N   0  0  0  0  0  0  0  0  0  0  0  0
    7.8629   -6.4513   -0.1282 C   0  0  0  0  0  0  0  0  0  0  0  0
    8.2111   -7.6494    0.5250 C   0  0  0  0  0  0  0  0  0  0  0  0
    9.1048   -8.5414   -0.0638 C   0  0  0  0  0  0  0  0  0  0  0  0
    9.6675   -8.2563   -1.3124 C   0  0  0  0  0  0  0  0  0  0  0  0
    9.3210   -7.0669   -1.9582 C   0  0  0  0  0  0  0  0  0  0  0  0
    8.4263   -6.1605   -1.3829 C   0  0  0  0  0  0  0  0  0  0  0  0
    5.2980   -3.5499    1.1926 S   0  0  0  0  0  0  0  0  0  0  0  0
    3.6110   -0.6484    1.0451 C   0  0  0  0  0  0  0  0  0  0  0  0
    3.2207   -1.4505    2.5272 Cl  0  0  0  0  0  0  0  0  0  0  0  0
    1.9620    2.3949    0.7024 H   0  0  0  0  0  0  0  0  0  0  0  0
    2.5231    1.8133    2.2971 H   0  0  0  0  0  0  0  0  0  0  0  0
    1.1739    0.9955    1.4873 H   0  0  0  0  0  0  0  0  0  0  0  0
    4.8500    0.9059   -2.6514 H   0  0  0  0  0  0  0  0  0  0  0  0
    4.8967   -0.8894   -2.8227 H   0  0  0  0  0  0  0  0  0  0  0  0
    6.2411   -0.0543   -2.0207 H   0  0  0  0  0  0  0  0  0  0  0  0
    6.6280   -5.9459    1.4268 H   0  0  0  0  0  0  0  0  0  0  0  0
    7.7757   -7.8800    1.5025 H   0  0  0  0  0  0  0  0  0  0  0  0
    9.3623   -9.4660    0.4591 H   0  0  0  0  0  0  0  0  0  0  0  0
   10.3682   -8.9549   -1.7752 H   0  0  0  0  0  0  0  0  0  0  0  0
    9.7533   -6.8310   -2.9342 H   0  0  0  0  0  0  0  0  0  0  0  0
    8.1579   -5.2344   -1.8868 H   0  0  0  0  0  0  0  0  0  0  0  0
  1  2  1  0
  1 21  1  0
  1 22  1  0
  1 23  1  0
  2  3  2  0
  2 19  1  0
  3  4  1  0
  4  5  1  0
  4  6  1  0
  5 24  1  0
  5 25  1  0
  5 26  1  0
  6  7  1  0
  6 19  2  0
  7  8  2  0
  7 18  1  0
  8  9  1  0
  9 10  2  0
 10 11  1  0
 10 18  1  0
 11 12  1  0
 11 27  1  0
 12 13  2  0
 12 17  1  0
 13 14  1  0
 13 28  1  0
 14 15  2  0
 14 29  1  0
 15 16  1  0
 15 30  1  0
 16 17  2  0
 16 31  1  0
 17 32  1  0
 19 20  1  0
M  END

