
     RDKit          3D

 28 28  0  0  0  0  0  0  0  0999 V2000
    1.1493   -0.3022   -0.8166 C   0  0  0  0  0  0  0  0  0  0  0  0
    2.4079   -0.0454    0.0091 C   0  0  0  0  0  0  0  0  0  0  0  0
    3.0146    1.2452   -0.2461 N   0  0  0  0  0  0  0  0  0  0  0  0
    2.2543    2.4269    0.1238 C   0  0  0  0  0  0  0  0  0  0  0  0
    3.2593    3.5489   -0.1301 C   0  0  0  0  0  0  0  0  0  0  0  0
    4.6266    2.9549    0.3146 C   0  0  2  0  0  0  0  0  0  0  0  0
    4.9983    3.4547    1.7260 C   0  0  0  0  0  0  0  0  0  0  0  0
    5.6297    3.2910   -0.7072 N   0  0  0  0  0  0  0  0  0  0  0  0
    7.0121    2.9303   -0.4500 C   0  0  0  0  0  0  0  0  0  0  0  0
    4.3436    1.4191    0.3282 C   0  0  0  0  0  0  0  0  0  0  0  0
    0.7846   -1.3288   -0.6537 H   0  0  0  0  0  0  0  0  0  0  0  0
    1.3601   -0.1729   -1.8900 H   0  0  0  0  0  0  0  0  0  0  0  0
    0.3302    0.3831   -0.5464 H   0  0  0  0  0  0  0  0  0  0  0  0
    3.1581   -0.8175   -0.2347 H   0  0  0  0  0  0  0  0  0  0  0  0
    2.1751   -0.1784    1.0950 H   0  0  0  0  0  0  0  0  0  0  0  0
    1.9363    2.4096    1.1957 H   0  0  0  0  0  0  0  0  0  0  0  0
    1.3406    2.5310   -0.4821 H   0  0  0  0  0  0  0  0  0  0  0  0
    3.0089    4.4834    0.3962 H   0  0  0  0  0  0  0  0  0  0  0  0
    3.3053    3.7506   -1.2106 H   0  0  0  0  0  0  0  0  0  0  0  0
    5.2138    4.5366    1.7099 H   0  0  0  0  0  0  0  0  0  0  0  0
    5.8850    2.9377    2.1266 H   0  0  0  0  0  0  0  0  0  0  0  0
    4.1737    3.2847    2.4365 H   0  0  0  0  0  0  0  0  0  0  0  0
    5.5678    4.2865   -0.9175 H   0  0  0  0  0  0  0  0  0  0  0  0
    7.1049    1.8387   -0.3247 H   0  0  0  0  0  0  0  0  0  0  0  0
    7.4777    3.4017    0.4422 H   0  0  0  0  0  0  0  0  0  0  0  0
    7.6255    3.2023   -1.3241 H   0  0  0  0  0  0  0  0  0  0  0  0
    4.3874    1.0354    1.3735 H   0  0  0  0  0  0  0  0  0  0  0  0
    5.0913    0.8596   -0.2565 H   0  0  0  0  0  0  0  0  0  0  0  0
  1  2  1  0
  1 11  1  0
  1 12  1  0
  1 13  1  0
  2  3  1  0
  2 14  1  0
  2 15  1  0
  3  4  1  0
  3 10  1  0
  4  5  1  0
  4 16  1  0
  4 17  1  0
  5  6  1  0
  5 18  1  0
  5 19  1  0
  6  7  1  0
  6  8  1  6
  6 10  1  0
  7 20  1  0
  7 21  1  0
  7 22  1  0
  8  9  1  0
  8 23  1  0
  9 24  1  0
  9 25  1  0
  9 26  1  0
 10 27  1  0
 10 28  1  0
M  END

