
     RDKit          3D

 46 45  0  0  0  0  0  0  0  0999 V2000
    4.0808   -1.0097    3.6568 C   0  0  0  0  0  0  0  0  0  0  0  0
    4.4684   -1.4515    2.4552 C   0  0  0  0  0  0  0  0  0  0  0  0
    4.0278   -0.7259    1.2156 C   0  0  0  0  0  0  0  0  0  0  0  0
    3.3439    0.2873    1.2945 O   0  0  0  0  0  0  0  0  0  0  0  0
    4.4218   -1.2366   -0.0057 N   0  0  0  0  0  0  0  0  0  0  0  0
    4.0709   -0.4872   -1.2148 C   0  0  0  0  0  0  0  0  0  0  0  0
    2.8952   -1.0699   -2.0117 C   0  0  0  0  0  0  0  0  0  0  0  0
    1.5577   -1.0944   -1.2658 C   0  0  0  0  0  0  0  0  0  0  0  0
    0.4062   -1.6273   -2.1197 C   0  0  0  0  0  0  0  0  0  0  0  0
    5.2432   -2.4290   -0.1812 C   0  0  0  0  0  0  0  0  0  0  0  0
    6.7529   -2.1709   -0.0720 C   0  0  0  0  0  0  0  0  0  0  0  0
    7.5662   -3.4337   -0.3330 C   0  0  0  0  0  0  0  0  0  0  0  0
    8.9745   -3.1986   -0.1983 O   0  0  0  0  0  0  0  0  0  0  0  0
    9.5002   -3.2745    1.0456 C   0  0  0  0  0  0  0  0  0  0  0  0
    8.8353   -3.5260    2.0219 O   0  0  0  0  0  0  0  0  0  0  0  0
   11.0109   -3.0094    1.0409 C   0  0  1  0  0  0  0  0  0  0  0  0
   11.2657   -1.5917    0.4847 C   0  0  0  0  0  0  0  0  0  0  0  0
   11.5351   -3.1191    2.4798 C   0  0  0  0  0  0  0  0  0  0  0  0
   11.6985   -4.0567    0.1386 C   0  0  0  0  0  0  0  0  0  0  0  0
    4.3935   -1.5101    4.5766 H   0  0  0  0  0  0  0  0  0  0  0  0
    3.4399   -0.1266    3.7300 H   0  0  0  0  0  0  0  0  0  0  0  0
    5.1152   -2.3278    2.3853 H   0  0  0  0  0  0  0  0  0  0  0  0
    4.9636   -0.4397   -1.8627 H   0  0  0  0  0  0  0  0  0  0  0  0
    3.8329    0.5367   -0.8977 H   0  0  0  0  0  0  0  0  0  0  0  0
    3.1436   -2.0922   -2.3557 H   0  0  0  0  0  0  0  0  0  0  0  0
    2.7933   -0.4666   -2.9325 H   0  0  0  0  0  0  0  0  0  0  0  0
    1.3245   -0.0787   -0.9045 H   0  0  0  0  0  0  0  0  0  0  0  0
    1.6592   -1.7128   -0.3575 H   0  0  0  0  0  0  0  0  0  0  0  0
    0.2485   -1.0061   -3.0177 H   0  0  0  0  0  0  0  0  0  0  0  0
   -0.5403   -1.6407   -1.5560 H   0  0  0  0  0  0  0  0  0  0  0  0
    0.6015   -2.6574   -2.4641 H   0  0  0  0  0  0  0  0  0  0  0  0
    5.0095   -2.8466   -1.1745 H   0  0  0  0  0  0  0  0  0  0  0  0
    4.9405   -3.2060    0.5369 H   0  0  0  0  0  0  0  0  0  0  0  0
    6.9861   -1.7968    0.9371 H   0  0  0  0  0  0  0  0  0  0  0  0
    7.0516   -1.3863   -0.7872 H   0  0  0  0  0  0  0  0  0  0  0  0
    7.4319   -3.7875   -1.3665 H   0  0  0  0  0  0  0  0  0  0  0  0
    7.2683   -4.2355    0.3605 H   0  0  0  0  0  0  0  0  0  0  0  0
   10.7714   -0.8252    1.1031 H   0  0  0  0  0  0  0  0  0  0  0  0
   10.8956   -1.4937   -0.5459 H   0  0  0  0  0  0  0  0  0  0  0  0
   12.3468   -1.3787    0.4863 H   0  0  0  0  0  0  0  0  0  0  0  0
   11.0438   -2.3895    3.1403 H   0  0  0  0  0  0  0  0  0  0  0  0
   12.6202   -2.9315    2.4998 H   0  0  0  0  0  0  0  0  0  0  0  0
   11.3473   -4.1191    2.8979 H   0  0  0  0  0  0  0  0  0  0  0  0
   11.3343   -3.9936   -0.8969 H   0  0  0  0  0  0  0  0  0  0  0  0
   11.5179   -5.0799    0.5057 H   0  0  0  0  0  0  0  0  0  0  0  0
   12.7875   -3.8887    0.1339 H   0  0  0  0  0  0  0  0  0  0  0  0
  1  2  2  0
  1 20  1  0
  1 21  1  0
  2  3  1  0
  2 22  1  0
  3  4  2  0
  3  5  1  0
  5  6  1  0
  5 10  1  0
  6  7  1  0
  6 23  1  0
  6 24  1  0
  7  8  1  0
  7 25  1  0
  7 26  1  0
  8  9  1  0
  8 27  1  0
  8 28  1  0
  9 29  1  0
  9 30  1  0
  9 31  1  0
 10 11  1  0
 10 32  1  0
 10 33  1  0
 11 12  1  0
 11 34  1  0
 11 35  1  0
 12 13  1  0
 12 36  1  0
 12 37  1  0
 13 14  1  0
 14 15  2  0
 16 14  1  1
 16 17  1  0
 16 18  1  0
 16 19  1  0
 17 38  1  0
 17 39  1  0
 17 40  1  0
 18 41  1  0
 18 42  1  0
 18 43  1  0
 19 44  1  0
 19 45  1  0
 19 46  1  0
M  END

