
     RDKit          3D

 31 32  0  0  0  0  0  0  0  0999 V2000
    0.8976   -0.6270    0.1431 O   0  0  0  0  0  0  0  0  0  0  0  0
    2.0481   -0.2125    0.1493 C   0  0  0  0  0  0  0  0  0  0  0  0
    2.7934    0.0581    1.4604 C   0  0  0  0  0  0  0  0  0  0  0  0
    3.1589   -1.2167    2.1994 C   0  0  0  0  0  0  0  0  0  0  0  0
    2.1730   -2.1546    2.5486 C   0  0  0  0  0  0  0  0  0  0  0  0
    2.5122   -3.3235    3.2334 C   0  0  0  0  0  0  0  0  0  0  0  0
    3.8385   -3.5673    3.5781 C   0  0  0  0  0  0  0  0  0  0  0  0
    4.1808   -4.6798    4.2368 F   0  0  0  0  0  0  0  0  0  0  0  0
    4.8263   -2.6419    3.2339 C   0  0  0  0  0  0  0  0  0  0  0  0
    6.0987   -2.8857    3.5677 F   0  0  0  0  0  0  0  0  0  0  0  0
    4.4921   -1.4772    2.5491 C   0  0  0  0  0  0  0  0  0  0  0  0
    2.7677    0.0226   -0.9820 N   0  0  0  0  0  0  0  0  0  0  0  0
    2.2210   -0.1659   -2.3091 C   0  0  0  0  0  0  0  0  0  0  0  0
    2.2573    1.1223   -3.1472 C   0  0  0  0  0  0  0  0  0  0  0  0
    3.6478    1.6331   -3.3801 C   0  0  0  0  0  0  0  0  0  0  0  0
    4.6719    1.5517   -2.5408 N   0  0  0  0  0  0  0  0  0  0  0  0
    5.6849    2.1738   -3.2063 C   0  0  0  0  0  0  0  0  0  0  0  0
    5.3580    2.6365   -4.3987 N   0  0  0  0  0  0  0  0  0  0  0  0
    4.0596    2.2835   -4.4949 N   0  0  0  0  0  0  0  0  0  0  0  0
    3.5299    2.5101   -5.3297 H   0  0  0  0  0  0  0  0  0  0  0  0
    2.1055    0.6582    2.0787 H   0  0  0  0  0  0  0  0  0  0  0  0
    3.6949    0.6640    1.2865 H   0  0  0  0  0  0  0  0  0  0  0  0
    1.1374   -1.9676    2.2604 H   0  0  0  0  0  0  0  0  0  0  0  0
    1.7571   -4.0623    3.5104 H   0  0  0  0  0  0  0  0  0  0  0  0
    5.2956   -0.7803    2.2997 H   0  0  0  0  0  0  0  0  0  0  0  0
    3.7082    0.4100   -0.9397 H   0  0  0  0  0  0  0  0  0  0  0  0
    1.1827   -0.5018   -2.1829 H   0  0  0  0  0  0  0  0  0  0  0  0
    2.7718   -0.9626   -2.8407 H   0  0  0  0  0  0  0  0  0  0  0  0
    1.6664    1.9009   -2.6328 H   0  0  0  0  0  0  0  0  0  0  0  0
    1.7669    0.9420   -4.1182 H   0  0  0  0  0  0  0  0  0  0  0  0
    6.6898    2.2863   -2.8004 H   0  0  0  0  0  0  0  0  0  0  0  0
  1  2  2  0
  2  3  1  0
  2 12  1  0
  3  4  1  0
  3 21  1  0
  3 22  1  0
  4  5  2  0
  4 11  1  0
  5  6  1  0
  5 23  1  0
  6  7  2  0
  6 24  1  0
  7  8  1  0
  7  9  1  0
  9 10  1  0
  9 11  2  0
 11 25  1  0
 12 13  1  0
 12 26  1  0
 13 14  1  0
 13 27  1  0
 13 28  1  0
 14 15  1  0
 14 29  1  0
 14 30  1  0
 15 16  2  0
 15 19  1  0
 16 17  1  0
 17 18  2  0
 17 31  1  0
 18 19  1  0
 19 20  1  0
M  END

