
     RDKit          3D

 44 45  0  0  0  0  0  0  0  0999 V2000
    1.4449   -0.6687    0.0020 C   0  0  0  0  0  0  0  0  0  0  0  0
    2.7839   -0.3495    0.5817 C   0  0  0  0  0  0  0  0  0  0  0  0
    3.3080    0.8538    0.6668 N   0  0  0  0  0  0  0  0  0  0  0  0
    4.5119    0.6774    1.2654 C   0  0  0  0  0  0  0  0  0  0  0  0
    5.4204    1.7690    1.5525 N   0  0  0  0  0  0  0  0  0  0  0  0
    6.4771    1.4617    2.0975 O   0  0  0  0  0  0  0  0  0  0  0  0
    5.0862    2.8958    1.2400 O   0  0  0  0  0  0  0  0  0  0  0  0
    4.7513   -0.6469    1.5624 C   0  0  0  0  0  0  0  0  0  0  0  0
    3.6324   -1.3042    1.1210 N   0  0  0  0  0  0  0  0  0  0  0  0
    3.4204   -2.7461    1.1614 C   0  0  0  0  0  0  0  0  0  0  0  0
    4.0882   -3.4850   -0.0018 C   0  0  0  0  0  0  0  0  0  0  0  0
    3.6443   -4.9491   -0.0410 C   0  0  0  0  0  0  0  0  0  0  0  0
    2.5543   -5.2963    0.3877 O   0  0  0  0  0  0  0  0  0  0  0  0
    4.5258   -5.8138   -0.6152 N   0  0  0  0  0  0  0  0  0  0  0  0
    4.2382   -7.2329   -0.7584 C   0  0  0  0  0  0  0  0  0  0  0  0
    4.6718   -8.0747    0.4592 C   0  0  0  0  0  0  0  0  0  0  0  0
    4.3422   -9.5409    0.2915 C   0  0  0  0  0  0  0  0  0  0  0  0
    5.2973  -10.4535   -0.1822 C   0  0  0  0  0  0  0  0  0  0  0  0
    4.9769  -11.8006   -0.3671 C   0  0  0  0  0  0  0  0  0  0  0  0
    3.6867  -12.2755   -0.0948 C   0  0  0  0  0  0  0  0  0  0  0  0
    3.3207  -13.7292   -0.3305 C   0  0  0  0  0  0  0  0  0  0  0  0
    2.2883  -14.2032    0.5050 O   0  0  0  0  0  0  0  0  0  0  0  0
    2.7289  -11.3673    0.3796 C   0  0  0  0  0  0  0  0  0  0  0  0
    3.0531  -10.0231    0.5712 C   0  0  0  0  0  0  0  0  0  0  0  0
    0.9992    0.2666   -0.3587 H   0  0  0  0  0  0  0  0  0  0  0  0
    0.7666   -1.1110    0.7507 H   0  0  0  0  0  0  0  0  0  0  0  0
    1.5108   -1.3731   -0.8434 H   0  0  0  0  0  0  0  0  0  0  0  0
    5.5933   -1.1365    2.0416 H   0  0  0  0  0  0  0  0  0  0  0  0
    2.3432   -2.9526    1.1401 H   0  0  0  0  0  0  0  0  0  0  0  0
    3.7952   -3.1247    2.1244 H   0  0  0  0  0  0  0  0  0  0  0  0
    5.1858   -3.3988    0.0540 H   0  0  0  0  0  0  0  0  0  0  0  0
    3.7843   -3.0181   -0.9553 H   0  0  0  0  0  0  0  0  0  0  0  0
    5.4347   -5.4689   -0.8997 H   0  0  0  0  0  0  0  0  0  0  0  0
    4.7346   -7.6014   -1.6701 H   0  0  0  0  0  0  0  0  0  0  0  0
    3.1536   -7.3370   -0.9050 H   0  0  0  0  0  0  0  0  0  0  0  0
    4.1620   -7.6708    1.3485 H   0  0  0  0  0  0  0  0  0  0  0  0
    5.7557   -7.9464    0.6189 H   0  0  0  0  0  0  0  0  0  0  0  0
    6.3140  -10.1088   -0.3950 H   0  0  0  0  0  0  0  0  0  0  0  0
    5.7457  -12.4940   -0.7223 H   0  0  0  0  0  0  0  0  0  0  0  0
    4.2343  -14.3538   -0.2582 H   0  0  0  0  0  0  0  0  0  0  0  0
    2.9456  -13.8513   -1.3620 H   0  0  0  0  0  0  0  0  0  0  0  0
    2.5769  -14.1009    1.4224 H   0  0  0  0  0  0  0  0  0  0  0  0
    1.7242  -11.7313    0.6065 H   0  0  0  0  0  0  0  0  0  0  0  0
    2.2916   -9.3339    0.9489 H   0  0  0  0  0  0  0  0  0  0  0  0
  1  2  1  0
  1 25  1  0
  1 26  1  0
  1 27  1  0
  2  3  2  0
  2  9  1  0
  3  4  1  0
  4  5  1  0
  4  8  2  0
  5  6  2  0
  5  7  1  0
  8  9  1  0
  8 28  1  0
  9 10  1  0
 10 11  1  0
 10 29  1  0
 10 30  1  0
 11 12  1  0
 11 31  1  0
 11 32  1  0
 12 13  2  0
 12 14  1  0
 14 15  1  0
 14 33  1  0
 15 16  1  0
 15 34  1  0
 15 35  1  0
 16 17  1  0
 16 36  1  0
 16 37  1  0
 17 18  2  0
 17 24  1  0
 18 19  1  0
 18 38  1  0
 19 20  2  0
 19 39  1  0
 20 21  1  0
 20 23  1  0
 21 22  1  0
 21 40  1  0
 21 41  1  0
 22 42  1  0
 23 24  2  0
 23 43  1  0
 24 44  1  0
M  CHG  2   5   1   7  -1
M  END

