
     RDKit          3D

 49 53  0  0  0  0  0  0  0  0999 V2000
    1.2109   -0.0831   -0.1869 O   0  0  0  0  0  0  0  0  0  0  0  0
    2.3762    0.1050    0.1321 C   0  0  0  0  0  0  0  0  0  0  0  0
    2.9459    1.5162    0.2358 C   0  0  0  0  0  0  0  0  0  0  0  0
    4.0760    1.6303    1.2586 C   0  0  0  0  0  0  0  0  0  0  0  0
    5.1553    0.5806    0.9890 C   0  0  0  0  0  0  0  0  0  0  0  0
    4.5695   -0.7979    0.8303 C   0  0  0  0  0  0  0  0  0  0  0  0
    3.2862   -1.0154    0.3955 C   0  0  0  0  0  0  0  0  0  0  0  0
    2.6998   -2.4131    0.2000 C   0  0  1  0  0  0  0  0  0  0  0  0
    2.2019   -2.7155   -1.2190 C   0  0  0  0  0  0  0  0  0  0  0  0
    3.0289   -2.6665   -2.3568 C   0  0  0  0  0  0  0  0  0  0  0  0
    4.7370   -2.2734   -2.2192 Cl  0  0  0  0  0  0  0  0  0  0  0  0
    2.5612   -2.9375   -3.6451 C   0  0  0  0  0  0  0  0  0  0  0  0
    1.2227   -3.2772   -3.8281 C   0  0  0  0  0  0  0  0  0  0  0  0
    0.3683   -3.3537   -2.7302 C   0  0  0  0  0  0  0  0  0  0  0  0
    0.8588   -3.0814   -1.4508 C   0  0  0  0  0  0  0  0  0  0  0  0
   -0.2832   -3.2302   -0.1317 Cl  0  0  0  0  0  0  0  0  0  0  0  0
    3.6889   -3.4024    0.6405 N   0  0  0  0  0  0  0  0  0  0  0  0
    3.4206   -4.7311    0.6691 N   0  0  0  0  0  0  0  0  0  0  0  0
    4.5324   -5.3007    1.1018 C   0  0  0  0  0  0  0  0  0  0  0  0
    5.5606   -4.3459    1.3692 C   0  0  0  0  0  0  0  0  0  0  0  0
    6.9419   -4.4019    1.8659 C   0  0  0  0  0  0  0  0  0  0  0  0
    7.5930   -3.3659    2.0263 O   0  0  0  0  0  0  0  0  0  0  0  0
    7.4343   -5.6572    2.1295 N   0  0  0  0  0  0  0  0  0  0  0  0
    8.6988   -6.0419    2.6132 C   0  0  0  0  0  0  0  0  0  0  0  0
    9.7230   -5.1280    2.9224 C   0  0  0  0  0  0  0  0  0  0  0  0
   10.9475   -5.6032    3.3984 C   0  0  0  0  0  0  0  0  0  0  0  0
   11.1783   -6.9702    3.5746 C   0  0  0  0  0  0  0  0  0  0  0  0
   10.1592   -7.8767    3.2666 C   0  0  0  0  0  0  0  0  0  0  0  0
    8.9316   -7.4191    2.7907 C   0  0  0  0  0  0  0  0  0  0  0  0
    4.9448   -3.1324    1.0467 C   0  0  0  0  0  0  0  0  0  0  0  0
    5.4023   -1.8456    1.1183 N   0  0  0  0  0  0  0  0  0  0  0  0
    2.1100    2.1966    0.4548 H   0  0  0  0  0  0  0  0  0  0  0  0
    3.3181    1.7856   -0.7710 H   0  0  0  0  0  0  0  0  0  0  0  0
    3.6705    1.4790    2.2737 H   0  0  0  0  0  0  0  0  0  0  0  0
    4.5194    2.6382    1.2403 H   0  0  0  0  0  0  0  0  0  0  0  0
    5.9072    0.5685    1.7956 H   0  0  0  0  0  0  0  0  0  0  0  0
    5.7022    0.8268    0.0588 H   0  0  0  0  0  0  0  0  0  0  0  0
    1.8215   -2.5145    0.8514 H   0  0  0  0  0  0  0  0  0  0  0  0
    3.2526   -2.8815   -4.4866 H   0  0  0  0  0  0  0  0  0  0  0  0
    0.8446   -3.4886   -4.8310 H   0  0  0  0  0  0  0  0  0  0  0  0
   -0.6809   -3.6254   -2.8502 H   0  0  0  0  0  0  0  0  0  0  0  0
    4.5620   -6.3857    1.2140 H   0  0  0  0  0  0  0  0  0  0  0  0
    6.7997   -6.4255    1.9476 H   0  0  0  0  0  0  0  0  0  0  0  0
    9.5450   -4.0645    2.7852 H   0  0  0  0  0  0  0  0  0  0  0  0
   11.7355   -4.8833    3.6351 H   0  0  0  0  0  0  0  0  0  0  0  0
   12.1412   -7.3265    3.9477 H   0  0  0  0  0  0  0  0  0  0  0  0
   10.3179   -8.9503    3.3967 H   0  0  0  0  0  0  0  0  0  0  0  0
    8.1398   -8.1363    2.5524 H   0  0  0  0  0  0  0  0  0  0  0  0
    6.3545   -1.7461    1.4697 H   0  0  0  0  0  0  0  0  0  0  0  0
  1  2  2  0
  2  3  1  0
  2  7  1  0
  3  4  1  0
  3 32  1  0
  3 33  1  0
  4  5  1  0
  4 34  1  0
  4 35  1  0
  5  6  1  0
  5 36  1  0
  5 37  1  0
  6  7  2  0
  6 31  1  0
  7  8  1  0
  8  9  1  0
  8 17  1  0
  8 38  1  1
  9 10  2  0
  9 15  1  0
 10 11  1  0
 10 12  1  0
 12 13  2  0
 12 39  1  0
 13 14  1  0
 13 40  1  0
 14 15  2  0
 14 41  1  0
 15 16  1  0
 17 18  1  0
 17 30  1  0
 18 19  2  0
 19 20  1  0
 19 42  1  0
 20 21  1  0
 20 30  2  0
 21 22  2  0
 21 23  1  0
 23 24  1  0
 23 43  1  0
 24 25  2  0
 24 29  1  0
 25 26  1  0
 25 44  1  0
 26 27  2  0
 26 45  1  0
 27 28  1  0
 27 46  1  0
 28 29  2  0
 28 47  1  0
 29 48  1  0
 30 31  1  0
 31 49  1  0
M  END

