
     RDKit          3D

 54 55  0  0  0  0  0  0  0  0999 V2000
    5.1700   -1.5214   -5.5750 C   0  0  0  0  0  0  0  0  0  0  0  0
    5.6912   -2.4081   -4.4692 C   0  0  0  0  0  0  0  0  0  0  0  0
    6.5181   -3.5070   -4.7431 C   0  0  0  0  0  0  0  0  0  0  0  0
    7.0038   -4.3025   -3.7025 C   0  0  0  0  0  0  0  0  0  0  0  0
    6.6712   -4.0157   -2.3765 C   0  0  0  0  0  0  0  0  0  0  0  0
    5.8407   -2.9246   -2.0689 C   0  0  0  0  0  0  0  0  0  0  0  0
    5.4112   -2.5890   -0.6415 C   0  0  2  0  0  0  0  0  0  0  0  0
    5.1667   -1.5130   -0.6399 H   0  0  0  0  0  0  0  0  0  0  0  0
    6.5122   -2.7851    0.4280 C   0  0  0  0  0  0  0  0  0  0  0  0
    7.7302   -1.8647    0.2436 C   0  0  0  0  0  0  0  0  0  0  0  0
    8.7039   -1.9441    1.3379 N   0  0  0  0  0  0  0  0  0  0  0  0
    9.9847   -2.5673    0.9587 C   0  0  1  0  0  0  0  0  0  0  0  0
   11.0069   -2.5871    2.1023 C   0  0  0  0  0  0  0  0  0  0  0  0
    9.7662   -4.0093    0.4763 C   0  0  0  0  0  0  0  0  0  0  0  0
    8.7727   -0.7399    2.1847 C   0  0  1  0  0  0  0  0  0  0  0  0
    9.3291    0.5126    1.4770 C   0  0  0  0  0  0  0  0  0  0  0  0
    7.4273   -0.4458    2.8605 C   0  0  0  0  0  0  0  0  0  0  0  0
    4.1245   -3.3086   -0.2279 C   0  0  0  0  0  0  0  0  0  0  0  0
    3.1148   -2.5959    0.4392 C   0  0  0  0  0  0  0  0  0  0  0  0
    1.9469   -3.2286    0.8742 C   0  0  0  0  0  0  0  0  0  0  0  0
    1.7651   -4.5956    0.6486 C   0  0  0  0  0  0  0  0  0  0  0  0
    2.7603   -5.3181   -0.0162 C   0  0  0  0  0  0  0  0  0  0  0  0
    3.9259   -4.6806   -0.4507 C   0  0  0  0  0  0  0  0  0  0  0  0
    5.3677   -2.1391   -3.1301 C   0  0  0  0  0  0  0  0  0  0  0  0
    5.3679   -1.9528   -6.5674 H   0  0  0  0  0  0  0  0  0  0  0  0
    5.6442   -0.5251   -5.5449 H   0  0  0  0  0  0  0  0  0  0  0  0
    4.0832   -1.3620   -5.4846 H   0  0  0  0  0  0  0  0  0  0  0  0
    6.7852   -3.7396   -5.7779 H   0  0  0  0  0  0  0  0  0  0  0  0
    7.6500   -5.1555   -3.9268 H   0  0  0  0  0  0  0  0  0  0  0  0
    7.0644   -4.6501   -1.5793 H   0  0  0  0  0  0  0  0  0  0  0  0
    6.8338   -3.8382    0.4651 H   0  0  0  0  0  0  0  0  0  0  0  0
    6.0682   -2.5821    1.4144 H   0  0  0  0  0  0  0  0  0  0  0  0
    7.3599   -0.8299    0.1384 H   0  0  0  0  0  0  0  0  0  0  0  0
    8.2186   -2.0815   -0.7221 H   0  0  0  0  0  0  0  0  0  0  0  0
   10.4517   -2.0089    0.1121 H   0  0  0  0  0  0  0  0  0  0  0  0
   10.5823   -3.0700    2.9980 H   0  0  0  0  0  0  0  0  0  0  0  0
   11.3641   -1.5862    2.3839 H   0  0  0  0  0  0  0  0  0  0  0  0
   11.8888   -3.1680    1.7919 H   0  0  0  0  0  0  0  0  0  0  0  0
    9.3348   -4.6212    1.2854 H   0  0  0  0  0  0  0  0  0  0  0  0
   10.7254   -4.4576    0.1728 H   0  0  0  0  0  0  0  0  0  0  0  0
    9.0945   -4.0648   -0.3913 H   0  0  0  0  0  0  0  0  0  0  0  0
    9.4642   -0.9809    3.0041 H   0  0  0  0  0  0  0  0  0  0  0  0
    8.6633    0.8585    0.6694 H   0  0  0  0  0  0  0  0  0  0  0  0
   10.3192    0.3206    1.0337 H   0  0  0  0  0  0  0  0  0  0  0  0
    9.4399    1.3463    2.1896 H   0  0  0  0  0  0  0  0  0  0  0  0
    6.6517   -0.1396    2.1400 H   0  0  0  0  0  0  0  0  0  0  0  0
    7.5394    0.3771    3.5846 H   0  0  0  0  0  0  0  0  0  0  0  0
    7.0630   -1.3335    3.3994 H   0  0  0  0  0  0  0  0  0  0  0  0
    3.2457   -1.5245    0.6201 H   0  0  0  0  0  0  0  0  0  0  0  0
    1.1750   -2.6493    1.3881 H   0  0  0  0  0  0  0  0  0  0  0  0
    0.8522   -5.0941    0.9845 H   0  0  0  0  0  0  0  0  0  0  0  0
    2.6277   -6.3871   -0.2034 H   0  0  0  0  0  0  0  0  0  0  0  0
    4.6848   -5.2594   -0.9812 H   0  0  0  0  0  0  0  0  0  0  0  0
    4.7189   -1.2860   -2.9050 H   0  0  0  0  0  0  0  0  0  0  0  0
  1  2  1  0
  1 25  1  0
  1 26  1  0
  1 27  1  0
  2  3  2  0
  2 24  1  0
  3  4  1  0
  3 28  1  0
  4  5  2  0
  4 29  1  0
  5  6  1  0
  5 30  1  0
  6  7  1  0
  6 24  2  0
  7  8  1  6
  7  9  1  0
  7 18  1  0
  9 10  1  0
  9 31  1  0
  9 32  1  0
 10 11  1  0
 10 33  1  0
 10 34  1  0
 11 12  1  0
 11 15  1  0
 12 13  1  0
 12 14  1  0
 12 35  1  6
 13 36  1  0
 13 37  1  0
 13 38  1  0
 14 39  1  0
 14 40  1  0
 14 41  1  0
 15 16  1  0
 15 17  1  0
 15 42  1  1
 16 43  1  0
 16 44  1  0
 16 45  1  0
 17 46  1  0
 17 47  1  0
 17 48  1  0
 18 19  2  0
 18 23  1  0
 19 20  1  0
 19 49  1  0
 20 21  2  0
 20 50  1  0
 21 22  1  0
 21 51  1  0
 22 23  2  0
 22 52  1  0
 23 53  1  0
 24 54  1  0
M  END

