
     RDKit          3D

 51 52  0  0  0  0  0  0  0  0999 V2000
    1.0359   -0.3301   -3.0359 C   0  0  0  0  0  0  0  0  0  0  0  0
    2.3734   -0.7215   -2.6471 N   0  0  0  0  0  0  0  0  0  0  0  0
    3.1214    0.0018   -1.7563 C   0  0  0  0  0  0  0  0  0  0  0  0
    2.7092    1.0230   -1.2256 O   0  0  0  0  0  0  0  0  0  0  0  0
    4.5014   -0.5326   -1.4688 C   0  0  0  0  0  0  0  0  0  0  0  0
    5.4422    0.3590   -0.9285 C   0  0  0  0  0  0  0  0  0  0  0  0
    6.7356   -0.0642   -0.6324 C   0  0  0  0  0  0  0  0  0  0  0  0
    7.1237   -1.3963   -0.8499 C   0  0  0  0  0  0  0  0  0  0  0  0
    8.5478   -1.8471   -0.5774 C   0  0  0  0  0  0  0  0  0  0  0  0
    9.1183   -1.2743    0.6336 N   0  0  0  0  0  0  0  0  0  0  0  0
    8.4956   -1.7451    1.8637 C   0  0  0  0  0  0  0  0  0  0  0  0
   10.5723   -1.2406    0.6585 C   0  0  0  0  0  0  0  0  0  0  0  0
   11.2382   -2.6263    0.7137 C   0  0  0  0  0  0  0  0  0  0  0  0
   11.2152   -3.3165    1.7226 O   0  0  0  0  0  0  0  0  0  0  0  0
   11.8173   -3.0590   -0.4474 N   0  0  0  0  0  0  0  0  0  0  0  0
   12.3957   -4.3857   -0.5583 C   0  0  0  0  0  0  0  0  0  0  0  0
   11.3680   -5.5132   -0.7190 C   0  0  0  0  0  0  0  0  0  0  0  0
   10.4399   -5.2993   -2.2815 S   0  0  0  0  0  0  0  0  0  0  0  0
    9.3178   -6.6797   -2.3117 C   0  0  0  0  0  0  0  0  0  0  0  0
    9.1642   -7.6070   -1.2687 C   0  0  0  0  0  0  0  0  0  0  0  0
    8.2458   -8.6554   -1.3941 C   0  0  0  0  0  0  0  0  0  0  0  0
    7.4724   -8.7951   -2.5478 C   0  0  0  0  0  0  0  0  0  0  0  0
    7.6242   -7.8704   -3.5878 C   0  0  0  0  0  0  0  0  0  0  0  0
    8.5377   -6.8232   -3.4755 C   0  0  0  0  0  0  0  0  0  0  0  0
    6.1764   -2.2927   -1.3622 C   0  0  0  0  0  0  0  0  0  0  0  0
    4.8817   -1.8678   -1.6709 C   0  0  0  0  0  0  0  0  0  0  0  0
    0.3257   -1.1668   -2.9251 H   0  0  0  0  0  0  0  0  0  0  0  0
    0.9960    0.0242   -4.0812 H   0  0  0  0  0  0  0  0  0  0  0  0
    0.7254    0.4932   -2.3797 H   0  0  0  0  0  0  0  0  0  0  0  0
    2.8232   -1.4714   -3.1551 H   0  0  0  0  0  0  0  0  0  0  0  0
    5.1283    1.3888   -0.7468 H   0  0  0  0  0  0  0  0  0  0  0  0
    7.4639    0.6323   -0.2102 H   0  0  0  0  0  0  0  0  0  0  0  0
    9.1746   -1.5189   -1.4272 H   0  0  0  0  0  0  0  0  0  0  0  0
    8.5840   -2.9579   -0.5937 H   0  0  0  0  0  0  0  0  0  0  0  0
    7.4135   -1.5487    1.8243 H   0  0  0  0  0  0  0  0  0  0  0  0
    8.9106   -1.1946    2.7220 H   0  0  0  0  0  0  0  0  0  0  0  0
    8.6508   -2.8256    2.0539 H   0  0  0  0  0  0  0  0  0  0  0  0
   10.8953   -0.7012    1.5630 H   0  0  0  0  0  0  0  0  0  0  0  0
   10.9303   -0.6723   -0.2182 H   0  0  0  0  0  0  0  0  0  0  0  0
   11.7474   -2.4839   -1.2773 H   0  0  0  0  0  0  0  0  0  0  0  0
   12.9618   -4.5877    0.3644 H   0  0  0  0  0  0  0  0  0  0  0  0
   13.1053   -4.3882   -1.4003 H   0  0  0  0  0  0  0  0  0  0  0  0
   10.6808   -5.4962    0.1392 H   0  0  0  0  0  0  0  0  0  0  0  0
   11.8911   -6.4826   -0.7355 H   0  0  0  0  0  0  0  0  0  0  0  0
    9.7487   -7.5216   -0.3526 H   0  0  0  0  0  0  0  0  0  0  0  0
    8.1383   -9.3689   -0.5727 H   0  0  0  0  0  0  0  0  0  0  0  0
    6.7579   -9.6166   -2.6384 H   0  0  0  0  0  0  0  0  0  0  0  0
    7.0280   -7.9666   -4.4991 H   0  0  0  0  0  0  0  0  0  0  0  0
    8.6536   -6.1092   -4.2954 H   0  0  0  0  0  0  0  0  0  0  0  0
    6.4515   -3.3407   -1.5126 H   0  0  0  0  0  0  0  0  0  0  0  0
    4.1599   -2.6034   -2.0359 H   0  0  0  0  0  0  0  0  0  0  0  0
  1  2  1  0
  1 27  1  0
  1 28  1  0
  1 29  1  0
  2  3  1  0
  2 30  1  0
  3  4  2  0
  3  5  1  0
  5  6  2  0
  5 26  1  0
  6  7  1  0
  6 31  1  0
  7  8  2  0
  7 32  1  0
  8  9  1  0
  8 25  1  0
  9 10  1  0
  9 33  1  0
  9 34  1  0
 10 11  1  0
 10 12  1  0
 11 35  1  0
 11 36  1  0
 11 37  1  0
 12 13  1  0
 12 38  1  0
 12 39  1  0
 13 14  2  0
 13 15  1  0
 15 16  1  0
 15 40  1  0
 16 17  1  0
 16 41  1  0
 16 42  1  0
 17 18  1  0
 17 43  1  0
 17 44  1  0
 18 19  1  0
 19 20  2  0
 19 24  1  0
 20 21  1  0
 20 45  1  0
 21 22  2  0
 21 46  1  0
 22 23  1  0
 22 47  1  0
 23 24  2  0
 23 48  1  0
 24 49  1  0
 25 26  2  0
 25 50  1  0
 26 51  1  0
M  END

