
     RDKit          3D

 59 62  0  0  0  0  0  0  0  0999 V2000
    0.8467    0.3162    1.5430 C   0  0  0  0  0  0  0  0  0  0  0  0
    1.9679    0.4796    0.6167 N   0  0  0  0  0  0  0  0  0  0  0  0
    2.6121    1.7423    0.5239 C   0  0  0  0  0  0  0  0  0  0  0  0
    1.9079    2.9329    0.7867 C   0  0  0  0  0  0  0  0  0  0  0  0
    2.5569    4.1639    0.7425 C   0  0  0  0  0  0  0  0  0  0  0  0
    3.9172    4.2505    0.4117 C   0  0  0  0  0  0  0  0  0  0  0  0
    4.5315    5.6218    0.3875 C   0  0  0  0  0  0  0  0  0  0  0  0
    3.9984    6.5706    0.9367 O   0  0  0  0  0  0  0  0  0  0  0  0
    5.7204    5.7198   -0.3157 N   0  0  0  0  0  0  0  0  0  0  0  0
    6.5461    6.8352   -0.4977 C   0  0  0  0  0  0  0  0  0  0  0  0
    6.2847    8.0964    0.0735 C   0  0  0  0  0  0  0  0  0  0  0  0
    7.1636    9.1547   -0.1544 C   0  0  0  0  0  0  0  0  0  0  0  0
    8.3024    8.9670   -0.9428 C   0  0  0  0  0  0  0  0  0  0  0  0
    9.4390   10.3189   -1.2190 S   0  0  1  0  0  0  0  0  0  0  0  0
   10.1377   10.0796   -2.4792 O   0  0  0  0  0  0  0  0  0  0  0  0
    8.7335   11.5659   -0.9316 O   0  0  0  0  0  0  0  0  0  0  0  0
   10.6731   10.1493   -0.0576 N   0  0  0  0  0  0  0  0  0  0  0  0
   10.5059   10.2228    1.3339 C   0  0  0  0  0  0  0  0  0  0  0  0
    9.7525   11.2468    1.9338 C   0  0  0  0  0  0  0  0  0  0  0  0
    9.6259   11.3054    3.3203 C   0  0  0  0  0  0  0  0  0  0  0  0
   10.2617   10.3733    4.1413 C   0  0  0  0  0  0  0  0  0  0  0  0
   11.0291    9.3602    3.5604 C   0  0  0  0  0  0  0  0  0  0  0  0
   11.8261    8.2036    4.5897 Cl  0  0  0  0  0  0  0  0  0  0  0  0
   11.1450    9.2722    2.1645 C   0  0  0  0  0  0  0  0  0  0  0  0
   12.0903    7.9979    1.4304 Cl  0  0  0  0  0  0  0  0  0  0  0  0
    8.5676    7.7230   -1.5281 C   0  0  0  0  0  0  0  0  0  0  0  0
    7.6941    6.6671   -1.3018 C   0  0  0  0  0  0  0  0  0  0  0  0
    4.6209    3.0581    0.1670 C   0  0  0  0  0  0  0  0  0  0  0  0
    3.9873    1.8203    0.2315 C   0  0  0  0  0  0  0  0  0  0  0  0
    1.9675   -0.5794   -0.7349 S   0  0  1  0  0  0  0  0  0  0  0  0
    3.2700   -0.4558   -1.3857 O   0  0  0  0  0  0  0  0  0  0  0  0
    1.4737   -1.8583   -0.2284 O   0  0  0  0  0  0  0  0  0  0  0  0
    0.7303    0.0863   -1.8545 C   0  0  0  0  0  0  0  0  0  0  0  0
    1.0982    1.0811   -2.7679 C   0  0  0  0  0  0  0  0  0  0  0  0
    0.1240    1.6096   -3.6178 C   0  0  0  0  0  0  0  0  0  0  0  0
   -1.1934    1.1417   -3.5557 C   0  0  0  0  0  0  0  0  0  0  0  0
   -1.5432    0.1371   -2.6475 C   0  0  0  0  0  0  0  0  0  0  0  0
   -0.5798   -0.4003   -1.7896 C   0  0  0  0  0  0  0  0  0  0  0  0
    1.1115    0.7984    2.4944 H   0  0  0  0  0  0  0  0  0  0  0  0
    0.6933   -0.7543    1.7230 H   0  0  0  0  0  0  0  0  0  0  0  0
   -0.0983    0.7561    1.1738 H   0  0  0  0  0  0  0  0  0  0  0  0
    0.8442    2.9001    1.0253 H   0  0  0  0  0  0  0  0  0  0  0  0
    2.0160    5.0875    0.9562 H   0  0  0  0  0  0  0  0  0  0  0  0
    6.0102    4.8892   -0.8169 H   0  0  0  0  0  0  0  0  0  0  0  0
    5.3913    8.2325    0.6774 H   0  0  0  0  0  0  0  0  0  0  0  0
    6.9549   10.1387    0.2679 H   0  0  0  0  0  0  0  0  0  0  0  0
   11.3615    9.4689   -0.3749 H   0  0  0  0  0  0  0  0  0  0  0  0
    9.2828   11.9908    1.2916 H   0  0  0  0  0  0  0  0  0  0  0  0
    9.0346   12.1052    3.7718 H   0  0  0  0  0  0  0  0  0  0  0  0
   10.1797   10.4215    5.2277 H   0  0  0  0  0  0  0  0  0  0  0  0
    9.4426    7.5943   -2.1677 H   0  0  0  0  0  0  0  0  0  0  0  0
    7.8961    5.6947   -1.7603 H   0  0  0  0  0  0  0  0  0  0  0  0
    5.6970    3.0696   -0.0272 H   0  0  0  0  0  0  0  0  0  0  0  0
    4.5484    0.9030    0.0650 H   0  0  0  0  0  0  0  0  0  0  0  0
    2.1348    1.4173   -2.8196 H   0  0  0  0  0  0  0  0  0  0  0  0
    0.3973    2.3842   -4.3382 H   0  0  0  0  0  0  0  0  0  0  0  0
   -1.9500    1.5568   -4.2261 H   0  0  0  0  0  0  0  0  0  0  0  0
   -2.5689   -0.2378   -2.6120 H   0  0  0  0  0  0  0  0  0  0  0  0
   -0.8257   -1.2027   -1.0922 H   0  0  0  0  0  0  0  0  0  0  0  0
  1  2  1  0
  1 39  1  0
  1 40  1  0
  1 41  1  0
  2  3  1  0
 30  2  1  1
  3  4  2  0
  3 29  1  0
  4  5  1  0
  4 42  1  0
  5  6  2  0
  5 43  1  0
  6  7  1  0
  6 28  1  0
  7  8  2  0
  7  9  1  0
  9 10  1  0
  9 44  1  0
 10 11  2  0
 10 27  1  0
 11 12  1  0
 11 45  1  0
 12 13  2  0
 12 46  1  0
 13 14  1  0
 13 26  1  0
 14 15  2  0
 14 16  2  0
 14 17  1  1
 17 18  1  0
 17 47  1  0
 18 19  2  0
 18 24  1  0
 19 20  1  0
 19 48  1  0
 20 21  2  0
 20 49  1  0
 21 22  1  0
 21 50  1  0
 22 23  1  0
 22 24  2  0
 24 25  1  0
 26 27  2  0
 26 51  1  0
 27 52  1  0
 28 29  2  0
 28 53  1  0
 29 54  1  0
 30 31  2  0
 30 32  2  0
 30 33  1  0
 33 34  2  0
 33 38  1  0
 34 35  1  0
 34 55  1  0
 35 36  2  0
 35 56  1  0
 36 37  1  0
 36 57  1  0
 37 38  2  0
 37 58  1  0
 38 59  1  0
M  END

