
     RDKit          3D

 57 59  0  0  0  0  0  0  0  0999 V2000
   -1.2162    2.5308    1.2431 C   0  0  0  0  0  0  0  0  0  0  0  0
   -0.8551    1.1918    0.9594 O   0  0  0  0  0  0  0  0  0  0  0  0
   -0.6694    0.8114   -0.3361 C   0  0  0  0  0  0  0  0  0  0  0  0
   -0.8681    1.6354   -1.4461 C   0  0  0  0  0  0  0  0  0  0  0  0
   -0.6460    1.1367   -2.7371 C   0  0  0  0  0  0  0  0  0  0  0  0
   -0.2269   -0.1795   -2.9169 C   0  0  0  0  0  0  0  0  0  0  0  0
   -0.0243   -1.0157   -1.8121 C   0  0  0  0  0  0  0  0  0  0  0  0
   -0.2434   -0.5313   -0.5175 C   0  0  0  0  0  0  0  0  0  0  0  0
   -0.0691   -1.2866    0.6558 N   0  0  0  0  0  0  0  0  0  0  0  0
    0.3829   -2.5639    0.7849 C   0  0  0  0  0  0  0  0  0  0  0  0
    0.7178   -3.3005   -0.1281 O   0  0  0  0  0  0  0  0  0  0  0  0
    0.4453   -3.1009    2.2260 C   0  0  1  0  0  0  0  0  0  0  0  0
    1.8041   -3.7126    2.5382 C   0  0  0  0  0  0  0  0  0  0  0  0
    0.1374   -2.0408    3.1590 O   0  0  0  0  0  0  0  0  0  0  0  0
   -0.5472   -2.3541    4.2794 C   0  0  0  0  0  0  0  0  0  0  0  0
   -0.9201   -3.4699    4.5510 O   0  0  0  0  0  0  0  0  0  0  0  0
   -0.8021   -1.1578    5.1384 C   0  0  0  0  0  0  0  0  0  0  0  0
   -1.6046   -1.3197    6.2768 C   0  0  0  0  0  0  0  0  0  0  0  0
   -1.8945   -0.2307    7.0941 C   0  0  0  0  0  0  0  0  0  0  0  0
   -1.3848    1.0364    6.7850 C   0  0  0  0  0  0  0  0  0  0  0  0
   -1.8034    2.3585    7.8335 Cl  0  0  0  0  0  0  0  0  0  0  0  0
   -0.5601    1.2030    5.6580 C   0  0  0  0  0  0  0  0  0  0  0  0
    0.0955    2.8052    5.1173 S   0  0  1  0  0  0  0  0  0  0  0  0
    0.9950    2.4947    3.9970 O   0  0  0  0  0  0  0  0  0  0  0  0
   -1.0397    3.7098    4.9169 O   0  0  0  0  0  0  0  0  0  0  0  0
    0.9815    3.3612    6.4120 N   0  0  0  0  0  0  0  0  0  0  0  0
    2.3798    2.9218    6.5346 C   0  0  0  0  0  0  0  0  0  0  0  0
    3.3518    3.9659    5.9754 C   0  0  0  0  0  0  0  0  0  0  0  0
    3.0954    5.3464    6.5951 C   0  0  0  0  0  0  0  0  0  0  0  0
    1.6249    5.7594    6.4425 C   0  0  0  0  0  0  0  0  0  0  0  0
    0.6844    4.6808    6.9890 C   0  0  0  0  0  0  0  0  0  0  0  0
   -0.2783    0.1062    4.8400 C   0  0  0  0  0  0  0  0  0  0  0  0
   -1.2548    2.6317    2.3332 H   0  0  0  0  0  0  0  0  0  0  0  0
   -2.2031    2.7795    0.8146 H   0  0  0  0  0  0  0  0  0  0  0  0
   -0.4642    3.2386    0.8542 H   0  0  0  0  0  0  0  0  0  0  0  0
   -1.1951    2.6666   -1.3135 H   0  0  0  0  0  0  0  0  0  0  0  0
   -0.8044    1.7904   -3.5982 H   0  0  0  0  0  0  0  0  0  0  0  0
   -0.0520   -0.5700   -3.9221 H   0  0  0  0  0  0  0  0  0  0  0  0
    0.3071   -2.0446   -1.9335 H   0  0  0  0  0  0  0  0  0  0  0  0
   -0.2937   -0.7909    1.5127 H   0  0  0  0  0  0  0  0  0  0  0  0
   -0.3365   -3.8708    2.3189 H   0  0  0  0  0  0  0  0  0  0  0  0
    2.5871   -2.9386    2.5387 H   0  0  0  0  0  0  0  0  0  0  0  0
    2.0437   -4.4541    1.7639 H   0  0  0  0  0  0  0  0  0  0  0  0
    1.7841   -4.2090    3.5190 H   0  0  0  0  0  0  0  0  0  0  0  0
   -2.0014   -2.3108    6.5044 H   0  0  0  0  0  0  0  0  0  0  0  0
   -2.5250   -0.3453    7.9771 H   0  0  0  0  0  0  0  0  0  0  0  0
    2.5001    1.9569    6.0236 H   0  0  0  0  0  0  0  0  0  0  0  0
    2.5736    2.7497    7.6091 H   0  0  0  0  0  0  0  0  0  0  0  0
    3.2167    4.0101    4.8817 H   0  0  0  0  0  0  0  0  0  0  0  0
    4.3883    3.6390    6.1633 H   0  0  0  0  0  0  0  0  0  0  0  0
    3.7558    6.1002    6.1364 H   0  0  0  0  0  0  0  0  0  0  0  0
    3.3554    5.3186    7.6701 H   0  0  0  0  0  0  0  0  0  0  0  0
    1.3886    5.9248    5.3767 H   0  0  0  0  0  0  0  0  0  0  0  0
    1.4302    6.7110    6.9651 H   0  0  0  0  0  0  0  0  0  0  0  0
   -0.3658    4.9211    6.7866 H   0  0  0  0  0  0  0  0  0  0  0  0
    0.7998    4.5867    8.0841 H   0  0  0  0  0  0  0  0  0  0  0  0
    0.3532    0.2566    3.9649 H   0  0  0  0  0  0  0  0  0  0  0  0
  1  2  1  0
  1 33  1  0
  1 34  1  0
  1 35  1  0
  2  3  1  0
  3  4  2  0
  3  8  1  0
  4  5  1  0
  4 36  1  0
  5  6  2  0
  5 37  1  0
  6  7  1  0
  6 38  1  0
  7  8  2  0
  7 39  1  0
  8  9  1  0
  9 10  1  0
  9 40  1  0
 10 11  2  0
 10 12  1  0
 12 13  1  0
 12 14  1  0
 12 41  1  6
 13 42  1  0
 13 43  1  0
 13 44  1  0
 14 15  1  0
 15 16  2  0
 15 17  1  0
 17 18  2  0
 17 32  1  0
 18 19  1  0
 18 45  1  0
 19 20  2  0
 19 46  1  0
 20 21  1  0
 20 22  1  0
 23 22  1  1
 22 32  2  0
 23 24  2  0
 23 25  2  0
 23 26  1  0
 26 27  1  0
 26 31  1  0
 27 28  1  0
 27 47  1  0
 27 48  1  0
 28 29  1  0
 28 49  1  0
 28 50  1  0
 29 30  1  0
 29 51  1  0
 29 52  1  0
 30 31  1  0
 30 53  1  0
 30 54  1  0
 31 55  1  0
 31 56  1  0
 32 57  1  0
M  END

