
     RDKit          3D

 51 52  0  0  0  0  0  0  0  0999 V2000
    3.7356   -0.0084    1.3420 C   0  0  0  0  0  0  0  0  0  0  0  0
    4.9060   -0.6702    0.6120 C   0  0  0  0  0  0  0  0  0  0  0  0
    4.7272   -0.7762   -0.8278 N   0  0  0  0  0  0  0  0  0  0  0  0
    5.0530    0.2854   -1.6503 C   0  0  0  0  0  0  0  0  0  0  0  0
    5.6040    1.2986   -1.2403 O   0  0  0  0  0  0  0  0  0  0  0  0
    4.7370    0.1238   -2.9836 N   0  0  0  0  0  0  0  0  0  0  0  0
    5.0799    1.1797   -3.9406 C   0  0  0  0  0  0  0  0  0  0  0  0
    4.4470    0.6874   -5.2434 C   0  0  0  0  0  0  0  0  0  0  0  0
    4.5456   -0.8432   -5.1246 C   0  0  2  0  0  0  0  0  0  0  0  0
    3.6824   -1.5805   -6.0204 N   0  0  0  0  0  0  0  0  0  0  0  0
    4.1342   -2.5644   -6.8573 C   0  0  0  0  0  0  0  0  0  0  0  0
    5.2984   -2.9279   -6.8885 O   0  0  0  0  0  0  0  0  0  0  0  0
    3.0796   -3.1634   -7.7858 C   0  0  1  0  0  0  0  0  0  0  0  0
    3.2597   -2.7394   -9.2521 C   0  0  0  0  0  0  0  0  0  0  0  0
    2.7580   -3.9384  -10.0566 C   0  0  0  0  0  0  0  0  0  0  0  0
    2.5155   -3.9279  -11.2498 O   0  0  0  0  0  0  0  0  0  0  0  0
    2.6767   -5.0166   -9.2065 N   0  0  0  0  0  0  0  0  0  0  0  0
    2.4303   -6.4063   -9.6931 C   0  0  1  0  0  0  0  0  0  0  0  0
    3.5656   -6.8170  -10.6522 C   0  0  0  0  0  0  0  0  0  0  0  0
    2.3943   -7.3785   -8.5028 C   0  0  0  0  0  0  0  0  0  0  0  0
    1.0686   -6.4558  -10.4127 C   0  0  0  0  0  0  0  0  0  0  0  0
    3.1748   -4.7005   -7.8673 C   0  0  0  0  0  0  0  0  0  0  0  0
    4.2695   -1.0945   -3.6243 C   0  0  0  0  0  0  0  0  0  0  0  0
    3.9257    0.0314    2.4271 H   0  0  0  0  0  0  0  0  0  0  0  0
    2.7954   -0.5641    1.1860 H   0  0  0  0  0  0  0  0  0  0  0  0
    3.5942    1.0220    0.9816 H   0  0  0  0  0  0  0  0  0  0  0  0
    5.0849   -1.6835    1.0098 H   0  0  0  0  0  0  0  0  0  0  0  0
    5.8223   -0.0858    0.7764 H   0  0  0  0  0  0  0  0  0  0  0  0
    4.0605   -1.4619   -1.1604 H   0  0  0  0  0  0  0  0  0  0  0  0
    6.1762    1.2860   -4.0337 H   0  0  0  0  0  0  0  0  0  0  0  0
    4.6944    2.1531   -3.6035 H   0  0  0  0  0  0  0  0  0  0  0  0
    4.9475    1.0749   -6.1425 H   0  0  0  0  0  0  0  0  0  0  0  0
    3.3850    0.9879   -5.2916 H   0  0  0  0  0  0  0  0  0  0  0  0
    5.5685   -1.1714   -5.3596 H   0  0  0  0  0  0  0  0  0  0  0  0
    2.7017   -1.3257   -6.0580 H   0  0  0  0  0  0  0  0  0  0  0  0
    2.0665   -2.8843   -7.4510 H   0  0  0  0  0  0  0  0  0  0  0  0
    4.3277   -2.6013   -9.4925 H   0  0  0  0  0  0  0  0  0  0  0  0
    2.7258   -1.8231   -9.5395 H   0  0  0  0  0  0  0  0  0  0  0  0
    4.5397   -6.7919  -10.1371 H   0  0  0  0  0  0  0  0  0  0  0  0
    3.6063   -6.1385  -11.5149 H   0  0  0  0  0  0  0  0  0  0  0  0
    3.4031   -7.8420  -11.0215 H   0  0  0  0  0  0  0  0  0  0  0  0
    3.3478   -7.4052   -7.9539 H   0  0  0  0  0  0  0  0  0  0  0  0
    2.2028   -8.3939   -8.8806 H   0  0  0  0  0  0  0  0  0  0  0  0
    1.5876   -7.1321   -7.7949 H   0  0  0  0  0  0  0  0  0  0  0  0
    1.0553   -5.7717  -11.2700 H   0  0  0  0  0  0  0  0  0  0  0  0
    0.2585   -6.1704   -9.7225 H   0  0  0  0  0  0  0  0  0  0  0  0
    0.8701   -7.4787  -10.7699 H   0  0  0  0  0  0  0  0  0  0  0  0
    4.2263   -5.0109   -7.7322 H   0  0  0  0  0  0  0  0  0  0  0  0
    2.5724   -5.1815   -7.0842 H   0  0  0  0  0  0  0  0  0  0  0  0
    4.8046   -1.9874   -3.2586 H   0  0  0  0  0  0  0  0  0  0  0  0
    3.1838   -1.2672   -3.4644 H   0  0  0  0  0  0  0  0  0  0  0  0
  1  2  1  0
  1 24  1  0
  1 25  1  0
  1 26  1  0
  2  3  1  0
  2 27  1  0
  2 28  1  0
  3  4  1  0
  3 29  1  0
  4  5  2  0
  4  6  1  0
  6  7  1  0
  6 23  1  0
  7  8  1  0
  7 30  1  0
  7 31  1  0
  8  9  1  0
  8 32  1  0
  8 33  1  0
  9 10  1  0
  9 23  1  0
  9 34  1  6
 10 11  1  0
 10 35  1  0
 11 12  2  0
 11 13  1  0
 13 14  1  0
 13 22  1  0
 13 36  1  1
 14 15  1  0
 14 37  1  0
 14 38  1  0
 15 16  2  0
 15 17  1  0
 17 18  1  0
 17 22  1  0
 18 19  1  6
 18 20  1  0
 18 21  1  0
 19 39  1  0
 19 40  1  0
 19 41  1  0
 20 42  1  0
 20 43  1  0
 20 44  1  0
 21 45  1  0
 21 46  1  0
 21 47  1  0
 22 48  1  0
 22 49  1  0
 23 50  1  0
 23 51  1  0
M  END

