
     RDKit          3D

 40 42  0  0  0  0  0  0  0  0999 V2000
    3.1171    2.9618    0.3498 C   0  0  0  0  0  0  0  0  0  0  0  0
    2.4478    1.8020   -0.3968 C   0  0  1  0  0  0  0  0  0  0  0  0
    0.9222    1.9524   -0.4051 C   0  0  0  0  0  0  0  0  0  0  0  0
    2.9884    1.6541   -1.8394 C   0  0  0  0  0  0  0  0  0  0  0  0
    4.4441    1.3046   -1.9243 C   0  0  0  0  0  0  0  0  0  0  0  0
    5.3755    2.0156   -2.5858 C   0  0  0  0  0  0  0  0  0  0  0  0
    6.8073    1.7056   -2.7097 C   0  0  0  0  0  0  0  0  0  0  0  0
    7.6378    2.5779   -3.4483 C   0  0  0  0  0  0  0  0  0  0  0  0
    8.9991    2.3325   -3.5969 C   0  0  0  0  0  0  0  0  0  0  0  0
    9.5845    1.2020   -3.0109 C   0  0  0  0  0  0  0  0  0  0  0  0
    8.7705    0.3178   -2.2684 C   0  0  0  0  0  0  0  0  0  0  0  0
    7.4055    0.5735   -2.1261 C   0  0  0  0  0  0  0  0  0  0  0  0
    9.3426   -0.9041   -1.6218 C   0  0  0  0  0  0  0  0  0  0  0  0
    8.6439   -1.6711   -0.9798 O   0  0  0  0  0  0  0  0  0  0  0  0
   10.8077   -1.1465   -1.7950 C   0  0  0  0  0  0  0  0  0  0  0  0
   11.3819   -2.2811   -1.2035 C   0  0  0  0  0  0  0  0  0  0  0  0
   12.7454   -2.5339   -1.3476 C   0  0  0  0  0  0  0  0  0  0  0  0
   13.5489   -1.6534   -2.0855 C   0  0  0  0  0  0  0  0  0  0  0  0
   12.9866   -0.5228   -2.6772 C   0  0  0  0  0  0  0  0  0  0  0  0
   11.6164   -0.2604   -2.5376 C   0  0  0  0  0  0  0  0  0  0  0  0
   11.0444    0.9617   -3.1849 C   0  0  0  0  0  0  0  0  0  0  0  0
   11.7472    1.7261   -3.8271 O   0  0  0  0  0  0  0  0  0  0  0  0
    2.7524    3.0287    1.3874 H   0  0  0  0  0  0  0  0  0  0  0  0
    2.8974    3.9252   -0.1427 H   0  0  0  0  0  0  0  0  0  0  0  0
    4.2118    2.8488    0.3834 H   0  0  0  0  0  0  0  0  0  0  0  0
    2.6910    0.8661    0.1418 H   0  0  0  0  0  0  0  0  0  0  0  0
    0.6182    2.8677   -0.9418 H   0  0  0  0  0  0  0  0  0  0  0  0
    0.5227    2.0213    0.6194 H   0  0  0  0  0  0  0  0  0  0  0  0
    0.4326    1.0978   -0.9000 H   0  0  0  0  0  0  0  0  0  0  0  0
    2.7883    2.5813   -2.4054 H   0  0  0  0  0  0  0  0  0  0  0  0
    2.4090    0.8531   -2.3371 H   0  0  0  0  0  0  0  0  0  0  0  0
    4.7411    0.3877   -1.3996 H   0  0  0  0  0  0  0  0  0  0  0  0
    5.0559    2.9300   -3.0999 H   0  0  0  0  0  0  0  0  0  0  0  0
    7.1963    3.4645   -3.9115 H   0  0  0  0  0  0  0  0  0  0  0  0
    9.6390    3.0078   -4.1681 H   0  0  0  0  0  0  0  0  0  0  0  0
    6.8233   -0.1420   -1.5435 H   0  0  0  0  0  0  0  0  0  0  0  0
   10.7328   -2.9495   -0.6346 H   0  0  0  0  0  0  0  0  0  0  0  0
   13.1879   -3.4195   -0.8846 H   0  0  0  0  0  0  0  0  0  0  0  0
   14.6176   -1.8530   -2.1976 H   0  0  0  0  0  0  0  0  0  0  0  0
   13.5883    0.1796   -3.2571 H   0  0  0  0  0  0  0  0  0  0  0  0
  1  2  1  0
  1 23  1  0
  1 24  1  0
  1 25  1  0
  2  3  1  0
  2  4  1  0
  2 26  1  1
  3 27  1  0
  3 28  1  0
  3 29  1  0
  4  5  1  0
  4 30  1  0
  4 31  1  0
  5  6  2  0
  5 32  1  0
  6  7  1  0
  6 33  1  0
  7  8  2  0
  7 12  1  0
  8  9  1  0
  8 34  1  0
  9 10  2  0
  9 35  1  0
 10 11  1  0
 10 21  1  0
 11 12  2  0
 11 13  1  0
 12 36  1  0
 13 14  2  0
 13 15  1  0
 15 16  2  0
 15 20  1  0
 16 17  1  0
 16 37  1  0
 17 18  2  0
 17 38  1  0
 18 19  1  0
 18 39  1  0
 19 20  2  0
 19 40  1  0
 20 21  1  0
 21 22  2  0
M  END

