
     RDKit          3D

 59 62  0  0  0  0  0  0  0  0999 V2000
    3.2323   -1.2046    0.3037 C   0  0  0  0  0  0  0  0  0  0  0  0
    2.7761   -0.0798    1.0178 O   0  0  0  0  0  0  0  0  0  0  0  0
    3.4137    1.1098    0.8594 C   0  0  0  0  0  0  0  0  0  0  0  0
    4.5252    1.3165    0.0291 C   0  0  0  0  0  0  0  0  0  0  0  0
    5.0999    2.5883   -0.0673 C   0  0  0  0  0  0  0  0  0  0  0  0
    4.5999    3.6704    0.6692 C   0  0  0  0  0  0  0  0  0  0  0  0
    5.2085    4.9550    0.5835 N   0  0  0  0  0  0  0  0  0  0  0  0
    4.4240    6.1104    0.3918 C   0  0  0  0  0  0  0  0  0  0  0  0
    4.8036    7.3491    0.9500 C   0  0  0  0  0  0  0  0  0  0  0  0
    4.0269    8.4845    0.7518 C   0  0  0  0  0  0  0  0  0  0  0  0
    2.8384    8.4625   -0.0116 C   0  0  0  0  0  0  0  0  0  0  0  0
    2.0721    9.7073   -0.1533 C   0  0  0  0  0  0  0  0  0  0  0  0
    1.2389   10.1256   -1.1429 C   0  0  0  0  0  0  0  0  0  0  0  0
    0.9885    9.3486   -2.4141 C   0  0  0  0  0  0  0  0  0  0  0  0
    0.5291   11.4278   -0.9846 C   0  0  0  0  0  0  0  0  0  0  0  0
    0.3659   12.3225   -2.0620 C   0  0  0  0  0  0  0  0  0  0  0  0
   -0.2762   13.5509   -1.8941 C   0  0  0  0  0  0  0  0  0  0  0  0
   -0.7868   13.9173   -0.6452 C   0  0  0  0  0  0  0  0  0  0  0  0
   -0.6469   13.0391    0.4333 C   0  0  0  0  0  0  0  0  0  0  0  0
   -0.0018   11.8124    0.2644 C   0  0  0  0  0  0  0  0  0  0  0  0
    2.4554    7.2105   -0.5397 C   0  0  0  0  0  0  0  0  0  0  0  0
    3.2274    6.0668   -0.3518 C   0  0  0  0  0  0  0  0  0  0  0  0
    6.6247    5.0520    0.6946 C   0  0  0  0  0  0  0  0  0  0  0  0
    7.3736    5.8094   -0.2278 C   0  0  0  0  0  0  0  0  0  0  0  0
    8.7561    5.8994   -0.1202 C   0  0  0  0  0  0  0  0  0  0  0  0
    9.4408    5.2175    0.9016 C   0  0  0  0  0  0  0  0  0  0  0  0
   10.7924    5.3585    0.9176 O   0  0  0  0  0  0  0  0  0  0  0  0
   11.5396    4.7075    1.9181 C   0  0  0  0  0  0  0  0  0  0  0  0
    8.7064    4.4499    1.8175 C   0  0  0  0  0  0  0  0  0  0  0  0
    7.3129    4.3813    1.7145 C   0  0  0  0  0  0  0  0  0  0  0  0
    3.4916    3.4484    1.5103 C   0  0  0  0  0  0  0  0  0  0  0  0
    2.9020    2.1931    1.5960 C   0  0  0  0  0  0  0  0  0  0  0  0
    2.5769   -2.0410    0.5823 H   0  0  0  0  0  0  0  0  0  0  0  0
    4.2742   -1.4658    0.5655 H   0  0  0  0  0  0  0  0  0  0  0  0
    3.1711   -1.0527   -0.7896 H   0  0  0  0  0  0  0  0  0  0  0  0
    4.9479    0.5011   -0.5584 H   0  0  0  0  0  0  0  0  0  0  0  0
    5.9582    2.7403   -0.7250 H   0  0  0  0  0  0  0  0  0  0  0  0
    5.7127    7.4133    1.5501 H   0  0  0  0  0  0  0  0  0  0  0  0
    4.3452    9.4270    1.2067 H   0  0  0  0  0  0  0  0  0  0  0  0
    2.2476   10.4200    0.6601 H   0  0  0  0  0  0  0  0  0  0  0  0
    1.8201    8.6730   -2.6562 H   0  0  0  0  0  0  0  0  0  0  0  0
    0.8381   10.0199   -3.2719 H   0  0  0  0  0  0  0  0  0  0  0  0
    0.0696    8.7396   -2.3370 H   0  0  0  0  0  0  0  0  0  0  0  0
    0.7695   12.0693   -3.0448 H   0  0  0  0  0  0  0  0  0  0  0  0
   -0.3749   14.2288   -2.7462 H   0  0  0  0  0  0  0  0  0  0  0  0
   -1.2954   14.8761   -0.5158 H   0  0  0  0  0  0  0  0  0  0  0  0
   -1.0545   13.3044    1.4126 H   0  0  0  0  0  0  0  0  0  0  0  0
    0.0729   11.1230    1.1083 H   0  0  0  0  0  0  0  0  0  0  0  0
    1.5219    7.1156   -1.0946 H   0  0  0  0  0  0  0  0  0  0  0  0
    2.8964    5.1202   -0.7821 H   0  0  0  0  0  0  0  0  0  0  0  0
    6.8580    6.3338   -1.0349 H   0  0  0  0  0  0  0  0  0  0  0  0
    9.3393    6.4867   -0.8324 H   0  0  0  0  0  0  0  0  0  0  0  0
   12.5934    4.9597    1.7378 H   0  0  0  0  0  0  0  0  0  0  0  0
   11.4232    3.6090    1.8720 H   0  0  0  0  0  0  0  0  0  0  0  0
   11.2596    5.0494    2.9314 H   0  0  0  0  0  0  0  0  0  0  0  0
    9.2026    3.9097    2.6242 H   0  0  0  0  0  0  0  0  0  0  0  0
    6.7505    3.7896    2.4397 H   0  0  0  0  0  0  0  0  0  0  0  0
    3.0910    4.2763    2.0990 H   0  0  0  0  0  0  0  0  0  0  0  0
    2.0420    2.0178    2.2458 H   0  0  0  0  0  0  0  0  0  0  0  0
  1  2  1  0
  1 33  1  0
  1 34  1  0
  1 35  1  0
  2  3  1  0
  3  4  2  0
  3 32  1  0
  4  5  1  0
  4 36  1  0
  5  6  2  0
  5 37  1  0
  6  7  1  0
  6 31  1  0
  7  8  1  0
  7 23  1  0
  8  9  2  0
  8 22  1  0
  9 10  1  0
  9 38  1  0
 10 11  2  0
 10 39  1  0
 11 12  1  0
 11 21  1  0
 12 13  2  0
 12 40  1  0
 13 14  1  0
 13 15  1  0
 14 41  1  0
 14 42  1  0
 14 43  1  0
 15 16  2  0
 15 20  1  0
 16 17  1  0
 16 44  1  0
 17 18  2  0
 17 45  1  0
 18 19  1  0
 18 46  1  0
 19 20  2  0
 19 47  1  0
 20 48  1  0
 21 22  2  0
 21 49  1  0
 22 50  1  0
 23 24  2  0
 23 30  1  0
 24 25  1  0
 24 51  1  0
 25 26  2  0
 25 52  1  0
 26 27  1  0
 26 29  1  0
 27 28  1  0
 28 53  1  0
 28 54  1  0
 28 55  1  0
 29 30  2  0
 29 56  1  0
 30 57  1  0
 31 32  2  0
 31 58  1  0
 32 59  1  0
M  END

