
     RDKit          3D

 46 50  0  0  0  0  0  0  0  0999 V2000
    2.0696   -1.6943    0.6292 O   0  0  0  0  0  0  0  0  0  0  0  0
    2.5985   -0.7461    0.0740 C   0  0  0  0  0  0  0  0  0  0  0  0
    2.7206   -0.7007   -1.2982 N   0  0  0  0  0  0  0  0  0  0  0  0
    2.0069   -1.6030   -2.1530 C   0  0  2  0  0  0  0  0  0  0  0  0
    2.2464   -1.2336   -3.6516 C   0  0  0  0  0  0  0  0  0  0  0  0
    2.2516    0.2452   -3.9868 C   0  0  0  0  0  0  0  0  0  0  0  0
    1.0680    0.9990   -4.0235 C   0  0  0  0  0  0  0  0  0  0  0  0
    1.0717    2.3695   -4.3431 C   0  0  0  0  0  0  0  0  0  0  0  0
    2.2940    2.9542   -4.6264 C   0  0  0  0  0  0  0  0  0  0  0  0
    3.4790    2.2182   -4.5929 C   0  0  0  0  0  0  0  0  0  0  0  0
    3.4915    0.8708   -4.2765 C   0  0  0  0  0  0  0  0  0  0  0  0
    4.5302    3.0313   -4.9124 O   0  0  0  0  0  0  0  0  0  0  0  0
    3.9769    4.3149   -5.2001 C   0  0  0  0  0  0  0  0  0  0  0  0
    2.5726    4.2477   -4.9665 O   0  0  0  0  0  0  0  0  0  0  0  0
    0.4501   -1.7245   -1.8519 C   0  0  0  0  0  0  0  0  0  0  0  0
   -0.2710   -0.7521   -1.8162 O   0  0  0  0  0  0  0  0  0  0  0  0
    0.1093   -3.0462   -1.7257 N   0  0  0  0  0  0  0  0  0  0  0  0
    1.2242   -3.7497   -1.7381 C   0  0  0  0  0  0  0  0  0  0  0  0
    1.3830   -5.1576   -1.5630 C   0  0  0  0  0  0  0  0  0  0  0  0
    2.6439   -5.7055   -1.5693 C   0  0  0  0  0  0  0  0  0  0  0  0
    3.8029   -4.8962   -1.7473 C   0  0  0  0  0  0  0  0  0  0  0  0
    3.6334   -3.5459   -1.9297 C   0  0  0  0  0  0  0  0  0  0  0  0
    2.3890   -3.0157   -1.9429 N   0  0  0  0  0  0  0  0  0  0  0  0
    3.2017    0.3985    0.8398 C   0  0  0  0  0  0  0  0  0  0  0  0
    3.4824    0.1831    2.1984 C   0  0  0  0  0  0  0  0  0  0  0  0
    4.0322    1.2015    2.9766 C   0  0  0  0  0  0  0  0  0  0  0  0
    4.2939    2.4536    2.4092 C   0  0  0  0  0  0  0  0  0  0  0  0
    3.9984    2.6834    1.0623 C   0  0  0  0  0  0  0  0  0  0  0  0
    3.4544    1.6616    0.2801 C   0  0  0  0  0  0  0  0  0  0  0  0
    3.1208    0.1186   -1.7394 H   0  0  0  0  0  0  0  0  0  0  0  0
    1.4847   -1.7660   -4.2416 H   0  0  0  0  0  0  0  0  0  0  0  0
    3.2198   -1.6599   -3.9425 H   0  0  0  0  0  0  0  0  0  0  0  0
    0.1236    0.5185   -3.7678 H   0  0  0  0  0  0  0  0  0  0  0  0
    0.1481    2.9496   -4.3677 H   0  0  0  0  0  0  0  0  0  0  0  0
    4.4294    0.3112   -4.2764 H   0  0  0  0  0  0  0  0  0  0  0  0
    4.1678    4.5740   -6.2583 H   0  0  0  0  0  0  0  0  0  0  0  0
    4.4296    5.0724   -4.5357 H   0  0  0  0  0  0  0  0  0  0  0  0
    0.4833   -5.7536   -1.4108 H   0  0  0  0  0  0  0  0  0  0  0  0
    2.7637   -6.7825   -1.4251 H   0  0  0  0  0  0  0  0  0  0  0  0
    4.8042   -5.3262   -1.7311 H   0  0  0  0  0  0  0  0  0  0  0  0
    4.4604   -2.8435   -2.0553 H   0  0  0  0  0  0  0  0  0  0  0  0
    3.2542   -0.7963    2.6231 H   0  0  0  0  0  0  0  0  0  0  0  0
    4.2533    1.0216    4.0317 H   0  0  0  0  0  0  0  0  0  0  0  0
    4.7205    3.2538    3.0195 H   0  0  0  0  0  0  0  0  0  0  0  0
    4.1824    3.6655    0.6198 H   0  0  0  0  0  0  0  0  0  0  0  0
    3.2000    1.8746   -0.7613 H   0  0  0  0  0  0  0  0  0  0  0  0
  1  2  2  0
  2  3  1  0
  2 24  1  0
  4  3  1  1
  3 30  1  0
  4  5  1  0
  4 15  1  0
  4 23  1  0
  5  6  1  0
  5 31  1  0
  5 32  1  0
  6  7  2  0
  6 11  1  0
  7  8  1  0
  7 33  1  0
  8  9  2  0
  8 34  1  0
  9 10  1  0
  9 14  1  0
 10 11  2  0
 10 12  1  0
 11 35  1  0
 12 13  1  0
 13 14  1  0
 13 36  1  0
 13 37  1  0
 15 16  2  0
 15 17  1  0
 17 18  2  0
 18 19  1  0
 18 23  1  0
 19 20  2  0
 19 38  1  0
 20 21  1  0
 20 39  1  0
 21 22  2  0
 21 40  1  0
 22 23  1  0
 22 41  1  0
 24 25  2  0
 24 29  1  0
 25 26  1  0
 25 42  1  0
 26 27  2  0
 26 43  1  0
 27 28  1  0
 27 44  1  0
 28 29  2  0
 28 45  1  0
 29 46  1  0
M  END

