
     RDKit          3D

 44 45  0  0  0  0  0  0  0  0999 V2000
    3.4465    1.6494   -3.7074 C   0  0  0  0  0  0  0  0  0  0  0  0
    2.9688    0.3222   -3.1079 C   0  0  1  0  0  0  0  0  0  0  0  0
    3.0713   -0.8283   -4.1181 C   0  0  0  0  0  0  0  0  0  0  0  0
    3.6622    0.0038   -1.7527 C   0  0  1  0  0  0  0  0  0  0  0  0
    3.6493    0.9399   -1.1614 H   0  0  0  0  0  0  0  0  0  0  0  0
    2.9749   -1.1048   -1.0834 N   0  0  0  0  0  0  0  0  0  0  0  0
    5.1583   -0.3160   -1.9393 C   0  0  0  0  0  0  0  0  0  0  0  0
    5.9707    0.5635   -2.2056 O   0  0  0  0  0  0  0  0  0  0  0  0
    5.4810   -1.6244   -1.7934 N   0  0  0  0  0  0  0  0  0  0  0  0
    6.8377   -2.1271   -1.9453 C   0  0  0  0  0  0  0  0  0  0  0  0
    7.1895   -2.5666   -3.3566 C   0  0  0  0  0  0  0  0  0  0  0  0
    7.2803   -3.9227   -3.6967 C   0  0  0  0  0  0  0  0  0  0  0  0
    7.5924   -4.2920   -5.0085 C   0  0  0  0  0  0  0  0  0  0  0  0
    7.8175   -3.3348   -5.9987 C   0  0  0  0  0  0  0  0  0  0  0  0
    7.7297   -1.9701   -5.6637 C   0  0  0  0  0  0  0  0  0  0  0  0
    7.9455   -0.9309   -6.5889 N   0  0  0  0  0  0  0  0  0  0  0  0
    8.2629   -1.0047   -7.9265 C   0  0  0  0  0  0  0  0  0  0  0  0
    8.4101   -2.0506   -8.5391 O   0  0  0  0  0  0  0  0  0  0  0  0
    8.4180    0.3333   -8.5921 C   0  0  1  0  0  0  0  0  0  0  0  0
    9.4488    0.4375   -9.7012 C   0  0  0  0  0  0  0  0  0  0  0  0
    7.9970    0.4341  -10.0467 C   0  0  0  0  0  0  0  0  0  0  0  0
    7.4182   -1.6007   -4.3444 C   0  0  0  0  0  0  0  0  0  0  0  0
    2.8927    1.8716   -4.6339 H   0  0  0  0  0  0  0  0  0  0  0  0
    4.5210    1.6170   -3.9380 H   0  0  0  0  0  0  0  0  0  0  0  0
    3.2874    2.4868   -3.0091 H   0  0  0  0  0  0  0  0  0  0  0  0
    1.8983    0.4477   -2.8506 H   0  0  0  0  0  0  0  0  0  0  0  0
    4.1088   -0.9704   -4.4615 H   0  0  0  0  0  0  0  0  0  0  0  0
    2.4548   -0.6165   -5.0063 H   0  0  0  0  0  0  0  0  0  0  0  0
    2.7267   -1.7802   -3.6868 H   0  0  0  0  0  0  0  0  0  0  0  0
    1.9645   -1.0162   -1.1885 H   0  0  0  0  0  0  0  0  0  0  0  0
    3.1663   -1.0960   -0.0816 H   0  0  0  0  0  0  0  0  0  0  0  0
    4.6969   -2.2533   -1.6341 H   0  0  0  0  0  0  0  0  0  0  0  0
    6.9744   -2.9698   -1.2500 H   0  0  0  0  0  0  0  0  0  0  0  0
    7.5131   -1.3166   -1.6328 H   0  0  0  0  0  0  0  0  0  0  0  0
    7.1113   -4.6898   -2.9355 H   0  0  0  0  0  0  0  0  0  0  0  0
    7.6650   -5.3509   -5.2709 H   0  0  0  0  0  0  0  0  0  0  0  0
    8.0615   -3.6190   -7.0194 H   0  0  0  0  0  0  0  0  0  0  0  0
    7.8522    0.0022   -6.2050 H   0  0  0  0  0  0  0  0  0  0  0  0
    8.2671    1.2179   -7.9658 H   0  0  0  0  0  0  0  0  0  0  0  0
   10.0166   -0.4733   -9.9084 H   0  0  0  0  0  0  0  0  0  0  0  0
   10.0109    1.3722   -9.7759 H   0  0  0  0  0  0  0  0  0  0  0  0
    7.5878   -0.4790  -10.4867 H   0  0  0  0  0  0  0  0  0  0  0  0
    7.5248    1.3664  -10.3679 H   0  0  0  0  0  0  0  0  0  0  0  0
    7.3457   -0.5439   -4.0699 H   0  0  0  0  0  0  0  0  0  0  0  0
  1  2  1  0
  1 23  1  0
  1 24  1  0
  1 25  1  0
  2  3  1  0
  2  4  1  0
  2 26  1  1
  3 27  1  0
  3 28  1  0
  3 29  1  0
  4  5  1  1
  4  6  1  0
  4  7  1  0
  6 30  1  0
  6 31  1  0
  7  8  2  0
  7  9  1  0
  9 10  1  0
  9 32  1  0
 10 11  1  0
 10 33  1  0
 10 34  1  0
 11 12  2  0
 11 22  1  0
 12 13  1  0
 12 35  1  0
 13 14  2  0
 13 36  1  0
 14 15  1  0
 14 37  1  0
 15 16  1  0
 15 22  2  0
 16 17  1  0
 16 38  1  0
 17 18  2  0
 17 19  1  0
 19 20  1  0
 19 21  1  0
 19 39  1  1
 20 21  1  0
 20 40  1  0
 20 41  1  0
 21 42  1  0
 21 43  1  0
 22 44  1  0
M  END

