
     RDKit          3D

 53 54  0  0  0  0  0  0  0  0999 V2000
    9.7353   -3.5126   -5.2711 C   0  0  0  0  0  0  0  0  0  0  0  0
    8.5086   -2.8594   -4.6797 C   0  0  0  0  0  0  0  0  0  0  0  0
    8.1763   -1.5334   -4.9772 C   0  0  0  0  0  0  0  0  0  0  0  0
    7.0357   -0.9475   -4.4108 C   0  0  0  0  0  0  0  0  0  0  0  0
    6.2190   -1.6702   -3.5488 C   0  0  0  0  0  0  0  0  0  0  0  0
    6.5422   -3.0046   -3.2427 C   0  0  0  0  0  0  0  0  0  0  0  0
    5.6934   -3.6438   -2.3941 O   0  0  0  0  0  0  0  0  0  0  0  0
    5.9308   -4.9897   -2.0359 C   0  0  0  0  0  0  0  0  0  0  0  0
    4.8337   -5.3939   -1.0511 C   0  0  0  0  0  0  0  0  0  0  0  0
    4.9219   -6.7840   -0.6609 N   0  0  0  0  0  0  0  0  0  0  0  0
    5.7167   -7.2122    0.3556 C   0  0  0  0  0  0  0  0  0  0  0  0
    6.4416   -6.4849    1.0140 O   0  0  0  0  0  0  0  0  0  0  0  0
    5.5936   -8.7135    0.6652 C   0  0  0  0  0  0  0  0  0  0  0  0
    5.0236   -9.5008   -0.4192 N   0  0  0  0  0  0  0  0  0  0  0  0
    5.9909   -9.9000   -1.4469 C   0  0  0  0  0  0  0  0  0  0  0  0
    6.8441  -11.1099   -1.0379 C   0  0  0  0  0  0  0  0  0  0  0  0
    5.9551  -12.2869   -0.6131 C   0  0  0  0  0  0  0  0  0  0  0  0
    4.9352  -11.8715    0.4639 C   0  0  2  0  0  0  0  0  0  0  0  0
    3.9463  -12.9842    0.8387 C   0  0  0  0  0  0  0  0  0  0  0  0
    4.5763  -14.2048    1.5075 C   0  0  0  0  0  0  0  0  0  0  0  0
    3.5511  -15.2543    1.9226 C   0  0  0  0  0  0  0  0  0  0  0  0
    2.3669  -15.1517    1.7625 O   0  0  0  0  0  0  0  0  0  0  0  0
    4.0680  -16.3609    2.5100 O   0  0  0  0  0  0  0  0  0  0  0  0
    4.1715  -10.6202   -0.0222 C   0  0  0  0  0  0  0  0  0  0  0  0
    7.6812   -3.5920   -3.8077 C   0  0  0  0  0  0  0  0  0  0  0  0
   10.2665   -2.8322   -5.9526 H   0  0  0  0  0  0  0  0  0  0  0  0
    9.4726   -4.4212   -5.8387 H   0  0  0  0  0  0  0  0  0  0  0  0
   10.4439   -3.8202   -4.4834 H   0  0  0  0  0  0  0  0  0  0  0  0
    8.8100   -0.9534   -5.6530 H   0  0  0  0  0  0  0  0  0  0  0  0
    6.7836    0.0896   -4.6477 H   0  0  0  0  0  0  0  0  0  0  0  0
    5.3271   -1.2323   -3.0964 H   0  0  0  0  0  0  0  0  0  0  0  0
    6.9181   -5.1056   -1.5540 H   0  0  0  0  0  0  0  0  0  0  0  0
    5.9045   -5.6435   -2.9292 H   0  0  0  0  0  0  0  0  0  0  0  0
    3.8499   -5.2037   -1.5072 H   0  0  0  0  0  0  0  0  0  0  0  0
    4.9205   -4.7648   -0.1522 H   0  0  0  0  0  0  0  0  0  0  0  0
    4.3791   -7.5081   -1.1251 H   0  0  0  0  0  0  0  0  0  0  0  0
    4.9378   -8.7853    1.5488 H   0  0  0  0  0  0  0  0  0  0  0  0
    6.5955   -9.0393    1.0043 H   0  0  0  0  0  0  0  0  0  0  0  0
    6.6259   -9.0342   -1.6933 H   0  0  0  0  0  0  0  0  0  0  0  0
    5.4285  -10.1503   -2.3655 H   0  0  0  0  0  0  0  0  0  0  0  0
    7.5116  -10.8296   -0.2041 H   0  0  0  0  0  0  0  0  0  0  0  0
    7.5004  -11.4021   -1.8749 H   0  0  0  0  0  0  0  0  0  0  0  0
    6.5824  -13.1229   -0.2612 H   0  0  0  0  0  0  0  0  0  0  0  0
    5.4012  -12.6638   -1.4945 H   0  0  0  0  0  0  0  0  0  0  0  0
    5.4962  -11.5869    1.3758 H   0  0  0  0  0  0  0  0  0  0  0  0
    3.3969  -13.3143   -0.0598 H   0  0  0  0  0  0  0  0  0  0  0  0
    3.1775  -12.5804    1.5181 H   0  0  0  0  0  0  0  0  0  0  0  0
    5.1426  -13.9059    2.4099 H   0  0  0  0  0  0  0  0  0  0  0  0
    5.3096  -14.6958    0.8427 H   0  0  0  0  0  0  0  0  0  0  0  0
    5.0318  -16.2965    2.5699 H   0  0  0  0  0  0  0  0  0  0  0  0
    3.4705  -10.2747    0.7549 H   0  0  0  0  0  0  0  0  0  0  0  0
    3.5551  -10.9065   -0.8954 H   0  0  0  0  0  0  0  0  0  0  0  0
    7.9443   -4.6251   -3.5755 H   0  0  0  0  0  0  0  0  0  0  0  0
  1  2  1  0
  1 26  1  0
  1 27  1  0
  1 28  1  0
  2  3  2  0
  2 25  1  0
  3  4  1  0
  3 29  1  0
  4  5  2  0
  4 30  1  0
  5  6  1  0
  5 31  1  0
  6  7  1  0
  6 25  2  0
  7  8  1  0
  8  9  1  0
  8 32  1  0
  8 33  1  0
  9 10  1  0
  9 34  1  0
  9 35  1  0
 10 11  1  0
 10 36  1  0
 11 12  2  0
 11 13  1  0
 13 14  1  0
 13 37  1  0
 13 38  1  0
 14 15  1  0
 14 24  1  0
 15 16  1  0
 15 39  1  0
 15 40  1  0
 16 17  1  0
 16 41  1  0
 16 42  1  0
 17 18  1  0
 17 43  1  0
 17 44  1  0
 18 19  1  0
 18 24  1  0
 18 45  1  1
 19 20  1  0
 19 46  1  0
 19 47  1  0
 20 21  1  0
 20 48  1  0
 20 49  1  0
 21 22  2  0
 21 23  1  0
 23 50  1  0
 24 51  1  0
 24 52  1  0
 25 53  1  0
M  END

