
     RDKit          3D

 42 43  0  0  0  0  0  0  0  0999 V2000
    3.5468   -3.0491   -3.7571 C   0  0  0  0  0  0  0  0  0  0  0  0
    3.8147   -4.1161   -2.7282 C   0  0  0  0  0  0  0  0  0  0  0  0
    4.8540   -5.0390   -2.9215 C   0  0  0  0  0  0  0  0  0  0  0  0
    5.1461   -6.0442   -1.9965 C   0  0  0  0  0  0  0  0  0  0  0  0
    4.3840   -6.1439   -0.8322 C   0  0  0  0  0  0  0  0  0  0  0  0
    4.7678   -7.5050    0.4446 Br  0  0  0  0  0  0  0  0  0  0  0  0
    3.3397   -5.2494   -0.5947 C   0  0  0  0  0  0  0  0  0  0  0  0
    3.0638   -4.2573   -1.5405 C   0  0  0  0  0  0  0  0  0  0  0  0
    1.7198   -3.1227   -1.1204 S   0  0  1  0  0  0  0  0  0  0  0  0
    1.1987   -3.5564    0.1812 O   0  0  0  0  0  0  0  0  0  0  0  0
    2.1720   -1.7447   -1.3304 O   0  0  0  0  0  0  0  0  0  0  0  0
    0.5751   -3.3975   -2.3199 N   0  0  0  0  0  0  0  0  0  0  0  0
   -0.5018   -4.3729   -2.1155 C   0  0  0  0  0  0  0  0  0  0  0  0
   -1.7005   -3.8817   -1.2930 C   0  0  0  0  0  0  0  0  0  0  0  0
   -2.4475   -2.6563   -1.8596 C   0  0  1  0  0  0  0  0  0  0  0  0
   -3.0949   -2.8912   -3.2434 C   0  0  0  0  0  0  0  0  0  0  0  0
   -4.3352   -3.7956   -3.1822 C   0  0  0  0  0  0  0  0  0  0  0  0
   -5.3734   -3.2575   -2.1882 C   0  0  0  0  0  0  0  0  0  0  0  0
   -4.7606   -3.0328   -0.7995 C   0  0  0  0  0  0  0  0  0  0  0  0
   -3.5158   -2.1359   -0.8720 C   0  0  0  0  0  0  0  0  0  0  0  0
    4.2620   -3.1232   -4.5881 H   0  0  0  0  0  0  0  0  0  0  0  0
    3.6141   -2.0464   -3.3109 H   0  0  0  0  0  0  0  0  0  0  0  0
    2.5278   -3.1477   -4.1636 H   0  0  0  0  0  0  0  0  0  0  0  0
    5.4590   -4.9655   -3.8291 H   0  0  0  0  0  0  0  0  0  0  0  0
    5.9637   -6.7430   -2.1811 H   0  0  0  0  0  0  0  0  0  0  0  0
    2.7381   -5.3048    0.3124 H   0  0  0  0  0  0  0  0  0  0  0  0
    0.3090   -2.4985   -2.7191 H   0  0  0  0  0  0  0  0  0  0  0  0
   -0.0574   -5.2514   -1.6235 H   0  0  0  0  0  0  0  0  0  0  0  0
   -0.8177   -4.7131   -3.1155 H   0  0  0  0  0  0  0  0  0  0  0  0
   -1.3387   -3.6393   -0.2812 H   0  0  0  0  0  0  0  0  0  0  0  0
   -2.3893   -4.7360   -1.1801 H   0  0  0  0  0  0  0  0  0  0  0  0
   -1.7006   -1.8481   -1.9705 H   0  0  0  0  0  0  0  0  0  0  0  0
   -2.3611   -3.3008   -3.9586 H   0  0  0  0  0  0  0  0  0  0  0  0
   -3.3956   -1.9101   -3.6534 H   0  0  0  0  0  0  0  0  0  0  0  0
   -4.0421   -4.8193   -2.8866 H   0  0  0  0  0  0  0  0  0  0  0  0
   -4.7798   -3.8870   -4.1876 H   0  0  0  0  0  0  0  0  0  0  0  0
   -6.2350   -3.9433   -2.1234 H   0  0  0  0  0  0  0  0  0  0  0  0
   -5.7699   -2.2971   -2.5676 H   0  0  0  0  0  0  0  0  0  0  0  0
   -4.4969   -4.0084   -0.3529 H   0  0  0  0  0  0  0  0  0  0  0  0
   -5.5051   -2.5821   -0.1218 H   0  0  0  0  0  0  0  0  0  0  0  0
   -3.0707   -2.0148    0.1300 H   0  0  0  0  0  0  0  0  0  0  0  0
   -3.8277   -1.1265   -1.1959 H   0  0  0  0  0  0  0  0  0  0  0  0
  1  2  1  0
  1 21  1  0
  1 22  1  0
  1 23  1  0
  2  3  2  0
  2  8  1  0
  3  4  1  0
  3 24  1  0
  4  5  2  0
  4 25  1  0
  5  6  1  0
  5  7  1  0
  7  8  2  0
  7 26  1  0
  8  9  1  0
  9 10  2  0
  9 11  2  0
  9 12  1  6
 12 13  1  0
 12 27  1  0
 13 14  1  0
 13 28  1  0
 13 29  1  0
 14 15  1  0
 14 30  1  0
 14 31  1  0
 15 16  1  0
 15 20  1  0
 15 32  1  6
 16 17  1  0
 16 33  1  0
 16 34  1  0
 17 18  1  0
 17 35  1  0
 17 36  1  0
 18 19  1  0
 18 37  1  0
 18 38  1  0
 19 20  1  0
 19 39  1  0
 19 40  1  0
 20 41  1  0
 20 42  1  0
M  END

