
     RDKit          3D

 26 27  0  0  0  0  0  0  0  0999 V2000
    5.2804   -3.5312   -0.0203 O   0  0  0  0  0  0  0  0  0  0  0  0
    5.3354   -2.6631   -0.8585 C   0  0  0  0  0  0  0  0  0  0  0  0
    6.4164   -2.4966   -1.6434 O   0  0  0  0  0  0  0  0  0  0  0  0
    4.2262   -1.7260   -1.0813 C   0  0  0  0  0  0  0  0  0  0  0  0
    4.3470   -0.7621   -2.0448 O   0  0  0  0  0  0  0  0  0  0  0  0
    3.1986   -0.0468   -2.0399 C   0  0  0  0  0  0  0  0  0  0  0  0
    2.3359   -0.5273   -1.0927 C   0  0  0  0  0  0  0  0  0  0  0  0
    3.0015   -1.6260   -0.4629 C   0  0  0  0  0  0  0  0  0  0  0  0
    2.4917   -2.4978    0.6427 C   0  0  0  0  0  0  0  0  0  0  0  0
    1.1908   -2.0640    0.9882 O   0  0  0  0  0  0  0  0  0  0  0  0
    0.5182   -2.7138    1.9753 C   0  0  0  0  0  0  0  0  0  0  0  0
    1.0246   -3.8050    2.6967 C   0  0  0  0  0  0  0  0  0  0  0  0
    0.2402   -4.3965    3.6937 C   0  0  0  0  0  0  0  0  0  0  0  0
   -1.0311   -3.9134    3.9737 C   0  0  0  0  0  0  0  0  0  0  0  0
   -1.7694   -4.4876    4.9282 F   0  0  0  0  0  0  0  0  0  0  0  0
   -1.5396   -2.8222    3.2536 C   0  0  0  0  0  0  0  0  0  0  0  0
   -3.1339   -2.2267    3.6143 Cl  0  0  0  0  0  0  0  0  0  0  0  0
   -0.7684   -2.2258    2.2596 C   0  0  0  0  0  0  0  0  0  0  0  0
    6.2729   -1.7530   -2.2505 H   0  0  0  0  0  0  0  0  0  0  0  0
    3.1357    0.7672   -2.7578 H   0  0  0  0  0  0  0  0  0  0  0  0
    1.3419   -0.1566   -0.8589 H   0  0  0  0  0  0  0  0  0  0  0  0
    3.1745   -2.4434    1.5106 H   0  0  0  0  0  0  0  0  0  0  0  0
    2.4879   -3.5546    0.3181 H   0  0  0  0  0  0  0  0  0  0  0  0
    2.0183   -4.2054    2.4991 H   0  0  0  0  0  0  0  0  0  0  0  0
    0.6132   -5.2468    4.2683 H   0  0  0  0  0  0  0  0  0  0  0  0
   -1.1576   -1.3776    1.6962 H   0  0  0  0  0  0  0  0  0  0  0  0
  1  2  2  0
  2  3  1  0
  2  4  1  0
  3 19  1  0
  4  5  1  0
  4  8  2  0
  5  6  1  0
  6  7  2  0
  6 20  1  0
  7  8  1  0
  7 21  1  0
  8  9  1  0
  9 10  1  0
  9 22  1  0
  9 23  1  0
 10 11  1  0
 11 12  2  0
 11 18  1  0
 12 13  1  0
 12 24  1  0
 13 14  2  0
 13 25  1  0
 14 15  1  0
 14 16  1  0
 16 17  1  0
 16 18  2  0
 18 26  1  0
M  END

