
     RDKit          3D

 70 73  0  0  0  0  0  0  0  0999 V2000
   10.2667    2.7136    2.5717 N   0  0  0  0  0  0  0  0  0  0  0  0
    9.5319    1.8610    1.7830 C   0  0  0  0  0  0  0  0  0  0  0  0
    9.1494    0.5764    2.2415 C   0  0  0  0  0  0  0  0  0  0  0  0
    8.3853   -0.2244    1.4079 C   0  0  0  0  0  0  0  0  0  0  0  0
    7.9945    0.2418    0.1375 C   0  0  0  0  0  0  0  0  0  0  0  0
    7.1888   -0.6128   -0.8100 C   0  0  0  0  0  0  0  0  0  0  0  0
    7.9906   -1.7954   -1.4168 C   0  0  1  0  0  0  0  0  0  0  0  0
    7.1393   -2.6833   -2.2102 N   0  0  0  0  0  0  0  0  0  0  0  0
    6.3019   -3.5856   -1.6252 C   0  0  0  0  0  0  0  0  0  0  0  0
    6.1629   -3.6534   -0.4122 O   0  0  0  0  0  0  0  0  0  0  0  0
    5.5344   -4.4935   -2.6049 C   0  0  1  0  0  0  0  0  0  0  0  0
    5.7991   -5.9713   -2.3145 C   0  0  0  0  0  0  0  0  0  0  0  0
    5.4917   -6.5504   -1.0728 C   0  0  0  0  0  0  0  0  0  0  0  0
    5.7281   -7.9046   -0.8352 C   0  0  0  0  0  0  0  0  0  0  0  0
    6.2751   -8.6992   -1.8476 C   0  0  0  0  0  0  0  0  0  0  0  0
    6.5675  -10.3988   -1.5542 Cl  0  0  0  0  0  0  0  0  0  0  0  0
    6.5907   -8.1470   -3.0901 C   0  0  0  0  0  0  0  0  0  0  0  0
    6.3514   -6.7881   -3.3114 C   0  0  0  0  0  0  0  0  0  0  0  0
    4.0395   -4.1582   -2.6391 C   0  0  0  0  0  0  0  0  0  0  0  0
    3.3099   -3.8098   -1.4914 C   0  0  0  0  0  0  0  0  0  0  0  0
    1.9399   -3.5454   -1.5637 C   0  0  0  0  0  0  0  0  0  0  0  0
    1.2828   -3.6305   -2.7933 C   0  0  0  0  0  0  0  0  0  0  0  0
   -0.4321   -3.2999   -2.8883 Cl  0  0  0  0  0  0  0  0  0  0  0  0
    1.9869   -3.9749   -3.9501 C   0  0  0  0  0  0  0  0  0  0  0  0
    3.3555   -4.2342   -3.8627 C   0  0  0  0  0  0  0  0  0  0  0  0
    9.1956   -1.3497   -2.2618 C   0  0  0  0  0  0  0  0  0  0  0  0
   10.3404   -1.5674   -1.9134 O   0  0  0  0  0  0  0  0  0  0  0  0
    8.8752   -0.7285   -3.4446 N   0  0  0  0  0  0  0  0  0  0  0  0
    9.8959   -0.1920   -4.3428 C   0  0  0  0  0  0  0  0  0  0  0  0
   10.0382    1.3155   -4.2656 C   0  0  0  0  0  0  0  0  0  0  0  0
   10.4717    1.9280   -3.0777 C   0  0  0  0  0  0  0  0  0  0  0  0
   10.5651    3.3159   -2.9837 C   0  0  0  0  0  0  0  0  0  0  0  0
   10.2422    4.1428   -4.0746 C   0  0  0  0  0  0  0  0  0  0  0  0
   10.4038    5.6432   -3.9959 C   0  0  0  0  0  0  0  0  0  0  0  0
   11.7662    6.1255   -4.5291 C   0  0  0  0  0  0  0  0  0  0  0  0
   11.9740    5.8137   -5.8876 O   0  0  0  0  0  0  0  0  0  0  0  0
    9.8232    3.5261   -5.2650 C   0  0  0  0  0  0  0  0  0  0  0  0
    9.7178    2.1336   -5.3560 C   0  0  0  0  0  0  0  0  0  0  0  0
    8.4164    1.5316   -0.1996 C   0  0  0  0  0  0  0  0  0  0  0  0
    9.1635    2.3170    0.5795 N   0  0  0  0  0  0  0  0  0  0  0  0
   10.8133    2.3300    3.3311 H   0  0  0  0  0  0  0  0  0  0  0  0
   10.6507    3.5250    2.1022 H   0  0  0  0  0  0  0  0  0  0  0  0
    9.4495    0.2299    3.2334 H   0  0  0  0  0  0  0  0  0  0  0  0
    8.0803   -1.2206    1.7428 H   0  0  0  0  0  0  0  0  0  0  0  0
    6.7724    0.0095   -1.6204 H   0  0  0  0  0  0  0  0  0  0  0  0
    6.3326   -1.0613   -0.2832 H   0  0  0  0  0  0  0  0  0  0  0  0
    8.4149   -2.3811   -0.5896 H   0  0  0  0  0  0  0  0  0  0  0  0
    7.2805   -2.7153   -3.2126 H   0  0  0  0  0  0  0  0  0  0  0  0
    5.9198   -4.3013   -3.6175 H   0  0  0  0  0  0  0  0  0  0  0  0
    5.0814   -5.9307   -0.2754 H   0  0  0  0  0  0  0  0  0  0  0  0
    5.4909   -8.3483    0.1332 H   0  0  0  0  0  0  0  0  0  0  0  0
    7.0198   -8.7743   -3.8730 H   0  0  0  0  0  0  0  0  0  0  0  0
    6.6026   -6.3610   -4.2867 H   0  0  0  0  0  0  0  0  0  0  0  0
    3.8225   -3.7309   -0.5317 H   0  0  0  0  0  0  0  0  0  0  0  0
    1.3804   -3.2712   -0.6678 H   0  0  0  0  0  0  0  0  0  0  0  0
    1.4659   -4.0368   -4.9069 H   0  0  0  0  0  0  0  0  0  0  0  0
    3.8992   -4.5066   -4.7719 H   0  0  0  0  0  0  0  0  0  0  0  0
    7.9277   -0.3854   -3.5651 H   0  0  0  0  0  0  0  0  0  0  0  0
    9.6617   -0.4935   -5.3767 H   0  0  0  0  0  0  0  0  0  0  0  0
   10.8347   -0.6841   -4.0511 H   0  0  0  0  0  0  0  0  0  0  0  0
   10.7307    1.3090   -2.2152 H   0  0  0  0  0  0  0  0  0  0  0  0
   10.8769    3.7634   -2.0358 H   0  0  0  0  0  0  0  0  0  0  0  0
   10.2985    5.9801   -2.9512 H   0  0  0  0  0  0  0  0  0  0  0  0
    9.6119    6.1383   -4.5818 H   0  0  0  0  0  0  0  0  0  0  0  0
   12.5751    5.7181   -3.8885 H   0  0  0  0  0  0  0  0  0  0  0  0
   11.8152    7.2238   -4.4510 H   0  0  0  0  0  0  0  0  0  0  0  0
   12.0159    4.8509   -5.9692 H   0  0  0  0  0  0  0  0  0  0  0  0
    9.5584    4.1456   -6.1263 H   0  0  0  0  0  0  0  0  0  0  0  0
    9.3758    1.6799   -6.2915 H   0  0  0  0  0  0  0  0  0  0  0  0
    8.1353    1.9565   -1.1714 H   0  0  0  0  0  0  0  0  0  0  0  0
  1  2  1  0
  1 41  1  0
  1 42  1  0
  2  3  2  0
  2 40  1  0
  3  4  1  0
  3 43  1  0
  4  5  2  0
  4 44  1  0
  5  6  1  0
  5 39  1  0
  6  7  1  0
  6 45  1  0
  6 46  1  0
  7  8  1  0
  7 26  1  0
  7 47  1  1
  8  9  1  0
  8 48  1  0
  9 10  2  0
  9 11  1  0
 11 12  1  0
 11 19  1  0
 11 49  1  6
 12 13  2  0
 12 18  1  0
 13 14  1  0
 13 50  1  0
 14 15  2  0
 14 51  1  0
 15 16  1  0
 15 17  1  0
 17 18  2  0
 17 52  1  0
 18 53  1  0
 19 20  2  0
 19 25  1  0
 20 21  1  0
 20 54  1  0
 21 22  2  0
 21 55  1  0
 22 23  1  0
 22 24  1  0
 24 25  2  0
 24 56  1  0
 25 57  1  0
 26 27  2  0
 26 28  1  0
 28 29  1  0
 28 58  1  0
 29 30  1  0
 29 59  1  0
 29 60  1  0
 30 31  2  0
 30 38  1  0
 31 32  1  0
 31 61  1  0
 32 33  2  0
 32 62  1  0
 33 34  1  0
 33 37  1  0
 34 35  1  0
 34 63  1  0
 34 64  1  0
 35 36  1  0
 35 65  1  0
 35 66  1  0
 36 67  1  0
 37 38  2  0
 37 68  1  0
 38 69  1  0
 39 40  2  0
 39 70  1  0
M  END

