
     RDKit          3D

 42 44  0  0  0  0  0  0  0  0999 V2000
    0.7776    0.3390   -0.2142 C   0  0  0  0  0  0  0  0  0  0  0  0
    2.2831    0.0541   -0.1355 C   0  0  1  0  0  0  0  0  0  0  0  0
    2.6333   -1.4193   -0.4197 C   0  0  0  0  0  0  0  0  0  0  0  0
    2.5028   -1.7623   -1.9199 C   0  0  2  0  0  0  0  0  0  0  0  0
    2.9510   -3.1904   -2.2248 C   0  0  0  0  0  0  0  0  0  0  0  0
    3.8306   -3.4776   -2.9894 O   0  0  0  0  0  0  0  0  0  0  0  0
    2.2804   -4.1635   -1.5622 O   0  0  0  0  0  0  0  0  0  0  0  0
    3.2865   -0.7566   -2.7676 C   0  0  0  0  0  0  0  0  0  0  0  0
    2.8658    0.6116   -2.4771 N   0  0  0  0  0  0  0  0  0  0  0  0
    3.4279    1.5783   -3.4048 C   0  0  0  0  0  0  0  0  0  0  0  0
    2.7826    1.5238   -4.7568 C   0  0  0  0  0  0  0  0  0  0  0  0
    1.5282    1.2083   -5.1911 C   0  0  0  0  0  0  0  0  0  0  0  0
    1.5892    1.4270   -6.6069 C   0  0  0  0  0  0  0  0  0  0  0  0
    0.5258    1.2467   -7.6148 C   0  0  0  0  0  0  0  0  0  0  0  0
   -0.7658    0.8434   -7.2368 C   0  0  0  0  0  0  0  0  0  0  0  0
   -1.7678    0.6743   -8.1952 C   0  0  0  0  0  0  0  0  0  0  0  0
   -1.4938    0.9058   -9.5457 C   0  0  0  0  0  0  0  0  0  0  0  0
   -0.2099    1.3082   -9.9320 C   0  0  0  0  0  0  0  0  0  0  0  0
    0.7921    1.4776   -8.9775 C   0  0  0  0  0  0  0  0  0  0  0  0
    2.7905    1.8407   -6.9629 N   0  0  0  0  0  0  0  0  0  0  0  0
    3.5371    1.8967   -5.8060 O   0  0  0  0  0  0  0  0  0  0  0  0
    3.0922    0.9604   -1.0781 C   0  0  0  0  0  0  0  0  0  0  0  0
    0.2090   -0.3319    0.4504 H   0  0  0  0  0  0  0  0  0  0  0  0
    0.3944    0.2192   -1.2385 H   0  0  0  0  0  0  0  0  0  0  0  0
    0.5602    1.3739    0.0955 H   0  0  0  0  0  0  0  0  0  0  0  0
    2.6172    0.2788    0.8925 H   0  0  0  0  0  0  0  0  0  0  0  0
    1.9980   -2.0765    0.2001 H   0  0  0  0  0  0  0  0  0  0  0  0
    3.6750   -1.6119   -0.1089 H   0  0  0  0  0  0  0  0  0  0  0  0
    1.4362   -1.6954   -2.2051 H   0  0  0  0  0  0  0  0  0  0  0  0
    1.5965   -3.7803   -0.9951 H   0  0  0  0  0  0  0  0  0  0  0  0
    3.1275   -0.9710   -3.8337 H   0  0  0  0  0  0  0  0  0  0  0  0
    4.3741   -0.8977   -2.5785 H   0  0  0  0  0  0  0  0  0  0  0  0
    4.5270    1.4699   -3.5396 H   0  0  0  0  0  0  0  0  0  0  0  0
    3.2711    2.5886   -2.9883 H   0  0  0  0  0  0  0  0  0  0  0  0
    0.6948    0.8710   -4.5839 H   0  0  0  0  0  0  0  0  0  0  0  0
   -0.9950    0.6603   -6.1849 H   0  0  0  0  0  0  0  0  0  0  0  0
   -2.7674    0.3600   -7.8842 H   0  0  0  0  0  0  0  0  0  0  0  0
   -2.2774    0.7730  -10.2959 H   0  0  0  0  0  0  0  0  0  0  0  0
    0.0119    1.4904  -10.9867 H   0  0  0  0  0  0  0  0  0  0  0  0
    1.7953    1.7900   -9.2723 H   0  0  0  0  0  0  0  0  0  0  0  0
    2.7963    2.0109   -0.9246 H   0  0  0  0  0  0  0  0  0  0  0  0
    4.1735    0.8886   -0.8142 H   0  0  0  0  0  0  0  0  0  0  0  0
  1  2  1  0
  1 23  1  0
  1 24  1  0
  1 25  1  0
  2  3  1  0
  2 22  1  0
  2 26  1  1
  3  4  1  0
  3 27  1  0
  3 28  1  0
  4  5  1  0
  4  8  1  0
  4 29  1  6
  5  6  2  0
  5  7  1  0
  7 30  1  0
  8  9  1  0
  8 31  1  0
  8 32  1  0
  9 10  1  0
  9 22  1  0
 10 11  1  0
 10 33  1  0
 10 34  1  0
 11 12  2  0
 11 21  1  0
 12 13  1  0
 12 35  1  0
 13 14  1  0
 13 20  2  0
 14 15  2  0
 14 19  1  0
 15 16  1  0
 15 36  1  0
 16 17  2  0
 16 37  1  0
 17 18  1  0
 17 38  1  0
 18 19  2  0
 18 39  1  0
 19 40  1  0
 20 21  1  0
 22 41  1  0
 22 42  1  0
M  END

