
     RDKit          3D

 60 63  0  0  0  0  0  0  0  0999 V2000
    1.9903   -5.8357    0.0241 C   0  0  0  0  0  0  0  0  0  0  0  0
    1.8760   -5.5427   -1.4753 C   0  0  1  0  0  0  0  0  0  0  0  0
    2.1568   -6.7824   -2.3304 C   0  0  0  0  0  0  0  0  0  0  0  0
    0.5060   -4.9503   -1.8103 C   0  0  0  0  0  0  0  0  0  0  0  0
    2.7964   -4.4604   -1.8462 O   0  0  0  0  0  0  0  0  0  0  0  0
    4.1317   -4.5819   -1.7006 C   0  0  0  0  0  0  0  0  0  0  0  0
    4.7243   -5.5405   -1.2759 O   0  0  0  0  0  0  0  0  0  0  0  0
    4.6979   -3.3859   -2.1336 N   0  0  0  0  0  0  0  0  0  0  0  0
    6.0287   -2.9875   -2.1358 C   0  0  0  0  0  0  0  0  0  0  0  0
    6.3008   -1.7517   -2.2370 N   0  0  0  0  0  0  0  0  0  0  0  0
    7.6794   -1.2800   -2.3651 C   0  0  2  0  0  0  0  0  0  0  0  0
    7.9791   -0.4147   -1.1276 C   0  0  0  0  0  0  0  0  0  0  0  0
    7.7378   -0.4371   -3.6595 C   0  0  0  0  0  0  0  0  0  0  0  0
    8.1271    0.9051   -3.6916 C   0  0  0  0  0  0  0  0  0  0  0  0
    8.1508    1.6585   -4.8812 C   0  0  0  0  0  0  0  0  0  0  0  0
    8.5682    3.0601   -4.8550 C   0  0  0  0  0  0  0  0  0  0  0  0
    8.9734    3.9167   -3.8642 C   0  0  0  0  0  0  0  0  0  0  0  0
    9.2265    5.1386   -4.5541 C   0  0  0  0  0  0  0  0  0  0  0  0
    9.6920    6.4050   -3.9505 C   0  0  0  0  0  0  0  0  0  0  0  0
    9.8934    6.3867   -2.6243 N   0  0  0  0  0  0  0  0  0  0  0  0
   10.3122    7.5110   -2.0497 C   0  0  0  0  0  0  0  0  0  0  0  0
   10.5301    8.6591   -2.8084 C   0  0  0  0  0  0  0  0  0  0  0  0
   10.9494    9.7881   -2.2388 F   0  0  0  0  0  0  0  0  0  0  0  0
   10.2962    8.5909   -4.1824 C   0  0  0  0  0  0  0  0  0  0  0  0
    9.8781    7.4646   -4.7484 N   0  0  0  0  0  0  0  0  0  0  0  0
    8.9932    5.0247   -5.8471 N   0  0  0  0  0  0  0  0  0  0  0  0
    8.5833    3.7284   -6.0325 O   0  0  0  0  0  0  0  0  0  0  0  0
    7.7660    1.0480   -6.0856 C   0  0  0  0  0  0  0  0  0  0  0  0
    7.3735   -0.2884   -6.0870 C   0  0  0  0  0  0  0  0  0  0  0  0
    7.3677   -1.0012   -4.8932 C   0  0  0  0  0  0  0  0  0  0  0  0
    7.0033   -2.2961   -4.9445 F   0  0  0  0  0  0  0  0  0  0  0  0
    8.7036   -2.4521   -2.4795 C   0  0  0  0  0  0  0  0  0  0  0  0
    8.2401   -3.7468   -1.8037 C   0  0  1  0  0  0  0  0  0  0  0  0
    8.8101   -4.5880   -2.2254 H   0  0  0  0  0  0  0  0  0  0  0  0
    8.4646   -3.8726   -0.2863 C   0  0  1  0  0  0  0  0  0  0  0  0
    9.6948   -3.4366    0.0420 F   0  0  0  0  0  0  0  0  0  0  0  0
    7.5734   -3.1720    0.4352 F   0  0  0  0  0  0  0  0  0  0  0  0
    8.3709   -5.1494    0.0952 F   0  0  0  0  0  0  0  0  0  0  0  0
    6.8801   -4.0373   -2.0786 O   0  0  0  0  0  0  0  0  0  0  0  0
    1.2200   -6.5658    0.3177 H   0  0  0  0  0  0  0  0  0  0  0  0
    1.8283   -4.9162    0.6083 H   0  0  0  0  0  0  0  0  0  0  0  0
    2.9768   -6.2457    0.2749 H   0  0  0  0  0  0  0  0  0  0  0  0
    1.3938   -7.5505   -2.1294 H   0  0  0  0  0  0  0  0  0  0  0  0
    3.1459   -7.2023   -2.1080 H   0  0  0  0  0  0  0  0  0  0  0  0
    2.1109   -6.5281   -3.4010 H   0  0  0  0  0  0  0  0  0  0  0  0
   -0.2890   -5.6743   -1.5760 H   0  0  0  0  0  0  0  0  0  0  0  0
    0.4439   -4.6974   -2.8796 H   0  0  0  0  0  0  0  0  0  0  0  0
    0.3264   -4.0341   -1.2277 H   0  0  0  0  0  0  0  0  0  0  0  0
    4.0535   -2.6325   -2.3480 H   0  0  0  0  0  0  0  0  0  0  0  0
    7.2439    0.3983   -1.0463 H   0  0  0  0  0  0  0  0  0  0  0  0
    8.9920    0.0141   -1.1678 H   0  0  0  0  0  0  0  0  0  0  0  0
    7.9017   -1.0210   -0.2181 H   0  0  0  0  0  0  0  0  0  0  0  0
    8.4214    1.3942   -2.7647 H   0  0  0  0  0  0  0  0  0  0  0  0
    9.0839    3.7404   -2.7997 H   0  0  0  0  0  0  0  0  0  0  0  0
   10.4829    7.5181   -0.9670 H   0  0  0  0  0  0  0  0  0  0  0  0
   10.4550    9.4708   -4.8171 H   0  0  0  0  0  0  0  0  0  0  0  0
    7.7764    1.6205   -7.0138 H   0  0  0  0  0  0  0  0  0  0  0  0
    7.0702   -0.7965   -7.0043 H   0  0  0  0  0  0  0  0  0  0  0  0
    9.6851   -2.1574   -2.0825 H   0  0  0  0  0  0  0  0  0  0  0  0
    8.8495   -2.7108   -3.5352 H   0  0  0  0  0  0  0  0  0  0  0  0
  1  2  1  0
  1 40  1  0
  1 41  1  0
  1 42  1  0
  2  3  1  0
  2  4  1  0
  2  5  1  6
  3 43  1  0
  3 44  1  0
  3 45  1  0
  4 46  1  0
  4 47  1  0
  4 48  1  0
  5  6  1  0
  6  7  2  0
  6  8  1  0
  8  9  1  0
  8 49  1  0
  9 10  2  0
  9 39  1  0
 10 11  1  0
 11 12  1  1
 11 13  1  0
 11 32  1  0
 12 50  1  0
 12 51  1  0
 12 52  1  0
 13 14  2  0
 13 30  1  0
 14 15  1  0
 14 53  1  0
 15 16  1  0
 15 28  2  0
 16 17  2  0
 16 27  1  0
 17 18  1  0
 17 54  1  0
 18 19  1  0
 18 26  2  0
 19 20  2  0
 19 25  1  0
 20 21  1  0
 21 22  2  0
 21 55  1  0
 22 23  1  0
 22 24  1  0
 24 25  2  0
 24 56  1  0
 26 27  1  0
 28 29  1  0
 28 57  1  0
 29 30  2  0
 29 58  1  0
 30 31  1  0
 32 33  1  0
 32 59  1  0
 32 60  1  0
 33 34  1  6
 33 35  1  0
 33 39  1  0
 35 36  1  6
 35 37  1  0
 35 38  1  0
M  END

