
     RDKit          3D

 31 32  0  0  0  0  0  0  0  0999 V2000
    0.9139    0.8431   -1.9919 C   0  0  0  0  0  0  0  0  0  0  0  0
    2.3167    0.8819   -2.0018 O   0  0  0  0  0  0  0  0  0  0  0  0
    2.9158   -0.3284   -1.6290 C   0  0  0  0  0  0  0  0  0  0  0  0
    4.4204   -0.1878   -1.5895 C   0  0  0  0  0  0  0  0  0  0  0  0
    5.0329    1.0536   -1.7958 C   0  0  0  0  0  0  0  0  0  0  0  0
    6.4219    1.1893   -1.7195 C   0  0  0  0  0  0  0  0  0  0  0  0
    7.2243    0.0795   -1.4444 C   0  0  0  0  0  0  0  0  0  0  0  0
    6.6287   -1.1691   -1.2568 C   0  0  0  0  0  0  0  0  0  0  0  0
    5.2367   -1.3068   -1.3231 C   0  0  0  0  0  0  0  0  0  0  0  0
    4.6725   -2.6110   -1.1397 N   0  0  0  0  0  0  0  0  0  0  0  0
    4.1421   -3.1512    0.3710 S   0  0  1  0  0  0  0  0  0  0  0  0
    3.7552   -2.0229    1.2197 O   0  0  0  0  0  0  0  0  0  0  0  0
    3.2284   -4.2491    0.0617 O   0  0  0  0  0  0  0  0  0  0  0  0
    5.6027   -3.8282    1.1169 C   0  0  0  0  0  0  0  0  0  0  0  0
    6.2731   -3.2789    2.1795 C   0  0  0  0  0  0  0  0  0  0  0  0
    7.3953   -4.0700    2.5657 C   0  0  0  0  0  0  0  0  0  0  0  0
    8.4416   -3.6446    3.8735 Cl  0  0  0  0  0  0  0  0  0  0  0  0
    7.5438   -5.1991    1.7853 C   0  0  0  0  0  0  0  0  0  0  0  0
    8.8634   -6.5160    1.9411 Br  0  0  0  0  0  0  0  0  0  0  0  0
    6.3081   -5.3202    0.5691 S   0  0  0  0  0  0  0  0  0  0  0  0
    0.5494    1.8379   -2.2856 H   0  0  0  0  0  0  0  0  0  0  0  0
    0.5137    0.5996   -0.9874 H   0  0  0  0  0  0  0  0  0  0  0  0
    0.5153    0.0953   -2.7075 H   0  0  0  0  0  0  0  0  0  0  0  0
    2.6279   -1.1357   -2.3404 H   0  0  0  0  0  0  0  0  0  0  0  0
    2.5620   -0.6574   -0.6301 H   0  0  0  0  0  0  0  0  0  0  0  0
    4.3975    1.9136   -2.0084 H   0  0  0  0  0  0  0  0  0  0  0  0
    6.8787    2.1697   -1.8773 H   0  0  0  0  0  0  0  0  0  0  0  0
    8.3108    0.1805   -1.3886 H   0  0  0  0  0  0  0  0  0  0  0  0
    7.2334   -2.0582   -1.0675 H   0  0  0  0  0  0  0  0  0  0  0  0
    4.0122   -2.9469   -1.8404 H   0  0  0  0  0  0  0  0  0  0  0  0
    5.9732   -2.3507    2.6646 H   0  0  0  0  0  0  0  0  0  0  0  0
  1  2  1  0
  1 21  1  0
  1 22  1  0
  1 23  1  0
  2  3  1  0
  3  4  1  0
  3 24  1  0
  3 25  1  0
  4  5  2  0
  4  9  1  0
  5  6  1  0
  5 26  1  0
  6  7  2  0
  6 27  1  0
  7  8  1  0
  7 28  1  0
  8  9  2  0
  8 29  1  0
  9 10  1  0
 11 10  1  6
 10 30  1  0
 11 12  2  0
 11 13  2  0
 11 14  1  0
 14 15  2  0
 14 20  1  0
 15 16  1  0
 15 31  1  0
 16 17  1  0
 16 18  2  0
 18 19  1  0
 18 20  1  0
M  END

