
     RDKit          3D

 40 41  0  0  0  0  0  0  0  0999 V2000
    1.0540    0.7223    0.1096 C   0  0  0  0  0  0  0  0  0  0  0  0
    2.4841    0.2208   -0.1278 C   0  0  1  0  0  0  0  0  0  0  0  0
    2.5194   -1.2776   -0.4889 C   0  0  0  0  0  0  0  0  0  0  0  0
    2.0293   -1.5133   -1.8482 N   0  0  0  0  0  0  0  0  0  0  0  0
    1.5490   -2.7821   -2.1946 C   0  0  0  0  0  0  0  0  0  0  0  0
    1.8168   -3.3719   -3.4515 C   0  0  0  0  0  0  0  0  0  0  0  0
    1.2864   -4.6200   -3.7850 C   0  0  0  0  0  0  0  0  0  0  0  0
    0.4898   -5.3388   -2.8937 C   0  0  0  0  0  0  0  0  0  0  0  0
    0.2332   -4.7602   -1.6471 C   0  0  0  0  0  0  0  0  0  0  0  0
   -0.7727   -5.6196   -0.4945 Cl  0  0  0  0  0  0  0  0  0  0  0  0
    0.7403   -3.5137   -1.2921 C   0  0  0  0  0  0  0  0  0  0  0  0
    2.7138   -0.7100   -2.8546 C   0  0  0  0  0  0  0  0  0  0  0  0
    2.6869    0.7866   -2.4770 C   0  0  2  0  0  0  0  0  0  0  0  0
    3.3640    1.6707   -3.5319 C   0  0  0  0  0  0  0  0  0  0  0  0
    2.5811    1.8098   -4.8403 C   0  0  0  0  0  0  0  0  0  0  0  0
    3.3077    2.6603   -5.7769 N   0  0  0  0  0  0  0  0  0  0  0  0
    3.1997    1.0348   -1.1219 N   0  0  0  0  0  0  0  0  0  0  0  0
    4.6457    1.0054   -0.9646 C   0  0  0  0  0  0  0  0  0  0  0  0
    0.6275    0.2469    1.0072 H   0  0  0  0  0  0  0  0  0  0  0  0
    0.3863    0.4869   -0.7325 H   0  0  0  0  0  0  0  0  0  0  0  0
    1.0571    1.8121    0.2602 H   0  0  0  0  0  0  0  0  0  0  0  0
    3.0342    0.3326    0.8215 H   0  0  0  0  0  0  0  0  0  0  0  0
    1.9128   -1.8381    0.2322 H   0  0  0  0  0  0  0  0  0  0  0  0
    3.5582   -1.6589   -0.3912 H   0  0  0  0  0  0  0  0  0  0  0  0
    2.4567   -2.8676   -4.1739 H   0  0  0  0  0  0  0  0  0  0  0  0
    1.5155   -5.0488   -4.7644 H   0  0  0  0  0  0  0  0  0  0  0  0
    0.0799   -6.3168   -3.1469 H   0  0  0  0  0  0  0  0  0  0  0  0
    0.4761   -3.1051   -0.3181 H   0  0  0  0  0  0  0  0  0  0  0  0
    2.1946   -0.8364   -3.8139 H   0  0  0  0  0  0  0  0  0  0  0  0
    3.7629   -1.0479   -3.0066 H   0  0  0  0  0  0  0  0  0  0  0  0
    1.6220    1.0751   -2.4534 H   0  0  0  0  0  0  0  0  0  0  0  0
    4.3756    1.3068   -3.7767 H   0  0  0  0  0  0  0  0  0  0  0  0
    3.4875    2.6745   -3.0881 H   0  0  0  0  0  0  0  0  0  0  0  0
    1.5517    2.1622   -4.6055 H   0  0  0  0  0  0  0  0  0  0  0  0
    2.4616    0.8203   -5.3143 H   0  0  0  0  0  0  0  0  0  0  0  0
    3.3532    3.6168   -5.4219 H   0  0  0  0  0  0  0  0  0  0  0  0
    2.8167    2.7128   -6.6691 H   0  0  0  0  0  0  0  0  0  0  0  0
    5.1205    1.7591   -1.6089 H   0  0  0  0  0  0  0  0  0  0  0  0
    5.1322    0.0298   -1.1840 H   0  0  0  0  0  0  0  0  0  0  0  0
    4.8978    1.2671    0.0754 H   0  0  0  0  0  0  0  0  0  0  0  0
  1  2  1  0
  1 19  1  0
  1 20  1  0
  1 21  1  0
  2  3  1  0
  2 17  1  0
  2 22  1  1
  3  4  1  0
  3 23  1  0
  3 24  1  0
  4  5  1  0
  4 12  1  0
  5  6  2  0
  5 11  1  0
  6  7  1  0
  6 25  1  0
  7  8  2  0
  7 26  1  0
  8  9  1  0
  8 27  1  0
  9 10  1  0
  9 11  2  0
 11 28  1  0
 12 13  1  0
 12 29  1  0
 12 30  1  0
 13 14  1  0
 13 17  1  0
 13 31  1  1
 14 15  1  0
 14 32  1  0
 14 33  1  0
 15 16  1  0
 15 34  1  0
 15 35  1  0
 16 36  1  0
 16 37  1  0
 17 18  1  0
 18 38  1  0
 18 39  1  0
 18 40  1  0
M  END

