
     RDKit          3D

 45 45  0  0  0  0  0  0  0  0999 V2000
    2.5482    0.0537    2.7379 C   0  0  0  0  0  0  0  0  0  0  0  0
    2.6122    0.0403    1.2074 C   0  0  1  0  0  0  0  0  0  0  0  0
    3.3844   -1.1693    0.6717 C   0  0  0  0  0  0  0  0  0  0  0  0
    1.2078    0.0986    0.6040 C   0  0  0  0  0  0  0  0  0  0  0  0
    3.2261    1.2829    0.7210 O   0  0  0  0  0  0  0  0  0  0  0  0
    4.4898    1.6279    1.0339 C   0  0  0  0  0  0  0  0  0  0  0  0
    5.2592    0.9903    1.7231 O   0  0  0  0  0  0  0  0  0  0  0  0
    4.7826    2.8491    0.4683 N   0  0  0  0  0  0  0  0  0  0  0  0
    6.1417    3.3618    0.4355 C   0  0  1  0  0  0  0  0  0  0  0  0
    6.9048    2.9763   -0.8540 C   0  0  0  0  0  0  0  0  0  0  0  0
    8.3498    3.1221   -0.7814 N   0  0  0  0  0  0  0  0  0  0  0  0
    8.8157    2.3763    0.3469 O   0  0  0  0  0  0  0  0  0  0  0  0
    9.6236    1.2903   -0.0794 C   0  0  0  0  0  0  0  0  0  0  0  0
    9.9082    0.4003    1.1070 C   0  0  0  0  0  0  0  0  0  0  0  0
    8.8623   -0.0387    1.9367 C   0  0  0  0  0  0  0  0  0  0  0  0
    9.1265   -0.8847    3.0162 C   0  0  0  0  0  0  0  0  0  0  0  0
   10.4335   -1.3095    3.2803 C   0  0  0  0  0  0  0  0  0  0  0  0
   11.4787   -0.8766    2.4607 C   0  0  0  0  0  0  0  0  0  0  0  0
   11.2155   -0.0217    1.3854 C   0  0  0  0  0  0  0  0  0  0  0  0
    6.1962    4.8763    0.6900 C   0  0  0  0  0  0  0  0  0  0  0  0
    5.1781    5.3856    1.4295 N   0  0  0  0  0  0  0  0  0  0  0  0
    7.1134    5.5617    0.2624 O   0  0  0  0  0  0  0  0  0  0  0  0
    1.9917   -0.8276    3.0932 H   0  0  0  0  0  0  0  0  0  0  0  0
    2.0214    0.9537    3.0923 H   0  0  0  0  0  0  0  0  0  0  0  0
    3.5541    0.0351    3.1761 H   0  0  0  0  0  0  0  0  0  0  0  0
    2.8551   -2.0961    0.9427 H   0  0  0  0  0  0  0  0  0  0  0  0
    4.3987   -1.2095    1.0884 H   0  0  0  0  0  0  0  0  0  0  0  0
    3.4524   -1.1254   -0.4267 H   0  0  0  0  0  0  0  0  0  0  0  0
    0.6303   -0.7911    0.8972 H   0  0  0  0  0  0  0  0  0  0  0  0
    1.2587    0.1346   -0.4948 H   0  0  0  0  0  0  0  0  0  0  0  0
    0.6715    0.9935    0.9545 H   0  0  0  0  0  0  0  0  0  0  0  0
    4.1236    3.1770   -0.2310 H   0  0  0  0  0  0  0  0  0  0  0  0
    6.6747    2.8774    1.2695 H   0  0  0  0  0  0  0  0  0  0  0  0
    6.5654    3.5923   -1.7041 H   0  0  0  0  0  0  0  0  0  0  0  0
    6.6666    1.9254   -1.0865 H   0  0  0  0  0  0  0  0  0  0  0  0
    8.5435    4.0940   -0.5273 H   0  0  0  0  0  0  0  0  0  0  0  0
   10.5652    1.6594   -0.5263 H   0  0  0  0  0  0  0  0  0  0  0  0
    9.0927    0.7214   -0.8680 H   0  0  0  0  0  0  0  0  0  0  0  0
    7.8380    0.2903    1.7443 H   0  0  0  0  0  0  0  0  0  0  0  0
    8.3038   -1.2152    3.6561 H   0  0  0  0  0  0  0  0  0  0  0  0
   10.6363   -1.9731    4.1252 H   0  0  0  0  0  0  0  0  0  0  0  0
   12.5043   -1.1972    2.6624 H   0  0  0  0  0  0  0  0  0  0  0  0
   12.0390    0.3251    0.7542 H   0  0  0  0  0  0  0  0  0  0  0  0
    4.4558    4.7836    1.8022 H   0  0  0  0  0  0  0  0  0  0  0  0
    5.2133    6.3639    1.6906 H   0  0  0  0  0  0  0  0  0  0  0  0
  1  2  1  0
  1 23  1  0
  1 24  1  0
  1 25  1  0
  2  3  1  0
  2  4  1  0
  2  5  1  6
  3 26  1  0
  3 27  1  0
  3 28  1  0
  4 29  1  0
  4 30  1  0
  4 31  1  0
  5  6  1  0
  6  7  2  0
  6  8  1  0
  8  9  1  0
  8 32  1  0
  9 10  1  0
  9 20  1  0
  9 33  1  1
 10 11  1  0
 10 34  1  0
 10 35  1  0
 11 12  1  0
 11 36  1  0
 12 13  1  0
 13 14  1  0
 13 37  1  0
 13 38  1  0
 14 15  2  0
 14 19  1  0
 15 16  1  0
 15 39  1  0
 16 17  2  0
 16 40  1  0
 17 18  1  0
 17 41  1  0
 18 19  2  0
 18 42  1  0
 19 43  1  0
 20 21  1  0
 20 22  2  0
 21 44  1  0
 21 45  1  0
M  END

