
     RDKit          3D

 44 45  0  0  0  0  0  0  0  0999 V2000
   -0.1674   -2.5570    0.5570 C   0  0  0  0  0  0  0  0  0  0  0  0
    1.3424   -2.3151    0.5554 C   0  0  0  0  0  0  0  0  0  0  0  0
    1.9507   -2.5486   -0.7519 N   0  0  0  0  0  0  0  0  0  0  0  0
    1.7202   -1.5132   -1.7567 C   0  0  0  0  0  0  0  0  0  0  0  0
    2.7031   -0.3449   -1.6304 C   0  0  0  0  0  0  0  0  0  0  0  0
    4.0415   -0.8080   -1.6621 O   0  0  0  0  0  0  0  0  0  0  0  0
    4.3286   -1.7619   -0.6412 C   0  0  2  0  0  0  0  0  0  0  0  0
    5.7963   -2.1662   -0.8211 C   0  0  0  0  0  0  0  0  0  0  0  0
    6.7396   -1.0653   -0.8246 N   0  0  0  0  0  0  0  0  0  0  0  0
    7.0895   -0.4871    0.4630 C   0  0  1  0  0  0  0  0  0  0  0  0
    8.2314   -1.2680    1.1355 C   0  0  0  0  0  0  0  0  0  0  0  0
    9.4517   -1.1068    0.4439 O   0  0  0  0  0  0  0  0  0  0  0  0
    9.8717    0.2268    0.2014 C   0  0  2  0  0  0  0  0  0  0  0  0
   10.9506    0.1337   -0.8666 C   0  0  0  0  0  0  0  0  0  0  0  0
   10.3961    0.8813    1.4903 C   0  0  0  0  0  0  0  0  0  0  0  0
    8.8274    1.0047   -0.3725 O   0  0  0  0  0  0  0  0  0  0  0  0
    7.5856    0.9529    0.2963 C   0  0  0  0  0  0  0  0  0  0  0  0
    3.3557   -2.9448   -0.7499 C   0  0  0  0  0  0  0  0  0  0  0  0
   -0.5778   -2.4287    1.5717 H   0  0  0  0  0  0  0  0  0  0  0  0
   -0.3938   -3.5773    0.2107 H   0  0  0  0  0  0  0  0  0  0  0  0
   -0.7007   -1.8525   -0.1013 H   0  0  0  0  0  0  0  0  0  0  0  0
    1.8107   -3.0190    1.2630 H   0  0  0  0  0  0  0  0  0  0  0  0
    1.5485   -1.3002    0.9636 H   0  0  0  0  0  0  0  0  0  0  0  0
    0.6829   -1.1490   -1.6932 H   0  0  0  0  0  0  0  0  0  0  0  0
    1.8442   -1.9628   -2.7589 H   0  0  0  0  0  0  0  0  0  0  0  0
    2.5182    0.2179   -0.6914 H   0  0  0  0  0  0  0  0  0  0  0  0
    2.5884    0.3589   -2.4703 H   0  0  0  0  0  0  0  0  0  0  0  0
    4.1926   -1.2740    0.3488 H   0  0  0  0  0  0  0  0  0  0  0  0
    5.8789   -2.7096   -1.7797 H   0  0  0  0  0  0  0  0  0  0  0  0
    6.0695   -2.8865   -0.0313 H   0  0  0  0  0  0  0  0  0  0  0  0
    6.4158   -0.3520   -1.4742 H   0  0  0  0  0  0  0  0  0  0  0  0
    6.2337   -0.4585    1.1755 H   0  0  0  0  0  0  0  0  0  0  0  0
    8.0242   -2.3489    1.1368 H   0  0  0  0  0  0  0  0  0  0  0  0
    8.3162   -0.9489    2.1952 H   0  0  0  0  0  0  0  0  0  0  0  0
   11.7906   -0.4772   -0.5065 H   0  0  0  0  0  0  0  0  0  0  0  0
   11.3136    1.1372   -1.1310 H   0  0  0  0  0  0  0  0  0  0  0  0
   10.5171   -0.3403   -1.7578 H   0  0  0  0  0  0  0  0  0  0  0  0
   11.2326    0.2917    1.8932 H   0  0  0  0  0  0  0  0  0  0  0  0
    9.6259    0.9475    2.2726 H   0  0  0  0  0  0  0  0  0  0  0  0
   10.7480    1.9013    1.2766 H   0  0  0  0  0  0  0  0  0  0  0  0
    6.8802    1.5416   -0.3125 H   0  0  0  0  0  0  0  0  0  0  0  0
    7.6387    1.4339    1.2934 H   0  0  0  0  0  0  0  0  0  0  0  0
    3.5325   -3.6625    0.0679 H   0  0  0  0  0  0  0  0  0  0  0  0
    3.5700   -3.4702   -1.7000 H   0  0  0  0  0  0  0  0  0  0  0  0
  1  2  1  0
  1 19  1  0
  1 20  1  0
  1 21  1  0
  2  3  1  0
  2 22  1  0
  2 23  1  0
  3  4  1  0
  3 18  1  0
  4  5  1  0
  4 24  1  0
  4 25  1  0
  5  6  1  0
  5 26  1  0
  5 27  1  0
  6  7  1  0
  7  8  1  0
  7 18  1  0
  7 28  1  1
  8  9  1  0
  8 29  1  0
  8 30  1  0
  9 10  1  0
  9 31  1  0
 10 11  1  0
 10 17  1  0
 10 32  1  1
 11 12  1  0
 11 33  1  0
 11 34  1  0
 12 13  1  0
 13 14  1  6
 13 15  1  0
 13 16  1  0
 14 35  1  0
 14 36  1  0
 14 37  1  0
 15 38  1  0
 15 39  1  0
 15 40  1  0
 16 17  1  0
 17 41  1  0
 17 42  1  0
 18 43  1  0
 18 44  1  0
M  END

