
     RDKit          3D

 50 53  0  0  0  0  0  0  0  0999 V2000
    1.3055    0.5636   -0.0160 C   0  0  0  0  0  0  0  0  0  0  0  0
    2.9743    1.3191    0.0642 S   0  0  0  0  0  0  0  0  0  0  0  0
    3.6666    0.8259   -1.4897 C   0  0  0  0  0  0  0  0  0  0  0  0
    4.4662   -0.3020   -1.7367 C   0  0  0  0  0  0  0  0  0  0  0  0
    4.8367   -1.3282   -0.7127 C   0  0  0  0  0  0  0  0  0  0  0  0
    4.8235   -0.2336   -3.1249 C   0  0  0  0  0  0  0  0  0  0  0  0
    5.5983   -1.0900   -3.9320 C   0  0  0  0  0  0  0  0  0  0  0  0
    6.2132   -2.3151   -3.3347 C   0  0  0  0  0  0  0  0  0  0  0  0
    5.5186   -3.5318   -3.3192 C   0  0  0  0  0  0  0  0  0  0  0  0
    6.0987   -4.6748   -2.7608 C   0  0  0  0  0  0  0  0  0  0  0  0
    7.3849   -4.6402   -2.2026 C   0  0  0  0  0  0  0  0  0  0  0  0
    8.0184   -5.8712   -1.6020 C   0  0  0  0  0  0  0  0  0  0  0  0
    8.0740   -3.4154   -2.2223 C   0  0  0  0  0  0  0  0  0  0  0  0
    7.5014   -2.2710   -2.7783 C   0  0  0  0  0  0  0  0  0  0  0  0
    5.8024   -0.8082   -5.2974 C   0  0  0  0  0  0  0  0  0  0  0  0
    6.5361   -1.5148   -6.3116 C   0  0  0  0  0  0  0  0  0  0  0  0
    7.3198   -2.7866   -6.2227 C   0  0  0  0  0  0  0  0  0  0  0  0
    6.3742   -0.7508   -7.4675 C   0  0  0  0  0  0  0  0  0  0  0  0
    7.0355   -1.1019   -9.0321 Cl  0  0  0  0  0  0  0  0  0  0  0  0
    5.5724    0.3823   -7.1789 C   0  0  0  0  0  0  0  0  0  0  0  0
    5.1392    1.4680   -8.1020 C   0  0  0  0  0  0  0  0  0  0  0  0
    5.2396    0.3313   -5.8777 N   0  0  0  0  0  0  0  0  0  0  0  0
    4.3600    1.3932   -5.1457 B   0  0  2  0  0  0  0  0  0  0  0  0
    3.0977    1.4463   -5.7286 F   0  0  0  0  0  0  0  0  0  0  0  0
    4.9767    2.6391   -5.2057 F   0  0  0  0  0  0  0  0  0  0  0  0
    4.2446    0.9203   -3.6646 N   0  0  0  0  0  0  0  0  0  0  0  0
    3.5598    1.5623   -2.7052 C   0  0  0  0  0  0  0  0  0  0  0  0
    2.8251    2.8368   -2.9432 C   0  0  0  0  0  0  0  0  0  0  0  0
    0.7994    0.8307    0.9236 H   0  0  0  0  0  0  0  0  0  0  0  0
    1.3695   -0.5312   -0.0928 H   0  0  0  0  0  0  0  0  0  0  0  0
    0.7282    0.9641   -0.8616 H   0  0  0  0  0  0  0  0  0  0  0  0
    4.4180   -1.0354    0.2606 H   0  0  0  0  0  0  0  0  0  0  0  0
    5.9271   -1.4281   -0.6062 H   0  0  0  0  0  0  0  0  0  0  0  0
    4.4563   -2.3276   -0.9743 H   0  0  0  0  0  0  0  0  0  0  0  0
    4.5148   -3.5856   -3.7480 H   0  0  0  0  0  0  0  0  0  0  0  0
    5.5373   -5.6134   -2.7600 H   0  0  0  0  0  0  0  0  0  0  0  0
    7.3341   -6.7318   -1.6253 H   0  0  0  0  0  0  0  0  0  0  0  0
    8.3103   -5.6995   -0.5527 H   0  0  0  0  0  0  0  0  0  0  0  0
    8.9343   -6.1549   -2.1472 H   0  0  0  0  0  0  0  0  0  0  0  0
    9.0788   -3.3561   -1.7936 H   0  0  0  0  0  0  0  0  0  0  0  0
    8.0572   -1.3299   -2.7811 H   0  0  0  0  0  0  0  0  0  0  0  0
    6.6960   -3.6325   -5.8973 H   0  0  0  0  0  0  0  0  0  0  0  0
    8.1473   -2.7101   -5.5016 H   0  0  0  0  0  0  0  0  0  0  0  0
    7.7425   -3.0284   -7.2076 H   0  0  0  0  0  0  0  0  0  0  0  0
    5.5418    1.2964   -9.1080 H   0  0  0  0  0  0  0  0  0  0  0  0
    5.4803    2.4462   -7.7293 H   0  0  0  0  0  0  0  0  0  0  0  0
    4.0400    1.5154   -8.1480 H   0  0  0  0  0  0  0  0  0  0  0  0
    1.9979    2.6779   -3.6536 H   0  0  0  0  0  0  0  0  0  0  0  0
    3.4916    3.5826   -3.4019 H   0  0  0  0  0  0  0  0  0  0  0  0
    2.4299    3.2236   -1.9951 H   0  0  0  0  0  0  0  0  0  0  0  0
  1  2  1  0
  1 29  1  0
  1 30  1  0
  1 31  1  0
  2  3  1  0
  3  4  2  0
  3 27  1  0
  4  5  1  0
  4  6  1  0
  5 32  1  0
  5 33  1  0
  5 34  1  0
  6  7  2  0
  6 26  1  0
  7  8  1  0
  7 15  1  0
  8  9  2  0
  8 14  1  0
  9 10  1  0
  9 35  1  0
 10 11  2  0
 10 36  1  0
 11 12  1  0
 11 13  1  0
 12 37  1  0
 12 38  1  0
 12 39  1  0
 13 14  2  0
 13 40  1  0
 14 41  1  0
 15 16  2  0
 15 22  1  0
 16 17  1  0
 16 18  1  0
 17 42  1  0
 17 43  1  0
 17 44  1  0
 18 19  1  0
 18 20  2  0
 20 21  1  0
 20 22  1  0
 21 45  1  0
 21 46  1  0
 21 47  1  0
 22 23  1  0
 23 24  1  6
 23 25  1  0
 23 26  1  0
 26 27  2  0
 27 28  1  0
 28 48  1  0
 28 49  1  0
 28 50  1  0
M  CHG  2  23  -1  26   1
M  END

