
     RDKit          3D

 56 61  0  0  0  0  0  0  0  0999 V2000
    2.4535   -0.1226    3.1639 N   0  0  0  0  0  0  0  0  0  0  0  0
    3.3947   -0.0760    2.4857 C   0  0  0  0  0  0  0  0  0  0  0  0
    4.5593   -0.0184    1.6457 C   0  0  0  0  0  0  0  0  0  0  0  0
    4.4190    0.1333    0.2529 C   0  0  0  0  0  0  0  0  0  0  0  0
    5.5505    0.1888   -0.5583 C   0  0  0  0  0  0  0  0  0  0  0  0
    6.8324    0.0944    0.0047 C   0  0  0  0  0  0  0  0  0  0  0  0
    8.0057    0.1495   -0.8128 N   0  0  0  0  0  0  0  0  0  0  0  0
    8.5330    1.4010   -1.1928 C   0  0  0  0  0  0  0  0  0  0  0  0
    7.8049    2.5906   -0.9978 C   0  0  0  0  0  0  0  0  0  0  0  0
    8.3176    3.8144   -1.4252 C   0  0  0  0  0  0  0  0  0  0  0  0
    9.5581    3.8724   -2.0624 C   0  0  0  0  0  0  0  0  0  0  0  0
   10.2902    2.6955   -2.2358 C   0  0  0  0  0  0  0  0  0  0  0  0
    9.8120    1.4553   -1.7928 C   0  0  0  0  0  0  0  0  0  0  0  0
   10.6759    0.1821   -1.8018 C   0  0  1  0  0  0  0  0  0  0  0  0
   11.7575    0.2710   -2.9035 C   0  0  0  0  0  0  0  0  0  0  0  0
   13.1310    0.2113   -2.6343 C   0  0  0  0  0  0  0  0  0  0  0  0
   14.0736    0.2984   -3.6683 C   0  0  0  0  0  0  0  0  0  0  0  0
   13.6591    0.4469   -4.9913 C   0  0  0  0  0  0  0  0  0  0  0  0
   12.2894    0.5083   -5.2754 C   0  0  0  0  0  0  0  0  0  0  0  0
   11.3545    0.4215   -4.2446 C   0  0  0  0  0  0  0  0  0  0  0  0
   11.3258    0.0123   -0.3898 C   0  0  0  0  0  0  0  0  0  0  0  0
   11.6268   -1.2612    0.1225 C   0  0  0  0  0  0  0  0  0  0  0  0
   12.2510   -1.4142    1.3642 C   0  0  0  0  0  0  0  0  0  0  0  0
   12.5874   -0.2947    2.1292 C   0  0  0  0  0  0  0  0  0  0  0  0
   12.2928    0.9782    1.6349 C   0  0  0  0  0  0  0  0  0  0  0  0
   11.6686    1.1281    0.3926 C   0  0  0  0  0  0  0  0  0  0  0  0
    9.7446   -1.0161   -2.0564 C   0  0  0  0  0  0  0  0  0  0  0  0
   10.1571   -2.1589   -2.7541 C   0  0  0  0  0  0  0  0  0  0  0  0
    9.3615   -3.3046   -2.8282 C   0  0  0  0  0  0  0  0  0  0  0  0
    8.1228   -3.3156   -2.1851 C   0  0  0  0  0  0  0  0  0  0  0  0
    7.6747   -2.1835   -1.5061 C   0  0  0  0  0  0  0  0  0  0  0  0
    8.4670   -1.0206   -1.4506 C   0  0  0  0  0  0  0  0  0  0  0  0
    6.9709   -0.0564    1.3908 C   0  0  0  0  0  0  0  0  0  0  0  0
    5.8447   -0.1130    2.2103 C   0  0  0  0  0  0  0  0  0  0  0  0
    3.4217    0.2067   -0.1849 H   0  0  0  0  0  0  0  0  0  0  0  0
    5.4475    0.3063   -1.6389 H   0  0  0  0  0  0  0  0  0  0  0  0
    6.8274    2.5591   -0.5177 H   0  0  0  0  0  0  0  0  0  0  0  0
    7.7334    4.7243   -1.2658 H   0  0  0  0  0  0  0  0  0  0  0  0
    9.9630    4.8258   -2.4091 H   0  0  0  0  0  0  0  0  0  0  0  0
   11.2739    2.7435   -2.7048 H   0  0  0  0  0  0  0  0  0  0  0  0
   13.4803    0.0958   -1.6081 H   0  0  0  0  0  0  0  0  0  0  0  0
   15.1391    0.2489   -3.4288 H   0  0  0  0  0  0  0  0  0  0  0  0
   14.3940    0.5147   -5.7975 H   0  0  0  0  0  0  0  0  0  0  0  0
   11.9477    0.6248   -6.3073 H   0  0  0  0  0  0  0  0  0  0  0  0
   10.2893    0.4713   -4.4814 H   0  0  0  0  0  0  0  0  0  0  0  0
   11.3713   -2.1521   -0.4521 H   0  0  0  0  0  0  0  0  0  0  0  0
   12.4714   -2.4189    1.7348 H   0  0  0  0  0  0  0  0  0  0  0  0
   13.0717   -0.4132    3.1019 H   0  0  0  0  0  0  0  0  0  0  0  0
   12.5463    1.8666    2.2196 H   0  0  0  0  0  0  0  0  0  0  0  0
   11.4468    2.1331    0.0324 H   0  0  0  0  0  0  0  0  0  0  0  0
   11.1390   -2.1600   -3.2292 H   0  0  0  0  0  0  0  0  0  0  0  0
    9.7159   -4.1838   -3.3709 H   0  0  0  0  0  0  0  0  0  0  0  0
    7.4895   -4.2058   -2.2173 H   0  0  0  0  0  0  0  0  0  0  0  0
    6.6979   -2.2013   -1.0240 H   0  0  0  0  0  0  0  0  0  0  0  0
    7.9734   -0.1285    1.8167 H   0  0  0  0  0  0  0  0  0  0  0  0
    5.9536   -0.2305    3.2900 H   0  0  0  0  0  0  0  0  0  0  0  0
  1  2  3  0
  2  3  1  0
  3  4  2  0
  3 34  1  0
  4  5  1  0
  4 35  1  0
  5  6  2  0
  5 36  1  0
  6  7  1  0
  6 33  1  0
  7  8  1  0
  7 32  1  0
  8  9  2  0
  8 13  1  0
  9 10  1  0
  9 37  1  0
 10 11  2  0
 10 38  1  0
 11 12  1  0
 11 39  1  0
 12 13  2  0
 12 40  1  0
 13 14  1  0
 14 15  1  6
 14 21  1  0
 14 27  1  0
 15 16  2  0
 15 20  1  0
 16 17  1  0
 16 41  1  0
 17 18  2  0
 17 42  1  0
 18 19  1  0
 18 43  1  0
 19 20  2  0
 19 44  1  0
 20 45  1  0
 21 22  2  0
 21 26  1  0
 22 23  1  0
 22 46  1  0
 23 24  2  0
 23 47  1  0
 24 25  1  0
 24 48  1  0
 25 26  2  0
 25 49  1  0
 26 50  1  0
 27 28  1  0
 27 32  2  0
 28 29  2  0
 28 51  1  0
 29 30  1  0
 29 52  1  0
 30 31  2  0
 30 53  1  0
 31 32  1  0
 31 54  1  0
 33 34  2  0
 33 55  1  0
 34 56  1  0
M  END

