
     RDKit          3D

 37 38  0  0  0  0  0  0  0  0999 V2000
    0.8570   -1.3141    1.1465 C   0  0  0  0  0  0  0  0  0  0  0  0
    1.3489    0.1016    0.9388 C   0  0  0  0  0  0  0  0  0  0  0  0
    0.7153    0.8730    0.2413 O   0  0  0  0  0  0  0  0  0  0  0  0
    2.6251    0.5764    1.5929 C   0  0  0  0  0  0  0  0  0  0  0  0
    2.9799    1.9144    1.3381 C   0  0  0  0  0  0  0  0  0  0  0  0
    4.1367    2.4625    1.8710 C   0  0  0  0  0  0  0  0  0  0  0  0
    4.5703    4.1259    1.5302 Cl  0  0  0  0  0  0  0  0  0  0  0  0
    4.9683    1.6885    2.6892 C   0  0  0  0  0  0  0  0  0  0  0  0
    4.6416    0.3646    2.9770 C   0  0  0  0  0  0  0  0  0  0  0  0
    5.4783   -0.4348    3.9581 C   0  0  0  0  0  0  0  0  0  0  0  0
    5.6513   -1.8410    3.5428 N   0  0  0  0  0  0  0  0  0  0  0  0
    6.4972   -2.0317    2.3494 C   0  0  0  0  0  0  0  0  0  0  0  0
    7.9878   -1.9975    2.6858 C   0  0  0  0  0  0  0  0  0  0  0  0
    8.3017   -2.9321    3.6991 O   0  0  0  0  0  0  0  0  0  0  0  0
    7.5788   -2.7068    4.9039 C   0  0  2  0  0  0  0  0  0  0  0  0
    8.0188   -3.7539    5.9123 C   0  0  0  0  0  0  0  0  0  0  0  0
    6.0711   -2.7574    4.6152 C   0  0  0  0  0  0  0  0  0  0  0  0
    3.4669   -0.2099    2.4163 C   0  0  0  0  0  0  0  0  0  0  0  0
    3.1745   -1.4960    2.6753 O   0  0  0  0  0  0  0  0  0  0  0  0
   -0.0830   -1.4347    0.5927 H   0  0  0  0  0  0  0  0  0  0  0  0
    0.7048   -1.5253    2.2157 H   0  0  0  0  0  0  0  0  0  0  0  0
    1.6050   -2.0436    0.8021 H   0  0  0  0  0  0  0  0  0  0  0  0
    2.3156    2.4974    0.6992 H   0  0  0  0  0  0  0  0  0  0  0  0
    5.8719    2.1333    3.1127 H   0  0  0  0  0  0  0  0  0  0  0  0
    4.9569   -0.4628    4.9319 H   0  0  0  0  0  0  0  0  0  0  0  0
    6.4357    0.0903    4.1347 H   0  0  0  0  0  0  0  0  0  0  0  0
    6.2456   -1.2664    1.5993 H   0  0  0  0  0  0  0  0  0  0  0  0
    6.2525   -3.0169    1.9172 H   0  0  0  0  0  0  0  0  0  0  0  0
    8.2948   -0.9770    2.9963 H   0  0  0  0  0  0  0  0  0  0  0  0
    8.5854   -2.2669    1.8013 H   0  0  0  0  0  0  0  0  0  0  0  0
    7.8362   -1.6971    5.2916 H   0  0  0  0  0  0  0  0  0  0  0  0
    7.7648   -4.7640    5.5537 H   0  0  0  0  0  0  0  0  0  0  0  0
    7.5314   -3.5924    6.8862 H   0  0  0  0  0  0  0  0  0  0  0  0
    9.1086   -3.7067    6.0535 H   0  0  0  0  0  0  0  0  0  0  0  0
    5.4921   -2.5343    5.5254 H   0  0  0  0  0  0  0  0  0  0  0  0
    5.8178   -3.7852    4.3010 H   0  0  0  0  0  0  0  0  0  0  0  0
    4.0076   -1.9055    3.0573 H   0  0  0  0  0  0  0  0  0  0  0  0
  1  2  1  0
  1 20  1  0
  1 21  1  0
  1 22  1  0
  2  3  2  0
  2  4  1  0
  4  5  2  0
  4 18  1  0
  5  6  1  0
  5 23  1  0
  6  7  1  0
  6  8  2  0
  8  9  1  0
  8 24  1  0
  9 10  1  0
  9 18  2  0
 10 11  1  0
 10 25  1  0
 10 26  1  0
 11 12  1  0
 11 17  1  0
 12 13  1  0
 12 27  1  0
 12 28  1  0
 13 14  1  0
 13 29  1  0
 13 30  1  0
 14 15  1  0
 15 16  1  0
 15 17  1  0
 15 31  1  1
 16 32  1  0
 16 33  1  0
 16 34  1  0
 17 35  1  0
 17 36  1  0
 18 19  1  0
 19 37  1  0
M  END

