
     RDKit          3D

 38 40  0  0  0  0  0  0  0  0999 V2000
    1.1947   -1.3017   -1.7484 C   0  0  0  0  0  0  0  0  0  0  0  0
    2.6124   -1.2801   -1.5765 O   0  0  0  0  0  0  0  0  0  0  0  0
    3.0588   -1.2895   -0.3142 C   0  0  0  0  0  0  0  0  0  0  0  0
    2.3312   -1.3136    0.6532 O   0  0  0  0  0  0  0  0  0  0  0  0
    4.5511   -1.2673   -0.2164 C   0  0  0  0  0  0  0  0  0  0  0  0
    5.3582   -1.2472   -1.3257 C   0  0  0  0  0  0  0  0  0  0  0  0
    6.8145   -1.2238   -1.2544 C   0  0  0  0  0  0  0  0  0  0  0  0
    7.5459   -1.2045   -2.2357 O   0  0  0  0  0  0  0  0  0  0  0  0
    7.3521   -1.2235    0.0581 N   0  0  0  0  0  0  0  0  0  0  0  0
    8.8018   -1.1984    0.1984 C   0  0  0  0  0  0  0  0  0  0  0  0
    6.5554   -1.2466    1.1823 C   0  0  0  0  0  0  0  0  0  0  0  0
    7.0036   -1.2417    2.5354 C   0  0  0  0  0  0  0  0  0  0  0  0
    5.9610   -1.2600    3.4432 C   0  0  0  0  0  0  0  0  0  0  0  0
    6.0486   -1.2666    4.9082 C   0  0  0  0  0  0  0  0  0  0  0  0
    4.9796   -0.8206    5.7177 C   0  0  0  0  0  0  0  0  0  0  0  0
    5.0701   -0.8242    7.1022 C   0  0  0  0  0  0  0  0  0  0  0  0
    6.2418   -1.2723    7.7392 C   0  0  0  0  0  0  0  0  0  0  0  0
    6.2394   -1.2360    9.0925 O   0  0  0  0  0  0  0  0  0  0  0  0
    7.3800   -1.6685    9.8012 C   0  0  0  0  0  0  0  0  0  0  0  0
    7.3160   -1.7211    6.9539 C   0  0  0  0  0  0  0  0  0  0  0  0
    7.2093   -1.7176    5.5620 C   0  0  0  0  0  0  0  0  0  0  0  0
    4.4026   -1.2945    2.6435 S   0  0  0  0  0  0  0  0  0  0  0  0
    5.1589   -1.2675    1.0720 C   0  0  0  0  0  0  0  0  0  0  0  0
    1.0195   -1.2888   -2.8308 H   0  0  0  0  0  0  0  0  0  0  0  0
    0.7314   -0.4235   -1.2740 H   0  0  0  0  0  0  0  0  0  0  0  0
    0.7619   -2.2090   -1.3005 H   0  0  0  0  0  0  0  0  0  0  0  0
    4.9354   -1.2474   -2.3289 H   0  0  0  0  0  0  0  0  0  0  0  0
    9.2263   -1.1941   -0.8119 H   0  0  0  0  0  0  0  0  0  0  0  0
    9.1557   -2.0870    0.7451 H   0  0  0  0  0  0  0  0  0  0  0  0
    9.1262   -0.2950    0.7392 H   0  0  0  0  0  0  0  0  0  0  0  0
    8.0494   -1.1941    2.8319 H   0  0  0  0  0  0  0  0  0  0  0  0
    4.0657   -0.4475    5.2489 H   0  0  0  0  0  0  0  0  0  0  0  0
    4.2437   -0.4737    7.7235 H   0  0  0  0  0  0  0  0  0  0  0  0
    7.1503   -1.5453   10.8679 H   0  0  0  0  0  0  0  0  0  0  0  0
    8.2708   -1.0629    9.5551 H   0  0  0  0  0  0  0  0  0  0  0  0
    7.6069   -2.7319    9.6045 H   0  0  0  0  0  0  0  0  0  0  0  0
    8.2343   -2.0866    7.4137 H   0  0  0  0  0  0  0  0  0  0  0  0
    8.0473   -2.0979    4.9740 H   0  0  0  0  0  0  0  0  0  0  0  0
  1  2  1  0
  1 24  1  0
  1 25  1  0
  1 26  1  0
  2  3  1  0
  3  4  2  0
  3  5  1  0
  5  6  2  0
  5 23  1  0
  6  7  1  0
  6 27  1  0
  7  8  2  0
  7  9  1  0
  9 10  1  0
  9 11  1  0
 10 28  1  0
 10 29  1  0
 10 30  1  0
 11 12  1  0
 11 23  2  0
 12 13  2  0
 12 31  1  0
 13 14  1  0
 13 22  1  0
 14 15  2  0
 14 21  1  0
 15 16  1  0
 15 32  1  0
 16 17  2  0
 16 33  1  0
 17 18  1  0
 17 20  1  0
 18 19  1  0
 19 34  1  0
 19 35  1  0
 19 36  1  0
 20 21  2  0
 20 37  1  0
 21 38  1  0
 22 23  1  0
M  END

