
     RDKit          3D

 50 52  0  0  0  0  0  0  0  0999 V2000
    7.9675   -0.5297    1.3442 C   0  0  0  0  0  0  0  0  0  0  0  0
    6.5749   -0.2003    0.8315 C   0  0  0  0  0  0  0  0  0  0  0  0
    6.5629    1.0137    0.0624 O   0  0  0  0  0  0  0  0  0  0  0  0
    6.4280    2.1760    0.7345 C   0  0  0  0  0  0  0  0  0  0  0  0
    6.3134    2.2387    1.9393 O   0  0  0  0  0  0  0  0  0  0  0  0
    6.4320    3.3596   -0.1693 C   0  0  0  0  0  0  0  0  0  0  0  0
    6.5670    3.2558   -1.5625 C   0  0  0  0  0  0  0  0  0  0  0  0
    6.5649    4.3877   -2.3756 C   0  0  0  0  0  0  0  0  0  0  0  0
    6.4254    5.6617   -1.7929 C   0  0  0  0  0  0  0  0  0  0  0  0
    6.4205    6.8511   -2.5353 N   0  0  0  0  0  0  0  0  0  0  0  0
    6.4733    7.0185   -3.8938 C   0  0  0  0  0  0  0  0  0  0  0  0
    6.5135    6.1307   -4.7182 O   0  0  0  0  0  0  0  0  0  0  0  0
    6.4917    8.5128   -4.3260 C   0  0  1  0  0  0  0  0  0  0  0  0
    5.8528    8.6605   -5.7071 C   0  0  0  0  0  0  0  0  0  0  0  0
    5.7635    9.2446   -3.3254 O   0  0  0  0  0  0  0  0  0  0  0  0
    5.8782   10.6077   -3.3735 C   0  0  0  0  0  0  0  0  0  0  0  0
    4.7982   11.3928   -2.9754 C   0  0  0  0  0  0  0  0  0  0  0  0
    4.9127   12.7855   -2.9743 C   0  0  0  0  0  0  0  0  0  0  0  0
    6.1079   13.3788   -3.3860 C   0  0  0  0  0  0  0  0  0  0  0  0
    7.1901   12.5902   -3.7882 C   0  0  0  0  0  0  0  0  0  0  0  0
    7.0944   11.1897   -3.7820 C   0  0  0  0  0  0  0  0  0  0  0  0
    8.1625   10.3348   -4.1349 N   0  0  0  0  0  0  0  0  0  0  0  0
    9.5355   10.8469   -4.2482 C   0  0  0  0  0  0  0  0  0  0  0  0
   10.1999   11.1053   -2.8970 C   0  0  0  0  0  0  0  0  0  0  0  0
    7.9638    8.9852   -4.3639 C   0  0  0  0  0  0  0  0  0  0  0  0
    8.8675    8.2152   -4.6213 O   0  0  0  0  0  0  0  0  0  0  0  0
    6.2903    5.7693   -0.3937 C   0  0  0  0  0  0  0  0  0  0  0  0
    6.2939    4.6337    0.4052 C   0  0  0  0  0  0  0  0  0  0  0  0
    7.9569   -1.5040    1.8590 H   0  0  0  0  0  0  0  0  0  0  0  0
    8.3091    0.2318    2.0606 H   0  0  0  0  0  0  0  0  0  0  0  0
    8.6896   -0.5863    0.5147 H   0  0  0  0  0  0  0  0  0  0  0  0
    5.8638   -0.1023    1.6651 H   0  0  0  0  0  0  0  0  0  0  0  0
    6.2125   -0.9739    0.1386 H   0  0  0  0  0  0  0  0  0  0  0  0
    6.6761    2.2694   -2.0148 H   0  0  0  0  0  0  0  0  0  0  0  0
    6.6666    4.3030   -3.4547 H   0  0  0  0  0  0  0  0  0  0  0  0
    6.2823    7.7084   -2.0095 H   0  0  0  0  0  0  0  0  0  0  0  0
    4.7972    8.3551   -5.6601 H   0  0  0  0  0  0  0  0  0  0  0  0
    6.3752    8.0054   -6.4156 H   0  0  0  0  0  0  0  0  0  0  0  0
    5.9091    9.7015   -6.0570 H   0  0  0  0  0  0  0  0  0  0  0  0
    3.8789   10.8903   -2.6681 H   0  0  0  0  0  0  0  0  0  0  0  0
    4.0678   13.4013   -2.6588 H   0  0  0  0  0  0  0  0  0  0  0  0
    6.2081   14.4664   -3.3950 H   0  0  0  0  0  0  0  0  0  0  0  0
    8.1159   13.0744   -4.0971 H   0  0  0  0  0  0  0  0  0  0  0  0
    9.5214   11.7578   -4.8662 H   0  0  0  0  0  0  0  0  0  0  0  0
   10.0955   10.0842   -4.8025 H   0  0  0  0  0  0  0  0  0  0  0  0
    9.6458   11.8443   -2.2978 H   0  0  0  0  0  0  0  0  0  0  0  0
   11.2211   11.4891   -3.0488 H   0  0  0  0  0  0  0  0  0  0  0  0
   10.2715   10.1730   -2.3162 H   0  0  0  0  0  0  0  0  0  0  0  0
    6.1835    6.7573    0.0635 H   0  0  0  0  0  0  0  0  0  0  0  0
    6.1895    4.7109    1.4891 H   0  0  0  0  0  0  0  0  0  0  0  0
  1  2  1  0
  1 29  1  0
  1 30  1  0
  1 31  1  0
  2  3  1  0
  2 32  1  0
  2 33  1  0
  3  4  1  0
  4  5  2  0
  4  6  1  0
  6  7  2  0
  6 28  1  0
  7  8  1  0
  7 34  1  0
  8  9  2  0
  8 35  1  0
  9 10  1  0
  9 27  1  0
 10 11  1  0
 10 36  1  0
 11 12  2  0
 13 11  1  1
 13 14  1  0
 13 15  1  0
 13 25  1  0
 14 37  1  0
 14 38  1  0
 14 39  1  0
 15 16  1  0
 16 17  2  0
 16 21  1  0
 17 18  1  0
 17 40  1  0
 18 19  2  0
 18 41  1  0
 19 20  1  0
 19 42  1  0
 20 21  2  0
 20 43  1  0
 21 22  1  0
 22 23  1  0
 22 25  1  0
 23 24  1  0
 23 44  1  0
 23 45  1  0
 24 46  1  0
 24 47  1  0
 24 48  1  0
 25 26  2  0
 27 28  2  0
 27 49  1  0
 28 50  1  0
M  END

