
     RDKit          3D

 30 32  0  0  0  0  0  0  0  0999 V2000
    1.1507    0.0045   -0.2522 N   0  0  0  0  0  0  0  0  0  0  0  0
    2.4442   -0.2687    0.0862 C   0  0  0  0  0  0  0  0  0  0  0  0
    3.1840    0.7603    0.5053 O   0  0  0  0  0  0  0  0  0  0  0  0
    4.4687    0.3127    0.8397 N   0  0  0  0  0  0  0  0  0  0  0  0
    4.4614   -0.9755    0.5894 C   0  0  0  0  0  0  0  0  0  0  0  0
    5.6748   -1.7804    0.8929 C   0  0  0  0  0  0  0  0  0  0  0  0
    5.6427   -2.6389    2.0071 C   0  0  0  0  0  0  0  0  0  0  0  0
    6.7501   -3.4063    2.3659 C   0  0  0  0  0  0  0  0  0  0  0  0
    7.9206   -3.3283    1.6071 C   0  0  0  0  0  0  0  0  0  0  0  0
    7.9764   -2.4897    0.4918 C   0  0  0  0  0  0  0  0  0  0  0  0
    6.8599   -1.7238    0.1364 C   0  0  0  0  0  0  0  0  0  0  0  0
    7.0130   -0.5145   -1.6123 I   0  0  0  0  0  0  0  0  0  0  0  0
    3.1861   -1.4398    0.1096 C   0  0  0  0  0  0  0  0  0  0  0  0
    2.7520   -2.7866   -0.2898 C   0  0  0  0  0  0  0  0  0  0  0  0
    3.6241   -3.6796   -0.9448 C   0  0  0  0  0  0  0  0  0  0  0  0
    3.1877   -4.9485   -1.3263 C   0  0  0  0  0  0  0  0  0  0  0  0
    1.8757   -5.3642   -1.0805 C   0  0  0  0  0  0  0  0  0  0  0  0
    1.0094   -4.4809   -0.4330 C   0  0  0  0  0  0  0  0  0  0  0  0
   -0.6384   -4.9745   -0.1001 Cl  0  0  0  0  0  0  0  0  0  0  0  0
    1.4322   -3.2119   -0.0322 C   0  0  0  0  0  0  0  0  0  0  0  0
    0.9418    0.9790   -0.4435 H   0  0  0  0  0  0  0  0  0  0  0  0
    0.6994   -0.6597   -0.8716 H   0  0  0  0  0  0  0  0  0  0  0  0
    4.7262   -2.6889    2.5994 H   0  0  0  0  0  0  0  0  0  0  0  0
    6.6998   -4.0610    3.2389 H   0  0  0  0  0  0  0  0  0  0  0  0
    8.7971   -3.9223    1.8780 H   0  0  0  0  0  0  0  0  0  0  0  0
    8.8884   -2.4329   -0.1047 H   0  0  0  0  0  0  0  0  0  0  0  0
    4.6451   -3.3689   -1.1695 H   0  0  0  0  0  0  0  0  0  0  0  0
    3.8778   -5.6260   -1.8356 H   0  0  0  0  0  0  0  0  0  0  0  0
    1.5262   -6.3524   -1.3828 H   0  0  0  0  0  0  0  0  0  0  0  0
    0.7371   -2.5675    0.5085 H   0  0  0  0  0  0  0  0  0  0  0  0
  1  2  1  0
  1 21  1  0
  1 22  1  0
  2  3  1  0
  2 13  2  0
  3  4  1  0
  4  5  2  0
  5  6  1  0
  5 13  1  0
  6  7  2  0
  6 11  1  0
  7  8  1  0
  7 23  1  0
  8  9  2  0
  8 24  1  0
  9 10  1  0
  9 25  1  0
 10 11  2  0
 10 26  1  0
 11 12  1  0
 13 14  1  0
 14 15  2  0
 14 20  1  0
 15 16  1  0
 15 27  1  0
 16 17  2  0
 16 28  1  0
 17 18  1  0
 17 29  1  0
 18 19  1  0
 18 20  2  0
 20 30  1  0
M  END

