
     RDKit          3D

 46 48  0  0  0  0  0  0  0  0999 V2000
    2.6655   -1.4556    0.1387 C   0  0  0  0  0  0  0  0  0  0  0  0
    2.1264   -0.4655    0.9850 O   0  0  0  0  0  0  0  0  0  0  0  0
    2.9584    0.4147    1.5940 C   0  0  0  0  0  0  0  0  0  0  0  0
    4.3543    0.4174    1.4563 C   0  0  0  0  0  0  0  0  0  0  0  0
    5.1188    1.3714    2.1371 C   0  0  0  0  0  0  0  0  0  0  0  0
    4.5236    2.3311    2.9702 C   0  0  0  0  0  0  0  0  0  0  0  0
    5.2771    3.3941    3.6646 C   0  0  0  0  0  0  0  0  0  0  0  0
    4.8321    4.6295    3.7415 N   0  0  0  0  0  0  0  0  0  0  0  0
    5.7934    5.3307    4.4319 C   0  0  0  0  0  0  0  0  0  0  0  0
    5.8354    6.6885    4.7838 C   0  0  0  0  0  0  0  0  0  0  0  0
    6.9298    7.1876    5.4897 C   0  0  0  0  0  0  0  0  0  0  0  0
    6.9814    8.6485    5.8705 C   0  0  0  0  0  0  0  0  0  0  0  0
    8.0040    6.3160    5.8492 C   0  0  0  0  0  0  0  0  0  0  0  0
    9.1923    6.8569    6.6086 C   0  0  0  0  0  0  0  0  0  0  0  0
    7.9682    4.9621    5.4993 C   0  0  0  0  0  0  0  0  0  0  0  0
    6.8609    4.4742    4.7908 C   0  0  0  0  0  0  0  0  0  0  0  0
    6.5123    3.2209    4.2943 N   0  0  0  0  0  0  0  0  0  0  0  0
    7.1810    1.9502    4.6000 C   0  0  1  0  0  0  0  0  0  0  0  0
    8.5595    1.8365    3.9451 C   0  0  0  0  0  0  0  0  0  0  0  0
    7.2082    1.6848    6.1218 C   0  0  0  0  0  0  0  0  0  0  0  0
    7.6174    0.3101    6.3813 N   0  0  0  0  0  0  0  0  0  0  0  0
    3.1162    2.3277    3.0768 C   0  0  0  0  0  0  0  0  0  0  0  0
    2.3470    1.3866    2.4082 C   0  0  0  0  0  0  0  0  0  0  0  0
    1.8168   -2.0430   -0.2367 H   0  0  0  0  0  0  0  0  0  0  0  0
    3.3547   -2.1293    0.6797 H   0  0  0  0  0  0  0  0  0  0  0  0
    3.2026   -1.0149   -0.7206 H   0  0  0  0  0  0  0  0  0  0  0  0
    4.8580   -0.3038    0.8126 H   0  0  0  0  0  0  0  0  0  0  0  0
    6.1988    1.3786    1.9768 H   0  0  0  0  0  0  0  0  0  0  0  0
    5.0066    7.3410    4.4987 H   0  0  0  0  0  0  0  0  0  0  0  0
    6.0814    9.1793    5.5276 H   0  0  0  0  0  0  0  0  0  0  0  0
    7.8568    9.1576    5.4313 H   0  0  0  0  0  0  0  0  0  0  0  0
    7.0554    8.7873    6.9630 H   0  0  0  0  0  0  0  0  0  0  0  0
    9.7029    7.6616    6.0521 H   0  0  0  0  0  0  0  0  0  0  0  0
    9.9333    6.0689    6.8083 H   0  0  0  0  0  0  0  0  0  0  0  0
    8.8961    7.2906    7.5794 H   0  0  0  0  0  0  0  0  0  0  0  0
    8.8030    4.3175    5.7784 H   0  0  0  0  0  0  0  0  0  0  0  0
    6.5362    1.1697    4.1726 H   0  0  0  0  0  0  0  0  0  0  0  0
    9.2337    2.6418    4.2731 H   0  0  0  0  0  0  0  0  0  0  0  0
    8.4837    1.8913    2.8480 H   0  0  0  0  0  0  0  0  0  0  0  0
    9.0098    0.8746    4.2273 H   0  0  0  0  0  0  0  0  0  0  0  0
    6.2125    1.9544    6.5304 H   0  0  0  0  0  0  0  0  0  0  0  0
    7.9337    2.3563    6.6065 H   0  0  0  0  0  0  0  0  0  0  0  0
    6.8527   -0.3374    6.1872 H   0  0  0  0  0  0  0  0  0  0  0  0
    7.8607    0.1831    7.3624 H   0  0  0  0  0  0  0  0  0  0  0  0
    2.6395    3.0909    3.6943 H   0  0  0  0  0  0  0  0  0  0  0  0
    1.2585    1.3788    2.4943 H   0  0  0  0  0  0  0  0  0  0  0  0
  1  2  1  0
  1 24  1  0
  1 25  1  0
  1 26  1  0
  2  3  1  0
  3  4  2  0
  3 23  1  0
  4  5  1  0
  4 27  1  0
  5  6  2  0
  5 28  1  0
  6  7  1  0
  6 22  1  0
  7  8  2  0
  7 17  1  0
  8  9  1  0
  9 10  2  0
  9 16  1  0
 10 11  1  0
 10 29  1  0
 11 12  1  0
 11 13  2  0
 12 30  1  0
 12 31  1  0
 12 32  1  0
 13 14  1  0
 13 15  1  0
 14 33  1  0
 14 34  1  0
 14 35  1  0
 15 16  2  0
 15 36  1  0
 16 17  1  0
 17 18  1  0
 18 19  1  0
 18 20  1  0
 18 37  1  6
 19 38  1  0
 19 39  1  0
 19 40  1  0
 20 21  1  0
 20 41  1  0
 20 42  1  0
 21 43  1  0
 21 44  1  0
 22 23  2  0
 22 45  1  0
 23 46  1  0
M  END

