
     RDKit          3D

 50 55  0  0  0  0  0  0  0  0999 V2000
    4.8139    1.6238   -3.2760 C   0  0  0  0  0  0  0  0  0  0  0  0
    4.8892    2.0693   -1.9403 O   0  0  0  0  0  0  0  0  0  0  0  0
    6.0920    2.3157   -1.3884 C   0  0  0  0  0  0  0  0  0  0  0  0
    7.3199    2.1661   -2.0468 C   0  0  0  0  0  0  0  0  0  0  0  0
    8.5302    2.4466   -1.3814 C   0  0  0  0  0  0  0  0  0  0  0  0
    8.5695    2.8848   -0.0621 C   0  0  0  0  0  0  0  0  0  0  0  0
    7.3371    3.0382    0.5903 C   0  0  0  0  0  0  0  0  0  0  0  0
    7.0878    3.4642    1.8859 N   0  0  0  0  0  0  0  0  0  0  0  0
    7.8000    3.5234    2.5995 H   0  0  0  0  0  0  0  0  0  0  0  0
    5.7213    3.4301    2.1223 C   0  0  0  0  0  0  0  0  0  0  0  0
    4.9230    3.7248    3.2523 C   0  0  0  0  0  0  0  0  0  0  0  0
    5.4349    4.1945    4.4597 N   0  0  0  0  0  0  0  0  0  0  0  0
    4.5621    4.2094    5.6277 C   0  0  0  0  0  0  0  0  0  0  0  0
    5.3971    4.0542    6.9371 C   0  0  1  0  0  0  0  0  0  0  0  0
    6.8985    4.0987    6.6294 C   0  0  0  0  0  0  0  0  0  0  0  0
    7.1231    5.3960    5.8514 C   0  0  1  0  0  0  0  0  0  0  0  0
    6.4028    5.2864    4.4629 C   0  0  0  0  0  0  0  0  0  0  0  0
    6.6497    6.6051    6.6447 C   0  0  0  0  0  0  0  0  0  0  0  0
    7.1898    7.8485    6.4061 C   0  0  0  0  0  0  0  0  0  0  0  0
    6.6957    8.9802    7.1081 C   0  0  0  0  0  0  0  0  0  0  0  0
    5.6974    8.8444    8.0313 C   0  0  0  0  0  0  0  0  0  0  0  0
    5.1243    7.5511    8.3409 C   0  0  0  0  0  0  0  0  0  0  0  0
    4.2659    7.3317    9.1851 O   0  0  0  0  0  0  0  0  0  0  0  0
    5.6452    6.4603    7.5721 N   0  0  0  0  0  0  0  0  0  0  0  0
    5.0759    5.1508    7.9448 C   0  0  0  0  0  0  0  0  0  0  0  0
    3.6099    3.4957    3.1619 N   0  0  0  0  0  0  0  0  0  0  0  0
    3.0929    3.0454    2.0088 C   0  0  0  0  0  0  0  0  0  0  0  0
    3.7369    2.8024    0.8764 N   0  0  0  0  0  0  0  0  0  0  0  0
    5.0653    2.9876    0.9441 C   0  0  0  0  0  0  0  0  0  0  0  0
    6.1004    2.7553   -0.0428 C   0  0  0  0  0  0  0  0  0  0  0  0
    3.7468    1.4928   -3.4990 H   0  0  0  0  0  0  0  0  0  0  0  0
    5.3320    0.6581   -3.4158 H   0  0  0  0  0  0  0  0  0  0  0  0
    5.2403    2.3618   -3.9790 H   0  0  0  0  0  0  0  0  0  0  0  0
    7.3546    1.8297   -3.0824 H   0  0  0  0  0  0  0  0  0  0  0  0
    9.4676    2.3156   -1.9283 H   0  0  0  0  0  0  0  0  0  0  0  0
    9.5148    3.1021    0.4392 H   0  0  0  0  0  0  0  0  0  0  0  0
    3.8336    3.3988    5.5176 H   0  0  0  0  0  0  0  0  0  0  0  0
    3.9695    5.1461    5.6559 H   0  0  0  0  0  0  0  0  0  0  0  0
    5.1410    3.0949    7.4127 H   0  0  0  0  0  0  0  0  0  0  0  0
    7.2080    3.2331    6.0269 H   0  0  0  0  0  0  0  0  0  0  0  0
    7.4867    4.0874    7.5612 H   0  0  0  0  0  0  0  0  0  0  0  0
    8.1940    5.5580    5.6611 H   0  0  0  0  0  0  0  0  0  0  0  0
    7.1491    5.1272    3.6743 H   0  0  0  0  0  0  0  0  0  0  0  0
    5.9081    6.2493    4.2259 H   0  0  0  0  0  0  0  0  0  0  0  0
    7.9896    7.9498    5.6716 H   0  0  0  0  0  0  0  0  0  0  0  0
    7.1244    9.9662    6.9065 H   0  0  0  0  0  0  0  0  0  0  0  0
    5.2974    9.6886    8.5944 H   0  0  0  0  0  0  0  0  0  0  0  0
    3.9937    5.2945    8.0714 H   0  0  0  0  0  0  0  0  0  0  0  0
    5.4584    4.8876    8.9458 H   0  0  0  0  0  0  0  0  0  0  0  0
    2.0095    2.8743    2.0091 H   0  0  0  0  0  0  0  0  0  0  0  0
  1  2  1  0
  1 31  1  0
  1 32  1  0
  1 33  1  0
  2  3  1  0
  3  4  1  0
  3 30  2  0
  4  5  2  0
  4 34  1  0
  5  6  1  0
  5 35  1  0
  6  7  2  0
  6 36  1  0
  7  8  1  0
  7 30  1  0
  8  9  1  0
  8 10  1  0
 10 11  2  0
 10 29  1  0
 11 12  1  0
 11 26  1  0
 12 13  1  0
 12 17  1  0
 13 14  1  0
 13 37  1  0
 13 38  1  0
 14 15  1  0
 14 25  1  0
 14 39  1  1
 15 16  1  0
 15 40  1  0
 15 41  1  0
 16 17  1  0
 16 18  1  0
 16 42  1  6
 17 43  1  0
 17 44  1  0
 18 19  2  0
 18 24  1  0
 19 20  1  0
 19 45  1  0
 20 21  2  0
 20 46  1  0
 21 22  1  0
 21 47  1  0
 22 23  2  0
 22 24  1  0
 24 25  1  0
 25 48  1  0
 25 49  1  0
 26 27  2  0
 27 28  1  0
 27 50  1  0
 28 29  2  0
 29 30  1  0
M  END

