
     RDKit          3D

 53 58  0  0  0  0  0  0  0  0999 V2000
    5.0600   -0.5190    0.1686 C   0  0  0  0  0  0  0  0  0  0  0  0
    3.6791    0.1692    0.0590 C   0  0  1  0  0  0  0  0  0  0  0  0
    2.6081   -0.8826   -0.3140 C   0  0  0  0  0  0  0  0  0  0  0  0
    3.3212    0.7531    1.4376 C   0  0  0  0  0  0  0  0  0  0  0  0
    3.7342    1.2505   -1.0363 C   0  0  0  0  0  0  0  0  0  0  0  0
    4.0497    0.8933   -2.3640 C   0  0  0  0  0  0  0  0  0  0  0  0
    4.1105    1.8355   -3.3840 C   0  0  0  0  0  0  0  0  0  0  0  0
    3.8543    3.1922   -3.1111 C   0  0  0  0  0  0  0  0  0  0  0  0
    3.9225    4.1669   -4.1927 C   0  0  0  0  0  0  0  0  0  0  0  0
    4.1992    3.9632   -5.4485 N   0  0  0  0  0  0  0  0  0  0  0  0
    4.1415    5.1829   -6.0725 N   0  0  0  0  0  0  0  0  0  0  0  0
    3.8322    6.0742   -5.1691 C   0  0  0  0  0  0  0  0  0  0  0  0
    3.6377    7.5200   -5.2639 C   0  0  0  0  0  0  0  0  0  0  0  0
    3.3060    8.2089   -4.0796 C   0  0  0  0  0  0  0  0  0  0  0  0
    3.1023    9.5804   -4.0670 C   0  0  0  0  0  0  0  0  0  0  0  0
    3.2210   10.3369   -5.2464 C   0  0  0  0  0  0  0  0  0  0  0  0
    3.0150   11.7589   -5.2581 C   0  0  0  0  0  0  0  0  0  0  0  0
    3.1329   12.4824   -6.4084 C   0  0  0  0  0  0  0  0  0  0  0  0
    3.4682   11.8474   -7.6537 C   0  0  0  0  0  0  0  0  0  0  0  0
    3.5947   12.5751   -8.8512 C   0  0  0  0  0  0  0  0  0  0  0  0
    3.9212   11.9339  -10.0474 C   0  0  0  0  0  0  0  0  0  0  0  0
    4.1284   10.5546  -10.0742 C   0  0  0  0  0  0  0  0  0  0  0  0
    4.0128    9.7856   -8.9007 C   0  0  0  0  0  0  0  0  0  0  0  0
    4.2183    8.3658   -8.8881 C   0  0  0  0  0  0  0  0  0  0  0  0
    4.1037    7.6299   -7.7436 C   0  0  0  0  0  0  0  0  0  0  0  0
    3.7687    8.2469   -6.4859 C   0  0  0  0  0  0  0  0  0  0  0  0
    3.5566    9.6666   -6.4658 C   0  0  0  0  0  0  0  0  0  0  0  0
    3.6789   10.4312   -7.6705 C   0  0  0  0  0  0  0  0  0  0  0  0
    3.6795    5.4807   -3.9458 O   0  0  0  0  0  0  0  0  0  0  0  0
    3.5391    3.5665   -1.7972 C   0  0  0  0  0  0  0  0  0  0  0  0
    3.4815    2.6084   -0.7825 C   0  0  0  0  0  0  0  0  0  0  0  0
    5.0384   -1.2996    0.9467 H   0  0  0  0  0  0  0  0  0  0  0  0
    5.8437    0.2073    0.4367 H   0  0  0  0  0  0  0  0  0  0  0  0
    5.3573   -0.9992   -0.7760 H   0  0  0  0  0  0  0  0  0  0  0  0
    2.5568   -1.6678    0.4581 H   0  0  0  0  0  0  0  0  0  0  0  0
    2.8296   -1.3740   -1.2736 H   0  0  0  0  0  0  0  0  0  0  0  0
    1.6116   -0.4205   -0.3963 H   0  0  0  0  0  0  0  0  0  0  0  0
    3.2935   -0.0532    2.1871 H   0  0  0  0  0  0  0  0  0  0  0  0
    2.3313    1.2357    1.4362 H   0  0  0  0  0  0  0  0  0  0  0  0
    4.0634    1.4928    1.7767 H   0  0  0  0  0  0  0  0  0  0  0  0
    4.2544   -0.1506   -2.6115 H   0  0  0  0  0  0  0  0  0  0  0  0
    4.3564    1.5389   -4.4053 H   0  0  0  0  0  0  0  0  0  0  0  0
    3.2083    7.6449   -3.1518 H   0  0  0  0  0  0  0  0  0  0  0  0
    2.8464   10.0840   -3.1315 H   0  0  0  0  0  0  0  0  0  0  0  0
    2.7595   12.2525   -4.3167 H   0  0  0  0  0  0  0  0  0  0  0  0
    2.9731   13.5640   -6.4013 H   0  0  0  0  0  0  0  0  0  0  0  0
    3.4331   13.6563   -8.8345 H   0  0  0  0  0  0  0  0  0  0  0  0
    4.0150   12.5159  -10.9676 H   0  0  0  0  0  0  0  0  0  0  0  0
    4.3841   10.0550  -11.0124 H   0  0  0  0  0  0  0  0  0  0  0  0
    4.4740    7.8690   -9.8281 H   0  0  0  0  0  0  0  0  0  0  0  0
    4.2652    6.5533   -7.7612 H   0  0  0  0  0  0  0  0  0  0  0  0
    3.3370    4.6139   -1.5651 H   0  0  0  0  0  0  0  0  0  0  0  0
    3.2327    2.9426    0.2245 H   0  0  0  0  0  0  0  0  0  0  0  0
  2  1  1  1
  1 32  1  0
  1 33  1  0
  1 34  1  0
  2  3  1  0
  2  4  1  0
  2  5  1  0
  3 35  1  0
  3 36  1  0
  3 37  1  0
  4 38  1  0
  4 39  1  0
  4 40  1  0
  5  6  2  0
  5 31  1  0
  6  7  1  0
  6 41  1  0
  7  8  2  0
  7 42  1  0
  8  9  1  0
  8 30  1  0
  9 10  2  0
  9 29  1  0
 10 11  1  0
 11 12  2  0
 12 13  1  0
 12 29  1  0
 13 14  2  0
 13 26  1  0
 14 15  1  0
 14 43  1  0
 15 16  2  0
 15 44  1  0
 16 17  1  0
 16 27  1  0
 17 18  2  0
 17 45  1  0
 18 19  1  0
 18 46  1  0
 19 20  2  0
 19 28  1  0
 20 21  1  0
 20 47  1  0
 21 22  2  0
 21 48  1  0
 22 23  1  0
 22 49  1  0
 23 24  2  0
 23 28  1  0
 24 25  1  0
 24 50  1  0
 25 26  2  0
 25 51  1  0
 26 27  1  0
 27 28  2  0
 30 31  2  0
 30 52  1  0
 31 53  1  0
M  END

