
     RDKit          3D

 41 41  0  0  0  0  0  0  0  0999 V2000
    2.5377   -4.5937   -2.7419 C   0  0  0  0  0  0  0  0  0  0  0  0
    1.1579   -3.9411   -2.8273 C   0  0  0  0  0  0  0  0  0  0  0  0
    0.2511   -4.3548   -1.7622 N   0  0  0  0  0  0  0  0  0  0  0  0
   -0.5588   -5.4743   -1.8108 C   0  0  0  0  0  0  0  0  0  0  0  0
   -1.1729   -5.5456   -0.5830 C   0  0  0  0  0  0  0  0  0  0  0  0
   -0.7577   -4.5122    0.2138 N   0  0  0  0  0  0  0  0  0  0  0  0
    0.0993   -3.8083   -0.5055 C   0  0  0  0  0  0  0  0  0  0  0  0
    0.7996   -2.5721   -0.0161 C   0  0  0  0  0  0  0  0  0  0  0  0
   -0.0704   -1.2858    0.0583 C   0  0  1  0  0  0  0  0  0  0  0  0
   -0.5012   -0.8136   -1.3361 C   0  0  0  0  0  0  0  0  0  0  0  0
   -1.2888   -1.4075    0.9898 C   0  0  0  0  0  0  0  0  0  0  0  0
   -0.9781   -1.7596    2.4446 C   0  0  0  0  0  0  0  0  0  0  0  0
   -2.1883   -1.6847    3.2554 N   0  0  0  0  0  0  0  0  0  0  0  0
   -2.0421   -2.0519    4.6639 C   0  0  1  0  0  0  0  0  0  0  0  0
   -1.3107   -0.9541    5.4448 C   0  0  0  0  0  0  0  0  0  0  0  0
   -3.4291   -2.3086    5.2568 C   0  0  0  0  0  0  0  0  0  0  0  0
    3.1694   -4.2619   -3.5813 H   0  0  0  0  0  0  0  0  0  0  0  0
    2.4591   -5.6911   -2.7841 H   0  0  0  0  0  0  0  0  0  0  0  0
    3.0478   -4.3271   -1.8032 H   0  0  0  0  0  0  0  0  0  0  0  0
    0.6760   -4.1908   -3.7856 H   0  0  0  0  0  0  0  0  0  0  0  0
    1.2450   -2.8456   -2.8028 H   0  0  0  0  0  0  0  0  0  0  0  0
   -0.6212   -6.0983   -2.6993 H   0  0  0  0  0  0  0  0  0  0  0  0
   -1.8930   -6.2866   -0.2371 H   0  0  0  0  0  0  0  0  0  0  0  0
    1.6788   -2.3602   -0.6449 H   0  0  0  0  0  0  0  0  0  0  0  0
    1.1922   -2.7964    0.9874 H   0  0  0  0  0  0  0  0  0  0  0  0
    0.5920   -0.5073    0.4822 H   0  0  0  0  0  0  0  0  0  0  0  0
   -1.1482   -1.5587   -1.8290 H   0  0  0  0  0  0  0  0  0  0  0  0
    0.3675   -0.6309   -1.9908 H   0  0  0  0  0  0  0  0  0  0  0  0
   -1.0716    0.1269   -1.2755 H   0  0  0  0  0  0  0  0  0  0  0  0
   -1.9804   -2.1655    0.5826 H   0  0  0  0  0  0  0  0  0  0  0  0
   -1.8321   -0.4470    0.9853 H   0  0  0  0  0  0  0  0  0  0  0  0
   -0.2390   -1.0402    2.8402 H   0  0  0  0  0  0  0  0  0  0  0  0
   -0.5078   -2.7646    2.4935 H   0  0  0  0  0  0  0  0  0  0  0  0
   -2.8905   -2.2916    2.8318 H   0  0  0  0  0  0  0  0  0  0  0  0
   -1.4483   -2.9907    4.7710 H   0  0  0  0  0  0  0  0  0  0  0  0
   -1.8653   -0.0042    5.3734 H   0  0  0  0  0  0  0  0  0  0  0  0
   -0.2942   -0.7818    5.0588 H   0  0  0  0  0  0  0  0  0  0  0  0
   -1.2159   -1.2287    6.5077 H   0  0  0  0  0  0  0  0  0  0  0  0
   -4.0561   -1.4061    5.1698 H   0  0  0  0  0  0  0  0  0  0  0  0
   -3.3620   -2.5850    6.3205 H   0  0  0  0  0  0  0  0  0  0  0  0
   -3.9419   -3.1311    4.7298 H   0  0  0  0  0  0  0  0  0  0  0  0
  1  2  1  0
  1 17  1  0
  1 18  1  0
  1 19  1  0
  2  3  1  0
  2 20  1  0
  2 21  1  0
  3  4  1  0
  3  7  1  0
  4  5  2  0
  4 22  1  0
  5  6  1  0
  5 23  1  0
  6  7  2  0
  7  8  1  0
  8  9  1  0
  8 24  1  0
  8 25  1  0
  9 10  1  0
  9 11  1  0
  9 26  1  1
 10 27  1  0
 10 28  1  0
 10 29  1  0
 11 12  1  0
 11 30  1  0
 11 31  1  0
 12 13  1  0
 12 32  1  0
 12 33  1  0
 13 14  1  0
 13 34  1  0
 14 15  1  0
 14 16  1  0
 14 35  1  6
 15 36  1  0
 15 37  1  0
 15 38  1  0
 16 39  1  0
 16 40  1  0
 16 41  1  0
M  END

