
     RDKit          3D

 38 40  0  0  0  0  0  0  0  0999 V2000
    1.0890    0.3472    0.1072 C   0  0  0  0  0  0  0  0  0  0  0  0
    2.6141    0.2024    0.0804 C   0  0  1  0  0  0  0  0  0  0  0  0
    3.0629    1.1310    0.4741 H   0  0  0  0  0  0  0  0  0  0  0  0
    3.0656   -0.9659    0.9887 C   0  0  0  0  0  0  0  0  0  0  0  0
    4.5631   -1.1290    1.1520 C   0  0  0  0  0  0  0  0  0  0  0  0
    5.3160   -0.1727    1.8553 C   0  0  0  0  0  0  0  0  0  0  0  0
    6.6972   -0.3124    2.0060 C   0  0  0  0  0  0  0  0  0  0  0  0
    7.3569   -1.4170    1.4567 C   0  0  0  0  0  0  0  0  0  0  0  0
    6.6224   -2.3781    0.7581 C   0  0  0  0  0  0  0  0  0  0  0  0
    5.2392   -2.2327    0.6088 C   0  0  0  0  0  0  0  0  0  0  0  0
    3.1571    0.0086   -1.3480 C   0  0  0  0  0  0  0  0  0  0  0  0
    2.8104    1.0802   -2.2702 N   0  0  0  0  0  0  0  0  0  0  0  0
    1.8478    0.9579   -3.2865 C   0  0  0  0  0  0  0  0  0  0  0  0
    1.1825   -0.0271   -3.5082 O   0  0  0  0  0  0  0  0  0  0  0  0
    1.8470    2.2725   -4.0025 C   0  0  0  0  0  0  0  0  0  0  0  0
    1.0885    2.7067   -5.0830 C   0  0  0  0  0  0  0  0  0  0  0  0
    1.3136    4.0115   -5.5482 C   0  0  0  0  0  0  0  0  0  0  0  0
    2.2695    4.8407   -4.9428 C   0  0  0  0  0  0  0  0  0  0  0  0
    3.0310    4.3919   -3.8527 C   0  0  0  0  0  0  0  0  0  0  0  0
    2.7994    3.0989   -3.3990 C   0  0  0  0  0  0  0  0  0  0  0  0
    3.4372    2.3359   -2.2794 C   0  0  0  0  0  0  0  0  0  0  0  0
    4.3111    2.6879   -1.5212 O   0  0  0  0  0  0  0  0  0  0  0  0
    0.7277    0.4988    1.1370 H   0  0  0  0  0  0  0  0  0  0  0  0
    0.5945   -0.5518   -0.2967 H   0  0  0  0  0  0  0  0  0  0  0  0
    0.7513    1.2080   -0.4900 H   0  0  0  0  0  0  0  0  0  0  0  0
    2.6347   -1.9050    0.5999 H   0  0  0  0  0  0  0  0  0  0  0  0
    2.6109   -0.8101    1.9823 H   0  0  0  0  0  0  0  0  0  0  0  0
    4.8125    0.6938    2.2942 H   0  0  0  0  0  0  0  0  0  0  0  0
    7.2620    0.4441    2.5572 H   0  0  0  0  0  0  0  0  0  0  0  0
    8.4379   -1.5276    1.5751 H   0  0  0  0  0  0  0  0  0  0  0  0
    7.1263   -3.2474    0.3272 H   0  0  0  0  0  0  0  0  0  0  0  0
    4.6727   -2.9932    0.0631 H   0  0  0  0  0  0  0  0  0  0  0  0
    2.7535   -0.9175   -1.7859 H   0  0  0  0  0  0  0  0  0  0  0  0
    4.2539   -0.0696   -1.3176 H   0  0  0  0  0  0  0  0  0  0  0  0
    0.3481    2.0513   -5.5469 H   0  0  0  0  0  0  0  0  0  0  0  0
    0.7366    4.3898   -6.3958 H   0  0  0  0  0  0  0  0  0  0  0  0
    2.4222    5.8518   -5.3284 H   0  0  0  0  0  0  0  0  0  0  0  0
    3.7792    5.0276   -3.3742 H   0  0  0  0  0  0  0  0  0  0  0  0
  1  2  1  0
  1 23  1  0
  1 24  1  0
  1 25  1  0
  2  3  1  1
  2  4  1  0
  2 11  1  0
  4  5  1  0
  4 26  1  0
  4 27  1  0
  5  6  2  0
  5 10  1  0
  6  7  1  0
  6 28  1  0
  7  8  2  0
  7 29  1  0
  8  9  1  0
  8 30  1  0
  9 10  2  0
  9 31  1  0
 10 32  1  0
 11 12  1  0
 11 33  1  0
 11 34  1  0
 12 13  1  0
 12 21  1  0
 13 14  2  0
 13 15  1  0
 15 16  1  0
 15 20  2  0
 16 17  2  0
 16 35  1  0
 17 18  1  0
 17 36  1  0
 18 19  2  0
 18 37  1  0
 19 20  1  0
 19 38  1  0
 20 21  1  0
 21 22  2  0
M  END

