
     RDKit          3D

 62 66  0  0  0  0  0  0  0  0999 V2000
    8.7598   -1.5436   -2.0839 N   0  0  0  0  0  0  0  0  0  0  0  0
    7.9109   -0.8745   -1.6679 C   0  0  0  0  0  0  0  0  0  0  0  0
    6.8197   -0.0558   -1.1137 C   0  0  0  0  0  0  0  0  0  0  0  0
    7.0515    0.3309    0.2595 N   0  0  0  0  0  0  0  0  0  0  0  0
    7.0675    1.6565    0.6310 C   0  0  0  0  0  0  0  0  0  0  0  0
    6.8488    2.5515   -0.1691 O   0  0  0  0  0  0  0  0  0  0  0  0
    7.3472    1.9317    2.0814 C   0  0  0  0  0  0  0  0  0  0  0  0
    8.0029    1.0301    2.9358 C   0  0  0  0  0  0  0  0  0  0  0  0
    8.2363    1.3582    4.2697 C   0  0  0  0  0  0  0  0  0  0  0  0
    7.8306    2.6012    4.7866 C   0  0  0  0  0  0  0  0  0  0  0  0
    8.0965    2.9305    6.2150 C   0  0  0  0  0  0  0  0  0  0  0  0
    8.1402    4.2524    6.6827 C   0  0  0  0  0  0  0  0  0  0  0  0
    8.4211    4.4229    8.0432 C   0  0  0  0  0  0  0  0  0  0  0  0
    8.6355    3.4122    8.8707 N   0  0  0  0  0  0  0  0  0  0  0  0
    8.5722    2.1725    8.3289 C   0  0  0  0  0  0  0  0  0  0  0  0
    8.8041    1.1663    9.2252 N   0  0  0  0  0  0  0  0  0  0  0  0
    8.8206   -0.2337    9.1033 C   0  0  0  0  0  0  0  0  0  0  0  0
    8.3711   -0.9483    7.9836 C   0  0  0  0  0  0  0  0  0  0  0  0
    8.4059   -2.3460    7.9712 C   0  0  0  0  0  0  0  0  0  0  0  0
    8.9003   -3.0944    9.0573 C   0  0  0  0  0  0  0  0  0  0  0  0
    8.9867   -4.4996    9.0426 N   0  0  0  0  0  0  0  0  0  0  0  0
    8.7696   -5.1966    7.7832 C   0  0  0  0  0  0  0  0  0  0  0  0
    9.3933   -6.5946    7.8111 C   0  0  0  0  0  0  0  0  0  0  0  0
    8.8983   -7.4412    9.0036 C   0  0  2  0  0  0  0  0  0  0  0  0
    7.4994   -7.9385    8.7950 C   0  0  0  0  0  0  0  0  0  0  0  0
    6.4871   -7.7999    9.5597 N   0  0  0  0  0  0  0  0  0  0  0  0
    5.3891   -8.3467    8.8668 N   0  0  0  0  0  0  0  0  0  0  0  0
    5.9401   -9.1626    7.7797 C   0  0  0  0  0  0  0  0  0  0  0  0
    7.2505   -8.6211    7.6286 O   0  0  0  0  0  0  0  0  0  0  0  0
    9.0572   -6.6372   10.3039 C   0  0  0  0  0  0  0  0  0  0  0  0
    8.4608   -5.2315   10.2009 C   0  0  0  0  0  0  0  0  0  0  0  0
    9.3501   -2.3601   10.1782 C   0  0  0  0  0  0  0  0  0  0  0  0
    9.3070   -0.9726   10.2003 C   0  0  0  0  0  0  0  0  0  0  0  0
    8.3146    1.8989    7.0437 N   0  0  0  0  0  0  0  0  0  0  0  0
    7.1865    3.5060    3.9228 C   0  0  0  0  0  0  0  0  0  0  0  0
    6.9532    3.1787    2.5899 C   0  0  0  0  0  0  0  0  0  0  0  0
    5.8740   -0.6148   -1.2302 H   0  0  0  0  0  0  0  0  0  0  0  0
    6.7236    0.8770   -1.6920 H   0  0  0  0  0  0  0  0  0  0  0  0
    7.1295   -0.3923    0.9629 H   0  0  0  0  0  0  0  0  0  0  0  0
    8.3712    0.0716    2.5607 H   0  0  0  0  0  0  0  0  0  0  0  0
    8.7541    0.6610    4.9292 H   0  0  0  0  0  0  0  0  0  0  0  0
    7.9949    5.1115    6.0297 H   0  0  0  0  0  0  0  0  0  0  0  0
    8.4783    5.4301    8.4742 H   0  0  0  0  0  0  0  0  0  0  0  0
    9.0209    1.5320   10.1459 H   0  0  0  0  0  0  0  0  0  0  0  0
    7.9776   -0.4057    7.1280 H   0  0  0  0  0  0  0  0  0  0  0  0
    8.0178   -2.8532    7.0877 H   0  0  0  0  0  0  0  0  0  0  0  0
    9.2423   -4.6206    6.9745 H   0  0  0  0  0  0  0  0  0  0  0  0
    7.6871   -5.2712    7.5338 H   0  0  0  0  0  0  0  0  0  0  0  0
   10.4871   -6.4900    7.8976 H   0  0  0  0  0  0  0  0  0  0  0  0
    9.1840   -7.1123    6.8626 H   0  0  0  0  0  0  0  0  0  0  0  0
    9.5322   -8.3451    9.0552 H   0  0  0  0  0  0  0  0  0  0  0  0
    4.7811   -8.8445    9.5118 H   0  0  0  0  0  0  0  0  0  0  0  0
    5.3838   -9.0379    6.8364 H   0  0  0  0  0  0  0  0  0  0  0  0
    6.0131  -10.2488    8.0177 H   0  0  0  0  0  0  0  0  0  0  0  0
   10.1347   -6.5527   10.5216 H   0  0  0  0  0  0  0  0  0  0  0  0
    8.5851   -7.1696   11.1434 H   0  0  0  0  0  0  0  0  0  0  0  0
    8.6950   -4.6766   11.1181 H   0  0  0  0  0  0  0  0  0  0  0  0
    7.3562   -5.3043   10.1427 H   0  0  0  0  0  0  0  0  0  0  0  0
    9.7687   -2.8844   11.0390 H   0  0  0  0  0  0  0  0  0  0  0  0
    9.6756   -0.4431   11.0844 H   0  0  0  0  0  0  0  0  0  0  0  0
    6.8434    4.4719    4.2981 H   0  0  0  0  0  0  0  0  0  0  0  0
    6.4575    3.8805    1.9169 H   0  0  0  0  0  0  0  0  0  0  0  0
  1  2  3  0
  2  3  1  0
  3  4  1  0
  3 37  1  0
  3 38  1  0
  4  5  1  0
  4 39  1  0
  5  6  2  0
  5  7  1  0
  7  8  2  0
  7 36  1  0
  8  9  1  0
  8 40  1  0
  9 10  2  0
  9 41  1  0
 10 11  1  0
 10 35  1  0
 11 12  2  0
 11 34  1  0
 12 13  1  0
 12 42  1  0
 13 14  2  0
 13 43  1  0
 14 15  1  0
 15 16  1  0
 15 34  2  0
 16 17  1  0
 16 44  1  0
 17 18  2  0
 17 33  1  0
 18 19  1  0
 18 45  1  0
 19 20  2  0
 19 46  1  0
 20 21  1  0
 20 32  1  0
 21 22  1  0
 21 31  1  0
 22 23  1  0
 22 47  1  0
 22 48  1  0
 23 24  1  0
 23 49  1  0
 23 50  1  0
 24 25  1  0
 24 30  1  0
 24 51  1  1
 25 26  2  0
 25 29  1  0
 26 27  1  0
 27 28  1  0
 27 52  1  0
 28 29  1  0
 28 53  1  0
 28 54  1  0
 30 31  1  0
 30 55  1  0
 30 56  1  0
 31 57  1  0
 31 58  1  0
 32 33  2  0
 32 59  1  0
 33 60  1  0
 35 36  2  0
 35 61  1  0
 36 62  1  0
M  END

