
     RDKit          3D

 32 33  0  0  0  0  0  0  0  0999 V2000
    1.2024    1.6013   -0.2945 C   0  0  0  0  0  0  0  0  0  0  0  0
    2.4873    0.9264    0.1553 C   0  0  0  0  0  0  0  0  0  0  0  0
    3.4163    1.8654    0.7292 O   0  0  0  0  0  0  0  0  0  0  0  0
    4.1907    2.5512   -0.1282 C   0  0  0  0  0  0  0  0  0  0  0  0
    4.1307    2.4764   -1.3316 O   0  0  0  0  0  0  0  0  0  0  0  0
    5.0080    3.4398    0.5573 N   0  0  0  0  0  0  0  0  0  0  0  0
    6.2238    3.2852    0.8661 C   0  0  0  0  0  0  0  0  0  0  0  0
    6.8233    4.3932    1.4256 O   0  0  0  0  0  0  0  0  0  0  0  0
    8.1316    4.4637    1.7678 C   0  0  0  0  0  0  0  0  0  0  0  0
    8.5972    5.6620    2.2930 C   0  0  0  0  0  0  0  0  0  0  0  0
    9.9496    5.7755    2.6562 C   0  0  0  0  0  0  0  0  0  0  0  0
   10.3219    6.9682    3.1539 O   0  0  0  0  0  0  0  0  0  0  0  0
   11.6639    7.1870    3.5465 C   0  0  0  0  0  0  0  0  0  0  0  0
   10.8269    4.6782    2.4904 C   0  0  0  0  0  0  0  0  0  0  0  0
   10.3397    3.4881    1.9673 C   0  0  0  0  0  0  0  0  0  0  0  0
    8.9887    3.3497    1.5946 C   0  0  0  0  0  0  0  0  0  0  0  0
    8.4111    2.1522    1.0701 C   0  0  0  0  0  0  0  0  0  0  0  0
    7.0871    2.0939    0.7235 C   0  0  0  0  0  0  0  0  0  0  0  0
    6.5300    0.8616    0.2570 C   0  0  0  0  0  0  0  0  0  0  0  0
    6.1124   -0.1625   -0.0980 N   0  0  0  0  0  0  0  0  0  0  0  0
    0.4870    0.8425   -0.6512 H   0  0  0  0  0  0  0  0  0  0  0  0
    1.3989    2.3016   -1.1194 H   0  0  0  0  0  0  0  0  0  0  0  0
    0.7346    2.1520    0.5367 H   0  0  0  0  0  0  0  0  0  0  0  0
    2.9787    0.4054   -0.6796 H   0  0  0  0  0  0  0  0  0  0  0  0
    2.2983    0.2032    0.9618 H   0  0  0  0  0  0  0  0  0  0  0  0
    7.9236    6.5093    2.4202 H   0  0  0  0  0  0  0  0  0  0  0  0
   11.7129    8.2210    3.9111 H   0  0  0  0  0  0  0  0  0  0  0  0
   12.3600    7.0716    2.6978 H   0  0  0  0  0  0  0  0  0  0  0  0
   11.9664    6.5044    4.3594 H   0  0  0  0  0  0  0  0  0  0  0  0
   11.8771    4.7539    2.7682 H   0  0  0  0  0  0  0  0  0  0  0  0
   11.0128    2.6364    1.8401 H   0  0  0  0  0  0  0  0  0  0  0  0
    9.0363    1.2633    0.9548 H   0  0  0  0  0  0  0  0  0  0  0  0
  1  2  1  0
  1 21  1  0
  1 22  1  0
  1 23  1  0
  2  3  1  0
  2 24  1  0
  2 25  1  0
  3  4  1  0
  4  5  2  0
  4  6  1  0
  6  7  2  0
  7  8  1  0
  7 18  1  0
  8  9  1  0
  9 10  2  0
  9 16  1  0
 10 11  1  0
 10 26  1  0
 11 12  1  0
 11 14  2  0
 12 13  1  0
 13 27  1  0
 13 28  1  0
 13 29  1  0
 14 15  1  0
 14 30  1  0
 15 16  2  0
 15 31  1  0
 16 17  1  0
 17 18  2  0
 17 32  1  0
 18 19  1  0
 19 20  3  0
M  END

