
     RDKit          3D

 30 32  0  0  0  0  0  0  0  0999 V2000
    1.0550    0.6897   -0.6168 C   0  0  0  0  0  0  0  0  0  0  0  0
    2.3928    0.2316   -0.0218 C   0  0  0  0  0  0  0  0  0  0  0  0
    3.2626   -0.4971   -1.0101 C   0  0  0  0  0  0  0  0  0  0  0  0
    4.5089   -0.1109   -1.4413 C   0  0  0  0  0  0  0  0  0  0  0  0
    5.1430   -1.2441   -2.5867 S   0  0  0  0  0  0  0  0  0  0  0  0
    3.6691   -2.1678   -2.4127 C   0  0  0  0  0  0  0  0  0  0  0  0
    3.4372   -3.4445   -3.1805 C   0  0  2  0  0  0  0  0  0  0  0  0
    3.1131   -4.6081   -2.2424 C   0  0  0  0  0  0  0  0  0  0  0  0
    2.6826   -6.0977   -3.1984 S   0  0  0  0  0  0  0  0  0  0  0  0
    3.9491   -5.9992   -4.4446 C   0  0  0  0  0  0  0  0  0  0  0  0
    4.1739   -7.1262   -5.2542 C   0  0  0  0  0  0  0  0  0  0  0  0
    5.1449   -7.1162   -6.2536 C   0  0  0  0  0  0  0  0  0  0  0  0
    5.9234   -5.9699   -6.4528 C   0  0  0  0  0  0  0  0  0  0  0  0
    5.7118   -4.8433   -5.6613 C   0  0  0  0  0  0  0  0  0  0  0  0
    4.7265   -4.8437   -4.6641 C   0  0  0  0  0  0  0  0  0  0  0  0
    4.6104   -3.6895   -3.9377 O   0  0  0  0  0  0  0  0  0  0  0  0
    2.8089   -1.6681   -1.5777 N   0  0  0  0  0  0  0  0  0  0  0  0
    0.4249    1.1670    0.1504 H   0  0  0  0  0  0  0  0  0  0  0  0
    0.5039   -0.1689   -1.0298 H   0  0  0  0  0  0  0  0  0  0  0  0
    1.2088    1.4149   -1.4320 H   0  0  0  0  0  0  0  0  0  0  0  0
    2.1975   -0.4429    0.8307 H   0  0  0  0  0  0  0  0  0  0  0  0
    2.9495    1.0931    0.3804 H   0  0  0  0  0  0  0  0  0  0  0  0
    5.0781    0.7679   -1.1430 H   0  0  0  0  0  0  0  0  0  0  0  0
    2.5786   -3.2937   -3.8624 H   0  0  0  0  0  0  0  0  0  0  0  0
    2.2400   -4.3504   -1.6278 H   0  0  0  0  0  0  0  0  0  0  0  0
    3.9700   -4.8010   -1.5787 H   0  0  0  0  0  0  0  0  0  0  0  0
    3.5753   -8.0247   -5.0813 H   0  0  0  0  0  0  0  0  0  0  0  0
    5.2987   -8.0050   -6.8697 H   0  0  0  0  0  0  0  0  0  0  0  0
    6.6937   -5.9512   -7.2273 H   0  0  0  0  0  0  0  0  0  0  0  0
    6.2979   -3.9316   -5.7956 H   0  0  0  0  0  0  0  0  0  0  0  0
  1  2  1  0
  1 18  1  0
  1 19  1  0
  1 20  1  0
  2  3  1  0
  2 21  1  0
  2 22  1  0
  3  4  2  0
  3 17  1  0
  4  5  1  0
  4 23  1  0
  5  6  1  0
  6  7  1  0
  6 17  2  0
  7  8  1  0
  7 16  1  0
  7 24  1  6
  8  9  1  0
  8 25  1  0
  8 26  1  0
  9 10  1  0
 10 11  2  0
 10 15  1  0
 11 12  1  0
 11 27  1  0
 12 13  2  0
 12 28  1  0
 13 14  1  0
 13 29  1  0
 14 15  2  0
 14 30  1  0
 15 16  1  0
M  END

