
     RDKit          3D

 71 78  0  0  0  0  0  0  0  0999 V2000
    1.1206    0.3001   -1.1689 F   0  0  0  0  0  0  0  0  0  0  0  0
    2.4512    0.1342   -0.8163 B   0  0  1  0  0  0  0  0  0  0  0  0
    2.6385    0.1680    0.5553 F   0  0  0  0  0  0  0  0  0  0  0  0
    2.9970   -1.2460   -1.3522 N   0  0  0  0  0  0  0  0  0  0  0  0
    4.0339   -1.3747   -2.2718 C   0  0  0  0  0  0  0  0  0  0  0  0
    4.3491   -2.7504   -2.3953 C   0  0  0  0  0  0  0  0  0  0  0  0
    3.4992   -3.4598   -1.5502 C   0  0  0  0  0  0  0  0  0  0  0  0
    3.4619   -4.9309   -1.4091 C   0  0  0  0  0  0  0  0  0  0  0  0
    4.6633   -5.6655   -1.3771 C   0  0  0  0  0  0  0  0  0  0  0  0
    4.6522   -7.0593   -1.2910 C   0  0  0  0  0  0  0  0  0  0  0  0
    3.4386   -7.7505   -1.2327 C   0  0  0  0  0  0  0  0  0  0  0  0
    2.2376   -7.0347   -1.2646 C   0  0  0  0  0  0  0  0  0  0  0  0
    2.2472   -5.6415   -1.3526 C   0  0  0  0  0  0  0  0  0  0  0  0
    2.6706   -2.4823   -0.9009 C   0  0  0  0  0  0  0  0  0  0  0  0
    1.6663   -2.7502    0.1505 C   0  0  0  0  0  0  0  0  0  0  0  0
    2.0324   -3.5456    1.2541 C   0  0  0  0  0  0  0  0  0  0  0  0
    1.1086   -3.8407    2.2564 C   0  0  0  0  0  0  0  0  0  0  0  0
   -0.2019   -3.3606    2.1664 C   0  0  0  0  0  0  0  0  0  0  0  0
   -0.5774   -2.5772    1.0716 C   0  0  0  0  0  0  0  0  0  0  0  0
    0.3468   -2.2681    0.0715 C   0  0  0  0  0  0  0  0  0  0  0  0
    4.6496   -0.2552   -2.8610 C   0  0  0  0  0  0  0  0  0  0  0  0
    5.7206   -0.4469   -3.8737 C   0  0  0  0  0  0  0  0  0  0  0  0
    6.9889    0.1377   -3.6971 C   0  0  0  0  0  0  0  0  0  0  0  0
    7.9953   -0.0482   -4.6472 C   0  0  0  0  0  0  0  0  0  0  0  0
    7.7497   -0.8108   -5.7931 C   0  0  0  0  0  0  0  0  0  0  0  0
    6.4921   -1.3920   -5.9816 C   0  0  0  0  0  0  0  0  0  0  0  0
    5.4865   -1.2170   -5.0286 C   0  0  0  0  0  0  0  0  0  0  0  0
    4.2551    1.0448   -2.4942 C   0  0  0  0  0  0  0  0  0  0  0  0
    4.6488    2.2961   -3.0290 C   0  0  0  0  0  0  0  0  0  0  0  0
    3.9197    3.2872   -2.3757 C   0  0  0  0  0  0  0  0  0  0  0  0
    4.0546    4.7421   -2.5997 C   0  0  0  0  0  0  0  0  0  0  0  0
    4.2194    5.2402   -3.9069 C   0  0  0  0  0  0  0  0  0  0  0  0
    4.3930    6.6061   -4.1399 C   0  0  0  0  0  0  0  0  0  0  0  0
    4.4035    7.5061   -3.0702 C   0  0  0  0  0  0  0  0  0  0  0  0
    4.2422    7.0262   -1.7666 C   0  0  0  0  0  0  0  0  0  0  0  0
    4.0705    5.6607   -1.5322 C   0  0  0  0  0  0  0  0  0  0  0  0
    3.0648    2.6076   -1.4431 C   0  0  0  0  0  0  0  0  0  0  0  0
    2.0418    3.2352   -0.5789 C   0  0  0  0  0  0  0  0  0  0  0  0
    1.1074    4.1152   -1.1587 C   0  0  0  0  0  0  0  0  0  0  0  0
    0.1417    4.7452   -0.3740 C   0  0  0  0  0  0  0  0  0  0  0  0
    0.1028    4.5204    1.0058 C   0  0  0  0  0  0  0  0  0  0  0  0
    1.0314    3.6561    1.5922 C   0  0  0  0  0  0  0  0  0  0  0  0
    1.9926    3.0131    0.8095 C   0  0  0  0  0  0  0  0  0  0  0  0
    3.2864    1.2724   -1.5207 N   0  0  0  0  0  0  0  0  0  0  0  0
    5.1084   -3.1682   -3.0511 H   0  0  0  0  0  0  0  0  0  0  0  0
    5.6168   -5.1321   -1.4041 H   0  0  0  0  0  0  0  0  0  0  0  0
    5.5977   -7.6074   -1.2625 H   0  0  0  0  0  0  0  0  0  0  0  0
    3.4283   -8.8412   -1.1627 H   0  0  0  0  0  0  0  0  0  0  0  0
    1.2828   -7.5656   -1.2264 H   0  0  0  0  0  0  0  0  0  0  0  0
    1.3023   -5.0967   -1.3916 H   0  0  0  0  0  0  0  0  0  0  0  0
    3.0545   -3.9213    1.3304 H   0  0  0  0  0  0  0  0  0  0  0  0
    1.4142   -4.4482    3.1120 H   0  0  0  0  0  0  0  0  0  0  0  0
   -0.9278   -3.5953    2.9493 H   0  0  0  0  0  0  0  0  0  0  0  0
   -1.5992   -2.1973    0.9942 H   0  0  0  0  0  0  0  0  0  0  0  0
    0.0499   -1.6442   -0.7701 H   0  0  0  0  0  0  0  0  0  0  0  0
    7.1891    0.7227   -2.7970 H   0  0  0  0  0  0  0  0  0  0  0  0
    8.9781    0.4029   -4.4887 H   0  0  0  0  0  0  0  0  0  0  0  0
    8.5368   -0.9518   -6.5379 H   0  0  0  0  0  0  0  0  0  0  0  0
    6.2898   -1.9832   -6.8783 H   0  0  0  0  0  0  0  0  0  0  0  0
    4.5016   -1.6616   -5.1860 H   0  0  0  0  0  0  0  0  0  0  0  0
    5.4032    2.4459   -3.7968 H   0  0  0  0  0  0  0  0  0  0  0  0
    4.1941    4.5460   -4.7506 H   0  0  0  0  0  0  0  0  0  0  0  0
    4.5138    6.9696   -5.1638 H   0  0  0  0  0  0  0  0  0  0  0  0
    4.5366    8.5757   -3.2511 H   0  0  0  0  0  0  0  0  0  0  0  0
    4.2555    7.7203   -0.9222 H   0  0  0  0  0  0  0  0  0  0  0  0
    3.9605    5.2988   -0.5085 H   0  0  0  0  0  0  0  0  0  0  0  0
    1.1328    4.2926   -2.2357 H   0  0  0  0  0  0  0  0  0  0  0  0
   -0.5841    5.4145   -0.8427 H   0  0  0  0  0  0  0  0  0  0  0  0
   -0.6512    5.0171    1.6220 H   0  0  0  0  0  0  0  0  0  0  0  0
    1.0075    3.4752    2.6698 H   0  0  0  0  0  0  0  0  0  0  0  0
    2.7036    2.3304    1.2721 H   0  0  0  0  0  0  0  0  0  0  0  0
  2  1  1  1
  2  3  1  0
  2  4  1  0
  2 44  1  0
  4  5  1  0
  4 14  1  0
  5  6  2  0
  5 21  1  0
  6  7  1  0
  6 45  1  0
  7  8  1  0
  7 14  2  0
  8  9  2  0
  8 13  1  0
  9 10  1  0
  9 46  1  0
 10 11  2  0
 10 47  1  0
 11 12  1  0
 11 48  1  0
 12 13  2  0
 12 49  1  0
 13 50  1  0
 14 15  1  0
 15 16  2  0
 15 20  1  0
 16 17  1  0
 16 51  1  0
 17 18  2  0
 17 52  1  0
 18 19  1  0
 18 53  1  0
 19 20  2  0
 19 54  1  0
 20 55  1  0
 21 22  1  0
 21 28  2  0
 22 23  2  0
 22 27  1  0
 23 24  1  0
 23 56  1  0
 24 25  2  0
 24 57  1  0
 25 26  1  0
 25 58  1  0
 26 27  2  0
 26 59  1  0
 27 60  1  0
 28 29  1  0
 28 44  1  0
 29 30  2  0
 29 61  1  0
 30 31  1  0
 30 37  1  0
 31 32  2  0
 31 36  1  0
 32 33  1  0
 32 62  1  0
 33 34  2  0
 33 63  1  0
 34 35  1  0
 34 64  1  0
 35 36  2  0
 35 65  1  0
 36 66  1  0
 37 38  1  0
 37 44  2  0
 38 39  2  0
 38 43  1  0
 39 40  1  0
 39 67  1  0
 40 41  2  0
 40 68  1  0
 41 42  1  0
 41 69  1  0
 42 43  2  0
 42 70  1  0
 43 71  1  0
M  CHG  2   2  -1  44   1
M  END

