
     RDKit          3D

 36 36  0  0  0  0  0  0  0  0999 V2000
    0.6998   -2.9331    2.3141 C   0  0  0  0  0  0  0  0  0  0  0  0
    2.0926   -2.8390    2.4363 O   0  0  0  0  0  0  0  0  0  0  0  0
    2.6372   -1.6535    1.9110 C   0  0  0  0  0  0  0  0  0  0  0  0
    4.1492   -1.6840    2.0799 C   0  0  0  0  0  0  0  0  0  0  0  0
    4.8052   -2.8550    1.3422 C   0  0  0  0  0  0  0  0  0  0  0  0
    6.2470   -2.8821    1.5020 N   0  0  0  0  0  0  0  0  0  0  0  0
    6.9214   -4.0069    1.9106 C   0  0  0  0  0  0  0  0  0  0  0  0
    6.3869   -5.0610    2.2135 O   0  0  0  0  0  0  0  0  0  0  0  0
    8.3092   -3.8470    1.9534 N   0  0  0  0  0  0  0  0  0  0  0  0
    9.0839   -4.8676    2.5112 N   0  0  0  0  0  0  0  0  0  0  0  0
    9.4315   -5.9090    1.5406 C   0  0  0  0  0  0  0  0  0  0  0  0
   10.3784   -6.9264    2.1432 C   0  0  0  0  0  0  0  0  0  0  0  0
   10.2435   -8.2911    1.8522 C   0  0  0  0  0  0  0  0  0  0  0  0
   11.1460   -9.2228    2.3728 C   0  0  0  0  0  0  0  0  0  0  0  0
   12.1930   -8.8120    3.2014 C   0  0  0  0  0  0  0  0  0  0  0  0
   12.3171   -7.4514    3.4969 C   0  0  0  0  0  0  0  0  0  0  0  0
   13.7384   -6.8678    4.6352 Br  0  0  0  0  0  0  0  0  0  0  0  0
   11.4271   -6.5099    2.9795 C   0  0  0  0  0  0  0  0  0  0  0  0
    0.3863   -3.8911    2.7541 H   0  0  0  0  0  0  0  0  0  0  0  0
    0.3718   -2.9078    1.2544 H   0  0  0  0  0  0  0  0  0  0  0  0
    0.1788   -2.1123    2.8489 H   0  0  0  0  0  0  0  0  0  0  0  0
    2.2147   -0.7657    2.4279 H   0  0  0  0  0  0  0  0  0  0  0  0
    2.3722   -1.5496    0.8352 H   0  0  0  0  0  0  0  0  0  0  0  0
    4.3934   -1.7497    3.1533 H   0  0  0  0  0  0  0  0  0  0  0  0
    4.5570   -0.7240    1.7145 H   0  0  0  0  0  0  0  0  0  0  0  0
    4.5347   -2.8162    0.2688 H   0  0  0  0  0  0  0  0  0  0  0  0
    4.4225   -3.8058    1.7347 H   0  0  0  0  0  0  0  0  0  0  0  0
    6.7854   -2.1226    1.1012 H   0  0  0  0  0  0  0  0  0  0  0  0
    8.6681   -2.9158    2.1450 H   0  0  0  0  0  0  0  0  0  0  0  0
    8.5569   -5.2947    3.2776 H   0  0  0  0  0  0  0  0  0  0  0  0
    9.9222   -5.4045    0.6897 H   0  0  0  0  0  0  0  0  0  0  0  0
    8.5395   -6.4251    1.1391 H   0  0  0  0  0  0  0  0  0  0  0  0
    9.4217   -8.6270    1.2143 H   0  0  0  0  0  0  0  0  0  0  0  0
   11.0309  -10.2843    2.1388 H   0  0  0  0  0  0  0  0  0  0  0  0
   12.8978   -9.5343    3.6162 H   0  0  0  0  0  0  0  0  0  0  0  0
   11.5271   -5.4526    3.2268 H   0  0  0  0  0  0  0  0  0  0  0  0
  1  2  1  0
  1 19  1  0
  1 20  1  0
  1 21  1  0
  2  3  1  0
  3  4  1  0
  3 22  1  0
  3 23  1  0
  4  5  1  0
  4 24  1  0
  4 25  1  0
  5  6  1  0
  5 26  1  0
  5 27  1  0
  6  7  1  0
  6 28  1  0
  7  8  2  0
  7  9  1  0
  9 10  1  0
  9 29  1  0
 10 11  1  0
 10 30  1  0
 11 12  1  0
 11 31  1  0
 11 32  1  0
 12 13  2  0
 12 18  1  0
 13 14  1  0
 13 33  1  0
 14 15  2  0
 14 34  1  0
 15 16  1  0
 15 35  1  0
 16 17  1  0
 16 18  2  0
 18 36  1  0
M  END

