
     RDKit          3D

 48 49  0  0  0  0  0  0  0  0999 V2000
    0.5797   -0.2252   -0.1742 C   0  0  0  0  0  0  0  0  0  0  0  0
    2.1013   -0.3041   -0.0297 C   0  0  0  0  0  0  0  0  0  0  0  0
    2.7568    0.9314    0.6254 C   0  0  1  0  0  0  0  0  0  0  0  0
    4.2575    0.7117    0.9081 C   0  0  0  0  0  0  0  0  0  0  0  0
    5.1190    0.7802   -0.3603 C   0  0  0  0  0  0  0  0  0  0  0  0
    4.8907    2.0902   -1.1219 C   0  0  0  0  0  0  0  0  0  0  0  0
    3.4098    2.3263   -1.4494 C   0  0  2  0  0  0  0  0  0  0  0  0
    3.2603    3.6279   -2.0978 N   0  0  0  0  0  0  0  0  0  0  0  0
    2.0066    3.8502   -2.8058 C   0  0  0  0  0  0  0  0  0  0  0  0
    1.9803    5.2063   -3.4518 C   0  0  0  0  0  0  0  0  0  0  0  0
    2.4655    6.4321   -2.9276 C   0  0  0  0  0  0  0  0  0  0  0  0
    2.1691    7.3658   -3.9062 C   0  0  0  0  0  0  0  0  0  0  0  0
    1.5525    6.6966   -4.9180 N   0  0  0  0  0  0  0  0  0  0  0  0
    1.0711    7.2364   -6.1942 C   0  0  1  0  0  0  0  0  0  0  0  0
    1.8914    6.6729   -7.3581 C   0  0  0  0  0  0  0  0  0  0  0  0
   -0.4363    6.9878   -6.3642 C   0  0  0  0  0  0  0  0  0  0  0  0
   -1.3039    7.6183   -5.2761 C   0  0  0  0  0  0  0  0  0  0  0  0
    1.4387    5.3844   -4.6577 N   0  0  0  0  0  0  0  0  0  0  0  0
    2.5691    2.2465   -0.1617 C   0  0  0  0  0  0  0  0  0  0  0  0
    0.1689   -1.1730   -0.5578 H   0  0  0  0  0  0  0  0  0  0  0  0
    0.2675    0.5687   -0.8711 H   0  0  0  0  0  0  0  0  0  0  0  0
    0.0949   -0.0224    0.7960 H   0  0  0  0  0  0  0  0  0  0  0  0
    2.5488   -0.5007   -1.0191 H   0  0  0  0  0  0  0  0  0  0  0  0
    2.3537   -1.1846    0.5881 H   0  0  0  0  0  0  0  0  0  0  0  0
    2.2538    1.0659    1.6009 H   0  0  0  0  0  0  0  0  0  0  0  0
    4.4091   -0.2530    1.4223 H   0  0  0  0  0  0  0  0  0  0  0  0
    4.6011    1.4940    1.6088 H   0  0  0  0  0  0  0  0  0  0  0  0
    4.8879   -0.0750   -1.0198 H   0  0  0  0  0  0  0  0  0  0  0  0
    6.1855    0.6800   -0.0973 H   0  0  0  0  0  0  0  0  0  0  0  0
    5.4835    2.0985   -2.0544 H   0  0  0  0  0  0  0  0  0  0  0  0
    5.2442    2.9444   -0.5162 H   0  0  0  0  0  0  0  0  0  0  0  0
    3.0803    1.5080   -2.1314 H   0  0  0  0  0  0  0  0  0  0  0  0
    4.0323    3.7715   -2.7483 H   0  0  0  0  0  0  0  0  0  0  0  0
    1.1777    3.7822   -2.0789 H   0  0  0  0  0  0  0  0  0  0  0  0
    1.7894    3.0910   -3.5887 H   0  0  0  0  0  0  0  0  0  0  0  0
    2.9613    6.5906   -1.9739 H   0  0  0  0  0  0  0  0  0  0  0  0
    2.3475    8.4382   -3.9602 H   0  0  0  0  0  0  0  0  0  0  0  0
    1.2430    8.3241   -6.1256 H   0  0  0  0  0  0  0  0  0  0  0  0
    1.7724    5.5807   -7.4127 H   0  0  0  0  0  0  0  0  0  0  0  0
    2.9617    6.8958   -7.2290 H   0  0  0  0  0  0  0  0  0  0  0  0
    1.5590    7.1115   -8.3118 H   0  0  0  0  0  0  0  0  0  0  0  0
   -0.6003    5.8982   -6.3939 H   0  0  0  0  0  0  0  0  0  0  0  0
   -0.7286    7.3802   -7.3535 H   0  0  0  0  0  0  0  0  0  0  0  0
   -1.0597    7.2096   -4.2833 H   0  0  0  0  0  0  0  0  0  0  0  0
   -2.3718    7.4235   -5.4624 H   0  0  0  0  0  0  0  0  0  0  0  0
   -1.1689    8.7124   -5.2322 H   0  0  0  0  0  0  0  0  0  0  0  0
    1.5031    2.4013   -0.3907 H   0  0  0  0  0  0  0  0  0  0  0  0
    2.8702    3.0969    0.4747 H   0  0  0  0  0  0  0  0  0  0  0  0
  1  2  1  0
  1 20  1  0
  1 21  1  0
  1 22  1  0
  2  3  1  0
  2 23  1  0
  2 24  1  0
  3  4  1  0
  3 19  1  0
  3 25  1  1
  4  5  1  0
  4 26  1  0
  4 27  1  0
  5  6  1  0
  5 28  1  0
  5 29  1  0
  6  7  1  0
  6 30  1  0
  6 31  1  0
  7  8  1  0
  7 19  1  0
  7 32  1  6
  8  9  1  0
  8 33  1  0
  9 10  1  0
  9 34  1  0
  9 35  1  0
 10 11  1  0
 10 18  2  0
 11 12  2  0
 11 36  1  0
 12 13  1  0
 12 37  1  0
 13 14  1  0
 13 18  1  0
 14 15  1  0
 14 16  1  0
 14 38  1  1
 15 39  1  0
 15 40  1  0
 15 41  1  0
 16 17  1  0
 16 42  1  0
 16 43  1  0
 17 44  1  0
 17 45  1  0
 17 46  1  0
 19 47  1  0
 19 48  1  0
M  END

