
     RDKit          3D

 23 24  0  0  0  0  0  0  0  0999 V2000
    2.7193    1.3206    0.3425 C   0  0  0  0  0  0  0  0  0  0  0  0
    2.6017   -0.0922    0.0294 N   0  0  0  0  0  0  0  0  0  0  0  0
    1.2521   -0.5817    0.2297 C   0  0  0  0  0  0  0  0  0  0  0  0
    3.1385   -0.4267   -1.2829 C   0  0  0  0  0  0  0  0  0  0  0  0
    4.6415   -0.4080   -1.3268 C   0  0  0  0  0  0  0  0  0  0  0  0
    5.5158   -0.6631   -0.2842 C   0  0  0  0  0  0  0  0  0  0  0  0
    6.7790   -0.5770   -0.8478 N   0  0  0  0  0  0  0  0  0  0  0  0
    8.1094   -0.6905   -0.4704 C   0  0  0  0  0  0  0  0  0  0  0  0
    8.9564   -0.4870   -1.5102 C   0  0  0  0  0  0  0  0  0  0  0  0
    8.1186   -0.1385   -3.0186 S   0  0  0  0  0  0  0  0  0  0  0  0
    6.5817   -0.2813   -2.1840 C   0  0  0  0  0  0  0  0  0  0  0  0
    5.3185   -0.1698   -2.5056 N   0  0  0  0  0  0  0  0  0  0  0  0
    2.4211    1.5034    1.3876 H   0  0  0  0  0  0  0  0  0  0  0  0
    2.0837    1.9635   -0.3098 H   0  0  0  0  0  0  0  0  0  0  0  0
    3.7619    1.6512    0.2254 H   0  0  0  0  0  0  0  0  0  0  0  0
    0.9292   -0.3817    1.2642 H   0  0  0  0  0  0  0  0  0  0  0  0
    1.2121   -1.6708    0.0691 H   0  0  0  0  0  0  0  0  0  0  0  0
    0.5033   -0.1112   -0.4499 H   0  0  0  0  0  0  0  0  0  0  0  0
    2.7604    0.2381   -2.0919 H   0  0  0  0  0  0  0  0  0  0  0  0
    2.7915   -1.4424   -1.5431 H   0  0  0  0  0  0  0  0  0  0  0  0
    5.3409   -0.8819    0.7644 H   0  0  0  0  0  0  0  0  0  0  0  0
    8.3757   -0.9211    0.5598 H   0  0  0  0  0  0  0  0  0  0  0  0
   10.0433   -0.5224   -1.4815 H   0  0  0  0  0  0  0  0  0  0  0  0
  1  2  1  0
  1 13  1  0
  1 14  1  0
  1 15  1  0
  2  3  1  0
  2  4  1  0
  3 16  1  0
  3 17  1  0
  3 18  1  0
  4  5  1  0
  4 19  1  0
  4 20  1  0
  5  6  2  0
  5 12  1  0
  6  7  1  0
  6 21  1  0
  7  8  1  0
  7 11  1  0
  8  9  2  0
  8 22  1  0
  9 10  1  0
  9 23  1  0
 10 11  1  0
 11 12  2  0
M  END

