
     RDKit          3D

 51 52  0  0  0  0  0  0  0  0999 V2000
    2.8939    5.8804   -1.7407 C   0  0  0  0  0  0  0  0  0  0  0  0
    4.2468    6.3054   -2.2628 C   0  0  0  0  0  0  0  0  0  0  0  0
    5.0391    5.4030   -3.1083 C   0  0  0  0  0  0  0  0  0  0  0  0
    4.8016    4.2191   -3.6994 C   0  0  0  0  0  0  0  0  0  0  0  0
    3.0581    3.0101   -3.7694 I   0  0  0  0  0  0  0  0  0  0  0  0
    4.7308    7.5304   -1.9323 C   0  0  0  0  0  0  0  0  0  0  0  0
    6.0129    8.1944   -2.3503 C   0  0  0  0  0  0  0  0  0  0  0  0
    7.0496    8.3253   -1.2089 C   0  0  0  0  0  0  0  0  0  0  0  0
    7.6888    7.0002   -0.8424 C   0  0  0  0  0  0  0  0  0  0  0  0
    8.3664    6.4253   -1.8652 N   0  0  0  0  0  0  0  0  0  0  0  0
    8.9894    5.2847   -1.6106 C   0  0  0  0  0  0  0  0  0  0  0  0
    8.9857    4.6054   -0.4669 N   0  0  0  0  0  0  0  0  0  0  0  0
    8.2853    5.1358    0.5469 C   0  0  0  0  0  0  0  0  0  0  0  0
    8.2317    4.4599    1.7260 N   0  0  0  0  0  0  0  0  0  0  0  0
    8.8322    3.1420    1.9149 C   0  0  2  0  0  0  0  0  0  0  0  0
    9.7518    3.1329    1.3123 H   0  0  0  0  0  0  0  0  0  0  0  0
    7.9266    2.0086    1.3992 C   0  0  0  0  0  0  0  0  0  0  0  0
    9.2143    2.9520    3.3713 C   0  0  0  0  0  0  0  0  0  0  0  0
   10.5189    2.6386    3.7650 C   0  0  0  0  0  0  0  0  0  0  0  0
   10.8723    2.4503    5.0372 N   0  0  0  0  0  0  0  0  0  0  0  0
    9.9156    2.5764    5.9646 C   0  0  0  0  0  0  0  0  0  0  0  0
   10.2922    2.3673    7.4056 C   0  0  0  0  0  0  0  0  0  0  0  0
    8.6335    2.8783    5.7023 N   0  0  0  0  0  0  0  0  0  0  0  0
    8.2974    3.0572    4.4280 C   0  0  0  0  0  0  0  0  0  0  0  0
    7.6174    6.4018    0.4176 C   0  0  0  0  0  0  0  0  0  0  0  0
    6.9618    7.0151    1.6361 C   0  0  0  0  0  0  0  0  0  0  0  0
    5.9996    6.0965    2.2668 N   0  0  0  0  0  0  0  0  0  0  0  0
    2.9465    4.9215   -1.2009 H   0  0  0  0  0  0  0  0  0  0  0  0
    2.1688    5.7375   -2.5572 H   0  0  0  0  0  0  0  0  0  0  0  0
    2.4876    6.6418   -1.0581 H   0  0  0  0  0  0  0  0  0  0  0  0
    6.0652    5.7440   -3.2887 H   0  0  0  0  0  0  0  0  0  0  0  0
    5.5900    3.7337   -4.2767 H   0  0  0  0  0  0  0  0  0  0  0  0
    4.1013    8.1402   -1.2708 H   0  0  0  0  0  0  0  0  0  0  0  0
    5.7717    9.2137   -2.7006 H   0  0  0  0  0  0  0  0  0  0  0  0
    6.4961    7.6819   -3.1929 H   0  0  0  0  0  0  0  0  0  0  0  0
    6.5902    8.8171   -0.3407 H   0  0  0  0  0  0  0  0  0  0  0  0
    7.8594    8.9867   -1.5596 H   0  0  0  0  0  0  0  0  0  0  0  0
    9.5673    4.8436   -2.4338 H   0  0  0  0  0  0  0  0  0  0  0  0
    7.4462    4.7411    2.3226 H   0  0  0  0  0  0  0  0  0  0  0  0
    8.4139    1.0298    1.5314 H   0  0  0  0  0  0  0  0  0  0  0  0
    7.7238    2.1538    0.3279 H   0  0  0  0  0  0  0  0  0  0  0  0
    6.9664    1.9865    1.9399 H   0  0  0  0  0  0  0  0  0  0  0  0
   11.3124    2.5376    3.0126 H   0  0  0  0  0  0  0  0  0  0  0  0
   11.3626    2.1435    7.4924 H   0  0  0  0  0  0  0  0  0  0  0  0
    9.7060    1.5388    7.8350 H   0  0  0  0  0  0  0  0  0  0  0  0
   10.0515    3.2655    7.9965 H   0  0  0  0  0  0  0  0  0  0  0  0
    7.2438    3.3016    4.2344 H   0  0  0  0  0  0  0  0  0  0  0  0
    6.5192    7.9917    1.3807 H   0  0  0  0  0  0  0  0  0  0  0  0
    7.7482    7.2169    2.3873 H   0  0  0  0  0  0  0  0  0  0  0  0
    5.2257    5.9004    1.6298 H   0  0  0  0  0  0  0  0  0  0  0  0
    5.5985    6.5183    3.1047 H   0  0  0  0  0  0  0  0  0  0  0  0
  1  2  1  0
  1 28  1  0
  1 29  1  0
  1 30  1  0
  2  3  1  0
  2  6  2  0
  3  4  2  0
  3 31  1  0
  4  5  1  0
  4 32  1  0
  6  7  1  0
  6 33  1  0
  7  8  1  0
  7 34  1  0
  7 35  1  0
  8  9  1  0
  8 36  1  0
  8 37  1  0
  9 10  2  0
  9 25  1  0
 10 11  1  0
 11 12  2  0
 11 38  1  0
 12 13  1  0
 13 14  1  0
 13 25  2  0
 14 15  1  0
 14 39  1  0
 15 16  1  6
 15 17  1  0
 15 18  1  0
 17 40  1  0
 17 41  1  0
 17 42  1  0
 18 19  2  0
 18 24  1  0
 19 20  1  0
 19 43  1  0
 20 21  2  0
 21 22  1  0
 21 23  1  0
 22 44  1  0
 22 45  1  0
 22 46  1  0
 23 24  2  0
 24 47  1  0
 25 26  1  0
 26 27  1  0
 26 48  1  0
 26 49  1  0
 27 50  1  0
 27 51  1  0
M  END

