
     RDKit          3D

 45 47  0  0  0  0  0  0  0  0999 V2000
    0.2413   -0.8598   -0.5039 C   0  0  0  0  0  0  0  0  0  0  0  0
    1.5668   -0.5654   -0.1361 O   0  0  0  0  0  0  0  0  0  0  0  0
    2.6274   -1.1595   -0.8710 C   0  0  1  0  0  0  0  0  0  0  0  0
    2.7039   -0.6043   -2.3036 C   0  0  0  0  0  0  0  0  0  0  0  0
    2.0183    0.5078   -2.5909 N   0  0  0  0  0  0  0  0  0  0  0  0
    2.1568    0.9951   -3.8222 C   0  0  0  0  0  0  0  0  0  0  0  0
    2.9703    0.4112   -4.7994 C   0  0  0  0  0  0  0  0  0  0  0  0
    3.6542   -0.7505   -4.3929 C   0  0  0  0  0  0  0  0  0  0  0  0
    3.5117   -1.2403   -3.1562 N   0  0  0  0  0  0  0  0  0  0  0  0
    4.6017   -1.4695   -5.3258 C   0  0  0  0  0  0  0  0  0  0  0  0
    4.4337   -1.0615   -6.7914 C   0  0  0  0  0  0  0  0  0  0  0  0
    4.3359    0.4629   -6.9413 C   0  0  1  0  0  0  0  0  0  0  0  0
    4.3373    0.9153   -8.4074 C   0  0  0  0  0  0  0  0  0  0  0  0
    5.5768    0.5450   -9.0813 N   0  0  0  0  0  0  0  0  0  0  0  0
    3.0951    0.9766   -6.1966 C   0  0  0  0  0  0  0  0  0  0  0  0
    3.9112   -0.7135   -0.1283 C   0  0  0  0  0  0  0  0  0  0  0  0
    3.9938   -1.2934    1.2878 C   0  0  0  0  0  0  0  0  0  0  0  0
    3.8871   -2.8228    1.2773 C   0  0  0  0  0  0  0  0  0  0  0  0
    2.6207   -3.2857    0.5462 C   0  0  0  0  0  0  0  0  0  0  0  0
    2.5431   -2.7047   -0.8707 C   0  0  0  0  0  0  0  0  0  0  0  0
   -0.4046   -0.1920    0.0859 H   0  0  0  0  0  0  0  0  0  0  0  0
   -0.0447   -1.9037   -0.2719 H   0  0  0  0  0  0  0  0  0  0  0  0
    0.0457   -0.6657   -1.5724 H   0  0  0  0  0  0  0  0  0  0  0  0
    1.5934    1.9095   -4.0541 H   0  0  0  0  0  0  0  0  0  0  0  0
    4.4738   -2.5541   -5.1825 H   0  0  0  0  0  0  0  0  0  0  0  0
    5.6304   -1.2482   -4.9849 H   0  0  0  0  0  0  0  0  0  0  0  0
    3.5125   -1.5155   -7.2028 H   0  0  0  0  0  0  0  0  0  0  0  0
    5.2679   -1.4372   -7.4010 H   0  0  0  0  0  0  0  0  0  0  0  0
    5.2289    0.9074   -6.4568 H   0  0  0  0  0  0  0  0  0  0  0  0
    4.1117    2.0042   -8.4406 H   0  0  0  0  0  0  0  0  0  0  0  0
    3.5017    0.4160   -8.9304 H   0  0  0  0  0  0  0  0  0  0  0  0
    6.3498    1.1235   -8.7499 H   0  0  0  0  0  0  0  0  0  0  0  0
    5.5067    0.7087  -10.0848 H   0  0  0  0  0  0  0  0  0  0  0  0
    2.1932    0.7002   -6.7770 H   0  0  0  0  0  0  0  0  0  0  0  0
    3.0938    2.0795   -6.1521 H   0  0  0  0  0  0  0  0  0  0  0  0
    3.9168    0.3880   -0.0998 H   0  0  0  0  0  0  0  0  0  0  0  0
    4.7791   -1.0364   -0.7267 H   0  0  0  0  0  0  0  0  0  0  0  0
    3.1736   -0.8708    1.8909 H   0  0  0  0  0  0  0  0  0  0  0  0
    4.9378   -0.9755    1.7625 H   0  0  0  0  0  0  0  0  0  0  0  0
    3.8993   -3.2156    2.3082 H   0  0  0  0  0  0  0  0  0  0  0  0
    4.7738   -3.2481    0.7707 H   0  0  0  0  0  0  0  0  0  0  0  0
    1.7343   -2.9709    1.1237 H   0  0  0  0  0  0  0  0  0  0  0  0
    2.5876   -4.3873    0.4953 H   0  0  0  0  0  0  0  0  0  0  0  0
    1.6199   -3.0310   -1.3774 H   0  0  0  0  0  0  0  0  0  0  0  0
    3.3737   -3.0810   -1.4858 H   0  0  0  0  0  0  0  0  0  0  0  0
  1  2  1  0
  1 21  1  0
  1 22  1  0
  1 23  1  0
  3  2  1  1
  3  4  1  0
  3 16  1  0
  3 20  1  0
  4  5  2  0
  4  9  1  0
  5  6  1  0
  6  7  2  0
  6 24  1  0
  7  8  1  0
  7 15  1  0
  8  9  2  0
  8 10  1  0
 10 11  1  0
 10 25  1  0
 10 26  1  0
 11 12  1  0
 11 27  1  0
 11 28  1  0
 12 13  1  0
 12 15  1  0
 12 29  1  1
 13 14  1  0
 13 30  1  0
 13 31  1  0
 14 32  1  0
 14 33  1  0
 15 34  1  0
 15 35  1  0
 16 17  1  0
 16 36  1  0
 16 37  1  0
 17 18  1  0
 17 38  1  0
 17 39  1  0
 18 19  1  0
 18 40  1  0
 18 41  1  0
 19 20  1  0
 19 42  1  0
 19 43  1  0
 20 44  1  0
 20 45  1  0
M  END

