
     RDKit          3D

 29 29  0  0  0  0  0  0  0  0999 V2000
    3.7758   -1.2991   -4.2960 N   0  0  0  0  0  0  0  0  0  0  0  0
    4.1913   -1.0209   -2.9220 C   0  0  0  0  0  0  0  0  0  0  0  0
    4.6469    0.4310   -2.7816 C   0  0  0  0  0  0  0  0  0  0  0  0
    5.0424    0.8210   -1.3665 C   0  0  2  0  0  0  0  0  0  0  0  0
    4.1874    0.6228   -0.6823 H   0  0  0  0  0  0  0  0  0  0  0  0
    5.5001    2.2852   -1.1789 C   0  0  0  0  0  0  0  0  0  0  0  0
    6.6111    2.1910   -0.1058 C   0  0  0  0  0  0  0  0  0  0  0  0
    6.7038    0.6757    0.2003 C   0  0  2  0  0  0  0  0  0  0  0  0
    6.0593    0.4500    1.0787 H   0  0  0  0  0  0  0  0  0  0  0  0
    8.1001    0.1246    0.4505 C   0  0  0  0  0  0  0  0  0  0  0  0
    8.7469    0.6331    1.7382 C   0  0  0  0  0  0  0  0  0  0  0  0
   10.0862    0.0754    1.8958 N   0  0  0  0  0  0  0  0  0  0  0  0
    6.1531    0.0402   -0.9441 O   0  0  0  0  0  0  0  0  0  0  0  0
    3.4320   -2.2567   -4.3728 H   0  0  0  0  0  0  0  0  0  0  0  0
    4.5841   -1.2462   -4.9188 H   0  0  0  0  0  0  0  0  0  0  0  0
    4.9984   -1.6794   -2.5413 H   0  0  0  0  0  0  0  0  0  0  0  0
    3.3205   -1.1869   -2.2623 H   0  0  0  0  0  0  0  0  0  0  0  0
    3.8371    1.0942   -3.1301 H   0  0  0  0  0  0  0  0  0  0  0  0
    5.5152    0.6118   -3.4420 H   0  0  0  0  0  0  0  0  0  0  0  0
    4.6650    2.9359   -0.8791 H   0  0  0  0  0  0  0  0  0  0  0  0
    5.9008    2.6789   -2.1259 H   0  0  0  0  0  0  0  0  0  0  0  0
    6.3825    2.7760    0.7977 H   0  0  0  0  0  0  0  0  0  0  0  0
    7.5717    2.5571   -0.5010 H   0  0  0  0  0  0  0  0  0  0  0  0
    8.7492    0.3707   -0.4064 H   0  0  0  0  0  0  0  0  0  0  0  0
    8.0290   -0.9772    0.4853 H   0  0  0  0  0  0  0  0  0  0  0  0
    8.0618    0.4226    2.5908 H   0  0  0  0  0  0  0  0  0  0  0  0
    8.8425    1.7324    1.6917 H   0  0  0  0  0  0  0  0  0  0  0  0
   10.0323   -0.9372    2.0174 H   0  0  0  0  0  0  0  0  0  0  0  0
   10.5271    0.4377    2.7412 H   0  0  0  0  0  0  0  0  0  0  0  0
  1  2  1  0
  1 14  1  0
  1 15  1  0
  2  3  1  0
  2 16  1  0
  2 17  1  0
  3  4  1  0
  3 18  1  0
  3 19  1  0
  4  5  1  1
  4  6  1  0
  4 13  1  0
  6  7  1  0
  6 20  1  0
  6 21  1  0
  7  8  1  0
  7 22  1  0
  7 23  1  0
  8  9  1  1
  8 10  1  0
  8 13  1  0
 10 11  1  0
 10 24  1  0
 10 25  1  0
 11 12  1  0
 11 26  1  0
 11 27  1  0
 12 28  1  0
 12 29  1  0
M  END

