
     RDKit          3D

 43 44  0  0  0  0  0  0  0  0999 V2000
    4.1041    1.2669   -1.1675 C   0  0  0  0  0  0  0  0  0  0  0  0
    4.4550   -0.2048   -0.9465 C   0  0  0  0  0  0  0  0  0  0  0  0
    3.2308   -1.1333   -0.9612 C   0  0  1  0  0  0  0  0  0  0  0  0
    2.5953   -1.1250   -2.2826 N   0  0  0  0  0  0  0  0  0  0  0  0
    1.2431   -1.0294   -2.4553 C   0  0  0  0  0  0  0  0  0  0  0  0
    0.4769   -0.9217   -1.5054 O   0  0  0  0  0  0  0  0  0  0  0  0
    0.7157   -0.9124   -3.9170 C   0  0  1  0  0  0  0  0  0  0  0  0
    0.5598    0.5201   -4.2169 N   0  0  0  0  0  0  0  0  0  0  0  0
    1.6300   -1.5364   -4.9904 C   0  0  0  0  0  0  0  0  0  0  0  0
    1.7041   -3.0682   -4.9237 C   0  0  0  0  0  0  0  0  0  0  0  0
    0.3060   -3.6957   -4.9865 C   0  0  0  0  0  0  0  0  0  0  0  0
   -0.6153   -3.1042   -3.9131 C   0  0  0  0  0  0  0  0  0  0  0  0
   -0.6741   -1.5748   -3.9963 C   0  0  0  0  0  0  0  0  0  0  0  0
    3.5029   -2.5640   -0.4960 C   0  0  0  0  0  0  0  0  0  0  0  0
    2.4356   -3.3203    0.0203 C   0  0  0  0  0  0  0  0  0  0  0  0
    2.6147   -4.6425    0.4292 C   0  0  0  0  0  0  0  0  0  0  0  0
    3.8811   -5.2258    0.3231 C   0  0  0  0  0  0  0  0  0  0  0  0
    4.1397   -7.0323    0.8826 Br  0  0  0  0  0  0  0  0  0  0  0  0
    4.9585   -4.4988   -0.1845 C   0  0  0  0  0  0  0  0  0  0  0  0
    4.7619   -3.1740   -0.5894 C   0  0  0  0  0  0  0  0  0  0  0  0
    5.0085    1.8951   -1.1711 H   0  0  0  0  0  0  0  0  0  0  0  0
    3.4379    1.6411   -0.3733 H   0  0  0  0  0  0  0  0  0  0  0  0
    3.5870    1.4163   -2.1284 H   0  0  0  0  0  0  0  0  0  0  0  0
    4.9667   -0.3250    0.0226 H   0  0  0  0  0  0  0  0  0  0  0  0
    5.1805   -0.5311   -1.7141 H   0  0  0  0  0  0  0  0  0  0  0  0
    2.4666   -0.7150   -0.2895 H   0  0  0  0  0  0  0  0  0  0  0  0
    3.1787   -1.3332   -3.0839 H   0  0  0  0  0  0  0  0  0  0  0  0
    1.4599    0.9988   -4.1510 H   0  0  0  0  0  0  0  0  0  0  0  0
   -0.0453    0.9490   -3.5143 H   0  0  0  0  0  0  0  0  0  0  0  0
    2.6401   -1.0868   -4.9564 H   0  0  0  0  0  0  0  0  0  0  0  0
    1.2141   -1.2256   -5.9631 H   0  0  0  0  0  0  0  0  0  0  0  0
    2.2002   -3.3841   -3.9885 H   0  0  0  0  0  0  0  0  0  0  0  0
    2.3328   -3.4441   -5.7481 H   0  0  0  0  0  0  0  0  0  0  0  0
    0.3751   -4.7909   -4.8771 H   0  0  0  0  0  0  0  0  0  0  0  0
   -0.1298   -3.5077   -5.9851 H   0  0  0  0  0  0  0  0  0  0  0  0
   -0.2587   -3.4040   -2.9117 H   0  0  0  0  0  0  0  0  0  0  0  0
   -1.6325   -3.5184   -4.0113 H   0  0  0  0  0  0  0  0  0  0  0  0
   -1.2998   -1.1732   -3.1853 H   0  0  0  0  0  0  0  0  0  0  0  0
   -1.1231   -1.2605   -4.9532 H   0  0  0  0  0  0  0  0  0  0  0  0
    1.4467   -2.8604    0.0941 H   0  0  0  0  0  0  0  0  0  0  0  0
    1.7776   -5.2157    0.8314 H   0  0  0  0  0  0  0  0  0  0  0  0
    5.9450   -4.9594   -0.2613 H   0  0  0  0  0  0  0  0  0  0  0  0
    5.6187   -2.6203   -0.9790 H   0  0  0  0  0  0  0  0  0  0  0  0
  1  2  1  0
  1 21  1  0
  1 22  1  0
  1 23  1  0
  2  3  1  0
  2 24  1  0
  2 25  1  0
  3  4  1  0
  3 14  1  0
  3 26  1  1
  4  5  1  0
  4 27  1  0
  5  6  2  0
  7  5  1  1
  7  8  1  0
  7  9  1  0
  7 13  1  0
  8 28  1  0
  8 29  1  0
  9 10  1  0
  9 30  1  0
  9 31  1  0
 10 11  1  0
 10 32  1  0
 10 33  1  0
 11 12  1  0
 11 34  1  0
 11 35  1  0
 12 13  1  0
 12 36  1  0
 12 37  1  0
 13 38  1  0
 13 39  1  0
 14 15  2  0
 14 20  1  0
 15 16  1  0
 15 40  1  0
 16 17  2  0
 16 41  1  0
 17 18  1  0
 17 19  1  0
 19 20  2  0
 19 42  1  0
 20 43  1  0
M  END

