
     RDKit          3D

 63 65  0  0  0  0  0  0  0  0999 V2000
    8.6946    5.7744   -5.8429 C   0  0  0  0  0  0  0  0  0  0  0  0
    8.3284    4.6556   -4.8981 C   0  0  0  0  0  0  0  0  0  0  0  0
    8.8388    3.3615   -5.0624 C   0  0  0  0  0  0  0  0  0  0  0  0
    8.4968    2.3491   -4.1647 C   0  0  0  0  0  0  0  0  0  0  0  0
    7.6271    2.5991   -3.0950 C   0  0  0  0  0  0  0  0  0  0  0  0
    7.2510    1.5374   -2.2140 N   0  0  0  0  0  0  0  0  0  0  0  0
    8.0528    1.2518   -0.7447 S   0  0  1  0  0  0  0  0  0  0  0  0
    8.1842    2.5466   -0.0761 O   0  0  0  0  0  0  0  0  0  0  0  0
    7.3374    0.1220   -0.1542 O   0  0  0  0  0  0  0  0  0  0  0  0
    9.7089    0.6957   -1.1487 C   0  0  0  0  0  0  0  0  0  0  0  0
   10.7453    1.6279   -1.2695 C   0  0  0  0  0  0  0  0  0  0  0  0
   12.0218    1.1861   -1.6017 C   0  0  0  0  0  0  0  0  0  0  0  0
   12.2795   -0.1831   -1.8130 C   0  0  0  0  0  0  0  0  0  0  0  0
   13.5900   -0.5518   -2.1427 N   0  0  0  0  0  0  0  0  0  0  0  0
   14.0948   -1.7961   -2.4108 C   0  0  0  0  0  0  0  0  0  0  0  0
   13.4603   -2.8346   -2.4125 O   0  0  0  0  0  0  0  0  0  0  0  0
   15.6104   -1.8213   -2.6965 C   0  0  1  0  0  0  0  0  0  0  0  0
   15.9135   -2.6607   -3.9339 C   0  0  0  0  0  0  0  0  0  0  0  0
   16.0765   -0.4826   -2.8218 O   0  0  0  0  0  0  0  0  0  0  0  0
   17.4019   -0.1498   -2.6525 C   0  0  0  0  0  0  0  0  0  0  0  0
   18.3491   -1.0413   -2.1310 C   0  0  0  0  0  0  0  0  0  0  0  0
   19.6749   -0.6360   -1.9375 C   0  0  0  0  0  0  0  0  0  0  0  0
   20.7032   -1.5855   -1.3706 C   0  0  0  0  0  0  0  0  0  0  0  0
   20.0261    0.6759   -2.2779 C   0  0  0  0  0  0  0  0  0  0  0  0
   19.0924    1.5749   -2.8089 C   0  0  0  0  0  0  0  0  0  0  0  0
   19.5175    2.9804   -3.1603 C   0  0  0  0  0  0  0  0  0  0  0  0
   17.7568    1.1656   -3.0141 C   0  0  0  0  0  0  0  0  0  0  0  0
   16.7323    2.1102   -3.5936 C   0  0  0  0  0  0  0  0  0  0  0  0
   11.2299   -1.1136   -1.6770 C   0  0  0  0  0  0  0  0  0  0  0  0
    9.9522   -0.6680   -1.3422 C   0  0  0  0  0  0  0  0  0  0  0  0
    7.0777    3.8900   -2.9161 C   0  0  0  0  0  0  0  0  0  0  0  0
    6.1024    4.1844   -1.8064 C   0  0  0  0  0  0  0  0  0  0  0  0
    7.4548    4.8883   -3.8236 C   0  0  0  0  0  0  0  0  0  0  0  0
    9.3065    5.4126   -6.6823 H   0  0  0  0  0  0  0  0  0  0  0  0
    9.2678    6.5624   -5.3253 H   0  0  0  0  0  0  0  0  0  0  0  0
    7.7959    6.2563   -6.2621 H   0  0  0  0  0  0  0  0  0  0  0  0
    9.5124    3.1415   -5.8952 H   0  0  0  0  0  0  0  0  0  0  0  0
    8.9058    1.3436   -4.2938 H   0  0  0  0  0  0  0  0  0  0  0  0
    7.0359    0.6469   -2.6594 H   0  0  0  0  0  0  0  0  0  0  0  0
   10.5490    2.6855   -1.0878 H   0  0  0  0  0  0  0  0  0  0  0  0
   12.8368    1.9095   -1.6937 H   0  0  0  0  0  0  0  0  0  0  0  0
   14.2793    0.1928   -2.2013 H   0  0  0  0  0  0  0  0  0  0  0  0
   16.0541   -2.2946   -1.8016 H   0  0  0  0  0  0  0  0  0  0  0  0
   15.4875   -2.1819   -4.8289 H   0  0  0  0  0  0  0  0  0  0  0  0
   15.4617   -3.6551   -3.8177 H   0  0  0  0  0  0  0  0  0  0  0  0
   16.9978   -2.7699   -4.0778 H   0  0  0  0  0  0  0  0  0  0  0  0
   18.0668   -2.0604   -1.8660 H   0  0  0  0  0  0  0  0  0  0  0  0
   20.2786   -2.5828   -1.1830 H   0  0  0  0  0  0  0  0  0  0  0  0
   21.1105   -1.2095   -0.4171 H   0  0  0  0  0  0  0  0  0  0  0  0
   21.5572   -1.7067   -2.0575 H   0  0  0  0  0  0  0  0  0  0  0  0
   21.0573    1.0095   -2.1290 H   0  0  0  0  0  0  0  0  0  0  0  0
   20.5737    3.1515   -2.9078 H   0  0  0  0  0  0  0  0  0  0  0  0
   18.9164    3.7344   -2.6250 H   0  0  0  0  0  0  0  0  0  0  0  0
   19.3930    3.1870   -4.2371 H   0  0  0  0  0  0  0  0  0  0  0  0
   17.1332    2.6540   -4.4632 H   0  0  0  0  0  0  0  0  0  0  0  0
   16.4231    2.8768   -2.8601 H   0  0  0  0  0  0  0  0  0  0  0  0
   15.8324    1.5743   -3.9198 H   0  0  0  0  0  0  0  0  0  0  0  0
   11.4333   -2.1715   -1.8262 H   0  0  0  0  0  0  0  0  0  0  0  0
    9.1393   -1.3848   -1.2091 H   0  0  0  0  0  0  0  0  0  0  0  0
    5.3448    3.3890   -1.7313 H   0  0  0  0  0  0  0  0  0  0  0  0
    5.5950    5.1456   -1.9734 H   0  0  0  0  0  0  0  0  0  0  0  0
    6.6134    4.2152   -0.8325 H   0  0  0  0  0  0  0  0  0  0  0  0
    7.0314    5.8896   -3.6957 H   0  0  0  0  0  0  0  0  0  0  0  0
  1  2  1  0
  1 34  1  0
  1 35  1  0
  1 36  1  0
  2  3  2  0
  2 33  1  0
  3  4  1  0
  3 37  1  0
  4  5  2  0
  4 38  1  0
  5  6  1  0
  5 31  1  0
  7  6  1  6
  6 39  1  0
  7  8  2  0
  7  9  2  0
  7 10  1  0
 10 11  2  0
 10 30  1  0
 11 12  1  0
 11 40  1  0
 12 13  2  0
 12 41  1  0
 13 14  1  0
 13 29  1  0
 14 15  1  0
 14 42  1  0
 15 16  2  0
 15 17  1  0
 17 18  1  0
 17 19  1  0
 17 43  1  1
 18 44  1  0
 18 45  1  0
 18 46  1  0
 19 20  1  0
 20 21  2  0
 20 27  1  0
 21 22  1  0
 21 47  1  0
 22 23  1  0
 22 24  2  0
 23 48  1  0
 23 49  1  0
 23 50  1  0
 24 25  1  0
 24 51  1  0
 25 26  1  0
 25 27  2  0
 26 52  1  0
 26 53  1  0
 26 54  1  0
 27 28  1  0
 28 55  1  0
 28 56  1  0
 28 57  1  0
 29 30  2  0
 29 58  1  0
 30 59  1  0
 31 32  1  0
 31 33  2  0
 32 60  1  0
 32 61  1  0
 32 62  1  0
 33 63  1  0
M  END

