
     RDKit          3D

 37 40  0  0  0  0  0  0  0  0999 V2000
    1.0988    0.1588    0.5304 C   0  0  0  0  0  0  0  0  0  0  0  0
    2.5739   -0.0365    0.2838 C   0  0  0  0  0  0  0  0  0  0  0  0
    3.2719    1.0408   -0.0029 N   0  0  0  0  0  0  0  0  0  0  0  0
    4.5741    0.9925   -0.1949 N   0  0  0  0  0  0  0  0  0  0  0  0
    5.2001    2.2169   -0.5817 C   0  0  0  0  0  0  0  0  0  0  0  0
    6.2822    2.6651    0.1583 C   0  0  0  0  0  0  0  0  0  0  0  0
    6.9481    3.8630   -0.1843 C   0  0  0  0  0  0  0  0  0  0  0  0
    6.5241    4.6134   -1.2589 C   0  0  0  0  0  0  0  0  0  0  0  0
    5.4271    4.1816   -2.0541 C   0  0  0  0  0  0  0  0  0  0  0  0
    4.9954    4.9322   -3.1848 C   0  0  0  0  0  0  0  0  0  0  0  0
    3.9607    4.4909   -3.9800 C   0  0  0  0  0  0  0  0  0  0  0  0
    3.3139    3.2670   -3.6792 C   0  0  0  0  0  0  0  0  0  0  0  0
    3.6960    2.5211   -2.5835 C   0  0  0  0  0  0  0  0  0  0  0  0
    4.7510    2.9541   -1.7300 C   0  0  0  0  0  0  0  0  0  0  0  0
    5.4398   -0.2200    0.2089 B   0  0  2  0  0  0  0  0  0  0  0  0
    5.8278   -0.1527    1.5431 F   0  0  0  0  0  0  0  0  0  0  0  0
    6.5241   -0.3916   -0.6250 F   0  0  0  0  0  0  0  0  0  0  0  0
    4.4887   -1.4883    0.0636 N   0  0  0  0  0  0  0  0  0  0  0  0
    5.0685   -2.6950   -0.1194 C   0  0  0  0  0  0  0  0  0  0  0  0
    4.3386   -3.8667   -0.0920 C   0  0  0  0  0  0  0  0  0  0  0  0
    2.9517   -3.7823    0.1351 C   0  0  0  0  0  0  0  0  0  0  0  0
    2.3574   -2.5436    0.2978 C   0  0  0  0  0  0  0  0  0  0  0  0
    3.1408   -1.3639    0.2439 C   0  0  0  0  0  0  0  0  0  0  0  0
    0.8823    1.2344    0.5055 H   0  0  0  0  0  0  0  0  0  0  0  0
    0.7875   -0.2323    1.5140 H   0  0  0  0  0  0  0  0  0  0  0  0
    0.4724   -0.3335   -0.2341 H   0  0  0  0  0  0  0  0  0  0  0  0
    6.6033    2.0883    1.0263 H   0  0  0  0  0  0  0  0  0  0  0  0
    7.7938    4.1955    0.4226 H   0  0  0  0  0  0  0  0  0  0  0  0
    7.0291    5.5470   -1.5206 H   0  0  0  0  0  0  0  0  0  0  0  0
    5.5109    5.8685   -3.4158 H   0  0  0  0  0  0  0  0  0  0  0  0
    3.6429    5.0766   -4.8464 H   0  0  0  0  0  0  0  0  0  0  0  0
    2.5050    2.9103   -4.3221 H   0  0  0  0  0  0  0  0  0  0  0  0
    3.1846    1.5852   -2.3662 H   0  0  0  0  0  0  0  0  0  0  0  0
    6.1476   -2.6685   -0.2771 H   0  0  0  0  0  0  0  0  0  0  0  0
    4.8390   -4.8251   -0.2345 H   0  0  0  0  0  0  0  0  0  0  0  0
    2.3445   -4.6899    0.1769 H   0  0  0  0  0  0  0  0  0  0  0  0
    1.2831   -2.4599    0.4546 H   0  0  0  0  0  0  0  0  0  0  0  0
  1  2  1  0
  1 24  1  0
  1 25  1  0
  1 26  1  0
  2  3  2  0
  2 23  1  0
  3  4  1  0
  4  5  1  0
  4 15  1  0
  5  6  2  0
  5 14  1  0
  6  7  1  0
  6 27  1  0
  7  8  2  0
  7 28  1  0
  8  9  1  0
  8 29  1  0
  9 10  1  0
  9 14  2  0
 10 11  2  0
 10 30  1  0
 11 12  1  0
 11 31  1  0
 12 13  2  0
 12 32  1  0
 13 14  1  0
 13 33  1  0
 15 16  1  1
 15 17  1  0
 15 18  1  0
 18 19  1  0
 18 23  2  0
 19 20  2  0
 19 34  1  0
 20 21  1  0
 20 35  1  0
 21 22  2  0
 21 36  1  0
 22 23  1  0
 22 37  1  0
M  CHG  2  15  -1  18   1
M  END

