
     RDKit          3D

 54 54  0  0  0  0  0  0  0  0999 V2000
    1.2500    0.6987   -0.4893 C   0  0  0  0  0  0  0  0  0  0  0  0
    2.7434    0.3749   -0.5505 C   0  0  0  0  0  0  0  0  0  0  0  0
    3.2033   -0.6052    0.5334 C   0  0  0  0  0  0  0  0  0  0  0  0
    4.6978   -0.9350    0.4789 C   0  0  0  0  0  0  0  0  0  0  0  0
    5.1539   -1.9174    1.5616 C   0  0  0  0  0  0  0  0  0  0  0  0
    6.6601   -2.2354    1.5053 C   0  0  0  0  0  0  0  0  0  0  0  0
    7.1067   -3.2755    2.5174 C   0  0  0  0  0  0  0  0  0  0  0  0
    7.5627   -2.9775    3.7582 C   0  0  0  0  0  0  0  0  0  0  0  0
    7.6558   -1.5589    4.2729 C   0  0  0  0  0  0  0  0  0  0  0  0
    7.9645   -4.0874    4.7534 C   0  0  2  0  0  0  0  0  0  0  0  0
    6.7572   -4.4356    5.6526 C   0  0  0  0  0  0  0  0  0  0  0  0
    9.1456   -3.6670    5.6538 C   0  0  0  0  0  0  0  0  0  0  0  0
    8.4042   -5.3428    3.9507 C   0  0  2  0  0  0  0  0  0  0  0  0
    9.6101   -5.1150    3.2337 O   0  0  0  0  0  0  0  0  0  0  0  0
    7.3137   -5.7712    2.9943 C   0  0  0  0  0  0  0  0  0  0  0  0
    6.7952   -7.0151    3.0522 C   0  0  0  0  0  0  0  0  0  0  0  0
    5.7351   -7.5503    2.1724 C   0  0  0  0  0  0  0  0  0  0  0  0
    5.1969   -6.9785    1.2454 O   0  0  0  0  0  0  0  0  0  0  0  0
    5.4204   -8.8146    2.5370 O   0  0  0  0  0  0  0  0  0  0  0  0
    4.4050   -9.4910    1.7796 C   0  0  0  0  0  0  0  0  0  0  0  0
    3.0107   -9.1792    2.2997 C   0  0  0  0  0  0  0  0  0  0  0  0
    6.9319   -4.6985    2.0138 C   0  0  0  0  0  0  0  0  0  0  0  0
    0.9551    1.4048   -1.2821 H   0  0  0  0  0  0  0  0  0  0  0  0
    0.9772    1.1525    0.4784 H   0  0  0  0  0  0  0  0  0  0  0  0
    0.6373   -0.2107   -0.6093 H   0  0  0  0  0  0  0  0  0  0  0  0
    3.3275    1.3096   -0.4657 H   0  0  0  0  0  0  0  0  0  0  0  0
    2.9901   -0.0420   -1.5440 H   0  0  0  0  0  0  0  0  0  0  0  0
    2.6204   -1.5414    0.4490 H   0  0  0  0  0  0  0  0  0  0  0  0
    2.9571   -0.1894    1.5285 H   0  0  0  0  0  0  0  0  0  0  0  0
    5.2816    0.0008    0.5646 H   0  0  0  0  0  0  0  0  0  0  0  0
    4.9441   -1.3499   -0.5162 H   0  0  0  0  0  0  0  0  0  0  0  0
    4.5776   -2.8550    1.4704 H   0  0  0  0  0  0  0  0  0  0  0  0
    4.9078   -1.5101    2.5586 H   0  0  0  0  0  0  0  0  0  0  0  0
    7.2297   -1.3001    1.6209 H   0  0  0  0  0  0  0  0  0  0  0  0
    6.8992   -2.6070    0.4929 H   0  0  0  0  0  0  0  0  0  0  0  0
    7.1713   -0.8321    3.6101 H   0  0  0  0  0  0  0  0  0  0  0  0
    8.7031   -1.2397    4.4100 H   0  0  0  0  0  0  0  0  0  0  0  0
    7.1740   -1.4677    5.2608 H   0  0  0  0  0  0  0  0  0  0  0  0
    6.4349   -3.5558    6.2312 H   0  0  0  0  0  0  0  0  0  0  0  0
    7.0222   -5.2276    6.3734 H   0  0  0  0  0  0  0  0  0  0  0  0
    5.8961   -4.7845    5.0643 H   0  0  0  0  0  0  0  0  0  0  0  0
    8.8787   -2.8272    6.3115 H   0  0  0  0  0  0  0  0  0  0  0  0
   10.0284   -3.3843    5.0638 H   0  0  0  0  0  0  0  0  0  0  0  0
    9.4390   -4.5104    6.2992 H   0  0  0  0  0  0  0  0  0  0  0  0
    8.6261   -6.1595    4.6554 H   0  0  0  0  0  0  0  0  0  0  0  0
    9.5093   -4.2759    2.7596 H   0  0  0  0  0  0  0  0  0  0  0  0
    7.1661   -7.7151    3.8051 H   0  0  0  0  0  0  0  0  0  0  0  0
    4.6394  -10.5603    1.8884 H   0  0  0  0  0  0  0  0  0  0  0  0
    4.4987   -9.2086    0.7203 H   0  0  0  0  0  0  0  0  0  0  0  0
    2.9275   -9.4199    3.3712 H   0  0  0  0  0  0  0  0  0  0  0  0
    2.2631   -9.7767    1.7533 H   0  0  0  0  0  0  0  0  0  0  0  0
    2.7701   -8.1156    2.1554 H   0  0  0  0  0  0  0  0  0  0  0  0
    5.9026   -4.8594    1.6597 H   0  0  0  0  0  0  0  0  0  0  0  0
    7.5443   -4.8308    1.0990 H   0  0  0  0  0  0  0  0  0  0  0  0
  1  2  1  0
  1 23  1  0
  1 24  1  0
  1 25  1  0
  2  3  1  0
  2 26  1  0
  2 27  1  0
  3  4  1  0
  3 28  1  0
  3 29  1  0
  4  5  1  0
  4 30  1  0
  4 31  1  0
  5  6  1  0
  5 32  1  0
  5 33  1  0
  6  7  1  0
  6 34  1  0
  6 35  1  0
  7  8  2  0
  7 22  1  0
  8  9  1  0
  8 10  1  0
  9 36  1  0
  9 37  1  0
  9 38  1  0
 10 11  1  1
 10 12  1  0
 10 13  1  0
 11 39  1  0
 11 40  1  0
 11 41  1  0
 12 42  1  0
 12 43  1  0
 12 44  1  0
 13 14  1  0
 13 15  1  0
 13 45  1  1
 14 46  1  0
 15 16  2  0
 15 22  1  0
 16 17  1  0
 16 47  1  0
 17 18  2  0
 17 19  1  0
 19 20  1  0
 20 21  1  0
 20 48  1  0
 20 49  1  0
 21 50  1  0
 21 51  1  0
 21 52  1  0
 22 53  1  0
 22 54  1  0
M  END

