
     RDKit          3D

 30 32  0  0  0  0  0  0  0  0999 V2000
    1.7254    2.1256    0.7909 O   0  0  0  0  0  0  0  0  0  0  0  0
    2.2238    0.7538    0.3858 S   0  0  0  0  0  0  0  0  0  0  0  0
    0.6715   -0.2347   -0.0215 C   0  0  0  0  0  0  0  0  0  0  0  0
    0.0671    0.2283   -1.3129 C   0  0  0  0  0  0  0  0  0  0  0  0
    0.0933   -0.5947   -2.4481 C   0  0  0  0  0  0  0  0  0  0  0  0
   -0.4492   -0.1829   -3.6809 C   0  0  0  0  0  0  0  0  0  0  0  0
   -1.0025    1.0835   -3.7280 C   0  0  0  0  0  0  0  0  0  0  0  0
   -1.0262    1.9155   -2.6034 C   0  0  0  0  0  0  0  0  0  0  0  0
   -0.5065    1.5235   -1.3859 C   0  0  0  0  0  0  0  0  0  0  0  0
   -1.6520    3.0879   -2.9269 O   0  0  0  0  0  0  0  0  0  0  0  0
   -1.8660    3.0498   -4.3331 C   0  0  0  0  0  0  0  0  0  0  0  0
   -1.6118    1.7173   -4.7735 O   0  0  0  0  0  0  0  0  0  0  0  0
    2.6225   -0.1259    1.9376 C   0  0  0  0  0  0  0  0  0  0  0  0
    3.2679   -1.3665    1.9139 C   0  0  0  0  0  0  0  0  0  0  0  0
    3.5971   -1.9844    3.1235 C   0  0  0  0  0  0  0  0  0  0  0  0
    3.2968   -1.3546    4.3373 C   0  0  0  0  0  0  0  0  0  0  0  0
    2.6695   -0.1043    4.3445 C   0  0  0  0  0  0  0  0  0  0  0  0
    2.3332    0.5205    3.1394 C   0  0  0  0  0  0  0  0  0  0  0  0
    0.9625   -1.2949   -0.0496 H   0  0  0  0  0  0  0  0  0  0  0  0
    0.0230   -0.0523    0.8490 H   0  0  0  0  0  0  0  0  0  0  0  0
    0.5427   -1.5885   -2.3770 H   0  0  0  0  0  0  0  0  0  0  0  0
   -0.4377   -0.8299   -4.5591 H   0  0  0  0  0  0  0  0  0  0  0  0
   -0.5079    2.1868   -0.5208 H   0  0  0  0  0  0  0  0  0  0  0  0
   -1.1681    3.7474   -4.8376 H   0  0  0  0  0  0  0  0  0  0  0  0
   -2.9096    3.3227   -4.5596 H   0  0  0  0  0  0  0  0  0  0  0  0
    3.5183   -1.8474    0.9634 H   0  0  0  0  0  0  0  0  0  0  0  0
    4.0977   -2.9561    3.1191 H   0  0  0  0  0  0  0  0  0  0  0  0
    3.5619   -1.8379    5.2810 H   0  0  0  0  0  0  0  0  0  0  0  0
    2.4457    0.3899    5.2935 H   0  0  0  0  0  0  0  0  0  0  0  0
    1.8588    1.5046    3.1010 H   0  0  0  0  0  0  0  0  0  0  0  0
  2  1  1  1
  2  3  1  0
  2 13  1  0
  3  4  1  0
  3 19  1  0
  3 20  1  0
  4  5  2  0
  4  9  1  0
  5  6  1  0
  5 21  1  0
  6  7  2  0
  6 22  1  0
  7  8  1  0
  7 12  1  0
  8  9  2  0
  8 10  1  0
  9 23  1  0
 10 11  1  0
 11 12  1  0
 11 24  1  0
 11 25  1  0
 13 14  2  0
 13 18  1  0
 14 15  1  0
 14 26  1  0
 15 16  2  0
 15 27  1  0
 16 17  1  0
 16 28  1  0
 17 18  2  0
 17 29  1  0
 18 30  1  0
M  CHG  2   1  -1   2   1
M  END

