
     RDKit          3D

 63 64  0  0  0  0  0  0  0  0999 V2000
    4.0675    2.2384    5.3192 C   0  0  0  0  0  0  0  0  0  0  0  0
    4.7379    1.0711    4.8132 N   0  0  0  0  0  0  0  0  0  0  0  0
    4.0668    0.2242    4.1169 C   0  0  0  0  0  0  0  0  0  0  0  0
    2.7376    0.3749    3.7571 N   0  0  0  0  0  0  0  0  0  0  0  0
    1.9462   -0.5485    2.9800 C   0  0  0  0  0  0  0  0  0  0  0  0
    0.4653   -0.1735    3.0759 C   0  0  0  0  0  0  0  0  0  0  0  0
    0.2702    1.2073    2.6563 N   0  0  0  0  0  0  0  0  0  0  0  0
   -1.0378    1.8577    2.8893 C   0  0  1  0  0  0  0  0  0  0  0  0
   -1.2684    2.0265    4.4009 C   0  0  0  0  0  0  0  0  0  0  0  0
   -0.9480    3.2464    2.2366 C   0  0  0  0  0  0  0  0  0  0  0  0
   -2.2101    1.0702    2.2643 C   0  0  0  0  0  0  0  0  0  0  0  0
    4.6443   -0.9795    3.7282 N   0  0  0  0  0  0  0  0  0  0  0  0
    6.0214   -1.2951    4.0447 C   0  0  0  0  0  0  0  0  0  0  0  0
    7.0300   -0.9963    2.9464 C   0  0  0  0  0  0  0  0  0  0  0  0
    6.7556   -0.1424    1.8740 C   0  0  0  0  0  0  0  0  0  0  0  0
    7.6931    0.1308    0.8784 C   0  0  0  0  0  0  0  0  0  0  0  0
    8.9585   -0.4639    0.9443 C   0  0  0  0  0  0  0  0  0  0  0  0
    9.8245   -0.1594   -0.0617 O   0  0  0  0  0  0  0  0  0  0  0  0
   11.1181   -0.7103   -0.0542 C   0  0  0  0  0  0  0  0  0  0  0  0
    9.2730   -1.3246    2.0088 C   0  0  0  0  0  0  0  0  0  0  0  0
    8.3143   -1.5787    3.0047 C   0  0  0  0  0  0  0  0  0  0  0  0
    8.5450   -2.3748    4.0880 O   0  0  0  0  0  0  0  0  0  0  0  0
    9.7982   -3.0361    4.2807 C   0  0  1  0  0  0  0  0  0  0  0  0
    9.8319   -3.5240    5.7503 C   0  0  0  0  0  0  0  0  0  0  0  0
    9.6560   -5.0641    5.7100 C   0  0  0  0  0  0  0  0  0  0  0  0
    9.1588   -5.3673    4.2862 C   0  0  0  0  0  0  0  0  0  0  0  0
    9.8901   -4.3211    3.4348 C   0  0  0  0  0  0  0  0  0  0  0  0
    4.7329    2.7894    6.0035 H   0  0  0  0  0  0  0  0  0  0  0  0
    3.1370    2.0068    5.8825 H   0  0  0  0  0  0  0  0  0  0  0  0
    3.7784    2.9597    4.5221 H   0  0  0  0  0  0  0  0  0  0  0  0
    2.3646    1.3192    3.7588 H   0  0  0  0  0  0  0  0  0  0  0  0
    2.0798   -1.5740    3.3625 H   0  0  0  0  0  0  0  0  0  0  0  0
    2.2400   -0.5695    1.9050 H   0  0  0  0  0  0  0  0  0  0  0  0
    0.1546   -0.2709    4.1276 H   0  0  0  0  0  0  0  0  0  0  0  0
   -0.1219   -0.9152    2.4942 H   0  0  0  0  0  0  0  0  0  0  0  0
    0.5092    1.2961    1.6677 H   0  0  0  0  0  0  0  0  0  0  0  0
   -0.4252    2.5628    4.8625 H   0  0  0  0  0  0  0  0  0  0  0  0
   -1.3798    1.0585    4.9137 H   0  0  0  0  0  0  0  0  0  0  0  0
   -2.1898    2.6003    4.5857 H   0  0  0  0  0  0  0  0  0  0  0  0
   -0.1128    3.8210    2.6652 H   0  0  0  0  0  0  0  0  0  0  0  0
   -1.8786    3.8150    2.3865 H   0  0  0  0  0  0  0  0  0  0  0  0
   -0.7813    3.1621    1.1489 H   0  0  0  0  0  0  0  0  0  0  0  0
   -2.3228    0.0755    2.7238 H   0  0  0  0  0  0  0  0  0  0  0  0
   -2.0550    0.9282    1.1814 H   0  0  0  0  0  0  0  0  0  0  0  0
   -3.1641    1.6050    2.3988 H   0  0  0  0  0  0  0  0  0  0  0  0
    4.2693   -1.4188    2.8969 H   0  0  0  0  0  0  0  0  0  0  0  0
    6.0995   -2.3604    4.3180 H   0  0  0  0  0  0  0  0  0  0  0  0
    6.2731   -0.7124    4.9439 H   0  0  0  0  0  0  0  0  0  0  0  0
    5.7731    0.3313    1.8218 H   0  0  0  0  0  0  0  0  0  0  0  0
    7.4682    0.8003    0.0466 H   0  0  0  0  0  0  0  0  0  0  0  0
   11.6310   -0.3225   -0.9452 H   0  0  0  0  0  0  0  0  0  0  0  0
   11.1005   -1.8148   -0.1089 H   0  0  0  0  0  0  0  0  0  0  0  0
   11.6918   -0.4118    0.8428 H   0  0  0  0  0  0  0  0  0  0  0  0
   10.2516   -1.7936    2.0619 H   0  0  0  0  0  0  0  0  0  0  0  0
   10.6134   -2.3254    4.0670 H   0  0  0  0  0  0  0  0  0  0  0  0
    9.0152   -3.0262    6.2926 H   0  0  0  0  0  0  0  0  0  0  0  0
   10.7717   -3.2311    6.2420 H   0  0  0  0  0  0  0  0  0  0  0  0
    8.9734   -5.4329    6.4908 H   0  0  0  0  0  0  0  0  0  0  0  0
   10.6267   -5.5616    5.8749 H   0  0  0  0  0  0  0  0  0  0  0  0
    8.0712   -5.1982    4.2178 H   0  0  0  0  0  0  0  0  0  0  0  0
    9.3535   -6.4030    3.9669 H   0  0  0  0  0  0  0  0  0  0  0  0
    9.4753   -4.1909    2.4243 H   0  0  0  0  0  0  0  0  0  0  0  0
   10.9532   -4.6011    3.3248 H   0  0  0  0  0  0  0  0  0  0  0  0
  1  2  1  0
  1 28  1  0
  1 29  1  0
  1 30  1  0
  2  3  2  0
  3  4  1  0
  3 12  1  0
  4  5  1  0
  4 31  1  0
  5  6  1  0
  5 32  1  0
  5 33  1  0
  6  7  1  0
  6 34  1  0
  6 35  1  0
  8  7  1  1
  7 36  1  0
  8  9  1  0
  8 10  1  0
  8 11  1  0
  9 37  1  0
  9 38  1  0
  9 39  1  0
 10 40  1  0
 10 41  1  0
 10 42  1  0
 11 43  1  0
 11 44  1  0
 11 45  1  0
 12 13  1  0
 12 46  1  0
 13 14  1  0
 13 47  1  0
 13 48  1  0
 14 15  2  0
 14 21  1  0
 15 16  1  0
 15 49  1  0
 16 17  2  0
 16 50  1  0
 17 18  1  0
 17 20  1  0
 18 19  1  0
 19 51  1  0
 19 52  1  0
 19 53  1  0
 20 21  2  0
 20 54  1  0
 21 22  1  0
 22 23  1  0
 23 24  1  0
 23 27  1  0
 23 55  1  1
 24 25  1  0
 24 56  1  0
 24 57  1  0
 25 26  1  0
 25 58  1  0
 25 59  1  0
 26 27  1  0
 26 60  1  0
 26 61  1  0
 27 62  1  0
 27 63  1  0
M  END

