
     RDKit          3D

 34 34  0  0  0  0  0  0  0  0999 V2000
    0.8718    0.2016   -1.0019 C   0  0  0  0  0  0  0  0  0  0  0  0
    2.3315    0.3370   -0.5664 C   0  0  0  0  0  0  0  0  0  0  0  0
    3.3500    0.1568   -1.7091 C   0  0  1  0  0  0  0  0  0  0  0  0
    3.1008    1.1927   -2.7362 N   0  0  0  0  0  0  0  0  0  0  0  0
    3.6535    2.5257   -2.5830 C   0  0  0  0  0  0  0  0  0  0  0  0
    3.5709    0.7020   -4.0194 O   0  0  0  0  0  0  0  0  0  0  0  0
    2.2466    0.5128   -4.9918 S   0  0  1  0  0  0  0  0  0  0  0  0
    1.4742   -0.6300   -4.5318 O   0  0  0  0  0  0  0  0  0  0  0  0
    1.6492    1.7981   -5.2660 O   0  0  0  0  0  0  0  0  0  0  0  0
    3.0839    0.0798   -6.3065 O   0  0  0  0  0  0  0  0  0  0  0  0
    4.8011   -0.0138   -1.2107 C   0  0  1  0  0  0  0  0  0  0  0  0
    5.2591    0.9346   -0.0906 C   0  0  0  0  0  0  0  0  0  0  0  0
    6.7619    0.9995    0.1921 C   0  0  0  0  0  0  0  0  0  0  0  0
    5.2741   -1.4526   -1.1401 C   0  0  0  0  0  0  0  0  0  0  0  0
    5.7958   -0.5479   -2.2228 C   0  0  0  0  0  0  0  0  0  0  0  0
    0.1938    0.3265   -0.1427 H   0  0  0  0  0  0  0  0  0  0  0  0
    0.6773   -0.7874   -1.4468 H   0  0  0  0  0  0  0  0  0  0  0  0
    0.6106    0.9533   -1.7605 H   0  0  0  0  0  0  0  0  0  0  0  0
    2.5671   -0.4221    0.1986 H   0  0  0  0  0  0  0  0  0  0  0  0
    2.4845    1.3125   -0.0738 H   0  0  0  0  0  0  0  0  0  0  0  0
    3.0753   -0.7719   -2.2300 H   0  0  0  0  0  0  0  0  0  0  0  0
    3.2978    2.9350   -1.6262 H   0  0  0  0  0  0  0  0  0  0  0  0
    3.2611    3.1595   -3.3903 H   0  0  0  0  0  0  0  0  0  0  0  0
    4.7586    2.5513   -2.6029 H   0  0  0  0  0  0  0  0  0  0  0  0
    3.1952   -0.8867   -6.2892 H   0  0  0  0  0  0  0  0  0  0  0  0
    4.7388    0.6416    0.8378 H   0  0  0  0  0  0  0  0  0  0  0  0
    4.9135    1.9568   -0.3097 H   0  0  0  0  0  0  0  0  0  0  0  0
    7.1906    0.0115    0.4252 H   0  0  0  0  0  0  0  0  0  0  0  0
    6.9557    1.6479    1.0611 H   0  0  0  0  0  0  0  0  0  0  0  0
    7.3240    1.4169   -0.6579 H   0  0  0  0  0  0  0  0  0  0  0  0
    4.5668   -2.2420   -1.4131 H   0  0  0  0  0  0  0  0  0  0  0  0
    5.9531   -1.7331   -0.3297 H   0  0  0  0  0  0  0  0  0  0  0  0
    5.4462   -0.7032   -3.2448 H   0  0  0  0  0  0  0  0  0  0  0  0
    6.8352   -0.2184   -2.1578 H   0  0  0  0  0  0  0  0  0  0  0  0
  1  2  1  0
  1 16  1  0
  1 17  1  0
  1 18  1  0
  2  3  1  0
  2 19  1  0
  2 20  1  0
  3  4  1  0
  3 11  1  0
  3 21  1  6
  4  5  1  0
  4  6  1  0
  5 22  1  0
  5 23  1  0
  5 24  1  0
  7  6  1  1
  7  8  2  0
  7  9  2  0
  7 10  1  0
 10 25  1  0
 11 12  1  1
 11 14  1  0
 11 15  1  0
 12 13  1  0
 12 26  1  0
 12 27  1  0
 13 28  1  0
 13 29  1  0
 13 30  1  0
 14 15  1  0
 14 31  1  0
 14 32  1  0
 15 33  1  0
 15 34  1  0
M  END

