
     RDKit          3D

 37 38  0  0  0  0  0  0  0  0999 V2000
    2.5253    1.7379    4.0411 C   0  0  0  0  0  0  0  0  0  0  0  0
    3.6602    2.1046    3.0956 C   0  0  0  0  0  0  0  0  0  0  0  0
    4.1669    3.2123    3.1035 O   0  0  0  0  0  0  0  0  0  0  0  0
    4.0345    1.0940    2.2416 N   0  0  0  0  0  0  0  0  0  0  0  0
    5.0017    1.1527    1.2275 C   0  0  0  0  0  0  0  0  0  0  0  0
    5.6881    2.3319    0.7807 C   0  0  0  0  0  0  0  0  0  0  0  0
    6.5599    2.0637   -0.2412 C   0  0  0  0  0  0  0  0  0  0  0  0
    6.5604    0.3927   -0.6811 S   0  0  0  0  0  0  0  0  0  0  0  0
    5.3754    0.0124    0.5335 C   0  0  0  0  0  0  0  0  0  0  0  0
    4.9274   -1.4011    0.7842 C   0  0  0  0  0  0  0  0  0  0  0  0
    3.4685   -1.4835    0.9272 N   0  0  0  0  0  0  0  0  0  0  0  0
    2.9326   -2.8399    1.1144 C   0  0  1  0  0  0  0  0  0  0  0  0
    3.2352   -3.3709    2.5252 C   0  0  0  0  0  0  0  0  0  0  0  0
    1.4363   -2.8521    0.8379 C   0  0  0  0  0  0  0  0  0  0  0  0
    0.8535   -3.8992    0.1103 C   0  0  0  0  0  0  0  0  0  0  0  0
   -0.5265   -3.9423   -0.1123 C   0  0  0  0  0  0  0  0  0  0  0  0
   -1.3365   -2.9302    0.3895 C   0  0  0  0  0  0  0  0  0  0  0  0
   -2.6560   -2.9459    0.1857 F   0  0  0  0  0  0  0  0  0  0  0  0
   -0.7661   -1.8771    1.1129 C   0  0  0  0  0  0  0  0  0  0  0  0
   -1.5563   -0.9093    1.5855 F   0  0  0  0  0  0  0  0  0  0  0  0
    0.6046   -1.8364    1.3384 C   0  0  0  0  0  0  0  0  0  0  0  0
    1.6166    2.2799    3.7333 H   0  0  0  0  0  0  0  0  0  0  0  0
    2.7847    2.0879    5.0504 H   0  0  0  0  0  0  0  0  0  0  0  0
    2.3031    0.6610    4.0739 H   0  0  0  0  0  0  0  0  0  0  0  0
    3.5226    0.2112    2.2579 H   0  0  0  0  0  0  0  0  0  0  0  0
    5.5252    3.3105    1.2248 H   0  0  0  0  0  0  0  0  0  0  0  0
    7.2045    2.7666   -0.7669 H   0  0  0  0  0  0  0  0  0  0  0  0
    5.3846   -1.7727    1.7189 H   0  0  0  0  0  0  0  0  0  0  0  0
    5.3087   -2.0626   -0.0226 H   0  0  0  0  0  0  0  0  0  0  0  0
    3.0426   -1.0693    0.0969 H   0  0  0  0  0  0  0  0  0  0  0  0
    3.4010   -3.5408    0.3899 H   0  0  0  0  0  0  0  0  0  0  0  0
    2.7789   -2.7217    3.2888 H   0  0  0  0  0  0  0  0  0  0  0  0
    4.3178   -3.4233    2.7174 H   0  0  0  0  0  0  0  0  0  0  0  0
    2.8260   -4.3850    2.6467 H   0  0  0  0  0  0  0  0  0  0  0  0
    1.4841   -4.6952   -0.2935 H   0  0  0  0  0  0  0  0  0  0  0  0
   -0.9906   -4.7516   -0.6798 H   0  0  0  0  0  0  0  0  0  0  0  0
    1.0112   -0.9969    1.9044 H   0  0  0  0  0  0  0  0  0  0  0  0
  1  2  1  0
  1 22  1  0
  1 23  1  0
  1 24  1  0
  2  3  2  0
  2  4  1  0
  4  5  1  0
  4 25  1  0
  5  6  1  0
  5  9  2  0
  6  7  2  0
  6 26  1  0
  7  8  1  0
  7 27  1  0
  8  9  1  0
  9 10  1  0
 10 11  1  0
 10 28  1  0
 10 29  1  0
 11 12  1  0
 11 30  1  0
 12 13  1  0
 12 14  1  0
 12 31  1  6
 13 32  1  0
 13 33  1  0
 13 34  1  0
 14 15  2  0
 14 21  1  0
 15 16  1  0
 15 35  1  0
 16 17  2  0
 16 36  1  0
 17 18  1  0
 17 19  1  0
 19 20  1  0
 19 21  2  0
 21 37  1  0
M  END

